RTQ.pdb
     RDKit          3D

 28 27  0  0  1  0  0  0  0  0999 V2000
   27.7353  -19.5592  -21.6050 N   0  0  0  0  0  0  0  0  0  0  0  0
   27.2172  -18.7853  -20.5200 C   0  0  0  0  0  0  0  0  0  0  0  0
   26.1679  -18.0603  -20.7889 N   0  0  0  0  0  0  0  0  0  0  0  0
   27.7918  -18.7922  -19.2302 N   0  0  0  0  0  0  0  0  0  0  0  0
   28.3710  -20.0183  -18.7347 C   0  0  0  0  0  0  0  0  0  0  0  0
   27.3534  -20.9695  -18.2063 C   0  0  0  0  0  0  0  0  0  0  0  0
   26.8449  -20.5011  -16.8844 C   0  0  0  0  0  0  0  0  0  0  0  0
   27.4842  -21.2041  -15.7118 C   0  0  2  0  0  0  0  0  0  0  0  0
   28.3856  -22.1994  -16.2484 N   0  0  0  0  0  0  0  0  0  0  0  0
   26.3557  -21.8376  -14.9642 C   0  0  0  0  0  0  0  0  0  0  0  0
   26.2089  -23.0783  -15.0984 O   0  0  0  0  0  0  0  0  0  0  0  0
   25.7767  -17.4087  -20.0781 C   0  0  0  0  0  0  0  0  0  0  0  0
   25.9722  -21.6797  -11.3492 C   0  0  2  0  0  0  0  0  0  0  0  0
   24.5996  -21.3508  -11.8843 O   0  0  0  0  0  0  0  0  0  0  0  0
   24.3657  -19.9944  -11.7020 C   0  0  2  0  0  0  0  0  0  0  0  0
   24.4322  -21.7626  -13.3265 N   0  0  0  0  0  0  0  0  0  0  0  0
   25.4711  -21.1006  -14.1316 C   0  0  0  0  0  0  0  0  0  0  0  0
   23.0920  -21.4968  -13.8764 O   0  0  0  0  0  0  0  0  0  0  0  0
   22.8807  -20.4995  -14.6398 N   0  0  0  0  0  0  0  0  0  0  0  0
   17.8278  -24.8283  -12.7998 C   0  0  0  0  0  0  0  0  0  0  0  0
   17.2778  -23.7046  -13.4676 O   0  0  0  0  0  0  0  0  0  0  0  0
   16.0284  -23.6213  -13.5813 C   0  0  0  0  0  0  0  0  0  0  0  0
   18.2166  -22.6874  -13.9956 C   0  0  0  0  0  0  0  0  0  0  0  0
   19.6412  -23.0498  -13.6364 C   0  0  1  0  0  0  0  0  0  0  0  0
   20.6119  -21.9625  -14.0438 N   0  0  0  0  0  0  0  0  0  0  0  0
   21.9590  -22.3031  -13.6117 C   0  0  0  0  0  0  0  0  0  0  0  0
   20.1539  -20.7157  -13.3318 O   0  0  0  0  0  0  0  0  0  0  0  0
   20.6537  -20.3499  -12.1139 O   0  0  0  0  0  0  0  0  0  0  0  0
  2  4  1  0
  2  1  1  0
  3  2  2  0
  5  4  1  0
  6  5  1  0
  7  8  1  0
  7  6  1  0
  8  9  1  6
  8 10  1  0
 10 11  2  0
 13 12  1  1
 13 15  1  0
 14 13  1  0
 16 10  1  0
 15 16  1  6
 17 15  1  0
 17 18  2  0
 19 20  1  0
 20 22  1  0
 20 21  2  0
 22 23  1  0
 24 23  1  6
 24 26  1  0
 24 25  1  0
 25 17  1  0
 26 27  1  0
 28 26  2  0
M  END
$$$$
