RTQ.pdb
     RDKit          3D

 28 27  0  0  1  0  0  0  0  0999 V2000
   19.4088  -22.9530   -8.8850 N   0  0  0  0  0  0  0  0  0  0  0  0
   19.3045  -22.6533  -10.2792 C   0  0  0  0  0  0  0  0  0  0  0  0
   18.1091  -22.7398  -10.7916 N   0  0  0  0  0  0  0  0  0  0  0  0
   20.4151  -22.2845  -11.0694 N   0  0  0  0  0  0  0  0  0  0  0  0
   21.6970  -22.1119  -10.4280 C   0  0  0  0  0  0  0  0  0  0  0  0
   22.2202  -20.7215  -10.5401 C   0  0  0  0  0  0  0  0  0  0  0  0
   23.5804  -20.6305   -9.9343 C   0  0  0  0  0  0  0  0  0  0  0  0
   24.5866  -21.5543  -10.5762 C   0  0  2  0  0  0  0  0  0  0  0  0
   25.4939  -21.9882   -9.5372 N   0  0  0  0  0  0  0  0  0  0  0  0
   25.2895  -20.7258  -11.6024 C   0  0  0  0  0  0  0  0  0  0  0  0
   25.9529  -19.7438  -11.1847 O   0  0  0  0  0  0  0  0  0  0  0  0
   17.9518  -22.5627  -11.8048 C   0  0  0  0  0  0  0  0  0  0  0  0
   28.0418  -21.3568  -13.7219 C   0  0  2  0  0  0  0  0  0  0  0  0
   26.9682  -20.9025  -14.6807 O   0  0  0  0  0  0  0  0  0  0  0  0
   26.4769  -22.0124  -15.3550 C   0  0  2  0  0  0  0  0  0  0  0  0
   25.8703  -20.1317  -13.9893 N   0  0  0  0  0  0  0  0  0  0  0  0
   25.2314  -21.0074  -12.9939 C   0  0  0  0  0  0  0  0  0  0  0  0
   24.8689  -19.5587  -14.9049 O   0  0  0  0  0  0  0  0  0  0  0  0
   23.8023  -20.1924  -15.1924 N   0  0  0  0  0  0  0  0  0  0  0  0
   22.7946  -13.2384  -15.2359 C   0  0  0  0  0  0  0  0  0  0  0  0
   23.8932  -14.0875  -15.5244 O   0  0  0  0  0  0  0  0  0  0  0  0
   24.9818  -13.5676  -15.8790 C   0  0  0  0  0  0  0  0  0  0  0  0
   23.6906  -15.5489  -15.3893 C   0  0  0  0  0  0  0  0  0  0  0  0
   24.2073  -16.2671  -16.6170 C   0  0  2  0  0  0  0  0  0  0  0  0
   24.0511  -17.7672  -16.4915 N   0  0  0  0  0  0  0  0  0  0  0  0
   25.0027  -18.2928  -15.5242 C   0  0  0  0  0  0  0  0  0  0  0  0
   24.3578  -18.3273  -17.8565 O   0  0  0  0  0  0  0  0  0  0  0  0
   25.4955  -19.0404  -18.1100 O   0  0  0  0  0  0  0  0  0  0  0  0
  2  4  1  0
  2  1  1  0
  3  2  2  0
  5  4  1  0
  6  5  1  0
  7  8  1  0
  7  6  1  0
  8  9  1  1
  8 10  1  0
 10 11  2  0
 13 12  1  6
 13 15  1  0
 14 13  1  0
 16 10  1  0
 15 16  1  6
 17 15  1  0
 17 18  2  0
 19 20  1  0
 20 22  1  0
 20 21  2  0
 22 23  1  0
 24 23  1  1
 24 26  1  0
 24 25  1  0
 25 17  1  0
 26 27  1  0
 28 26  2  0
M  END
$$$$
