RTQ.pdb
     RDKit          3D

 28 27  0  0  1  0  0  0  0  0999 V2000
   16.4633  -24.5612   -7.0987 N   0  0  0  0  0  0  0  0  0  0  0  0
   17.5186  -25.2866   -6.4626 C   0  0  0  0  0  0  0  0  0  0  0  0
   17.3581  -25.5263   -5.1915 N   0  0  0  0  0  0  0  0  0  0  0  0
   18.6711  -25.7249   -7.1508 N   0  0  0  0  0  0  0  0  0  0  0  0
   18.7946  -25.4272   -8.5581 C   0  0  0  0  0  0  0  0  0  0  0  0
   18.7932  -23.9652   -8.8449 C   0  0  0  0  0  0  0  0  0  0  0  0
   18.8076  -23.7271  -10.3175 C   0  0  0  0  0  0  0  0  0  0  0  0
   18.6805  -22.2705  -10.6915 C   0  0  2  0  0  0  0  0  0  0  0  0
   17.2737  -21.9995  -10.8875 N   0  0  0  0  0  0  0  0  0  0  0  0
   19.4474  -22.1183  -11.9653 C   0  0  0  0  0  0  0  0  0  0  0  0
   20.1105  -23.1126  -12.3532 O   0  0  0  0  0  0  0  0  0  0  0  0
   18.0698  -26.0679   -4.6595 C   0  0  0  0  0  0  0  0  0  0  0  0
   18.3211  -22.2575  -15.1420 C   0  0  2  0  0  0  0  0  0  0  0  0
   19.0074  -20.9135  -15.1098 O   0  0  0  0  0  0  0  0  0  0  0  0
   18.0448  -19.9279  -14.9363 C   0  0  2  0  0  0  0  0  0  0  0  0
   20.0824  -20.8434  -14.0530 N   0  0  0  0  0  0  0  0  0  0  0  0
   19.4486  -20.9188  -12.7270 C   0  0  0  0  0  0  0  0  0  0  0  0
   20.9493  -19.6570  -14.1545 O   0  0  0  0  0  0  0  0  0  0  0  0
   20.7242  -18.6166  -13.4553 N   0  0  0  0  0  0  0  0  0  0  0  0
   26.4912  -19.2300  -17.1286 C   0  0  0  0  0  0  0  0  0  0  0  0
   26.3043  -17.8697  -16.7741 O   0  0  0  0  0  0  0  0  0  0  0  0
   27.1794  -17.0320  -17.1110 C   0  0  0  0  0  0  0  0  0  0  0  0
   25.0787  -17.5142  -16.0215 C   0  0  0  0  0  0  0  0  0  0  0  0
   24.2147  -18.7391  -15.8148 C   0  0  1  0  0  0  0  0  0  0  0  0
   22.9146  -18.3929  -15.1217 N   0  0  0  0  0  0  0  0  0  0  0  0
   22.0730  -19.5749  -15.0115 C   0  0  0  0  0  0  0  0  0  0  0  0
   22.2392  -17.3731  -16.0022 O   0  0  0  0  0  0  0  0  0  0  0  0
   22.4431  -16.0309  -15.8470 O   0  0  0  0  0  0  0  0  0  0  0  0
  2  4  1  0
  2  1  1  0
  3  2  2  0
  5  4  1  0
  6  5  1  0
  7  8  1  0
  7  6  1  0
  8  9  1  6
  8 10  1  0
 10 11  2  0
 13 12  1  6
 13 15  1  0
 14 13  1  0
 16 10  1  0
 15 16  1  6
 17 15  1  0
 17 18  2  0
 19 20  1  0
 20 22  1  0
 20 21  2  0
 22 23  1  0
 24 23  1  1
 24 26  1  0
 24 25  1  0
 25 17  1  0
 26 27  1  0
 28 26  2  0
M  END
$$$$
