RTQ.pdb
     RDKit          3D

 28 27  0  0  1  0  0  0  0  0999 V2000
   20.5554  -20.9917  -14.0442 N   0  0  0  0  0  0  0  0  0  0  0  0
   20.1321  -21.5791  -15.2772 C   0  0  0  0  0  0  0  0  0  0  0  0
   18.8472  -21.7507  -15.4138 N   0  0  0  0  0  0  0  0  0  0  0  0
   21.0339  -21.9567  -16.2961 N   0  0  0  0  0  0  0  0  0  0  0  0
   22.3509  -21.3654  -16.3118 C   0  0  0  0  0  0  0  0  0  0  0  0
   22.6620  -20.6741  -17.5943 C   0  0  0  0  0  0  0  0  0  0  0  0
   22.8561  -19.2135  -17.3607 C   0  0  0  0  0  0  0  0  0  0  0  0
   24.2491  -18.8590  -16.9007 C   0  0  2  0  0  0  0  0  0  0  0  0
   24.5422  -19.6817  -15.7481 N   0  0  0  0  0  0  0  0  0  0  0  0
   24.1912  -17.4108  -16.5358 C   0  0  0  0  0  0  0  0  0  0  0  0
   23.9496  -17.1353  -15.3339 O   0  0  0  0  0  0  0  0  0  0  0  0
   18.4523  -22.1159  -16.3045 C   0  0  0  0  0  0  0  0  0  0  0  0
   25.4026  -15.7938  -14.8444 C   0  0  2  0  0  0  0  0  0  0  0  0
   25.6740  -14.9037  -16.0329 O   0  0  0  0  0  0  0  0  0  0  0  0
   26.9067  -15.2468  -16.5719 C   0  0  2  0  0  0  0  0  0  0  0  0
   24.5716  -14.9682  -17.0616 N   0  0  0  0  0  0  0  0  0  0  0  0
   24.3952  -16.3682  -17.4795 C   0  0  0  0  0  0  0  0  0  0  0  0
   24.7854  -14.0946  -18.2280 O   0  0  0  0  0  0  0  0  0  0  0  0
   25.5295  -14.4594  -19.1950 N   0  0  0  0  0  0  0  0  0  0  0  0
   21.8974   -8.6041  -19.4072 C   0  0  0  0  0  0  0  0  0  0  0  0
   22.6664   -8.7361  -20.5913 O   0  0  0  0  0  0  0  0  0  0  0  0
   22.5520   -7.8607  -21.4867 C   0  0  0  0  0  0  0  0  0  0  0  0
   23.5663   -9.9077  -20.7034 C   0  0  0  0  0  0  0  0  0  0  0  0
   23.5058  -10.7399  -19.4410 C   0  0  2  0  0  0  0  0  0  0  0  0
   24.3688  -11.9784  -19.5487 N   0  0  0  0  0  0  0  0  0  0  0  0
   24.1990  -12.8139  -18.3694 C   0  0  0  0  0  0  0  0  0  0  0  0
   25.7906  -11.4833  -19.6157 O   0  0  0  0  0  0  0  0  0  0  0  0
   26.3785  -11.1209  -20.7947 O   0  0  0  0  0  0  0  0  0  0  0  0
  2  4  1  0
  2  1  1  0
  3  2  2  0
  5  4  1  0
  6  5  1  0
  7  8  1  0
  7  6  1  0
  8  9  1  1
  8 10  1  0
 10 11  2  0
 13 12  1  1
 13 15  1  0
 14 13  1  0
 16 10  1  0
 15 16  1  6
 17 15  1  0
 17 18  2  0
 19 20  1  0
 20 22  1  0
 20 21  2  0
 22 23  1  0
 24 23  1  6
 24 26  1  0
 24 25  1  0
 25 17  1  0
 26 27  1  0
 28 26  2  0
M  END
$$$$
