RTQ.pdb
     RDKit          3D

 28 27  0  0  1  0  0  0  0  0999 V2000
   44.4677  -11.9684   -6.7611 N   0  0  0  0  0  0  0  0  0  0  0  0
   45.7751  -11.4129   -6.9238 C   0  0  0  0  0  0  0  0  0  0  0  0
   46.5681  -11.5141   -5.8943 N   0  0  0  0  0  0  0  0  0  0  0  0
   46.2003  -10.7894   -8.1173 N   0  0  0  0  0  0  0  0  0  0  0  0
   45.2742  -10.6986   -9.2212 C   0  0  0  0  0  0  0  0  0  0  0  0
   44.1682   -9.7316   -8.9737 C   0  0  0  0  0  0  0  0  0  0  0  0
   43.2366   -9.7024  -10.1384 C   0  0  0  0  0  0  0  0  0  0  0  0
   42.0323   -8.8189   -9.9219 C   0  0  2  0  0  0  0  0  0  0  0  0
   41.2737   -9.3883   -8.8303 N   0  0  0  0  0  0  0  0  0  0  0  0
   41.2653   -8.8704  -11.2036 C   0  0  0  0  0  0  0  0  0  0  0  0
   41.8308   -8.4058  -12.2249 O   0  0  0  0  0  0  0  0  0  0  0  0
   47.5119  -11.0761   -5.9062 C   0  0  0  0  0  0  0  0  0  0  0  0
   37.8340  -10.8051  -14.1046 C   0  0  2  0  0  0  0  0  0  0  0  0
   38.6761  -10.7619  -12.8526 O   0  0  0  0  0  0  0  0  0  0  0  0
   39.7095  -11.6802  -12.9809 C   0  0  1  0  0  0  0  0  0  0  0  0
   39.1892   -9.3744  -12.5540 N   0  0  0  0  0  0  0  0  0  0  0  0
   39.9553   -9.4129  -11.2981 C   0  0  0  0  0  0  0  0  0  0  0  0
   38.1386   -8.3437  -12.4973 O   0  0  0  0  0  0  0  0  0  0  0  0
   37.5238   -8.0907  -11.4111 N   0  0  0  0  0  0  0  0  0  0  0  0
   37.9718   -2.7102  -14.1432 C   0  0  0  0  0  0  0  0  0  0  0  0
   38.2185   -3.2515  -12.8559 O   0  0  0  0  0  0  0  0  0  0  0  0
   38.7874   -2.5311  -11.9965 C   0  0  0  0  0  0  0  0  0  0  0  0
   37.7875   -4.6453  -12.5985 C   0  0  0  0  0  0  0  0  0  0  0  0
   37.1174   -5.2236  -13.8259 C   0  0  2  0  0  0  0  0  0  0  0  0
   36.6226   -6.6324  -13.5785 N   0  0  0  0  0  0  0  0  0  0  0  0
   37.7354   -7.5693  -13.6117 C   0  0  0  0  0  0  0  0  0  0  0  0
   35.6722   -6.9376  -14.7075 O   0  0  0  0  0  0  0  0  0  0  0  0
   34.4140   -6.4075  -14.7610 O   0  0  0  0  0  0  0  0  0  0  0  0
  2  4  1  0
  2  1  1  0
  3  2  2  0
  5  4  1  0
  6  5  1  0
  7  8  1  0
  7  6  1  0
  8  9  1  1
  8 10  1  0
 10 11  2  0
 13 12  1  1
 13 15  1  0
 14 13  1  0
 16 10  1  0
 15 16  1  1
 17 15  1  0
 17 18  2  0
 19 20  1  0
 20 22  1  0
 20 21  2  0
 22 23  1  0
 24 23  1  1
 24 26  1  0
 24 25  1  0
 25 17  1  0
 26 27  1  0
 28 26  2  0
M  END
$$$$
