RTQ.pdb
     RDKit          3D

 28 27  0  0  1  0  0  0  0  0999 V2000
   28.9624  -25.7147  -16.4224 N   0  0  0  0  0  0  0  0  0  0  0  0
   30.0361  -25.1435  -17.1742 C   0  0  0  0  0  0  0  0  0  0  0  0
   31.1184  -25.8650  -17.2582 N   0  0  0  0  0  0  0  0  0  0  0  0
   29.9494  -23.8781  -17.7948 N   0  0  0  0  0  0  0  0  0  0  0  0
   28.7664  -23.0790  -17.5799 C   0  0  0  0  0  0  0  0  0  0  0  0
   28.8597  -22.2171  -16.3683 C   0  0  0  0  0  0  0  0  0  0  0  0
   27.6623  -22.4137  -15.5004 C   0  0  0  0  0  0  0  0  0  0  0  0
   26.7563  -21.2079  -15.4453 C   0  0  2  0  0  0  0  0  0  0  0  0
   27.5313  -20.1139  -14.9034 N   0  0  0  0  0  0  0  0  0  0  0  0
   25.6395  -21.5909  -14.5288 C   0  0  0  0  0  0  0  0  0  0  0  0
   24.8447  -22.4740  -14.9375 O   0  0  0  0  0  0  0  0  0  0  0  0
   31.9258  -25.5460  -17.8320 C   0  0  0  0  0  0  0  0  0  0  0  0
   25.8581  -21.7267  -10.5627 C   0  0  2  0  0  0  0  0  0  0  0  0
   24.5885  -21.0282  -10.9855 O   0  0  0  0  0  0  0  0  0  0  0  0
   24.7105  -19.6748  -10.7002 C   0  0  2  0  0  0  0  0  0  0  0  0
   24.2568  -21.2702  -12.4377 N   0  0  0  0  0  0  0  0  0  0  0  0
   25.4559  -21.0034  -13.2481 C   0  0  0  0  0  0  0  0  0  0  0  0
   23.1064  -20.4931  -12.9297 O   0  0  0  0  0  0  0  0  0  0  0  0
   23.2357  -19.2740  -13.2744 N   0  0  0  0  0  0  0  0  0  0  0  0
   20.1254  -20.6890  -17.6657 C   0  0  0  0  0  0  0  0  0  0  0  0
   19.2729  -19.7388  -17.0481 O   0  0  0  0  0  0  0  0  0  0  0  0
   18.4446  -19.1169  -17.7609 C   0  0  0  0  0  0  0  0  0  0  0  0
   19.4107  -19.5340  -15.5872 C   0  0  0  0  0  0  0  0  0  0  0  0
   20.5611  -20.3556  -15.0473 C   0  0  2  0  0  0  0  0  0  0  0  0
   20.6651  -20.2459  -13.5415 N   0  0  0  0  0  0  0  0  0  0  0  0
   21.7986  -21.0196  -13.0578 C   0  0  0  0  0  0  0  0  0  0  0  0
   19.3867  -20.8305  -12.9983 O   0  0  0  0  0  0  0  0  0  0  0  0
   18.2646  -20.0739  -12.8099 O   0  0  0  0  0  0  0  0  0  0  0  0
  2  4  1  0
  2  1  1  0
  3  2  2  0
  5  4  1  0
  6  5  1  0
  7  8  1  0
  7  6  1  0
  8  9  1  1
  8 10  1  0
 10 11  2  0
 13 12  1  1
 13 15  1  0
 14 13  1  0
 16 10  1  0
 15 16  1  6
 17 15  1  0
 17 18  2  0
 19 20  1  0
 20 22  1  0
 20 21  2  0
 22 23  1  0
 24 23  1  6
 24 26  1  0
 24 25  1  0
 25 17  1  0
 26 27  1  0
 28 26  2  0
M  END
$$$$
