RTQ.pdb
     RDKit          3D

 28 27  0  0  1  0  0  0  0  0999 V2000
   29.4988  -18.3573  -19.7840 N   0  0  0  0  0  0  0  0  0  0  0  0
   28.9145  -17.2287  -19.1290 C   0  0  0  0  0  0  0  0  0  0  0  0
   28.7830  -16.1546  -19.8556 N   0  0  0  0  0  0  0  0  0  0  0  0
   28.4991  -17.2555  -17.7796 N   0  0  0  0  0  0  0  0  0  0  0  0
   28.5110  -18.5152  -17.0744 C   0  0  0  0  0  0  0  0  0  0  0  0
   27.1448  -19.0556  -16.8274 C   0  0  0  0  0  0  0  0  0  0  0  0
   26.8445  -19.0540  -15.3661 C   0  0  0  0  0  0  0  0  0  0  0  0
   27.4961  -20.1914  -14.6180 C   0  0  2  0  0  0  0  0  0  0  0  0
   28.0242  -21.1067  -15.6051 N   0  0  0  0  0  0  0  0  0  0  0  0
   26.4008  -20.8224  -13.8207 C   0  0  0  0  0  0  0  0  0  0  0  0
   25.7373  -21.7297  -14.3824 O   0  0  0  0  0  0  0  0  0  0  0  0
   28.4419  -15.2667  -19.4336 C   0  0  0  0  0  0  0  0  0  0  0  0
   26.5825  -21.1408   -9.8237 C   0  0  2  0  0  0  0  0  0  0  0  0
   25.1835  -20.7916  -10.2702 O   0  0  0  0  0  0  0  0  0  0  0  0
   24.9218  -19.4738   -9.9197 C   0  0  2  0  0  0  0  0  0  0  0  0
   24.9745  -21.0345  -11.7450 N   0  0  0  0  0  0  0  0  0  0  0  0
   26.0970  -20.4383  -12.4868 C   0  0  0  0  0  0  0  0  0  0  0  0
   23.6848  -20.5428  -12.2589 O   0  0  0  0  0  0  0  0  0  0  0  0
   23.6326  -19.5797  -13.0905 N   0  0  0  0  0  0  0  0  0  0  0  0
   21.6405  -20.8190  -16.4323 C   0  0  0  0  0  0  0  0  0  0  0  0
   20.2695  -20.9308  -16.0875 O   0  0  0  0  0  0  0  0  0  0  0  0
   19.4036  -20.6534  -16.9560 C   0  0  0  0  0  0  0  0  0  0  0  0
   19.9368  -21.3715  -14.7127 C   0  0  0  0  0  0  0  0  0  0  0  0
   21.2014  -21.6136  -13.9177 C   0  0  2  0  0  0  0  0  0  0  0  0
   21.1989  -20.8382  -12.6180 N   0  0  0  0  0  0  0  0  0  0  0  0
   22.4312  -21.0831  -11.8839 C   0  0  0  0  0  0  0  0  0  0  0  0
   20.0282  -21.3647  -11.8284 O   0  0  0  0  0  0  0  0  0  0  0  0
   18.7635  -20.8733  -11.9899 O   0  0  0  0  0  0  0  0  0  0  0  0
  2  4  1  0
  2  1  1  0
  3  2  2  0
  5  4  1  0
  6  5  1  0
  7  8  1  0
  7  6  1  0
  8  9  1  6
  8 10  1  0
 10 11  2  0
 13 12  1  1
 13 15  1  0
 14 13  1  0
 16 10  1  0
 15 16  1  6
 17 15  1  0
 17 18  2  0
 19 20  1  0
 20 22  1  0
 20 21  2  0
 22 23  1  0
 24 23  1  6
 24 26  1  0
 24 25  1  0
 25 17  1  0
 26 27  1  0
 28 26  2  0
M  END
$$$$
