EHI.pdb
     RDKit          3D

 28 28  0  0  1  0  0  0  0  0999 V2000
    9.0107  -18.5759   18.7726 N   0  0  0  0  0  0  0  0  0  0  0  0
    9.4059  -17.3249   19.3708 C   0  0  1  0  0  0  0  0  0  0  0  0
    9.1610  -16.2221   18.3808 C   0  0  0  0  0  0  0  0  0  0  0  0
    7.9080  -16.3961   17.5679 C   0  0  0  0  0  0  0  0  0  0  0  0
    7.8599  -15.2816   16.5569 C   0  0  0  0  0  0  0  0  0  0  0  0
    8.6914  -14.3533   16.5113 O   0  0  0  0  0  0  0  0  0  0  0  0
    8.6294  -17.1095   20.6273 C   0  0  0  0  0  0  0  0  0  0  0  0
    7.4135  -16.8224   20.6588 O   0  0  0  0  0  0  0  0  0  0  0  0
    6.8476  -15.2344   15.5965 O   0  0  0  0  0  0  0  0  0  0  0  0
    9.3536  -17.2458   21.8754 N   0  0  0  0  0  0  0  0  0  0  0  0
    8.6190  -17.3784   23.1082 C   0  0  1  0  0  0  0  0  0  0  0  0
    8.6449  -18.7460   23.6707 C   0  0  0  0  0  0  0  0  0  0  0  0
    8.0143  -18.9010   24.9949 C   0  0  0  0  0  0  0  0  0  0  0  0
    8.5915  -18.9178   26.2264 C   0  0  0  0  0  0  0  0  0  0  0  0
    7.6250  -19.0448   27.1843 N   0  0  0  0  0  0  0  0  0  0  0  0
    6.4443  -19.1055   26.5330 C   0  0  0  0  0  0  0  0  0  0  0  0
    6.6693  -19.0199   25.2228 N   0  0  0  0  0  0  0  0  0  0  0  0
    9.1067  -16.3123   24.0518 C   0  0  0  0  0  0  0  0  0  0  0  0
   10.3290  -15.9196   23.9984 O   0  0  0  0  0  0  0  0  0  0  0  0
    5.8906  -12.1900   25.9660 C   0  0  0  0  0  0  0  0  0  0  0  0
    7.0794  -12.9636   25.5388 C   0  0  0  0  0  0  0  0  0  0  0  0
    7.6598  -13.8970   26.5692 C   0  0  2  0  0  0  0  0  0  0  0  0
    8.2495  -13.0732   27.7117 C   0  0  0  0  0  0  0  0  0  0  0  0
    8.6867  -14.8254   26.0560 C   0  0  2  0  0  0  0  0  0  0  0  0
    8.2582  -15.7103   25.0154 N   0  0  0  0  0  0  0  0  0  0  0  0
    9.3589  -15.5406   27.1779 C   0  0  0  0  0  0  0  0  0  0  0  0
    8.9927  -16.7325   27.4600 O   0  0  0  0  0  0  0  0  0  0  0  0
   10.3657  -15.0073   27.9488 O   0  0  0  0  0  0  0  0  0  0  0  0
  2  1  1  6
  2  3  1  0
  2  7  1  0
  3  4  1  0
  4  5  1  0
  5  6  2  0
  5  9  1  0
  7  8  2  0
 10  7  1  0
 10 11  1  0
 11 12  1  1
 12 13  1  0
 13 17  1  0
 13 14  2  0
 14 15  1  0
 16 15  1  0
 17 16  2  0
 18 25  1  0
 18 11  1  0
 19 18  2  0
 21 22  1  0
 21 20  1  0
 22 23  1  1
 24 26  1  0
 24 22  1  0
 24 25  1  6
 26 28  1  0
 27 26  2  0
M  END
$$$$
