EHI.pdb
     RDKit          3D

 28 28  0  0  1  0  0  0  0  0999 V2000
    7.2917  -18.9706   20.6424 N   0  0  0  0  0  0  0  0  0  0  0  0
    6.7886  -17.9108   21.4807 C   0  0  1  0  0  0  0  0  0  0  0  0
    6.3858  -18.4970   22.8037 C   0  0  0  0  0  0  0  0  0  0  0  0
    7.4806  -18.4922   23.8345 C   0  0  0  0  0  0  0  0  0  0  0  0
    6.9519  -19.1763   25.0669 C   0  0  0  0  0  0  0  0  0  0  0  0
    6.3083  -20.2442   25.0425 O   0  0  0  0  0  0  0  0  0  0  0  0
    7.8434  -16.8678   21.6471 C   0  0  0  0  0  0  0  0  0  0  0  0
    9.0707  -17.1006   21.6107 O   0  0  0  0  0  0  0  0  0  0  0  0
    7.1625  -18.6261   26.3327 O   0  0  0  0  0  0  0  0  0  0  0  0
    7.3904  -15.5084   21.8650 N   0  0  0  0  0  0  0  0  0  0  0  0
    8.3585  -14.4428   21.9327 C   0  0  1  0  0  0  0  0  0  0  0  0
    8.0907  -13.3364   20.9885 C   0  0  0  0  0  0  0  0  0  0  0  0
    8.1042  -13.7023   19.5599 C   0  0  0  0  0  0  0  0  0  0  0  0
    7.1534  -13.4957   18.6094 C   0  0  0  0  0  0  0  0  0  0  0  0
    7.5998  -13.9621   17.4050 N   0  0  0  0  0  0  0  0  0  0  0  0
    8.8365  -14.4586   17.6197 C   0  0  0  0  0  0  0  0  0  0  0  0
    9.1451  -14.3064   18.9065 N   0  0  0  0  0  0  0  0  0  0  0  0
    8.4722  -14.0146   23.3709 C   0  0  0  0  0  0  0  0  0  0  0  0
    8.3496  -12.7738   23.6817 O   0  0  0  0  0  0  0  0  0  0  0  0
    5.7216  -12.2848   26.1267 C   0  0  0  0  0  0  0  0  0  0  0  0
    6.9699  -12.8756   25.5910 C   0  0  0  0  0  0  0  0  0  0  0  0
    7.5450  -14.0221   26.3815 C   0  0  2  0  0  0  0  0  0  0  0  0
    7.8268  -13.5527   27.8069 C   0  0  0  0  0  0  0  0  0  0  0  0
    8.7711  -14.6147   25.8111 C   0  0  2  0  0  0  0  0  0  0  0  0
    8.7127  -14.9400   24.4182 N   0  0  0  0  0  0  0  0  0  0  0  0
    9.2447  -15.7539   26.6478 C   0  0  0  0  0  0  0  0  0  0  0  0
    9.5245  -15.5444   27.8775 O   0  0  0  0  0  0  0  0  0  0  0  0
    9.4057  -17.0412   26.1906 O   0  0  0  0  0  0  0  0  0  0  0  0
  2  1  1  6
  2  3  1  0
  2  7  1  0
  3  4  1  0
  4  5  1  0
  5  6  2  0
  5  9  1  0
  7  8  2  0
 10  7  1  0
 10 11  1  0
 11 12  1  6
 12 13  1  0
 13 17  1  0
 13 14  2  0
 14 15  1  0
 16 15  1  0
 17 16  2  0
 18 25  1  0
 18 11  1  0
 19 18  2  0
 21 22  1  0
 21 20  1  0
 22 23  1  1
 24 26  1  0
 24 22  1  0
 24 25  1  6
 26 28  1  0
 27 26  2  0
M  END
$$$$
