EHI.pdb
     RDKit          3D

 28 28  0  0  1  0  0  0  0  0999 V2000
    8.5269  -13.2717   18.2065 N   0  0  0  0  0  0  0  0  0  0  0  0
    8.8746  -14.5721   18.7231 C   0  0  1  0  0  0  0  0  0  0  0  0
   10.3706  -14.6631   18.8237 C   0  0  0  0  0  0  0  0  0  0  0  0
   10.9930  -13.5940   19.6784 C   0  0  0  0  0  0  0  0  0  0  0  0
   12.4824  -13.8131   19.6729 C   0  0  0  0  0  0  0  0  0  0  0  0
   13.2515  -13.3572   20.5424 O   0  0  0  0  0  0  0  0  0  0  0  0
    8.2278  -14.7654   20.0544 C   0  0  0  0  0  0  0  0  0  0  0  0
    7.5408  -13.8960   20.6323 O   0  0  0  0  0  0  0  0  0  0  0  0
   13.0892  -14.5576   18.6595 O   0  0  0  0  0  0  0  0  0  0  0  0
    8.4251  -16.0493   20.6974 N   0  0  0  0  0  0  0  0  0  0  0  0
    7.6355  -16.3897   21.8540 C   0  0  1  0  0  0  0  0  0  0  0  0
    7.2615  -17.8192   21.9179 C   0  0  0  0  0  0  0  0  0  0  0  0
    6.2588  -18.2589   20.9298 C   0  0  0  0  0  0  0  0  0  0  0  0
    5.0854  -17.6702   20.5739 C   0  0  0  0  0  0  0  0  0  0  0  0
    4.4863  -18.4012   19.5868 N   0  0  0  0  0  0  0  0  0  0  0  0
    5.3011  -19.4475   19.3352 C   0  0  0  0  0  0  0  0  0  0  0  0
    6.3637  -19.3689   20.1347 N   0  0  0  0  0  0  0  0  0  0  0  0
    8.3614  -15.8854   23.0719 C   0  0  0  0  0  0  0  0  0  0  0  0
    9.6450  -15.8249   23.0736 O   0  0  0  0  0  0  0  0  0  0  0  0
    7.7246  -11.6276   27.4334 C   0  0  0  0  0  0  0  0  0  0  0  0
    8.3084  -12.9187   27.0018 C   0  0  0  0  0  0  0  0  0  0  0  0
    7.6676  -13.5587   25.7978 C   0  0  2  0  0  0  0  0  0  0  0  0
    6.1850  -13.7858   26.0841 C   0  0  0  0  0  0  0  0  0  0  0  0
    8.2831  -14.8311   25.3711 C   0  0  2  0  0  0  0  0  0  0  0  0
    7.6761  -15.4649   24.2400 N   0  0  0  0  0  0  0  0  0  0  0  0
    8.4425  -15.7546   26.5303 C   0  0  0  0  0  0  0  0  0  0  0  0
    7.7349  -16.8182   26.5764 O   0  0  0  0  0  0  0  0  0  0  0  0
    9.3120  -15.5480   27.5761 O   0  0  0  0  0  0  0  0  0  0  0  0
  2  1  1  1
  2  3  1  0
  2  7  1  0
  3  4  1  0
  4  5  1  0
  5  6  2  0
  5  9  1  0
  7  8  2  0
 10  7  1  0
 10 11  1  0
 11 12  1  1
 12 13  1  0
 13 17  1  0
 13 14  2  0
 14 15  1  0
 16 15  1  0
 17 16  2  0
 18 25  1  0
 18 11  1  0
 19 18  2  0
 21 22  1  0
 21 20  1  0
 22 23  1  1
 24 26  1  0
 24 22  1  0
 24 25  1  6
 26 28  1  0
 27 26  2  0
M  END
$$$$
