EHI.pdb
     RDKit          3D

 28 28  0  0  1  0  0  0  0  0999 V2000
    8.6231  -13.3003   18.5779 N   0  0  0  0  0  0  0  0  0  0  0  0
    9.3328  -14.3644   19.2434 C   0  0  1  0  0  0  0  0  0  0  0  0
   10.7498  -13.9232   19.4753 C   0  0  0  0  0  0  0  0  0  0  0  0
   11.7547  -14.5964   18.5819 C   0  0  0  0  0  0  0  0  0  0  0  0
   13.1185  -14.0815   18.9578 C   0  0  0  0  0  0  0  0  0  0  0  0
   13.6050  -13.0233   18.5121 O   0  0  0  0  0  0  0  0  0  0  0  0
    8.6473  -14.6885   20.5292 C   0  0  0  0  0  0  0  0  0  0  0  0
    8.0333  -13.8523   21.2259 O   0  0  0  0  0  0  0  0  0  0  0  0
   13.9271  -14.7907   19.8482 O   0  0  0  0  0  0  0  0  0  0  0  0
    8.7140  -16.0654   20.9770 N   0  0  0  0  0  0  0  0  0  0  0  0
    7.9929  -16.4595   22.1610 C   0  0  1  0  0  0  0  0  0  0  0  0
    7.8182  -17.9225   22.2905 C   0  0  0  0  0  0  0  0  0  0  0  0
    7.2273  -18.3823   23.5611 C   0  0  0  0  0  0  0  0  0  0  0  0
    6.7663  -17.6503   24.6107 C   0  0  0  0  0  0  0  0  0  0  0  0
    6.2644  -18.4865   25.5680 N   0  0  0  0  0  0  0  0  0  0  0  0
    6.4190  -19.7431   25.0998 C   0  0  0  0  0  0  0  0  0  0  0  0
    6.9941  -19.6886   23.8995 N   0  0  0  0  0  0  0  0  0  0  0  0
    8.6587  -15.8092   23.3436 C   0  0  0  0  0  0  0  0  0  0  0  0
    9.9410  -15.7622   23.4112 O   0  0  0  0  0  0  0  0  0  0  0  0
    5.9203  -12.1998   27.1043 C   0  0  0  0  0  0  0  0  0  0  0  0
    6.4868  -13.4508   26.5489 C   0  0  0  0  0  0  0  0  0  0  0  0
    7.8808  -13.3469   25.9869 C   0  0  2  0  0  0  0  0  0  0  0  0
    7.8677  -12.3921   24.7954 C   0  0  0  0  0  0  0  0  0  0  0  0
    8.4809  -14.6319   25.5765 C   0  0  2  0  0  0  0  0  0  0  0  0
    7.9170  -15.2340   24.4065 N   0  0  0  0  0  0  0  0  0  0  0  0
    8.5513  -15.5733   26.7302 C   0  0  0  0  0  0  0  0  0  0  0  0
    7.9503  -16.6986   26.6485 O   0  0  0  0  0  0  0  0  0  0  0  0
    9.2288  -15.3209   27.9005 O   0  0  0  0  0  0  0  0  0  0  0  0
  2  1  1  1
  2  3  1  0
  2  7  1  0
  3  4  1  0
  4  5  1  0
  5  6  2  0
  5  9  1  0
  7  8  2  0
 10  7  1  0
 10 11  1  0
 11 12  1  1
 12 13  1  0
 13 17  1  0
 13 14  2  0
 14 15  1  0
 16 15  1  0
 17 16  2  0
 18 25  1  0
 18 11  1  0
 19 18  2  0
 21 22  1  0
 21 20  1  0
 22 23  1  6
 24 26  1  0
 24 22  1  0
 24 25  1  6
 26 28  1  0
 27 26  2  0
M  END
$$$$
