EHI.pdb
     RDKit          3D

 28 28  0  0  1  0  0  0  0  0999 V2000
   12.7419  -14.7938   18.6308 N   0  0  0  0  0  0  0  0  0  0  0  0
   12.4382  -15.2816   19.9532 C   0  0  1  0  0  0  0  0  0  0  0  0
   13.6612  -15.1301   20.8121 C   0  0  0  0  0  0  0  0  0  0  0  0
   14.9556  -15.1779   20.0484 C   0  0  0  0  0  0  0  0  0  0  0  0
   16.0791  -15.0704   21.0446 C   0  0  0  0  0  0  0  0  0  0  0  0
   17.2840  -15.1800   20.7423 O   0  0  0  0  0  0  0  0  0  0  0  0
   11.2845  -14.5161   20.5108 C   0  0  0  0  0  0  0  0  0  0  0  0
   11.2306  -13.2686   20.5620 O   0  0  0  0  0  0  0  0  0  0  0  0
   15.8134  -14.8392   22.3957 O   0  0  0  0  0  0  0  0  0  0  0  0
   10.1702  -15.2907   21.0199 N   0  0  0  0  0  0  0  0  0  0  0  0
    9.0142  -14.6071   21.5428 C   0  0  1  0  0  0  0  0  0  0  0  0
    7.7768  -14.8589   20.7727 C   0  0  0  0  0  0  0  0  0  0  0  0
    7.8264  -14.4807   19.3481 C   0  0  0  0  0  0  0  0  0  0  0  0
    7.8403  -13.2420   18.7864 C   0  0  0  0  0  0  0  0  0  0  0  0
    7.9308  -13.3554   17.4275 N   0  0  0  0  0  0  0  0  0  0  0  0
    7.9735  -14.6766   17.1543 C   0  0  0  0  0  0  0  0  0  0  0  0
    7.9117  -15.3560   18.2984 N   0  0  0  0  0  0  0  0  0  0  0  0
    8.9085  -14.9353   23.0076 C   0  0  0  0  0  0  0  0  0  0  0  0
    9.6858  -15.8185   23.5242 O   0  0  0  0  0  0  0  0  0  0  0  0
    6.0801  -11.2838   26.1787 C   0  0  0  0  0  0  0  0  0  0  0  0
    7.1752  -12.2106   25.8098 C   0  0  0  0  0  0  0  0  0  0  0  0
    6.8765  -13.6780   25.9754 C   0  0  2  0  0  0  0  0  0  0  0  0
    6.8956  -14.0256   27.4621 C   0  0  0  0  0  0  0  0  0  0  0  0
    7.7914  -14.5822   25.2507 C   0  0  2  0  0  0  0  0  0  0  0  0
    7.9701  -14.2985   23.8589 N   0  0  0  0  0  0  0  0  0  0  0  0
    7.4358  -16.0072   25.5056 C   0  0  0  0  0  0  0  0  0  0  0  0
    7.5889  -16.4825   26.6824 O   0  0  0  0  0  0  0  0  0  0  0  0
    6.9433  -16.8689   24.5531 O   0  0  0  0  0  0  0  0  0  0  0  0
  2  1  1  6
  2  3  1  0
  2  7  1  0
  3  4  1  0
  4  5  1  0
  5  6  2  0
  5  9  1  0
  7  8  2  0
 10  7  1  0
 10 11  1  0
 11 12  1  6
 12 13  1  0
 13 17  1  0
 13 14  2  0
 14 15  1  0
 16 15  1  0
 17 16  2  0
 18 25  1  0
 18 11  1  0
 19 18  2  0
 21 22  1  0
 21 20  1  0
 22 23  1  1
 24 26  1  0
 24 22  1  0
 24 25  1  6
 26 28  1  0
 27 26  2  0
M  END
$$$$
