EHI.pdb
     RDKit          3D

 28 28  0  0  1  0  0  0  0  0999 V2000
    9.2531  -17.1849   19.7690 N   0  0  0  0  0  0  0  0  0  0  0  0
    7.9679  -16.5313   19.7575 C   0  0  1  0  0  0  0  0  0  0  0  0
    7.0773  -17.2432   18.7796 C   0  0  0  0  0  0  0  0  0  0  0  0
    7.3944  -18.7037   18.6134 C   0  0  0  0  0  0  0  0  0  0  0  0
    7.1749  -19.0580   17.1668 C   0  0  0  0  0  0  0  0  0  0  0  0
    6.1402  -19.6070   16.7388 O   0  0  0  0  0  0  0  0  0  0  0  0
    7.3896  -16.5514   21.1334 C   0  0  0  0  0  0  0  0  0  0  0  0
    6.2511  -16.1238   21.4211 O   0  0  0  0  0  0  0  0  0  0  0  0
    8.1531  -18.7819   16.2095 O   0  0  0  0  0  0  0  0  0  0  0  0
    8.2205  -17.1048   22.1842 N   0  0  0  0  0  0  0  0  0  0  0  0
    7.7391  -17.0999   23.5427 C   0  0  1  0  0  0  0  0  0  0  0  0
    7.8153  -18.4204   24.2044 C   0  0  0  0  0  0  0  0  0  0  0  0
    6.7388  -19.3676   23.8593 C   0  0  0  0  0  0  0  0  0  0  0  0
    5.6841  -19.2021   23.0165 C   0  0  0  0  0  0  0  0  0  0  0  0
    4.9533  -20.3557   22.9641 N   0  0  0  0  0  0  0  0  0  0  0  0
    5.5668  -21.2366   23.7824 C   0  0  0  0  0  0  0  0  0  0  0  0
    6.6360  -20.6527   24.3212 N   0  0  0  0  0  0  0  0  0  0  0  0
    8.4504  -15.9971   24.2793 C   0  0  0  0  0  0  0  0  0  0  0  0
    9.6888  -15.7574   24.0339 O   0  0  0  0  0  0  0  0  0  0  0  0
    5.7198  -11.6960   27.1714 C   0  0  0  0  0  0  0  0  0  0  0  0
    6.2961  -12.9684   26.6783 C   0  0  0  0  0  0  0  0  0  0  0  0
    7.6596  -12.8691   26.0451 C   0  0  2  0  0  0  0  0  0  0  0  0
    7.5128  -12.3130   24.6306 C   0  0  0  0  0  0  0  0  0  0  0  0
    8.4136  -14.1376   25.9953 C   0  0  2  0  0  0  0  0  0  0  0  0
    7.7996  -15.1951   25.2509 N   0  0  0  0  0  0  0  0  0  0  0  0
    8.8235  -14.5614   27.3644 C   0  0  0  0  0  0  0  0  0  0  0  0
    9.5012  -13.7524   28.0859 O   0  0  0  0  0  0  0  0  0  0  0  0
    8.5214  -15.7808   27.9248 O   0  0  0  0  0  0  0  0  0  0  0  0
  2  1  1  1
  2  3  1  0
  2  7  1  0
  3  4  1  0
  4  5  1  0
  5  6  2  0
  5  9  1  0
  7  8  2  0
 10  7  1  0
 10 11  1  0
 11 12  1  1
 12 13  1  0
 13 17  1  0
 13 14  2  0
 14 15  1  0
 16 15  1  0
 17 16  2  0
 18 25  1  0
 18 11  1  0
 19 18  2  0
 21 22  1  0
 21 20  1  0
 22 23  1  6
 24 26  1  0
 24 22  1  0
 24 25  1  1
 26 28  1  0
 27 26  2  0
M  END
$$$$
