EHI.pdb
     RDKit          3D

 28 28  0  0  1  0  0  0  0  0999 V2000
    5.8859  -17.3117   21.4689 N   0  0  0  0  0  0  0  0  0  0  0  0
    6.8953  -18.3034   21.7457 C   0  0  1  0  0  0  0  0  0  0  0  0
    7.0311  -19.1964   20.5456 C   0  0  0  0  0  0  0  0  0  0  0  0
    7.6984  -18.5419   19.3677 C   0  0  0  0  0  0  0  0  0  0  0  0
    7.7211  -19.5405   18.2413 C   0  0  0  0  0  0  0  0  0  0  0  0
    6.7269  -20.2037   17.8853 O   0  0  0  0  0  0  0  0  0  0  0  0
    8.1846  -17.6223   22.0650 C   0  0  0  0  0  0  0  0  0  0  0  0
    9.2148  -18.2169   22.4482 O   0  0  0  0  0  0  0  0  0  0  0  0
    8.8952  -19.7788   17.5242 O   0  0  0  0  0  0  0  0  0  0  0  0
    8.2177  -16.1811   21.9151 N   0  0  0  0  0  0  0  0  0  0  0  0
    9.4056  -15.4580   22.2933 C   0  0  1  0  0  0  0  0  0  0  0  0
    9.9282  -14.5756   21.2276 C   0  0  0  0  0  0  0  0  0  0  0  0
    9.0007  -14.3068   20.1129 C   0  0  0  0  0  0  0  0  0  0  0  0
    8.1961  -13.2303   19.9030 C   0  0  0  0  0  0  0  0  0  0  0  0
    7.5317  -13.3782   18.7180 N   0  0  0  0  0  0  0  0  0  0  0  0
    7.9337  -14.5566   18.1966 C   0  0  0  0  0  0  0  0  0  0  0  0
    8.8128  -15.1176   19.0254 N   0  0  0  0  0  0  0  0  0  0  0  0
    9.1229  -14.7560   23.5941 C   0  0  0  0  0  0  0  0  0  0  0  0
    8.7974  -13.5130   23.5939 O   0  0  0  0  0  0  0  0  0  0  0  0
    5.8806  -12.4882   25.7153 C   0  0  0  0  0  0  0  0  0  0  0  0
    7.2332  -13.0572   25.5128 C   0  0  0  0  0  0  0  0  0  0  0  0
    7.5376  -14.3156   26.2834 C   0  0  2  0  0  0  0  0  0  0  0  0
    7.2688  -14.0692   27.7661 C   0  0  0  0  0  0  0  0  0  0  0  0
    8.9118  -14.8284   26.1148 C   0  0  2  0  0  0  0  0  0  0  0  0
    9.2010  -15.4210   24.8441 N   0  0  0  0  0  0  0  0  0  0  0  0
    9.2908  -15.7067   27.2581 C   0  0  0  0  0  0  0  0  0  0  0  0
    9.2852  -16.9744   27.0932 O   0  0  0  0  0  0  0  0  0  0  0  0
    9.6559  -15.2495   28.5031 O   0  0  0  0  0  0  0  0  0  0  0  0
  2  1  1  6
  2  3  1  0
  2  7  1  0
  3  4  1  0
  4  5  1  0
  5  6  2  0
  5  9  1  0
  7  8  2  0
 10  7  1  0
 10 11  1  0
 11 12  1  6
 12 13  1  0
 13 17  1  0
 13 14  2  0
 14 15  1  0
 16 15  1  0
 17 16  2  0
 18 25  1  0
 18 11  1  0
 19 18  2  0
 21 22  1  0
 21 20  1  0
 22 23  1  1
 24 26  1  0
 24 22  1  0
 24 25  1  6
 26 28  1  0
 27 26  2  0
M  END
$$$$
