EHI.pdb
     RDKit          3D

 28 28  0  0  1  0  0  0  0  0999 V2000
    8.6325  -19.6308   19.1625 N   0  0  0  0  0  0  0  0  0  0  0  0
    9.1496  -18.4205   19.7513 C   0  0  1  0  0  0  0  0  0  0  0  0
    9.7972  -17.6014   18.6715 C   0  0  0  0  0  0  0  0  0  0  0  0
    8.9005  -17.3152   17.4989 C   0  0  0  0  0  0  0  0  0  0  0  0
    9.6772  -16.4709   16.5240 C   0  0  0  0  0  0  0  0  0  0  0  0
   10.8759  -16.1633   16.6779 O   0  0  0  0  0  0  0  0  0  0  0  0
    8.0358  -17.6730   20.4061 C   0  0  0  0  0  0  0  0  0  0  0  0
    6.8383  -17.7535   20.0580 O   0  0  0  0  0  0  0  0  0  0  0  0
    9.0694  -15.9758   15.3687 O   0  0  0  0  0  0  0  0  0  0  0  0
    8.3913  -16.8050   21.5112 N   0  0  0  0  0  0  0  0  0  0  0  0
    7.8620  -17.0784   22.8235 C   0  0  1  0  0  0  0  0  0  0  0  0
    8.0686  -18.4737   23.2683 C   0  0  0  0  0  0  0  0  0  0  0  0
    7.6968  -18.7569   24.6671 C   0  0  0  0  0  0  0  0  0  0  0  0
    6.5183  -18.5297   25.3073 C   0  0  0  0  0  0  0  0  0  0  0  0
    6.5998  -18.9848   26.5934 N   0  0  0  0  0  0  0  0  0  0  0  0
    7.8401  -19.4963   26.7420 C   0  0  0  0  0  0  0  0  0  0  0  0
    8.5020  -19.3638   25.5937 N   0  0  0  0  0  0  0  0  0  0  0  0
    8.4100  -16.0413   23.7663 C   0  0  0  0  0  0  0  0  0  0  0  0
    9.6797  -15.9329   23.9320 O   0  0  0  0  0  0  0  0  0  0  0  0
    6.6287  -11.0287   27.1311 C   0  0  0  0  0  0  0  0  0  0  0  0
    7.6096  -12.0394   26.6724 C   0  0  0  0  0  0  0  0  0  0  0  0
    7.0730  -13.1033   25.7503 C   0  0  2  0  0  0  0  0  0  0  0  0
    5.7901  -13.6782   26.3463 C   0  0  0  0  0  0  0  0  0  0  0  0
    8.0132  -14.2042   25.4609 C   0  0  2  0  0  0  0  0  0  0  0  0
    7.5688  -15.1608   24.4929 N   0  0  0  0  0  0  0  0  0  0  0  0
    8.4844  -14.8410   26.7237 C   0  0  0  0  0  0  0  0  0  0  0  0
    8.0732  -16.0157   27.0156 O   0  0  0  0  0  0  0  0  0  0  0  0
    9.3473  -14.2511   27.6179 O   0  0  0  0  0  0  0  0  0  0  0  0
  2  1  1  6
  2  3  1  0
  2  7  1  0
  3  4  1  0
  4  5  1  0
  5  6  2  0
  5  9  1  0
  7  8  2  0
 10  7  1  0
 10 11  1  0
 11 12  1  1
 12 13  1  0
 13 17  1  0
 13 14  2  0
 14 15  1  0
 16 15  1  0
 17 16  2  0
 18 25  1  0
 18 11  1  0
 19 18  2  0
 21 22  1  0
 21 20  1  0
 22 23  1  1
 24 26  1  0
 24 22  1  0
 24 25  1  6
 26 28  1  0
 27 26  2  0
M  END
$$$$
