EHI.pdb
     RDKit          3D

 28 28  0  0  1  0  0  0  0  0999 V2000
    8.2779  -13.2342   18.7867 N   0  0  0  0  0  0  0  0  0  0  0  0
    8.6679  -14.5661   19.1777 C   0  0  1  0  0  0  0  0  0  0  0  0
   10.1654  -14.6647   19.1137 C   0  0  0  0  0  0  0  0  0  0  0  0
   10.8828  -13.6492   19.9594 C   0  0  0  0  0  0  0  0  0  0  0  0
   12.3615  -13.8579   19.7694 C   0  0  0  0  0  0  0  0  0  0  0  0
   13.0346  -13.2782   18.8941 O   0  0  0  0  0  0  0  0  0  0  0  0
    8.1634  -14.8460   20.5543 C   0  0  0  0  0  0  0  0  0  0  0  0
    7.5842  -14.0035   21.2730 O   0  0  0  0  0  0  0  0  0  0  0  0
   13.0674  -14.7407   20.5889 O   0  0  0  0  0  0  0  0  0  0  0  0
    8.3719  -16.1854   21.0677 N   0  0  0  0  0  0  0  0  0  0  0  0
    7.7629  -16.5664   22.3171 C   0  0  1  0  0  0  0  0  0  0  0  0
    7.6723  -18.0298   22.5115 C   0  0  0  0  0  0  0  0  0  0  0  0
    7.0292  -18.4661   23.7650 C   0  0  0  0  0  0  0  0  0  0  0  0
    6.4128  -17.7204   24.7211 C   0  0  0  0  0  0  0  0  0  0  0  0
    5.9214  -18.5411   25.6971 N   0  0  0  0  0  0  0  0  0  0  0  0
    6.2393  -19.8020   25.3348 C   0  0  0  0  0  0  0  0  0  0  0  0
    6.9019  -19.7650   24.1798 N   0  0  0  0  0  0  0  0  0  0  0  0
    8.4824  -15.8393   23.4209 C   0  0  0  0  0  0  0  0  0  0  0  0
    9.7585  -15.6976   23.3693 O   0  0  0  0  0  0  0  0  0  0  0  0
    5.8934  -11.7659   26.1098 C   0  0  0  0  0  0  0  0  0  0  0  0
    6.9904  -12.5523   25.4995 C   0  0  0  0  0  0  0  0  0  0  0  0
    7.5655  -13.6505   26.3558 C   0  0  2  0  0  0  0  0  0  0  0  0
    8.3630  -13.0257   27.4982 C   0  0  0  0  0  0  0  0  0  0  0  0
    8.4191  -14.6157   25.6351 C   0  0  2  0  0  0  0  0  0  0  0  0
    7.7989  -15.2925   24.5365 N   0  0  0  0  0  0  0  0  0  0  0  0
    9.0775  -15.5527   26.5894 C   0  0  0  0  0  0  0  0  0  0  0  0
    9.9165  -15.0875   27.4343 O   0  0  0  0  0  0  0  0  0  0  0  0
    8.8462  -16.9080   26.6342 O   0  0  0  0  0  0  0  0  0  0  0  0
  2  1  1  1
  2  3  1  0
  2  7  1  0
  3  4  1  0
  4  5  1  0
  5  6  2  0
  5  9  1  0
  7  8  2  0
 10  7  1  0
 10 11  1  0
 11 12  1  1
 12 13  1  0
 13 17  1  0
 13 14  2  0
 14 15  1  0
 16 15  1  0
 17 16  2  0
 18 25  1  0
 18 11  1  0
 19 18  2  0
 21 22  1  0
 21 20  1  0
 22 23  1  1
 24 26  1  0
 24 22  1  0
 24 25  1  6
 26 28  1  0
 27 26  2  0
M  END
$$$$
