EHI.pdb
     RDKit          3D

 28 28  0  0  1  0  0  0  0  0999 V2000
    8.5828  -19.6135   20.1065 N   0  0  0  0  0  0  0  0  0  0  0  0
    9.3862  -18.7868   20.9725 C   0  0  1  0  0  0  0  0  0  0  0  0
   10.0002  -17.6887   20.1520 C   0  0  0  0  0  0  0  0  0  0  0  0
   10.9920  -16.8443   20.9031 C   0  0  0  0  0  0  0  0  0  0  0  0
   12.3709  -17.3335   20.5485 C   0  0  0  0  0  0  0  0  0  0  0  0
   12.5882  -18.2942   19.7836 O   0  0  0  0  0  0  0  0  0  0  0  0
    8.5308  -18.2357   22.0647 C   0  0  0  0  0  0  0  0  0  0  0  0
    7.4635  -17.6146   21.8728 O   0  0  0  0  0  0  0  0  0  0  0  0
   13.5045  -16.7157   21.0802 O   0  0  0  0  0  0  0  0  0  0  0  0
    8.9892  -18.4456   23.4236 N   0  0  0  0  0  0  0  0  0  0  0  0
    8.1350  -18.0738   24.5233 C   0  0  1  0  0  0  0  0  0  0  0  0
    7.6945  -19.2204   25.3470 C   0  0  0  0  0  0  0  0  0  0  0  0
    6.7800  -20.1672   24.6817 C   0  0  0  0  0  0  0  0  0  0  0  0
    7.0495  -21.3814   24.1311 C   0  0  0  0  0  0  0  0  0  0  0  0
    5.8943  -21.9369   23.6573 N   0  0  0  0  0  0  0  0  0  0  0  0
    4.9075  -21.0544   23.9208 C   0  0  0  0  0  0  0  0  0  0  0  0
    5.4298  -19.9934   24.5338 N   0  0  0  0  0  0  0  0  0  0  0  0
    8.8288  -16.9861   25.2981 C   0  0  0  0  0  0  0  0  0  0  0  0
   10.1118  -16.9668   25.3666 O   0  0  0  0  0  0  0  0  0  0  0  0
    6.0142  -12.2200   26.2481 C   0  0  0  0  0  0  0  0  0  0  0  0
    7.0830  -13.1900   25.9151 C   0  0  0  0  0  0  0  0  0  0  0  0
    7.8133  -13.7900   27.0884 C   0  0  2  0  0  0  0  0  0  0  0  0
    8.6235  -12.6976   27.7825 C   0  0  0  0  0  0  0  0  0  0  0  0
    8.7030  -14.9194   26.7529 C   0  0  2  0  0  0  0  0  0  0  0  0
    8.1134  -15.9613   25.9679 N   0  0  0  0  0  0  0  0  0  0  0  0
    9.3837  -15.4354   27.9746 C   0  0  0  0  0  0  0  0  0  0  0  0
   10.2005  -14.6736   28.5966 O   0  0  0  0  0  0  0  0  0  0  0  0
    9.1960  -16.6939   28.4973 O   0  0  0  0  0  0  0  0  0  0  0  0
  2  1  1  6
  2  3  1  0
  2  7  1  0
  3  4  1  0
  4  5  1  0
  5  6  2  0
  5  9  1  0
  7  8  2  0
 10  7  1  0
 10 11  1  0
 11 12  1  1
 12 13  1  0
 13 17  1  0
 13 14  2  0
 14 15  1  0
 16 15  1  0
 17 16  2  0
 18 25  1  0
 18 11  1  0
 19 18  2  0
 21 22  1  0
 21 20  1  0
 22 23  1  6
 24 26  1  0
 24 22  1  0
 24 25  1  1
 26 28  1  0
 27 26  2  0
M  END
$$$$
