EHI.pdb
     RDKit          3D

 28 28  0  0  1  0  0  0  0  0999 V2000
    6.7377  -19.8287   22.0889 N   0  0  0  0  0  0  0  0  0  0  0  0
    6.4787  -18.6084   22.8119 C   0  0  1  0  0  0  0  0  0  0  0  0
    6.3664  -18.9327   24.2742 C   0  0  0  0  0  0  0  0  0  0  0  0
    7.6460  -19.4240   24.8925 C   0  0  0  0  0  0  0  0  0  0  0  0
    7.3493  -19.8022   26.3191 C   0  0  0  0  0  0  0  0  0  0  0  0
    6.6261  -20.7651   26.6430 O   0  0  0  0  0  0  0  0  0  0  0  0
    7.5816  -17.6362   22.5541 C   0  0  0  0  0  0  0  0  0  0  0  0
    8.7804  -17.9586   22.4104 O   0  0  0  0  0  0  0  0  0  0  0  0
    7.8853  -19.0659   27.3774 O   0  0  0  0  0  0  0  0  0  0  0  0
    7.2138  -16.2366   22.4712 N   0  0  0  0  0  0  0  0  0  0  0  0
    8.2272  -15.2557   22.1746 C   0  0  1  0  0  0  0  0  0  0  0  0
    7.7475  -14.1449   21.3240 C   0  0  0  0  0  0  0  0  0  0  0  0
    7.8530  -14.3662   19.8698 C   0  0  0  0  0  0  0  0  0  0  0  0
    8.3089  -15.4563   19.1959 C   0  0  0  0  0  0  0  0  0  0  0  0
    8.1915  -15.2461   17.8506 N   0  0  0  0  0  0  0  0  0  0  0  0
    7.6579  -14.0155   17.6991 C   0  0  0  0  0  0  0  0  0  0  0  0
    7.4525  -13.4832   18.9028 N   0  0  0  0  0  0  0  0  0  0  0  0
    8.8390  -14.8170   23.4777 C   0  0  0  0  0  0  0  0  0  0  0  0
    9.9890  -14.2437   23.4848 O   0  0  0  0  0  0  0  0  0  0  0  0
    5.6431  -12.1641   26.5450 C   0  0  0  0  0  0  0  0  0  0  0  0
    6.8536  -12.7252   25.9014 C   0  0  0  0  0  0  0  0  0  0  0  0
    7.6470  -13.6993   26.7330 C   0  0  2  0  0  0  0  0  0  0  0  0
    8.3571  -12.9379   27.8500 C   0  0  0  0  0  0  0  0  0  0  0  0
    8.6360  -14.4956   25.9795 C   0  0  2  0  0  0  0  0  0  0  0  0
    8.1876  -15.0123   24.7220 N   0  0  0  0  0  0  0  0  0  0  0  0
    9.2411  -15.5444   26.8489 C   0  0  0  0  0  0  0  0  0  0  0  0
    8.9950  -16.7737   26.5987 O   0  0  0  0  0  0  0  0  0  0  0  0
   10.0630  -15.2873   27.9216 O   0  0  0  0  0  0  0  0  0  0  0  0
  2  1  1  6
  2  3  1  0
  2  7  1  0
  3  4  1  0
  4  5  1  0
  5  6  2  0
  5  9  1  0
  7  8  2  0
 10  7  1  0
 10 11  1  0
 11 12  1  1
 12 13  1  0
 13 17  1  0
 13 14  2  0
 14 15  1  0
 16 15  1  0
 17 16  2  0
 18 25  1  0
 18 11  1  0
 19 18  2  0
 21 22  1  0
 21 20  1  0
 22 23  1  1
 24 26  1  0
 24 22  1  0
 24 25  1  6
 26 28  1  0
 27 26  2  0
M  END
$$$$
