QQE.pdb
     RDKit          3D

 28 27  0  0  1  0  0  0  0  0999 V2000
   17.9814  -11.7343  -16.7635 N   0  0  0  0  0  0  0  0  0  0  0  0
   17.7837  -13.0508  -16.2792 C   0  0  0  0  0  0  0  0  0  0  0  0
   18.5176  -13.9623  -16.7261 O   0  0  0  0  0  0  0  0  0  0  0  0
   16.7516  -13.3846  -15.2758 C   0  0  0  0  0  0  0  0  0  0  0  0
   15.9728  -12.1936  -14.7945 C   0  0  0  0  0  0  0  0  0  0  0  0
   16.3975  -11.6667  -13.4658 C   0  0  2  0  0  0  0  0  0  0  0  0
   16.0077  -12.6702  -12.4757 N   0  0  0  0  0  0  0  0  0  0  0  0
   15.6164  -10.4084  -13.1730 C   0  0  0  0  0  0  0  0  0  0  0  0
   15.5270   -9.5052  -14.0433 O   0  0  0  0  0  0  0  0  0  0  0  0
   10.5482   -9.9413   -9.5710 N   0  0  0  0  0  0  0  0  0  0  0  0
   11.7210   -9.8232   -8.7959 C   0  0  0  0  0  0  0  0  0  0  0  0
   11.7085   -9.9586   -7.5387 O   0  0  0  0  0  0  0  0  0  0  0  0
   13.0079   -9.5383   -9.4610 C   0  0  0  0  0  0  0  0  0  0  0  0
   12.9865   -9.4011  -10.9147 C   0  0  0  0  0  0  0  0  0  0  0  0
   14.1841   -8.9997  -11.6787 C   0  0  2  0  0  0  0  0  0  0  0  0
   14.9840  -10.2292  -11.9370 N   0  0  0  0  0  0  0  0  0  0  0  0
   15.0961   -7.9987  -11.1367 C   0  0  0  0  0  0  0  0  0  0  0  0
   16.1229   -8.3840  -10.5027 O   0  0  0  0  0  0  0  0  0  0  0  0
   14.9397   -6.5854  -11.2657 N   0  0  0  0  0  0  0  0  0  0  0  0
   15.8858   -5.6066  -10.7367 C   0  0  1  0  0  0  0  0  0  0  0  0
   15.9043   -4.3596  -11.5410 C   0  0  0  0  0  0  0  0  0  0  0  0
   16.8442   -3.3383  -10.9777 C   0  0  0  0  0  0  0  0  0  0  0  0
   16.9127   -2.0627  -11.7007 C   0  0  0  0  0  0  0  0  0  0  0  0
   16.4339   -1.0232  -11.2157 O   0  0  0  0  0  0  0  0  0  0  0  0
   15.7094   -5.4001   -9.2955 C   0  0  0  0  0  0  0  0  0  0  0  0
   14.7293   -5.9354   -8.4935 O   0  0  0  0  0  0  0  0  0  0  0  0
   17.5200   -2.0080  -12.9459 O   0  0  0  0  0  0  0  0  0  0  0  0
   16.5537   -4.6375   -8.7069 O   0  0  0  0  0  0  0  0  0  0  0  0
  1  2  1  0
  2  3  2  0
  4  2  1  0
  4  5  1  0
  6  5  1  0
  6  7  1  1
  8  6  1  0
  9  8  2  0
 11 13  1  0
 11 10  1  0
 12 11  2  0
 14 13  1  0
 15 14  1  1
 15 16  1  0
 16  8  1  0
 17 15  1  0
 17 18  2  0
 19 17  1  0
 20 19  1  0
 21 22  1  0
 20 21  1  6
 22 23  1  0
 23 24  2  0
 23 27  1  0
 25 20  1  0
 26 25  1  0
 28 25  2  0
M  END
$$$$
