QQE.pdb
     RDKit          3D

 28 27  0  0  1  0  0  0  0  0999 V2000
   20.8757  -17.0277  -19.3473 N   0  0  0  0  0  0  0  0  0  0  0  0
   20.3523  -17.8972  -18.3589 C   0  0  0  0  0  0  0  0  0  0  0  0
   20.8069  -19.0627  -18.2951 O   0  0  0  0  0  0  0  0  0  0  0  0
   19.2984  -17.4827  -17.4097 C   0  0  0  0  0  0  0  0  0  0  0  0
   18.8254  -16.0716  -17.6142 C   0  0  0  0  0  0  0  0  0  0  0  0
   19.3447  -15.0899  -16.6193 C   0  0  2  0  0  0  0  0  0  0  0  0
   18.7965  -15.4825  -15.3214 N   0  0  0  0  0  0  0  0  0  0  0  0
   18.7932  -13.7251  -16.9543 C   0  0  0  0  0  0  0  0  0  0  0  0
   17.9037  -13.6034  -17.8347 O   0  0  0  0  0  0  0  0  0  0  0  0
   15.5174  -13.6240  -15.4257 N   0  0  0  0  0  0  0  0  0  0  0  0
   15.4489  -13.2308  -16.7789 C   0  0  0  0  0  0  0  0  0  0  0  0
   14.6891  -13.8111  -17.6065 O   0  0  0  0  0  0  0  0  0  0  0  0
   16.2803  -12.1070  -17.2536 C   0  0  0  0  0  0  0  0  0  0  0  0
   17.1468  -11.4622  -16.2708 C   0  0  0  0  0  0  0  0  0  0  0  0
   18.5906  -11.2693  -16.5102 C   0  0  2  0  0  0  0  0  0  0  0  0
   19.2601  -12.5821  -16.2945 N   0  0  0  0  0  0  0  0  0  0  0  0
   19.3332  -10.2760  -15.7426 C   0  0  0  0  0  0  0  0  0  0  0  0
   19.7500  -10.5811  -14.5858 O   0  0  0  0  0  0  0  0  0  0  0  0
   19.6510   -8.9578  -16.1896 N   0  0  0  0  0  0  0  0  0  0  0  0
   20.4241   -7.9945  -15.4103 C   0  0  1  0  0  0  0  0  0  0  0  0
   20.9671   -6.9027  -16.2560 C   0  0  0  0  0  0  0  0  0  0  0  0
   21.7098   -5.8809  -15.4508 C   0  0  0  0  0  0  0  0  0  0  0  0
   22.2513   -4.7425  -16.2026 C   0  0  0  0  0  0  0  0  0  0  0  0
   22.3172   -4.7655  -17.4436 O   0  0  0  0  0  0  0  0  0  0  0  0
   19.6928   -7.5400  -14.2230 C   0  0  0  0  0  0  0  0  0  0  0  0
   20.2114   -7.2838  -12.9756 O   0  0  0  0  0  0  0  0  0  0  0  0
   22.6988   -3.6189  -15.5245 O   0  0  0  0  0  0  0  0  0  0  0  0
   18.4308   -7.3596  -14.3477 O   0  0  0  0  0  0  0  0  0  0  0  0
  1  2  1  0
  2  3  2  0
  4  2  1  0
  4  5  1  0
  6  5  1  0
  6  7  1  1
  8  6  1  0
  9  8  2  0
 11 13  1  0
 11 10  1  0
 12 11  2  0
 14 13  1  0
 15 14  1  1
 15 16  1  0
 16  8  1  0
 17 15  1  0
 17 18  2  0
 19 17  1  0
 20 19  1  0
 21 22  1  0
 20 21  1  6
 22 23  1  0
 23 24  2  0
 23 27  1  0
 25 20  1  0
 26 25  1  0
 28 25  2  0
M  END
$$$$
