QQE.pdb
     RDKit          3D

 28 27  0  0  1  0  0  0  0  0999 V2000
   32.8317  -28.0009  -22.0127 N   0  0  0  0  0  0  0  0  0  0  0  0
   33.6269  -29.1703  -21.9274 C   0  0  0  0  0  0  0  0  0  0  0  0
   33.2877  -30.1674  -22.6055 O   0  0  0  0  0  0  0  0  0  0  0  0
   34.8304  -29.2556  -21.0743 C   0  0  0  0  0  0  0  0  0  0  0  0
   35.2320  -27.9415  -20.4671 C   0  0  0  0  0  0  0  0  0  0  0  0
   35.3042  -27.9394  -18.9777 C   0  0  2  0  0  0  0  0  0  0  0  0
   35.8493  -29.2385  -18.5852 N   0  0  0  0  0  0  0  0  0  0  0  0
   33.9018  -27.8468  -18.4264 C   0  0  0  0  0  0  0  0  0  0  0  0
   33.4142  -28.8085  -17.7794 O   0  0  0  0  0  0  0  0  0  0  0  0
   31.1765  -26.4311  -14.8704 N   0  0  0  0  0  0  0  0  0  0  0  0
   32.3289  -25.6262  -14.9906 C   0  0  0  0  0  0  0  0  0  0  0  0
   33.2355  -25.6200  -14.1090 O   0  0  0  0  0  0  0  0  0  0  0  0
   32.4953  -24.7653  -16.1783 C   0  0  0  0  0  0  0  0  0  0  0  0
   31.7779  -25.1590  -17.3878 C   0  0  0  0  0  0  0  0  0  0  0  0
   31.8303  -26.5377  -17.9127 C   0  0  2  0  0  0  0  0  0  0  0  0
   33.1283  -26.6972  -18.6254 N   0  0  0  0  0  0  0  0  0  0  0  0
   30.7851  -27.0196  -18.8088 C   0  0  0  0  0  0  0  0  0  0  0  0
   30.9785  -26.9689  -20.0597 O   0  0  0  0  0  0  0  0  0  0  0  0
   29.5328  -27.5669  -18.3955 N   0  0  0  0  0  0  0  0  0  0  0  0
   28.8601  -28.6719  -19.0732 C   0  0  1  0  0  0  0  0  0  0  0  0
   29.7767  -29.8119  -19.3233 C   0  0  0  0  0  0  0  0  0  0  0  0
   29.1289  -30.8889  -20.1383 C   0  0  0  0  0  0  0  0  0  0  0  0
   29.9420  -32.0871  -20.3789 C   0  0  0  0  0  0  0  0  0  0  0  0
   31.0142  -32.2671  -19.7766 O   0  0  0  0  0  0  0  0  0  0  0  0
   27.6027  -29.0344  -18.4110 C   0  0  0  0  0  0  0  0  0  0  0  0
   27.1679  -28.6245  -17.1727 O   0  0  0  0  0  0  0  0  0  0  0  0
   29.5137  -33.0387  -21.2919 O   0  0  0  0  0  0  0  0  0  0  0  0
   26.8142  -29.8203  -19.0445 O   0  0  0  0  0  0  0  0  0  0  0  0
  1  2  1  0
  2  3  2  0
  4  2  1  0
  4  5  1  0
  6  5  1  0
  6  7  1  1
  8  6  1  0
  9  8  2  0
 11 13  1  0
 11 10  1  0
 12 11  2  0
 14 13  1  0
 15 14  1  6
 15 16  1  0
 16  8  1  0
 17 15  1  0
 17 18  2  0
 19 17  1  0
 20 19  1  0
 21 22  1  0
 20 21  1  1
 22 23  1  0
 23 24  2  0
 23 27  1  0
 25 20  1  0
 26 25  1  0
 28 25  2  0
M  END
$$$$
