QQE.pdb
     RDKit          3D

 28 27  0  0  1  0  0  0  0  0999 V2000
   17.1591  -14.1485  -12.9286 N   0  0  0  0  0  0  0  0  0  0  0  0
   16.2392  -15.2259  -12.9203 C   0  0  0  0  0  0  0  0  0  0  0  0
   16.6918  -16.3899  -12.8245 O   0  0  0  0  0  0  0  0  0  0  0  0
   14.7783  -15.0276  -13.0204 C   0  0  0  0  0  0  0  0  0  0  0  0
   14.3605  -13.5862  -12.9523 C   0  0  0  0  0  0  0  0  0  0  0  0
   14.0648  -13.0873  -11.5786 C   0  0  2  0  0  0  0  0  0  0  0  0
   12.7507  -13.6178  -11.2166 N   0  0  0  0  0  0  0  0  0  0  0  0
   13.9531  -11.5825  -11.6249 C   0  0  0  0  0  0  0  0  0  0  0  0
   12.9298  -11.0412  -12.1159 O   0  0  0  0  0  0  0  0  0  0  0  0
   11.0828   -7.9472   -9.6071 N   0  0  0  0  0  0  0  0  0  0  0  0
   11.9979   -8.4989   -8.6859 C   0  0  0  0  0  0  0  0  0  0  0  0
   11.7379   -8.5792   -7.4510 O   0  0  0  0  0  0  0  0  0  0  0  0
   13.2987   -9.0055   -9.1663 C   0  0  0  0  0  0  0  0  0  0  0  0
   13.5511   -8.9267  -10.6025 C   0  0  0  0  0  0  0  0  0  0  0  0
   14.8574   -9.2893  -11.1867 C   0  0  2  0  0  0  0  0  0  0  0  0
   14.9797  -10.7724  -11.1256 N   0  0  0  0  0  0  0  0  0  0  0  0
   16.0865   -8.7327  -10.6324 C   0  0  0  0  0  0  0  0  0  0  0  0
   16.5864   -9.2622   -9.5957 O   0  0  0  0  0  0  0  0  0  0  0  0
   16.8037   -7.6212  -11.1696 N   0  0  0  0  0  0  0  0  0  0  0  0
   18.0885   -7.1525  -10.6572 C   0  0  1  0  0  0  0  0  0  0  0  0
   19.0697   -6.9188  -11.7456 C   0  0  0  0  0  0  0  0  0  0  0  0
   20.3867   -6.4318  -11.2237 C   0  0  0  0  0  0  0  0  0  0  0  0
   21.4136   -6.1538  -12.2349 C   0  0  0  0  0  0  0  0  0  0  0  0
   21.9481   -5.0346  -12.3165 O   0  0  0  0  0  0  0  0  0  0  0  0
   17.9290   -6.0288   -9.7283 C   0  0  0  0  0  0  0  0  0  0  0  0
   18.7234   -5.7251   -8.6480 O   0  0  0  0  0  0  0  0  0  0  0  0
   21.7993   -7.1509  -13.1177 O   0  0  0  0  0  0  0  0  0  0  0  0
   16.9438   -5.2363   -9.9337 O   0  0  0  0  0  0  0  0  0  0  0  0
  1  2  1  0
  2  3  2  0
  4  2  1  0
  4  5  1  0
  6  5  1  0
  6  7  1  6
  8  6  1  0
  9  8  2  0
 11 13  1  0
 11 10  1  0
 12 11  2  0
 14 13  1  0
 15 14  1  1
 15 16  1  0
 16  8  1  0
 17 15  1  0
 17 18  2  0
 19 17  1  0
 20 19  1  0
 21 22  1  0
 20 21  1  6
 22 23  1  0
 23 24  2  0
 23 27  1  0
 25 20  1  0
 26 25  1  0
 28 25  2  0
M  END
$$$$
