QQE.pdb
     RDKit          3D

 28 27  0  0  1  0  0  0  0  0999 V2000
   17.1934  -14.3169  -15.7897 N   0  0  0  0  0  0  0  0  0  0  0  0
   16.0638  -13.6109  -16.2721 C   0  0  0  0  0  0  0  0  0  0  0  0
   15.4549  -14.0750  -17.2635 O   0  0  0  0  0  0  0  0  0  0  0  0
   15.5832  -12.3578  -15.6541 C   0  0  0  0  0  0  0  0  0  0  0  0
   16.4957  -11.1862  -15.8808 C   0  0  0  0  0  0  0  0  0  0  0  0
   17.6643  -11.1186  -14.9571 C   0  0  2  0  0  0  0  0  0  0  0  0
   17.3086  -11.9058  -13.7769 N   0  0  0  0  0  0  0  0  0  0  0  0
   17.8471   -9.6872  -14.5135 C   0  0  0  0  0  0  0  0  0  0  0  0
   18.0048   -8.7778  -15.3675 O   0  0  0  0  0  0  0  0  0  0  0  0
   15.8261   -7.8178   -8.9478 N   0  0  0  0  0  0  0  0  0  0  0  0
   16.4703   -6.6314   -9.3573 C   0  0  0  0  0  0  0  0  0  0  0  0
   16.4649   -5.5869   -8.6445 O   0  0  0  0  0  0  0  0  0  0  0  0
   17.1794   -6.5972  -10.6518 C   0  0  0  0  0  0  0  0  0  0  0  0
   17.1586   -7.8192  -11.4511 C   0  0  0  0  0  0  0  0  0  0  0  0
   17.8766   -7.9233  -12.7368 C   0  0  2  0  0  0  0  0  0  0  0  0
   17.8438   -9.3526  -13.1542 N   0  0  0  0  0  0  0  0  0  0  0  0
   19.2613   -7.4764  -12.8397 C   0  0  0  0  0  0  0  0  0  0  0  0
   20.1592   -8.1126  -12.2121 O   0  0  0  0  0  0  0  0  0  0  0  0
   19.7129   -6.3629  -13.6109 N   0  0  0  0  0  0  0  0  0  0  0  0
   21.1137   -5.9695  -13.7360 C   0  0  1  0  0  0  0  0  0  0  0  0
   21.4675   -5.6071  -15.1309 C   0  0  0  0  0  0  0  0  0  0  0  0
   21.5276   -6.8054  -16.0277 C   0  0  0  0  0  0  0  0  0  0  0  0
   21.1019   -6.5891  -17.4157 C   0  0  0  0  0  0  0  0  0  0  0  0
   20.7894   -5.4570  -17.8224 O   0  0  0  0  0  0  0  0  0  0  0  0
   21.4922   -4.9700  -12.7316 C   0  0  0  0  0  0  0  0  0  0  0  0
   22.7374   -4.7747  -12.1823 O   0  0  0  0  0  0  0  0  0  0  0  0
   21.0446   -7.6605  -18.2939 O   0  0  0  0  0  0  0  0  0  0  0  0
   20.5700   -4.1875  -12.3097 O   0  0  0  0  0  0  0  0  0  0  0  0
  1  2  1  0
  2  3  2  0
  4  2  1  0
  4  5  1  0
  6  5  1  0
  6  7  1  1
  8  6  1  0
  9  8  2  0
 11 13  1  0
 11 10  1  0
 12 11  2  0
 14 13  1  0
 15 14  1  1
 15 16  1  0
 16  8  1  0
 17 15  1  0
 17 18  2  0
 19 17  1  0
 20 19  1  0
 21 22  1  0
 20 21  1  6
 22 23  1  0
 23 24  2  0
 23 27  1  0
 25 20  1  0
 26 25  1  0
 28 25  2  0
M  END
$$$$
