QQE.pdb
     RDKit          3D

 28 27  0  0  1  0  0  0  0  0999 V2000
   12.2190  -13.4912  -11.3084 N   0  0  0  0  0  0  0  0  0  0  0  0
   12.6943  -13.6815  -12.6294 C   0  0  0  0  0  0  0  0  0  0  0  0
   12.2013  -14.6121  -13.3075 O   0  0  0  0  0  0  0  0  0  0  0  0
   13.7419  -12.8299  -13.2301 C   0  0  0  0  0  0  0  0  0  0  0  0
   14.2821  -11.7883  -12.2920 C   0  0  0  0  0  0  0  0  0  0  0  0
   15.3212  -10.8967  -12.8824 C   0  0  2  0  0  0  0  0  0  0  0  0
   16.5840  -11.2389  -12.2286 N   0  0  0  0  0  0  0  0  0  0  0  0
   14.9929   -9.4678  -12.5223 C   0  0  0  0  0  0  0  0  0  0  0  0
   13.9642   -8.9194  -12.9937 O   0  0  0  0  0  0  0  0  0  0  0  0
   14.9207   -7.1718   -7.0835 N   0  0  0  0  0  0  0  0  0  0  0  0
   15.0656   -5.9372   -7.7507 C   0  0  0  0  0  0  0  0  0  0  0  0
   15.0692   -4.8366   -7.1279 O   0  0  0  0  0  0  0  0  0  0  0  0
   15.2234   -5.9167   -9.2184 C   0  0  0  0  0  0  0  0  0  0  0  0
   15.3290   -7.2082   -9.8916 C   0  0  0  0  0  0  0  0  0  0  0  0
   15.5078   -7.3145  -11.3531 C   0  0  2  0  0  0  0  0  0  0  0  0
   15.8226   -8.7366  -11.6641 N   0  0  0  0  0  0  0  0  0  0  0  0
   16.5066   -6.4945  -12.0295 C   0  0  0  0  0  0  0  0  0  0  0  0
   17.7300   -6.6587  -11.7443 O   0  0  0  0  0  0  0  0  0  0  0  0
   16.2269   -5.5025  -13.0175 N   0  0  0  0  0  0  0  0  0  0  0  0
   17.2419   -4.6493  -13.6296 C   0  0  1  0  0  0  0  0  0  0  0  0
   17.2782   -4.7990  -15.1055 C   0  0  0  0  0  0  0  0  0  0  0  0
   18.2704   -3.8750  -15.7425 C   0  0  0  0  0  0  0  0  0  0  0  0
   18.4514   -4.0290  -17.1910 C   0  0  0  0  0  0  0  0  0  0  0  0
   17.8248   -4.8929  -17.8281 O   0  0  0  0  0  0  0  0  0  0  0  0
   17.1464   -3.2634  -13.1594 C   0  0  0  0  0  0  0  0  0  0  0  0
   16.0563   -2.6551  -12.5830 O   0  0  0  0  0  0  0  0  0  0  0  0
   19.3344   -3.2010  -17.8671 O   0  0  0  0  0  0  0  0  0  0  0  0
   18.1855   -2.5270  -13.2965 O   0  0  0  0  0  0  0  0  0  0  0  0
  1  2  1  0
  2  3  2  0
  4  2  1  0
  4  5  1  0
  6  5  1  0
  6  7  1  1
  8  6  1  0
  9  8  2  0
 11 13  1  0
 11 10  1  0
 12 11  2  0
 14 13  1  0
 15 14  1  1
 15 16  1  0
 16  8  1  0
 17 15  1  0
 17 18  2  0
 19 17  1  0
 20 19  1  0
 21 22  1  0
 20 21  1  6
 22 23  1  0
 23 24  2  0
 23 27  1  0
 25 20  1  0
 26 25  1  0
 28 25  2  0
M  END
$$$$
