QQE.pdb
     RDKit          3D

 28 27  0  0  1  0  0  0  0  0999 V2000
   15.7924  -12.1713  -11.6853 N   0  0  0  0  0  0  0  0  0  0  0  0
   15.0744  -12.3975  -10.4852 C   0  0  0  0  0  0  0  0  0  0  0  0
   14.7893  -13.5783  -10.1796 O   0  0  0  0  0  0  0  0  0  0  0  0
   14.6528  -11.3004   -9.5896 C   0  0  0  0  0  0  0  0  0  0  0  0
   15.0481   -9.9369  -10.0807 C   0  0  0  0  0  0  0  0  0  0  0  0
   14.5938   -8.8080   -9.2189 C   0  0  2  0  0  0  0  0  0  0  0  0
   13.1385   -8.7433   -9.3501 N   0  0  0  0  0  0  0  0  0  0  0  0
   15.1599   -7.5216   -9.7699 C   0  0  0  0  0  0  0  0  0  0  0  0
   14.6103   -6.9607  -10.7520 O   0  0  0  0  0  0  0  0  0  0  0  0
   15.6096   -2.4243   -7.3639 N   0  0  0  0  0  0  0  0  0  0  0  0
   16.5855   -2.1469   -8.3443 C   0  0  0  0  0  0  0  0  0  0  0  0
   17.0819   -0.9926   -8.4863 O   0  0  0  0  0  0  0  0  0  0  0  0
   17.0526   -3.2290   -9.2334 C   0  0  0  0  0  0  0  0  0  0  0  0
   16.5124   -4.5642   -8.9926 C   0  0  0  0  0  0  0  0  0  0  0  0
   16.9029   -5.7247   -9.8171 C   0  0  2  0  0  0  0  0  0  0  0  0
   16.2972   -6.9373   -9.1999 N   0  0  0  0  0  0  0  0  0  0  0  0
   18.3132   -6.0174  -10.0470 C   0  0  0  0  0  0  0  0  0  0  0  0
   19.0202   -6.4269   -9.0789 O   0  0  0  0  0  0  0  0  0  0  0  0
   18.9880   -5.8906  -11.2989 N   0  0  0  0  0  0  0  0  0  0  0  0
   20.3840   -6.2603  -11.5162 C   0  0  1  0  0  0  0  0  0  0  0  0
   20.5129   -7.5832  -12.1763 C   0  0  0  0  0  0  0  0  0  0  0  0
   19.9848   -7.5687  -13.5780 C   0  0  0  0  0  0  0  0  0  0  0  0
   20.0350   -8.8485  -14.2950 C   0  0  0  0  0  0  0  0  0  0  0  0
   20.6171   -9.8338  -13.8101 O   0  0  0  0  0  0  0  0  0  0  0  0
   21.1410   -5.1815  -12.1597 C   0  0  0  0  0  0  0  0  0  0  0  0
   22.5081   -5.0478  -12.2204 O   0  0  0  0  0  0  0  0  0  0  0  0
   19.4253   -8.9684  -15.5345 O   0  0  0  0  0  0  0  0  0  0  0  0
   20.4662   -4.2541  -12.7301 O   0  0  0  0  0  0  0  0  0  0  0  0
  1  2  1  0
  2  3  2  0
  4  2  1  0
  4  5  1  0
  6  5  1  0
  6  7  1  6
  8  6  1  0
  9  8  2  0
 11 13  1  0
 11 10  1  0
 12 11  2  0
 14 13  1  0
 15 14  1  1
 15 16  1  0
 16  8  1  0
 17 15  1  0
 17 18  2  0
 19 17  1  0
 20 19  1  0
 21 22  1  0
 20 21  1  6
 22 23  1  0
 23 24  2  0
 23 27  1  0
 25 20  1  0
 26 25  1  0
 28 25  2  0
M  END
$$$$
