QQE.pdb
     RDKit          3D

 28 27  0  0  1  0  0  0  0  0999 V2000
   20.0131   -9.8058  -20.4505 N   0  0  0  0  0  0  0  0  0  0  0  0
   19.0380  -10.8310  -20.3778 C   0  0  0  0  0  0  0  0  0  0  0  0
   18.6457  -11.3516  -21.4475 O   0  0  0  0  0  0  0  0  0  0  0  0
   18.4717  -11.3032  -19.0973 C   0  0  0  0  0  0  0  0  0  0  0  0
   19.0107  -10.5783  -17.8971 C   0  0  0  0  0  0  0  0  0  0  0  0
   19.8995  -11.3957  -17.0224 C   0  0  2  0  0  0  0  0  0  0  0  0
   19.0230  -12.2332  -16.2041 N   0  0  0  0  0  0  0  0  0  0  0  0
   20.6458  -10.4700  -16.0922 C   0  0  0  0  0  0  0  0  0  0  0  0
   20.1092  -10.0844  -15.0224 O   0  0  0  0  0  0  0  0  0  0  0  0
   26.6510  -10.8075  -15.0720 N   0  0  0  0  0  0  0  0  0  0  0  0
   26.3782  -10.0571  -16.2351 C   0  0  0  0  0  0  0  0  0  0  0  0
   27.2574   -9.8522  -17.1206 O   0  0  0  0  0  0  0  0  0  0  0  0
   25.0289   -9.4935  -16.4382 C   0  0  0  0  0  0  0  0  0  0  0  0
   24.0619   -9.6843  -15.3607 C   0  0  0  0  0  0  0  0  0  0  0  0
   22.6830   -9.1646  -15.4481 C   0  0  2  0  0  0  0  0  0  0  0  0
   21.9376  -10.0298  -16.4042 N   0  0  0  0  0  0  0  0  0  0  0  0
   22.4464   -7.7811  -15.8449 C   0  0  0  0  0  0  0  0  0  0  0  0
   22.5056   -7.4768  -17.0733 O   0  0  0  0  0  0  0  0  0  0  0  0
   22.1365   -6.7095  -14.9538 N   0  0  0  0  0  0  0  0  0  0  0  0
   21.8598   -5.3419  -15.3849 C   0  0  1  0  0  0  0  0  0  0  0  0
   20.4148   -5.0142  -15.3025 C   0  0  0  0  0  0  0  0  0  0  0  0
   20.1266   -3.6147  -15.7523 C   0  0  0  0  0  0  0  0  0  0  0  0
   18.7221   -3.1946  -15.6795 C   0  0  0  0  0  0  0  0  0  0  0  0
   17.8737   -3.8888  -15.0936 O   0  0  0  0  0  0  0  0  0  0  0  0
   22.7432   -4.3728  -14.7281 C   0  0  0  0  0  0  0  0  0  0  0  0
   23.1262   -3.1415  -15.2054 O   0  0  0  0  0  0  0  0  0  0  0  0
   18.3270   -2.0047  -16.2716 O   0  0  0  0  0  0  0  0  0  0  0  0
   23.2189   -4.6976  -13.5840 O   0  0  0  0  0  0  0  0  0  0  0  0
  1  2  1  0
  2  3  2  0
  4  2  1  0
  4  5  1  0
  6  5  1  0
  6  7  1  1
  8  6  1  0
  9  8  2  0
 11 13  1  0
 11 10  1  0
 12 11  2  0
 14 13  1  0
 15 14  1  6
 15 16  1  0
 16  8  1  0
 17 15  1  0
 17 18  2  0
 19 17  1  0
 20 19  1  0
 21 22  1  0
 20 21  1  1
 22 23  1  0
 23 24  2  0
 23 27  1  0
 25 20  1  0
 26 25  1  0
 28 25  2  0
M  END
$$$$
