QQE.pdb
     RDKit          3D

 28 27  0  0  1  0  0  0  0  0999 V2000
   17.7643  -12.7673  -15.7039 N   0  0  0  0  0  0  0  0  0  0  0  0
   17.8571  -13.8451  -14.7891 C   0  0  0  0  0  0  0  0  0  0  0  0
   18.3333  -14.9291  -15.1980 O   0  0  0  0  0  0  0  0  0  0  0  0
   17.4156  -13.7377  -13.3831 C   0  0  0  0  0  0  0  0  0  0  0  0
   17.0171  -12.3459  -12.9820 C   0  0  0  0  0  0  0  0  0  0  0  0
   15.7303  -12.2572  -12.2338 C   0  0  2  0  0  0  0  0  0  0  0  0
   14.6780  -12.6620  -13.1655 N   0  0  0  0  0  0  0  0  0  0  0  0
   15.4842  -10.8140  -11.8655 C   0  0  0  0  0  0  0  0  0  0  0  0
   15.1467   -9.9865  -12.7501 O   0  0  0  0  0  0  0  0  0  0  0  0
   11.5293   -8.8225   -8.4596 N   0  0  0  0  0  0  0  0  0  0  0  0
   12.3869   -7.7749   -8.0630 C   0  0  0  0  0  0  0  0  0  0  0  0
   11.9572   -6.7520   -7.4561 O   0  0  0  0  0  0  0  0  0  0  0  0
   13.8312   -7.8660   -8.3549 C   0  0  0  0  0  0  0  0  0  0  0  0
   14.2904   -9.0586   -9.0616 C   0  0  0  0  0  0  0  0  0  0  0  0
   15.2593   -8.9829  -10.1728 C   0  0  2  0  0  0  0  0  0  0  0  0
   15.6268  -10.3780  -10.5430 N   0  0  0  0  0  0  0  0  0  0  0  0
   16.5032   -8.2389  -10.0094 C   0  0  0  0  0  0  0  0  0  0  0  0
   17.4332   -8.7444   -9.3133 O   0  0  0  0  0  0  0  0  0  0  0  0
   16.7817   -6.9621  -10.5846 N   0  0  0  0  0  0  0  0  0  0  0  0
   18.0199   -6.2194  -10.3656 C   0  0  1  0  0  0  0  0  0  0  0  0
   18.9981   -6.4330  -11.4609 C   0  0  0  0  0  0  0  0  0  0  0  0
   20.2477   -5.6303  -11.2665 C   0  0  0  0  0  0  0  0  0  0  0  0
   21.2702   -5.7736  -12.3098 C   0  0  0  0  0  0  0  0  0  0  0  0
   22.3024   -5.0813  -12.2966 O   0  0  0  0  0  0  0  0  0  0  0  0
   17.7627   -4.8118  -10.0437 C   0  0  0  0  0  0  0  0  0  0  0  0
   16.6592   -4.0686  -10.3906 O   0  0  0  0  0  0  0  0  0  0  0  0
   21.0890   -6.6942  -13.3307 O   0  0  0  0  0  0  0  0  0  0  0  0
   18.6579   -4.1944   -9.3667 O   0  0  0  0  0  0  0  0  0  0  0  0
  1  2  1  0
  2  3  2  0
  4  2  1  0
  4  5  1  0
  6  5  1  0
  6  7  1  6
  8  6  1  0
  9  8  2  0
 11 13  1  0
 11 10  1  0
 12 11  2  0
 14 13  1  0
 15 14  1  1
 15 16  1  0
 16  8  1  0
 17 15  1  0
 17 18  2  0
 19 17  1  0
 20 19  1  0
 21 22  1  0
 20 21  1  6
 22 23  1  0
 23 24  2  0
 23 27  1  0
 25 20  1  0
 26 25  1  0
 28 25  2  0
M  END
$$$$
