QQE.pdb
     RDKit          3D

 28 27  0  0  1  0  0  0  0  0999 V2000
   13.5089  -13.1487  -13.8515 N   0  0  0  0  0  0  0  0  0  0  0  0
   13.3679  -12.9268  -15.2436 C   0  0  0  0  0  0  0  0  0  0  0  0
   12.4703  -13.5514  -15.8545 O   0  0  0  0  0  0  0  0  0  0  0  0
   14.2344  -11.9943  -15.9940 C   0  0  0  0  0  0  0  0  0  0  0  0
   15.1762  -11.2139  -15.1219 C   0  0  0  0  0  0  0  0  0  0  0  0
   16.6216  -11.4204  -15.4246 C   0  0  2  0  0  0  0  0  0  0  0  0
   16.8864  -12.8468  -15.2394 N   0  0  0  0  0  0  0  0  0  0  0  0
   17.4411  -10.6673  -14.4046 C   0  0  0  0  0  0  0  0  0  0  0  0
   17.5942  -11.1366  -13.2482 O   0  0  0  0  0  0  0  0  0  0  0  0
   22.4807   -7.4306  -15.5282 N   0  0  0  0  0  0  0  0  0  0  0  0
   22.2895   -8.8184  -15.3613 C   0  0  0  0  0  0  0  0  0  0  0  0
   23.1393   -9.6640  -15.7634 O   0  0  0  0  0  0  0  0  0  0  0  0
   21.0674   -9.3100  -14.6946 C   0  0  0  0  0  0  0  0  0  0  0  0
   20.0936   -8.3071  -14.2724 C   0  0  0  0  0  0  0  0  0  0  0  0
   18.7891   -8.6815  -13.6916 C   0  0  2  0  0  0  0  0  0  0  0  0
   18.0390   -9.4436  -14.7283 N   0  0  0  0  0  0  0  0  0  0  0  0
   17.8922   -7.6503  -13.1820 C   0  0  0  0  0  0  0  0  0  0  0  0
   17.0609   -7.1147  -13.9739 O   0  0  0  0  0  0  0  0  0  0  0  0
   17.8565   -7.1815  -11.8339 N   0  0  0  0  0  0  0  0  0  0  0  0
   16.9407   -6.1518  -11.3504 C   0  0  1  0  0  0  0  0  0  0  0  0
   16.5917   -6.3442   -9.9209 C   0  0  0  0  0  0  0  0  0  0  0  0
   15.6854   -5.2661   -9.4109 C   0  0  0  0  0  0  0  0  0  0  0  0
   15.3086   -5.3621   -7.9955 C   0  0  0  0  0  0  0  0  0  0  0  0
   14.5724   -4.5110   -7.4678 O   0  0  0  0  0  0  0  0  0  0  0  0
   17.4079   -4.8032  -11.6878 C   0  0  0  0  0  0  0  0  0  0  0  0
   16.6339   -3.7025  -11.9703 O   0  0  0  0  0  0  0  0  0  0  0  0
   15.7777   -6.4169   -7.2274 O   0  0  0  0  0  0  0  0  0  0  0  0
   18.6745   -4.6170  -11.7293 O   0  0  0  0  0  0  0  0  0  0  0  0
  1  2  1  0
  2  3  2  0
  4  2  1  0
  4  5  1  0
  6  5  1  0
  6  7  1  1
  8  6  1  0
  9  8  2  0
 11 13  1  0
 11 10  1  0
 12 11  2  0
 14 13  1  0
 15 14  1  6
 15 16  1  0
 16  8  1  0
 17 15  1  0
 17 18  2  0
 19 17  1  0
 20 19  1  0
 21 22  1  0
 20 21  1  1
 22 23  1  0
 23 24  2  0
 23 27  1  0
 25 20  1  0
 26 25  1  0
 28 25  2  0
M  END
$$$$
