QQE.pdb
     RDKit          3D

 28 27  0  0  1  0  0  0  0  0999 V2000
   19.3426  -11.0657  -21.7382 N   0  0  0  0  0  0  0  0  0  0  0  0
   18.5891   -9.9148  -21.3996 C   0  0  0  0  0  0  0  0  0  0  0  0
   18.5187   -8.9860  -22.2371 O   0  0  0  0  0  0  0  0  0  0  0  0
   17.8904   -9.7716  -20.1055 C   0  0  0  0  0  0  0  0  0  0  0  0
   18.0450  -10.9626  -19.2031 C   0  0  0  0  0  0  0  0  0  0  0  0
   19.2648  -10.9408  -18.3458 C   0  0  2  0  0  0  0  0  0  0  0  0
   19.2610  -12.1895  -17.5841 N   0  0  0  0  0  0  0  0  0  0  0  0
   19.1421   -9.8040  -17.3600 C   0  0  0  0  0  0  0  0  0  0  0  0
   18.1987   -9.7896  -16.5288 O   0  0  0  0  0  0  0  0  0  0  0  0
   23.3327   -8.2493  -13.7051 N   0  0  0  0  0  0  0  0  0  0  0  0
   22.5892   -7.0620  -13.5378 C   0  0  0  0  0  0  0  0  0  0  0  0
   22.8647   -6.2219  -12.6337 O   0  0  0  0  0  0  0  0  0  0  0  0
   21.4571   -6.7783  -14.4418 C   0  0  0  0  0  0  0  0  0  0  0  0
   21.1696   -7.7693  -15.4751 C   0  0  0  0  0  0  0  0  0  0  0  0
   19.9732   -7.6763  -16.3348 C   0  0  2  0  0  0  0  0  0  0  0  0
   20.0700   -8.7559  -17.3563 N   0  0  0  0  0  0  0  0  0  0  0  0
   19.6770   -6.4371  -17.0449 C   0  0  0  0  0  0  0  0  0  0  0  0
   19.9145   -6.3706  -18.2875 O   0  0  0  0  0  0  0  0  0  0  0  0
   19.1203   -5.2620  -16.4551 N   0  0  0  0  0  0  0  0  0  0  0  0
   18.8345   -4.0342  -17.1924 C   0  0  1  0  0  0  0  0  0  0  0  0
   17.5771   -4.1345  -17.9742 C   0  0  0  0  0  0  0  0  0  0  0  0
   17.2480   -2.8554  -18.6809 C   0  0  0  0  0  0  0  0  0  0  0  0
   16.0117   -2.8601  -19.4721 C   0  0  0  0  0  0  0  0  0  0  0  0
   14.9066   -2.6653  -18.9377 O   0  0  0  0  0  0  0  0  0  0  0  0
   18.9262   -2.8481  -16.3346 C   0  0  0  0  0  0  0  0  0  0  0  0
   19.4105   -1.6085  -16.6802 O   0  0  0  0  0  0  0  0  0  0  0  0
   16.0692   -3.0850  -20.8391 O   0  0  0  0  0  0  0  0  0  0  0  0
   18.5149   -2.9670  -15.1273 O   0  0  0  0  0  0  0  0  0  0  0  0
  1  2  1  0
  2  3  2  0
  4  2  1  0
  4  5  1  0
  6  5  1  0
  6  7  1  1
  8  6  1  0
  9  8  2  0
 11 13  1  0
 11 10  1  0
 12 11  2  0
 14 13  1  0
 15 14  1  6
 15 16  1  0
 16  8  1  0
 17 15  1  0
 17 18  2  0
 19 17  1  0
 20 19  1  0
 21 22  1  0
 20 21  1  1
 22 23  1  0
 23 24  2  0
 23 27  1  0
 25 20  1  0
 26 25  1  0
 28 25  2  0
M  END
$$$$
