QQE.pdb
     RDKit          3D

 28 27  0  0  1  0  0  0  0  0999 V2000
   16.6775  -14.5124  -15.6102 N   0  0  0  0  0  0  0  0  0  0  0  0
   17.2706  -15.7919  -15.7445 C   0  0  0  0  0  0  0  0  0  0  0  0
   16.5473  -16.8004  -15.5741 O   0  0  0  0  0  0  0  0  0  0  0  0
   18.6988  -15.9779  -16.0746 C   0  0  0  0  0  0  0  0  0  0  0  0
   19.4590  -14.6889  -16.2062 C   0  0  0  0  0  0  0  0  0  0  0  0
   20.8606  -14.8388  -16.6925 C   0  0  2  0  0  0  0  0  0  0  0  0
   21.5215  -15.7694  -15.7779 N   0  0  0  0  0  0  0  0  0  0  0  0
   21.5589  -13.5058  -16.5714 C   0  0  0  0  0  0  0  0  0  0  0  0
   22.0269  -13.1377  -15.4639 O   0  0  0  0  0  0  0  0  0  0  0  0
   25.0449  -11.2251  -20.9853 N   0  0  0  0  0  0  0  0  0  0  0  0
   24.9902  -10.0726  -20.1735 C   0  0  0  0  0  0  0  0  0  0  0  0
   25.6670   -9.0370  -20.4355 O   0  0  0  0  0  0  0  0  0  0  0  0
   24.1171  -10.0611  -18.9831 C   0  0  0  0  0  0  0  0  0  0  0  0
   23.3095  -11.2536  -18.7421 C   0  0  0  0  0  0  0  0  0  0  0  0
   22.4354  -11.3786  -17.5591 C   0  0  2  0  0  0  0  0  0  0  0  0
   21.6952  -12.6651  -17.6824 N   0  0  0  0  0  0  0  0  0  0  0  0
   21.4520  -10.3427  -17.2634 C   0  0  0  0  0  0  0  0  0  0  0  0
   20.3679  -10.3214  -17.9186 O   0  0  0  0  0  0  0  0  0  0  0  0
   21.5975   -9.3274  -16.2702 N   0  0  0  0  0  0  0  0  0  0  0  0
   20.6364   -8.2486  -16.0570 C   0  0  1  0  0  0  0  0  0  0  0  0
   19.5891   -8.6227  -15.0744 C   0  0  0  0  0  0  0  0  0  0  0  0
   18.6144   -7.5103  -14.8371 C   0  0  0  0  0  0  0  0  0  0  0  0
   17.5295   -7.7997  -13.8917 C   0  0  0  0  0  0  0  0  0  0  0  0
   17.4798   -8.8823  -13.2832 O   0  0  0  0  0  0  0  0  0  0  0  0
   21.3017   -6.9707  -15.7824 C   0  0  0  0  0  0  0  0  0  0  0  0
   20.7490   -5.7139  -15.8563 O   0  0  0  0  0  0  0  0  0  0  0  0
   16.5397   -6.8548  -13.6683 O   0  0  0  0  0  0  0  0  0  0  0  0
   22.5341   -7.0161  -15.4365 O   0  0  0  0  0  0  0  0  0  0  0  0
  1  2  1  0
  2  3  2  0
  4  2  1  0
  4  5  1  0
  6  5  1  0
  6  7  1  1
  8  6  1  0
  9  8  2  0
 11 13  1  0
 11 10  1  0
 12 11  2  0
 14 13  1  0
 15 14  1  6
 15 16  1  0
 16  8  1  0
 17 15  1  0
 17 18  2  0
 19 17  1  0
 20 19  1  0
 21 22  1  0
 20 21  1  1
 22 23  1  0
 23 24  2  0
 23 27  1  0
 25 20  1  0
 26 25  1  0
 28 25  2  0
M  END
$$$$
