QQE.pdb
     RDKit          3D

 28 27  0  0  1  0  0  0  0  0999 V2000
   13.2455   -7.0712  -10.0383 N   0  0  0  0  0  0  0  0  0  0  0  0
   12.8300   -8.3873  -10.3580 C   0  0  0  0  0  0  0  0  0  0  0  0
   11.6422   -8.7070  -10.1213 O   0  0  0  0  0  0  0  0  0  0  0  0
   13.7395   -9.3877  -10.9542 C   0  0  0  0  0  0  0  0  0  0  0  0
   15.1136   -8.8545  -11.2445 C   0  0  0  0  0  0  0  0  0  0  0  0
   16.0822   -9.8695  -11.7494 C   0  0  2  0  0  0  0  0  0  0  0  0
   16.1855  -10.8978  -10.7144 N   0  0  0  0  0  0  0  0  0  0  0  0
   17.4377   -9.2187  -11.8838 C   0  0  0  0  0  0  0  0  0  0  0  0
   18.0469   -8.8143  -10.8609 O   0  0  0  0  0  0  0  0  0  0  0  0
   21.3740  -11.7614  -15.5217 N   0  0  0  0  0  0  0  0  0  0  0  0
   22.1723  -10.6570  -15.1563 C   0  0  0  0  0  0  0  0  0  0  0  0
   23.3919  -10.5767  -15.4804 O   0  0  0  0  0  0  0  0  0  0  0  0
   21.5763   -9.5539  -14.3769 C   0  0  0  0  0  0  0  0  0  0  0  0
   20.1744   -9.6953  -13.9935 C   0  0  0  0  0  0  0  0  0  0  0  0
   19.4604   -8.6436  -13.2429 C   0  0  2  0  0  0  0  0  0  0  0  0
   18.0330   -9.0565  -13.1404 N   0  0  0  0  0  0  0  0  0  0  0  0
   19.4766   -7.2653  -13.7199 C   0  0  0  0  0  0  0  0  0  0  0  0
   18.6945   -6.9321  -14.6591 O   0  0  0  0  0  0  0  0  0  0  0  0
   20.3089   -6.2251  -13.2062 N   0  0  0  0  0  0  0  0  0  0  0  0
   20.3976   -4.8877  -13.7861 C   0  0  1  0  0  0  0  0  0  0  0  0
   19.2491   -4.0338  -13.3937 C   0  0  0  0  0  0  0  0  0  0  0  0
   19.3371   -2.6613  -13.9873 C   0  0  0  0  0  0  0  0  0  0  0  0
   18.2067   -1.7680  -13.7066 C   0  0  0  0  0  0  0  0  0  0  0  0
   18.1943   -0.5974  -14.1242 O   0  0  0  0  0  0  0  0  0  0  0  0
   21.7136   -4.2808  -13.5608 C   0  0  0  0  0  0  0  0  0  0  0  0
   22.2779   -3.2383  -14.2575 O   0  0  0  0  0  0  0  0  0  0  0  0
   17.1310   -2.2301  -12.9638 O   0  0  0  0  0  0  0  0  0  0  0  0
   22.4271   -4.7674  -12.6148 O   0  0  0  0  0  0  0  0  0  0  0  0
  1  2  1  0
  2  3  2  0
  4  2  1  0
  4  5  1  0
  6  5  1  0
  6  7  1  1
  8  6  1  0
  9  8  2  0
 11 13  1  0
 11 10  1  0
 12 11  2  0
 14 13  1  0
 15 14  1  6
 15 16  1  0
 16  8  1  0
 17 15  1  0
 17 18  2  0
 19 17  1  0
 20 19  1  0
 21 22  1  0
 20 21  1  1
 22 23  1  0
 23 24  2  0
 23 27  1  0
 25 20  1  0
 26 25  1  0
 28 25  2  0
M  END
$$$$
