YIM.pdb
     RDKit          3D

 29 29  0  0  1  0  0  0  0  0999 V2000
   20.0620  -12.6965  -24.8710 O   0  0  0  0  0  0  0  0  0  0  0  0
   20.1635  -12.2177  -23.5627 C   0  0  0  0  0  0  0  0  0  0  0  0
   21.2724  -11.5256  -23.1243 C   0  0  0  0  0  0  0  0  0  0  0  0
   21.3488  -11.0638  -21.8298 C   0  0  0  0  0  0  0  0  0  0  0  0
   20.3235  -11.2708  -20.9135 C   0  0  0  0  0  0  0  0  0  0  0  0
   20.4425  -10.7542  -19.5262 C   0  0  0  0  0  0  0  0  0  0  0  0
   21.4238  -11.6431  -18.7952 C   0  0  2  0  0  0  0  0  0  0  0  0
   20.8691  -12.9594  -18.7180 N   0  0  0  0  0  0  0  0  0  0  0  0
   21.8331  -11.0785  -17.4956 C   0  0  0  0  0  0  0  0  0  0  0  0
   21.0782  -11.2486  -16.5035 O   0  0  0  0  0  0  0  0  0  0  0  0
   19.2279  -11.9663  -21.3824 C   0  0  0  0  0  0  0  0  0  0  0  0
   19.1402  -12.4306  -22.6673 C   0  0  0  0  0  0  0  0  0  0  0  0
   26.5187  -12.1109  -15.5192 C   0  0  0  0  0  0  0  0  0  0  0  0
   25.0360  -11.7424  -15.6839 C   0  0  0  0  0  0  0  0  0  0  0  0
   24.8597  -10.2528  -15.6891 C   0  0  2  0  0  0  0  0  0  0  0  0
   25.4662   -9.7179  -14.4150 C   0  0  0  0  0  0  0  0  0  0  0  0
   23.4746   -9.8650  -15.9736 C   0  0  2  0  0  0  0  0  0  0  0  0
   23.0105  -10.3576  -17.2705 N   0  0  0  0  0  0  0  0  0  0  0  0
   23.2146   -8.4137  -15.9885 C   0  0  0  0  0  0  0  0  0  0  0  0
   23.6539   -7.6716  -16.9493 O   0  0  0  0  0  0  0  0  0  0  0  0
   18.3589   -5.1998  -16.8902 C   0  0  0  0  0  0  0  0  0  0  0  0
   18.8437   -4.2232  -15.4308 S   0  0  0  0  0  0  0  0  0  0  0  0
   20.6211   -4.4938  -15.1644 C   0  0  0  0  0  0  0  0  0  0  0  0
   20.8861   -5.9525  -15.2299 C   0  0  0  0  0  0  0  0  0  0  0  0
   22.3620   -6.2293  -15.0461 C   0  0  2  0  0  0  0  0  0  0  0  0
   22.4858   -7.6910  -15.0120 N   0  0  0  0  0  0  0  0  0  0  0  0
   22.8547   -5.6835  -13.7696 C   0  0  0  0  0  0  0  0  0  0  0  0
   22.8827   -6.4009  -12.7392 O   0  0  0  0  0  0  0  0  0  0  0  0
   23.3065   -4.3878  -13.6254 O   0  0  0  0  0  0  0  0  0  0  0  0
  2  1  1  0
  3  2  2  0
  4  3  1  0
  5 11  1  0
  5  4  2  0
  6  5  1  0
  7  9  1  0
  7  6  1  0
  7  8  1  1
  9 10  2  0
 11 12  2  0
 12  2  1  0
 14 13  1  0
 15 16  1  1
 15 14  1  0
 15 17  1  0
 17 18  1  6
 18  9  1  0
 19 26  1  0
 19 17  1  0
 20 19  2  0
 22 23  1  0
 22 21  1  0
 23 24  1  0
 25 24  1  1
 25 26  1  0
 25 27  1  0
 27 29  1  0
 28 27  2  0
M  END
$$$$
