YIM.pdb
     RDKit          3D

 29 29  0  0  1  0  0  0  0  0999 V2000
   29.2939  -16.4081  -20.7401 O   0  0  0  0  0  0  0  0  0  0  0  0
   28.4591  -17.1650  -19.9145 C   0  0  0  0  0  0  0  0  0  0  0  0
   28.2084  -16.8068  -18.6070 C   0  0  0  0  0  0  0  0  0  0  0  0
   27.3819  -17.5694  -17.8134 C   0  0  0  0  0  0  0  0  0  0  0  0
   26.7676  -18.7236  -18.2868 C   0  0  0  0  0  0  0  0  0  0  0  0
   25.8801  -19.5181  -17.3997 C   0  0  0  0  0  0  0  0  0  0  0  0
   26.7670  -20.3392  -16.4905 C   0  0  2  0  0  0  0  0  0  0  0  0
   27.4491  -21.3134  -17.2853 N   0  0  0  0  0  0  0  0  0  0  0  0
   26.0296  -20.8991  -15.3424 C   0  0  0  0  0  0  0  0  0  0  0  0
   25.5615  -22.0628  -15.4404 O   0  0  0  0  0  0  0  0  0  0  0  0
   27.0382  -19.0553  -19.5986 C   0  0  0  0  0  0  0  0  0  0  0  0
   27.8584  -18.3050  -20.3977 C   0  0  0  0  0  0  0  0  0  0  0  0
   28.1853  -20.9340  -10.7077 C   0  0  0  0  0  0  0  0  0  0  0  0
   27.2603  -21.3424  -11.8649 C   0  0  0  0  0  0  0  0  0  0  0  0
   25.9278  -20.6651  -11.7398 C   0  0  2  0  0  0  0  0  0  0  0  0
   25.2906  -21.1464  -10.4593 C   0  0  0  0  0  0  0  0  0  0  0  0
   25.1295  -20.7942  -12.9628 C   0  0  2  0  0  0  0  0  0  0  0  0
   25.8038  -20.2328  -14.1334 N   0  0  0  0  0  0  0  0  0  0  0  0
   23.8049  -20.1476  -12.9246 C   0  0  0  0  0  0  0  0  0  0  0  0
   23.6495  -18.9310  -13.3281 O   0  0  0  0  0  0  0  0  0  0  0  0
   20.8870  -18.1231  -16.3085 C   0  0  0  0  0  0  0  0  0  0  0  0
   20.4802  -19.8234  -16.8205 S   0  0  0  0  0  0  0  0  0  0  0  0
   20.2185  -20.7964  -15.3078 C   0  0  0  0  0  0  0  0  0  0  0  0
   21.5062  -20.8739  -14.5742 C   0  0  0  0  0  0  0  0  0  0  0  0
   21.3097  -20.4962  -13.1225 C   0  0  2  0  0  0  0  0  0  0  0  0
   22.6022  -20.7453  -12.4739 N   0  0  0  0  0  0  0  0  0  0  0  0
   20.2888  -21.3431  -12.4818 C   0  0  0  0  0  0  0  0  0  0  0  0
   20.5514  -22.5309  -12.1699 O   0  0  0  0  0  0  0  0  0  0  0  0
   19.0150  -20.9009  -12.1887 O   0  0  0  0  0  0  0  0  0  0  0  0
  2  1  1  0
  3  2  2  0
  4  3  1  0
  5 11  1  0
  5  4  2  0
  6  5  1  0
  7  9  1  0
  7  6  1  0
  7  8  1  6
  9 10  2  0
 11 12  2  0
 12  2  1  0
 14 13  1  0
 15 16  1  1
 15 14  1  0
 15 17  1  0
 17 18  1  6
 18  9  1  0
 19 26  1  0
 19 17  1  0
 20 19  2  0
 22 23  1  0
 22 21  1  0
 23 24  1  0
 25 24  1  6
 25 26  1  0
 25 27  1  0
 27 29  1  0
 28 27  2  0
M  END
$$$$
