YIM.pdb
     RDKit          3D

 29 29  0  0  1  0  0  0  0  0999 V2000
   17.9698  -17.1640  -15.7763 O   0  0  0  0  0  0  0  0  0  0  0  0
   18.9832  -17.9837  -15.2738 C   0  0  0  0  0  0  0  0  0  0  0  0
   20.1336  -17.4635  -14.7202 C   0  0  0  0  0  0  0  0  0  0  0  0
   21.1181  -18.2923  -14.2317 C   0  0  0  0  0  0  0  0  0  0  0  0
   21.0006  -19.6773  -14.2729 C   0  0  0  0  0  0  0  0  0  0  0  0
   22.0840  -20.5378  -13.7328 C   0  0  0  0  0  0  0  0  0  0  0  0
   23.2950  -20.3501  -14.6192 C   0  0  2  0  0  0  0  0  0  0  0  0
   22.9900  -20.8716  -15.9159 N   0  0  0  0  0  0  0  0  0  0  0  0
   24.5234  -20.9001  -14.0160 C   0  0  0  0  0  0  0  0  0  0  0  0
   24.7785  -22.1207  -14.1826 O   0  0  0  0  0  0  0  0  0  0  0  0
   19.8383  -20.1669  -14.8326 C   0  0  0  0  0  0  0  0  0  0  0  0
   18.8522  -19.3529  -15.3218 C   0  0  0  0  0  0  0  0  0  0  0  0
   29.1995  -19.1516  -14.9935 C   0  0  0  0  0  0  0  0  0  0  0  0
   28.0411  -20.0600  -14.5525 C   0  0  0  0  0  0  0  0  0  0  0  0
   27.8661  -20.0069  -13.0637 C   0  0  2  0  0  0  0  0  0  0  0  0
   29.1634  -20.4549  -12.4363 C   0  0  0  0  0  0  0  0  0  0  0  0
   26.6494  -20.7002  -12.6291 C   0  0  2  0  0  0  0  0  0  0  0  0
   25.4438  -20.1649  -13.2616 N   0  0  0  0  0  0  0  0  0  0  0  0
   26.3829  -20.6611  -11.1794 C   0  0  0  0  0  0  0  0  0  0  0  0
   25.9912  -19.5722  -10.6067 O   0  0  0  0  0  0  0  0  0  0  0  0
   27.5540  -18.7773   -4.5122 C   0  0  0  0  0  0  0  0  0  0  0  0
   27.8968  -19.0220   -6.2845 S   0  0  0  0  0  0  0  0  0  0  0  0
   26.7724  -20.3202   -6.8793 C   0  0  0  0  0  0  0  0  0  0  0  0
   27.1426  -20.6537   -8.2771 C   0  0  0  0  0  0  0  0  0  0  0  0
   26.1587  -21.6432   -8.8616 C   0  0  2  0  0  0  0  0  0  0  0  0
   26.5079  -21.7508  -10.2828 N   0  0  0  0  0  0  0  0  0  0  0  0
   24.7745  -21.1514   -8.7512 C   0  0  0  0  0  0  0  0  0  0  0  0
   24.1284  -20.8326   -9.7798 O   0  0  0  0  0  0  0  0  0  0  0  0
   24.1147  -21.0143   -7.5472 O   0  0  0  0  0  0  0  0  0  0  0  0
  2  1  1  0
  3  2  2  0
  4  3  1  0
  5 11  1  0
  5  4  2  0
  6  5  1  0
  7  9  1  0
  7  6  1  0
  7  8  1  6
  9 10  2  0
 11 12  2  0
 12  2  1  0
 14 13  1  0
 15 16  1  1
 15 14  1  0
 15 17  1  0
 17 18  1  6
 18  9  1  0
 19 26  1  0
 19 17  1  0
 20 19  2  0
 22 23  1  0
 22 21  1  0
 23 24  1  0
 25 24  1  1
 25 26  1  0
 25 27  1  0
 27 29  1  0
 28 27  2  0
M  END
$$$$
