YIM.pdb
     RDKit          3D

 29 29  0  0  1  0  0  0  0  0999 V2000
   28.0610  -12.8740  -17.1554 O   0  0  0  0  0  0  0  0  0  0  0  0
   27.3424  -13.9933  -16.7286 C   0  0  0  0  0  0  0  0  0  0  0  0
   26.6294  -14.7800  -17.6079 C   0  0  0  0  0  0  0  0  0  0  0  0
   25.9291  -15.8782  -17.1626 C   0  0  0  0  0  0  0  0  0  0  0  0
   25.9077  -16.2422  -15.8207 C   0  0  0  0  0  0  0  0  0  0  0  0
   25.1421  -17.4361  -15.3800 C   0  0  0  0  0  0  0  0  0  0  0  0
   26.1383  -18.4390  -14.8423 C   0  0  2  0  0  0  0  0  0  0  0  0
   27.0279  -18.8034  -15.9016 N   0  0  0  0  0  0  0  0  0  0  0  0
   25.4827  -19.5814  -14.1786 C   0  0  0  0  0  0  0  0  0  0  0  0
   25.1078  -20.5516  -14.8865 O   0  0  0  0  0  0  0  0  0  0  0  0
   26.6307  -15.4353  -14.9661 C   0  0  0  0  0  0  0  0  0  0  0  0
   27.3310  -14.3407  -15.3969 C   0  0  0  0  0  0  0  0  0  0  0  0
   26.7519  -21.0791   -9.0910 C   0  0  0  0  0  0  0  0  0  0  0  0
   26.3099  -21.2881  -10.5478 C   0  0  0  0  0  0  0  0  0  0  0  0
   24.8739  -20.8928  -10.7257 C   0  0  2  0  0  0  0  0  0  0  0  0
   24.0360  -21.8353   -9.8970 C   0  0  0  0  0  0  0  0  0  0  0  0
   24.5126  -20.7597  -12.1405 C   0  0  2  0  0  0  0  0  0  0  0  0
   25.2394  -19.6776  -12.8045 N   0  0  0  0  0  0  0  0  0  0  0  0
   23.0864  -20.4964  -12.4068 C   0  0  0  0  0  0  0  0  0  0  0  0
   22.5529  -19.3621  -12.0973 O   0  0  0  0  0  0  0  0  0  0  0  0
   20.2884  -20.9424  -17.5970 C   0  0  0  0  0  0  0  0  0  0  0  0
   18.7574  -21.3913  -16.7178 S   0  0  0  0  0  0  0  0  0  0  0  0
   19.0358  -21.0755  -14.9497 C   0  0  0  0  0  0  0  0  0  0  0  0
   20.4788  -21.2691  -14.6627 C   0  0  0  0  0  0  0  0  0  0  0  0
   20.7538  -21.0760  -13.1876 C   0  0  2  0  0  0  0  0  0  0  0  0
   22.1740  -21.3982  -13.0077 N   0  0  0  0  0  0  0  0  0  0  0  0
   19.9521  -22.0004  -12.3675 C   0  0  0  0  0  0  0  0  0  0  0  0
   20.3932  -23.1399  -12.0774 O   0  0  0  0  0  0  0  0  0  0  0  0
   18.7018  -21.6852  -11.8763 O   0  0  0  0  0  0  0  0  0  0  0  0
  2  1  1  0
  3  2  2  0
  4  3  1  0
  5 11  1  0
  5  4  2  0
  6  5  1  0
  7  9  1  0
  7  6  1  0
  7  8  1  6
  9 10  2  0
 11 12  2  0
 12  2  1  0
 14 13  1  0
 15 16  1  6
 15 14  1  0
 15 17  1  0
 17 18  1  1
 18  9  1  0
 19 26  1  0
 19 17  1  0
 20 19  2  0
 22 23  1  0
 22 21  1  0
 23 24  1  0
 25 24  1  6
 25 26  1  0
 25 27  1  0
 27 29  1  0
 28 27  2  0
M  END
$$$$
