YIM.pdb
     RDKit          3D

 29 29  0  0  1  0  0  0  0  0999 V2000
   28.7085  -12.9223  -16.9883 O   0  0  0  0  0  0  0  0  0  0  0  0
   27.9783  -14.0679  -16.6630 C   0  0  0  0  0  0  0  0  0  0  0  0
   27.5435  -14.9528  -17.6266 C   0  0  0  0  0  0  0  0  0  0  0  0
   26.8254  -16.0749  -17.2806 C   0  0  0  0  0  0  0  0  0  0  0  0
   26.5079  -16.3661  -15.9585 C   0  0  0  0  0  0  0  0  0  0  0  0
   25.7334  -17.5888  -15.6254 C   0  0  0  0  0  0  0  0  0  0  0  0
   26.7125  -18.6159  -15.1022 C   0  0  2  0  0  0  0  0  0  0  0  0
   27.6179  -18.9541  -16.1567 N   0  0  0  0  0  0  0  0  0  0  0  0
   26.0370  -19.7732  -14.4861 C   0  0  0  0  0  0  0  0  0  0  0  0
   25.7533  -20.7593  -15.2142 O   0  0  0  0  0  0  0  0  0  0  0  0
   26.9569  -15.4618  -15.0179 C   0  0  0  0  0  0  0  0  0  0  0  0
   27.6719  -14.3424  -15.3496 C   0  0  0  0  0  0  0  0  0  0  0  0
   25.6041  -20.4686   -8.7933 C   0  0  0  0  0  0  0  0  0  0  0  0
   25.1774  -20.1167  -10.2271 C   0  0  0  0  0  0  0  0  0  0  0  0
   25.4483  -21.2637  -11.1550 C   0  0  2  0  0  0  0  0  0  0  0  0
   26.9016  -21.6402  -11.0017 C   0  0  0  0  0  0  0  0  0  0  0  0
   24.9777  -20.9909  -12.5166 C   0  0  2  0  0  0  0  0  0  0  0  0
   25.6796  -19.8673  -13.1369 N   0  0  0  0  0  0  0  0  0  0  0  0
   23.5430  -20.6733  -12.6381 C   0  0  0  0  0  0  0  0  0  0  0  0
   23.1201  -19.4597  -12.5143 O   0  0  0  0  0  0  0  0  0  0  0  0
   20.8032  -20.1603  -17.2728 C   0  0  0  0  0  0  0  0  0  0  0  0
   19.1762  -20.4969  -16.5258 S   0  0  0  0  0  0  0  0  0  0  0  0
   19.4270  -20.6606  -14.7331 C   0  0  0  0  0  0  0  0  0  0  0  0
   20.8376  -21.0539  -14.4932 C   0  0  0  0  0  0  0  0  0  0  0  0
   21.0996  -21.2004  -13.0104 C   0  0  2  0  0  0  0  0  0  0  0  0
   22.5062  -21.6030  -12.8983 N   0  0  0  0  0  0  0  0  0  0  0  0
   20.2579  -22.2550  -12.4192 C   0  0  0  0  0  0  0  0  0  0  0  0
   20.6696  -23.4400  -12.3608 O   0  0  0  0  0  0  0  0  0  0  0  0
   19.0000  -22.0183  -11.9038 O   0  0  0  0  0  0  0  0  0  0  0  0
  2  1  1  0
  3  2  2  0
  4  3  1  0
  5 11  1  0
  5  4  2  0
  6  5  1  0
  7  9  1  0
  7  6  1  0
  7  8  1  6
  9 10  2  0
 11 12  2  0
 12  2  1  0
 14 13  1  0
 15 16  1  6
 15 14  1  0
 15 17  1  0
 17 18  1  1
 18  9  1  0
 19 26  1  0
 19 17  1  0
 20 19  2  0
 22 23  1  0
 22 21  1  0
 23 24  1  0
 25 24  1  6
 25 26  1  0
 25 27  1  0
 27 29  1  0
 28 27  2  0
M  END
$$$$
