YIM.pdb
     RDKit          3D

 29 29  0  0  1  0  0  0  0  0999 V2000
   15.5682  -25.6724   -1.3742 O   0  0  0  0  0  0  0  0  0  0  0  0
   15.7739  -24.5869   -0.5192 C   0  0  0  0  0  0  0  0  0  0  0  0
   15.9968  -24.7549    0.8309 C   0  0  0  0  0  0  0  0  0  0  0  0
   16.1969  -23.6691    1.6528 C   0  0  0  0  0  0  0  0  0  0  0  0
   16.1839  -22.3665    1.1665 C   0  0  0  0  0  0  0  0  0  0  0  0
   16.4066  -21.2211    2.0854 C   0  0  0  0  0  0  0  0  0  0  0  0
   15.1484  -21.0488    2.9066 C   0  0  2  0  0  0  0  0  0  0  0  0
   14.0884  -20.6549    2.0306 N   0  0  0  0  0  0  0  0  0  0  0  0
   15.3489  -20.1519    4.0602 C   0  0  0  0  0  0  0  0  0  0  0  0
   15.0043  -18.9470    3.9499 O   0  0  0  0  0  0  0  0  0  0  0  0
   15.9584  -22.2314   -0.1881 C   0  0  0  0  0  0  0  0  0  0  0  0
   15.7581  -23.3034   -1.0157 C   0  0  0  0  0  0  0  0  0  0  0  0
   15.0592  -22.6558    8.5509 C   0  0  0  0  0  0  0  0  0  0  0  0
   14.7565  -21.2652    7.9714 C   0  0  0  0  0  0  0  0  0  0  0  0
   16.0278  -20.5101    7.7193 C   0  0  2  0  0  0  0  0  0  0  0  0
   16.3811  -19.7760    8.9896 C   0  0  0  0  0  0  0  0  0  0  0  0
   15.9568  -19.7096    6.4930 C   0  0  2  0  0  0  0  0  0  0  0  0
   15.8995  -20.5362    5.2874 N   0  0  0  0  0  0  0  0  0  0  0  0
   17.0809  -18.7797    6.2788 C   0  0  0  0  0  0  0  0  0  0  0  0
   18.2114  -19.2014    5.8192 O   0  0  0  0  0  0  0  0  0  0  0  0
   19.5736  -11.3589    5.7260 C   0  0  0  0  0  0  0  0  0  0  0  0
   18.1732  -12.5174    5.8497 S   0  0  0  0  0  0  0  0  0  0  0  0
   18.8665  -14.1839    6.0632 C   0  0  0  0  0  0  0  0  0  0  0  0
   17.7456  -15.1562    6.0860 C   0  0  0  0  0  0  0  0  0  0  0  0
   18.2597  -16.5469    6.3869 C   0  0  2  0  0  0  0  0  0  0  0  0
   17.0637  -17.3853    6.5280 N   0  0  0  0  0  0  0  0  0  0  0  0
   19.0106  -16.5782    7.6538 C   0  0  0  0  0  0  0  0  0  0  0  0
   20.2624  -16.6790    7.6494 O   0  0  0  0  0  0  0  0  0  0  0  0
   18.4076  -16.4992    8.8923 O   0  0  0  0  0  0  0  0  0  0  0  0
  2  1  1  0
  3  2  2  0
  4  3  1  0
  5 11  1  0
  5  4  2  0
  6  5  1  0
  7  9  1  0
  7  6  1  0
  7  8  1  6
  9 10  2  0
 11 12  2  0
 12  2  1  0
 14 13  1  0
 15 16  1  1
 15 14  1  0
 15 17  1  0
 17 18  1  6
 18  9  1  0
 19 26  1  0
 19 17  1  0
 20 19  2  0
 22 23  1  0
 22 21  1  0
 23 24  1  0
 25 24  1  1
 25 26  1  0
 25 27  1  0
 27 29  1  0
 28 27  2  0
M  END
$$$$
