YIM.pdb
     RDKit          3D

 29 29  0  0  1  0  0  0  0  0999 V2000
   23.4638  -17.4279  -17.7335 O   0  0  0  0  0  0  0  0  0  0  0  0
   23.7033  -18.1396  -16.5555 C   0  0  0  0  0  0  0  0  0  0  0  0
   23.9416  -19.4975  -16.5604 C   0  0  0  0  0  0  0  0  0  0  0  0
   24.1749  -20.1765  -15.3861 C   0  0  0  0  0  0  0  0  0  0  0  0
   24.1813  -19.5329  -14.1534 C   0  0  0  0  0  0  0  0  0  0  0  0
   24.4399  -20.3005  -12.9084 C   0  0  0  0  0  0  0  0  0  0  0  0
   25.8914  -20.0890  -12.5400 C   0  0  2  0  0  0  0  0  0  0  0  0
   26.7033  -20.5446  -13.6261 N   0  0  0  0  0  0  0  0  0  0  0  0
   26.2321  -20.6847  -11.2344 C   0  0  0  0  0  0  0  0  0  0  0  0
   26.3817  -21.9319  -11.1652 O   0  0  0  0  0  0  0  0  0  0  0  0
   23.9397  -18.1747  -14.1817 C   0  0  0  0  0  0  0  0  0  0  0  0
   23.7063  -17.4884  -15.3431 C   0  0  0  0  0  0  0  0  0  0  0  0
   28.1935  -17.5278   -7.0530 C   0  0  0  0  0  0  0  0  0  0  0  0
   27.9899  -18.6414   -8.0923 C   0  0  0  0  0  0  0  0  0  0  0  0
   26.8540  -19.5356   -7.6921 C   0  0  2  0  0  0  0  0  0  0  0  0
   27.1407  -20.0405   -6.2992 C   0  0  0  0  0  0  0  0  0  0  0  0
   26.5654  -20.5468   -8.7138 C   0  0  2  0  0  0  0  0  0  0  0  0
   26.4058  -19.9660  -10.0470 N   0  0  0  0  0  0  0  0  0  0  0  0
   25.3481  -21.3469   -8.4855 C   0  0  0  0  0  0  0  0  0  0  0  0
   25.3529  -22.6259   -8.6626 O   0  0  0  0  0  0  0  0  0  0  0  0
   24.1891  -20.9705   -3.1703 C   0  0  0  0  0  0  0  0  0  0  0  0
   22.4642  -21.5310   -3.3411 S   0  0  0  0  0  0  0  0  0  0  0  0
   22.2100  -21.9771   -5.0846 C   0  0  0  0  0  0  0  0  0  0  0  0
   23.3006  -21.3684   -5.8859 C   0  0  0  0  0  0  0  0  0  0  0  0
   23.1126  -21.6788   -7.3546 C   0  0  2  0  0  0  0  0  0  0  0  0
   24.0931  -20.8459   -8.0604 N   0  0  0  0  0  0  0  0  0  0  0  0
   21.7621  -21.3086   -7.8119 C   0  0  0  0  0  0  0  0  0  0  0  0
   21.5547  -20.1906   -8.3450 O   0  0  0  0  0  0  0  0  0  0  0  0
   20.6682  -22.1409   -7.6907 O   0  0  0  0  0  0  0  0  0  0  0  0
  2  1  1  0
  3  2  2  0
  4  3  1  0
  5 11  1  0
  5  4  2  0
  6  5  1  0
  7  9  1  0
  7  6  1  0
  7  8  1  6
  9 10  2  0
 11 12  2  0
 12  2  1  0
 14 13  1  0
 15 16  1  1
 15 14  1  0
 15 17  1  0
 17 18  1  6
 18  9  1  0
 19 26  1  0
 19 17  1  0
 20 19  2  0
 22 23  1  0
 22 21  1  0
 23 24  1  0
 25 24  1  1
 25 26  1  0
 25 27  1  0
 27 29  1  0
 28 27  2  0
M  END
$$$$
