YIM.pdb
     RDKit          3D

 29 29  0  0  1  0  0  0  0  0999 V2000
   19.9337  -16.2381  -17.7293 O   0  0  0  0  0  0  0  0  0  0  0  0
   20.0940  -17.2285  -16.7573 C   0  0  0  0  0  0  0  0  0  0  0  0
   19.9268  -18.5662  -17.0459 C   0  0  0  0  0  0  0  0  0  0  0  0
   20.0904  -19.5235  -16.0705 C   0  0  0  0  0  0  0  0  0  0  0  0
   20.4281  -19.1911  -14.7632 C   0  0  0  0  0  0  0  0  0  0  0  0
   20.5983  -20.2538  -13.7397 C   0  0  0  0  0  0  0  0  0  0  0  0
   22.0288  -20.1882  -13.2531 C   0  0  2  0  0  0  0  0  0  0  0  0
   22.8952  -20.4251  -14.3664 N   0  0  0  0  0  0  0  0  0  0  0  0
   22.2698  -21.0708  -12.0963 C   0  0  0  0  0  0  0  0  0  0  0  0
   22.4714  -22.2946  -12.3076 O   0  0  0  0  0  0  0  0  0  0  0  0
   20.5883  -17.8449  -14.5061 C   0  0  0  0  0  0  0  0  0  0  0  0
   20.4284  -16.8836  -15.4676 C   0  0  0  0  0  0  0  0  0  0  0  0
   25.0490  -21.3086   -6.7237 C   0  0  0  0  0  0  0  0  0  0  0  0
   23.8141  -21.7846   -7.5048 C   0  0  0  0  0  0  0  0  0  0  0  0
   23.6372  -20.9766   -8.7561 C   0  0  2  0  0  0  0  0  0  0  0  0
   23.5268  -19.5272   -8.3506 C   0  0  0  0  0  0  0  0  0  0  0  0
   22.5661  -21.5072   -9.6052 C   0  0  2  0  0  0  0  0  0  0  0  0
   22.2934  -20.6534  -10.7614 N   0  0  0  0  0  0  0  0  0  0  0  0
   21.2642  -21.6935   -8.9385 C   0  0  0  0  0  0  0  0  0  0  0  0
   20.4523  -20.7019   -8.7812 O   0  0  0  0  0  0  0  0  0  0  0  0
   15.3165  -24.3359  -10.4050 C   0  0  0  0  0  0  0  0  0  0  0  0
   16.4549  -25.3504   -9.4085 S   0  0  0  0  0  0  0  0  0  0  0  0
   17.3046  -24.2341   -8.2529 C   0  0  0  0  0  0  0  0  0  0  0  0
   18.6800  -23.9984   -8.7579 C   0  0  0  0  0  0  0  0  0  0  0  0
   19.4152  -23.0327   -7.8548 C   0  0  2  0  0  0  0  0  0  0  0  0
   20.7633  -22.9138   -8.4221 N   0  0  0  0  0  0  0  0  0  0  0  0
   19.5246  -23.5590   -6.4833 C   0  0  0  0  0  0  0  0  0  0  0  0
   18.5098  -23.6333   -5.7472 O   0  0  0  0  0  0  0  0  0  0  0  0
   20.7127  -23.9943   -5.9330 O   0  0  0  0  0  0  0  0  0  0  0  0
  2  1  1  0
  3  2  2  0
  4  3  1  0
  5 11  1  0
  5  4  2  0
  6  5  1  0
  7  9  1  0
  7  6  1  0
  7  8  1  6
  9 10  2  0
 11 12  2  0
 12  2  1  0
 14 13  1  0
 15 16  1  1
 15 14  1  0
 15 17  1  0
 17 18  1  6
 18  9  1  0
 19 26  1  0
 19 17  1  0
 20 19  2  0
 22 23  1  0
 22 21  1  0
 23 24  1  0
 25 24  1  6
 25 26  1  0
 25 27  1  0
 27 29  1  0
 28 27  2  0
M  END
$$$$
