YIM.pdb
     RDKit          3D

 29 29  0  0  1  0  0  0  0  0999 V2000
   13.3899  -22.6446    0.8552 O   0  0  0  0  0  0  0  0  0  0  0  0
   14.4031  -21.9247    1.4928 C   0  0  0  0  0  0  0  0  0  0  0  0
   15.6518  -21.7696    0.9294 C   0  0  0  0  0  0  0  0  0  0  0  0
   16.6338  -21.0555    1.5776 C   0  0  0  0  0  0  0  0  0  0  0  0
   16.4160  -20.4635    2.8168 C   0  0  0  0  0  0  0  0  0  0  0  0
   17.5008  -19.6984    3.4831 C   0  0  0  0  0  0  0  0  0  0  0  0
   17.3664  -18.2548    3.0524 C   0  0  2  0  0  0  0  0  0  0  0  0
   17.5361  -18.1898    1.6335 N   0  0  0  0  0  0  0  0  0  0  0  0
   18.2552  -17.3566    3.8130 C   0  0  0  0  0  0  0  0  0  0  0  0
   19.4797  -17.3399    3.5249 O   0  0  0  0  0  0  0  0  0  0  0  0
   15.1570  -20.6366    3.3542 C   0  0  0  0  0  0  0  0  0  0  0  0
   14.1721  -21.3446    2.7192 C   0  0  0  0  0  0  0  0  0  0  0  0
   17.5556  -12.2802    3.9827 C   0  0  0  0  0  0  0  0  0  0  0  0
   18.1803  -13.6824    4.0543 C   0  0  0  0  0  0  0  0  0  0  0  0
   18.1989  -14.1803    5.4692 C   0  0  2  0  0  0  0  0  0  0  0  0
   18.9101  -13.1459    6.3067 C   0  0  0  0  0  0  0  0  0  0  0  0
   18.6949  -15.5571    5.5600 C   0  0  2  0  0  0  0  0  0  0  0  0
   17.8428  -16.5074    4.8453 N   0  0  0  0  0  0  0  0  0  0  0  0
   18.8222  -16.0945    6.9271 C   0  0  0  0  0  0  0  0  0  0  0  0
   17.8099  -16.6253    7.5275 O   0  0  0  0  0  0  0  0  0  0  0  0
   23.2224  -20.0899   11.8402 C   0  0  0  0  0  0  0  0  0  0  0  0
   23.0680  -19.1916   10.2630 S   0  0  0  0  0  0  0  0  0  0  0  0
   21.4988  -18.2758   10.3129 C   0  0  0  0  0  0  0  0  0  0  0  0
   21.3103  -17.6014    9.0046 C   0  0  0  0  0  0  0  0  0  0  0  0
   20.0672  -16.7394    9.0297 C   0  0  2  0  0  0  0  0  0  0  0  0
   20.0038  -16.1037    7.7087 N   0  0  0  0  0  0  0  0  0  0  0  0
   20.1654  -15.6872   10.0560 C   0  0  0  0  0  0  0  0  0  0  0  0
   20.7069  -14.5860    9.7888 O   0  0  0  0  0  0  0  0  0  0  0  0
   19.6820  -15.8357   11.3398 O   0  0  0  0  0  0  0  0  0  0  0  0
  2  1  1  0
  3  2  2  0
  4  3  1  0
  5 11  1  0
  5  4  2  0
  6  5  1  0
  7  9  1  0
  7  6  1  0
  7  8  1  6
  9 10  2  0
 11 12  2  0
 12  2  1  0
 14 13  1  0
 15 16  1  1
 15 14  1  0
 15 17  1  0
 17 18  1  6
 18  9  1  0
 19 26  1  0
 19 17  1  0
 20 19  2  0
 22 23  1  0
 22 21  1  0
 23 24  1  0
 25 24  1  6
 25 26  1  0
 25 27  1  0
 27 29  1  0
 28 27  2  0
M  END
$$$$
