YIM.pdb
     RDKit          3D

 29 29  0  0  1  0  0  0  0  0999 V2000
   28.0231  -17.9021  -14.7525 O   0  0  0  0  0  0  0  0  0  0  0  0
   27.1497  -16.9461  -15.2767 C   0  0  0  0  0  0  0  0  0  0  0  0
   26.8335  -16.9059  -16.6180 C   0  0  0  0  0  0  0  0  0  0  0  0
   25.9699  -15.9539  -17.1104 C   0  0  0  0  0  0  0  0  0  0  0  0
   25.3822  -14.9986  -16.2883 C   0  0  0  0  0  0  0  0  0  0  0  0
   24.4532  -13.9893  -16.8575 C   0  0  0  0  0  0  0  0  0  0  0  0
   23.0443  -14.4728  -16.5955 C   0  0  2  0  0  0  0  0  0  0  0  0
   22.8714  -15.7336  -17.2487 N   0  0  0  0  0  0  0  0  0  0  0  0
   22.0291  -13.4620  -16.9460 C   0  0  0  0  0  0  0  0  0  0  0  0
   21.7113  -13.3259  -18.1557 O   0  0  0  0  0  0  0  0  0  0  0  0
   25.7184  -15.0651  -14.9517 C   0  0  0  0  0  0  0  0  0  0  0  0
   26.5759  -16.0071  -14.4501 C   0  0  0  0  0  0  0  0  0  0  0  0
   17.5628  -14.0077  -15.5361 C   0  0  0  0  0  0  0  0  0  0  0  0
   18.4172  -13.1735  -16.5033 C   0  0  0  0  0  0  0  0  0  0  0  0
   19.0363  -12.0082  -15.7899 C   0  0  2  0  0  0  0  0  0  0  0  0
   18.0011  -10.9122  -15.7239 C   0  0  0  0  0  0  0  0  0  0  0  0
   20.3413  -11.6497  -16.3541 C   0  0  2  0  0  0  0  0  0  0  0  0
   21.3793  -12.6281  -16.0299 N   0  0  0  0  0  0  0  0  0  0  0  0
   20.8805  -10.3470  -15.9224 C   0  0  0  0  0  0  0  0  0  0  0  0
   21.4597  -10.2167  -14.7758 O   0  0  0  0  0  0  0  0  0  0  0  0
   23.1760   -3.1347  -17.9557 C   0  0  0  0  0  0  0  0  0  0  0  0
   22.3794   -4.6910  -18.4674 S   0  0  0  0  0  0  0  0  0  0  0  0
   22.0538   -5.6536  -16.9605 C   0  0  0  0  0  0  0  0  0  0  0  0
   21.4995   -6.9712  -17.3591 C   0  0  0  0  0  0  0  0  0  0  0  0
   21.3894   -7.8827  -16.1566 C   0  0  2  0  0  0  0  0  0  0  0  0
   20.8415   -9.1438  -16.6691 N   0  0  0  0  0  0  0  0  0  0  0  0
   20.4590   -7.3365  -15.1535 C   0  0  0  0  0  0  0  0  0  0  0  0
   19.2181   -7.3979  -15.3363 O   0  0  0  0  0  0  0  0  0  0  0  0
   20.8760   -6.7409  -13.9808 O   0  0  0  0  0  0  0  0  0  0  0  0
  2  1  1  0
  3  2  2  0
  4  3  1  0
  5 11  1  0
  5  4  2  0
  6  5  1  0
  7  9  1  0
  7  6  1  0
  7  8  1  6
  9 10  2  0
 11 12  2  0
 12  2  1  0
 14 13  1  0
 15 16  1  6
 15 14  1  0
 15 17  1  0
 17 18  1  1
 18  9  1  0
 19 26  1  0
 19 17  1  0
 20 19  2  0
 22 23  1  0
 22 21  1  0
 23 24  1  0
 25 24  1  6
 25 26  1  0
 25 27  1  0
 27 29  1  0
 28 27  2  0
M  END
$$$$
