YIM.pdb
     RDKit          3D

 29 29  0  0  1  0  0  0  0  0999 V2000
   29.5484  -22.3099  -19.4052 O   0  0  0  0  0  0  0  0  0  0  0  0
   29.0151  -21.6626  -18.2880 C   0  0  0  0  0  0  0  0  0  0  0  0
   28.7649  -22.3316  -17.1088 C   0  0  0  0  0  0  0  0  0  0  0  0
   28.2389  -21.6714  -16.0217 C   0  0  0  0  0  0  0  0  0  0  0  0
   27.9383  -20.3142  -16.0604 C   0  0  0  0  0  0  0  0  0  0  0  0
   27.3741  -19.6371  -14.8649 C   0  0  0  0  0  0  0  0  0  0  0  0
   26.0251  -20.2613  -14.5861 C   0  0  2  0  0  0  0  0  0  0  0  0
   25.1465  -19.9386  -15.6678 N   0  0  0  0  0  0  0  0  0  0  0  0
   25.5053  -19.9035  -13.2530 C   0  0  0  0  0  0  0  0  0  0  0  0
   25.2113  -18.7012  -13.0270 O   0  0  0  0  0  0  0  0  0  0  0  0
   28.1998  -19.6731  -17.2539 C   0  0  0  0  0  0  0  0  0  0  0  0
   28.7228  -20.3188  -18.3419 C   0  0  0  0  0  0  0  0  0  0  0  0
   21.0307  -20.8712  -11.6147 C   0  0  0  0  0  0  0  0  0  0  0  0
   22.4577  -20.3196  -11.7596 C   0  0  0  0  0  0  0  0  0  0  0  0
   23.3671  -20.9332  -10.7366 C   0  0  2  0  0  0  0  0  0  0  0  0
   22.7312  -20.7322   -9.3829 C   0  0  0  0  0  0  0  0  0  0  0  0
   24.7520  -20.4764  -10.8891 C   0  0  2  0  0  0  0  0  0  0  0  0
   25.3085  -20.8049  -12.2015 N   0  0  0  0  0  0  0  0  0  0  0  0
   25.7091  -21.0214   -9.9088 C   0  0  0  0  0  0  0  0  0  0  0  0
   26.0240  -22.2735   -9.9156 O   0  0  0  0  0  0  0  0  0  0  0  0
   28.3730  -17.4006   -5.4762 C   0  0  0  0  0  0  0  0  0  0  0  0
   29.0131  -18.9677   -4.8031 S   0  0  0  0  0  0  0  0  0  0  0  0
   28.1191  -20.3173   -5.6295 C   0  0  0  0  0  0  0  0  0  0  0  0
   27.5827  -19.8036   -6.9143 C   0  0  0  0  0  0  0  0  0  0  0  0
   26.8982  -20.9134   -7.6814 C   0  0  2  0  0  0  0  0  0  0  0  0
   26.3728  -20.2833   -8.8981 N   0  0  0  0  0  0  0  0  0  0  0  0
   25.7719  -21.4773   -6.9175 C   0  0  0  0  0  0  0  0  0  0  0  0
   24.6263  -20.9703   -7.0048 O   0  0  0  0  0  0  0  0  0  0  0  0
   25.8961  -22.5683   -6.0818 O   0  0  0  0  0  0  0  0  0  0  0  0
  2  1  1  0
  3  2  2  0
  4  3  1  0
  5 11  1  0
  5  4  2  0
  6  5  1  0
  7  9  1  0
  7  6  1  0
  7  8  1  6
  9 10  2  0
 11 12  2  0
 12  2  1  0
 14 13  1  0
 15 16  1  1
 15 14  1  0
 15 17  1  0
 17 18  1  6
 18  9  1  0
 19 26  1  0
 19 17  1  0
 20 19  2  0
 22 23  1  0
 22 21  1  0
 23 24  1  0
 25 24  1  1
 25 26  1  0
 25 27  1  0
 27 29  1  0
 28 27  2  0
M  END
$$$$
