YIM.pdb
     RDKit          3D

 29 29  0  0  1  0  0  0  0  0999 V2000
   24.1477  -14.4390  -19.6012 O   0  0  0  0  0  0  0  0  0  0  0  0
   23.7360  -15.4870  -18.7744 C   0  0  0  0  0  0  0  0  0  0  0  0
   23.2235  -16.6602  -19.2859 C   0  0  0  0  0  0  0  0  0  0  0  0
   22.8246  -17.6786  -18.4503 C   0  0  0  0  0  0  0  0  0  0  0  0
   22.9182  -17.5740  -17.0668 C   0  0  0  0  0  0  0  0  0  0  0  0
   22.4796  -18.6965  -16.1988 C   0  0  0  0  0  0  0  0  0  0  0  0
   23.7112  -19.2481  -15.5159 C   0  0  2  0  0  0  0  0  0  0  0  0
   24.5970  -19.7506  -16.5205 N   0  0  0  0  0  0  0  0  0  0  0  0
   23.3788  -20.2196  -14.4571 C   0  0  0  0  0  0  0  0  0  0  0  0
   23.1911  -21.4203  -14.7825 O   0  0  0  0  0  0  0  0  0  0  0  0
   23.4349  -16.3883  -16.5860 C   0  0  0  0  0  0  0  0  0  0  0  0
   23.8350  -15.3683  -17.4069 C   0  0  0  0  0  0  0  0  0  0  0  0
   25.7176  -20.1873   -9.5741 C   0  0  0  0  0  0  0  0  0  0  0  0
   25.0474  -20.6636  -10.8723 C   0  0  0  0  0  0  0  0  0  0  0  0
   23.5553  -20.5515  -10.7680 C   0  0  2  0  0  0  0  0  0  0  0  0
   23.1209  -21.3559   -9.5673 C   0  0  0  0  0  0  0  0  0  0  0  0
   22.8918  -20.8547  -12.0399 C   0  0  2  0  0  0  0  0  0  0  0  0
   23.2530  -19.9118  -13.0984 N   0  0  0  0  0  0  0  0  0  0  0  0
   21.4179  -20.8549  -12.0000 C   0  0  0  0  0  0  0  0  0  0  0  0
   20.7619  -19.7742  -11.7379 O   0  0  0  0  0  0  0  0  0  0  0  0
   17.4747  -25.7080  -14.0481 C   0  0  0  0  0  0  0  0  0  0  0  0
   16.5728  -24.1614  -14.3842 S   0  0  0  0  0  0  0  0  0  0  0  0
   17.1239  -22.9362  -13.1601 C   0  0  0  0  0  0  0  0  0  0  0  0
   18.6069  -22.8894  -13.1818 C   0  0  0  0  0  0  0  0  0  0  0  0
   19.1180  -21.8886  -12.1688 C   0  0  2  0  0  0  0  0  0  0  0  0
   20.5813  -21.9732  -12.2374 N   0  0  0  0  0  0  0  0  0  0  0  0
   18.6879  -22.2401  -10.8044 C   0  0  0  0  0  0  0  0  0  0  0  0
   19.3374  -23.0750  -10.1275 O   0  0  0  0  0  0  0  0  0  0  0  0
   17.5778  -21.6906  -10.1964 O   0  0  0  0  0  0  0  0  0  0  0  0
  2  1  1  0
  3  2  2  0
  4  3  1  0
  5 11  1  0
  5  4  2  0
  6  5  1  0
  7  9  1  0
  7  6  1  0
  7  8  1  6
  9 10  2  0
 11 12  2  0
 12  2  1  0
 14 13  1  0
 15 16  1  1
 15 14  1  0
 15 17  1  0
 17 18  1  6
 18  9  1  0
 19 26  1  0
 19 17  1  0
 20 19  2  0
 22 23  1  0
 22 21  1  0
 23 24  1  0
 25 24  1  6
 25 26  1  0
 25 27  1  0
 27 29  1  0
 28 27  2  0
M  END
$$$$
