YIM.pdb
     RDKit          3D

 29 29  0  0  1  0  0  0  0  0999 V2000
   30.1718  -16.3421  -18.6042 O   0  0  0  0  0  0  0  0  0  0  0  0
   29.2874  -17.1437  -17.8784 C   0  0  0  0  0  0  0  0  0  0  0  0
   28.7868  -16.7529  -16.6547 C   0  0  0  0  0  0  0  0  0  0  0  0
   27.9164  -17.5607  -15.9586 C   0  0  0  0  0  0  0  0  0  0  0  0
   27.5054  -18.7947  -16.4505 C   0  0  0  0  0  0  0  0  0  0  0  0
   26.5625  -19.6363  -15.6704 C   0  0  0  0  0  0  0  0  0  0  0  0
   27.3833  -20.4491  -14.6941 C   0  0  2  0  0  0  0  0  0  0  0  0
   28.2060  -21.3519  -15.4387 N   0  0  0  0  0  0  0  0  0  0  0  0
   26.5511  -21.0951  -13.6620 C   0  0  0  0  0  0  0  0  0  0  0  0
   25.9978  -22.1909  -13.9372 O   0  0  0  0  0  0  0  0  0  0  0  0
   28.0235  -19.1572  -17.6769 C   0  0  0  0  0  0  0  0  0  0  0  0
   28.8898  -18.3626  -18.3786 C   0  0  0  0  0  0  0  0  0  0  0  0
   27.1853  -20.3856   -8.2191 C   0  0  0  0  0  0  0  0  0  0  0  0
   26.8325  -21.0941   -9.5363 C   0  0  0  0  0  0  0  0  0  0  0  0
   25.5301  -20.5837  -10.0778 C   0  0  2  0  0  0  0  0  0  0  0  0
   24.4598  -20.8977   -9.0614 C   0  0  0  0  0  0  0  0  0  0  0  0
   25.2901  -21.0396  -11.4505 C   0  0  2  0  0  0  0  0  0  0  0  0
   26.3222  -20.5821  -12.3809 N   0  0  0  0  0  0  0  0  0  0  0  0
   24.0094  -20.6131  -12.0437 C   0  0  0  0  0  0  0  0  0  0  0  0
   23.9585  -19.6195  -12.8667 O   0  0  0  0  0  0  0  0  0  0  0  0
   22.3790  -21.2273  -16.8998 C   0  0  0  0  0  0  0  0  0  0  0  0
   20.6921  -21.6907  -16.3918 S   0  0  0  0  0  0  0  0  0  0  0  0
   20.4421  -21.0606  -14.7054 C   0  0  0  0  0  0  0  0  0  0  0  0
   21.6566  -21.3649  -13.9087 C   0  0  0  0  0  0  0  0  0  0  0  0
   21.5328  -20.7861  -12.5164 C   0  0  2  0  0  0  0  0  0  0  0  0
   22.7459  -21.2082  -11.8067 N   0  0  0  0  0  0  0  0  0  0  0  0
   20.3595  -21.3311  -11.8118 C   0  0  0  0  0  0  0  0  0  0  0  0
   19.3168  -20.6428  -11.6850 O   0  0  0  0  0  0  0  0  0  0  0  0
   20.3279  -22.5965  -11.2625 O   0  0  0  0  0  0  0  0  0  0  0  0
  2  1  1  0
  3  2  2  0
  4  3  1  0
  5 11  1  0
  5  4  2  0
  6  5  1  0
  7  9  1  0
  7  6  1  0
  7  8  1  6
  9 10  2  0
 11 12  2  0
 12  2  1  0
 14 13  1  0
 15 16  1  1
 15 14  1  0
 15 17  1  0
 17 18  1  6
 18  9  1  0
 19 26  1  0
 19 17  1  0
 20 19  2  0
 22 23  1  0
 22 21  1  0
 23 24  1  0
 25 24  1  6
 25 26  1  0
 25 27  1  0
 27 29  1  0
 28 27  2  0
M  END
$$$$
