HRN.pdb
     RDKit          3D

 30 30  0  0  1  0  0  0  0  0999 V2000
    6.3785  -15.9498   26.0755 N   0  0  0  0  0  0  0  0  0  0  0  0
    7.1160  -15.3525   24.9966 C   0  0  1  0  0  0  0  0  0  0  0  0
    8.0529  -14.2773   25.5002 C   0  0  0  0  0  0  0  0  0  0  0  0
    7.2501  -13.1861   26.0679 C   0  0  0  0  0  0  0  0  0  0  0  0
    6.2378  -12.4691   25.4735 C   0  0  0  0  0  0  0  0  0  0  0  0
    5.7512  -11.5510   26.3274 N   0  0  0  0  0  0  0  0  0  0  0  0
    6.4580  -11.6945   27.4522 C   0  0  0  0  0  0  0  0  0  0  0  0
    7.3673  -12.6754   27.3168 N   0  0  0  0  0  0  0  0  0  0  0  0
    7.9754  -16.3620   24.2914 C   0  0  0  0  0  0  0  0  0  0  0  0
    8.3472  -17.3827   24.9062 O   0  0  0  0  0  0  0  0  0  0  0  0
    8.2785  -14.6609   16.9684 N   0  0  0  0  0  0  0  0  0  0  0  0
    8.9117  -13.6558   17.7396 C   0  0  0  0  0  0  0  0  0  0  0  0
    8.7313  -12.4078   17.5184 N   0  0  0  0  0  0  0  0  0  0  0  0
    9.7822  -14.0394   18.8016 N   0  0  0  0  0  0  0  0  0  0  0  0
   10.1270  -15.4339   18.9688 C   0  0  0  0  0  0  0  0  0  0  0  0
   10.1721  -15.6980   20.4805 C   0  0  0  0  0  0  0  0  0  0  0  0
    9.2587  -16.8328   20.8238 C   0  0  0  0  0  0  0  0  0  0  0  0
    9.1687  -17.1966   22.2681 C   0  0  2  0  0  0  0  0  0  0  0  0
    8.3618  -16.1749   22.9639 N   0  0  0  0  0  0  0  0  0  0  0  0
   10.4785  -17.2463   22.9024 C   0  0  0  0  0  0  0  0  0  0  0  0
   11.0072  -16.1819   23.3153 O   0  0  0  0  0  0  0  0  0  0  0  0
    9.2178  -11.7020   18.0970 N   0  0  0  0  0  0  0  0  0  0  0  0
   10.4427  -20.1818   25.8802 C   0  0  0  0  0  0  0  0  0  0  0  0
   11.6617  -19.4467   25.8187 O   0  0  0  0  0  0  0  0  0  0  0  0
   11.8855  -18.6577   26.7711 C   0  0  0  0  0  0  0  0  0  0  0  0
   12.6263  -19.5846   24.7100 C   0  0  2  0  0  0  0  0  0  0  0  0
   12.5252  -18.4487   23.6964 N   0  0  0  0  0  0  0  0  0  0  0  0
   11.1916  -18.4580   23.0881 C   0  0  0  0  0  0  0  0  0  0  0  0
   13.5367  -18.5932   22.6508 O   0  0  0  0  0  0  0  0  0  0  0  0
   13.2392  -18.7620   21.4290 O   0  0  0  0  0  0  0  0  0  0  0  0
  2  1  1  1
  2  3  1  0
  3  4  1  0
  4  8  1  0
  5  6  1  0
  5  4  2  0
  6  7  1  0
  7  8  2  0
  9  2  1  0
  9 10  2  0
 12 11  1  0
 13 12  2  0
 14 12  1  0
 15 14  1  0
 15 16  1  0
 17 16  1  0
 18 17  1  6
 18 19  1  0
 19  9  1  0
 20 18  1  0
 21 20  2  0
 23 24  2  0
 23 22  1  0
 26 25  1  1
 25 23  1  0
 26 27  1  0
 27 20  1  0
 28 26  1  0
 29 28  2  0
 30 28  1  0
M  END
$$$$
