HRN.pdb
     RDKit          3D

 30 30  0  0  1  0  0  0  0  0999 V2000
   13.5840  -14.0019   18.8047 N   0  0  0  0  0  0  0  0  0  0  0  0
   12.5581  -14.9959   18.9599 C   0  0  1  0  0  0  0  0  0  0  0  0
   13.1447  -16.3893   19.0013 C   0  0  0  0  0  0  0  0  0  0  0  0
   13.6487  -16.7242   17.6629 C   0  0  0  0  0  0  0  0  0  0  0  0
   13.6647  -15.9399   16.5330 C   0  0  0  0  0  0  0  0  0  0  0  0
   14.2113  -16.6125   15.5045 N   0  0  0  0  0  0  0  0  0  0  0  0
   14.5357  -17.8138   15.9912 C   0  0  0  0  0  0  0  0  0  0  0  0
   14.2048  -17.9020   17.2913 N   0  0  0  0  0  0  0  0  0  0  0  0
   11.8085  -14.8172   20.2488 C   0  0  0  0  0  0  0  0  0  0  0  0
   12.4422  -14.5581   21.2925 O   0  0  0  0  0  0  0  0  0  0  0  0
    7.4525  -13.1485   16.2820 N   0  0  0  0  0  0  0  0  0  0  0  0
    8.6088  -13.6899   16.8952 C   0  0  0  0  0  0  0  0  0  0  0  0
    9.4616  -14.3922   16.2482 N   0  0  0  0  0  0  0  0  0  0  0  0
    8.8381  -13.4488   18.2816 N   0  0  0  0  0  0  0  0  0  0  0  0
    7.7283  -13.0771   19.1309 C   0  0  0  0  0  0  0  0  0  0  0  0
    8.3007  -12.8792   20.5416 C   0  0  0  0  0  0  0  0  0  0  0  0
    8.3389  -14.1909   21.2612 C   0  0  0  0  0  0  0  0  0  0  0  0
    9.6926  -14.7404   21.5647 C   0  0  2  0  0  0  0  0  0  0  0  0
   10.4191  -14.9364   20.2946 N   0  0  0  0  0  0  0  0  0  0  0  0
    9.6215  -16.0249   22.2469 C   0  0  0  0  0  0  0  0  0  0  0  0
    9.4276  -17.0718   21.5767 O   0  0  0  0  0  0  0  0  0  0  0  0
   10.2701  -14.8102   16.7394 N   0  0  0  0  0  0  0  0  0  0  0  0
   13.4583  -18.9533   24.9448 C   0  0  0  0  0  0  0  0  0  0  0  0
   12.2255  -18.9533   24.2305 O   0  0  0  0  0  0  0  0  0  0  0  0
   11.6493  -20.0641   24.1131 C   0  0  0  0  0  0  0  0  0  0  0  0
   11.6348  -17.7313   23.6503 C   0  0  2  0  0  0  0  0  0  0  0  0
   10.2630  -17.4058   24.2334 N   0  0  0  0  0  0  0  0  0  0  0  0
    9.7728  -16.1531   23.6511 C   0  0  0  0  0  0  0  0  0  0  0  0
   10.3348  -17.2700   25.6873 O   0  0  0  0  0  0  0  0  0  0  0  0
   10.6904  -18.2218   26.4471 O   0  0  0  0  0  0  0  0  0  0  0  0
  2  1  1  1
  2  3  1  0
  3  4  1  0
  4  8  1  0
  5  6  1  0
  5  4  2  0
  6  7  1  0
  7  8  2  0
  9  2  1  0
  9 10  2  0
 12 11  1  0
 13 12  2  0
 14 12  1  0
 15 14  1  0
 15 16  1  0
 17 16  1  0
 18 17  1  6
 18 19  1  0
 19  9  1  0
 20 18  1  0
 21 20  2  0
 23 24  2  0
 23 22  1  0
 26 25  1  6
 25 23  1  0
 26 27  1  0
 27 20  1  0
 28 26  1  0
 29 28  2  0
 30 28  1  0
M  END
$$$$
