HRN.pdb
     RDKit          3D

 30 30  0  0  1  0  0  0  0  0999 V2000
    6.4128  -20.1733   23.1810 N   0  0  0  0  0  0  0  0  0  0  0  0
    6.1562  -18.7637   23.0725 C   0  0  1  0  0  0  0  0  0  0  0  0
    5.5999  -18.2054   24.3634 C   0  0  0  0  0  0  0  0  0  0  0  0
    6.4096  -18.7122   25.4792 C   0  0  0  0  0  0  0  0  0  0  0  0
    7.3543  -18.0451   26.2238 C   0  0  0  0  0  0  0  0  0  0  0  0
    7.8750  -18.8607   27.1580 N   0  0  0  0  0  0  0  0  0  0  0  0
    7.2567  -20.0342   26.9969 C   0  0  0  0  0  0  0  0  0  0  0  0
    6.3689  -19.9661   25.9896 N   0  0  0  0  0  0  0  0  0  0  0  0
    7.4147  -17.9948   22.7901 C   0  0  0  0  0  0  0  0  0  0  0  0
    8.5168  -18.5740   22.8795 O   0  0  0  0  0  0  0  0  0  0  0  0
    9.1801  -13.8774   17.4816 N   0  0  0  0  0  0  0  0  0  0  0  0
    7.8185  -13.6111   17.1970 C   0  0  0  0  0  0  0  0  0  0  0  0
    7.3652  -13.5666   16.0005 N   0  0  0  0  0  0  0  0  0  0  0  0
    6.9143  -13.3836   18.2757 N   0  0  0  0  0  0  0  0  0  0  0  0
    7.4321  -13.2418   19.6185 C   0  0  0  0  0  0  0  0  0  0  0  0
    7.8000  -14.6526   20.0995 C   0  0  0  0  0  0  0  0  0  0  0  0
    8.2599  -14.5985   21.5227 C   0  0  0  0  0  0  0  0  0  0  0  0
    8.6131  -15.9034   22.1544 C   0  0  2  0  0  0  0  0  0  0  0  0
    7.3684  -16.6475   22.4304 N   0  0  0  0  0  0  0  0  0  0  0  0
    9.3226  -15.7273   23.4138 C   0  0  0  0  0  0  0  0  0  0  0  0
    8.6677  -15.5588   24.4748 O   0  0  0  0  0  0  0  0  0  0  0  0
    6.3825  -13.2950   15.8269 N   0  0  0  0  0  0  0  0  0  0  0  0
   12.3566  -19.8688   25.4343 C   0  0  0  0  0  0  0  0  0  0  0  0
   11.5929  -18.6933   25.6899 O   0  0  0  0  0  0  0  0  0  0  0  0
   11.4895  -18.3466   26.8935 C   0  0  0  0  0  0  0  0  0  0  0  0
   10.9484  -17.9073   24.6197 C   0  0  2  0  0  0  0  0  0  0  0  0
   11.4027  -16.4509   24.6031 N   0  0  0  0  0  0  0  0  0  0  0  0
   10.7378  -15.7474   23.5023 C   0  0  0  0  0  0  0  0  0  0  0  0
   12.8518  -16.3601   24.4324 O   0  0  0  0  0  0  0  0  0  0  0  0
   13.4251  -16.5766   23.3215 O   0  0  0  0  0  0  0  0  0  0  0  0
  2  1  1  1
  2  3  1  0
  3  4  1  0
  4  8  1  0
  5  6  1  0
  5  4  2  0
  6  7  1  0
  7  8  2  0
  9  2  1  0
  9 10  2  0
 12 11  1  0
 13 12  2  0
 14 12  1  0
 15 14  1  0
 15 16  1  0
 17 16  1  0
 18 17  1  1
 18 19  1  0
 19  9  1  0
 20 18  1  0
 21 20  2  0
 23 24  2  0
 23 22  1  0
 26 25  1  1
 25 23  1  0
 26 27  1  0
 27 20  1  0
 28 26  1  0
 29 28  2  0
 30 28  1  0
M  END
$$$$
