HRN.pdb
     RDKit          3D

 30 30  0  0  1  0  0  0  0  0999 V2000
   11.6768  -15.4345   12.8992 N   0  0  0  0  0  0  0  0  0  0  0  0
   12.5854  -16.2441   13.6633 C   0  0  1  0  0  0  0  0  0  0  0  0
   14.0231  -15.8588   13.3954 C   0  0  0  0  0  0  0  0  0  0  0  0
   14.4481  -16.4849   12.1365 C   0  0  0  0  0  0  0  0  0  0  0  0
   14.1772  -16.0866   10.8481 C   0  0  0  0  0  0  0  0  0  0  0  0
   14.7487  -16.9285    9.9684 N   0  0  0  0  0  0  0  0  0  0  0  0
   15.3748  -17.8500   10.7059 C   0  0  0  0  0  0  0  0  0  0  0  0
   15.2060  -17.6009   12.0163 N   0  0  0  0  0  0  0  0  0  0  0  0
   12.3715  -16.0690   15.1393 C   0  0  0  0  0  0  0  0  0  0  0  0
   12.1774  -14.9236   15.5960 O   0  0  0  0  0  0  0  0  0  0  0  0
   10.5341  -21.7368   21.5934 N   0  0  0  0  0  0  0  0  0  0  0  0
   10.5465  -20.3911   22.0347 C   0  0  0  0  0  0  0  0  0  0  0  0
   11.0258  -20.0477   23.1711 N   0  0  0  0  0  0  0  0  0  0  0  0
   10.0078  -19.3772   21.1893 N   0  0  0  0  0  0  0  0  0  0  0  0
   10.2592  -19.4314   19.7663 C   0  0  0  0  0  0  0  0  0  0  0  0
   11.1180  -18.2057   19.4241 C   0  0  0  0  0  0  0  0  0  0  0  0
   11.3497  -18.1461   17.9467 C   0  0  0  0  0  0  0  0  0  0  0  0
   12.1398  -16.9832   17.4468 C   0  0  2  0  0  0  0  0  0  0  0  0
   12.3865  -17.1648   16.0027 N   0  0  0  0  0  0  0  0  0  0  0  0
   13.4290  -16.8701   18.1143 C   0  0  0  0  0  0  0  0  0  0  0  0
   14.3578  -17.6602   17.8047 O   0  0  0  0  0  0  0  0  0  0  0  0
   11.0354  -19.0523   23.4516 N   0  0  0  0  0  0  0  0  0  0  0  0
   17.4083  -13.0117   20.7621 C   0  0  0  0  0  0  0  0  0  0  0  0
   16.8115  -14.2706   20.4633 O   0  0  0  0  0  0  0  0  0  0  0  0
   17.4804  -15.2906   20.7665 C   0  0  0  0  0  0  0  0  0  0  0  0
   15.4830  -14.3990   19.8332 C   0  0  2  0  0  0  0  0  0  0  0  0
   14.9956  -15.8436   19.7747 N   0  0  0  0  0  0  0  0  0  0  0  0
   13.6928  -15.8897   19.1044 C   0  0  0  0  0  0  0  0  0  0  0  0
   14.8702  -16.4049   21.1188 O   0  0  0  0  0  0  0  0  0  0  0  0
   15.8129  -17.0343   21.6885 O   0  0  0  0  0  0  0  0  0  0  0  0
  2  1  1  6
  2  3  1  0
  3  4  1  0
  4  8  1  0
  5  6  1  0
  5  4  2  0
  6  7  1  0
  7  8  2  0
  9  2  1  0
  9 10  2  0
 12 11  1  0
 13 12  2  0
 14 12  1  0
 15 14  1  0
 15 16  1  0
 17 16  1  0
 18 17  1  1
 18 19  1  0
 19  9  1  0
 20 18  1  0
 21 20  2  0
 23 24  2  0
 23 22  1  0
 26 25  1  6
 25 23  1  0
 26 27  1  0
 27 20  1  0
 28 26  1  0
 29 28  2  0
 30 28  1  0
M  END
$$$$
