HRN.pdb
     RDKit          3D

 30 30  0  0  1  0  0  0  0  0999 V2000
    6.3642  -15.8651   26.0190 N   0  0  0  0  0  0  0  0  0  0  0  0
    6.9073  -14.8410   25.1699 C   0  0  1  0  0  0  0  0  0  0  0  0
    7.8586  -13.9441   25.9301 C   0  0  0  0  0  0  0  0  0  0  0  0
    7.0703  -12.9833   26.7130 C   0  0  0  0  0  0  0  0  0  0  0  0
    6.0148  -12.2040   26.3001 C   0  0  0  0  0  0  0  0  0  0  0  0
    5.5608  -11.4532   27.3195 N   0  0  0  0  0  0  0  0  0  0  0  0
    6.3311  -11.7632   28.3663 C   0  0  0  0  0  0  0  0  0  0  0  0
    7.2480  -12.6842   28.0219 N   0  0  0  0  0  0  0  0  0  0  0  0
    7.6984  -15.4276   24.0362 C   0  0  0  0  0  0  0  0  0  0  0  0
    8.1557  -16.5839   24.1453 O   0  0  0  0  0  0  0  0  0  0  0  0
    7.7799  -14.1771   15.7771 N   0  0  0  0  0  0  0  0  0  0  0  0
    8.8771  -14.2647   16.6684 C   0  0  0  0  0  0  0  0  0  0  0  0
   10.0762  -14.4537   16.2615 N   0  0  0  0  0  0  0  0  0  0  0  0
    8.6463  -14.1391   18.0697 N   0  0  0  0  0  0  0  0  0  0  0  0
    7.2964  -14.2385   18.5788 C   0  0  0  0  0  0  0  0  0  0  0  0
    7.3689  -13.9316   20.0814 C   0  0  0  0  0  0  0  0  0  0  0  0
    8.7084  -14.3316   20.6158 C   0  0  0  0  0  0  0  0  0  0  0  0
    8.7056  -15.2893   21.7601 C   0  0  2  0  0  0  0  0  0  0  0  0
    7.9277  -14.7003   22.8679 N   0  0  0  0  0  0  0  0  0  0  0  0
   10.0501  -15.5627   22.2480 C   0  0  0  0  0  0  0  0  0  0  0  0
   10.2443  -15.6994   23.4836 O   0  0  0  0  0  0  0  0  0  0  0  0
   10.8412  -14.5892   16.9442 N   0  0  0  0  0  0  0  0  0  0  0  0
   14.3236  -18.3570   22.5943 C   0  0  0  0  0  0  0  0  0  0  0  0
   13.0019  -18.8348   22.3595 O   0  0  0  0  0  0  0  0  0  0  0  0
   12.8245  -20.0719   22.4926 C   0  0  0  0  0  0  0  0  0  0  0  0
   11.8843  -17.9484   21.9799 C   0  0  1  0  0  0  0  0  0  0  0  0
   12.3225  -16.5009   21.7785 N   0  0  0  0  0  0  0  0  0  0  0  0
   11.1649  -15.6940   21.3815 C   0  0  0  0  0  0  0  0  0  0  0  0
   13.3550  -16.4089   20.7475 O   0  0  0  0  0  0  0  0  0  0  0  0
   13.3970  -17.1904   19.7490 O   0  0  0  0  0  0  0  0  0  0  0  0
  2  1  1  1
  2  3  1  0
  3  4  1  0
  4  8  1  0
  5  6  1  0
  5  4  2  0
  6  7  1  0
  7  8  2  0
  9  2  1  0
  9 10  2  0
 12 11  1  0
 13 12  2  0
 14 12  1  0
 15 14  1  0
 15 16  1  0
 17 16  1  0
 18 17  1  6
 18 19  1  0
 19  9  1  0
 20 18  1  0
 21 20  2  0
 23 24  2  0
 23 22  1  0
 26 25  1  1
 25 23  1  0
 26 27  1  0
 27 20  1  0
 28 26  1  0
 29 28  2  0
 30 28  1  0
M  END
$$$$
