HRN.pdb
     RDKit          3D

 30 30  0  0  1  0  0  0  0  0999 V2000
    7.2322  -18.2805   26.8853 N   0  0  0  0  0  0  0  0  0  0  0  0
    7.7626  -17.0522   26.3613 C   0  0  1  0  0  0  0  0  0  0  0  0
    8.9737  -16.5978   27.1450 C   0  0  0  0  0  0  0  0  0  0  0  0
    8.7152  -15.2483   27.6643 C   0  0  0  0  0  0  0  0  0  0  0  0
    7.6215  -14.4427   27.4480 C   0  0  0  0  0  0  0  0  0  0  0  0
    7.7636  -13.2758   28.1016 N   0  0  0  0  0  0  0  0  0  0  0  0
    8.9432  -13.3529   28.7244 C   0  0  0  0  0  0  0  0  0  0  0  0
    9.5335  -14.5345   28.4737 N   0  0  0  0  0  0  0  0  0  0  0  0
    8.2179  -17.2110   24.9391 C   0  0  0  0  0  0  0  0  0  0  0  0
    8.6577  -18.3156   24.5590 O   0  0  0  0  0  0  0  0  0  0  0  0
    6.8383  -12.3366   17.6314 N   0  0  0  0  0  0  0  0  0  0  0  0
    7.7167  -13.3795   17.2483 C   0  0  0  0  0  0  0  0  0  0  0  0
    7.9532  -13.6593   16.0216 N   0  0  0  0  0  0  0  0  0  0  0  0
    8.3642  -14.1495   18.2586 N   0  0  0  0  0  0  0  0  0  0  0  0
    7.8632  -14.1069   19.6145 C   0  0  0  0  0  0  0  0  0  0  0  0
    8.6426  -15.1672   20.4052 C   0  0  0  0  0  0  0  0  0  0  0  0
    8.1243  -15.2357   21.8075 C   0  0  0  0  0  0  0  0  0  0  0  0
    8.7401  -16.2683   22.6913 C   0  0  2  0  0  0  0  0  0  0  0  0
    8.1557  -16.1449   24.0413 N   0  0  0  0  0  0  0  0  0  0  0  0
   10.1820  -16.1004   22.8065 C   0  0  0  0  0  0  0  0  0  0  0  0
   10.6980  -15.9433   23.9432 O   0  0  0  0  0  0  0  0  0  0  0  0
    8.6047  -14.4252   15.7796 N   0  0  0  0  0  0  0  0  0  0  0  0
   14.8688  -16.1813   23.4279 C   0  0  0  0  0  0  0  0  0  0  0  0
   14.0468  -17.3437   23.4854 O   0  0  0  0  0  0  0  0  0  0  0  0
   14.4551  -18.2794   24.2185 C   0  0  0  0  0  0  0  0  0  0  0  0
   12.7813  -17.4689   22.7361 C   0  0  2  0  0  0  0  0  0  0  0  0
   12.4934  -16.2544   21.8587 N   0  0  0  0  0  0  0  0  0  0  0  0
   11.0449  -16.1161   21.6813 C   0  0  0  0  0  0  0  0  0  0  0  0
   13.1315  -16.3948   20.5508 O   0  0  0  0  0  0  0  0  0  0  0  0
   12.6525  -17.1245   19.6301 O   0  0  0  0  0  0  0  0  0  0  0  0
  2  1  1  1
  2  3  1  0
  3  4  1  0
  4  8  1  0
  5  6  1  0
  5  4  2  0
  6  7  1  0
  7  8  2  0
  9  2  1  0
  9 10  2  0
 12 11  1  0
 13 12  2  0
 14 12  1  0
 15 14  1  0
 15 16  1  0
 17 16  1  0
 18 17  1  6
 18 19  1  0
 19  9  1  0
 20 18  1  0
 21 20  2  0
 23 24  2  0
 23 22  1  0
 26 25  1  1
 25 23  1  0
 26 27  1  0
 27 20  1  0
 28 26  1  0
 29 28  2  0
 30 28  1  0
M  END
$$$$
