HRN.pdb
     RDKit          3D

 30 30  0  0  1  0  0  0  0  0999 V2000
    9.4361  -15.9542   16.9460 N   0  0  0  0  0  0  0  0  0  0  0  0
   10.0360  -14.9654   17.7987 C   0  0  1  0  0  0  0  0  0  0  0  0
    9.2228  -14.7584   19.0570 C   0  0  0  0  0  0  0  0  0  0  0  0
    8.0215  -13.9853   18.7153 C   0  0  0  0  0  0  0  0  0  0  0  0
    7.5789  -13.5956   17.4726 C   0  0  0  0  0  0  0  0  0  0  0  0
    6.4334  -12.8991   17.5813 N   0  0  0  0  0  0  0  0  0  0  0  0
    6.1617  -12.8541   18.8887 C   0  0  0  0  0  0  0  0  0  0  0  0
    7.1070  -13.5033   19.5904 N   0  0  0  0  0  0  0  0  0  0  0  0
   11.4063  -15.3838   18.2483 C   0  0  0  0  0  0  0  0  0  0  0  0
   11.6417  -16.5941   18.4427 O   0  0  0  0  0  0  0  0  0  0  0  0
   19.0141  -12.2809   15.8658 N   0  0  0  0  0  0  0  0  0  0  0  0
   19.0825  -12.1766   17.2767 C   0  0  0  0  0  0  0  0  0  0  0  0
   19.9931  -11.4997   17.8697 N   0  0  0  0  0  0  0  0  0  0  0  0
   18.1066  -12.8465   18.0715 N   0  0  0  0  0  0  0  0  0  0  0  0
   17.0892  -13.6443   17.4237 C   0  0  0  0  0  0  0  0  0  0  0  0
   16.2049  -14.2199   18.5390 C   0  0  0  0  0  0  0  0  0  0  0  0
   14.7654  -13.9422   18.2382 C   0  0  0  0  0  0  0  0  0  0  0  0
   13.7701  -14.8699   18.8507 C   0  0  2  0  0  0  0  0  0  0  0  0
   12.4153  -14.4416   18.4503 N   0  0  0  0  0  0  0  0  0  0  0  0
   13.8353  -14.8596   20.3053 C   0  0  0  0  0  0  0  0  0  0  0  0
   12.8493  -14.4426   20.9662 O   0  0  0  0  0  0  0  0  0  0  0  0
   20.0925  -11.5516   18.8978 N   0  0  0  0  0  0  0  0  0  0  0  0
   12.6379  -17.0128   24.8257 C   0  0  0  0  0  0  0  0  0  0  0  0
   13.7410  -17.3051   23.9725 O   0  0  0  0  0  0  0  0  0  0  0  0
   14.6487  -18.0239   24.4614 C   0  0  0  0  0  0  0  0  0  0  0  0
   13.8379  -16.8049   22.5872 C   0  0  1  0  0  0  0  0  0  0  0  0
   14.8588  -15.6811   22.4366 N   0  0  0  0  0  0  0  0  0  0  0  0
   14.9716  -15.3139   21.0220 C   0  0  0  0  0  0  0  0  0  0  0  0
   16.1682  -16.0977   22.9359 O   0  0  0  0  0  0  0  0  0  0  0  0
   16.4520  -16.1267   24.1722 O   0  0  0  0  0  0  0  0  0  0  0  0
  2  1  1  6
  2  3  1  0
  3  4  1  0
  4  8  1  0
  5  6  1  0
  5  4  2  0
  6  7  1  0
  7  8  2  0
  9  2  1  0
  9 10  2  0
 12 11  1  0
 13 12  2  0
 14 12  1  0
 15 14  1  0
 15 16  1  0
 17 16  1  0
 18 17  1  6
 18 19  1  0
 19  9  1  0
 20 18  1  0
 21 20  2  0
 23 24  2  0
 23 22  1  0
 26 25  1  1
 25 23  1  0
 26 27  1  0
 27 20  1  0
 28 26  1  0
 29 28  2  0
 30 28  1  0
M  END
$$$$
