HRN.pdb
     RDKit          3D

 30 30  0  0  1  0  0  0  0  0999 V2000
    7.9248  -17.2261   18.0747 N   0  0  0  0  0  0  0  0  0  0  0  0
    9.1381  -16.5922   18.5112 C   0  0  1  0  0  0  0  0  0  0  0  0
    8.8983  -15.7240   19.7262 C   0  0  0  0  0  0  0  0  0  0  0  0
    8.1678  -14.5214   19.3046 C   0  0  0  0  0  0  0  0  0  0  0  0
    7.7334  -14.1812   18.0446 C   0  0  0  0  0  0  0  0  0  0  0  0
    7.1013  -12.9944   18.0724 N   0  0  0  0  0  0  0  0  0  0  0  0
    7.1410  -12.5947   19.3467 C   0  0  0  0  0  0  0  0  0  0  0  0
    7.7798  -13.5013   20.1066 N   0  0  0  0  0  0  0  0  0  0  0  0
   10.1734  -17.6024   18.9144 C   0  0  0  0  0  0  0  0  0  0  0  0
    9.8088  -18.6688   19.4511 O   0  0  0  0  0  0  0  0  0  0  0  0
   16.9285  -22.5065   17.5150 N   0  0  0  0  0  0  0  0  0  0  0  0
   16.8294  -21.4548   16.5715 C   0  0  0  0  0  0  0  0  0  0  0  0
   16.8604  -21.6630   15.3087 N   0  0  0  0  0  0  0  0  0  0  0  0
   16.6901  -20.1143   17.0366 N   0  0  0  0  0  0  0  0  0  0  0  0
   15.4995  -19.3658   16.6998 C   0  0  0  0  0  0  0  0  0  0  0  0
   14.5273  -19.5325   17.8762 C   0  0  0  0  0  0  0  0  0  0  0  0
   13.5745  -18.3790   17.9133 C   0  0  0  0  0  0  0  0  0  0  0  0
   12.5280  -18.4185   18.9762 C   0  0  2  0  0  0  0  0  0  0  0  0
   11.5312  -17.3658   18.6979 N   0  0  0  0  0  0  0  0  0  0  0  0
   13.0834  -18.1755   20.3002 C   0  0  0  0  0  0  0  0  0  0  0  0
   13.4961  -17.0245   20.5966 O   0  0  0  0  0  0  0  0  0  0  0  0
   16.6791  -20.8868   14.6496 N   0  0  0  0  0  0  0  0  0  0  0  0
   10.4265  -19.9537   23.5881 C   0  0  0  0  0  0  0  0  0  0  0  0
   11.5975  -19.2144   23.9237 O   0  0  0  0  0  0  0  0  0  0  0  0
   11.4139  -18.0943   24.4633 C   0  0  0  0  0  0  0  0  0  0  0  0
   12.9623  -19.7124   23.6633 C   0  0  2  0  0  0  0  0  0  0  0  0
   13.7036  -18.8818   22.6200 N   0  0  0  0  0  0  0  0  0  0  0  0
   13.1726  -19.1886   21.2885 C   0  0  0  0  0  0  0  0  0  0  0  0
   15.1367  -19.1689   22.6491 O   0  0  0  0  0  0  0  0  0  0  0  0
   15.6843  -20.0014   21.8637 O   0  0  0  0  0  0  0  0  0  0  0  0
  2  1  1  1
  2  3  1  0
  3  4  1  0
  4  8  1  0
  5  6  1  0
  5  4  2  0
  6  7  1  0
  7  8  2  0
  9  2  1  0
  9 10  2  0
 12 11  1  0
 13 12  2  0
 14 12  1  0
 15 14  1  0
 15 16  1  0
 17 16  1  0
 18 17  1  6
 18 19  1  0
 19  9  1  0
 20 18  1  0
 21 20  2  0
 23 24  2  0
 23 22  1  0
 26 25  1  1
 25 23  1  0
 26 27  1  0
 27 20  1  0
 28 26  1  0
 29 28  2  0
 30 28  1  0
M  END
$$$$
