HRN.pdb
     RDKit          3D

 30 30  0  0  1  0  0  0  0  0999 V2000
    7.5448  -17.2967   20.5825 N   0  0  0  0  0  0  0  0  0  0  0  0
    8.4985  -16.3419   21.0759 C   0  0  1  0  0  0  0  0  0  0  0  0
    7.8126  -15.0976   21.5943 C   0  0  0  0  0  0  0  0  0  0  0  0
    7.8631  -14.0664   20.5495 C   0  0  0  0  0  0  0  0  0  0  0  0
    8.4153  -14.1476   19.2923 C   0  0  0  0  0  0  0  0  0  0  0  0
    8.2560  -12.9847   18.6355 N   0  0  0  0  0  0  0  0  0  0  0  0
    7.6060  -12.1796   19.4807 C   0  0  0  0  0  0  0  0  0  0  0  0
    7.3594  -12.8124   20.6409 N   0  0  0  0  0  0  0  0  0  0  0  0
    9.2884  -16.8964   22.2264 C   0  0  0  0  0  0  0  0  0  0  0  0
    8.7315  -17.6699   23.0324 O   0  0  0  0  0  0  0  0  0  0  0  0
   12.5738  -19.4574   18.9903 N   0  0  0  0  0  0  0  0  0  0  0  0
   13.4759  -20.3437   19.6279 C   0  0  0  0  0  0  0  0  0  0  0  0
   13.6035  -21.5660   19.2689 N   0  0  0  0  0  0  0  0  0  0  0  0
   14.2736  -19.8655   20.7085 N   0  0  0  0  0  0  0  0  0  0  0  0
   14.0470  -18.5331   21.2231 C   0  0  0  0  0  0  0  0  0  0  0  0
   13.1984  -18.6901   22.4928 C   0  0  0  0  0  0  0  0  0  0  0  0
   12.8270  -17.3410   23.0237 C   0  0  0  0  0  0  0  0  0  0  0  0
   11.4189  -17.1776   23.4897 C   0  0  2  0  0  0  0  0  0  0  0  0
   10.6305  -16.5599   22.4052 N   0  0  0  0  0  0  0  0  0  0  0  0
   11.3266  -16.3176   24.6612 C   0  0  0  0  0  0  0  0  0  0  0  0
   11.3234  -15.0682   24.5131 O   0  0  0  0  0  0  0  0  0  0  0  0
   14.3189  -22.1661   19.7136 N   0  0  0  0  0  0  0  0  0  0  0  0
   10.3343  -14.1965   29.2617 C   0  0  0  0  0  0  0  0  0  0  0  0
    9.4674  -14.2929   28.1349 O   0  0  0  0  0  0  0  0  0  0  0  0
    8.4326  -13.5802   28.1652 C   0  0  0  0  0  0  0  0  0  0  0  0
    9.7448  -15.1726   26.9826 C   0  0  1  0  0  0  0  0  0  0  0  0
   11.0659  -15.9235   27.1191 N   0  0  0  0  0  0  0  0  0  0  0  0
   11.2285  -16.8310   25.9795 C   0  0  0  0  0  0  0  0  0  0  0  0
   11.1006  -16.6933   28.3615 O   0  0  0  0  0  0  0  0  0  0  0  0
   10.7260  -17.9036   28.4276 O   0  0  0  0  0  0  0  0  0  0  0  0
  2  1  1  1
  2  3  1  0
  3  4  1  0
  4  8  1  0
  5  6  1  0
  5  4  2  0
  6  7  1  0
  7  8  2  0
  9  2  1  0
  9 10  2  0
 12 11  1  0
 13 12  2  0
 14 12  1  0
 15 14  1  0
 15 16  1  0
 17 16  1  0
 18 17  1  6
 18 19  1  0
 19  9  1  0
 20 18  1  0
 21 20  2  0
 23 24  2  0
 23 22  1  0
 26 25  1  6
 25 23  1  0
 26 27  1  0
 27 20  1  0
 28 26  1  0
 29 28  2  0
 30 28  1  0
M  END
$$$$
