HRN.pdb
     RDKit          3D

 30 30  0  0  1  0  0  0  0  0999 V2000
    4.5776  -20.2305   21.0065 N   0  0  0  0  0  0  0  0  0  0  0  0
    4.3962  -19.0319   21.7779 C   0  0  1  0  0  0  0  0  0  0  0  0
    3.4083  -19.2464   22.9028 C   0  0  0  0  0  0  0  0  0  0  0  0
    2.0908  -19.5326   22.3197 C   0  0  0  0  0  0  0  0  0  0  0  0
    1.6899  -19.4117   21.0095 C   0  0  0  0  0  0  0  0  0  0  0  0
    0.4007  -19.7725   20.8797 N   0  0  0  0  0  0  0  0  0  0  0  0
   -0.0021  -20.1179   22.1059 C   0  0  0  0  0  0  0  0  0  0  0  0
    1.0020  -19.9804   22.9893 N   0  0  0  0  0  0  0  0  0  0  0  0
    5.6790  -18.5927   22.4234 C   0  0  0  0  0  0  0  0  0  0  0  0
    6.5498  -19.4456   22.6927 O   0  0  0  0  0  0  0  0  0  0  0  0
    8.7867  -11.5058   20.5035 N   0  0  0  0  0  0  0  0  0  0  0  0
    8.7819  -12.5573   19.5547 C   0  0  0  0  0  0  0  0  0  0  0  0
    9.5828  -12.5820   18.5562 N   0  0  0  0  0  0  0  0  0  0  0  0
    7.8554  -13.6298   19.7101 N   0  0  0  0  0  0  0  0  0  0  0  0
    7.2441  -13.8589   21.0005 C   0  0  0  0  0  0  0  0  0  0  0  0
    8.0153  -15.0145   21.6539 C   0  0  0  0  0  0  0  0  0  0  0  0
    7.3896  -15.3616   22.9683 C   0  0  0  0  0  0  0  0  0  0  0  0
    7.2162  -16.8155   23.2557 C   0  0  2  0  0  0  0  0  0  0  0  0
    5.9092  -17.2500   22.7246 N   0  0  0  0  0  0  0  0  0  0  0  0
    7.2394  -17.0975   24.6841 C   0  0  0  0  0  0  0  0  0  0  0  0
    6.3023  -16.6804   25.4127 O   0  0  0  0  0  0  0  0  0  0  0  0
    9.5852  -13.3911   17.9119 N   0  0  0  0  0  0  0  0  0  0  0  0
    5.9767  -19.9729   27.3885 C   0  0  0  0  0  0  0  0  0  0  0  0
    7.2360  -20.2953   26.8051 O   0  0  0  0  0  0  0  0  0  0  0  0
    7.2579  -21.2946   26.0431 C   0  0  0  0  0  0  0  0  0  0  0  0
    8.4627  -19.5163   27.0639 C   0  0  2  0  0  0  0  0  0  0  0  0
    8.2949  -18.0322   26.7522 N   0  0  0  0  0  0  0  0  0  0  0  0
    8.2794  -17.8400   25.2990 C   0  0  0  0  0  0  0  0  0  0  0  0
    9.3863  -17.2522   27.3334 O   0  0  0  0  0  0  0  0  0  0  0  0
   10.2231  -16.6127   26.6259 O   0  0  0  0  0  0  0  0  0  0  0  0
  2  1  1  1
  2  3  1  0
  3  4  1  0
  4  8  1  0
  5  6  1  0
  5  4  2  0
  6  7  1  0
  7  8  2  0
  9  2  1  0
  9 10  2  0
 12 11  1  0
 13 12  2  0
 14 12  1  0
 15 14  1  0
 15 16  1  0
 17 16  1  0
 18 17  1  1
 18 19  1  0
 19  9  1  0
 20 18  1  0
 21 20  2  0
 23 24  2  0
 23 22  1  0
 26 25  1  6
 25 23  1  0
 26 27  1  0
 27 20  1  0
 28 26  1  0
 29 28  2  0
 30 28  1  0
M  END
$$$$
