HRN.pdb
     RDKit          3D

 30 30  0  0  1  0  0  0  0  0999 V2000
    9.1610  -15.5194   19.8309 N   0  0  0  0  0  0  0  0  0  0  0  0
    8.0964  -14.6560   20.2621 C   0  0  1  0  0  0  0  0  0  0  0  0
    6.9603  -14.6437   19.2639 C   0  0  0  0  0  0  0  0  0  0  0  0
    7.4809  -14.1867   17.9686 C   0  0  0  0  0  0  0  0  0  0  0  0
    8.7704  -13.8401   17.6384 C   0  0  0  0  0  0  0  0  0  0  0  0
    8.8398  -13.4735   16.3461 N   0  0  0  0  0  0  0  0  0  0  0  0
    7.5966  -13.5911   15.8709 C   0  0  0  0  0  0  0  0  0  0  0  0
    6.7615  -14.0200   16.8333 N   0  0  0  0  0  0  0  0  0  0  0  0
    7.5067  -15.1164   21.5641 C   0  0  0  0  0  0  0  0  0  0  0  0
    6.5521  -14.4829   22.0596 O   0  0  0  0  0  0  0  0  0  0  0  0
    6.3257  -22.8361   25.4440 N   0  0  0  0  0  0  0  0  0  0  0  0
    6.2514  -21.9280   26.5284 C   0  0  0  0  0  0  0  0  0  0  0  0
    5.9595  -22.3036   27.7170 N   0  0  0  0  0  0  0  0  0  0  0  0
    6.5095  -20.5451   26.2962 N   0  0  0  0  0  0  0  0  0  0  0  0
    6.7741  -20.0884   24.9498 C   0  0  0  0  0  0  0  0  0  0  0  0
    6.9647  -18.5672   25.0306 C   0  0  0  0  0  0  0  0  0  0  0  0
    7.2793  -18.0233   23.6723 C   0  0  0  0  0  0  0  0  0  0  0  0
    7.5666  -16.5611   23.5947 C   0  0  2  0  0  0  0  0  0  0  0  0
    8.0095  -16.2382   22.2241 N   0  0  0  0  0  0  0  0  0  0  0  0
    8.6210  -16.1611   24.5159 C   0  0  0  0  0  0  0  0  0  0  0  0
    9.8053  -16.5249   24.2968 O   0  0  0  0  0  0  0  0  0  0  0  0
    5.9924  -21.6269   28.4985 N   0  0  0  0  0  0  0  0  0  0  0  0
   11.2919  -14.2571   28.6215 C   0  0  0  0  0  0  0  0  0  0  0  0
    9.9580  -13.7595   28.6786 O   0  0  0  0  0  0  0  0  0  0  0  0
    9.6916  -12.9869   29.6334 C   0  0  0  0  0  0  0  0  0  0  0  0
    8.9262  -14.1153   27.6848 C   0  0  1  0  0  0  0  0  0  0  0  0
    9.4695  -14.9891   26.5583 N   0  0  0  0  0  0  0  0  0  0  0  0
    8.3725  -15.3604   25.6597 C   0  0  0  0  0  0  0  0  0  0  0  0
   10.0902  -16.2001   27.0927 O   0  0  0  0  0  0  0  0  0  0  0  0
   11.3440  -16.3152   27.2485 O   0  0  0  0  0  0  0  0  0  0  0  0
  2  1  1  6
  2  3  1  0
  3  4  1  0
  4  8  1  0
  5  6  1  0
  5  4  2  0
  6  7  1  0
  7  8  2  0
  9  2  1  0
  9 10  2  0
 12 11  1  0
 13 12  2  0
 14 12  1  0
 15 14  1  0
 15 16  1  0
 17 16  1  0
 18 17  1  6
 18 19  1  0
 19  9  1  0
 20 18  1  0
 21 20  2  0
 23 24  2  0
 23 22  1  0
 26 25  1  6
 25 23  1  0
 26 27  1  0
 27 20  1  0
 28 26  1  0
 29 28  2  0
 30 28  1  0
M  END
$$$$
