HRN.pdb
     RDKit          3D

 30 30  0  0  1  0  0  0  0  0999 V2000
   10.3329  -16.8234   12.2572 N   0  0  0  0  0  0  0  0  0  0  0  0
   11.7368  -16.5300   12.3444 C   0  0  1  0  0  0  0  0  0  0  0  0
   11.9739  -15.0808   12.7065 C   0  0  0  0  0  0  0  0  0  0  0  0
   11.4354  -14.2363   11.6321 C   0  0  0  0  0  0  0  0  0  0  0  0
   12.0852  -13.7401   10.5260 C   0  0  0  0  0  0  0  0  0  0  0  0
   11.2417  -13.0067    9.7779 N   0  0  0  0  0  0  0  0  0  0  0  0
   10.0682  -13.0451   10.4155 C   0  0  0  0  0  0  0  0  0  0  0  0
   10.1633  -13.7815   11.5363 N   0  0  0  0  0  0  0  0  0  0  0  0
   12.4046  -17.3450   13.4143 C   0  0  0  0  0  0  0  0  0  0  0  0
   11.7423  -18.2074   14.0272 O   0  0  0  0  0  0  0  0  0  0  0  0
   12.4319  -23.2054   14.4909 N   0  0  0  0  0  0  0  0  0  0  0  0
   13.5527  -23.4738   15.3141 C   0  0  0  0  0  0  0  0  0  0  0  0
   13.4665  -24.1787   16.3793 N   0  0  0  0  0  0  0  0  0  0  0  0
   14.8254  -22.9437   14.9505 N   0  0  0  0  0  0  0  0  0  0  0  0
   14.8999  -21.8900   13.9629 C   0  0  0  0  0  0  0  0  0  0  0  0
   15.0555  -20.5726   14.7358 C   0  0  0  0  0  0  0  0  0  0  0  0
   14.3575  -19.4701   14.0030 C   0  0  0  0  0  0  0  0  0  0  0  0
   14.4578  -18.1081   14.6043 C   0  0  2  0  0  0  0  0  0  0  0  0
   13.7497  -17.1519   13.7306 N   0  0  0  0  0  0  0  0  0  0  0  0
   15.8396  -17.6663   14.7308 C   0  0  0  0  0  0  0  0  0  0  0  0
   16.7003  -18.0845   13.9139 O   0  0  0  0  0  0  0  0  0  0  0  0
   14.3150  -24.3935   16.9303 N   0  0  0  0  0  0  0  0  0  0  0  0
   16.9399  -18.2400   19.7245 C   0  0  0  0  0  0  0  0  0  0  0  0
   15.7936  -18.6349   18.9760 O   0  0  0  0  0  0  0  0  0  0  0  0
   14.9881  -19.4063   19.5554 C   0  0  0  0  0  0  0  0  0  0  0  0
   15.5413  -18.1785   17.5952 C   0  0  2  0  0  0  0  0  0  0  0  0
   16.6410  -17.2621   17.0672 N   0  0  0  0  0  0  0  0  0  0  0  0
   16.2639  -16.7656   15.7406 C   0  0  0  0  0  0  0  0  0  0  0  0
   17.9132  -17.9764   16.9747 O   0  0  0  0  0  0  0  0  0  0  0  0
   18.0844  -18.9735   16.2091 O   0  0  0  0  0  0  0  0  0  0  0  0
  2  1  1  1
  2  3  1  0
  3  4  1  0
  4  8  1  0
  5  6  1  0
  5  4  2  0
  6  7  1  0
  7  8  2  0
  9  2  1  0
  9 10  2  0
 12 11  1  0
 13 12  2  0
 14 12  1  0
 15 14  1  0
 15 16  1  0
 17 16  1  0
 18 17  1  6
 18 19  1  0
 19  9  1  0
 20 18  1  0
 21 20  2  0
 23 24  2  0
 23 22  1  0
 26 25  1  1
 25 23  1  0
 26 27  1  0
 27 20  1  0
 28 26  1  0
 29 28  2  0
 30 28  1  0
M  END
$$$$
