HRN.pdb
     RDKit          3D

 30 30  0  0  1  0  0  0  0  0999 V2000
   16.3113  -13.5976   16.5761 N   0  0  0  0  0  0  0  0  0  0  0  0
   15.4710  -14.7320   16.8438 C   0  0  1  0  0  0  0  0  0  0  0  0
   16.2808  -15.9135   17.3293 C   0  0  0  0  0  0  0  0  0  0  0  0
   16.9853  -16.5006   16.1818 C   0  0  0  0  0  0  0  0  0  0  0  0
   16.5341  -16.6648   14.8928 C   0  0  0  0  0  0  0  0  0  0  0  0
   17.4824  -17.2450   14.1357 N   0  0  0  0  0  0  0  0  0  0  0  0
   18.5230  -17.4425   14.9502 C   0  0  0  0  0  0  0  0  0  0  0  0
   18.2440  -17.0006   16.1889 N   0  0  0  0  0  0  0  0  0  0  0  0
   14.4720  -14.4349   17.9248 C   0  0  0  0  0  0  0  0  0  0  0  0
   14.7623  -13.6076   18.8133 O   0  0  0  0  0  0  0  0  0  0  0  0
    7.4913  -11.7226   19.0745 N   0  0  0  0  0  0  0  0  0  0  0  0
    7.1430  -12.8331   19.8816 C   0  0  0  0  0  0  0  0  0  0  0  0
    6.6413  -12.6984   21.0517 N   0  0  0  0  0  0  0  0  0  0  0  0
    7.3557  -14.1509   19.3804 N   0  0  0  0  0  0  0  0  0  0  0  0
    8.4186  -14.3856   18.4284 C   0  0  0  0  0  0  0  0  0  0  0  0
    9.7386  -14.2570   19.2018 C   0  0  0  0  0  0  0  0  0  0  0  0
   10.8796  -14.6786   18.3299 C   0  0  0  0  0  0  0  0  0  0  0  0
   12.2264  -14.7107   18.9715 C   0  0  2  0  0  0  0  0  0  0  0  0
   13.2291  -15.0683   17.9487 N   0  0  0  0  0  0  0  0  0  0  0  0
   12.3000  -15.6971   20.0402 C   0  0  0  0  0  0  0  0  0  0  0  0
   11.8312  -16.8495   19.8523 O   0  0  0  0  0  0  0  0  0  0  0  0
    6.4176  -13.5328   21.6204 N   0  0  0  0  0  0  0  0  0  0  0  0
   15.7071  -17.1862   21.2351 C   0  0  0  0  0  0  0  0  0  0  0  0
   14.5655  -17.9551   20.8667 O   0  0  0  0  0  0  0  0  0  0  0  0
   14.7241  -18.7725   19.9253 C   0  0  0  0  0  0  0  0  0  0  0  0
   13.2572  -17.8196   21.5366 C   0  0  1  0  0  0  0  0  0  0  0  0
   13.1067  -16.4916   22.2724 N   0  0  0  0  0  0  0  0  0  0  0  0
   12.8934  -15.4178   21.2975 C   0  0  0  0  0  0  0  0  0  0  0  0
   14.2997  -16.1980   23.0647 O   0  0  0  0  0  0  0  0  0  0  0  0
   14.7504  -16.9936   23.9442 O   0  0  0  0  0  0  0  0  0  0  0  0
  2  1  1  1
  2  3  1  0
  3  4  1  0
  4  8  1  0
  5  6  1  0
  5  4  2  0
  6  7  1  0
  7  8  2  0
  9  2  1  0
  9 10  2  0
 12 11  1  0
 13 12  2  0
 14 12  1  0
 15 14  1  0
 15 16  1  0
 17 16  1  0
 18 17  1  6
 18 19  1  0
 19  9  1  0
 20 18  1  0
 21 20  2  0
 23 24  2  0
 23 22  1  0
 26 25  1  1
 25 23  1  0
 26 27  1  0
 27 20  1  0
 28 26  1  0
 29 28  2  0
 30 28  1  0
M  END
$$$$
