HRN.pdb
     RDKit          3D

 30 30  0  0  1  0  0  0  0  0999 V2000
    7.9647  -17.3776   19.0872 N   0  0  0  0  0  0  0  0  0  0  0  0
    9.0564  -16.4603   19.2645 C   0  0  1  0  0  0  0  0  0  0  0  0
    8.6649  -15.3065   20.1605 C   0  0  0  0  0  0  0  0  0  0  0  0
    7.9026  -14.3349   19.3653 C   0  0  0  0  0  0  0  0  0  0  0  0
    7.5044  -14.4278   18.0520 C   0  0  0  0  0  0  0  0  0  0  0  0
    6.8233  -13.3257   17.6907 N   0  0  0  0  0  0  0  0  0  0  0  0
    6.7965  -12.5467   18.7758 C   0  0  0  0  0  0  0  0  0  0  0  0
    7.4418  -13.1367   19.7971 N   0  0  0  0  0  0  0  0  0  0  0  0
   10.2318  -17.1235   19.9229 C   0  0  0  0  0  0  0  0  0  0  0  0
   10.0334  -17.9425   20.8438 O   0  0  0  0  0  0  0  0  0  0  0  0
   15.3229  -21.5000   17.6036 N   0  0  0  0  0  0  0  0  0  0  0  0
   14.6459  -21.2172   16.3921 C   0  0  0  0  0  0  0  0  0  0  0  0
   14.3453  -22.1305   15.5467 N   0  0  0  0  0  0  0  0  0  0  0  0
   14.2831  -19.8705   16.0962 N   0  0  0  0  0  0  0  0  0  0  0  0
   14.6077  -18.8239   17.0399 C   0  0  0  0  0  0  0  0  0  0  0  0
   13.5282  -18.8646   18.1308 C   0  0  0  0  0  0  0  0  0  0  0  0
   13.7341  -17.7339   19.0894 C   0  0  0  0  0  0  0  0  0  0  0  0
   12.6798  -17.5467   20.1287 C   0  0  2  0  0  0  0  0  0  0  0  0
   11.5368  -16.8377   19.5205 N   0  0  0  0  0  0  0  0  0  0  0  0
   13.1555  -16.7545   21.2541 C   0  0  0  0  0  0  0  0  0  0  0  0
   13.4102  -15.5336   21.0879 O   0  0  0  0  0  0  0  0  0  0  0  0
   13.8569  -21.8853   14.6687 N   0  0  0  0  0  0  0  0  0  0  0  0
   11.0216  -15.9795   23.6590 C   0  0  0  0  0  0  0  0  0  0  0  0
   11.6186  -16.5889   24.8003 O   0  0  0  0  0  0  0  0  0  0  0  0
   10.8351  -16.9426   25.7171 C   0  0  0  0  0  0  0  0  0  0  0  0
   13.0733  -16.8050   24.9251 C   0  0  2  0  0  0  0  0  0  0  0  0
   13.8317  -16.4628   23.6463 N   0  0  0  0  0  0  0  0  0  0  0  0
   13.3379  -17.3011   22.5499 C   0  0  0  0  0  0  0  0  0  0  0  0
   15.2667  -16.6836   23.8178 O   0  0  0  0  0  0  0  0  0  0  0  0
   15.8814  -17.6482   23.2689 O   0  0  0  0  0  0  0  0  0  0  0  0
  2  1  1  1
  2  3  1  0
  3  4  1  0
  4  8  1  0
  5  6  1  0
  5  4  2  0
  6  7  1  0
  7  8  2  0
  9  2  1  0
  9 10  2  0
 12 11  1  0
 13 12  2  0
 14 12  1  0
 15 14  1  0
 15 16  1  0
 17 16  1  0
 18 17  1  6
 18 19  1  0
 19  9  1  0
 20 18  1  0
 21 20  2  0
 23 24  2  0
 23 22  1  0
 26 25  1  6
 25 23  1  0
 26 27  1  0
 27 20  1  0
 28 26  1  0
 29 28  2  0
 30 28  1  0
M  END
$$$$
