LEQ.pdb
     RDKit          3D

 27 26  0  0  1  0  0  0  0  0999 V2000
   29.5332  -24.6292  -16.6360 C   0  0  0  0  0  0  0  0  0  0  0  0
   28.9566  -23.4817  -17.4025 C   0  0  1  0  0  0  0  0  0  0  0  0
   27.9930  -24.0851  -18.4342 C   0  0  0  0  0  0  0  0  0  0  0  0
   28.1954  -22.4930  -16.5739 C   0  0  0  0  0  0  0  0  0  0  0  0
   27.7081  -21.3669  -17.4346 C   0  0  2  0  0  0  0  0  0  0  0  0
   28.8360  -20.4969  -17.7326 N   0  0  0  0  0  0  0  0  0  0  0  0
   26.6769  -20.5377  -16.7509 C   0  0  0  0  0  0  0  0  0  0  0  0
   26.9896  -19.5987  -15.9558 O   0  0  0  0  0  0  0  0  0  0  0  0
   25.2844  -20.7449  -16.9449 N   0  0  0  0  0  0  0  0  0  0  0  0
   24.2941  -19.9410  -16.2530 C   0  0  1  0  0  0  0  0  0  0  0  0
   23.1834  -19.5049  -17.1629 C   0  0  0  0  0  0  0  0  0  0  0  0
   22.1411  -18.6852  -16.4281 C   0  0  0  0  0  0  0  0  0  0  0  0
   21.0604  -18.2882  -17.3591 C   0  0  0  0  0  0  0  0  0  0  0  0
   19.8944  -18.7395  -17.1293 O   0  0  0  0  0  0  0  0  0  0  0  0
   23.7155  -20.6753  -15.1010 C   0  0  0  0  0  0  0  0  0  0  0  0
   23.1576  -21.7991  -15.2237 O   0  0  0  0  0  0  0  0  0  0  0  0
   21.2194  -17.4635  -18.4620 O   0  0  0  0  0  0  0  0  0  0  0  0
   25.8204  -19.8346   -9.2906 N   0  0  0  0  0  0  0  0  0  0  0  0
   24.8158  -20.8138   -9.1149 C   0  0  0  0  0  0  0  0  0  0  0  0
   24.7152  -21.3699   -7.9971 O   0  0  0  0  0  0  0  0  0  0  0  0
   23.8749  -21.2165  -10.1882 C   0  0  0  0  0  0  0  0  0  0  0  0
   24.1920  -20.4728  -11.4334 C   0  0  0  0  0  0  0  0  0  0  0  0
   23.3552  -20.7984  -12.6169 C   0  0  2  0  0  0  0  0  0  0  0  0
   23.7918  -20.0938  -13.8169 N   0  0  0  0  0  0  0  0  0  0  0  0
   21.9110  -20.6553  -12.4210 C   0  0  0  0  0  0  0  0  0  0  0  0
   21.2627  -19.5953  -12.5849 O   0  0  0  0  0  0  0  0  0  0  0  0
   21.1774  -21.7572  -12.0220 O   0  0  0  0  0  0  0  0  0  0  0  0
  2  4  1  0
  2  1  1  1
  2  3  1  0
  5  4  1  0
  5  6  1  1
  7  5  1  0
  8  7  2  0
  9  7  1  0
 10  9  1  0
 10 11  1  6
 12 11  1  0
 13 12  1  0
 13 14  2  0
 15 10  1  0
 15 24  1  0
 16 15  2  0
 17 13  1  0
 19 18  1  0
 20 19  2  0
 21 19  1  0
 22 21  1  0
 23 22  1  1
 23 25  1  0
 23 24  1  0
 25 27  1  0
 26 25  2  0
M  END
$$$$
