LEQ.pdb
     RDKit          3D

 27 26  0  0  1  0  0  0  0  0999 V2000
   16.6902  -14.4037  -15.3130 C   0  0  0  0  0  0  0  0  0  0  0  0
   17.7381  -13.6105  -16.0268 C   0  0  1  0  0  0  0  0  0  0  0  0
   17.4796  -13.7961  -17.5287 C   0  0  0  0  0  0  0  0  0  0  0  0
   17.7261  -12.1429  -15.7280 C   0  0  0  0  0  0  0  0  0  0  0  0
   18.8166  -11.4533  -16.4906 C   0  0  2  0  0  0  0  0  0  0  0  0
   20.0931  -12.0130  -16.0718 N   0  0  0  0  0  0  0  0  0  0  0  0
   18.8619   -9.9904  -16.2149 C   0  0  0  0  0  0  0  0  0  0  0  0
   17.8053   -9.2976  -16.0914 O   0  0  0  0  0  0  0  0  0  0  0  0
   20.0854   -9.2815  -16.0734 N   0  0  0  0  0  0  0  0  0  0  0  0
   20.1133   -7.8382  -15.9249 C   0  0  1  0  0  0  0  0  0  0  0  0
   21.0961   -7.3959  -14.8807 C   0  0  0  0  0  0  0  0  0  0  0  0
   21.1514   -5.8856  -14.7618 C   0  0  0  0  0  0  0  0  0  0  0  0
   22.1891   -5.4924  -13.7816 C   0  0  0  0  0  0  0  0  0  0  0  0
   22.7409   -6.4196  -13.1095 O   0  0  0  0  0  0  0  0  0  0  0  0
   20.4398   -7.1720  -17.2095 C   0  0  0  0  0  0  0  0  0  0  0  0
   21.4094   -7.5290  -17.9318 O   0  0  0  0  0  0  0  0  0  0  0  0
   22.6062   -4.1929  -13.5382 O   0  0  0  0  0  0  0  0  0  0  0  0
   16.6460   -2.8225  -19.8897 N   0  0  0  0  0  0  0  0  0  0  0  0
   17.6780   -2.9936  -20.8408 C   0  0  0  0  0  0  0  0  0  0  0  0
   17.5891   -2.3851  -21.9320 O   0  0  0  0  0  0  0  0  0  0  0  0
   18.8609   -3.8582  -20.6118 C   0  0  0  0  0  0  0  0  0  0  0  0
   18.7415   -4.5262  -19.2913 C   0  0  0  0  0  0  0  0  0  0  0  0
   19.8799   -5.3948  -18.8960 C   0  0  2  0  0  0  0  0  0  0  0  0
   19.6343   -6.0959  -17.6409 N   0  0  0  0  0  0  0  0  0  0  0  0
   21.1908   -4.7422  -18.8843 C   0  0  0  0  0  0  0  0  0  0  0  0
   21.6109   -3.9845  -17.9786 O   0  0  0  0  0  0  0  0  0  0  0  0
   22.0548   -4.9569  -19.9421 O   0  0  0  0  0  0  0  0  0  0  0  0
  2  4  1  0
  2  1  1  1
  2  3  1  0
  5  4  1  0
  5  6  1  1
  7  5  1  0
  8  7  2  0
  9  7  1  0
 10  9  1  0
 10 11  1  1
 12 11  1  0
 13 12  1  0
 13 14  2  0
 15 10  1  0
 15 24  1  0
 16 15  2  0
 17 13  1  0
 19 18  1  0
 20 19  2  0
 21 19  1  0
 22 21  1  0
 23 22  1  1
 23 25  1  0
 23 24  1  0
 25 27  1  0
 26 25  2  0
M  END
$$$$
