LEQ.pdb
     RDKit          3D

 27 26  0  0  1  0  0  0  0  0999 V2000
   19.9051  -16.0991  -18.7569 C   0  0  0  0  0  0  0  0  0  0  0  0
   20.1903  -14.9708  -17.8176 C   0  0  1  0  0  0  0  0  0  0  0  0
   21.6934  -14.6787  -17.9285 C   0  0  0  0  0  0  0  0  0  0  0  0
   19.4449  -13.7055  -18.1123 C   0  0  0  0  0  0  0  0  0  0  0  0
   19.8038  -12.6511  -17.1094 C   0  0  2  0  0  0  0  0  0  0  0  0
   19.5900  -13.1949  -15.7765 N   0  0  0  0  0  0  0  0  0  0  0  0
   18.9504  -11.4369  -17.2351 C   0  0  0  0  0  0  0  0  0  0  0  0
   18.8511  -10.7964  -18.3267 O   0  0  0  0  0  0  0  0  0  0  0  0
   18.1973  -10.9216  -16.1458 N   0  0  0  0  0  0  0  0  0  0  0  0
   17.3297   -9.7688  -16.3012 C   0  0  1  0  0  0  0  0  0  0  0  0
   16.1164   -9.8513  -15.4221 C   0  0  0  0  0  0  0  0  0  0  0  0
   15.1748  -10.9549  -15.8624 C   0  0  0  0  0  0  0  0  0  0  0  0
   14.6209  -11.6504  -14.6784 C   0  0  0  0  0  0  0  0  0  0  0  0
   13.7039  -12.5076  -14.8788 O   0  0  0  0  0  0  0  0  0  0  0  0
   18.0541   -8.5077  -16.0086 C   0  0  0  0  0  0  0  0  0  0  0  0
   18.9934   -8.4436  -15.1701 O   0  0  0  0  0  0  0  0  0  0  0  0
   15.0226  -11.4402  -13.3683 O   0  0  0  0  0  0  0  0  0  0  0  0
   18.1509   -3.6136  -19.9562 N   0  0  0  0  0  0  0  0  0  0  0  0
   18.8087   -3.1001  -18.8148 C   0  0  0  0  0  0  0  0  0  0  0  0
   19.2554   -1.9308  -18.8606 O   0  0  0  0  0  0  0  0  0  0  0  0
   18.9970   -3.8767  -17.5656 C   0  0  0  0  0  0  0  0  0  0  0  0
   18.3160   -5.1903  -17.6882 C   0  0  0  0  0  0  0  0  0  0  0  0
   18.3538   -6.0580  -16.4831 C   0  0  2  0  0  0  0  0  0  0  0  0
   17.6778   -7.3328  -16.6948 N   0  0  0  0  0  0  0  0  0  0  0  0
   17.9032   -5.4253  -15.2416 C   0  0  0  0  0  0  0  0  0  0  0  0
   16.7289   -5.4513  -14.8041 O   0  0  0  0  0  0  0  0  0  0  0  0
   18.8205   -4.7358  -14.4706 O   0  0  0  0  0  0  0  0  0  0  0  0
  2  4  1  0
  2  1  1  6
  2  3  1  0
  5  4  1  0
  5  6  1  1
  7  5  1  0
  8  7  2  0
  9  7  1  0
 10  9  1  0
 10 11  1  1
 12 11  1  0
 13 12  1  0
 13 14  2  0
 15 10  1  0
 15 24  1  0
 16 15  2  0
 17 13  1  0
 19 18  1  0
 20 19  2  0
 21 19  1  0
 22 21  1  0
 23 22  1  6
 23 25  1  0
 23 24  1  0
 25 27  1  0
 26 25  2  0
M  END
$$$$
