LEQ.pdb
     RDKit          3D

 27 26  0  0  1  0  0  0  0  0999 V2000
   20.3498  -26.1281   -0.6719 C   0  0  0  0  0  0  0  0  0  0  0  0
   20.0415  -27.2013   -1.6669 C   0  0  1  0  0  0  0  0  0  0  0  0
   21.3021  -27.3770   -2.5254 C   0  0  0  0  0  0  0  0  0  0  0  0
   19.6939  -28.5299   -1.0692 C   0  0  0  0  0  0  0  0  0  0  0  0
   19.7140  -29.5915   -2.1270 C   0  0  2  0  0  0  0  0  0  0  0  0
   18.3389  -29.9308   -2.4617 N   0  0  0  0  0  0  0  0  0  0  0  0
   20.3785  -30.8408   -1.6622 C   0  0  0  0  0  0  0  0  0  0  0  0
   19.8921  -31.5532   -0.7308 O   0  0  0  0  0  0  0  0  0  0  0  0
   21.5934  -31.3114   -2.2297 N   0  0  0  0  0  0  0  0  0  0  0  0
   22.2258  -32.5316   -1.7639 C   0  0  1  0  0  0  0  0  0  0  0  0
   22.1929  -33.6168   -2.7998 C   0  0  0  0  0  0  0  0  0  0  0  0
   22.9297  -33.2143   -4.0620 C   0  0  0  0  0  0  0  0  0  0  0  0
   22.7996  -34.2768   -5.0850 C   0  0  0  0  0  0  0  0  0  0  0  0
   23.7507  -34.4068   -5.9183 O   0  0  0  0  0  0  0  0  0  0  0  0
   23.6333  -32.2881   -1.3630 C   0  0  0  0  0  0  0  0  0  0  0  0
   24.3505  -31.4051   -1.9062 O   0  0  0  0  0  0  0  0  0  0  0  0
   21.7223  -35.1407   -5.2065 O   0  0  0  0  0  0  0  0  0  0  0  0
   26.4751  -33.7021    4.5707 N   0  0  0  0  0  0  0  0  0  0  0  0
   26.6322  -32.5033    3.8377 C   0  0  0  0  0  0  0  0  0  0  0  0
   26.6316  -31.4183    4.4635 O   0  0  0  0  0  0  0  0  0  0  0  0
   26.7972  -32.4656    2.3644 C   0  0  0  0  0  0  0  0  0  0  0  0
   25.5137  -32.8245    1.7102 C   0  0  0  0  0  0  0  0  0  0  0  0
   25.5120  -32.8031    0.2248 C   0  0  2  0  0  0  0  0  0  0  0  0
   24.1924  -33.0756   -0.3334 N   0  0  0  0  0  0  0  0  0  0  0  0
   26.5338  -33.6348   -0.4146 C   0  0  0  0  0  0  0  0  0  0  0  0
   26.3625  -34.8125   -0.8077 O   0  0  0  0  0  0  0  0  0  0  0  0
   27.7972  -33.1092   -0.6120 O   0  0  0  0  0  0  0  0  0  0  0  0
  2  4  1  0
  2  1  1  1
  2  3  1  0
  5  4  1  0
  5  6  1  1
  7  5  1  0
  8  7  2  0
  9  7  1  0
 10  9  1  0
 10 11  1  6
 12 11  1  0
 13 12  1  0
 13 14  2  0
 15 10  1  0
 15 24  1  0
 16 15  2  0
 17 13  1  0
 19 18  1  0
 20 19  2  0
 21 19  1  0
 22 21  1  0
 23 22  1  1
 23 25  1  0
 23 24  1  0
 25 27  1  0
 26 25  2  0
M  END
$$$$
