LEQ.pdb
     RDKit          3D

 27 26  0  0  1  0  0  0  0  0999 V2000
   27.7898  -18.8707   -7.1969 C   0  0  0  0  0  0  0  0  0  0  0  0
   27.7645  -20.0076   -8.1683 C   0  0  1  0  0  0  0  0  0  0  0  0
   28.7866  -21.0363   -7.6643 C   0  0  0  0  0  0  0  0  0  0  0  0
   26.4384  -20.6915   -8.2994 C   0  0  0  0  0  0  0  0  0  0  0  0
   26.3954  -21.4931   -9.5651 C   0  0  2  0  0  0  0  0  0  0  0  0
   27.7600  -21.8371   -9.9360 N   0  0  0  0  0  0  0  0  0  0  0  0
   25.8069  -20.7281  -10.6995 C   0  0  0  0  0  0  0  0  0  0  0  0
   24.6862  -20.1395  -10.6025 O   0  0  0  0  0  0  0  0  0  0  0  0
   26.4601  -20.6097  -11.9560 N   0  0  0  0  0  0  0  0  0  0  0  0
   25.8339  -19.9316  -13.0757 C   0  0  1  0  0  0  0  0  0  0  0  0
   26.7601  -19.8040  -14.2495 C   0  0  0  0  0  0  0  0  0  0  0  0
   26.1513  -18.9717  -15.3606 C   0  0  0  0  0  0  0  0  0  0  0  0
   27.1264  -18.8070  -16.4626 C   0  0  0  0  0  0  0  0  0  0  0  0
   26.7056  -18.9870  -17.6485 O   0  0  0  0  0  0  0  0  0  0  0  0
   24.6002  -20.6334  -13.5072 C   0  0  0  0  0  0  0  0  0  0  0  0
   24.5146  -21.8904  -13.5509 O   0  0  0  0  0  0  0  0  0  0  0  0
   28.4623  -18.4725  -16.3034 O   0  0  0  0  0  0  0  0  0  0  0  0
   19.1537  -18.4475  -12.3120 N   0  0  0  0  0  0  0  0  0  0  0  0
   18.8279  -19.7448  -12.7700 C   0  0  0  0  0  0  0  0  0  0  0  0
   17.6199  -20.0715  -12.8238 O   0  0  0  0  0  0  0  0  0  0  0  0
   19.8449  -20.7392  -13.1897 C   0  0  0  0  0  0  0  0  0  0  0  0
   21.2026  -20.1591  -13.0340 C   0  0  0  0  0  0  0  0  0  0  0  0
   22.1689  -20.4635  -14.1205 C   0  0  2  0  0  0  0  0  0  0  0  0
   23.4776  -19.8648  -13.8841 N   0  0  0  0  0  0  0  0  0  0  0  0
   21.6976  -20.1752  -15.4766 C   0  0  0  0  0  0  0  0  0  0  0  0
   21.7940  -19.0663  -16.0529 O   0  0  0  0  0  0  0  0  0  0  0  0
   21.0923  -21.1837  -16.2033 O   0  0  0  0  0  0  0  0  0  0  0  0
  2  4  1  0
  2  1  1  1
  2  3  1  0
  5  4  1  0
  5  6  1  6
  7  5  1  0
  8  7  2  0
  9  7  1  0
 10  9  1  0
 10 11  1  6
 12 11  1  0
 13 12  1  0
 13 14  2  0
 15 10  1  0
 15 24  1  0
 16 15  2  0
 17 13  1  0
 19 18  1  0
 20 19  2  0
 21 19  1  0
 22 21  1  0
 23 22  1  1
 23 25  1  0
 23 24  1  0
 25 27  1  0
 26 25  2  0
M  END
$$$$
