LEQ.pdb
     RDKit          3D

 27 26  0  0  1  0  0  0  0  0999 V2000
   27.5430  -15.3628  -15.4009 C   0  0  0  0  0  0  0  0  0  0  0  0
   26.3995  -14.7397  -16.1364 C   0  0  1  0  0  0  0  0  0  0  0  0
   25.3295  -15.8304  -16.2861 C   0  0  0  0  0  0  0  0  0  0  0  0
   25.7763  -13.5646  -15.4478 C   0  0  0  0  0  0  0  0  0  0  0  0
   24.6489  -13.0226  -16.2733 C   0  0  2  0  0  0  0  0  0  0  0  0
   24.9828  -13.2016  -17.6785 N   0  0  0  0  0  0  0  0  0  0  0  0
   24.4342  -11.5657  -16.0506 C   0  0  0  0  0  0  0  0  0  0  0  0
   24.0986  -11.1022  -14.9173 O   0  0  0  0  0  0  0  0  0  0  0  0
   24.5910  -10.6073  -17.0881 N   0  0  0  0  0  0  0  0  0  0  0  0
   24.2606   -9.2088  -16.8855 C   0  0  1  0  0  0  0  0  0  0  0  0
   24.8595   -8.3273  -17.9419 C   0  0  0  0  0  0  0  0  0  0  0  0
   24.5475   -6.8638  -17.6988 C   0  0  0  0  0  0  0  0  0  0  0  0
   25.0640   -6.0432  -18.8178 C   0  0  0  0  0  0  0  0  0  0  0  0
   24.8876   -4.7860  -18.7519 O   0  0  0  0  0  0  0  0  0  0  0  0
   22.7918   -9.0022  -16.8587 C   0  0  0  0  0  0  0  0  0  0  0  0
   22.0316   -9.4153  -17.7756 O   0  0  0  0  0  0  0  0  0  0  0  0
   25.7242   -6.5374  -19.9321 O   0  0  0  0  0  0  0  0  0  0  0  0
   18.5677  -11.4172  -14.4620 N   0  0  0  0  0  0  0  0  0  0  0  0
   17.8678  -10.2121  -14.7000 C   0  0  0  0  0  0  0  0  0  0  0  0
   16.6250  -10.2044  -14.5439 O   0  0  0  0  0  0  0  0  0  0  0  0
   18.5310   -8.9559  -15.1261 C   0  0  0  0  0  0  0  0  0  0  0  0
   19.9889   -9.1901  -15.2806 C   0  0  0  0  0  0  0  0  0  0  0  0
   20.7970   -8.0136  -15.6926 C   0  0  2  0  0  0  0  0  0  0  0  0
   22.2220   -8.3160  -15.7645 N   0  0  0  0  0  0  0  0  0  0  0  0
   20.5585   -6.7901  -14.9241 C   0  0  0  0  0  0  0  0  0  0  0  0
   19.4467   -6.2268  -14.7921 O   0  0  0  0  0  0  0  0  0  0  0  0
   21.6235   -6.1835  -14.2843 O   0  0  0  0  0  0  0  0  0  0  0  0
  2  4  1  0
  2  1  1  1
  2  3  1  0
  5  4  1  0
  5  6  1  6
  7  5  1  0
  8  7  2  0
  9  7  1  0
 10  9  1  0
 10 11  1  6
 12 11  1  0
 13 12  1  0
 13 14  2  0
 15 10  1  0
 15 24  1  0
 16 15  2  0
 17 13  1  0
 19 18  1  0
 20 19  2  0
 21 19  1  0
 22 21  1  0
 23 22  1  1
 23 25  1  0
 23 24  1  0
 25 27  1  0
 26 25  2  0
M  END
$$$$
