LEQ.pdb
     RDKit          3D

 27 26  0  0  1  0  0  0  0  0999 V2000
   11.7916   -9.7400   -9.5044 C   0  0  0  0  0  0  0  0  0  0  0  0
   13.2818   -9.7069   -9.3813 C   0  0  1  0  0  0  0  0  0  0  0  0
   13.7988  -11.0260   -9.9725 C   0  0  0  0  0  0  0  0  0  0  0  0
   13.9463   -8.5772  -10.1063 C   0  0  0  0  0  0  0  0  0  0  0  0
   15.4308   -8.6420   -9.9103 C   0  0  2  0  0  0  0  0  0  0  0  0
   15.7206   -8.3666   -8.5110 N   0  0  0  0  0  0  0  0  0  0  0  0
   16.1535   -7.6235  -10.7218 C   0  0  0  0  0  0  0  0  0  0  0  0
   16.1047   -7.6180  -11.9904 O   0  0  0  0  0  0  0  0  0  0  0  0
   16.9396   -6.5984  -10.1294 N   0  0  0  0  0  0  0  0  0  0  0  0
   17.4897   -5.5122  -10.9189 C   0  0  1  0  0  0  0  0  0  0  0  0
   17.2793   -4.1767  -10.2677 C   0  0  0  0  0  0  0  0  0  0  0  0
   15.8180   -3.7731  -10.2676 C   0  0  0  0  0  0  0  0  0  0  0  0
   15.6641   -2.4279   -9.6684 C   0  0  0  0  0  0  0  0  0  0  0  0
   14.5044   -1.9077   -9.6875 O   0  0  0  0  0  0  0  0  0  0  0  0
   18.9396   -5.7073  -11.1649 C   0  0  0  0  0  0  0  0  0  0  0  0
   19.7406   -6.0584  -10.2569 O   0  0  0  0  0  0  0  0  0  0  0  0
   16.6848   -1.6905   -9.0886 O   0  0  0  0  0  0  0  0  0  0  0  0
   21.0346  -10.5192  -14.1878 N   0  0  0  0  0  0  0  0  0  0  0  0
   20.8779   -9.1273  -14.3803 C   0  0  0  0  0  0  0  0  0  0  0  0
   20.8184   -8.6913  -15.5530 O   0  0  0  0  0  0  0  0  0  0  0  0
   20.7809   -8.1567  -13.2632 C   0  0  0  0  0  0  0  0  0  0  0  0
   21.0589   -6.7881  -13.7670 C   0  0  0  0  0  0  0  0  0  0  0  0
   20.8507   -5.6826  -12.7967 C   0  0  2  0  0  0  0  0  0  0  0  0
   19.4432   -5.4914  -12.4659 N   0  0  0  0  0  0  0  0  0  0  0  0
   21.4836   -4.4106  -13.1515 C   0  0  0  0  0  0  0  0  0  0  0  0
   22.7197   -4.2136  -13.2161 O   0  0  0  0  0  0  0  0  0  0  0  0
   20.6819   -3.3221  -13.4411 O   0  0  0  0  0  0  0  0  0  0  0  0
  2  4  1  0
  2  1  1  6
  2  3  1  0
  5  4  1  0
  5  6  1  1
  7  5  1  0
  8  7  2  0
  9  7  1  0
 10  9  1  0
 10 11  1  1
 12 11  1  0
 13 12  1  0
 13 14  2  0
 15 10  1  0
 15 24  1  0
 16 15  2  0
 17 13  1  0
 19 18  1  0
 20 19  2  0
 21 19  1  0
 22 21  1  0
 23 22  1  6
 23 25  1  0
 23 24  1  0
 25 27  1  0
 26 25  2  0
M  END
$$$$
