LEQ.pdb
     RDKit          3D

 27 26  0  0  1  0  0  0  0  0999 V2000
   17.3641  -14.3016  -15.2641 C   0  0  0  0  0  0  0  0  0  0  0  0
   18.1269  -13.2890  -16.0575 C   0  0  1  0  0  0  0  0  0  0  0  0
   17.4858  -13.2527  -17.4519 C   0  0  0  0  0  0  0  0  0  0  0  0
   18.1006  -11.9013  -15.4943 C   0  0  0  0  0  0  0  0  0  0  0  0
   18.7422  -10.9445  -16.4530 C   0  0  2  0  0  0  0  0  0  0  0  0
   20.1457  -11.3046  -16.5893 N   0  0  0  0  0  0  0  0  0  0  0  0
   18.6905   -9.5373  -15.9674 C   0  0  0  0  0  0  0  0  0  0  0  0
   17.5972   -8.9781  -15.6453 O   0  0  0  0  0  0  0  0  0  0  0  0
   19.8567   -8.7361  -15.8349 N   0  0  0  0  0  0  0  0  0  0  0  0
   19.7954   -7.3905  -15.2950 C   0  0  1  0  0  0  0  0  0  0  0  0
   21.1121   -6.9485  -14.7270 C   0  0  0  0  0  0  0  0  0  0  0  0
   21.0232   -5.5694  -14.1037 C   0  0  0  0  0  0  0  0  0  0  0  0
   22.3063   -5.2253  -13.4499 C   0  0  0  0  0  0  0  0  0  0  0  0
   23.2950   -5.9967  -13.6584 O   0  0  0  0  0  0  0  0  0  0  0  0
   19.3624   -6.4166  -16.3269 C   0  0  0  0  0  0  0  0  0  0  0  0
   19.7105   -6.5084  -17.5351 O   0  0  0  0  0  0  0  0  0  0  0  0
   22.5148   -4.1287  -12.6278 O   0  0  0  0  0  0  0  0  0  0  0  0
   13.9324   -4.8663  -17.7640 N   0  0  0  0  0  0  0  0  0  0  0  0
   14.6109   -3.7858  -18.3733 C   0  0  0  0  0  0  0  0  0  0  0  0
   13.9604   -3.0194  -19.1205 O   0  0  0  0  0  0  0  0  0  0  0  0
   16.0549   -3.5143  -18.1727 C   0  0  0  0  0  0  0  0  0  0  0  0
   16.6239   -4.5137  -17.2337 C   0  0  0  0  0  0  0  0  0  0  0  0
   18.0599   -4.3433  -16.8934 C   0  0  2  0  0  0  0  0  0  0  0  0
   18.5281   -5.3448  -15.9422 N   0  0  0  0  0  0  0  0  0  0  0  0
   18.4475   -2.9961  -16.4701 C   0  0  0  0  0  0  0  0  0  0  0  0
   18.5199   -2.6070  -15.2808 O   0  0  0  0  0  0  0  0  0  0  0  0
   18.7621   -2.0563  -17.4340 O   0  0  0  0  0  0  0  0  0  0  0  0
  2  4  1  0
  2  1  1  1
  2  3  1  0
  5  4  1  0
  5  6  1  1
  7  5  1  0
  8  7  2  0
  9  7  1  0
 10  9  1  0
 10 11  1  6
 12 11  1  0
 13 12  1  0
 13 14  2  0
 15 10  1  0
 15 24  1  0
 16 15  2  0
 17 13  1  0
 19 18  1  0
 20 19  2  0
 21 19  1  0
 22 21  1  0
 23 22  1  1
 23 25  1  0
 23 24  1  0
 25 27  1  0
 26 25  2  0
M  END
$$$$
