LEQ.pdb
     RDKit          3D

 27 26  0  0  1  0  0  0  0  0999 V2000
   22.2950  -16.2322  -20.9776 C   0  0  0  0  0  0  0  0  0  0  0  0
   21.5756  -15.7109  -19.7745 C   0  0  1  0  0  0  0  0  0  0  0  0
   21.4711  -16.8811  -18.7862 C   0  0  0  0  0  0  0  0  0  0  0  0
   22.2574  -14.5721  -19.0804 C   0  0  0  0  0  0  0  0  0  0  0  0
   21.3301  -13.9486  -18.0816 C   0  0  2  0  0  0  0  0  0  0  0  0
   19.9619  -14.1757  -18.5226 N   0  0  0  0  0  0  0  0  0  0  0  0
   21.5225  -12.4756  -17.9736 C   0  0  0  0  0  0  0  0  0  0  0  0
   22.6306  -11.9676  -17.6191 O   0  0  0  0  0  0  0  0  0  0  0  0
   20.4822  -11.5506  -18.2595 N   0  0  0  0  0  0  0  0  0  0  0  0
   20.6863  -10.1187  -18.1409 C   0  0  1  0  0  0  0  0  0  0  0  0
   19.7345   -9.3387  -18.9996 C   0  0  0  0  0  0  0  0  0  0  0  0
   18.4152   -9.0888  -18.2958 C   0  0  0  0  0  0  0  0  0  0  0  0
   17.5852   -8.1562  -19.0919 C   0  0  0  0  0  0  0  0  0  0  0  0
   16.8737   -8.6530  -20.0209 O   0  0  0  0  0  0  0  0  0  0  0  0
   20.5465   -9.6707  -16.7336 C   0  0  0  0  0  0  0  0  0  0  0  0
   19.7935  -10.2537  -15.9075 O   0  0  0  0  0  0  0  0  0  0  0  0
   17.5229   -6.7840  -18.9049 O   0  0  0  0  0  0  0  0  0  0  0  0
   22.0141   -5.3930  -12.6165 N   0  0  0  0  0  0  0  0  0  0  0  0
   22.3983   -5.0101  -13.9222 C   0  0  0  0  0  0  0  0  0  0  0  0
   22.5333   -3.7896  -14.1694 O   0  0  0  0  0  0  0  0  0  0  0  0
   22.6492   -5.9811  -15.0147 C   0  0  0  0  0  0  0  0  0  0  0  0
   22.4526   -7.3627  -14.5080 C   0  0  0  0  0  0  0  0  0  0  0  0
   21.2024   -8.0412  -14.9363 C   0  0  2  0  0  0  0  0  0  0  0  0
   21.2848   -8.5478  -16.3015 N   0  0  0  0  0  0  0  0  0  0  0  0
   19.9723   -7.2723  -14.7355 C   0  0  0  0  0  0  0  0  0  0  0  0
   19.3851   -6.6073  -15.6209 O   0  0  0  0  0  0  0  0  0  0  0  0
   19.3898   -7.2570  -13.4818 O   0  0  0  0  0  0  0  0  0  0  0  0
  2  4  1  0
  2  1  1  6
  2  3  1  0
  5  4  1  0
  5  6  1  6
  7  5  1  0
  8  7  2  0
  9  7  1  0
 10  9  1  0
 10 11  1  6
 12 11  1  0
 13 12  1  0
 13 14  2  0
 15 10  1  0
 15 24  1  0
 16 15  2  0
 17 13  1  0
 19 18  1  0
 20 19  2  0
 21 19  1  0
 22 21  1  0
 23 22  1  6
 23 25  1  0
 23 24  1  0
 25 27  1  0
 26 25  2  0
M  END
$$$$
