LEQ.pdb
     RDKit          3D

 27 26  0  0  1  0  0  0  0  0999 V2000
   18.9308  -15.1551  -18.2969 C   0  0  0  0  0  0  0  0  0  0  0  0
   19.9670  -14.4730  -17.4615 C   0  0  1  0  0  0  0  0  0  0  0  0
   21.1899  -15.4008  -17.4377 C   0  0  0  0  0  0  0  0  0  0  0  0
   20.4047  -13.1352  -17.9735 C   0  0  0  0  0  0  0  0  0  0  0  0
   21.1308  -12.3849  -16.8983 C   0  0  2  0  0  0  0  0  0  0  0  0
   20.7746  -12.9670  -15.6129 N   0  0  0  0  0  0  0  0  0  0  0  0
   20.7478  -10.9462  -16.8551 C   0  0  0  0  0  0  0  0  0  0  0  0
   20.9776  -10.1609  -17.8258 O   0  0  0  0  0  0  0  0  0  0  0  0
   20.1039  -10.3649  -15.7294 N   0  0  0  0  0  0  0  0  0  0  0  0
   19.7261   -8.9640  -15.7111 C   0  0  1  0  0  0  0  0  0  0  0  0
   18.3970   -8.7451  -15.0497 C   0  0  0  0  0  0  0  0  0  0  0  0
   17.2444   -9.0966  -15.9695 C   0  0  0  0  0  0  0  0  0  0  0  0
   15.9604   -8.9722  -15.2429 C   0  0  0  0  0  0  0  0  0  0  0  0
   15.5668   -9.9784  -14.5731 O   0  0  0  0  0  0  0  0  0  0  0  0
   20.7502   -8.1401  -15.0232 C   0  0  0  0  0  0  0  0  0  0  0  0
   21.3039   -8.5026  -13.9502 O   0  0  0  0  0  0  0  0  0  0  0  0
   15.1529   -7.8454  -15.2355 O   0  0  0  0  0  0  0  0  0  0  0  0
   23.9638   -3.6922  -18.0961 N   0  0  0  0  0  0  0  0  0  0  0  0
   24.5136   -3.6279  -16.7951 C   0  0  0  0  0  0  0  0  0  0  0  0
   25.5001   -2.8808  -16.6017 O   0  0  0  0  0  0  0  0  0  0  0  0
   23.9812   -4.4014  -15.6472 C   0  0  0  0  0  0  0  0  0  0  0  0
   22.8298   -5.2259  -16.0932 C   0  0  0  0  0  0  0  0  0  0  0  0
   22.2151   -6.0984  -15.0600 C   0  0  2  0  0  0  0  0  0  0  0  0
   21.1198   -6.9017  -15.5911 N   0  0  0  0  0  0  0  0  0  0  0  0
   21.8173   -5.4208  -13.8243 C   0  0  0  0  0  0  0  0  0  0  0  0
   20.6725   -4.9695  -13.5859 O   0  0  0  0  0  0  0  0  0  0  0  0
   22.7558   -5.2478  -12.8239 O   0  0  0  0  0  0  0  0  0  0  0  0
  2  4  1  0
  2  1  1  6
  2  3  1  0
  5  4  1  0
  5  6  1  1
  7  5  1  0
  8  7  2  0
  9  7  1  0
 10  9  1  0
 10 11  1  1
 12 11  1  0
 13 12  1  0
 13 14  2  0
 15 10  1  0
 15 24  1  0
 16 15  2  0
 17 13  1  0
 19 18  1  0
 20 19  2  0
 21 19  1  0
 22 21  1  0
 23 22  1  6
 23 25  1  0
 23 24  1  0
 25 27  1  0
 26 25  2  0
M  END
$$$$
