LEQ.pdb
     RDKit          3D

 27 26  0  0  1  0  0  0  0  0999 V2000
   14.8935  -13.8756  -16.2689 C   0  0  0  0  0  0  0  0  0  0  0  0
   16.0089  -13.0585  -15.6987 C   0  0  1  0  0  0  0  0  0  0  0  0
   17.0900  -12.9754  -16.7855 C   0  0  0  0  0  0  0  0  0  0  0  0
   15.6288  -11.6630  -15.3095 C   0  0  0  0  0  0  0  0  0  0  0  0
   16.8117  -10.9509  -14.7263 C   0  0  2  0  0  0  0  0  0  0  0  0
   17.2547  -11.6853  -13.5506 N   0  0  0  0  0  0  0  0  0  0  0  0
   16.4786   -9.5677  -14.2857 C   0  0  0  0  0  0  0  0  0  0  0  0
   15.8274   -8.7664  -15.0244 O   0  0  0  0  0  0  0  0  0  0  0  0
   16.8671   -9.0604  -13.0164 N   0  0  0  0  0  0  0  0  0  0  0  0
   16.5362   -7.7084  -12.6060 C   0  0  1  0  0  0  0  0  0  0  0  0
   16.6384   -7.5274  -11.1198 C   0  0  0  0  0  0  0  0  0  0  0  0
   16.1666   -6.1539  -10.6851 C   0  0  0  0  0  0  0  0  0  0  0  0
   16.2084   -6.0478   -9.2088 C   0  0  0  0  0  0  0  0  0  0  0  0
   15.1984   -6.4703   -8.5627 O   0  0  0  0  0  0  0  0  0  0  0  0
   17.4104   -6.7143  -13.2755 C   0  0  0  0  0  0  0  0  0  0  0  0
   18.6653   -6.8298  -13.3119 O   0  0  0  0  0  0  0  0  0  0  0  0
   17.2615   -5.5236   -8.4754 O   0  0  0  0  0  0  0  0  0  0  0  0
   16.7945   -4.7093  -18.7833 N   0  0  0  0  0  0  0  0  0  0  0  0
   17.7633   -3.7919  -18.3156 C   0  0  0  0  0  0  0  0  0  0  0  0
   18.3657   -3.0828  -19.1541 O   0  0  0  0  0  0  0  0  0  0  0  0
   18.1029   -3.6269  -16.8814 C   0  0  0  0  0  0  0  0  0  0  0  0
   17.3166   -4.5897  -16.0695 C   0  0  0  0  0  0  0  0  0  0  0  0
   17.5987   -4.5937  -14.6110 C   0  0  2  0  0  0  0  0  0  0  0  0
   16.8152   -5.5949  -13.8963 N   0  0  0  0  0  0  0  0  0  0  0  0
   17.5087   -3.2890  -13.9523 C   0  0  0  0  0  0  0  0  0  0  0  0
   16.5581   -2.9109  -13.2282 O   0  0  0  0  0  0  0  0  0  0  0  0
   18.5359   -2.3798  -14.1250 O   0  0  0  0  0  0  0  0  0  0  0  0
  2  4  1  0
  2  1  1  6
  2  3  1  0
  5  4  1  0
  5  6  1  1
  7  5  1  0
  8  7  2  0
  9  7  1  0
 10  9  1  0
 10 11  1  1
 12 11  1  0
 13 12  1  0
 13 14  2  0
 15 10  1  0
 15 24  1  0
 16 15  2  0
 17 13  1  0
 19 18  1  0
 20 19  2  0
 21 19  1  0
 22 21  1  0
 23 22  1  6
 23 25  1  0
 23 24  1  0
 25 27  1  0
 26 25  2  0
M  END
$$$$
