LEQ.pdb
     RDKit          3D

 27 26  0  0  1  0  0  0  0  0999 V2000
   19.0469  -13.5806  -18.9759 C   0  0  0  0  0  0  0  0  0  0  0  0
   20.1511  -12.8011  -18.3356 C   0  0  1  0  0  0  0  0  0  0  0  0
   20.7343  -11.8919  -19.4265 C   0  0  0  0  0  0  0  0  0  0  0  0
   19.7263  -11.9396  -17.1864 C   0  0  0  0  0  0  0  0  0  0  0  0
   20.8923  -11.1463  -16.6790 C   0  0  2  0  0  0  0  0  0  0  0  0
   21.7579  -12.0377  -15.9213 N   0  0  0  0  0  0  0  0  0  0  0  0
   20.4742  -10.0492  -15.7626 C   0  0  0  0  0  0  0  0  0  0  0  0
   19.8292  -10.2771  -14.6931 O   0  0  0  0  0  0  0  0  0  0  0  0
   20.7700   -8.6845  -16.0267 N   0  0  0  0  0  0  0  0  0  0  0  0
   20.3452   -7.6282  -15.1269 C   0  0  1  0  0  0  0  0  0  0  0  0
   21.4142   -6.5950  -14.9230 C   0  0  0  0  0  0  0  0  0  0  0  0
   21.0427   -5.6061  -13.8357 C   0  0  0  0  0  0  0  0  0  0  0  0
   22.1720   -4.6820  -13.5843 C   0  0  0  0  0  0  0  0  0  0  0  0
   23.1886   -5.1502  -12.9816 O   0  0  0  0  0  0  0  0  0  0  0  0
   19.1164   -6.9614  -15.6232 C   0  0  0  0  0  0  0  0  0  0  0  0
   18.9094   -6.7445  -16.8477 O   0  0  0  0  0  0  0  0  0  0  0  0
   22.2081   -3.3462  -13.9535 O   0  0  0  0  0  0  0  0  0  0  0  0
   12.7985   -6.9542  -17.2362 N   0  0  0  0  0  0  0  0  0  0  0  0
   13.7203   -7.3364  -16.2346 C   0  0  0  0  0  0  0  0  0  0  0  0
   13.9751   -8.5546  -16.0932 O   0  0  0  0  0  0  0  0  0  0  0  0
   14.4009   -6.3672  -15.3419 C   0  0  0  0  0  0  0  0  0  0  0  0
   15.7328   -6.8969  -14.9549 C   0  0  0  0  0  0  0  0  0  0  0  0
   16.8738   -5.9563  -15.0975 C   0  0  2  0  0  0  0  0  0  0  0  0
   18.1402   -6.5531  -14.6887 N   0  0  0  0  0  0  0  0  0  0  0  0
   16.6861   -4.6451  -14.4730 C   0  0  0  0  0  0  0  0  0  0  0  0
   16.8507   -4.3960  -13.2558 O   0  0  0  0  0  0  0  0  0  0  0  0
   16.2948   -3.5785  -15.2609 O   0  0  0  0  0  0  0  0  0  0  0  0
  2  4  1  0
  2  1  1  6
  2  3  1  0
  5  4  1  0
  5  6  1  1
  7  5  1  0
  8  7  2  0
  9  7  1  0
 10  9  1  0
 10 11  1  6
 12 11  1  0
 13 12  1  0
 13 14  2  0
 15 10  1  0
 15 24  1  0
 16 15  2  0
 17 13  1  0
 19 18  1  0
 20 19  2  0
 21 19  1  0
 22 21  1  0
 23 22  1  1
 23 25  1  0
 23 24  1  0
 25 27  1  0
 26 25  2  0
M  END
$$$$
