LEQ.pdb
     RDKit          3D

 27 26  0  0  1  0  0  0  0  0999 V2000
   28.7185  -11.9573  -15.7668 C   0  0  0  0  0  0  0  0  0  0  0  0
   27.5446  -12.6779  -16.3496 C   0  0  1  0  0  0  0  0  0  0  0  0
   27.2577  -13.8677  -15.4230 C   0  0  0  0  0  0  0  0  0  0  0  0
   26.2959  -11.8579  -16.4583 C   0  0  0  0  0  0  0  0  0  0  0  0
   25.2017  -12.6671  -17.0862 C   0  0  2  0  0  0  0  0  0  0  0  0
   25.6357  -13.0712  -18.4152 N   0  0  0  0  0  0  0  0  0  0  0  0
   23.9433  -11.8871  -17.2486 C   0  0  0  0  0  0  0  0  0  0  0  0
   23.8047  -11.0199  -18.1654 O   0  0  0  0  0  0  0  0  0  0  0  0
   22.8238  -12.0640  -16.3913 N   0  0  0  0  0  0  0  0  0  0  0  0
   21.6202  -11.2673  -16.5409 C   0  0  1  0  0  0  0  0  0  0  0  0
   20.3748  -12.0945  -16.4126 C   0  0  0  0  0  0  0  0  0  0  0  0
   19.1315  -11.2999  -16.7606 C   0  0  0  0  0  0  0  0  0  0  0  0
   17.9246  -12.1335  -16.5587 C   0  0  0  0  0  0  0  0  0  0  0  0
   16.8023  -11.6235  -16.8689 O   0  0  0  0  0  0  0  0  0  0  0  0
   21.5759  -10.1686  -15.5450 C   0  0  0  0  0  0  0  0  0  0  0  0
   22.0663  -10.2803  -14.3890 O   0  0  0  0  0  0  0  0  0  0  0  0
   17.9216  -13.4260  -16.0575 O   0  0  0  0  0  0  0  0  0  0  0  0
   23.3004   -4.6029  -16.4676 N   0  0  0  0  0  0  0  0  0  0  0  0
   22.7504   -4.4835  -15.1706 C   0  0  0  0  0  0  0  0  0  0  0  0
   22.9779   -3.4367  -14.5214 O   0  0  0  0  0  0  0  0  0  0  0  0
   21.9178   -5.5358  -14.5393 C   0  0  0  0  0  0  0  0  0  0  0  0
   21.8316   -6.7112  -15.4423 C   0  0  0  0  0  0  0  0  0  0  0  0
   20.9233   -7.8024  -15.0053 C   0  0  2  0  0  0  0  0  0  0  0  0
   20.9606   -8.9500  -15.9046 N   0  0  0  0  0  0  0  0  0  0  0  0
   19.5435   -7.3962  -14.7303 C   0  0  0  0  0  0  0  0  0  0  0  0
   18.5808   -7.5314  -15.5215 O   0  0  0  0  0  0  0  0  0  0  0  0
   19.2478   -6.8127  -13.5124 O   0  0  0  0  0  0  0  0  0  0  0  0
  2  4  1  0
  2  1  1  1
  2  3  1  0
  5  4  1  0
  5  6  1  6
  7  5  1  0
  8  7  2  0
  9  7  1  0
 10  9  1  0
 10 11  1  1
 12 11  1  0
 13 12  1  0
 13 14  2  0
 15 10  1  0
 15 24  1  0
 16 15  2  0
 17 13  1  0
 19 18  1  0
 20 19  2  0
 21 19  1  0
 22 21  1  0
 23 22  1  6
 23 25  1  0
 23 24  1  0
 25 27  1  0
 26 25  2  0
M  END
$$$$
