QKP.pdb
     RDKit          3D

 26 26  0  0  1  0  0  0  0  0999 V2000
    9.9323  -13.2839   17.8139 N   0  0  0  0  0  0  0  0  0  0  0  0
    8.5594  -13.5771   17.5135 C   0  0  0  0  0  0  0  0  0  0  0  0
    8.3302  -13.9747   16.3492 O   0  0  0  0  0  0  0  0  0  0  0  0
    7.5315  -13.3985   18.5494 C   0  0  0  0  0  0  0  0  0  0  0  0
    8.0049  -13.2334   19.9417 C   0  0  0  0  0  0  0  0  0  0  0  0
    8.6181  -14.4442   20.5613 C   0  0  2  0  0  0  0  0  0  0  0  0
    8.4818  -15.6410   19.8016 N   0  0  0  0  0  0  0  0  0  0  0  0
    8.1687  -14.5968   21.9734 C   0  0  0  0  0  0  0  0  0  0  0  0
    7.6689  -13.6137   22.5443 O   0  0  0  0  0  0  0  0  0  0  0  0
    8.2848  -15.8120   22.6971 N   0  0  0  0  0  0  0  0  0  0  0  0
    7.8977  -15.9053   24.0908 C   0  0  1  0  0  0  0  0  0  0  0  0
    7.2988  -17.2678   24.3261 C   0  0  0  0  0  0  0  0  0  0  0  0
    6.3324  -17.7508   23.3142 C   0  0  0  0  0  0  0  0  0  0  0  0
    5.7966  -19.1378   23.5774 C   0  0  0  0  0  0  0  0  0  0  0  0
    4.9343  -19.5818   22.4001 C   0  0  0  0  0  0  0  0  0  0  0  0
    4.4069  -20.9158   22.6215 N   0  0  0  0  0  0  0  0  0  0  0  0
    8.9715  -15.5620   25.0114 C   0  0  0  0  0  0  0  0  0  0  0  0
   10.1430  -15.9470   24.6595 O   0  0  0  0  0  0  0  0  0  0  0  0
    8.8762  -14.8698   26.2199 N   0  0  0  0  0  0  0  0  0  0  0  0
    7.5942  -14.2131   26.6302 C   0  0  0  0  0  0  0  0  0  0  0  0
    8.0604  -12.9189   27.2262 C   0  0  0  0  0  0  0  0  0  0  0  0
    9.4037  -13.2159   27.7985 C   0  0  0  0  0  0  0  0  0  0  0  0
    9.7767  -14.5886   27.3091 C   0  0  1  0  0  0  0  0  0  0  0  0
    9.6508  -15.5706   28.4084 C   0  0  0  0  0  0  0  0  0  0  0  0
   10.6473  -15.6477   29.3524 O   0  0  0  0  0  0  0  0  0  0  0  0
    8.6520  -16.3074   28.4627 O   0  0  0  0  0  0  0  0  0  0  0  0
  2  1  1  0
  2  3  2  0
  4  5  1  0
  4  2  1  0
  6  7  1  6
  6  5  1  0
  8  6  1  0
  8  9  2  0
 10  8  1  0
 11 10  1  0
 12 13  1  0
 11 12  1  1
 13 14  1  0
 14 15  1  0
 16 15  1  0
 17 11  1  0
 18 17  2  0
 19 17  1  0
 19 23  1  0
 20 19  1  0
 20 21  1  0
 21 22  1  0
 23 22  1  0
 24 25  1  0
 23 24  1  1
 26 24  2  0
M  END
$$$$
