QKP.pdb
     RDKit          3D

 26 26  0  0  1  0  0  0  0  0999 V2000
    9.8274  -13.3564   18.1083 N   0  0  0  0  0  0  0  0  0  0  0  0
    8.5235  -13.5270   17.5323 C   0  0  0  0  0  0  0  0  0  0  0  0
    8.5008  -13.8935   16.3359 O   0  0  0  0  0  0  0  0  0  0  0  0
    7.3267  -13.2686   18.3464 C   0  0  0  0  0  0  0  0  0  0  0  0
    7.5196  -13.1754   19.8106 C   0  0  0  0  0  0  0  0  0  0  0  0
    8.1666  -14.3572   20.4515 C   0  0  2  0  0  0  0  0  0  0  0  0
    8.0893  -15.5642   19.6999 N   0  0  0  0  0  0  0  0  0  0  0  0
    7.6974  -14.5154   21.8565 C   0  0  0  0  0  0  0  0  0  0  0  0
    7.3770  -13.4972   22.4912 O   0  0  0  0  0  0  0  0  0  0  0  0
    7.5997  -15.7744   22.5043 N   0  0  0  0  0  0  0  0  0  0  0  0
    7.3161  -15.8785   23.9219 C   0  0  1  0  0  0  0  0  0  0  0  0
    7.2367  -17.3392   24.2833 C   0  0  0  0  0  0  0  0  0  0  0  0
    7.0974  -17.6595   25.7218 C   0  0  0  0  0  0  0  0  0  0  0  0
    7.1838  -19.1324   26.0427 C   0  0  0  0  0  0  0  0  0  0  0  0
    6.9841  -19.3391   27.5408 C   0  0  0  0  0  0  0  0  0  0  0  0
    6.8309  -20.7487   27.8508 N   0  0  0  0  0  0  0  0  0  0  0  0
    8.2335  -15.1110   24.7512 C   0  0  0  0  0  0  0  0  0  0  0  0
    9.4770  -15.2493   24.4702 O   0  0  0  0  0  0  0  0  0  0  0  0
    7.9213  -14.2509   25.8055 N   0  0  0  0  0  0  0  0  0  0  0  0
    6.5002  -14.0356   26.2262 C   0  0  0  0  0  0  0  0  0  0  0  0
    6.4555  -12.5628   26.5023 C   0  0  0  0  0  0  0  0  0  0  0  0
    7.8287  -12.2116   26.9620 C   0  0  0  0  0  0  0  0  0  0  0  0
    8.6818  -13.4242   26.7079 C   0  0  1  0  0  0  0  0  0  0  0  0
    8.9780  -14.1123   27.9837 C   0  0  0  0  0  0  0  0  0  0  0  0
    8.3566  -15.3076   28.2578 O   0  0  0  0  0  0  0  0  0  0  0  0
    9.7794  -13.6030   28.7848 O   0  0  0  0  0  0  0  0  0  0  0  0
  2  1  1  0
  2  3  2  0
  4  5  1  0
  4  2  1  0
  6  7  1  6
  6  5  1  0
  8  6  1  0
  8  9  2  0
 10  8  1  0
 11 10  1  0
 12 13  1  0
 11 12  1  1
 13 14  1  0
 14 15  1  0
 16 15  1  0
 17 11  1  0
 18 17  2  0
 19 17  1  0
 19 23  1  0
 20 19  1  0
 20 21  1  0
 21 22  1  0
 23 22  1  0
 24 25  1  0
 23 24  1  1
 26 24  2  0
M  END
$$$$
