QKP.pdb
     RDKit          3D

 26 26  0  0  1  0  0  0  0  0999 V2000
    8.6371  -11.9329   19.0523 N   0  0  0  0  0  0  0  0  0  0  0  0
    8.3031  -12.9427   18.0881 C   0  0  0  0  0  0  0  0  0  0  0  0
    8.3781  -12.5953   16.8882 O   0  0  0  0  0  0  0  0  0  0  0  0
    7.9019  -14.2819   18.5432 C   0  0  0  0  0  0  0  0  0  0  0  0
    7.8727  -14.5121   20.0048 C   0  0  0  0  0  0  0  0  0  0  0  0
    7.4601  -15.8804   20.4331 C   0  0  2  0  0  0  0  0  0  0  0  0
    6.4864  -16.5015   19.6000 N   0  0  0  0  0  0  0  0  0  0  0  0
    7.0834  -15.8886   21.8743 C   0  0  0  0  0  0  0  0  0  0  0  0
    6.0521  -15.2888   22.2194 O   0  0  0  0  0  0  0  0  0  0  0  0
    7.8471  -16.5489   22.8717 N   0  0  0  0  0  0  0  0  0  0  0  0
    7.5466  -16.3981   24.2816 C   0  0  1  0  0  0  0  0  0  0  0  0
    7.5093  -17.7682   24.9074 C   0  0  0  0  0  0  0  0  0  0  0  0
    7.3581  -17.8209   26.3791 C   0  0  0  0  0  0  0  0  0  0  0  0
    7.4192  -19.2126   26.9617 C   0  0  0  0  0  0  0  0  0  0  0  0
    7.1864  -19.1442   28.4677 C   0  0  0  0  0  0  0  0  0  0  0  0
    7.0315  -20.4748   29.0263 N   0  0  0  0  0  0  0  0  0  0  0  0
    8.4268  -15.4590   24.9613 C   0  0  0  0  0  0  0  0  0  0  0  0
    9.6467  -15.4626   24.5660 O   0  0  0  0  0  0  0  0  0  0  0  0
    8.1016  -14.5643   25.9824 N   0  0  0  0  0  0  0  0  0  0  0  0
    6.6992  -14.4642   26.4984 C   0  0  0  0  0  0  0  0  0  0  0  0
    6.5198  -12.9878   26.6869 C   0  0  0  0  0  0  0  0  0  0  0  0
    7.8776  -12.4700   27.0163 C   0  0  0  0  0  0  0  0  0  0  0  0
    8.8332  -13.6056   26.7709 C   0  0  1  0  0  0  0  0  0  0  0  0
    9.2900  -14.1714   28.0594 C   0  0  0  0  0  0  0  0  0  0  0  0
   10.2590  -13.5078   28.7741 O   0  0  0  0  0  0  0  0  0  0  0  0
    8.7943  -15.2321   28.4749 O   0  0  0  0  0  0  0  0  0  0  0  0
  2  1  1  0
  2  3  2  0
  4  5  1  0
  4  2  1  0
  6  7  1  6
  6  5  1  0
  8  6  1  0
  8  9  2  0
 10  8  1  0
 11 10  1  0
 12 13  1  0
 11 12  1  1
 13 14  1  0
 14 15  1  0
 16 15  1  0
 17 11  1  0
 18 17  2  0
 19 17  1  0
 19 23  1  0
 20 19  1  0
 20 21  1  0
 21 22  1  0
 23 22  1  0
 24 25  1  0
 23 24  1  1
 26 24  2  0
M  END
$$$$
