QKP.pdb
     RDKit          3D

 26 26  0  0  1  0  0  0  0  0999 V2000
    8.8401  -11.7847   18.5274 N   0  0  0  0  0  0  0  0  0  0  0  0
    8.4106  -13.1414   18.3380 C   0  0  0  0  0  0  0  0  0  0  0  0
    8.7493  -13.6734   17.2571 O   0  0  0  0  0  0  0  0  0  0  0  0
    7.6214  -13.8096   19.3831 C   0  0  0  0  0  0  0  0  0  0  0  0
    8.2901  -14.8922   20.1386 C   0  0  0  0  0  0  0  0  0  0  0  0
    7.4066  -16.0107   20.5793 C   0  0  2  0  0  0  0  0  0  0  0  0
    6.2437  -16.2067   19.7810 N   0  0  0  0  0  0  0  0  0  0  0  0
    7.1023  -15.8984   22.0332 C   0  0  0  0  0  0  0  0  0  0  0  0
    6.3716  -14.9693   22.4144 O   0  0  0  0  0  0  0  0  0  0  0  0
    7.6080  -16.8023   23.0034 N   0  0  0  0  0  0  0  0  0  0  0  0
    7.3954  -16.5909   24.4215 C   0  0  1  0  0  0  0  0  0  0  0  0
    7.5520  -17.9132   25.1266 C   0  0  0  0  0  0  0  0  0  0  0  0
    7.5079  -17.8849   26.6060 C   0  0  0  0  0  0  0  0  0  0  0  0
    7.7750  -19.2183   27.2623 C   0  0  0  0  0  0  0  0  0  0  0  0
    7.7254  -19.0580   28.7785 C   0  0  0  0  0  0  0  0  0  0  0  0
    7.9443  -20.3317   29.4390 N   0  0  0  0  0  0  0  0  0  0  0  0
    8.2153  -15.5228   24.9743 C   0  0  0  0  0  0  0  0  0  0  0  0
    9.3806  -15.3976   24.4542 O   0  0  0  0  0  0  0  0  0  0  0  0
    7.8847  -14.6282   25.9937 N   0  0  0  0  0  0  0  0  0  0  0  0
    6.5264  -14.6497   26.6242 C   0  0  0  0  0  0  0  0  0  0  0  0
    6.2124  -13.1928   26.7856 C   0  0  0  0  0  0  0  0  0  0  0  0
    7.5324  -12.5302   26.9834 C   0  0  0  0  0  0  0  0  0  0  0  0
    8.5761  -13.5729   26.6897 C   0  0  1  0  0  0  0  0  0  0  0  0
    9.1924  -14.0426   27.9501 C   0  0  0  0  0  0  0  0  0  0  0  0
   10.1203  -13.2454   28.5774 O   0  0  0  0  0  0  0  0  0  0  0  0
    8.8646  -15.1444   28.4210 O   0  0  0  0  0  0  0  0  0  0  0  0
  2  1  1  0
  2  3  2  0
  4  5  1  0
  4  2  1  0
  6  7  1  6
  6  5  1  0
  8  6  1  0
  8  9  2  0
 10  8  1  0
 11 10  1  0
 12 13  1  0
 11 12  1  1
 13 14  1  0
 14 15  1  0
 16 15  1  0
 17 11  1  0
 18 17  2  0
 19 17  1  0
 19 23  1  0
 20 19  1  0
 20 21  1  0
 21 22  1  0
 23 22  1  0
 24 25  1  0
 23 24  1  1
 26 24  2  0
M  END
$$$$
