QKP.pdb
     RDKit          3D

 26 26  0  0  1  0  0  0  0  0999 V2000
    8.6802  -11.4843   19.4615 N   0  0  0  0  0  0  0  0  0  0  0  0
    8.6870  -12.8660   19.0715 C   0  0  0  0  0  0  0  0  0  0  0  0
    9.5960  -13.2035   18.2804 O   0  0  0  0  0  0  0  0  0  0  0  0
    7.6619  -13.7782   19.5993 C   0  0  0  0  0  0  0  0  0  0  0  0
    8.1011  -15.1458   19.9553 C   0  0  0  0  0  0  0  0  0  0  0  0
    7.0330  -16.0521   20.4686 C   0  0  2  0  0  0  0  0  0  0  0  0
    5.8077  -16.0055   19.7444 N   0  0  0  0  0  0  0  0  0  0  0  0
    6.8493  -15.8697   21.9356 C   0  0  0  0  0  0  0  0  0  0  0  0
    6.1511  -14.9218   22.3308 O   0  0  0  0  0  0  0  0  0  0  0  0
    7.4345  -16.7275   22.9030 N   0  0  0  0  0  0  0  0  0  0  0  0
    7.2290  -16.5221   24.3230 C   0  0  1  0  0  0  0  0  0  0  0  0
    7.2442  -17.8664   25.0034 C   0  0  0  0  0  0  0  0  0  0  0  0
    7.1759  -17.8617   26.4822 C   0  0  0  0  0  0  0  0  0  0  0  0
    7.3304  -19.2231   27.1168 C   0  0  0  0  0  0  0  0  0  0  0  0
    7.3040  -19.0823   28.6355 C   0  0  0  0  0  0  0  0  0  0  0  0
    7.4775  -20.3731   29.2760 N   0  0  0  0  0  0  0  0  0  0  0  0
    8.1461  -15.5526   24.9038 C   0  0  0  0  0  0  0  0  0  0  0  0
    9.3112  -15.5081   24.3701 O   0  0  0  0  0  0  0  0  0  0  0  0
    7.9081  -14.6746   25.9628 N   0  0  0  0  0  0  0  0  0  0  0  0
    6.5947  -14.6772   26.6825 C   0  0  0  0  0  0  0  0  0  0  0  0
    6.3312  -13.2171   26.8970 C   0  0  0  0  0  0  0  0  0  0  0  0
    7.6785  -12.5928   27.0203 C   0  0  0  0  0  0  0  0  0  0  0  0
    8.6722  -13.6540   26.6341 C   0  0  1  0  0  0  0  0  0  0  0  0
    9.3584  -14.1691   27.8394 C   0  0  0  0  0  0  0  0  0  0  0  0
    9.3908  -13.3917   28.9729 O   0  0  0  0  0  0  0  0  0  0  0  0
    9.8925  -15.2903   27.8104 O   0  0  0  0  0  0  0  0  0  0  0  0
  2  1  1  0
  2  3  2  0
  4  5  1  0
  4  2  1  0
  6  7  1  6
  6  5  1  0
  8  6  1  0
  8  9  2  0
 10  8  1  0
 11 10  1  0
 12 13  1  0
 11 12  1  1
 13 14  1  0
 14 15  1  0
 16 15  1  0
 17 11  1  0
 18 17  2  0
 19 17  1  0
 19 23  1  0
 20 19  1  0
 20 21  1  0
 21 22  1  0
 23 22  1  0
 24 25  1  0
 23 24  1  1
 26 24  2  0
M  END
$$$$
