QKP.pdb
     RDKit          3D

 26 26  0  0  1  0  0  0  0  0999 V2000
    7.4917  -14.4439   16.1769 N   0  0  0  0  0  0  0  0  0  0  0  0
    8.4148  -13.8593   17.1082 C   0  0  0  0  0  0  0  0  0  0  0  0
    9.6017  -14.2445   17.0122 O   0  0  0  0  0  0  0  0  0  0  0  0
    7.9355  -12.8776   18.0920 C   0  0  0  0  0  0  0  0  0  0  0  0
    7.3910  -13.4111   19.3605 C   0  0  0  0  0  0  0  0  0  0  0  0
    8.3912  -14.0198   20.2851 C   0  0  2  0  0  0  0  0  0  0  0  0
    9.0917  -15.1414   19.7566 N   0  0  0  0  0  0  0  0  0  0  0  0
    7.7798  -14.2899   21.6164 C   0  0  0  0  0  0  0  0  0  0  0  0
    7.1003  -13.3962   22.1474 O   0  0  0  0  0  0  0  0  0  0  0  0
    7.9373  -15.5198   22.3069 N   0  0  0  0  0  0  0  0  0  0  0  0
    7.5041  -15.6797   23.6809 C   0  0  1  0  0  0  0  0  0  0  0  0
    7.3963  -17.1534   23.9753 C   0  0  0  0  0  0  0  0  0  0  0  0
    7.1827  -17.5328   25.3902 C   0  0  0  0  0  0  0  0  0  0  0  0
    7.2072  -19.0207   25.6462 C   0  0  0  0  0  0  0  0  0  0  0  0
    7.0779  -19.2814   27.1436 C   0  0  0  0  0  0  0  0  0  0  0  0
    6.8822  -20.6955   27.4056 N   0  0  0  0  0  0  0  0  0  0  0  0
    8.3222  -14.9426   24.6326 C   0  0  0  0  0  0  0  0  0  0  0  0
    9.5829  -14.9518   24.3985 O   0  0  0  0  0  0  0  0  0  0  0  0
    7.8993  -14.2342   25.7587 N   0  0  0  0  0  0  0  0  0  0  0  0
    6.4534  -14.2024   26.1481 C   0  0  0  0  0  0  0  0  0  0  0  0
    6.2559  -12.7787   26.5741 C   0  0  0  0  0  0  0  0  0  0  0  0
    7.5752  -12.3486   27.1170 C   0  0  0  0  0  0  0  0  0  0  0  0
    8.5506  -13.4397   26.7691 C   0  0  1  0  0  0  0  0  0  0  0  0
    8.8807  -14.2288   27.9763 C   0  0  0  0  0  0  0  0  0  0  0  0
    9.7765  -13.7164   28.8846 O   0  0  0  0  0  0  0  0  0  0  0  0
    8.3469  -15.3368   28.1510 O   0  0  0  0  0  0  0  0  0  0  0  0
  2  1  1  0
  2  3  2  0
  4  5  1  0
  4  2  1  0
  6  7  1  6
  6  5  1  0
  8  6  1  0
  8  9  2  0
 10  8  1  0
 11 10  1  0
 12 13  1  0
 11 12  1  1
 13 14  1  0
 14 15  1  0
 16 15  1  0
 17 11  1  0
 18 17  2  0
 19 17  1  0
 19 23  1  0
 20 19  1  0
 20 21  1  0
 21 22  1  0
 23 22  1  0
 24 25  1  0
 23 24  1  1
 26 24  2  0
M  END
$$$$
