QKP.pdb
     RDKit          3D

 26 26  0  0  1  0  0  0  0  0999 V2000
    8.8458  -12.3446   19.0667 N   0  0  0  0  0  0  0  0  0  0  0  0
    8.3304  -13.3008   18.1280 C   0  0  0  0  0  0  0  0  0  0  0  0
    7.9479  -12.8348   17.0313 O   0  0  0  0  0  0  0  0  0  0  0  0
    8.2772  -14.7244   18.4914 C   0  0  0  0  0  0  0  0  0  0  0  0
    8.8266  -15.0996   19.8132 C   0  0  0  0  0  0  0  0  0  0  0  0
    8.1967  -16.2881   20.4587 C   0  0  2  0  0  0  0  0  0  0  0  0
    7.2727  -16.9965   19.6388 N   0  0  0  0  0  0  0  0  0  0  0  0
    7.6350  -15.9267   21.7904 C   0  0  0  0  0  0  0  0  0  0  0  0
    6.6483  -15.1736   21.8314 O   0  0  0  0  0  0  0  0  0  0  0  0
    8.1741  -16.4018   23.0142 N   0  0  0  0  0  0  0  0  0  0  0  0
    7.5829  -16.0520   24.2905 C   0  0  1  0  0  0  0  0  0  0  0  0
    7.2095  -17.3250   25.0048 C   0  0  0  0  0  0  0  0  0  0  0  0
    6.4333  -18.3177   24.2279 C   0  0  0  0  0  0  0  0  0  0  0  0
    6.2259  -19.6363   24.9339 C   0  0  0  0  0  0  0  0  0  0  0  0
    5.4106  -20.5677   24.0425 C   0  0  0  0  0  0  0  0  0  0  0  0
    6.0081  -21.8896   23.9951 N   0  0  0  0  0  0  0  0  0  0  0  0
    8.4078  -15.1489   25.0795 C   0  0  0  0  0  0  0  0  0  0  0  0
    9.6552  -15.1407   24.7823 O   0  0  0  0  0  0  0  0  0  0  0  0
    8.0040  -14.2994   26.1111 N   0  0  0  0  0  0  0  0  0  0  0  0
    6.5605  -14.1887   26.4946 C   0  0  0  0  0  0  0  0  0  0  0  0
    6.3952  -12.7198   26.7439 C   0  0  0  0  0  0  0  0  0  0  0  0
    7.7253  -12.2557   27.2295 C   0  0  0  0  0  0  0  0  0  0  0  0
    8.6757  -13.4022   27.0166 C   0  0  1  0  0  0  0  0  0  0  0  0
    8.9926  -14.0453   28.3108 C   0  0  0  0  0  0  0  0  0  0  0  0
    9.8987  -13.4433   29.1515 O   0  0  0  0  0  0  0  0  0  0  0  0
    8.4386  -15.1139   28.6178 O   0  0  0  0  0  0  0  0  0  0  0  0
  2  1  1  0
  2  3  2  0
  4  5  1  0
  4  2  1  0
  6  7  1  6
  6  5  1  0
  8  6  1  0
  8  9  2  0
 10  8  1  0
 11 10  1  0
 12 13  1  0
 11 12  1  1
 13 14  1  0
 14 15  1  0
 16 15  1  0
 17 11  1  0
 18 17  2  0
 19 17  1  0
 19 23  1  0
 20 19  1  0
 20 21  1  0
 21 22  1  0
 23 22  1  0
 24 25  1  0
 23 24  1  1
 26 24  2  0
M  END
$$$$
