QKP.pdb
     RDKit          3D

 26 26  0  0  1  0  0  0  0  0999 V2000
    7.7656  -12.1323   17.5708 N   0  0  0  0  0  0  0  0  0  0  0  0
    7.7637  -13.5410   17.2938 C   0  0  0  0  0  0  0  0  0  0  0  0
    7.3880  -13.8693   16.1461 O   0  0  0  0  0  0  0  0  0  0  0  0
    8.1841  -14.4899   18.3351 C   0  0  0  0  0  0  0  0  0  0  0  0
    8.6488  -13.9154   19.6172 C   0  0  0  0  0  0  0  0  0  0  0  0
    9.1324  -14.9013   20.6271 C   0  0  2  0  0  0  0  0  0  0  0  0
    9.5148  -16.1658   20.0955 N   0  0  0  0  0  0  0  0  0  0  0  0
    8.1676  -15.0126   21.7568 C   0  0  0  0  0  0  0  0  0  0  0  0
    7.4916  -14.0151   22.0575 O   0  0  0  0  0  0  0  0  0  0  0  0
    7.9845  -16.2041   22.5057 N   0  0  0  0  0  0  0  0  0  0  0  0
    7.5180  -16.1740   23.8777 C   0  0  1  0  0  0  0  0  0  0  0  0
    7.4351  -17.5918   24.3812 C   0  0  0  0  0  0  0  0  0  0  0  0
    7.1545  -17.7674   25.8241 C   0  0  0  0  0  0  0  0  0  0  0  0
    7.1405  -19.2052   26.2849 C   0  0  0  0  0  0  0  0  0  0  0  0
    6.8537  -19.2566   27.7823 C   0  0  0  0  0  0  0  0  0  0  0  0
    6.9148  -20.6214   28.2724 N   0  0  0  0  0  0  0  0  0  0  0  0
    8.2935  -15.2856   24.7308 C   0  0  0  0  0  0  0  0  0  0  0  0
    9.5498  -15.2379   24.4787 O   0  0  0  0  0  0  0  0  0  0  0  0
    7.8342  -14.4878   25.7802 N   0  0  0  0  0  0  0  0  0  0  0  0
    6.4201  -14.5918   26.2624 C   0  0  0  0  0  0  0  0  0  0  0  0
    6.0476  -13.1607   26.5091 C   0  0  0  0  0  0  0  0  0  0  0  0
    7.3201  -12.4891   26.8965 C   0  0  0  0  0  0  0  0  0  0  0  0
    8.4192  -13.4805   26.6283 C   0  0  1  0  0  0  0  0  0  0  0  0
    8.9180  -14.0417   27.9031 C   0  0  0  0  0  0  0  0  0  0  0  0
    8.6199  -15.3457   28.2208 O   0  0  0  0  0  0  0  0  0  0  0  0
    9.5954  -13.3308   28.6641 O   0  0  0  0  0  0  0  0  0  0  0  0
  2  1  1  0
  2  3  2  0
  4  5  1  0
  4  2  1  0
  6  7  1  6
  6  5  1  0
  8  6  1  0
  8  9  2  0
 10  8  1  0
 11 10  1  0
 12 13  1  0
 11 12  1  1
 13 14  1  0
 14 15  1  0
 16 15  1  0
 17 11  1  0
 18 17  2  0
 19 17  1  0
 19 23  1  0
 20 19  1  0
 20 21  1  0
 21 22  1  0
 23 22  1  0
 24 25  1  0
 23 24  1  1
 26 24  2  0
M  END
$$$$
