QKP.pdb
     RDKit          3D

 26 26  0  0  1  0  0  0  0  0999 V2000
   10.0590  -13.3932   17.8811 N   0  0  0  0  0  0  0  0  0  0  0  0
    8.7610  -13.8085   17.4297 C   0  0  0  0  0  0  0  0  0  0  0  0
    8.7371  -14.4416   16.3505 O   0  0  0  0  0  0  0  0  0  0  0  0
    7.5709  -13.4780   18.2272 C   0  0  0  0  0  0  0  0  0  0  0  0
    7.7691  -13.2938   19.6821 C   0  0  0  0  0  0  0  0  0  0  0  0
    8.3773  -14.4510   20.4008 C   0  0  2  0  0  0  0  0  0  0  0  0
    8.3118  -15.6913   19.7042 N   0  0  0  0  0  0  0  0  0  0  0  0
    7.8558  -14.5375   21.7936 C   0  0  0  0  0  0  0  0  0  0  0  0
    7.4231  -13.5035   22.3282 O   0  0  0  0  0  0  0  0  0  0  0  0
    7.8302  -15.7452   22.5385 N   0  0  0  0  0  0  0  0  0  0  0  0
    7.4189  -15.7713   23.9281 C   0  0  1  0  0  0  0  0  0  0  0  0
    7.0956  -17.1952   24.3000 C   0  0  0  0  0  0  0  0  0  0  0  0
    6.1487  -17.9124   23.4167 C   0  0  0  0  0  0  0  0  0  0  0  0
    5.9721  -19.3745   23.7498 C   0  0  0  0  0  0  0  0  0  0  0  0
    5.0734  -20.0292   22.7056 C   0  0  0  0  0  0  0  0  0  0  0  0
    4.8943  -21.4408   22.9917 N   0  0  0  0  0  0  0  0  0  0  0  0
    8.3682  -15.1253   24.8224 C   0  0  0  0  0  0  0  0  0  0  0  0
    9.6052  -15.3284   24.5525 O   0  0  0  0  0  0  0  0  0  0  0  0
    8.0924  -14.3188   25.9280 N   0  0  0  0  0  0  0  0  0  0  0  0
    6.6871  -13.9167   26.2543 C   0  0  0  0  0  0  0  0  0  0  0  0
    6.8397  -12.4842   26.6690 C   0  0  0  0  0  0  0  0  0  0  0  0
    8.2012  -12.3958   27.2680 C   0  0  0  0  0  0  0  0  0  0  0  0
    8.8814  -13.7027   26.9644 C   0  0  1  0  0  0  0  0  0  0  0  0
    8.9501  -14.5344   28.1860 C   0  0  0  0  0  0  0  0  0  0  0  0
    8.1541  -15.6516   28.2789 O   0  0  0  0  0  0  0  0  0  0  0  0
    9.7215  -14.2135   29.1053 O   0  0  0  0  0  0  0  0  0  0  0  0
  2  1  1  0
  2  3  2  0
  4  5  1  0
  4  2  1  0
  6  7  1  6
  6  5  1  0
  8  6  1  0
  8  9  2  0
 10  8  1  0
 11 10  1  0
 12 13  1  0
 11 12  1  1
 13 14  1  0
 14 15  1  0
 16 15  1  0
 17 11  1  0
 18 17  2  0
 19 17  1  0
 19 23  1  0
 20 19  1  0
 20 21  1  0
 21 22  1  0
 23 22  1  0
 24 25  1  0
 23 24  1  1
 26 24  2  0
M  END
$$$$
