QKP.pdb
     RDKit          3D

 26 26  0  0  1  0  0  0  0  0999 V2000
   11.6993  -14.6285   21.0760 N   0  0  0  0  0  0  0  0  0  0  0  0
   11.8664  -14.0461   19.7744 C   0  0  0  0  0  0  0  0  0  0  0  0
   12.9775  -14.2375   19.2313 O   0  0  0  0  0  0  0  0  0  0  0  0
   10.7658  -13.2806   19.1709 C   0  0  0  0  0  0  0  0  0  0  0  0
    9.5030  -13.2039   19.9385 C   0  0  0  0  0  0  0  0  0  0  0  0
    8.6002  -14.3851   19.8129 C   0  0  2  0  0  0  0  0  0  0  0  0
    7.8516  -14.4418   18.6028 N   0  0  0  0  0  0  0  0  0  0  0  0
    7.7524  -14.5301   21.0292 C   0  0  0  0  0  0  0  0  0  0  0  0
    6.6488  -13.9609   21.0521 O   0  0  0  0  0  0  0  0  0  0  0  0
    8.1460  -15.2875   22.1630 N   0  0  0  0  0  0  0  0  0  0  0  0
    7.4361  -15.1923   23.4231 C   0  0  1  0  0  0  0  0  0  0  0  0
    6.8151  -16.5327   23.7197 C   0  0  0  0  0  0  0  0  0  0  0  0
    7.7134  -17.5718   24.2718 C   0  0  0  0  0  0  0  0  0  0  0  0
    7.0421  -18.8982   24.5365 C   0  0  0  0  0  0  0  0  0  0  0  0
    8.0563  -19.8725   25.1273 C   0  0  0  0  0  0  0  0  0  0  0  0
    7.5373  -20.4872   26.3354 N   0  0  0  0  0  0  0  0  0  0  0  0
    8.2524  -14.6637   24.5060 C   0  0  0  0  0  0  0  0  0  0  0  0
    9.5166  -14.8357   24.3774 O   0  0  0  0  0  0  0  0  0  0  0  0
    7.8244  -13.9984   25.6563 N   0  0  0  0  0  0  0  0  0  0  0  0
    6.3653  -13.8436   25.9563 C   0  0  0  0  0  0  0  0  0  0  0  0
    6.2813  -12.4417   26.4806 C   0  0  0  0  0  0  0  0  0  0  0  0
    7.5957  -12.1927   27.1369 C   0  0  0  0  0  0  0  0  0  0  0  0
    8.4794  -13.3518   26.7649 C   0  0  1  0  0  0  0  0  0  0  0  0
    8.6439  -14.2565   27.9240 C   0  0  0  0  0  0  0  0  0  0  0  0
    7.9709  -15.4552   27.9363 O   0  0  0  0  0  0  0  0  0  0  0  0
    9.3836  -13.9221   28.8643 O   0  0  0  0  0  0  0  0  0  0  0  0
  2  1  1  0
  2  3  2  0
  4  5  1  0
  4  2  1  0
  6  7  1  6
  6  5  1  0
  8  6  1  0
  8  9  2  0
 10  8  1  0
 11 10  1  0
 12 13  1  0
 11 12  1  1
 13 14  1  0
 14 15  1  0
 16 15  1  0
 17 11  1  0
 18 17  2  0
 19 17  1  0
 19 23  1  0
 20 19  1  0
 20 21  1  0
 21 22  1  0
 23 22  1  0
 24 25  1  0
 23 24  1  1
 26 24  2  0
M  END
$$$$
