QKP.pdb
     RDKit          3D

 26 26  0  0  1  0  0  0  0  0999 V2000
    9.6331  -22.6962   20.8336 N   0  0  0  0  0  0  0  0  0  0  0  0
    9.6876  -22.7293   19.3994 C   0  0  0  0  0  0  0  0  0  0  0  0
   10.3685  -23.6541   18.9021 O   0  0  0  0  0  0  0  0  0  0  0  0
    8.9703  -21.7111   18.6182 C   0  0  0  0  0  0  0  0  0  0  0  0
    8.2432  -20.6714   19.3798 C   0  0  0  0  0  0  0  0  0  0  0  0
    8.3472  -19.2852   18.8381 C   0  0  2  0  0  0  0  0  0  0  0  0
    8.9839  -19.1836   17.5684 N   0  0  0  0  0  0  0  0  0  0  0  0
    8.9285  -18.3656   19.8558 C   0  0  0  0  0  0  0  0  0  0  0  0
   10.1335  -18.4780   20.1347 O   0  0  0  0  0  0  0  0  0  0  0  0
    8.1708  -17.3675   20.5220 N   0  0  0  0  0  0  0  0  0  0  0  0
    8.7551  -16.5325   21.5526 C   0  0  1  0  0  0  0  0  0  0  0  0
    7.8217  -15.3789   21.8137 C   0  0  0  0  0  0  0  0  0  0  0  0
    8.1214  -14.1114   21.1101 C   0  0  0  0  0  0  0  0  0  0  0  0
    7.4830  -13.9901   19.7471 C   0  0  0  0  0  0  0  0  0  0  0  0
    7.9770  -12.7180   19.0655 C   0  0  0  0  0  0  0  0  0  0  0  0
    7.4756  -12.6335   17.7061 N   0  0  0  0  0  0  0  0  0  0  0  0
    9.1335  -17.2720   22.7478 C   0  0  0  0  0  0  0  0  0  0  0  0
    8.4061  -18.2931   23.0171 O   0  0  0  0  0  0  0  0  0  0  0  0
   10.1847  -17.0024   23.6259 N   0  0  0  0  0  0  0  0  0  0  0  0
   10.9922  -15.7478   23.4955 C   0  0  0  0  0  0  0  0  0  0  0  0
   12.3892  -16.2236   23.7591 C   0  0  0  0  0  0  0  0  0  0  0  0
   12.2386  -17.3700   24.6990 C   0  0  0  0  0  0  0  0  0  0  0  0
   10.7671  -17.6764   24.7585 C   0  0  1  0  0  0  0  0  0  0  0  0
   10.2025  -17.2054   26.0424 C   0  0  0  0  0  0  0  0  0  0  0  0
    9.4125  -16.0802   26.0517 O   0  0  0  0  0  0  0  0  0  0  0  0
   10.4489  -17.8297   27.0878 O   0  0  0  0  0  0  0  0  0  0  0  0
  2  1  1  0
  2  3  2  0
  4  5  1  0
  4  2  1  0
  6  7  1  6
  6  5  1  0
  8  6  1  0
  8  9  2  0
 10  8  1  0
 11 10  1  0
 12 13  1  0
 11 12  1  1
 13 14  1  0
 14 15  1  0
 16 15  1  0
 17 11  1  0
 18 17  2  0
 19 17  1  0
 19 23  1  0
 20 19  1  0
 20 21  1  0
 21 22  1  0
 23 22  1  0
 24 25  1  0
 23 24  1  1
 26 24  2  0
M  END
$$$$
