QKP.pdb
     RDKit          3D

 26 26  0  0  1  0  0  0  0  0999 V2000
   14.6737  -18.1183   23.2026 N   0  0  0  0  0  0  0  0  0  0  0  0
   14.4231  -18.7392   21.9326 C   0  0  0  0  0  0  0  0  0  0  0  0
   15.2681  -19.5859   21.5648 O   0  0  0  0  0  0  0  0  0  0  0  0
   13.2330  -18.3599   21.1572 C   0  0  0  0  0  0  0  0  0  0  0  0
   12.3530  -17.3248   21.7436 C   0  0  0  0  0  0  0  0  0  0  0  0
   11.1438  -16.9777   20.9415 C   0  0  2  0  0  0  0  0  0  0  0  0
   11.4143  -16.4350   19.6530 N   0  0  0  0  0  0  0  0  0  0  0  0
   10.2058  -16.1404   21.7405 C   0  0  0  0  0  0  0  0  0  0  0  0
   10.4606  -14.9326   21.8764 O   0  0  0  0  0  0  0  0  0  0  0  0
    9.0351  -16.6575   22.3538 N   0  0  0  0  0  0  0  0  0  0  0  0
    8.2465  -15.8631   23.2746 C   0  0  1  0  0  0  0  0  0  0  0  0
    6.9040  -16.5260   23.4429 C   0  0  0  0  0  0  0  0  0  0  0  0
    6.1301  -16.7792   22.2066 C   0  0  0  0  0  0  0  0  0  0  0  0
    5.4556  -18.1293   22.1599 C   0  0  0  0  0  0  0  0  0  0  0  0
    4.6182  -18.2359   20.8894 C   0  0  0  0  0  0  0  0  0  0  0  0
    3.9125  -19.5033   20.8419 N   0  0  0  0  0  0  0  0  0  0  0  0
    8.9318  -15.5840   24.5280 C   0  0  0  0  0  0  0  0  0  0  0  0
   10.0400  -16.2057   24.7002 O   0  0  0  0  0  0  0  0  0  0  0  0
    8.5280  -14.7275   25.5538 N   0  0  0  0  0  0  0  0  0  0  0  0
    7.1517  -14.1370   25.5645 C   0  0  0  0  0  0  0  0  0  0  0  0
    7.3980  -12.7298   26.0187 C   0  0  0  0  0  0  0  0  0  0  0  0
    8.5925  -12.8111   26.9059 C   0  0  0  0  0  0  0  0  0  0  0  0
    9.1428  -14.2019   26.7462 C   0  0  1  0  0  0  0  0  0  0  0  0
    8.8279  -15.0124   27.9432 C   0  0  0  0  0  0  0  0  0  0  0  0
    9.5549  -14.8154   29.0933 O   0  0  0  0  0  0  0  0  0  0  0  0
    7.9161  -15.8547   27.8925 O   0  0  0  0  0  0  0  0  0  0  0  0
  2  1  1  0
  2  3  2  0
  4  5  1  0
  4  2  1  0
  6  7  1  6
  6  5  1  0
  8  6  1  0
  8  9  2  0
 10  8  1  0
 11 10  1  0
 12 13  1  0
 11 12  1  1
 13 14  1  0
 14 15  1  0
 16 15  1  0
 17 11  1  0
 18 17  2  0
 19 17  1  0
 19 23  1  0
 20 19  1  0
 20 21  1  0
 21 22  1  0
 23 22  1  0
 24 25  1  0
 23 24  1  1
 26 24  2  0
M  END
$$$$
