TPR.pdb
     RDKit          3D

 26 26  0  0  1  0  0  0  0  0999 V2000
   21.5608  -16.4768  -15.7093 C   0  0  0  0  0  0  0  0  0  0  0  0
   21.5915  -16.2942  -17.2046 C   0  0  1  0  0  0  0  0  0  0  0  0
   20.7392  -15.2182  -17.5212 O   0  0  0  0  0  0  0  0  0  0  0  0
   22.9789  -15.9423  -17.6423 C   0  0  2  0  0  0  0  0  0  0  0  0
   22.9723  -15.5312  -19.0011 N   0  0  0  0  0  0  0  0  0  0  0  0
   23.9748  -16.9742  -17.2900 C   0  0  0  0  0  0  0  0  0  0  0  0
   23.9675  -18.0123  -17.9994 O   0  0  0  0  0  0  0  0  0  0  0  0
   24.9230  -16.8824  -16.2266 N   0  0  0  0  0  0  0  0  0  0  0  0
   25.1663  -15.7638  -15.3437 C   0  0  0  0  0  0  0  0  0  0  0  0
   26.2675  -16.2378  -14.3869 C   0  0  0  0  0  0  0  0  0  0  0  0
   26.9950  -17.2973  -15.2408 C   0  0  0  0  0  0  0  0  0  0  0  0
   25.7849  -17.9571  -15.8785 C   0  0  1  0  0  0  0  0  0  0  0  0
   25.1622  -18.8871  -14.8846 C   0  0  0  0  0  0  0  0  0  0  0  0
   24.2899  -18.6118  -14.0612 O   0  0  0  0  0  0  0  0  0  0  0  0
   23.6847  -27.4994  -15.0589 N   0  0  0  0  0  0  0  0  0  0  0  0
   22.7710  -26.8714  -14.1706 C   0  0  0  0  0  0  0  0  0  0  0  0
   22.0818  -27.6576  -13.3723 N   0  0  0  0  0  0  0  0  0  0  0  0
   22.5420  -25.4849  -14.0715 N   0  0  0  0  0  0  0  0  0  0  0  0
   23.2890  -24.5703  -14.8939 C   0  0  0  0  0  0  0  0  0  0  0  0
   23.7506  -23.3965  -14.0081 C   0  0  0  0  0  0  0  0  0  0  0  0
   24.4360  -22.3668  -14.8410 C   0  0  0  0  0  0  0  0  0  0  0  0
   24.9557  -21.2407  -14.0091 C   0  0  2  0  0  0  0  0  0  0  0  0
   25.6360  -20.2570  -14.8816 N   0  0  0  0  0  0  0  0  0  0  0  0
   26.0588  -21.8011  -13.1327 C   0  0  0  0  0  0  0  0  0  0  0  0
   27.3811  -21.6688  -13.4733 O   0  0  0  0  0  0  0  0  0  0  0  0
   25.7215  -22.3943  -12.0925 O   0  0  0  0  0  0  0  0  0  0  0  0
  2  1  1  1
  2  3  1  0
  2  4  1  0
  4  5  1  6
  6  8  1  0
  6  4  1  0
  7  6  2  0
  8  9  1  0
 10  9  1  0
 10 11  1  0
 12  8  1  0
 12 13  1  1
 12 11  1  0
 13 14  2  0
 16 15  1  0
 17 16  2  0
 18 16  1  0
 19 18  1  0
 20 19  1  0
 20 21  1  0
 22 21  1  6
 22 24  1  0
 23 22  1  0
 23 13  1  0
 24 26  2  0
 24 25  1  0
M  END
$$$$
