TPR.pdb
     RDKit          3D

 26 26  0  0  1  0  0  0  0  0999 V2000
   24.3016  -20.9385  -15.8519 C   0  0  0  0  0  0  0  0  0  0  0  0
   23.5720  -19.6279  -15.9936 C   0  0  1  0  0  0  0  0  0  0  0  0
   23.7659  -19.1713  -17.3121 O   0  0  0  0  0  0  0  0  0  0  0  0
   22.1060  -19.8397  -15.7779 C   0  0  2  0  0  0  0  0  0  0  0  0
   21.4071  -18.6147  -15.9395 N   0  0  0  0  0  0  0  0  0  0  0  0
   21.8067  -20.5899  -14.5417 C   0  0  0  0  0  0  0  0  0  0  0  0
   22.2479  -21.7661  -14.4903 O   0  0  0  0  0  0  0  0  0  0  0  0
   21.0691  -20.0895  -13.4263 N   0  0  0  0  0  0  0  0  0  0  0  0
   20.4966  -18.7732  -13.2548 C   0  0  0  0  0  0  0  0  0  0  0  0
   19.8004  -18.8115  -11.8886 C   0  0  0  0  0  0  0  0  0  0  0  0
   20.6152  -19.8922  -11.1477 C   0  0  0  0  0  0  0  0  0  0  0  0
   20.7787  -20.8850  -12.2853 C   0  0  1  0  0  0  0  0  0  0  0  0
   19.5058  -21.6573  -12.4390 C   0  0  0  0  0  0  0  0  0  0  0  0
   18.5717  -21.3983  -13.1973 O   0  0  0  0  0  0  0  0  0  0  0  0
   19.2034  -25.1302   -6.2453 N   0  0  0  0  0  0  0  0  0  0  0  0
   17.8758  -25.5873   -6.4618 C   0  0  0  0  0  0  0  0  0  0  0  0
   17.0441  -25.5015   -5.4463 N   0  0  0  0  0  0  0  0  0  0  0  0
   17.3763  -26.1212   -7.6659 N   0  0  0  0  0  0  0  0  0  0  0  0
   18.1964  -26.1240   -8.8484 C   0  0  0  0  0  0  0  0  0  0  0  0
   17.9652  -24.7958   -9.5954 C   0  0  0  0  0  0  0  0  0  0  0  0
   18.3121  -24.9537  -11.0371 C   0  0  0  0  0  0  0  0  0  0  0  0
   18.1429  -23.6742  -11.7887 C   0  0  2  0  0  0  0  0  0  0  0  0
   19.3468  -22.8323  -11.6052 N   0  0  0  0  0  0  0  0  0  0  0  0
   17.0285  -22.8998  -11.1124 C   0  0  0  0  0  0  0  0  0  0  0  0
   15.7094  -23.1495  -11.3943 O   0  0  0  0  0  0  0  0  0  0  0  0
   17.3534  -22.0207  -10.2943 O   0  0  0  0  0  0  0  0  0  0  0  0
  2  1  1  6
  2  3  1  0
  2  4  1  0
  4  5  1  1
  6  8  1  0
  6  4  1  0
  7  6  2  0
  8  9  1  0
 10  9  1  0
 10 11  1  0
 12  8  1  0
 12 13  1  6
 12 11  1  0
 13 14  2  0
 16 15  1  0
 17 16  2  0
 18 16  1  0
 19 18  1  0
 20 19  1  0
 20 21  1  0
 22 21  1  1
 22 24  1  0
 23 22  1  0
 23 13  1  0
 24 26  2  0
 24 25  1  0
M  END
$$$$
