TPR.pdb
     RDKit          3D

 26 26  0  0  1  0  0  0  0  0999 V2000
   25.7110  -14.0664  -16.3284 C   0  0  0  0  0  0  0  0  0  0  0  0
   25.5943  -15.3445  -15.5391 C   0  0  1  0  0  0  0  0  0  0  0  0
   24.5210  -15.1944  -14.6391 O   0  0  0  0  0  0  0  0  0  0  0  0
   25.2821  -16.4813  -16.4613 C   0  0  2  0  0  0  0  0  0  0  0  0
   24.1381  -16.1747  -17.2438 N   0  0  0  0  0  0  0  0  0  0  0  0
   25.2585  -17.7899  -15.7773 C   0  0  0  0  0  0  0  0  0  0  0  0
   24.1214  -18.2340  -15.4762 O   0  0  0  0  0  0  0  0  0  0  0  0
   26.4058  -18.5696  -15.4396 N   0  0  0  0  0  0  0  0  0  0  0  0
   27.7937  -18.2823  -15.7244 C   0  0  0  0  0  0  0  0  0  0  0  0
   28.5808  -19.4446  -15.1060 C   0  0  0  0  0  0  0  0  0  0  0  0
   27.5407  -20.5839  -15.1372 C   0  0  0  0  0  0  0  0  0  0  0  0
   26.3125  -19.7928  -14.7226 C   0  0  1  0  0  0  0  0  0  0  0  0
   26.3476  -19.5878  -13.2404 C   0  0  0  0  0  0  0  0  0  0  0  0
   26.9992  -18.7430  -12.6269 O   0  0  0  0  0  0  0  0  0  0  0  0
   20.0907  -22.3351   -7.8433 N   0  0  0  0  0  0  0  0  0  0  0  0
   20.4078  -21.4290   -8.8905 C   0  0  0  0  0  0  0  0  0  0  0  0
   19.4143  -21.0347   -9.6572 N   0  0  0  0  0  0  0  0  0  0  0  0
   21.6893  -20.9182   -9.1757 N   0  0  0  0  0  0  0  0  0  0  0  0
   22.8326  -21.3861   -8.4375 C   0  0  0  0  0  0  0  0  0  0  0  0
   24.0793  -20.6512   -8.9679 C   0  0  0  0  0  0  0  0  0  0  0  0
   24.2125  -20.8667  -10.4375 C   0  0  0  0  0  0  0  0  0  0  0  0
   25.4581  -20.2431  -10.9759 C   0  0  2  0  0  0  0  0  0  0  0  0
   25.5357  -20.4788  -12.4354 N   0  0  0  0  0  0  0  0  0  0  0  0
   26.6309  -21.0137  -10.4017 C   0  0  0  0  0  0  0  0  0  0  0  0
   27.1419  -20.7218   -9.1624 O   0  0  0  0  0  0  0  0  0  0  0  0
   27.1209  -21.9196  -11.0995 O   0  0  0  0  0  0  0  0  0  0  0  0
  2  1  1  6
  2  3  1  0
  2  4  1  0
  4  5  1  1
  6  8  1  0
  6  4  1  0
  7  6  2  0
  8  9  1  0
 10  9  1  0
 10 11  1  0
 12  8  1  0
 12 13  1  1
 12 11  1  0
 13 14  2  0
 16 15  1  0
 17 16  2  0
 18 16  1  0
 19 18  1  0
 20 19  1  0
 20 21  1  0
 22 21  1  1
 22 24  1  0
 23 22  1  0
 23 13  1  0
 24 26  2  0
 24 25  1  0
M  END
$$$$
