TPR.pdb
     RDKit          3D

 26 26  0  0  1  0  0  0  0  0999 V2000
   26.2938  -18.8618  -16.7870 C   0  0  0  0  0  0  0  0  0  0  0  0
   26.6108  -20.0912  -17.5983 C   0  0  1  0  0  0  0  0  0  0  0  0
   27.3582  -19.6818  -18.7200 O   0  0  0  0  0  0  0  0  0  0  0  0
   27.4504  -21.0288  -16.7880 C   0  0  2  0  0  0  0  0  0  0  0  0
   27.9517  -22.0706  -17.6117 N   0  0  0  0  0  0  0  0  0  0  0  0
   26.7922  -21.4603  -15.5386 C   0  0  0  0  0  0  0  0  0  0  0  0
   26.0343  -22.4592  -15.6315 O   0  0  0  0  0  0  0  0  0  0  0  0
   26.9487  -20.8401  -14.2621 N   0  0  0  0  0  0  0  0  0  0  0  0
   27.6602  -19.6225  -13.9443 C   0  0  0  0  0  0  0  0  0  0  0  0
   27.4702  -19.4273  -12.4348 C   0  0  0  0  0  0  0  0  0  0  0  0
   27.2597  -20.8774  -11.9515 C   0  0  0  0  0  0  0  0  0  0  0  0
   26.3716  -21.3746  -13.0787 C   0  0  1  0  0  0  0  0  0  0  0  0
   24.9781  -20.8781  -12.8506 C   0  0  0  0  0  0  0  0  0  0  0  0
   24.5068  -19.8037  -13.2224 O   0  0  0  0  0  0  0  0  0  0  0  0
   17.9067  -25.7904  -10.6186 N   0  0  0  0  0  0  0  0  0  0  0  0
   17.7972  -24.8151  -11.6458 C   0  0  0  0  0  0  0  0  0  0  0  0
   16.8601  -25.0053  -12.5492 N   0  0  0  0  0  0  0  0  0  0  0  0
   18.6021  -23.6666  -11.7782 N   0  0  0  0  0  0  0  0  0  0  0  0
   19.6461  -23.4040  -10.8232 C   0  0  0  0  0  0  0  0  0  0  0  0
   20.4332  -22.1680  -11.3012 C   0  0  0  0  0  0  0  0  0  0  0  0
   21.8619  -22.5293  -11.5296 C   0  0  0  0  0  0  0  0  0  0  0  0
   22.6666  -21.3492  -11.9658 C   0  0  2  0  0  0  0  0  0  0  0  0
   24.0856  -21.7463  -12.1087 N   0  0  0  0  0  0  0  0  0  0  0  0
   22.6617  -20.3543  -10.8216 C   0  0  0  0  0  0  0  0  0  0  0  0
   21.6599  -19.4274  -10.6827 O   0  0  0  0  0  0  0  0  0  0  0  0
   23.6059  -20.4030  -10.0131 O   0  0  0  0  0  0  0  0  0  0  0  0
  2  1  1  1
  2  3  1  0
  2  4  1  0
  4  5  1  6
  6  8  1  0
  6  4  1  0
  7  6  2  0
  8  9  1  0
 10  9  1  0
 10 11  1  0
 12  8  1  0
 12 13  1  1
 12 11  1  0
 13 14  2  0
 16 15  1  0
 17 16  2  0
 18 16  1  0
 19 18  1  0
 20 19  1  0
 20 21  1  0
 22 21  1  1
 22 24  1  0
 23 22  1  0
 23 13  1  0
 24 26  2  0
 24 25  1  0
M  END
$$$$
