TPR.pdb
     RDKit          3D

 26 26  0  0  1  0  0  0  0  0999 V2000
   28.6555  -17.9051  -17.6408 C   0  0  0  0  0  0  0  0  0  0  0  0
   28.1544  -18.5757  -16.3881 C   0  0  1  0  0  0  0  0  0  0  0  0
   26.7463  -18.5603  -16.4294 O   0  0  0  0  0  0  0  0  0  0  0  0
   28.6105  -20.0010  -16.3607 C   0  0  2  0  0  0  0  0  0  0  0  0
   28.3098  -20.6334  -17.5955 N   0  0  0  0  0  0  0  0  0  0  0  0
   28.1756  -20.7232  -15.1483 C   0  0  0  0  0  0  0  0  0  0  0  0
   27.2534  -21.5629  -15.3080 O   0  0  0  0  0  0  0  0  0  0  0  0
   28.7122  -20.5416  -13.8378 N   0  0  0  0  0  0  0  0  0  0  0  0
   29.8094  -19.6913  -13.4342 C   0  0  0  0  0  0  0  0  0  0  0  0
   29.9239  -19.8749  -11.9156 C   0  0  0  0  0  0  0  0  0  0  0  0
   29.3459  -21.2926  -11.7232 C   0  0  0  0  0  0  0  0  0  0  0  0
   28.1852  -21.2080  -12.6988 C   0  0  1  0  0  0  0  0  0  0  0  0
   27.0699  -20.4430  -12.0574 C   0  0  0  0  0  0  0  0  0  0  0  0
   26.9766  -19.2202  -11.9546 O   0  0  0  0  0  0  0  0  0  0  0  0
   18.7267  -21.9618  -13.3324 N   0  0  0  0  0  0  0  0  0  0  0  0
   19.7188  -21.0628  -13.8077 C   0  0  0  0  0  0  0  0  0  0  0  0
   19.5513  -20.5784  -15.0192 N   0  0  0  0  0  0  0  0  0  0  0  0
   20.8605  -20.6469  -13.0950 N   0  0  0  0  0  0  0  0  0  0  0  0
   21.0836  -21.1167  -11.7532 C   0  0  0  0  0  0  0  0  0  0  0  0
   22.3233  -20.3931  -11.1918 C   0  0  0  0  0  0  0  0  0  0  0  0
   23.5656  -21.0837  -11.6429 C   0  0  0  0  0  0  0  0  0  0  0  0
   24.7832  -20.5040  -11.0012 C   0  0  2  0  0  0  0  0  0  0  0  0
   25.9846  -21.2181  -11.4895 N   0  0  0  0  0  0  0  0  0  0  0  0
   24.7147  -20.8376   -9.5238 C   0  0  0  0  0  0  0  0  0  0  0  0
   23.9788  -20.0769   -8.6510 O   0  0  0  0  0  0  0  0  0  0  0  0
   25.3578  -21.8259   -9.1269 O   0  0  0  0  0  0  0  0  0  0  0  0
  2  1  1  6
  2  3  1  0
  2  4  1  0
  4  5  1  6
  6  8  1  0
  6  4  1  0
  7  6  2  0
  8  9  1  0
 10  9  1  0
 10 11  1  0
 12  8  1  0
 12 13  1  1
 12 11  1  0
 13 14  2  0
 16 15  1  0
 17 16  2  0
 18 16  1  0
 19 18  1  0
 20 19  1  0
 20 21  1  0
 22 21  1  6
 22 24  1  0
 23 22  1  0
 23 13  1  0
 24 26  2  0
 24 25  1  0
M  END
$$$$
