TPR.pdb
     RDKit          3D

 26 26  0  0  1  0  0  0  0  0999 V2000
   24.5440  -22.8142  -16.9827 C   0  0  0  0  0  0  0  0  0  0  0  0
   25.7848  -22.4400  -16.2143 C   0  0  1  0  0  0  0  0  0  0  0  0
   26.8937  -22.6850  -17.0478 O   0  0  0  0  0  0  0  0  0  0  0  0
   25.7545  -20.9801  -15.8854 C   0  0  2  0  0  0  0  0  0  0  0  0
   27.0355  -20.5517  -15.4486 N   0  0  0  0  0  0  0  0  0  0  0  0
   24.6226  -20.6080  -15.0131 C   0  0  0  0  0  0  0  0  0  0  0  0
   24.7987  -20.7765  -13.7796 O   0  0  0  0  0  0  0  0  0  0  0  0
   23.3710  -20.0839  -15.4574 N   0  0  0  0  0  0  0  0  0  0  0  0
   22.9311  -19.8585  -16.8159 C   0  0  0  0  0  0  0  0  0  0  0  0
   21.5028  -19.3133  -16.6916 C   0  0  0  0  0  0  0  0  0  0  0  0
   21.5345  -18.6562  -15.2959 C   0  0  0  0  0  0  0  0  0  0  0  0
   22.3368  -19.7127  -14.5565 C   0  0  1  0  0  0  0  0  0  0  0  0
   21.4339  -20.8590  -14.2229 C   0  0  0  0  0  0  0  0  0  0  0  0
   21.1566  -21.8154  -14.9461 O   0  0  0  0  0  0  0  0  0  0  0  0
   18.5526  -24.2807   -7.3671 N   0  0  0  0  0  0  0  0  0  0  0  0
   18.5428  -25.3339   -8.3205 C   0  0  0  0  0  0  0  0  0  0  0  0
   17.7365  -26.3453   -8.0813 N   0  0  0  0  0  0  0  0  0  0  0  0
   19.3185  -25.3866   -9.4952 N   0  0  0  0  0  0  0  0  0  0  0  0
   20.1074  -24.2496   -9.8899 C   0  0  0  0  0  0  0  0  0  0  0  0
   19.1571  -23.1863  -10.4745 C   0  0  0  0  0  0  0  0  0  0  0  0
   19.9411  -22.0218  -10.9773 C   0  0  0  0  0  0  0  0  0  0  0  0
   20.0779  -22.0493  -12.4643 C   0  0  2  0  0  0  0  0  0  0  0  0
   20.8120  -20.8448  -12.9137 N   0  0  0  0  0  0  0  0  0  0  0  0
   18.6873  -21.8885  -13.0466 C   0  0  0  0  0  0  0  0  0  0  0  0
   17.8686  -22.9694  -13.2551 O   0  0  0  0  0  0  0  0  0  0  0  0
   18.3149  -20.7375  -13.3370 O   0  0  0  0  0  0  0  0  0  0  0  0
  2  1  1  6
  2  3  1  0
  2  4  1  0
  4  5  1  1
  6  8  1  0
  6  4  1  0
  7  6  2  0
  8  9  1  0
 10  9  1  0
 10 11  1  0
 12  8  1  0
 12 13  1  6
 12 11  1  0
 13 14  2  0
 16 15  1  0
 17 16  2  0
 18 16  1  0
 19 18  1  0
 20 19  1  0
 20 21  1  0
 22 21  1  1
 22 24  1  0
 23 22  1  0
 23 13  1  0
 24 26  2  0
 24 25  1  0
M  END
$$$$
