TPR.pdb
     RDKit          3D

 26 26  0  0  1  0  0  0  0  0999 V2000
   26.6611  -18.1425  -14.6429 C   0  0  0  0  0  0  0  0  0  0  0  0
   26.9820  -19.2170  -15.6492 C   0  0  1  0  0  0  0  0  0  0  0  0
   28.1555  -18.8313  -16.3265 O   0  0  0  0  0  0  0  0  0  0  0  0
   27.2480  -20.5089  -14.9417 C   0  0  2  0  0  0  0  0  0  0  0  0
   27.8293  -21.4448  -15.8370 N   0  0  0  0  0  0  0  0  0  0  0  0
   26.0857  -20.9955  -14.1717 C   0  0  0  0  0  0  0  0  0  0  0  0
   25.1861  -21.5704  -14.8360 O   0  0  0  0  0  0  0  0  0  0  0  0
   25.9118  -20.8634  -12.7608 N   0  0  0  0  0  0  0  0  0  0  0  0
   26.7783  -20.1971  -11.8147 C   0  0  0  0  0  0  0  0  0  0  0  0
   26.0820  -20.3467  -10.4561 C   0  0  0  0  0  0  0  0  0  0  0  0
   25.2646  -21.6395  -10.6594 C   0  0  0  0  0  0  0  0  0  0  0  0
   24.7834  -21.3931  -12.0786 C   0  0  1  0  0  0  0  0  0  0  0  0
   23.6381  -20.4302  -12.0400 C   0  0  0  0  0  0  0  0  0  0  0  0
   23.6995  -19.2170  -11.8424 O   0  0  0  0  0  0  0  0  0  0  0  0
   21.8912  -16.1628  -17.8155 N   0  0  0  0  0  0  0  0  0  0  0  0
   20.5634  -16.5868  -17.5404 C   0  0  0  0  0  0  0  0  0  0  0  0
   19.5916  -15.9014  -18.1028 N   0  0  0  0  0  0  0  0  0  0  0  0
   20.2005  -17.6740  -16.7215 N   0  0  0  0  0  0  0  0  0  0  0  0
   21.1821  -18.2968  -15.8733 C   0  0  0  0  0  0  0  0  0  0  0  0
   20.5530  -19.5643  -15.2625 C   0  0  0  0  0  0  0  0  0  0  0  0
   21.5700  -20.3039  -14.4609 C   0  0  0  0  0  0  0  0  0  0  0  0
   21.3209  -20.1697  -12.9945 C   0  0  2  0  0  0  0  0  0  0  0  0
   22.3128  -20.9784  -12.2504 N   0  0  0  0  0  0  0  0  0  0  0  0
   19.9898  -20.8341  -12.7021 C   0  0  0  0  0  0  0  0  0  0  0  0
   18.8780  -20.0987  -12.3780 O   0  0  0  0  0  0  0  0  0  0  0  0
   19.9419  -22.0759  -12.7595 O   0  0  0  0  0  0  0  0  0  0  0  0
  2  1  1  1
  2  3  1  0
  2  4  1  0
  4  5  1  6
  6  8  1  0
  6  4  1  0
  7  6  2  0
  8  9  1  0
 10  9  1  0
 10 11  1  0
 12  8  1  0
 12 13  1  1
 12 11  1  0
 13 14  2  0
 16 15  1  0
 17 16  2  0
 18 16  1  0
 19 18  1  0
 20 19  1  0
 20 21  1  0
 22 21  1  6
 22 24  1  0
 23 22  1  0
 23 13  1  0
 24 26  2  0
 24 25  1  0
M  END
$$$$
