TPR.pdb
     RDKit          3D

 26 26  0  0  1  0  0  0  0  0999 V2000
   27.4511  -17.6514  -16.0201 C   0  0  0  0  0  0  0  0  0  0  0  0
   27.4811  -18.5642  -17.2184 C   0  0  1  0  0  0  0  0  0  0  0  0
   28.0897  -17.8606  -18.2762 O   0  0  0  0  0  0  0  0  0  0  0  0
   28.3126  -19.7710  -16.9137 C   0  0  2  0  0  0  0  0  0  0  0  0
   28.5382  -20.5198  -18.0984 N   0  0  0  0  0  0  0  0  0  0  0  0
   27.8130  -20.5390  -15.7556 C   0  0  0  0  0  0  0  0  0  0  0  0
   26.8657  -21.3325  -15.9878 O   0  0  0  0  0  0  0  0  0  0  0  0
   28.3144  -20.4482  -14.4220 N   0  0  0  0  0  0  0  0  0  0  0  0
   29.3333  -19.5586  -13.9117 C   0  0  0  0  0  0  0  0  0  0  0  0
   29.4405  -19.8843  -12.4166 C   0  0  0  0  0  0  0  0  0  0  0  0
   28.9765  -21.3555  -12.3785 C   0  0  0  0  0  0  0  0  0  0  0  0
   27.8268  -21.2653  -13.3666 C   0  0  1  0  0  0  0  0  0  0  0  0
   26.6442  -20.6594  -12.6776 C   0  0  0  0  0  0  0  0  0  0  0  0
   26.5178  -19.4887  -12.3196 O   0  0  0  0  0  0  0  0  0  0  0  0
   18.4923  -20.5839  -14.5385 N   0  0  0  0  0  0  0  0  0  0  0  0
   18.8961  -21.4108  -13.4561 C   0  0  0  0  0  0  0  0  0  0  0  0
   18.4909  -22.6620  -13.4802 N   0  0  0  0  0  0  0  0  0  0  0  0
   19.6905  -21.0071  -12.3651 N   0  0  0  0  0  0  0  0  0  0  0  0
   21.0801  -20.6901  -12.5634 C   0  0  0  0  0  0  0  0  0  0  0  0
   21.8908  -21.3641  -11.4391 C   0  0  0  0  0  0  0  0  0  0  0  0
   23.1645  -21.9134  -11.9867 C   0  0  0  0  0  0  0  0  0  0  0  0
   24.2998  -20.9603  -11.8048 C   0  0  2  0  0  0  0  0  0  0  0  0
   25.5285  -21.5400  -12.3930 N   0  0  0  0  0  0  0  0  0  0  0  0
   24.5878  -20.8829  -10.3182 C   0  0  0  0  0  0  0  0  0  0  0  0
   25.2850  -21.8715   -9.6712 O   0  0  0  0  0  0  0  0  0  0  0  0
   24.1619  -19.8904   -9.7008 O   0  0  0  0  0  0  0  0  0  0  0  0
  2  1  1  1
  2  3  1  0
  2  4  1  0
  4  5  1  6
  6  8  1  0
  6  4  1  0
  7  6  2  0
  8  9  1  0
 10  9  1  0
 10 11  1  0
 12  8  1  0
 12 13  1  1
 12 11  1  0
 13 14  2  0
 16 15  1  0
 17 16  2  0
 18 16  1  0
 19 18  1  0
 20 19  1  0
 20 21  1  0
 22 21  1  1
 22 24  1  0
 23 22  1  0
 23 13  1  0
 24 26  2  0
 24 25  1  0
M  END
$$$$
