PVS.pdb
     RDKit          3D

 21 21  0  0  1  0  0  0  0  0999 V2000
   23.4211  -15.2515  -18.9375 N   0  0  0  0  0  0  0  0  0  0  0  0
   23.0503  -15.8406  -20.1893 C   0  0  0  0  0  0  0  0  0  0  0  0
   22.5966  -14.7383  -21.0994 C   0  0  0  0  0  0  0  0  0  0  0  0
   22.4690  -13.5580  -20.1570 C   0  0  0  0  0  0  0  0  0  0  0  0
   23.5932  -13.8528  -19.1784 C   0  0  1  0  0  0  0  0  0  0  0  0
   23.5311  -13.0254  -17.9707 C   0  0  0  0  0  0  0  0  0  0  0  0
   22.7279  -13.3536  -17.0610 O   0  0  0  0  0  0  0  0  0  0  0  0
   25.5632   -9.9264  -14.7428 C   0  0  0  0  0  0  0  0  0  0  0  0
   25.6157  -10.6591  -16.0476 C   0  0  2  0  0  0  0  0  0  0  0  0
   26.3232   -9.7946  -17.0835 C   0  0  0  0  0  0  0  0  0  0  0  0
   24.2444  -11.0814  -16.5413 C   0  0  2  0  0  0  0  0  0  0  0  0
   24.3308  -11.8580  -17.7557 N   0  0  0  0  0  0  0  0  0  0  0  0
   23.4034   -9.8812  -16.6831 C   0  0  0  0  0  0  0  0  0  0  0  0
   23.5027   -9.2421  -17.7699 O   0  0  0  0  0  0  0  0  0  0  0  0
   20.6090   -8.7276  -13.9719 O   0  0  0  0  0  0  0  0  0  0  0  0
   20.3176   -8.3698  -15.3076 C   0  0  0  0  0  0  0  0  0  0  0  0
   21.6563   -8.2659  -16.0066 C   0  0  2  0  0  0  0  0  0  0  0  0
   22.5122   -9.3960  -15.7214 N   0  0  0  0  0  0  0  0  0  0  0  0
   22.3232   -7.0237  -15.5021 C   0  0  0  0  0  0  0  0  0  0  0  0
   21.8122   -5.7668  -15.7926 O   0  0  0  0  0  0  0  0  0  0  0  0
   23.3545   -7.0900  -14.8083 O   0  0  0  0  0  0  0  0  0  0  0  0
  1  5  1  0
  2  3  1  0
  2  1  1  0
  3  4  1  0
  4  5  1  0
  5  6  1  1
  6  7  2  0
  9  8  1  1
  9 11  1  0
 10  9  1  0
 11 13  1  0
 12  6  1  0
 11 12  1  6
 13 18  1  0
 13 14  2  0
 17 16  1  1
 16 15  1  0
 17 19  1  0
 18 17  1  0
 19 21  2  0
 19 20  1  0
M  END
$$$$
