PVS.pdb
     RDKit          3D

 21 21  0  0  1  0  0  0  0  0999 V2000
   22.8869  -20.6569  -14.9462 N   0  0  0  0  0  0  0  0  0  0  0  0
   22.6912  -19.9274  -16.1632 C   0  0  0  0  0  0  0  0  0  0  0  0
   21.3719  -19.2204  -16.0679 C   0  0  0  0  0  0  0  0  0  0  0  0
   20.7404  -19.8547  -14.8446 C   0  0  0  0  0  0  0  0  0  0  0  0
   21.9707  -20.1146  -13.9920 C   0  0  1  0  0  0  0  0  0  0  0  0
   21.7008  -20.9963  -12.8533 C   0  0  0  0  0  0  0  0  0  0  0  0
   21.7796  -22.2390  -13.0266 O   0  0  0  0  0  0  0  0  0  0  0  0
   22.9768  -20.4717   -9.0531 C   0  0  0  0  0  0  0  0  0  0  0  0
   21.5225  -20.8220   -9.1176 C   0  0  2  0  0  0  0  0  0  0  0  0
   21.1753  -21.7498   -7.9601 C   0  0  0  0  0  0  0  0  0  0  0  0
   21.1242  -21.4406  -10.4447 C   0  0  2  0  0  0  0  0  0  0  0  0
   21.3503  -20.5332  -11.5451 N   0  0  0  0  0  0  0  0  0  0  0  0
   19.7276  -21.8978  -10.3522 C   0  0  0  0  0  0  0  0  0  0  0  0
   18.8317  -21.0082  -10.4260 O   0  0  0  0  0  0  0  0  0  0  0  0
   18.7708  -25.7322  -10.4812 O   0  0  0  0  0  0  0  0  0  0  0  0
   17.6771  -24.9253  -10.8682 C   0  0  0  0  0  0  0  0  0  0  0  0
   17.9143  -23.5756  -10.2252 C   0  0  2  0  0  0  0  0  0  0  0  0
   19.3166  -23.2243  -10.1908 N   0  0  0  0  0  0  0  0  0  0  0  0
   17.4098  -23.6615   -8.8180 C   0  0  0  0  0  0  0  0  0  0  0  0
   16.0566  -23.8101   -8.5490 O   0  0  0  0  0  0  0  0  0  0  0  0
   18.1949  -23.6015   -7.8540 O   0  0  0  0  0  0  0  0  0  0  0  0
  1  5  1  0
  2  3  1  0
  2  1  1  0
  3  4  1  0
  4  5  1  0
  5  6  1  1
  6  7  2  0
  9  8  1  6
  9 11  1  0
 10  9  1  0
 11 13  1  0
 12  6  1  0
 11 12  1  6
 13 18  1  0
 13 14  2  0
 17 16  1  1
 16 15  1  0
 17 19  1  0
 18 17  1  0
 19 21  2  0
 19 20  1  0
M  END
$$$$
