PVS.pdb
     RDKit          3D

 21 21  0  0  1  0  0  0  0  0999 V2000
   24.7469  -12.8092  -17.7409 N   0  0  0  0  0  0  0  0  0  0  0  0
   25.9173  -13.5779  -17.4396 C   0  0  0  0  0  0  0  0  0  0  0  0
   26.5016  -13.0448  -16.1653 C   0  0  0  0  0  0  0  0  0  0  0  0
   25.7365  -11.7521  -15.9620 C   0  0  0  0  0  0  0  0  0  0  0  0
   24.3820  -12.1301  -16.5370 C   0  0  1  0  0  0  0  0  0  0  0  0
   23.5063  -10.9736  -16.7439 C   0  0  0  0  0  0  0  0  0  0  0  0
   23.6092  -10.3297  -17.8188 O   0  0  0  0  0  0  0  0  0  0  0  0
   19.7524  -10.7449  -16.9363 C   0  0  0  0  0  0  0  0  0  0  0  0
   20.2091   -9.7544  -15.9105 C   0  0  2  0  0  0  0  0  0  0  0  0
   19.3321   -8.5109  -15.9846 C   0  0  0  0  0  0  0  0  0  0  0  0
   21.6754   -9.3913  -16.0545 C   0  0  2  0  0  0  0  0  0  0  0  0
   22.5331  -10.5240  -15.7957 N   0  0  0  0  0  0  0  0  0  0  0  0
   21.9641   -8.2390  -15.1845 C   0  0  0  0  0  0  0  0  0  0  0  0
   21.8464   -8.4231  -13.9388 O   0  0  0  0  0  0  0  0  0  0  0  0
   23.0610   -4.6479  -16.5895 O   0  0  0  0  0  0  0  0  0  0  0  0
   23.5233   -4.8369  -15.2675 C   0  0  0  0  0  0  0  0  0  0  0  0
   22.6424   -5.9155  -14.6742 C   0  0  2  0  0  0  0  0  0  0  0  0
   22.3542   -6.9696  -15.6213 N   0  0  0  0  0  0  0  0  0  0  0  0
   21.3531   -5.2651  -14.2781 C   0  0  0  0  0  0  0  0  0  0  0  0
   20.1784   -5.5204  -14.9712 O   0  0  0  0  0  0  0  0  0  0  0  0
   21.3050   -4.4779  -13.3151 O   0  0  0  0  0  0  0  0  0  0  0  0
  1  5  1  0
  2  3  1  0
  2  1  1  0
  3  4  1  0
  4  5  1  0
  5  6  1  6
  6  7  2  0
  9  8  1  6
  9 11  1  0
 10  9  1  0
 11 13  1  0
 12  6  1  0
 11 12  1  1
 13 18  1  0
 13 14  2  0
 17 16  1  6
 16 15  1  0
 17 19  1  0
 18 17  1  0
 19 21  2  0
 19 20  1  0
M  END
$$$$
