PVS.pdb
     RDKit          3D

 21 21  0  0  1  0  0  0  0  0999 V2000
   20.6503  -13.9763  -18.2419 N   0  0  0  0  0  0  0  0  0  0  0  0
   20.5971  -14.5618  -19.5480 C   0  0  0  0  0  0  0  0  0  0  0  0
   20.4926  -13.4479  -20.5469 C   0  0  0  0  0  0  0  0  0  0  0  0
   20.1961  -12.2439  -19.6751 C   0  0  0  0  0  0  0  0  0  0  0  0
   20.9828  -12.5979  -18.4245 C   0  0  1  0  0  0  0  0  0  0  0  0
   20.6504  -11.7453  -17.2801 C   0  0  0  0  0  0  0  0  0  0  0  0
   19.4975  -11.8296  -16.7858 O   0  0  0  0  0  0  0  0  0  0  0  0
   21.7493   -9.1820  -13.2714 C   0  0  0  0  0  0  0  0  0  0  0  0
   22.1295  -10.0640  -14.4201 C   0  0  2  0  0  0  0  0  0  0  0  0
   23.5528   -9.7394  -14.8557 C   0  0  0  0  0  0  0  0  0  0  0  0
   21.1681   -9.9555  -15.5890 C   0  0  2  0  0  0  0  0  0  0  0  0
   21.5586  -10.8147  -16.6821 N   0  0  0  0  0  0  0  0  0  0  0  0
   21.0575   -8.5401  -15.9795 C   0  0  0  0  0  0  0  0  0  0  0  0
   22.0802   -8.0133  -16.5049 O   0  0  0  0  0  0  0  0  0  0  0  0
   17.6380   -6.4671  -15.6922 O   0  0  0  0  0  0  0  0  0  0  0  0
   18.4576   -5.9969  -16.7430 C   0  0  0  0  0  0  0  0  0  0  0  0
   19.8683   -6.4082  -16.3795 C   0  0  2  0  0  0  0  0  0  0  0  0
   19.9229   -7.7395  -15.8175 N   0  0  0  0  0  0  0  0  0  0  0  0
   20.3611   -5.4367  -15.3521 C   0  0  0  0  0  0  0  0  0  0  0  0
   20.6261   -5.8410  -14.0514 O   0  0  0  0  0  0  0  0  0  0  0  0
   20.5451   -4.2402  -15.6419 O   0  0  0  0  0  0  0  0  0  0  0  0
  1  5  1  0
  2  3  1  0
  2  1  1  0
  3  4  1  0
  4  5  1  0
  5  6  1  1
  6  7  2  0
  9  8  1  1
  9 11  1  0
 10  9  1  0
 11 13  1  0
 12  6  1  0
 11 12  1  6
 13 18  1  0
 13 14  2  0
 17 16  1  1
 16 15  1  0
 17 19  1  0
 18 17  1  0
 19 21  2  0
 19 20  1  0
M  END
$$$$
