PVS.pdb
     RDKit          3D

 21 21  0  0  1  0  0  0  0  0999 V2000
   25.8722  -21.0101  -11.6424 N   0  0  0  0  0  0  0  0  0  0  0  0
   27.1650  -21.3453  -11.1248 C   0  0  0  0  0  0  0  0  0  0  0  0
   28.1789  -21.0369  -12.1860 C   0  0  0  0  0  0  0  0  0  0  0  0
   27.3183  -20.7928  -13.4097 C   0  0  0  0  0  0  0  0  0  0  0  0
   26.0911  -20.1628  -12.7730 C   0  0  1  0  0  0  0  0  0  0  0  0
   24.9506  -20.0808  -13.6892 C   0  0  0  0  0  0  0  0  0  0  0  0
   25.0528  -19.3517  -14.7083 O   0  0  0  0  0  0  0  0  0  0  0  0
   22.3562  -23.3149  -14.0628 C   0  0  0  0  0  0  0  0  0  0  0  0
   22.6360  -22.2809  -15.1089 C   0  0  2  0  0  0  0  0  0  0  0  0
   23.9170  -22.6454  -15.8486 C   0  0  0  0  0  0  0  0  0  0  0  0
   22.7206  -20.8764  -14.5408 C   0  0  2  0  0  0  0  0  0  0  0  0
   23.7170  -20.7814  -13.4999 N   0  0  0  0  0  0  0  0  0  0  0  0
   21.3790  -20.4664  -14.0937 C   0  0  0  0  0  0  0  0  0  0  0  0
   21.0222  -20.8470  -12.9415 O   0  0  0  0  0  0  0  0  0  0  0  0
   18.8626  -18.4729  -16.4455 O   0  0  0  0  0  0  0  0  0  0  0  0
   18.4566  -18.3223  -15.1003 C   0  0  0  0  0  0  0  0  0  0  0  0
   19.1443  -19.4338  -14.3366 C   0  0  2  0  0  0  0  0  0  0  0  0
   20.4763  -19.6972  -14.8340 N   0  0  0  0  0  0  0  0  0  0  0  0
   18.3167  -20.6692  -14.5132 C   0  0  0  0  0  0  0  0  0  0  0  0
   17.0957  -20.8126  -13.8697 O   0  0  0  0  0  0  0  0  0  0  0  0
   18.7060  -21.5990  -15.2435 O   0  0  0  0  0  0  0  0  0  0  0  0
  1  5  1  0
  2  3  1  0
  2  1  1  0
  3  4  1  0
  4  5  1  0
  5  6  1  6
  6  7  2  0
  9  8  1  1
  9 11  1  0
 10  9  1  0
 11 13  1  0
 12  6  1  0
 11 12  1  1
 13 18  1  0
 13 14  2  0
 17 16  1  6
 16 15  1  0
 17 19  1  0
 18 17  1  0
 19 21  2  0
 19 20  1  0
M  END
$$$$
