PVS.pdb
     RDKit          3D

 21 21  0  0  1  0  0  0  0  0999 V2000
   24.0953  -13.3751  -17.4033 N   0  0  0  0  0  0  0  0  0  0  0  0
   25.2173  -14.2234  -17.1328 C   0  0  0  0  0  0  0  0  0  0  0  0
   26.1039  -13.5139  -16.1530 C   0  0  0  0  0  0  0  0  0  0  0  0
   25.5346  -12.1092  -16.1432 C   0  0  0  0  0  0  0  0  0  0  0  0
   24.0589  -12.3991  -16.3592 C   0  0  1  0  0  0  0  0  0  0  0  0
   23.2832  -11.2002  -16.6873 C   0  0  0  0  0  0  0  0  0  0  0  0
   23.4471  -10.6716  -17.8162 O   0  0  0  0  0  0  0  0  0  0  0  0
   19.6296  -10.7158  -17.2107 C   0  0  0  0  0  0  0  0  0  0  0  0
   20.0613   -9.7588  -16.1431 C   0  0  2  0  0  0  0  0  0  0  0  0
   19.2353   -8.4827  -16.2456 C   0  0  0  0  0  0  0  0  0  0  0  0
   21.5455   -9.4479  -16.1961 C   0  0  2  0  0  0  0  0  0  0  0  0
   22.3429  -10.5850  -15.8007 N   0  0  0  0  0  0  0  0  0  0  0  0
   21.8063   -8.2496  -15.3812 C   0  0  0  0  0  0  0  0  0  0  0  0
   21.8078   -8.4044  -14.1260 O   0  0  0  0  0  0  0  0  0  0  0  0
   23.1708   -3.7037  -14.7266 O   0  0  0  0  0  0  0  0  0  0  0  0
   22.7818   -4.6251  -15.7250 C   0  0  0  0  0  0  0  0  0  0  0  0
   22.3211   -5.8627  -14.9851 C   0  0  2  0  0  0  0  0  0  0  0  0
   22.0501   -6.9663  -15.8794 N   0  0  0  0  0  0  0  0  0  0  0  0
   21.0541   -5.5052  -14.2717 C   0  0  0  0  0  0  0  0  0  0  0  0
   21.0494   -5.2330  -12.9110 O   0  0  0  0  0  0  0  0  0  0  0  0
   19.9724   -5.4436  -14.8844 O   0  0  0  0  0  0  0  0  0  0  0  0
  1  5  1  0
  2  3  1  0
  2  1  1  0
  3  4  1  0
  4  5  1  0
  5  6  1  6
  6  7  2  0
  9  8  1  6
  9 11  1  0
 10  9  1  0
 11 13  1  0
 12  6  1  0
 11 12  1  1
 13 18  1  0
 13 14  2  0
 17 16  1  6
 16 15  1  0
 17 19  1  0
 18 17  1  0
 19 21  2  0
 19 20  1  0
M  END
$$$$
