PVS.pdb
     RDKit          3D

 21 21  0  0  1  0  0  0  0  0999 V2000
   32.7574  -22.7774  -18.9523 N   0  0  0  0  0  0  0  0  0  0  0  0
   33.4447  -22.4756  -20.1722 C   0  0  0  0  0  0  0  0  0  0  0  0
   32.6261  -23.0164  -21.3065 C   0  0  0  0  0  0  0  0  0  0  0  0
   31.6055  -23.8847  -20.5980 C   0  0  0  0  0  0  0  0  0  0  0  0
   31.4120  -23.1024  -19.3100 C   0  0  1  0  0  0  0  0  0  0  0  0
   30.6863  -23.8585  -18.2860 C   0  0  0  0  0  0  0  0  0  0  0  0
   31.3503  -24.4828  -17.4200 O   0  0  0  0  0  0  0  0  0  0  0  0
   26.3322  -23.7437  -17.7877 C   0  0  0  0  0  0  0  0  0  0  0  0
   27.3348  -23.9081  -16.6878 C   0  0  2  0  0  0  0  0  0  0  0  0
   27.6797  -22.5409  -16.1110 C   0  0  0  0  0  0  0  0  0  0  0  0
   28.5875  -24.6371  -17.1371 C   0  0  2  0  0  0  0  0  0  0  0  0
   29.2593  -23.9344  -18.2049 N   0  0  0  0  0  0  0  0  0  0  0  0
   28.2269  -26.0194  -17.4941 C   0  0  0  0  0  0  0  0  0  0  0  0
   27.7549  -26.2030  -18.6530 O   0  0  0  0  0  0  0  0  0  0  0  0
   28.0836  -30.7625  -16.7706 O   0  0  0  0  0  0  0  0  0  0  0  0
   28.3952  -29.5363  -16.1410 C   0  0  0  0  0  0  0  0  0  0  0  0
   28.0134  -28.4570  -17.1313 C   0  0  2  0  0  0  0  0  0  0  0  0
   28.3633  -27.1346  -16.6622 N   0  0  0  0  0  0  0  0  0  0  0  0
   26.5277  -28.5230  -17.3060 C   0  0  0  0  0  0  0  0  0  0  0  0
   25.9605  -29.2066  -18.3721 O   0  0  0  0  0  0  0  0  0  0  0  0
   25.7646  -27.9645  -16.4966 O   0  0  0  0  0  0  0  0  0  0  0  0
  1  5  1  0
  2  3  1  0
  2  1  1  0
  3  4  1  0
  4  5  1  0
  5  6  1  1
  6  7  2  0
  9  8  1  6
  9 11  1  0
 10  9  1  0
 11 13  1  0
 12  6  1  0
 11 12  1  6
 13 18  1  0
 13 14  2  0
 17 16  1  1
 16 15  1  0
 17 19  1  0
 18 17  1  0
 19 21  2  0
 19 20  1  0
M  END
$$$$
