PVS.pdb
     RDKit          3D

 21 21  0  0  1  0  0  0  0  0999 V2000
   19.6403  -12.2271  -18.4322 N   0  0  0  0  0  0  0  0  0  0  0  0
   19.2419  -12.5974  -19.7572 C   0  0  0  0  0  0  0  0  0  0  0  0
   19.0359  -11.3373  -20.5440 C   0  0  0  0  0  0  0  0  0  0  0  0
   19.0632  -10.2658  -19.4722 C   0  0  0  0  0  0  0  0  0  0  0  0
   20.0644  -10.8634  -18.4983 C   0  0  1  0  0  0  0  0  0  0  0  0
   20.0807  -10.1782  -17.2032 C   0  0  0  0  0  0  0  0  0  0  0  0
   19.0134  -10.1248  -16.5409 O   0  0  0  0  0  0  0  0  0  0  0  0
   22.1563   -9.1219  -12.9901 C   0  0  0  0  0  0  0  0  0  0  0  0
   22.0860   -9.7557  -14.3449 C   0  0  2  0  0  0  0  0  0  0  0  0
   23.4969   -9.9407  -14.8890 C   0  0  0  0  0  0  0  0  0  0  0  0
   21.2294   -8.9688  -15.3193 C   0  0  2  0  0  0  0  0  0  0  0  0
   21.2407   -9.5600  -16.6368 N   0  0  0  0  0  0  0  0  0  0  0  0
   21.6753   -7.5655  -15.3133 C   0  0  0  0  0  0  0  0  0  0  0  0
   22.7691   -7.3137  -15.8961 O   0  0  0  0  0  0  0  0  0  0  0  0
   19.3175   -4.5444  -14.1776 O   0  0  0  0  0  0  0  0  0  0  0  0
   20.3332   -4.1594  -15.0817 C   0  0  0  0  0  0  0  0  0  0  0  0
   21.4658   -5.1410  -14.8695 C   0  0  2  0  0  0  0  0  0  0  0  0
   20.9926   -6.4993  -14.7203 N   0  0  0  0  0  0  0  0  0  0  0  0
   22.1682   -4.7399  -13.6093 C   0  0  0  0  0  0  0  0  0  0  0  0
   22.1537   -5.5581  -12.4886 O   0  0  0  0  0  0  0  0  0  0  0  0
   22.7831   -3.6601  -13.5376 O   0  0  0  0  0  0  0  0  0  0  0  0
  1  5  1  0
  2  3  1  0
  2  1  1  0
  3  4  1  0
  4  5  1  0
  5  6  1  1
  6  7  2  0
  9  8  1  1
  9 11  1  0
 10  9  1  0
 11 13  1  0
 12  6  1  0
 11 12  1  6
 13 18  1  0
 13 14  2  0
 17 16  1  1
 16 15  1  0
 17 19  1  0
 18 17  1  0
 19 21  2  0
 19 20  1  0
M  END
$$$$
