PVS.pdb
     RDKit          3D

 21 21  0  0  1  0  0  0  0  0999 V2000
   19.2969  -11.3700  -17.9195 N   0  0  0  0  0  0  0  0  0  0  0  0
   18.6583  -12.4712  -18.5761 C   0  0  0  0  0  0  0  0  0  0  0  0
   17.8697  -13.2252  -17.5470 C   0  0  0  0  0  0  0  0  0  0  0  0
   18.3645  -12.6292  -16.2441 C   0  0  0  0  0  0  0  0  0  0  0  0
   18.6262  -11.1942  -16.6692 C   0  0  1  0  0  0  0  0  0  0  0  0
   19.3953  -10.4362  -15.6788 C   0  0  0  0  0  0  0  0  0  0  0  0
   18.8706  -10.2102  -14.5589 O   0  0  0  0  0  0  0  0  0  0  0  0
   23.6269   -9.8342  -15.9879 C   0  0  0  0  0  0  0  0  0  0  0  0
   22.8512   -9.8054  -14.7075 C   0  0  2  0  0  0  0  0  0  0  0  0
   22.7955  -11.2098  -14.1197 C   0  0  0  0  0  0  0  0  0  0  0  0
   21.4555   -9.2345  -14.8773 C   0  0  2  0  0  0  0  0  0  0  0  0
   20.7156   -9.9313  -15.9031 N   0  0  0  0  0  0  0  0  0  0  0  0
   21.5645   -7.7876  -15.1272 C   0  0  0  0  0  0  0  0  0  0  0  0
   21.9491   -7.4367  -16.2798 O   0  0  0  0  0  0  0  0  0  0  0  0
   20.1218   -3.3870  -14.8395 O   0  0  0  0  0  0  0  0  0  0  0  0
   19.9480   -4.7260  -14.4225 C   0  0  0  0  0  0  0  0  0  0  0  0
   21.2992   -5.3874  -14.5903 C   0  0  2  0  0  0  0  0  0  0  0  0
   21.2795   -6.7800  -14.2010 N   0  0  0  0  0  0  0  0  0  0  0  0
   22.2614   -4.6584  -13.7043 C   0  0  0  0  0  0  0  0  0  0  0  0
   22.7392   -5.2354  -12.5363 O   0  0  0  0  0  0  0  0  0  0  0  0
   22.6561   -3.5145  -13.9959 O   0  0  0  0  0  0  0  0  0  0  0  0
  1  5  1  0
  2  3  1  0
  2  1  1  0
  3  4  1  0
  4  5  1  0
  5  6  1  1
  6  7  2  0
  9  8  1  6
  9 11  1  0
 10  9  1  0
 11 13  1  0
 12  6  1  0
 11 12  1  6
 13 18  1  0
 13 14  2  0
 17 16  1  1
 16 15  1  0
 17 19  1  0
 18 17  1  0
 19 21  2  0
 19 20  1  0
M  END
$$$$
