PVS.pdb
     RDKit          3D

 21 21  0  0  1  0  0  0  0  0999 V2000
   18.9993  -11.5317  -17.6748 N   0  0  0  0  0  0  0  0  0  0  0  0
   18.2947  -12.6724  -18.1786 C   0  0  0  0  0  0  0  0  0  0  0  0
   17.6855  -13.3889  -17.0103 C   0  0  0  0  0  0  0  0  0  0  0  0
   18.3558  -12.7244  -15.8242 C   0  0  0  0  0  0  0  0  0  0  0  0
   18.5189  -11.3073  -16.3471 C   0  0  1  0  0  0  0  0  0  0  0  0
   19.4100  -10.4915  -15.5180 C   0  0  0  0  0  0  0  0  0  0  0  0
   19.0588  -10.2306  -14.3394 O   0  0  0  0  0  0  0  0  0  0  0  0
   23.5290   -9.7151  -16.5117 C   0  0  0  0  0  0  0  0  0  0  0  0
   22.9516   -9.6815  -15.1306 C   0  0  2  0  0  0  0  0  0  0  0  0
   23.0562  -11.0672  -14.5062 C   0  0  0  0  0  0  0  0  0  0  0  0
   21.5187   -9.1829  -15.1034 C   0  0  2  0  0  0  0  0  0  0  0  0
   20.6648   -9.9672  -15.9642 N   0  0  0  0  0  0  0  0  0  0  0  0
   21.5116   -7.7485  -15.4361 C   0  0  0  0  0  0  0  0  0  0  0  0
   21.8365   -7.4371  -16.6181 O   0  0  0  0  0  0  0  0  0  0  0  0
   19.2560   -5.1129  -13.6905 O   0  0  0  0  0  0  0  0  0  0  0  0
   19.7956   -4.7159  -14.9348 C   0  0  0  0  0  0  0  0  0  0  0  0
   21.1746   -5.3367  -15.0017 C   0  0  2  0  0  0  0  0  0  0  0  0
   21.1776   -6.7131  -14.5582 N   0  0  0  0  0  0  0  0  0  0  0  0
   22.0617   -4.5418  -14.0943 C   0  0  0  0  0  0  0  0  0  0  0  0
   22.3342   -3.2050  -14.3482 O   0  0  0  0  0  0  0  0  0  0  0  0
   22.5770   -5.0631  -13.0883 O   0  0  0  0  0  0  0  0  0  0  0  0
  1  5  1  0
  2  3  1  0
  2  1  1  0
  3  4  1  0
  4  5  1  0
  5  6  1  1
  6  7  2  0
  9  8  1  6
  9 11  1  0
 10  9  1  0
 11 13  1  0
 12  6  1  0
 11 12  1  6
 13 18  1  0
 13 14  2  0
 17 16  1  1
 16 15  1  0
 17 19  1  0
 18 17  1  0
 19 21  2  0
 19 20  1  0
M  END
$$$$
