PVS.pdb
     RDKit          3D

 21 21  0  0  1  0  0  0  0  0999 V2000
   24.8920  -12.3109  -16.0679 N   0  0  0  0  0  0  0  0  0  0  0  0
   25.4255  -13.6228  -16.2825 C   0  0  0  0  0  0  0  0  0  0  0  0
   24.7425  -14.2057  -17.4838 C   0  0  0  0  0  0  0  0  0  0  0  0
   23.5999  -13.2383  -17.7208 C   0  0  0  0  0  0  0  0  0  0  0  0
   24.2381  -11.9315  -17.2814 C   0  0  1  0  0  0  0  0  0  0  0  0
   23.2667  -10.8459  -17.1236 C   0  0  0  0  0  0  0  0  0  0  0  0
   22.6906  -10.4044  -18.1502 O   0  0  0  0  0  0  0  0  0  0  0  0
   21.3212  -10.0250  -13.4220 C   0  0  0  0  0  0  0  0  0  0  0  0
   20.7960   -9.7035  -14.7869 C   0  0  2  0  0  0  0  0  0  0  0  0
   20.0483  -10.9115  -15.3371 C   0  0  0  0  0  0  0  0  0  0  0  0
   21.8838   -9.2578  -15.7463 C   0  0  2  0  0  0  0  0  0  0  0  0
   22.9267  -10.2493  -15.8678 N   0  0  0  0  0  0  0  0  0  0  0  0
   22.3859   -7.9432  -15.3131 C   0  0  0  0  0  0  0  0  0  0  0  0
   23.3345   -7.9439  -14.4767 O   0  0  0  0  0  0  0  0  0  0  0  0
   22.4469   -4.6817  -17.5301 O   0  0  0  0  0  0  0  0  0  0  0  0
   22.1354   -4.3021  -16.2049 C   0  0  0  0  0  0  0  0  0  0  0  0
   22.5385   -5.4743  -15.3361 C   0  0  2  0  0  0  0  0  0  0  0  0
   21.9023   -6.7058  -15.7483 N   0  0  0  0  0  0  0  0  0  0  0  0
   22.1045   -5.1584  -13.9382 C   0  0  0  0  0  0  0  0  0  0  0  0
   21.0444   -5.8309  -13.3471 O   0  0  0  0  0  0  0  0  0  0  0  0
   22.6863   -4.2826  -13.2721 O   0  0  0  0  0  0  0  0  0  0  0  0
  1  5  1  0
  2  3  1  0
  2  1  1  0
  3  4  1  0
  4  5  1  0
  5  6  1  1
  6  7  2  0
  9  8  1  1
  9 11  1  0
 10  9  1  0
 11 13  1  0
 12  6  1  0
 11 12  1  1
 13 18  1  0
 13 14  2  0
 17 16  1  6
 16 15  1  0
 17 19  1  0
 18 17  1  0
 19 21  2  0
 19 20  1  0
M  END
$$$$
