PVS.pdb
     RDKit          3D

 21 21  0  0  1  0  0  0  0  0999 V2000
   24.0230  -12.2390  -15.2363 N   0  0  0  0  0  0  0  0  0  0  0  0
   24.7241  -13.4780  -15.3935 C   0  0  0  0  0  0  0  0  0  0  0  0
   25.1075  -13.6089  -16.8376 C   0  0  0  0  0  0  0  0  0  0  0  0
   24.3095  -12.5017  -17.4969 C   0  0  0  0  0  0  0  0  0  0  0  0
   24.3126  -11.4547  -16.3960 C   0  0  1  0  0  0  0  0  0  0  0  0
   23.3592  -10.3687  -16.6376 C   0  0  0  0  0  0  0  0  0  0  0  0
   23.5677   -9.5933  -17.6049 O   0  0  0  0  0  0  0  0  0  0  0  0
   19.8264  -10.6498  -17.6183 C   0  0  0  0  0  0  0  0  0  0  0  0
   19.8509   -9.7361  -16.4324 C   0  0  2  0  0  0  0  0  0  0  0  0
   18.7958   -8.6514  -16.6093 C   0  0  0  0  0  0  0  0  0  0  0  0
   21.2183   -9.1255  -16.1877 C   0  0  2  0  0  0  0  0  0  0  0  0
   22.1959  -10.1295  -15.8388 N   0  0  0  0  0  0  0  0  0  0  0  0
   21.0885   -8.0691  -15.1702 C   0  0  0  0  0  0  0  0  0  0  0  0
   20.7340   -8.4348  -14.0126 O   0  0  0  0  0  0  0  0  0  0  0  0
   23.3335   -4.9503  -14.5585 O   0  0  0  0  0  0  0  0  0  0  0  0
   21.9924   -4.5073  -14.5109 C   0  0  0  0  0  0  0  0  0  0  0  0
   21.1554   -5.7520  -14.3067 C   0  0  2  0  0  0  0  0  0  0  0  0
   21.3235   -6.7070  -15.3795 N   0  0  0  0  0  0  0  0  0  0  0  0
   19.7220   -5.3202  -14.2734 C   0  0  0  0  0  0  0  0  0  0  0  0
   19.1249   -4.9063  -13.0911 O   0  0  0  0  0  0  0  0  0  0  0  0
   19.0306   -5.3226  -15.3085 O   0  0  0  0  0  0  0  0  0  0  0  0
  1  5  1  0
  2  3  1  0
  2  1  1  0
  3  4  1  0
  4  5  1  0
  5  6  1  6
  6  7  2  0
  9  8  1  6
  9 11  1  0
 10  9  1  0
 11 13  1  0
 12  6  1  0
 11 12  1  1
 13 18  1  0
 13 14  2  0
 17 16  1  6
 16 15  1  0
 17 19  1  0
 18 17  1  0
 19 21  2  0
 19 20  1  0
M  END
$$$$
