PVS.pdb
     RDKit          3D

 21 21  0  0  1  0  0  0  0  0999 V2000
   27.2961  -19.3775  -15.0450 N   0  0  0  0  0  0  0  0  0  0  0  0
   28.5623  -18.9289  -15.5421 C   0  0  0  0  0  0  0  0  0  0  0  0
   29.4661  -20.1217  -15.6402 C   0  0  0  0  0  0  0  0  0  0  0  0
   28.6964  -21.1873  -14.8854 C   0  0  0  0  0  0  0  0  0  0  0  0
   27.2670  -20.7961  -15.2200 C   0  0  1  0  0  0  0  0  0  0  0  0
   26.2768  -21.4819  -14.3857 C   0  0  0  0  0  0  0  0  0  0  0  0
   26.1606  -22.7288  -14.4974 O   0  0  0  0  0  0  0  0  0  0  0  0
   24.3393  -19.7866  -10.8380 C   0  0  0  0  0  0  0  0  0  0  0  0
   24.6447  -21.2178  -11.1547 C   0  0  2  0  0  0  0  0  0  0  0  0
   26.0544  -21.5494  -10.6814 C   0  0  0  0  0  0  0  0  0  0  0  0
   24.4781  -21.5435  -12.6273 C   0  0  2  0  0  0  0  0  0  0  0  0
   25.4254  -20.8214  -13.4437 N   0  0  0  0  0  0  0  0  0  0  0  0
   23.0785  -21.2937  -13.0107 C   0  0  0  0  0  0  0  0  0  0  0  0
   22.7453  -20.0873  -13.1927 O   0  0  0  0  0  0  0  0  0  0  0  0
   18.7315  -22.6354  -14.5277 O   0  0  0  0  0  0  0  0  0  0  0  0
   20.0096  -23.1205  -14.1693 C   0  0  0  0  0  0  0  0  0  0  0  0
   20.7716  -21.9225  -13.6444 C   0  0  2  0  0  0  0  0  0  0  0  0
   22.0979  -22.2741  -13.1878 N   0  0  0  0  0  0  0  0  0  0  0  0
   19.9965  -21.3794  -12.4839 C   0  0  0  0  0  0  0  0  0  0  0  0
   18.9703  -20.4645  -12.6720 O   0  0  0  0  0  0  0  0  0  0  0  0
   20.2555  -21.7372  -11.3202 O   0  0  0  0  0  0  0  0  0  0  0  0
  1  5  1  0
  2  3  1  0
  2  1  1  0
  3  4  1  0
  4  5  1  0
  5  6  1  1
  6  7  2  0
  9  8  1  6
  9 11  1  0
 10  9  1  0
 11 13  1  0
 12  6  1  0
 11 12  1  6
 13 18  1  0
 13 14  2  0
 17 16  1  1
 16 15  1  0
 17 19  1  0
 18 17  1  0
 19 21  2  0
 19 20  1  0
M  END
$$$$
