YCI.pdb
     RDKit          3D

 27 27  0  0  1  0  0  0  0  0999 V2000
   28.6380  -18.3377   -3.3101 O   0  0  0  0  0  0  0  0  0  0  0  0
   28.4273  -18.9714   -4.5273 C   0  0  0  0  0  0  0  0  0  0  0  0
   28.4261  -20.3462   -4.6451 C   0  0  0  0  0  0  0  0  0  0  0  0
   28.2122  -20.9383   -5.8760 C   0  0  0  0  0  0  0  0  0  0  0  0
   27.9938  -20.2018   -7.0252 C   0  0  0  0  0  0  0  0  0  0  0  0
   27.7637  -20.8322   -8.3490 C   0  0  0  0  0  0  0  0  0  0  0  0
   26.3378  -20.5579   -8.7669 C   0  0  2  0  0  0  0  0  0  0  0  0
   25.4715  -21.2010   -7.7974 N   0  0  0  0  0  0  0  0  0  0  0  0
   26.0303  -21.0802  -10.1069 C   0  0  0  0  0  0  0  0  0  0  0  0
   26.1794  -22.3096  -10.3762 O   0  0  0  0  0  0  0  0  0  0  0  0
   27.9959  -18.8252   -6.9022 C   0  0  0  0  0  0  0  0  0  0  0  0
   28.2088  -18.2197   -5.6754 C   0  0  0  0  0  0  0  0  0  0  0  0
   25.5545  -20.2671  -11.1752 N   0  0  0  0  0  0  0  0  0  0  0  0
   25.2662  -20.7960  -12.4943 C   0  0  1  0  0  0  0  0  0  0  0  0
   24.1383  -21.7962  -12.3340 C   0  0  0  0  0  0  0  0  0  0  0  0
   22.8258  -21.1323  -11.2638 S   0  0  0  0  0  0  0  0  0  0  0  0
   24.7721  -19.7338  -13.4125 C   0  0  0  0  0  0  0  0  0  0  0  0
   23.9313  -18.9180  -12.9568 O   0  0  0  0  0  0  0  0  0  0  0  0
   28.9244  -16.4343  -15.6938 C   0  0  0  0  0  0  0  0  0  0  0  0
   27.4596  -16.7244  -15.8356 C   0  0  0  0  0  0  0  0  0  0  0  0
   26.9589  -17.9890  -15.2649 C   0  0  2  0  0  0  0  0  0  0  0  0
   27.8410  -19.1493  -15.7365 C   0  0  0  0  0  0  0  0  0  0  0  0
   25.5205  -18.3088  -15.3712 C   0  0  2  0  0  0  0  0  0  0  0  0
   25.1916  -19.5983  -14.7443 N   0  0  0  0  0  0  0  0  0  0  0  0
   25.0542  -18.3620  -16.7623 C   0  0  0  0  0  0  0  0  0  0  0  0
   24.7835  -17.2404  -17.5421 O   0  0  0  0  0  0  0  0  0  0  0  0
   24.8710  -19.4693  -17.3278 O   0  0  0  0  0  0  0  0  0  0  0  0
  1  2  1  0
  2 12  2  0
  3  4  2  0
  3  2  1  0
  4  5  1  0
  5  6  1  0
  5 11  2  0
  6  7  1  0
  7  8  1  1
  7  9  1  0
  9 13  1  0
  9 10  2  0
 12 11  1  0
 13 14  1  0
 14 17  1  0
 14 15  1  1
 16 15  1  0
 17 18  2  0
 19 20  1  0
 20 21  1  0
 21 23  1  0
 21 22  1  6
 23 25  1  0
 24 17  1  0
 23 24  1  6
 25 26  1  0
 27 25  2  0
M  END
$$$$
