YCI.pdb
     RDKit          3D

 27 27  0  0  1  0  0  0  0  0999 V2000
   29.6588  -17.7013  -18.6011 O   0  0  0  0  0  0  0  0  0  0  0  0
   29.0536  -17.7694  -17.3535 C   0  0  0  0  0  0  0  0  0  0  0  0
   29.5250  -18.5988  -16.3566 C   0  0  0  0  0  0  0  0  0  0  0  0
   28.8932  -18.6371  -15.1274 C   0  0  0  0  0  0  0  0  0  0  0  0
   27.7831  -17.8653  -14.8399 C   0  0  0  0  0  0  0  0  0  0  0  0
   27.1011  -17.9025  -13.5223 C   0  0  0  0  0  0  0  0  0  0  0  0
   26.3190  -19.1918  -13.4259 C   0  0  2  0  0  0  0  0  0  0  0  0
   25.2732  -19.1393  -14.4296 N   0  0  0  0  0  0  0  0  0  0  0  0
   25.7060  -19.3844  -12.1030 C   0  0  0  0  0  0  0  0  0  0  0  0
   24.4615  -19.2171  -11.9318 O   0  0  0  0  0  0  0  0  0  0  0  0
   27.3146  -17.0362  -15.8415 C   0  0  0  0  0  0  0  0  0  0  0  0
   27.9381  -16.9884  -17.0769 C   0  0  0  0  0  0  0  0  0  0  0  0
   26.4434  -19.7631  -10.9447 N   0  0  0  0  0  0  0  0  0  0  0  0
   25.8146  -20.0122   -9.6620 C   0  0  1  0  0  0  0  0  0  0  0  0
   24.8567  -21.1712   -9.8557 C   0  0  0  0  0  0  0  0  0  0  0  0
   24.0551  -21.6232   -8.2867 S   0  0  0  0  0  0  0  0  0  0  0  0
   26.8086  -20.4416   -8.6408 C   0  0  0  0  0  0  0  0  0  0  0  0
   27.5315  -21.4327   -8.9155 O   0  0  0  0  0  0  0  0  0  0  0  0
   29.9823  -18.5301   -3.6349 C   0  0  0  0  0  0  0  0  0  0  0  0
   29.3617  -19.6465   -4.4212 C   0  0  0  0  0  0  0  0  0  0  0  0
   28.4847  -19.2782   -5.5486 C   0  0  2  0  0  0  0  0  0  0  0  0
   27.5134  -18.1796   -5.1051 C   0  0  0  0  0  0  0  0  0  0  0  0
   27.8032  -20.3445   -6.3108 C   0  0  2  0  0  0  0  0  0  0  0  0
   26.9779  -19.8048   -7.4023 N   0  0  0  0  0  0  0  0  0  0  0  0
   26.9337  -21.1747   -5.4682 C   0  0  0  0  0  0  0  0  0  0  0  0
   27.3916  -22.1783   -4.6182 O   0  0  0  0  0  0  0  0  0  0  0  0
   25.6883  -21.0067   -5.4830 O   0  0  0  0  0  0  0  0  0  0  0  0
  1  2  1  0
  2 12  2  0
  3  4  2  0
  3  2  1  0
  4  5  1  0
  5  6  1  0
  5 11  2  0
  6  7  1  0
  7  8  1  6
  7  9  1  0
  9 13  1  0
  9 10  2  0
 12 11  1  0
 13 14  1  0
 14 17  1  0
 14 15  1  6
 16 15  1  0
 17 18  2  0
 19 20  1  0
 20 21  1  0
 21 23  1  0
 21 22  1  1
 23 25  1  0
 24 17  1  0
 23 24  1  6
 25 26  1  0
 27 25  2  0
M  END
$$$$
