YCI.pdb
     RDKit          3D

 27 27  0  0  1  0  0  0  0  0999 V2000
   28.2928  -20.2028   -5.8879 O   0  0  0  0  0  0  0  0  0  0  0  0
   28.0281  -20.1506   -7.2497 C   0  0  0  0  0  0  0  0  0  0  0  0
   29.0367  -20.1550   -8.1912 C   0  0  0  0  0  0  0  0  0  0  0  0
   28.7305  -20.1019   -9.5384 C   0  0  0  0  0  0  0  0  0  0  0  0
   27.4294  -20.0430  -10.0013 C   0  0  0  0  0  0  0  0  0  0  0  0
   27.0951  -19.9858  -11.4462 C   0  0  0  0  0  0  0  0  0  0  0  0
   26.8060  -21.3894  -11.9252 C   0  0  2  0  0  0  0  0  0  0  0  0
   28.0786  -22.0738  -12.0521 N   0  0  0  0  0  0  0  0  0  0  0  0
   26.1160  -21.4136  -13.2237 C   0  0  0  0  0  0  0  0  0  0  0  0
   26.7708  -21.4153  -14.3088 O   0  0  0  0  0  0  0  0  0  0  0  0
   26.4226  -20.0388   -9.0546 C   0  0  0  0  0  0  0  0  0  0  0  0
   26.7156  -20.0917   -7.7024 C   0  0  0  0  0  0  0  0  0  0  0  0
   24.6982  -21.4362  -13.3579 N   0  0  0  0  0  0  0  0  0  0  0  0
   24.0340  -21.7672  -14.6037 C   0  0  1  0  0  0  0  0  0  0  0  0
   24.2670  -23.2447  -14.8512 C   0  0  0  0  0  0  0  0  0  0  0  0
   24.0814  -24.2000  -13.3145 S   0  0  0  0  0  0  0  0  0  0  0  0
   22.5614  -21.5745  -14.5055 C   0  0  0  0  0  0  0  0  0  0  0  0
   22.0259  -21.7575  -13.3830 O   0  0  0  0  0  0  0  0  0  0  0  0
   18.5525  -17.6392  -16.9723 C   0  0  0  0  0  0  0  0  0  0  0  0
   18.7472  -18.9352  -16.2426 C   0  0  0  0  0  0  0  0  0  0  0  0
   20.1035  -19.5146  -16.2364 C   0  0  2  0  0  0  0  0  0  0  0  0
   20.6142  -19.6403  -17.6752 C   0  0  0  0  0  0  0  0  0  0  0  0
   20.3620  -20.7375  -15.4488 C   0  0  2  0  0  0  0  0  0  0  0  0
   21.7503  -21.2036  -15.5883 N   0  0  0  0  0  0  0  0  0  0  0  0
   19.4821  -21.8502  -15.8268 C   0  0  0  0  0  0  0  0  0  0  0  0
   18.2039  -22.0493  -15.3111 O   0  0  0  0  0  0  0  0  0  0  0  0
   19.8649  -22.7049  -16.6650 O   0  0  0  0  0  0  0  0  0  0  0  0
  1  2  1  0
  2 12  2  0
  3  4  2  0
  3  2  1  0
  4  5  1  0
  5  6  1  0
  5 11  2  0
  6  7  1  0
  7  8  1  6
  7  9  1  0
  9 13  1  0
  9 10  2  0
 12 11  1  0
 13 14  1  0
 14 17  1  0
 14 15  1  1
 16 15  1  0
 17 18  2  0
 19 20  1  0
 20 21  1  0
 21 23  1  0
 21 22  1  6
 23 25  1  0
 24 17  1  0
 23 24  1  6
 25 26  1  0
 27 25  2  0
M  END
$$$$
