YCI.pdb
     RDKit          3D

 27 27  0  0  1  0  0  0  0  0999 V2000
   26.9200  -20.1623  -17.8130 O   0  0  0  0  0  0  0  0  0  0  0  0
   28.0033  -21.0174  -17.6625 C   0  0  0  0  0  0  0  0  0  0  0  0
   28.1467  -21.8276  -16.5549 C   0  0  0  0  0  0  0  0  0  0  0  0
   29.2409  -22.6654  -16.4434 C   0  0  0  0  0  0  0  0  0  0  0  0
   30.2246  -22.7334  -17.4122 C   0  0  0  0  0  0  0  0  0  0  0  0
   31.4011  -23.6308  -17.2975 C   0  0  0  0  0  0  0  0  0  0  0  0
   31.0259  -24.9835  -17.8566 C   0  0  2  0  0  0  0  0  0  0  0  0
   30.0842  -25.5872  -16.9331 N   0  0  0  0  0  0  0  0  0  0  0  0
   32.1861  -25.8741  -18.0102 C   0  0  0  0  0  0  0  0  0  0  0  0
   32.5892  -26.5902  -17.0454 O   0  0  0  0  0  0  0  0  0  0  0  0
   30.0766  -21.9200  -18.5196 C   0  0  0  0  0  0  0  0  0  0  0  0
   28.9856  -21.0765  -18.6436 C   0  0  0  0  0  0  0  0  0  0  0  0
   32.9253  -25.9969  -19.2215 N   0  0  0  0  0  0  0  0  0  0  0  0
   34.0030  -26.9527  -19.3886 C   0  0  1  0  0  0  0  0  0  0  0  0
   33.3871  -28.3351  -19.2987 C   0  0  0  0  0  0  0  0  0  0  0  0
   33.7471  -29.1057  -17.6909 S   0  0  0  0  0  0  0  0  0  0  0  0
   34.6240  -26.8453  -20.7369 C   0  0  0  0  0  0  0  0  0  0  0  0
   33.8737  -26.5424  -21.6989 O   0  0  0  0  0  0  0  0  0  0  0  0
   39.9398  -25.1500  -21.0833 C   0  0  0  0  0  0  0  0  0  0  0  0
   38.4774  -25.4723  -21.1697 C   0  0  0  0  0  0  0  0  0  0  0  0
   38.0635  -26.4947  -22.1490 C   0  0  2  0  0  0  0  0  0  0  0  0
   38.7190  -26.2033  -23.5027 C   0  0  0  0  0  0  0  0  0  0  0  0
   36.6296  -26.8221  -22.2877 C   0  0  2  0  0  0  0  0  0  0  0  0
   35.9874  -27.0622  -20.9862 N   0  0  0  0  0  0  0  0  0  0  0  0
   36.3984  -28.0091  -23.1202 C   0  0  0  0  0  0  0  0  0  0  0  0
   36.0626  -27.9662  -24.4710 O   0  0  0  0  0  0  0  0  0  0  0  0
   36.4966  -29.1599  -22.6249 O   0  0  0  0  0  0  0  0  0  0  0  0
  1  2  1  0
  2 12  2  0
  3  4  2  0
  3  2  1  0
  4  5  1  0
  5  6  1  0
  5 11  2  0
  6  7  1  0
  7  8  1  1
  7  9  1  0
  9 13  1  0
  9 10  2  0
 12 11  1  0
 13 14  1  0
 14 17  1  0
 14 15  1  6
 16 15  1  0
 17 18  2  0
 19 20  1  0
 20 21  1  0
 21 23  1  0
 21 22  1  6
 23 25  1  0
 24 17  1  0
 23 24  1  1
 25 26  1  0
 27 25  2  0
M  END
$$$$
