YCI.pdb
     RDKit          3D

 27 27  0  0  1  0  0  0  0  0999 V2000
   14.2320  -20.4019  -11.4350 O   0  0  0  0  0  0  0  0  0  0  0  0
   13.8519  -20.8608  -10.1810 C   0  0  0  0  0  0  0  0  0  0  0  0
   12.6249  -21.4521   -9.9601 C   0  0  0  0  0  0  0  0  0  0  0  0
   12.2846  -21.8958   -8.6956 C   0  0  0  0  0  0  0  0  0  0  0  0
   13.1352  -21.7733   -7.6129 C   0  0  0  0  0  0  0  0  0  0  0  0
   12.7750  -22.2479   -6.2536 C   0  0  0  0  0  0  0  0  0  0  0  0
   13.3137  -23.6487   -6.0788 C   0  0  2  0  0  0  0  0  0  0  0  0
   12.6344  -24.4965   -7.0399 N   0  0  0  0  0  0  0  0  0  0  0  0
   13.0857  -24.1781   -4.7258 C   0  0  0  0  0  0  0  0  0  0  0  0
   12.0748  -24.8987   -4.4706 O   0  0  0  0  0  0  0  0  0  0  0  0
   14.3629  -21.1804   -7.8391 C   0  0  0  0  0  0  0  0  0  0  0  0
   14.7160  -20.7318   -9.1005 C   0  0  0  0  0  0  0  0  0  0  0  0
   13.9591  -23.9285   -3.6287 N   0  0  0  0  0  0  0  0  0  0  0  0
   13.7726  -24.5348   -2.3246 C   0  0  1  0  0  0  0  0  0  0  0  0
   13.8872  -26.0347   -2.5128 C   0  0  0  0  0  0  0  0  0  0  0  0
   15.3295  -26.4545   -3.5386 S   0  0  0  0  0  0  0  0  0  0  0  0
   14.8499  -24.1364   -1.3780 C   0  0  0  0  0  0  0  0  0  0  0  0
   15.9792  -23.8714   -1.8624 O   0  0  0  0  0  0  0  0  0  0  0  0
   14.2797  -19.8894    1.5567 C   0  0  0  0  0  0  0  0  0  0  0  0
   14.7636  -21.1002    0.8153 C   0  0  0  0  0  0  0  0  0  0  0  0
   15.1761  -22.2679    1.6165 C   0  0  2  0  0  0  0  0  0  0  0  0
   16.1215  -21.8152    2.7338 C   0  0  0  0  0  0  0  0  0  0  0  0
   15.6728  -23.4766    0.9274 C   0  0  2  0  0  0  0  0  0  0  0  0
   14.6716  -24.0427    0.0103 N   0  0  0  0  0  0  0  0  0  0  0  0
   16.0671  -24.5384    1.8614 C   0  0  0  0  0  0  0  0  0  0  0  0
   17.3561  -24.7041    2.3616 O   0  0  0  0  0  0  0  0  0  0  0  0
   15.2210  -25.3771    2.2619 O   0  0  0  0  0  0  0  0  0  0  0  0
  1  2  1  0
  2 12  2  0
  3  4  2  0
  3  2  1  0
  4  5  1  0
  5  6  1  0
  5 11  2  0
  6  7  1  0
  7  8  1  6
  7  9  1  0
  9 13  1  0
  9 10  2  0
 12 11  1  0
 13 14  1  0
 14 17  1  0
 14 15  1  6
 16 15  1  0
 17 18  2  0
 19 20  1  0
 20 21  1  0
 21 23  1  0
 21 22  1  1
 23 25  1  0
 24 17  1  0
 23 24  1  6
 25 26  1  0
 27 25  2  0
M  END
$$$$
