YCI.pdb
     RDKit          3D

 27 27  0  0  1  0  0  0  0  0999 V2000
   31.7581   -9.2998  -19.1273 O   0  0  0  0  0  0  0  0  0  0  0  0
   30.3939   -9.1707  -18.9041 C   0  0  0  0  0  0  0  0  0  0  0  0
   29.4864   -9.1057  -19.9415 C   0  0  0  0  0  0  0  0  0  0  0  0
   28.1355   -8.9771  -19.6764 C   0  0  0  0  0  0  0  0  0  0  0  0
   27.6357   -8.9087  -18.3895 C   0  0  0  0  0  0  0  0  0  0  0  0
   26.1867   -8.7707  -18.0993 C   0  0  0  0  0  0  0  0  0  0  0  0
   25.6516  -10.1224  -17.6875 C   0  0  2  0  0  0  0  0  0  0  0  0
   25.7490  -10.9961  -18.8413 N   0  0  0  0  0  0  0  0  0  0  0  0
   24.2501  -10.0656  -17.2451 C   0  0  0  0  0  0  0  0  0  0  0  0
   23.3023  -10.2949  -18.0545 O   0  0  0  0  0  0  0  0  0  0  0  0
   28.5484   -8.9743  -17.3538 C   0  0  0  0  0  0  0  0  0  0  0  0
   29.9038   -9.1030  -17.6056 C   0  0  0  0  0  0  0  0  0  0  0  0
   23.8613   -9.7569  -15.9101 N   0  0  0  0  0  0  0  0  0  0  0  0
   22.4736   -9.6614  -15.5001 C   0  0  1  0  0  0  0  0  0  0  0  0
   22.3812  -10.2535  -14.1075 C   0  0  0  0  0  0  0  0  0  0  0  0
   20.7094  -10.0469  -13.4212 S   0  0  0  0  0  0  0  0  0  0  0  0
   22.0315   -8.2441  -15.3952 C   0  0  0  0  0  0  0  0  0  0  0  0
   22.7968   -7.4397  -14.8057 O   0  0  0  0  0  0  0  0  0  0  0  0
   19.9810   -3.5560  -18.4484 C   0  0  0  0  0  0  0  0  0  0  0  0
   19.8538   -4.2796  -17.1407 C   0  0  0  0  0  0  0  0  0  0  0  0
   20.3483   -5.6680  -17.0812 C   0  0  2  0  0  0  0  0  0  0  0  0
   19.6736   -6.5000  -18.1763 C   0  0  0  0  0  0  0  0  0  0  0  0
   20.3658   -6.3725  -15.7828 C   0  0  2  0  0  0  0  0  0  0  0  0
   20.8192   -7.7658  -15.9142 N   0  0  0  0  0  0  0  0  0  0  0  0
   19.0491   -6.3954  -15.1339 C   0  0  0  0  0  0  0  0  0  0  0  0
   18.2391   -7.5245  -15.0432 O   0  0  0  0  0  0  0  0  0  0  0  0
   18.5800   -5.3516  -14.6143 O   0  0  0  0  0  0  0  0  0  0  0  0
  1  2  1  0
  2 12  2  0
  3  4  2  0
  3  2  1  0
  4  5  1  0
  5  6  1  0
  5 11  2  0
  6  7  1  0
  7  8  1  6
  7  9  1  0
  9 13  1  0
  9 10  2  0
 12 11  1  0
 13 14  1  0
 14 17  1  0
 14 15  1  1
 16 15  1  0
 17 18  2  0
 19 20  1  0
 20 21  1  0
 21 23  1  0
 21 22  1  6
 23 25  1  0
 24 17  1  0
 23 24  1  6
 25 26  1  0
 27 25  2  0
M  END
$$$$
