YCI.pdb
     RDKit          3D

 27 27  0  0  1  0  0  0  0  0999 V2000
   23.2348  -10.3999  -14.6470 O   0  0  0  0  0  0  0  0  0  0  0  0
   22.1530   -9.6260  -14.2492 C   0  0  0  0  0  0  0  0  0  0  0  0
   21.0851   -9.3768  -15.0866 C   0  0  0  0  0  0  0  0  0  0  0  0
   20.0269   -8.6005  -14.6518 C   0  0  0  0  0  0  0  0  0  0  0  0
   19.9844   -8.0469  -13.3859 C   0  0  0  0  0  0  0  0  0  0  0  0
   18.8510   -7.2130  -12.9140 C   0  0  0  0  0  0  0  0  0  0  0  0
   17.9736   -8.0605  -12.0224 C   0  0  2  0  0  0  0  0  0  0  0  0
   17.4697   -9.1569  -12.8274 N   0  0  0  0  0  0  0  0  0  0  0  0
   16.8371   -7.3097  -11.4679 C   0  0  0  0  0  0  0  0  0  0  0  0
   15.7139   -7.3017  -12.0549 O   0  0  0  0  0  0  0  0  0  0  0  0
   21.0563   -8.2992  -12.5507 C   0  0  0  0  0  0  0  0  0  0  0  0
   22.1222   -9.0749  -12.9739 C   0  0  0  0  0  0  0  0  0  0  0  0
   16.9093   -6.5549  -10.2622 N   0  0  0  0  0  0  0  0  0  0  0  0
   15.7858   -5.8005   -9.7413 C   0  0  1  0  0  0  0  0  0  0  0  0
   15.6396   -6.1757   -8.2797 C   0  0  0  0  0  0  0  0  0  0  0  0
   14.3922   -5.1350   -7.4614 S   0  0  0  0  0  0  0  0  0  0  0  0
   16.0442   -4.3353   -9.7855 C   0  0  0  0  0  0  0  0  0  0  0  0
   17.1319   -3.9233   -9.3087 O   0  0  0  0  0  0  0  0  0  0  0  0
   15.1788   -1.2844  -14.2091 C   0  0  0  0  0  0  0  0  0  0  0  0
   15.6545   -1.8586  -12.9076 C   0  0  0  0  0  0  0  0  0  0  0  0
   15.0164   -1.3644  -11.6730 C   0  0  2  0  0  0  0  0  0  0  0  0
   15.0689    0.1665  -11.6459 C   0  0  0  0  0  0  0  0  0  0  0  0
   15.4032   -1.9543  -10.3749 C   0  0  2  0  0  0  0  0  0  0  0  0
   15.1469   -3.4020  -10.3256 N   0  0  0  0  0  0  0  0  0  0  0  0
   14.6978   -1.3416   -9.2426 C   0  0  0  0  0  0  0  0  0  0  0  0
   15.2217   -0.3230   -8.4507 O   0  0  0  0  0  0  0  0  0  0  0  0
   13.5447   -1.7305   -8.9284 O   0  0  0  0  0  0  0  0  0  0  0  0
  1  2  1  0
  2 12  2  0
  3  4  2  0
  3  2  1  0
  4  5  1  0
  5  6  1  0
  5 11  2  0
  6  7  1  0
  7  8  1  6
  7  9  1  0
  9 13  1  0
  9 10  2  0
 12 11  1  0
 13 14  1  0
 14 17  1  0
 14 15  1  1
 16 15  1  0
 17 18  2  0
 19 20  1  0
 20 21  1  0
 21 23  1  0
 21 22  1  1
 23 25  1  0
 24 17  1  0
 23 24  1  6
 25 26  1  0
 27 25  2  0
M  END
$$$$
