YCI.pdb
     RDKit          3D

 27 27  0  0  1  0  0  0  0  0999 V2000
   25.9824  -12.2197  -17.2348 O   0  0  0  0  0  0  0  0  0  0  0  0
   25.4126  -13.4086  -16.7999 C   0  0  0  0  0  0  0  0  0  0  0  0
   24.4149  -14.0440  -17.5104 C   0  0  0  0  0  0  0  0  0  0  0  0
   23.8736  -15.2271  -17.0425 C   0  0  0  0  0  0  0  0  0  0  0  0
   24.2935  -15.8209  -15.8670 C   0  0  0  0  0  0  0  0  0  0  0  0
   23.7160  -17.0907  -15.3602 C   0  0  0  0  0  0  0  0  0  0  0  0
   24.6850  -18.2099  -15.6626 C   0  0  2  0  0  0  0  0  0  0  0  0
   24.7027  -18.3898  -17.1018 N   0  0  0  0  0  0  0  0  0  0  0  0
   24.3016  -19.4783  -15.0247 C   0  0  0  0  0  0  0  0  0  0  0  0
   23.3122  -20.1472  -15.4488 O   0  0  0  0  0  0  0  0  0  0  0  0
   25.2930  -15.1808  -15.1589 C   0  0  0  0  0  0  0  0  0  0  0  0
   25.8434  -13.9955  -15.6163 C   0  0  0  0  0  0  0  0  0  0  0  0
   24.9935  -20.0371  -13.9121 N   0  0  0  0  0  0  0  0  0  0  0  0
   24.5472  -21.2390  -13.2347 C   0  0  1  0  0  0  0  0  0  0  0  0
   25.4836  -21.4612  -12.0633 C   0  0  0  0  0  0  0  0  0  0  0  0
   24.9242  -22.8549  -11.0371 S   0  0  0  0  0  0  0  0  0  0  0  0
   23.1813  -21.0711  -12.6677 C   0  0  0  0  0  0  0  0  0  0  0  0
   22.9622  -20.0443  -11.9766 O   0  0  0  0  0  0  0  0  0  0  0  0
   17.5484  -20.3158  -13.8517 C   0  0  0  0  0  0  0  0  0  0  0  0
   18.4416  -21.0283  -12.8799 C   0  0  0  0  0  0  0  0  0  0  0  0
   19.8539  -21.2121  -13.2637 C   0  0  2  0  0  0  0  0  0  0  0  0
   19.9285  -21.8795  -14.6406 C   0  0  0  0  0  0  0  0  0  0  0  0
   20.7894  -21.8267  -12.2995 C   0  0  2  0  0  0  0  0  0  0  0  0
   22.1386  -21.9891  -12.8629 N   0  0  0  0  0  0  0  0  0  0  0  0
   20.3408  -23.1465  -11.8390 C   0  0  0  0  0  0  0  0  0  0  0  0
   19.3206  -23.3490  -10.9130 O   0  0  0  0  0  0  0  0  0  0  0  0
   20.8847  -24.1904  -12.2795 O   0  0  0  0  0  0  0  0  0  0  0  0
  1  2  1  0
  2 12  2  0
  3  4  2  0
  3  2  1  0
  4  5  1  0
  5  6  1  0
  5 11  2  0
  6  7  1  0
  7  8  1  6
  7  9  1  0
  9 13  1  0
  9 10  2  0
 12 11  1  0
 13 14  1  0
 14 17  1  0
 14 15  1  1
 16 15  1  0
 17 18  2  0
 19 20  1  0
 20 21  1  0
 21 23  1  0
 21 22  1  6
 23 25  1  0
 24 17  1  0
 23 24  1  6
 25 26  1  0
 27 25  2  0
M  END
$$$$
