YCI.pdb
     RDKit          3D

 27 27  0  0  1  0  0  0  0  0999 V2000
   19.8045  -17.0477  -16.3362 O   0  0  0  0  0  0  0  0  0  0  0  0
   20.3164  -17.7739  -15.2694 C   0  0  0  0  0  0  0  0  0  0  0  0
   19.8128  -19.0094  -14.9175 C   0  0  0  0  0  0  0  0  0  0  0  0
   20.3510  -19.7006  -13.8479 C   0  0  0  0  0  0  0  0  0  0  0  0
   21.3966  -19.2022  -13.0935 C   0  0  0  0  0  0  0  0  0  0  0  0
   21.9781  -19.9399  -11.9444 C   0  0  0  0  0  0  0  0  0  0  0  0
   23.3174  -20.4991  -12.3648 C   0  0  2  0  0  0  0  0  0  0  0  0
   23.0640  -21.5395  -13.3432 N   0  0  0  0  0  0  0  0  0  0  0  0
   24.0703  -21.0718  -11.2387 C   0  0  0  0  0  0  0  0  0  0  0  0
   23.5332  -21.9124  -10.4571 O   0  0  0  0  0  0  0  0  0  0  0  0
   21.8976  -17.9644  -13.4498 C   0  0  0  0  0  0  0  0  0  0  0  0
   21.3677  -17.2619  -14.5187 C   0  0  0  0  0  0  0  0  0  0  0  0
   25.4234  -20.7350  -10.9481 N   0  0  0  0  0  0  0  0  0  0  0  0
   26.1549  -21.3162   -9.8391 C   0  0  1  0  0  0  0  0  0  0  0  0
   27.4595  -21.8481  -10.3989 C   0  0  0  0  0  0  0  0  0  0  0  0
   28.2563  -20.6177  -11.4759 S   0  0  0  0  0  0  0  0  0  0  0  0
   26.5102  -20.2897   -8.8214 C   0  0  0  0  0  0  0  0  0  0  0  0
   26.2765  -19.0873   -9.1040 O   0  0  0  0  0  0  0  0  0  0  0  0
   27.8756  -19.4656   -2.7890 C   0  0  0  0  0  0  0  0  0  0  0  0
   27.7193  -18.9544   -4.1905 C   0  0  0  0  0  0  0  0  0  0  0  0
   27.4049  -19.9396   -5.2422 C   0  0  2  0  0  0  0  0  0  0  0  0
   28.0414  -21.2876   -4.8889 C   0  0  0  0  0  0  0  0  0  0  0  0
   27.6239  -19.5784   -6.6579 C   0  0  2  0  0  0  0  0  0  0  0  0
   27.0856  -20.5919   -7.5782 N   0  0  0  0  0  0  0  0  0  0  0  0
   29.0443  -19.3969   -6.9820 C   0  0  0  0  0  0  0  0  0  0  0  0
   29.7560  -18.2214   -6.7567 O   0  0  0  0  0  0  0  0  0  0  0  0
   29.7014  -20.3347   -7.4998 O   0  0  0  0  0  0  0  0  0  0  0  0
  1  2  1  0
  2 12  2  0
  3  4  2  0
  3  2  1  0
  4  5  1  0
  5  6  1  0
  5 11  2  0
  6  7  1  0
  7  8  1  6
  7  9  1  0
  9 13  1  0
  9 10  2  0
 12 11  1  0
 13 14  1  0
 14 17  1  0
 14 15  1  6
 16 15  1  0
 17 18  2  0
 19 20  1  0
 20 21  1  0
 21 23  1  0
 21 22  1  1
 23 25  1  0
 24 17  1  0
 23 24  1  6
 25 26  1  0
 27 25  2  0
M  END
$$$$
