YCI.pdb
     RDKit          3D

 27 27  0  0  1  0  0  0  0  0999 V2000
   18.3208  -17.1805  -20.8982 O   0  0  0  0  0  0  0  0  0  0  0  0
   18.2524  -16.1284  -19.9949 C   0  0  0  0  0  0  0  0  0  0  0  0
   18.3074  -14.8111  -20.4016 C   0  0  0  0  0  0  0  0  0  0  0  0
   18.2359  -13.7922  -19.4698 C   0  0  0  0  0  0  0  0  0  0  0  0
   18.1087  -14.0341  -18.1148 C   0  0  0  0  0  0  0  0  0  0  0  0
   18.0314  -12.9443  -17.1103 C   0  0  0  0  0  0  0  0  0  0  0  0
   19.4124  -12.3559  -16.9373 C   0  0  2  0  0  0  0  0  0  0  0  0
   20.2294  -13.3567  -16.2779 N   0  0  0  0  0  0  0  0  0  0  0  0
   19.4074  -11.1292  -16.1261 C   0  0  0  0  0  0  0  0  0  0  0  0
   18.9061  -11.1207  -14.9621 O   0  0  0  0  0  0  0  0  0  0  0  0
   18.0540  -15.3551  -17.7123 C   0  0  0  0  0  0  0  0  0  0  0  0
   18.1245  -16.3849  -18.6352 C   0  0  0  0  0  0  0  0  0  0  0  0
   19.9505   -9.8909  -16.5738 N   0  0  0  0  0  0  0  0  0  0  0  0
   19.9988   -8.7078  -15.7367 C   0  0  1  0  0  0  0  0  0  0  0  0
   21.4625   -8.3873  -15.5065 C   0  0  0  0  0  0  0  0  0  0  0  0
   21.6514   -6.8365  -14.5748 S   0  0  0  0  0  0  0  0  0  0  0  0
   19.4028   -7.5289  -16.4225 C   0  0  0  0  0  0  0  0  0  0  0  0
   19.8896   -7.1961  -17.5327 O   0  0  0  0  0  0  0  0  0  0  0  0
   14.0283   -6.6009  -16.7580 C   0  0  0  0  0  0  0  0  0  0  0  0
   15.5050   -6.6194  -17.0201 C   0  0  0  0  0  0  0  0  0  0  0  0
   16.3108   -5.5250  -16.4467 C   0  0  2  0  0  0  0  0  0  0  0  0
   15.7546   -4.1775  -16.9176 C   0  0  0  0  0  0  0  0  0  0  0  0
   17.7834   -5.5825  -16.5505 C   0  0  2  0  0  0  0  0  0  0  0  0
   18.3386   -6.7791  -15.8996 N   0  0  0  0  0  0  0  0  0  0  0  0
   18.4384   -4.4113  -15.9550 C   0  0  0  0  0  0  0  0  0  0  0  0
   19.0028   -4.3911  -14.6821 O   0  0  0  0  0  0  0  0  0  0  0  0
   18.5171   -3.3339  -16.5974 O   0  0  0  0  0  0  0  0  0  0  0  0
  1  2  1  0
  2 12  2  0
  3  4  2  0
  3  2  1  0
  4  5  1  0
  5  6  1  0
  5 11  2  0
  6  7  1  0
  7  8  1  1
  7  9  1  0
  9 13  1  0
  9 10  2  0
 12 11  1  0
 13 14  1  0
 14 17  1  0
 14 15  1  6
 16 15  1  0
 17 18  2  0
 19 20  1  0
 20 21  1  0
 21 23  1  0
 21 22  1  6
 23 25  1  0
 24 17  1  0
 23 24  1  1
 25 26  1  0
 27 25  2  0
M  END
$$$$
