YCI.pdb
     RDKit          3D

 27 27  0  0  1  0  0  0  0  0999 V2000
   27.8871  -14.1990  -18.4222 O   0  0  0  0  0  0  0  0  0  0  0  0
   27.3569  -14.9431  -17.3769 C   0  0  0  0  0  0  0  0  0  0  0  0
   26.0036  -14.9661  -17.1089 C   0  0  0  0  0  0  0  0  0  0  0  0
   25.5156  -15.7205  -16.0580 C   0  0  0  0  0  0  0  0  0  0  0  0
   26.3382  -16.4728  -15.2407 C   0  0  0  0  0  0  0  0  0  0  0  0
   25.8198  -17.2844  -14.1113 C   0  0  0  0  0  0  0  0  0  0  0  0
   26.1338  -18.7370  -14.3838 C   0  0  2  0  0  0  0  0  0  0  0  0
   25.3885  -19.1263  -15.5657 N   0  0  0  0  0  0  0  0  0  0  0  0
   25.7570  -19.6167  -13.2670 C   0  0  0  0  0  0  0  0  0  0  0  0
   24.5491  -19.9526  -13.0820 O   0  0  0  0  0  0  0  0  0  0  0  0
   27.6929  -16.4467  -15.5130 C   0  0  0  0  0  0  0  0  0  0  0  0
   28.1944  -15.6954  -16.5624 C   0  0  0  0  0  0  0  0  0  0  0  0
   26.6947  -20.1440  -12.3334 N   0  0  0  0  0  0  0  0  0  0  0  0
   26.3310  -21.1175  -11.3221 C   0  0  1  0  0  0  0  0  0  0  0  0
   27.0485  -22.4069  -11.6699 C   0  0  0  0  0  0  0  0  0  0  0  0
   28.8006  -22.0964  -12.0470 S   0  0  0  0  0  0  0  0  0  0  0  0
   26.8101  -20.7089   -9.9735 C   0  0  0  0  0  0  0  0  0  0  0  0
   28.0507  -20.5898   -9.8099 O   0  0  0  0  0  0  0  0  0  0  0  0
   28.9940  -18.3766   -6.4326 C   0  0  0  0  0  0  0  0  0  0  0  0
   28.3475  -19.5381   -7.1274 C   0  0  0  0  0  0  0  0  0  0  0  0
   26.9681  -19.8829   -6.7348 C   0  0  2  0  0  0  0  0  0  0  0  0
   26.9187  -20.1655   -5.2299 C   0  0  0  0  0  0  0  0  0  0  0  0
   26.2289  -20.8980   -7.5130 C   0  0  2  0  0  0  0  0  0  0  0  0
   25.9582  -20.4529   -8.8887 N   0  0  0  0  0  0  0  0  0  0  0  0
   24.9420  -21.2525   -6.9018 C   0  0  0  0  0  0  0  0  0  0  0  0
   23.7064  -21.0828   -7.5212 O   0  0  0  0  0  0  0  0  0  0  0  0
   24.9029  -21.7421   -5.7449 O   0  0  0  0  0  0  0  0  0  0  0  0
  1  2  1  0
  2 12  2  0
  3  4  2  0
  3  2  1  0
  4  5  1  0
  5  6  1  0
  5 11  2  0
  6  7  1  0
  7  8  1  6
  7  9  1  0
  9 13  1  0
  9 10  2  0
 12 11  1  0
 13 14  1  0
 14 17  1  0
 14 15  1  6
 16 15  1  0
 17 18  2  0
 19 20  1  0
 20 21  1  0
 21 23  1  0
 21 22  1  1
 23 25  1  0
 24 17  1  0
 23 24  1  6
 25 26  1  0
 27 25  2  0
M  END
$$$$
