YCI.pdb
     RDKit          3D

 27 27  0  0  1  0  0  0  0  0999 V2000
   20.2120  -18.4504  -15.7570 O   0  0  0  0  0  0  0  0  0  0  0  0
   21.0142  -18.9804  -14.7555 C   0  0  0  0  0  0  0  0  0  0  0  0
   22.2899  -18.5122  -14.5162 C   0  0  0  0  0  0  0  0  0  0  0  0
   23.0567  -19.0675  -13.5086 C   0  0  0  0  0  0  0  0  0  0  0  0
   22.5965  -20.0958  -12.7077 C   0  0  0  0  0  0  0  0  0  0  0  0
   23.4153  -20.6954  -11.6247 C   0  0  0  0  0  0  0  0  0  0  0  0
   24.7354  -21.1363  -12.2129 C   0  0  2  0  0  0  0  0  0  0  0  0
   24.4689  -22.2789  -13.0659 N   0  0  0  0  0  0  0  0  0  0  0  0
   25.7127  -21.5226  -11.1840 C   0  0  0  0  0  0  0  0  0  0  0  0
   25.5126  -22.5303  -10.4420 O   0  0  0  0  0  0  0  0  0  0  0  0
   21.3182  -20.5614  -12.9511 C   0  0  0  0  0  0  0  0  0  0  0  0
   20.5399  -20.0141  -13.9570 C   0  0  0  0  0  0  0  0  0  0  0  0
   26.9254  -20.8135  -10.9489 N   0  0  0  0  0  0  0  0  0  0  0  0
   27.8461  -21.1662   -9.8855 C   0  0  1  0  0  0  0  0  0  0  0  0
   29.2307  -20.7508  -10.3422 C   0  0  0  0  0  0  0  0  0  0  0  0
   29.6835  -21.5866  -11.8930 S   0  0  0  0  0  0  0  0  0  0  0  0
   27.5579  -20.4054   -8.6391 C   0  0  0  0  0  0  0  0  0  0  0  0
   26.7438  -19.4508   -8.7170 O   0  0  0  0  0  0  0  0  0  0  0  0
   29.1580  -22.4059   -3.4536 C   0  0  0  0  0  0  0  0  0  0  0  0
   28.3050  -21.8369   -4.5484 C   0  0  0  0  0  0  0  0  0  0  0  0
   28.6108  -20.4687   -5.0067 C   0  0  2  0  0  0  0  0  0  0  0  0
   28.5844  -19.5098   -3.8123 C   0  0  0  0  0  0  0  0  0  0  0  0
   27.8883  -19.9201   -6.1727 C   0  0  2  0  0  0  0  0  0  0  0  0
   28.1414  -20.6957   -7.3968 N   0  0  0  0  0  0  0  0  0  0  0  0
   28.2442  -18.5236   -6.4528 C   0  0  0  0  0  0  0  0  0  0  0  0
   27.4616  -17.4283   -6.0965 O   0  0  0  0  0  0  0  0  0  0  0  0
   29.3141  -18.2500   -7.0528 O   0  0  0  0  0  0  0  0  0  0  0  0
  1  2  1  0
  2 12  2  0
  3  4  2  0
  3  2  1  0
  4  5  1  0
  5  6  1  0
  5 11  2  0
  6  7  1  0
  7  8  1  6
  7  9  1  0
  9 13  1  0
  9 10  2  0
 12 11  1  0
 13 14  1  0
 14 17  1  0
 14 15  1  6
 16 15  1  0
 17 18  2  0
 19 20  1  0
 20 21  1  0
 21 23  1  0
 21 22  1  1
 23 25  1  0
 24 17  1  0
 23 24  1  6
 25 26  1  0
 27 25  2  0
M  END
$$$$
