YCI.pdb
     RDKit          3D

 27 27  0  0  1  0  0  0  0  0999 V2000
   14.3676  -20.7787  -15.0080 O   0  0  0  0  0  0  0  0  0  0  0  0
   15.7122  -20.4494  -15.1126 C   0  0  0  0  0  0  0  0  0  0  0  0
   16.6681  -21.0094  -14.2901 C   0  0  0  0  0  0  0  0  0  0  0  0
   17.9973  -20.6544  -14.4268 C   0  0  0  0  0  0  0  0  0  0  0  0
   18.4277  -19.7421  -15.3718 C   0  0  0  0  0  0  0  0  0  0  0  0
   19.8532  -19.3575  -15.5229 C   0  0  0  0  0  0  0  0  0  0  0  0
   20.4246  -20.0994  -16.7087 C   0  0  2  0  0  0  0  0  0  0  0  0
   20.7601  -21.4377  -16.2609 N   0  0  0  0  0  0  0  0  0  0  0  0
   21.6319  -19.4572  -17.2500 C   0  0  0  0  0  0  0  0  0  0  0  0
   22.7860  -19.8108  -16.8639 O   0  0  0  0  0  0  0  0  0  0  0  0
   17.4667  -19.1839  -16.1934 C   0  0  0  0  0  0  0  0  0  0  0  0
   16.1323  -19.5308  -16.0669 C   0  0  0  0  0  0  0  0  0  0  0  0
   21.5977  -18.4174  -18.2228 N   0  0  0  0  0  0  0  0  0  0  0  0
   22.7930  -17.9038  -18.8634 C   0  0  1  0  0  0  0  0  0  0  0  0
   22.5669  -17.9929  -20.3599 C   0  0  0  0  0  0  0  0  0  0  0  0
   23.9655  -17.2741  -21.2742 S   0  0  0  0  0  0  0  0  0  0  0  0
   23.0079  -16.4657  -18.5457 C   0  0  0  0  0  0  0  0  0  0  0  0
   21.9882  -15.7474  -18.3892 O   0  0  0  0  0  0  0  0  0  0  0  0
   26.5004  -15.1080  -14.7630 C   0  0  0  0  0  0  0  0  0  0  0  0
   25.3498  -15.1117  -15.7253 C   0  0  0  0  0  0  0  0  0  0  0  0
   25.5005  -14.3313  -16.9679 C   0  0  2  0  0  0  0  0  0  0  0  0
   25.7686  -12.8631  -16.6221 C   0  0  0  0  0  0  0  0  0  0  0  0
   24.4894  -14.4726  -18.0357 C   0  0  2  0  0  0  0  0  0  0  0  0
   24.2748  -15.8780  -18.4135 N   0  0  0  0  0  0  0  0  0  0  0  0
   24.8475  -13.7368  -19.2546 C   0  0  0  0  0  0  0  0  0  0  0  0
   24.3400  -12.4849  -19.5926 O   0  0  0  0  0  0  0  0  0  0  0  0
   25.6594  -14.2301  -20.0775 O   0  0  0  0  0  0  0  0  0  0  0  0
  1  2  1  0
  2 12  2  0
  3  4  2  0
  3  2  1  0
  4  5  1  0
  5  6  1  0
  5 11  2  0
  6  7  1  0
  7  8  1  1
  7  9  1  0
  9 13  1  0
  9 10  2  0
 12 11  1  0
 13 14  1  0
 14 17  1  0
 14 15  1  6
 16 15  1  0
 17 18  2  0
 19 20  1  0
 20 21  1  0
 21 23  1  0
 21 22  1  1
 23 25  1  0
 24 17  1  0
 23 24  1  6
 25 26  1  0
 27 25  2  0
M  END
$$$$
