YCI.pdb
     RDKit          3D

 27 27  0  0  1  0  0  0  0  0999 V2000
   22.3368  -29.5010  -16.2469 O   0  0  0  0  0  0  0  0  0  0  0  0
   22.0272  -28.7475  -15.1227 C   0  0  0  0  0  0  0  0  0  0  0  0
   22.7991  -27.6746  -14.7264 C   0  0  0  0  0  0  0  0  0  0  0  0
   22.4562  -26.9497  -13.6001 C   0  0  0  0  0  0  0  0  0  0  0  0
   21.3490  -27.2545  -12.8309 C   0  0  0  0  0  0  0  0  0  0  0  0
   20.9763  -26.4798  -11.6210 C   0  0  0  0  0  0  0  0  0  0  0  0
   19.8059  -25.5888  -11.9666 C   0  0  2  0  0  0  0  0  0  0  0  0
   20.2734  -24.6175  -12.9370 N   0  0  0  0  0  0  0  0  0  0  0  0
   19.2703  -24.8784  -10.7956 C   0  0  0  0  0  0  0  0  0  0  0  0
   19.4463  -23.6313  -10.6542 O   0  0  0  0  0  0  0  0  0  0  0  0
   20.5789  -28.3299  -13.2317 C   0  0  0  0  0  0  0  0  0  0  0  0
   20.9113  -29.0641  -14.3575 C   0  0  0  0  0  0  0  0  0  0  0  0
   18.5330  -25.5195   -9.7591 N   0  0  0  0  0  0  0  0  0  0  0  0
   18.0598  -24.8154   -8.5830 C   0  0  1  0  0  0  0  0  0  0  0  0
   17.0778  -23.7640   -9.0611 C   0  0  0  0  0  0  0  0  0  0  0  0
   15.8162  -24.4968  -10.1474 S   0  0  0  0  0  0  0  0  0  0  0  0
   17.3103  -25.7204   -7.6695 C   0  0  0  0  0  0  0  0  0  0  0  0
   16.5367  -26.5619   -8.1924 O   0  0  0  0  0  0  0  0  0  0  0  0
   18.0653  -28.0695   -1.9493 C   0  0  0  0  0  0  0  0  0  0  0  0
   17.1766  -27.8460   -3.1369 C   0  0  0  0  0  0  0  0  0  0  0  0
   17.6913  -26.9854   -4.2186 C   0  0  2  0  0  0  0  0  0  0  0  0
   18.3054  -25.7174   -3.6169 C   0  0  0  0  0  0  0  0  0  0  0  0
   16.8236  -26.6846   -5.3758 C   0  0  2  0  0  0  0  0  0  0  0  0
   17.4218  -25.6827   -6.2715 N   0  0  0  0  0  0  0  0  0  0  0  0
   15.5011  -26.1873   -4.9769 C   0  0  0  0  0  0  0  0  0  0  0  0
   15.0677  -24.8769   -5.1611 O   0  0  0  0  0  0  0  0  0  0  0  0
   14.6733  -26.9573   -4.4279 O   0  0  0  0  0  0  0  0  0  0  0  0
  1  2  1  0
  2 12  2  0
  3  4  2  0
  3  2  1  0
  4  5  1  0
  5  6  1  0
  5 11  2  0
  6  7  1  0
  7  8  1  6
  7  9  1  0
  9 13  1  0
  9 10  2  0
 12 11  1  0
 13 14  1  0
 14 17  1  0
 14 15  1  6
 16 15  1  0
 17 18  2  0
 19 20  1  0
 20 21  1  0
 21 23  1  0
 21 22  1  1
 23 25  1  0
 24 17  1  0
 23 24  1  6
 25 26  1  0
 27 25  2  0
M  END
$$$$
