CSM.pdb
     RDKit          3D

 21 20  0  0  1  0  0  0  0  0999 V2000
    7.6808  -14.8768   17.8163 N   0  0  0  0  0  0  0  0  0  0  0  0
    8.6338  -14.4913   18.8598 C   0  0  1  0  0  0  0  0  0  0  0  0
    8.3714  -13.0233   19.1675 C   0  0  0  0  0  0  0  0  0  0  0  0
    9.2319  -12.0003   17.9152 S   0  0  0  0  0  0  0  0  0  0  0  0
    8.3529  -15.2666   20.0858 C   0  0  0  0  0  0  0  0  0  0  0  0
    7.1919  -15.2742   20.6035 O   0  0  0  0  0  0  0  0  0  0  0  0
   11.4209  -17.2714   21.9108 O   0  0  0  0  0  0  0  0  0  0  0  0
   10.1663  -17.8681   22.0413 C   0  0  0  0  0  0  0  0  0  0  0  0
    9.1478  -16.7415   21.8751 C   0  0  2  0  0  0  0  0  0  0  0  0
    9.4141  -16.0062   20.6749 N   0  0  0  0  0  0  0  0  0  0  0  0
    9.3250  -15.8693   23.0808 C   0  0  0  0  0  0  0  0  0  0  0  0
   10.1711  -14.9470   22.9968 O   0  0  0  0  0  0  0  0  0  0  0  0
    6.0886  -11.2467   28.0985 C   0  0  0  0  0  0  0  0  0  0  0  0
    6.0224  -12.4046   26.7166 S   0  0  0  0  0  0  0  0  0  0  0  0
    7.5622  -13.3939   26.6926 C   0  0  0  0  0  0  0  0  0  0  0  0
    7.5310  -14.2499   25.4700 C   0  0  0  0  0  0  0  0  0  0  0  0
    8.7654  -15.1084   25.3661 C   0  0  2  0  0  0  0  0  0  0  0  0
    8.5801  -16.0666   24.2615 N   0  0  0  0  0  0  0  0  0  0  0  0
    9.0259  -15.9242   26.5656 C   0  0  0  0  0  0  0  0  0  0  0  0
    9.3392  -15.4159   27.6622 O   0  0  0  0  0  0  0  0  0  0  0  0
    8.9298  -17.3000   26.5231 O   0  0  0  0  0  0  0  0  0  0  0  0
  2  1  1  6
  3  2  1  0
  4  3  1  0
  5  2  1  0
  6  5  2  0
  7  8  1  0
  9  8  1  1
  9 11  1  0
  9 10  1  0
 10  5  1  0
 11 12  2  0
 14 13  1  0
 14 15  1  0
 15 16  1  0
 17 16  1  1
 18 17  1  0
 18 11  1  0
 19 21  1  0
 19 17  1  0
 20 19  2  0
M  END
$$$$
