CSM.pdb
     RDKit          3D

 21 20  0  0  1  0  0  0  0  0999 V2000
    5.3794  -13.8267   26.0892 N   0  0  0  0  0  0  0  0  0  0  0  0
    6.2815  -13.4854   24.9868 C   0  0  1  0  0  0  0  0  0  0  0  0
    7.1068  -12.2939   25.4533 C   0  0  0  0  0  0  0  0  0  0  0  0
    5.9651  -10.9635   25.9842 S   0  0  0  0  0  0  0  0  0  0  0  0
    7.2084  -14.6114   24.7502 C   0  0  0  0  0  0  0  0  0  0  0  0
    7.5463  -15.3906   25.6960 O   0  0  0  0  0  0  0  0  0  0  0  0
    9.0901  -14.9112   21.1627 O   0  0  0  0  0  0  0  0  0  0  0  0
    8.7248  -16.1520   21.6861 C   0  0  0  0  0  0  0  0  0  0  0  0
    8.5544  -15.9382   23.1892 C   0  0  2  0  0  0  0  0  0  0  0  0
    7.7151  -14.8040   23.4362 N   0  0  0  0  0  0  0  0  0  0  0  0
    9.9380  -15.6971   23.7122 C   0  0  0  0  0  0  0  0  0  0  0  0
   10.4219  -14.5534   23.5355 O   0  0  0  0  0  0  0  0  0  0  0  0
    9.9040  -15.0447   29.7776 C   0  0  0  0  0  0  0  0  0  0  0  0
   10.8220  -14.4429   28.3459 S   0  0  0  0  0  0  0  0  0  0  0  0
   11.0889  -15.8300   27.1820 C   0  0  0  0  0  0  0  0  0  0  0  0
   11.7959  -15.2864   25.9848 C   0  0  0  0  0  0  0  0  0  0  0  0
   11.9897  -16.3458   24.9304 C   0  0  2  0  0  0  0  0  0  0  0  0
   10.6721  -16.7023   24.3743 N   0  0  0  0  0  0  0  0  0  0  0  0
   12.5606  -17.6025   25.4470 C   0  0  0  0  0  0  0  0  0  0  0  0
   11.8915  -18.6533   25.5318 O   0  0  0  0  0  0  0  0  0  0  0  0
   13.8753  -17.6679   25.8605 O   0  0  0  0  0  0  0  0  0  0  0  0
  2  1  1  1
  3  2  1  0
  4  3  1  0
  5  2  1  0
  6  5  2  0
  7  8  1  0
  9  8  1  6
  9 11  1  0
  9 10  1  0
 10  5  1  0
 11 12  2  0
 14 13  1  0
 14 15  1  0
 15 16  1  0
 17 16  1  1
 18 17  1  0
 18 11  1  0
 19 21  1  0
 19 17  1  0
 20 19  2  0
M  END
$$$$
