CSM.pdb
     RDKit          3D

 21 20  0  0  1  0  0  0  0  0999 V2000
    7.5740  -14.5465   17.1672 N   0  0  0  0  0  0  0  0  0  0  0  0
    8.4894  -14.1946   18.2552 C   0  0  1  0  0  0  0  0  0  0  0  0
    8.0532  -12.8280   18.7657 C   0  0  0  0  0  0  0  0  0  0  0  0
    9.0947  -12.3814   20.2048 S   0  0  0  0  0  0  0  0  0  0  0  0
    8.3266  -15.1620   19.3601 C   0  0  0  0  0  0  0  0  0  0  0  0
    7.1713  -15.5044   19.7651 O   0  0  0  0  0  0  0  0  0  0  0  0
   11.5246  -17.4321   20.9398 O   0  0  0  0  0  0  0  0  0  0  0  0
   10.2018  -17.8608   20.8241 C   0  0  0  0  0  0  0  0  0  0  0  0
    9.3388  -16.6204   21.0504 C   0  0  2  0  0  0  0  0  0  0  0  0
    9.4954  -15.7028   19.9617 N   0  0  0  0  0  0  0  0  0  0  0  0
    9.8420  -16.0182   22.3271 C   0  0  0  0  0  0  0  0  0  0  0  0
   10.7903  -15.2020   22.2366 O   0  0  0  0  0  0  0  0  0  0  0  0
    7.9479  -12.7297   28.9932 C   0  0  0  0  0  0  0  0  0  0  0  0
    7.4903  -13.6205   27.4926 S   0  0  0  0  0  0  0  0  0  0  0  0
    9.0019  -14.3060   26.7210 C   0  0  0  0  0  0  0  0  0  0  0  0
    8.6023  -14.9444   25.4322 C   0  0  0  0  0  0  0  0  0  0  0  0
    9.7719  -15.6239   24.7673 C   0  0  2  0  0  0  0  0  0  0  0  0
    9.2828  -16.3462   23.5792 N   0  0  0  0  0  0  0  0  0  0  0  0
   10.4294  -16.6379   25.6108 C   0  0  0  0  0  0  0  0  0  0  0  0
   10.2003  -17.8590   25.4861 O   0  0  0  0  0  0  0  0  0  0  0  0
   11.3378  -16.2722   26.5829 O   0  0  0  0  0  0  0  0  0  0  0  0
  2  1  1  6
  3  2  1  0
  4  3  1  0
  5  2  1  0
  6  5  2  0
  7  8  1  0
  9  8  1  6
  9 11  1  0
  9 10  1  0
 10  5  1  0
 11 12  2  0
 14 13  1  0
 14 15  1  0
 15 16  1  0
 17 16  1  1
 18 17  1  0
 18 11  1  0
 19 21  1  0
 19 17  1  0
 20 19  2  0
M  END
$$$$
