CSM.pdb
     RDKit          3D

 21 20  0  0  1  0  0  0  0  0999 V2000
    7.7942  -14.9632   17.4193 N   0  0  0  0  0  0  0  0  0  0  0  0
    8.5272  -14.4966   18.5985 C   0  0  1  0  0  0  0  0  0  0  0  0
    7.9854  -13.1121   18.9275 C   0  0  0  0  0  0  0  0  0  0  0  0
    8.8164  -11.8873   17.8484 S   0  0  0  0  0  0  0  0  0  0  0  0
    8.2247  -15.3828   19.7415 C   0  0  0  0  0  0  0  0  0  0  0  0
    7.0287  -15.7200   20.0094 O   0  0  0  0  0  0  0  0  0  0  0  0
   11.2401  -17.2722   21.8682 O   0  0  0  0  0  0  0  0  0  0  0  0
    9.9527  -17.8083   21.8216 C   0  0  0  0  0  0  0  0  0  0  0  0
    9.0059  -16.6142   21.7117 C   0  0  2  0  0  0  0  0  0  0  0  0
    9.3055  -15.8511   20.5371 N   0  0  0  0  0  0  0  0  0  0  0  0
    9.2508  -15.8024   22.9474 C   0  0  0  0  0  0  0  0  0  0  0  0
   10.1218  -14.9026   22.8739 O   0  0  0  0  0  0  0  0  0  0  0  0
    6.3631  -11.3612   28.3395 C   0  0  0  0  0  0  0  0  0  0  0  0
    6.2004  -12.4405   26.9031 S   0  0  0  0  0  0  0  0  0  0  0  0
    7.6996  -13.4816   26.7661 C   0  0  0  0  0  0  0  0  0  0  0  0
    7.6005  -14.2519   25.4912 C   0  0  0  0  0  0  0  0  0  0  0  0
    8.8033  -15.1369   25.2865 C   0  0  2  0  0  0  0  0  0  0  0  0
    8.5407  -16.0302   24.1439 N   0  0  0  0  0  0  0  0  0  0  0  0
    9.0927  -16.0214   26.4292 C   0  0  0  0  0  0  0  0  0  0  0  0
    9.3549  -15.5772   27.5663 O   0  0  0  0  0  0  0  0  0  0  0  0
    9.0828  -17.3936   26.2852 O   0  0  0  0  0  0  0  0  0  0  0  0
  2  1  1  6
  3  2  1  0
  4  3  1  0
  5  2  1  0
  6  5  2  0
  7  8  1  0
  9  8  1  1
  9 11  1  0
  9 10  1  0
 10  5  1  0
 11 12  2  0
 14 13  1  0
 14 15  1  0
 15 16  1  0
 17 16  1  1
 18 17  1  0
 18 11  1  0
 19 21  1  0
 19 17  1  0
 20 19  2  0
M  END
$$$$
