CSM.pdb
     RDKit          3D

 21 20  0  0  1  0  0  0  0  0999 V2000
    8.1454  -14.6315   17.1736 N   0  0  0  0  0  0  0  0  0  0  0  0
    8.7215  -14.1761   18.4410 C   0  0  1  0  0  0  0  0  0  0  0  0
    8.0663  -12.8393   18.7609 C   0  0  0  0  0  0  0  0  0  0  0  0
    8.6834  -12.2593   20.3851 S   0  0  0  0  0  0  0  0  0  0  0  0
    8.3545  -15.1261   19.5115 C   0  0  0  0  0  0  0  0  0  0  0  0
    7.1861  -15.6227   19.5733 O   0  0  0  0  0  0  0  0  0  0  0  0
   11.2514  -16.9269   21.6578 O   0  0  0  0  0  0  0  0  0  0  0  0
    9.9959  -17.5315   21.5846 C   0  0  0  0  0  0  0  0  0  0  0  0
    8.9845  -16.3883   21.5161 C   0  0  2  0  0  0  0  0  0  0  0  0
    9.3415  -15.4730   20.4737 N   0  0  0  0  0  0  0  0  0  0  0  0
    9.0548  -15.7195   22.8553 C   0  0  0  0  0  0  0  0  0  0  0  0
    9.9913  -14.9046   23.0361 O   0  0  0  0  0  0  0  0  0  0  0  0
    6.8597  -11.0048   27.3477 C   0  0  0  0  0  0  0  0  0  0  0  0
    6.6672  -12.2723   26.0784 S   0  0  0  0  0  0  0  0  0  0  0  0
    7.0793  -13.9044   26.7973 C   0  0  0  0  0  0  0  0  0  0  0  0
    6.9549  -14.9214   25.7117 C   0  0  0  0  0  0  0  0  0  0  0  0
    8.3050  -15.3274   25.1788 C   0  0  2  0  0  0  0  0  0  0  0  0
    8.1168  -15.9859   23.8737 N   0  0  0  0  0  0  0  0  0  0  0  0
    9.0087  -16.3076   26.0251 C   0  0  0  0  0  0  0  0  0  0  0  0
    8.7971  -17.5353   25.9399 O   0  0  0  0  0  0  0  0  0  0  0  0
    9.9432  -15.9012   26.9553 O   0  0  0  0  0  0  0  0  0  0  0  0
  2  1  1  6
  3  2  1  0
  4  3  1  0
  5  2  1  0
  6  5  2  0
  7  8  1  0
  9  8  1  1
  9 11  1  0
  9 10  1  0
 10  5  1  0
 11 12  2  0
 14 13  1  0
 14 15  1  0
 15 16  1  0
 17 16  1  1
 18 17  1  0
 18 11  1  0
 19 21  1  0
 19 17  1  0
 20 19  2  0
M  END
$$$$
