CSM.pdb
     RDKit          3D

 21 20  0  0  1  0  0  0  0  0999 V2000
    7.9718  -14.4451   17.0525 N   0  0  0  0  0  0  0  0  0  0  0  0
    8.6394  -14.0687   18.3008 C   0  0  1  0  0  0  0  0  0  0  0  0
    8.2007  -12.6452   18.6164 C   0  0  0  0  0  0  0  0  0  0  0  0
    8.8850  -12.1704   20.2479 S   0  0  0  0  0  0  0  0  0  0  0  0
    8.1589  -14.9414   19.3919 C   0  0  0  0  0  0  0  0  0  0  0  0
    6.9291  -15.2475   19.4915 O   0  0  0  0  0  0  0  0  0  0  0  0
    8.4219  -18.3468   22.3392 O   0  0  0  0  0  0  0  0  0  0  0  0
    8.9782  -17.6776   21.2483 C   0  0  0  0  0  0  0  0  0  0  0  0
    8.6297  -16.2025   21.4405 C   0  0  2  0  0  0  0  0  0  0  0  0
    9.1065  -15.4324   20.3307 N   0  0  0  0  0  0  0  0  0  0  0  0
    9.3237  -15.7953   22.7048 C   0  0  0  0  0  0  0  0  0  0  0  0
   10.5765  -15.7384   22.6735 O   0  0  0  0  0  0  0  0  0  0  0  0
    5.4200  -11.8317   26.7913 C   0  0  0  0  0  0  0  0  0  0  0  0
    7.1821  -11.9777   26.4328 S   0  0  0  0  0  0  0  0  0  0  0  0
    7.5250  -13.6609   25.8006 C   0  0  0  0  0  0  0  0  0  0  0  0
    8.9897  -13.7515   25.5266 C   0  0  0  0  0  0  0  0  0  0  0  0
    9.3840  -15.1385   25.0879 C   0  0  2  0  0  0  0  0  0  0  0  0
    8.6116  -15.4876   23.8821 N   0  0  0  0  0  0  0  0  0  0  0  0
    9.0769  -16.1859   26.0784 C   0  0  0  0  0  0  0  0  0  0  0  0
    9.6169  -16.2179   27.2038 O   0  0  0  0  0  0  0  0  0  0  0  0
    8.1666  -17.1839   25.7973 O   0  0  0  0  0  0  0  0  0  0  0  0
  2  1  1  6
  3  2  1  0
  4  3  1  0
  5  2  1  0
  6  5  2  0
  7  8  1  0
  9  8  1  6
  9 11  1  0
  9 10  1  0
 10  5  1  0
 11 12  2  0
 14 13  1  0
 14 15  1  0
 15 16  1  0
 17 16  1  1
 18 17  1  0
 18 11  1  0
 19 21  1  0
 19 17  1  0
 20 19  2  0
M  END
$$$$
