CSM.pdb
     RDKit          3D

 21 20  0  0  1  0  0  0  0  0999 V2000
    6.8772  -20.6125   22.5693 N   0  0  0  0  0  0  0  0  0  0  0  0
    6.3519  -19.2453   22.5939 C   0  0  1  0  0  0  0  0  0  0  0  0
    5.9920  -18.9438   24.0424 C   0  0  0  0  0  0  0  0  0  0  0  0
    6.0382  -20.5081   24.9943 S   0  0  0  0  0  0  0  0  0  0  0  0
    7.4189  -18.3068   22.1893 C   0  0  0  0  0  0  0  0  0  0  0  0
    8.6413  -18.6541   22.2179 O   0  0  0  0  0  0  0  0  0  0  0  0
    6.3579  -14.8060   20.4549 O   0  0  0  0  0  0  0  0  0  0  0  0
    7.6296  -15.2898   20.1454 C   0  0  0  0  0  0  0  0  0  0  0  0
    8.0787  -16.0951   21.3636 C   0  0  2  0  0  0  0  0  0  0  0  0
    7.0457  -17.0022   21.7660 N   0  0  0  0  0  0  0  0  0  0  0  0
    8.3375  -15.0787   22.4341 C   0  0  0  0  0  0  0  0  0  0  0  0
    7.8702  -13.9289   22.2522 O   0  0  0  0  0  0  0  0  0  0  0  0
    6.6230  -11.4348   27.5921 C   0  0  0  0  0  0  0  0  0  0  0  0
    7.0984  -12.3062   26.0857 S   0  0  0  0  0  0  0  0  0  0  0  0
    6.8260  -14.1006   26.3230 C   0  0  0  0  0  0  0  0  0  0  0  0
    7.2427  -14.7915   25.0671 C   0  0  0  0  0  0  0  0  0  0  0  0
    8.7289  -14.6792   24.8428 C   0  0  2  0  0  0  0  0  0  0  0  0
    9.0714  -15.3891   23.5972 N   0  0  0  0  0  0  0  0  0  0  0  0
    9.5397  -15.3096   25.8998 C   0  0  0  0  0  0  0  0  0  0  0  0
   10.0085  -14.6595   26.8573 O   0  0  0  0  0  0  0  0  0  0  0  0
    9.8137  -16.6616   25.8732 O   0  0  0  0  0  0  0  0  0  0  0  0
  2  1  1  1
  3  2  1  0
  4  3  1  0
  5  2  1  0
  6  5  2  0
  7  8  1  0
  9  8  1  6
  9 11  1  0
  9 10  1  0
 10  5  1  0
 11 12  2  0
 14 13  1  0
 14 15  1  0
 15 16  1  0
 17 16  1  1
 18 17  1  0
 18 11  1  0
 19 21  1  0
 19 17  1  0
 20 19  2  0
M  END
$$$$
