CSM.pdb
     RDKit          3D

 21 20  0  0  1  0  0  0  0  0999 V2000
    8.5257  -12.8725   18.1144 N   0  0  0  0  0  0  0  0  0  0  0  0
    8.9550  -14.1937   18.5787 C   0  0  1  0  0  0  0  0  0  0  0  0
   10.4479  -14.0918   18.8603 C   0  0  0  0  0  0  0  0  0  0  0  0
   10.7000  -12.9557   20.2750 S   0  0  0  0  0  0  0  0  0  0  0  0
    8.2757  -14.5060   19.8531 C   0  0  0  0  0  0  0  0  0  0  0  0
    7.7622  -13.5854   20.5636 O   0  0  0  0  0  0  0  0  0  0  0  0
    8.5056  -18.2908   21.5682 O   0  0  0  0  0  0  0  0  0  0  0  0
    7.2563  -17.6694   21.5836 C   0  0  0  0  0  0  0  0  0  0  0  0
    7.5339  -16.1697   21.4933 C   0  0  2  0  0  0  0  0  0  0  0  0
    8.2093  -15.8639   20.2677 N   0  0  0  0  0  0  0  0  0  0  0  0
    8.4073  -15.8592   22.6710 C   0  0  0  0  0  0  0  0  0  0  0  0
    9.5968  -15.5424   22.4296 O   0  0  0  0  0  0  0  0  0  0  0  0
    5.6975  -12.1834   26.7738 C   0  0  0  0  0  0  0  0  0  0  0  0
    7.4497  -11.8070   26.9801 S   0  0  0  0  0  0  0  0  0  0  0  0
    8.4271  -13.3209   26.6591 C   0  0  0  0  0  0  0  0  0  0  0  0
    7.8314  -14.0005   25.4710 C   0  0  0  0  0  0  0  0  0  0  0  0
    8.6640  -15.1786   25.0343 C   0  0  2  0  0  0  0  0  0  0  0  0
    7.9250  -15.9171   23.9946 N   0  0  0  0  0  0  0  0  0  0  0  0
    8.9265  -16.1528   26.1086 C   0  0  0  0  0  0  0  0  0  0  0  0
    8.1911  -17.1426   26.3051 O   0  0  0  0  0  0  0  0  0  0  0  0
   10.0113  -16.0081   26.9488 O   0  0  0  0  0  0  0  0  0  0  0  0
  2  1  1  1
  3  2  1  0
  4  3  1  0
  5  2  1  0
  6  5  2  0
  7  8  1  0
  9  8  1  6
  9 11  1  0
  9 10  1  0
 10  5  1  0
 11 12  2  0
 14 13  1  0
 14 15  1  0
 15 16  1  0
 17 16  1  1
 18 17  1  0
 18 11  1  0
 19 21  1  0
 19 17  1  0
 20 19  2  0
M  END
$$$$
