CSM.pdb
     RDKit          3D

 21 20  0  0  1  0  0  0  0  0999 V2000
   10.6521  -17.6873   18.6133 N   0  0  0  0  0  0  0  0  0  0  0  0
   10.1145  -18.6141   19.6122 C   0  0  1  0  0  0  0  0  0  0  0  0
   11.2999  -19.1050   20.4322 C   0  0  0  0  0  0  0  0  0  0  0  0
   12.1302  -17.6563   21.1854 S   0  0  0  0  0  0  0  0  0  0  0  0
    9.2105  -17.8792   20.5210 C   0  0  0  0  0  0  0  0  0  0  0  0
    8.9128  -16.6625   20.3048 O   0  0  0  0  0  0  0  0  0  0  0  0
    7.8161  -19.6976   23.9114 O   0  0  0  0  0  0  0  0  0  0  0  0
    6.8455  -19.0199   23.1726 C   0  0  0  0  0  0  0  0  0  0  0  0
    7.5971  -17.9633   22.3644 C   0  0  2  0  0  0  0  0  0  0  0  0
    8.6797  -18.5665   21.6463 N   0  0  0  0  0  0  0  0  0  0  0  0
    8.1125  -16.9859   23.3768 C   0  0  0  0  0  0  0  0  0  0  0  0
    9.3338  -17.0470   23.6566 O   0  0  0  0  0  0  0  0  0  0  0  0
    6.8128  -10.4165   27.5136 C   0  0  0  0  0  0  0  0  0  0  0  0
    6.1398  -11.7176   26.4605 S   0  0  0  0  0  0  0  0  0  0  0  0
    7.4190  -13.0020   26.2075 C   0  0  0  0  0  0  0  0  0  0  0  0
    6.8828  -13.9865   25.2217 C   0  0  0  0  0  0  0  0  0  0  0  0
    7.8829  -15.0759   24.9304 C   0  0  2  0  0  0  0  0  0  0  0  0
    7.2725  -16.0362   23.9935 N   0  0  0  0  0  0  0  0  0  0  0  0
    8.2691  -15.8619   26.1158 C   0  0  0  0  0  0  0  0  0  0  0  0
    7.6392  -16.8782   26.4758 O   0  0  0  0  0  0  0  0  0  0  0  0
    9.3579  -15.5016   26.8828 O   0  0  0  0  0  0  0  0  0  0  0  0
  2  1  1  6
  3  2  1  0
  4  3  1  0
  5  2  1  0
  6  5  2  0
  7  8  1  0
  9  8  1  1
  9 11  1  0
  9 10  1  0
 10  5  1  0
 11 12  2  0
 14 13  1  0
 14 15  1  0
 15 16  1  0
 17 16  1  1
 18 17  1  0
 18 11  1  0
 19 21  1  0
 19 17  1  0
 20 19  2  0
M  END
$$$$
