CSM.pdb
     RDKit          3D

 21 20  0  0  1  0  0  0  0  0999 V2000
   11.5402  -16.5958   18.0541 N   0  0  0  0  0  0  0  0  0  0  0  0
   11.4695  -17.2961   19.3387 C   0  0  1  0  0  0  0  0  0  0  0  0
   12.8074  -17.0721   20.0302 C   0  0  0  0  0  0  0  0  0  0  0  0
   14.0031  -18.3117   19.4065 S   0  0  0  0  0  0  0  0  0  0  0  0
   10.4203  -16.6759   20.1739 C   0  0  0  0  0  0  0  0  0  0  0  0
   10.2096  -15.4229   20.1362 O   0  0  0  0  0  0  0  0  0  0  0  0
    8.2099  -18.9805   22.8074 O   0  0  0  0  0  0  0  0  0  0  0  0
    7.5131  -18.0330   22.0565 C   0  0  0  0  0  0  0  0  0  0  0  0
    8.5285  -16.9455   21.7092 C   0  0  2  0  0  0  0  0  0  0  0  0
    9.6496  -17.5153   21.0234 N   0  0  0  0  0  0  0  0  0  0  0  0
    8.9512  -16.3665   23.0252 C   0  0  0  0  0  0  0  0  0  0  0  0
   10.1047  -16.6510   23.4281 O   0  0  0  0  0  0  0  0  0  0  0  0
    6.2823  -11.2915   25.5693 C   0  0  0  0  0  0  0  0  0  0  0  0
    7.0946  -11.7933   27.1001 S   0  0  0  0  0  0  0  0  0  0  0  0
    8.1493  -13.2514   26.7658 C   0  0  0  0  0  0  0  0  0  0  0  0
    7.7398  -13.8125   25.4444 C   0  0  0  0  0  0  0  0  0  0  0  0
    8.6308  -14.9556   25.0305 C   0  0  2  0  0  0  0  0  0  0  0  0
    8.1000  -15.5383   23.7851 N   0  0  0  0  0  0  0  0  0  0  0  0
    8.6724  -16.0607   26.0048 C   0  0  0  0  0  0  0  0  0  0  0  0
    7.8223  -16.9753   26.0119 O   0  0  0  0  0  0  0  0  0  0  0  0
    9.6674  -16.1296   26.9582 O   0  0  0  0  0  0  0  0  0  0  0  0
  2  1  1  6
  3  2  1  0
  4  3  1  0
  5  2  1  0
  6  5  2  0
  7  8  1  0
  9  8  1  1
  9 11  1  0
  9 10  1  0
 10  5  1  0
 11 12  2  0
 14 13  1  0
 14 15  1  0
 15 16  1  0
 17 16  1  1
 18 17  1  0
 18 11  1  0
 19 21  1  0
 19 17  1  0
 20 19  2  0
M  END
$$$$
