CSM.pdb
     RDKit          3D

 21 20  0  0  1  0  0  0  0  0999 V2000
   12.1826  -17.2015   19.2237 N   0  0  0  0  0  0  0  0  0  0  0  0
   11.0773  -17.6887   20.0524 C   0  0  1  0  0  0  0  0  0  0  0  0
   11.7043  -18.4832   21.1900 C   0  0  0  0  0  0  0  0  0  0  0  0
   10.3644  -19.2511   22.1750 S   0  0  0  0  0  0  0  0  0  0  0  0
   10.3682  -16.5356   20.6445 C   0  0  0  0  0  0  0  0  0  0  0  0
   11.0062  -15.5164   21.0566 O   0  0  0  0  0  0  0  0  0  0  0  0
    6.3442  -16.7968   21.2277 O   0  0  0  0  0  0  0  0  0  0  0  0
    6.7836  -15.5102   20.9134 C   0  0  0  0  0  0  0  0  0  0  0  0
    8.2614  -15.4670   21.2989 C   0  0  2  0  0  0  0  0  0  0  0  0
    8.9513  -16.5926   20.7430 N   0  0  0  0  0  0  0  0  0  0  0  0
    8.2796  -15.5215   22.7964 C   0  0  0  0  0  0  0  0  0  0  0  0
    8.8144  -16.5266   23.3230 O   0  0  0  0  0  0  0  0  0  0  0  0
    7.2491  -10.7088   27.1295 C   0  0  0  0  0  0  0  0  0  0  0  0
    6.2835  -12.0604   27.8334 S   0  0  0  0  0  0  0  0  0  0  0  0
    6.8886  -13.6461   27.1482 C   0  0  0  0  0  0  0  0  0  0  0  0
    7.0999  -13.4545   25.6829 C   0  0  0  0  0  0  0  0  0  0  0  0
    7.7226  -14.6731   25.0513 C   0  0  2  0  0  0  0  0  0  0  0  0
    7.7239  -14.4956   23.5881 N   0  0  0  0  0  0  0  0  0  0  0  0
    6.9786  -15.9202   25.3035 C   0  0  0  0  0  0  0  0  0  0  0  0
    7.2865  -16.7054   26.2243 O   0  0  0  0  0  0  0  0  0  0  0  0
    5.8968  -16.2718   24.5227 O   0  0  0  0  0  0  0  0  0  0  0  0
  2  1  1  6
  3  2  1  0
  4  3  1  0
  5  2  1  0
  6  5  2  0
  7  8  1  0
  9  8  1  6
  9 11  1  0
  9 10  1  0
 10  5  1  0
 11 12  2  0
 14 13  1  0
 14 15  1  0
 15 16  1  0
 17 16  1  1
 18 17  1  0
 18 11  1  0
 19 21  1  0
 19 17  1  0
 20 19  2  0
M  END
$$$$
