CSM.pdb
     RDKit          3D

 21 20  0  0  1  0  0  0  0  0999 V2000
    8.0815  -13.9703   17.3840 N   0  0  0  0  0  0  0  0  0  0  0  0
    9.0613  -14.1887   18.4507 C   0  0  1  0  0  0  0  0  0  0  0  0
    9.5294  -12.8111   18.8999 C   0  0  0  0  0  0  0  0  0  0  0  0
   10.8245  -13.0215   20.1780 S   0  0  0  0  0  0  0  0  0  0  0  0
    8.3939  -14.8352   19.5995 C   0  0  0  0  0  0  0  0  0  0  0  0
    7.2091  -14.5166   19.9321 O   0  0  0  0  0  0  0  0  0  0  0  0
   10.2164  -17.9796   21.5654 O   0  0  0  0  0  0  0  0  0  0  0  0
    8.8230  -17.9129   21.5340 C   0  0  0  0  0  0  0  0  0  0  0  0
    8.4768  -16.4265   21.4621 C   0  0  2  0  0  0  0  0  0  0  0  0
    9.1095  -15.8250   20.3265 N   0  0  0  0  0  0  0  0  0  0  0  0
    9.0034  -15.8374   22.7355 C   0  0  0  0  0  0  0  0  0  0  0  0
   10.2038  -15.4731   22.7405 O   0  0  0  0  0  0  0  0  0  0  0  0
    5.7733  -11.8602   26.1055 C   0  0  0  0  0  0  0  0  0  0  0  0
    7.3691  -11.6925   26.9301 S   0  0  0  0  0  0  0  0  0  0  0  0
    8.3087  -13.2510   26.7344 C   0  0  0  0  0  0  0  0  0  0  0  0
    7.8485  -13.9012   25.4719 C   0  0  0  0  0  0  0  0  0  0  0  0
    8.7739  -15.0161   25.0566 C   0  0  2  0  0  0  0  0  0  0  0  0
    8.1959  -15.6940   23.8823 N   0  0  0  0  0  0  0  0  0  0  0  0
    8.9429  -16.0621   26.0810 C   0  0  0  0  0  0  0  0  0  0  0  0
    8.3825  -17.1747   25.9963 O   0  0  0  0  0  0  0  0  0  0  0  0
    9.7397  -15.8503   27.1873 O   0  0  0  0  0  0  0  0  0  0  0  0
  2  1  1  6
  3  2  1  0
  4  3  1  0
  5  2  1  0
  6  5  2  0
  7  8  1  0
  9  8  1  1
  9 11  1  0
  9 10  1  0
 10  5  1  0
 11 12  2  0
 14 13  1  0
 14 15  1  0
 15 16  1  0
 17 16  1  1
 18 17  1  0
 18 11  1  0
 19 21  1  0
 19 17  1  0
 20 19  2  0
M  END
$$$$
