CSM.pdb
     RDKit          3D

 21 20  0  0  1  0  0  0  0  0999 V2000
   10.1342  -17.6773   17.6237 N   0  0  0  0  0  0  0  0  0  0  0  0
    9.9924  -18.0081   19.0436 C   0  0  1  0  0  0  0  0  0  0  0  0
   11.3560  -18.4950   19.5149 C   0  0  0  0  0  0  0  0  0  0  0  0
   11.2260  -18.9839   21.2754 S   0  0  0  0  0  0  0  0  0  0  0  0
    9.6657  -16.7809   19.7987 C   0  0  0  0  0  0  0  0  0  0  0  0
   10.3464  -15.7183   19.6467 O   0  0  0  0  0  0  0  0  0  0  0  0
    6.1172  -16.6052   21.4181 O   0  0  0  0  0  0  0  0  0  0  0  0
    6.7302  -15.3553   21.3227 C   0  0  0  0  0  0  0  0  0  0  0  0
    8.2326  -15.6184   21.4123 C   0  0  2  0  0  0  0  0  0  0  0  0
    8.5689  -16.8161   20.7022 N   0  0  0  0  0  0  0  0  0  0  0  0
    8.5190  -15.7718   22.8753 C   0  0  0  0  0  0  0  0  0  0  0  0
    8.4501  -16.9308   23.3502 O   0  0  0  0  0  0  0  0  0  0  0  0
    5.6739  -10.8160   26.7799 C   0  0  0  0  0  0  0  0  0  0  0  0
    5.8702  -12.6060   26.6708 S   0  0  0  0  0  0  0  0  0  0  0  0
    7.4726  -12.9830   25.8707 C   0  0  0  0  0  0  0  0  0  0  0  0
    7.5735  -14.4663   25.7366 C   0  0  0  0  0  0  0  0  0  0  0  0
    8.8991  -14.8783   25.1494 C   0  0  2  0  0  0  0  0  0  0  0  0
    8.8520  -14.6710   23.6909 N   0  0  0  0  0  0  0  0  0  0  0  0
    9.2180  -16.3043   25.3420 C   0  0  0  0  0  0  0  0  0  0  0  0
   10.0370  -16.6941   26.2002 O   0  0  0  0  0  0  0  0  0  0  0  0
    8.6139  -17.2771   24.5724 O   0  0  0  0  0  0  0  0  0  0  0  0
  2  1  1  6
  3  2  1  0
  4  3  1  0
  5  2  1  0
  6  5  2  0
  7  8  1  0
  9  8  1  1
  9 11  1  0
  9 10  1  0
 10  5  1  0
 11 12  2  0
 14 13  1  0
 14 15  1  0
 15 16  1  0
 17 16  1  1
 18 17  1  0
 18 11  1  0
 19 21  1  0
 19 17  1  0
 20 19  2  0
M  END
$$$$
