FFT.pdb
     RDKit          3D

 30 31  0  0  1  0  0  0  0  0999 V2000
    9.9084  -17.6472   20.0738 N   0  0  0  0  0  0  0  0  0  0  0  0
    9.3952  -16.5218   20.8259 C   0  0  1  0  0  0  0  0  0  0  0  0
    7.9684  -16.2916   20.3408 C   0  0  0  0  0  0  0  0  0  0  0  0
    7.6689  -14.8382   20.5174 C   0  0  0  0  0  0  0  0  0  0  0  0
    8.0242  -13.8996   19.5740 C   0  0  0  0  0  0  0  0  0  0  0  0
    7.7278  -12.5695   19.7786 C   0  0  0  0  0  0  0  0  0  0  0  0
    7.0770  -12.1662   20.9218 C   0  0  0  0  0  0  0  0  0  0  0  0
    6.7151  -13.0913   21.8743 C   0  0  0  0  0  0  0  0  0  0  0  0
    7.0195  -14.4076   21.6504 C   0  0  0  0  0  0  0  0  0  0  0  0
    9.4554  -16.8333   22.2559 C   0  0  0  0  0  0  0  0  0  0  0  0
   10.2070  -17.7625   22.6535 O   0  0  0  0  0  0  0  0  0  0  0  0
    8.7145  -16.1526   23.2518 N   0  0  0  0  0  0  0  0  0  0  0  0
    9.3168  -15.8363   24.5314 C   0  0  1  0  0  0  0  0  0  0  0  0
    8.4770  -14.9233   25.3469 C   0  0  0  0  0  0  0  0  0  0  0  0
    9.0840  -14.6492   26.6613 C   0  0  0  0  0  0  0  0  0  0  0  0
    8.9141  -15.5135   27.7374 C   0  0  0  0  0  0  0  0  0  0  0  0
    9.5034  -15.2710   28.9598 C   0  0  0  0  0  0  0  0  0  0  0  0
   10.2887  -14.1578   29.1686 C   0  0  0  0  0  0  0  0  0  0  0  0
   10.4664  -13.2921   28.1112 C   0  0  0  0  0  0  0  0  0  0  0  0
    9.8694  -13.5392   26.8746 C   0  0  0  0  0  0  0  0  0  0  0  0
    9.5368  -17.1114   25.2378 C   0  0  0  0  0  0  0  0  0  0  0  0
    8.5994  -17.9030   25.5036 O   0  0  0  0  0  0  0  0  0  0  0  0
   11.0261  -20.3138   24.4904 C   0  0  0  0  0  0  0  0  0  0  0  0
   11.8062  -19.7431   25.6346 C   0  0  1  0  0  0  0  0  0  0  0  0
   13.0227  -19.2481   25.2110 O   0  0  0  0  0  0  0  0  0  0  0  0
   11.0193  -18.7175   26.4310 C   0  0  2  0  0  0  0  0  0  0  0  0
   10.8277  -17.5287   25.6653 N   0  0  0  0  0  0  0  0  0  0  0  0
   11.7536  -18.4923   27.6938 C   0  0  0  0  0  0  0  0  0  0  0  0
   12.2613  -17.3915   27.9816 O   0  0  0  0  0  0  0  0  0  0  0  0
   11.8777  -19.5426   28.5810 O   0  0  0  0  0  0  0  0  0  0  0  0
  2  1  1  6
  2  3  1  0
  3  4  1  0
  4  9  2  0
  5  6  2  0
  5  4  1  0
  6  7  1  0
  7  8  2  0
  9  8  1  0
 10  2  1  0
 10 11  2  0
 12 10  1  0
 13 12  1  0
 13 14  1  1
 15 14  1  0
 15 16  2  0
 17 16  1  0
 18 17  2  0
 19 20  2  0
 19 18  1  0
 20 15  1  0
 21 13  1  0
 22 21  2  0
 24 23  1  6
 24 26  1  0
 25 24  1  0
 26 27  1  6
 26 28  1  0
 27 21  1  0
 28 30  1  0
 29 28  2  0
M  END
$$$$
