FFT.pdb
     RDKit          3D

 30 31  0  0  1  0  0  0  0  0999 V2000
    7.7135  -18.5488   27.3704 N   0  0  0  0  0  0  0  0  0  0  0  0
    8.3199  -17.3459   26.8406 C   0  0  1  0  0  0  0  0  0  0  0  0
    9.8250  -17.5879   26.8315 C   0  0  0  0  0  0  0  0  0  0  0  0
   10.4693  -16.3989   27.4675 C   0  0  0  0  0  0  0  0  0  0  0  0
   10.7892  -16.3710   28.8069 C   0  0  0  0  0  0  0  0  0  0  0  0
   11.3827  -15.2528   29.3512 C   0  0  0  0  0  0  0  0  0  0  0  0
   11.6610  -14.1573   28.5667 C   0  0  0  0  0  0  0  0  0  0  0  0
   11.3477  -14.1689   27.2267 C   0  0  0  0  0  0  0  0  0  0  0  0
   10.7584  -15.2905   26.7069 C   0  0  0  0  0  0  0  0  0  0  0  0
    7.7872  -17.0909   25.5001 C   0  0  0  0  0  0  0  0  0  0  0  0
    7.1625  -18.0055   24.9006 O   0  0  0  0  0  0  0  0  0  0  0  0
    7.9240  -15.8633   24.8083 N   0  0  0  0  0  0  0  0  0  0  0  0
    7.4777  -15.7374   23.4354 C   0  0  1  0  0  0  0  0  0  0  0  0
    6.9744  -14.3764   23.1218 C   0  0  0  0  0  0  0  0  0  0  0  0
    6.6888  -13.6036   24.3433 C   0  0  0  0  0  0  0  0  0  0  0  0
    7.5141  -12.5639   24.7582 C   0  0  0  0  0  0  0  0  0  0  0  0
    7.2330  -11.8236   25.8864 C   0  0  0  0  0  0  0  0  0  0  0  0
    6.1182  -12.0827   26.6543 C   0  0  0  0  0  0  0  0  0  0  0  0
    5.2907  -13.1100   26.2556 C   0  0  0  0  0  0  0  0  0  0  0  0
    5.5767  -13.8583   25.1132 C   0  0  0  0  0  0  0  0  0  0  0  0
    8.6211  -16.0816   22.5709 C   0  0  0  0  0  0  0  0  0  0  0  0
    8.5460  -16.0630   21.3179 O   0  0  0  0  0  0  0  0  0  0  0  0
   11.7987  -14.6509   21.6346 C   0  0  0  0  0  0  0  0  0  0  0  0
   12.1129  -15.9603   22.2905 C   0  0  1  0  0  0  0  0  0  0  0  0
   12.6034  -15.7737   23.5669 O   0  0  0  0  0  0  0  0  0  0  0  0
   10.9431  -16.9279   22.2650 C   0  0  2  0  0  0  0  0  0  0  0  0
    9.8863  -16.4580   23.1009 N   0  0  0  0  0  0  0  0  0  0  0  0
   11.4658  -18.2513   22.6648 C   0  0  0  0  0  0  0  0  0  0  0  0
   11.0216  -18.8730   23.6490 O   0  0  0  0  0  0  0  0  0  0  0  0
   12.4816  -18.8126   21.9174 O   0  0  0  0  0  0  0  0  0  0  0  0
  2  1  1  6
  2  3  1  0
  3  4  1  0
  4  9  2  0
  5  6  2  0
  5  4  1  0
  6  7  1  0
  7  8  2  0
  9  8  1  0
 10  2  1  0
 10 11  2  0
 12 10  1  0
 13 12  1  0
 13 14  1  6
 15 14  1  0
 15 16  2  0
 17 16  1  0
 18 17  2  0
 19 20  2  0
 19 18  1  0
 20 15  1  0
 21 13  1  0
 22 21  2  0
 24 23  1  1
 24 26  1  0
 25 24  1  0
 26 27  1  1
 26 28  1  0
 27 21  1  0
 28 30  1  0
 29 28  2  0
M  END
$$$$
