FFT.pdb
     RDKit          3D

 30 31  0  0  1  0  0  0  0  0999 V2000
    9.3615  -17.7023   19.9637 N   0  0  0  0  0  0  0  0  0  0  0  0
    8.5074  -18.0334   21.0846 C   0  0  1  0  0  0  0  0  0  0  0  0
    8.9004  -19.4380   21.5280 C   0  0  0  0  0  0  0  0  0  0  0  0
    8.3019  -20.3957   20.5493 C   0  0  0  0  0  0  0  0  0  0  0  0
    6.9640  -20.7227   20.5725 C   0  0  0  0  0  0  0  0  0  0  0  0
    6.4549  -21.6110   19.6502 C   0  0  0  0  0  0  0  0  0  0  0  0
    7.2732  -22.1784   18.7006 C   0  0  0  0  0  0  0  0  0  0  0  0
    8.6121  -21.8623   18.6637 C   0  0  0  0  0  0  0  0  0  0  0  0
    9.0966  -20.9773   19.5897 C   0  0  0  0  0  0  0  0  0  0  0  0
    8.6992  -17.0394   22.1434 C   0  0  0  0  0  0  0  0  0  0  0  0
    9.8527  -16.5816   22.3578 O   0  0  0  0  0  0  0  0  0  0  0  0
    7.6605  -16.5405   22.9658 N   0  0  0  0  0  0  0  0  0  0  0  0
    7.9501  -15.6002   24.0298 C   0  0  1  0  0  0  0  0  0  0  0  0
    6.7555  -14.8225   24.4445 C   0  0  0  0  0  0  0  0  0  0  0  0
    7.0625  -13.8936   25.5462 C   0  0  0  0  0  0  0  0  0  0  0  0
    7.6109  -12.6376   25.3096 C   0  0  0  0  0  0  0  0  0  0  0  0
    7.8739  -11.7580   26.3379 C   0  0  0  0  0  0  0  0  0  0  0  0
    7.6037  -12.0865   27.6488 C   0  0  0  0  0  0  0  0  0  0  0  0
    7.0598  -13.3277   27.8988 C   0  0  0  0  0  0  0  0  0  0  0  0
    6.7941  -14.2168   26.8569 C   0  0  0  0  0  0  0  0  0  0  0  0
    8.4864  -16.3748   25.1636 C   0  0  0  0  0  0  0  0  0  0  0  0
    7.8202  -17.2674   25.7428 O   0  0  0  0  0  0  0  0  0  0  0  0
   11.3731  -18.6439   25.1612 C   0  0  0  0  0  0  0  0  0  0  0  0
   11.6104  -17.6540   26.2600 C   0  0  1  0  0  0  0  0  0  0  0  0
   12.5897  -16.7466   25.9108 O   0  0  0  0  0  0  0  0  0  0  0  0
   10.3363  -16.9688   26.7212 C   0  0  2  0  0  0  0  0  0  0  0  0
    9.7958  -16.1610   25.6764 N   0  0  0  0  0  0  0  0  0  0  0  0
   10.6715  -16.2057   27.9418 C   0  0  0  0  0  0  0  0  0  0  0  0
   10.6009  -14.9627   27.9903 O   0  0  0  0  0  0  0  0  0  0  0  0
   11.0762  -16.9005   29.0639 O   0  0  0  0  0  0  0  0  0  0  0  0
  2  1  1  6
  2  3  1  0
  3  4  1  0
  4  9  2  0
  5  6  2  0
  5  4  1  0
  6  7  1  0
  7  8  2  0
  9  8  1  0
 10  2  1  0
 10 11  2  0
 12 10  1  0
 13 12  1  0
 13 14  1  1
 15 14  1  0
 15 16  2  0
 17 16  1  0
 18 17  2  0
 19 20  2  0
 19 18  1  0
 20 15  1  0
 21 13  1  0
 22 21  2  0
 24 23  1  6
 24 26  1  0
 25 24  1  0
 26 27  1  6
 26 28  1  0
 27 21  1  0
 28 30  1  0
 29 28  2  0
M  END
$$$$
