FFT.pdb
     RDKit          3D

 30 31  0  0  1  0  0  0  0  0999 V2000
    5.6447  -17.0252   20.8575 N   0  0  0  0  0  0  0  0  0  0  0  0
    5.3662  -17.2483   22.2604 C   0  0  1  0  0  0  0  0  0  0  0  0
    5.2172  -18.7551   22.4377 C   0  0  0  0  0  0  0  0  0  0  0  0
    3.8679  -19.1316   21.9173 C   0  0  0  0  0  0  0  0  0  0  0  0
    3.7032  -19.7625   20.7041 C   0  0  0  0  0  0  0  0  0  0  0  0
    2.4397  -20.0914   20.2634 C   0  0  0  0  0  0  0  0  0  0  0  0
    1.3340  -19.7946   21.0267 C   0  0  0  0  0  0  0  0  0  0  0  0
    1.4811  -19.1645   22.2412 C   0  0  0  0  0  0  0  0  0  0  0  0
    2.7459  -18.8469   22.6595 C   0  0  0  0  0  0  0  0  0  0  0  0
    6.4629  -16.6976   23.0603 C   0  0  0  0  0  0  0  0  0  0  0  0
    7.6006  -16.5630   22.5370 O   0  0  0  0  0  0  0  0  0  0  0  0
    6.3393  -16.2944   24.4117 N   0  0  0  0  0  0  0  0  0  0  0  0
    7.4543  -15.6771   25.1015 C   0  0  1  0  0  0  0  0  0  0  0  0
    7.1154  -15.2785   26.4908 C   0  0  0  0  0  0  0  0  0  0  0  0
    8.2639  -14.6640   27.1795 C   0  0  0  0  0  0  0  0  0  0  0  0
    8.5495  -13.3087   27.0540 C   0  0  0  0  0  0  0  0  0  0  0  0
    9.6083  -12.7282   27.7190 C   0  0  0  0  0  0  0  0  0  0  0  0
   10.4319  -13.4684   28.5395 C   0  0  0  0  0  0  0  0  0  0  0  0
   10.1612  -14.8128   28.6739 C   0  0  0  0  0  0  0  0  0  0  0  0
    9.0890  -15.3988   28.0002 C   0  0  0  0  0  0  0  0  0  0  0  0
    8.5639  -16.6475   25.0944 C   0  0  0  0  0  0  0  0  0  0  0  0
    8.3904  -17.8687   25.3281 O   0  0  0  0  0  0  0  0  0  0  0  0
   10.0714  -18.3449   22.6322 C   0  0  0  0  0  0  0  0  0  0  0  0
   11.1967  -17.5661   23.2411 C   0  0  1  0  0  0  0  0  0  0  0  0
   11.4937  -16.4480   22.4888 O   0  0  0  0  0  0  0  0  0  0  0  0
   10.9544  -17.2236   24.7004 C   0  0  2  0  0  0  0  0  0  0  0  0
    9.9060  -16.2631   24.8219 N   0  0  0  0  0  0  0  0  0  0  0  0
   12.2432  -16.7618   25.2574 C   0  0  0  0  0  0  0  0  0  0  0  0
   12.4266  -15.5855   25.6247 O   0  0  0  0  0  0  0  0  0  0  0  0
   13.2758  -17.6708   25.3721 O   0  0  0  0  0  0  0  0  0  0  0  0
  2  1  1  6
  2  3  1  0
  3  4  1  0
  4  9  2  0
  5  6  2  0
  5  4  1  0
  6  7  1  0
  7  8  2  0
  9  8  1  0
 10  2  1  0
 10 11  2  0
 12 10  1  0
 13 12  1  0
 13 14  1  1
 15 14  1  0
 15 16  2  0
 17 16  1  0
 18 17  2  0
 19 20  2  0
 19 18  1  0
 20 15  1  0
 21 13  1  0
 22 21  2  0
 24 23  1  6
 24 26  1  0
 25 24  1  0
 26 27  1  6
 26 28  1  0
 27 21  1  0
 28 30  1  0
 29 28  2  0
M  END
$$$$
