FFT.pdb
     RDKit          3D

 30 31  0  0  1  0  0  0  0  0999 V2000
    8.7471  -16.6392   21.2464 N   0  0  0  0  0  0  0  0  0  0  0  0
    9.9779  -16.1218   21.8057 C   0  0  1  0  0  0  0  0  0  0  0  0
   10.2707  -14.8168   21.0740 C   0  0  0  0  0  0  0  0  0  0  0  0
    8.9554  -14.1911   20.7396 C   0  0  0  0  0  0  0  0  0  0  0  0
    8.8663  -13.0139   20.0301 C   0  0  0  0  0  0  0  0  0  0  0  0
    7.6318  -12.4726   19.7440 C   0  0  0  0  0  0  0  0  0  0  0  0
    6.4802  -13.0989   20.1620 C   0  0  0  0  0  0  0  0  0  0  0  0
    6.5517  -14.2757   20.8720 C   0  0  0  0  0  0  0  0  0  0  0  0
    7.7889  -14.7956   21.1450 C   0  0  0  0  0  0  0  0  0  0  0  0
    9.8049  -15.9272   23.2472 C   0  0  0  0  0  0  0  0  0  0  0  0
   10.7026  -15.3336   23.9014 O   0  0  0  0  0  0  0  0  0  0  0  0
    8.6768  -16.3665   23.9810 N   0  0  0  0  0  0  0  0  0  0  0  0
    8.6104  -16.1743   25.4158 C   0  0  1  0  0  0  0  0  0  0  0  0
    7.2558  -15.7780   25.8760 C   0  0  0  0  0  0  0  0  0  0  0  0
    7.1296  -14.3162   26.0113 C   0  0  0  0  0  0  0  0  0  0  0  0
    8.1855  -13.5318   26.4626 C   0  0  0  0  0  0  0  0  0  0  0  0
    8.0765  -12.1614   26.5643 C   0  0  0  0  0  0  0  0  0  0  0  0
    6.9125  -11.5076   26.2219 C   0  0  0  0  0  0  0  0  0  0  0  0
    5.8574  -12.2718   25.7727 C   0  0  0  0  0  0  0  0  0  0  0  0
    5.9695  -13.6588   25.6703 C   0  0  0  0  0  0  0  0  0  0  0  0
    9.0244  -17.4410   26.0459 C   0  0  0  0  0  0  0  0  0  0  0  0
    8.2839  -18.0695   26.8415 O   0  0  0  0  0  0  0  0  0  0  0  0
   10.2731  -20.8035   24.4820 C   0  0  0  0  0  0  0  0  0  0  0  0
   11.2954  -20.2025   25.3969 C   0  0  1  0  0  0  0  0  0  0  0  0
   12.3169  -19.6100   24.6829 O   0  0  0  0  0  0  0  0  0  0  0  0
   10.6890  -19.2555   26.4172 C   0  0  2  0  0  0  0  0  0  0  0  0
   10.2919  -18.0350   25.7935 N   0  0  0  0  0  0  0  0  0  0  0  0
   11.6916  -19.0707   27.4873 C   0  0  0  0  0  0  0  0  0  0  0  0
   12.2378  -17.9723   27.7055 O   0  0  0  0  0  0  0  0  0  0  0  0
   12.0303  -20.1570   28.2688 O   0  0  0  0  0  0  0  0  0  0  0  0
  2  1  1  6
  2  3  1  0
  3  4  1  0
  4  9  2  0
  5  6  2  0
  5  4  1  0
  6  7  1  0
  7  8  2  0
  9  8  1  0
 10  2  1  0
 10 11  2  0
 12 10  1  0
 13 12  1  0
 13 14  1  6
 15 14  1  0
 15 16  2  0
 17 16  1  0
 18 17  2  0
 19 20  2  0
 19 18  1  0
 20 15  1  0
 21 13  1  0
 22 21  2  0
 24 23  1  6
 24 26  1  0
 25 24  1  0
 26 27  1  6
 26 28  1  0
 27 21  1  0
 28 30  1  0
 29 28  2  0
M  END
$$$$
