FFT.pdb
     RDKit          3D

 30 31  0  0  1  0  0  0  0  0999 V2000
    8.2635  -16.7116   20.4744 N   0  0  0  0  0  0  0  0  0  0  0  0
    9.6562  -16.5598   20.8391 C   0  0  1  0  0  0  0  0  0  0  0  0
   10.1706  -15.3395   20.0841 C   0  0  0  0  0  0  0  0  0  0  0  0
    8.9772  -14.5610   19.6335 C   0  0  0  0  0  0  0  0  0  0  0  0
    8.3084  -14.8599   18.4670 C   0  0  0  0  0  0  0  0  0  0  0  0
    7.2120  -14.1150   18.0902 C   0  0  0  0  0  0  0  0  0  0  0  0
    6.7755  -13.0696   18.8710 C   0  0  0  0  0  0  0  0  0  0  0  0
    7.4324  -12.7578   20.0394 C   0  0  0  0  0  0  0  0  0  0  0  0
    8.5194  -13.5113   20.3945 C   0  0  0  0  0  0  0  0  0  0  0  0
    9.7567  -16.4010   22.2918 C   0  0  0  0  0  0  0  0  0  0  0  0
   10.8906  -16.2490   22.8185 O   0  0  0  0  0  0  0  0  0  0  0  0
    8.6484  -16.4053   23.1726 N   0  0  0  0  0  0  0  0  0  0  0  0
    8.6040  -15.5031   24.3058 C   0  0  1  0  0  0  0  0  0  0  0  0
    7.2203  -15.0949   24.6560 C   0  0  0  0  0  0  0  0  0  0  0  0
    7.2057  -13.9920   25.6329 C   0  0  0  0  0  0  0  0  0  0  0  0
    6.7844  -12.7136   25.2833 C   0  0  0  0  0  0  0  0  0  0  0  0
    6.7457  -11.6880   26.2035 C   0  0  0  0  0  0  0  0  0  0  0  0
    7.1241  -11.8860   27.5138 C   0  0  0  0  0  0  0  0  0  0  0  0
    7.5438  -13.1479   27.8753 C   0  0  0  0  0  0  0  0  0  0  0  0
    7.5823  -14.1849   26.9427 C   0  0  0  0  0  0  0  0  0  0  0  0
    9.2458  -16.1934   25.4393 C   0  0  0  0  0  0  0  0  0  0  0  0
    9.3402  -15.6722   26.5774 O   0  0  0  0  0  0  0  0  0  0  0  0
   12.5052  -16.8938   26.0779 C   0  0  0  0  0  0  0  0  0  0  0  0
   11.8862  -18.2397   26.2987 C   0  0  1  0  0  0  0  0  0  0  0  0
   12.4746  -18.8905   27.3638 O   0  0  0  0  0  0  0  0  0  0  0  0
   10.3749  -18.1785   26.4321 C   0  0  2  0  0  0  0  0  0  0  0  0
    9.8010  -17.4973   25.3172 N   0  0  0  0  0  0  0  0  0  0  0  0
   10.0796  -17.5362   27.7300 C   0  0  0  0  0  0  0  0  0  0  0  0
    9.4715  -16.4519   27.8133 O   0  0  0  0  0  0  0  0  0  0  0  0
   10.4947  -18.1649   28.8868 O   0  0  0  0  0  0  0  0  0  0  0  0
  2  1  1  1
  2  3  1  0
  3  4  1  0
  4  9  2  0
  5  6  2  0
  5  4  1  0
  6  7  1  0
  7  8  2  0
  9  8  1  0
 10  2  1  0
 10 11  2  0
 12 10  1  0
 13 12  1  0
 13 14  1  1
 15 14  1  0
 15 16  2  0
 17 16  1  0
 18 17  2  0
 19 20  2  0
 19 18  1  0
 20 15  1  0
 21 13  1  0
 22 21  2  0
 24 23  1  1
 24 26  1  0
 25 24  1  0
 26 27  1  6
 26 28  1  0
 27 21  1  0
 28 30  1  0
 29 28  2  0
M  END
$$$$
