FFT.pdb
     RDKit          3D

 30 31  0  0  1  0  0  0  0  0999 V2000
    5.9790  -15.7886   21.5553 N   0  0  0  0  0  0  0  0  0  0  0  0
    7.1935  -16.5753   21.5948 C   0  0  1  0  0  0  0  0  0  0  0  0
    7.8929  -16.3589   20.2576 C   0  0  0  0  0  0  0  0  0  0  0  0
    7.8287  -14.8969   19.9550 C   0  0  0  0  0  0  0  0  0  0  0  0
    7.2746  -13.9929   20.8342 C   0  0  0  0  0  0  0  0  0  0  0  0
    7.2366  -12.6533   20.5136 C   0  0  0  0  0  0  0  0  0  0  0  0
    7.7492  -12.2060   19.3176 C   0  0  0  0  0  0  0  0  0  0  0  0
    8.3063  -13.0961   18.4280 C   0  0  0  0  0  0  0  0  0  0  0  0
    8.3335  -14.4226   18.7671 C   0  0  0  0  0  0  0  0  0  0  0  0
    8.0106  -16.1389   22.7295 C   0  0  0  0  0  0  0  0  0  0  0  0
    8.9581  -15.3327   22.5332 O   0  0  0  0  0  0  0  0  0  0  0  0
    7.8122  -16.5648   24.0650 N   0  0  0  0  0  0  0  0  0  0  0  0
    8.7191  -16.1455   25.1146 C   0  0  1  0  0  0  0  0  0  0  0  0
    8.0070  -15.6723   26.3283 C   0  0  0  0  0  0  0  0  0  0  0  0
    8.9419  -15.1715   27.3511 C   0  0  0  0  0  0  0  0  0  0  0  0
    9.4365  -13.8723   27.3133 C   0  0  0  0  0  0  0  0  0  0  0  0
   10.2905  -13.3950   28.2844 C   0  0  0  0  0  0  0  0  0  0  0  0
   10.6921  -14.1875   29.3380 C   0  0  0  0  0  0  0  0  0  0  0  0
   10.2100  -15.4774   29.3891 C   0  0  0  0  0  0  0  0  0  0  0  0
    9.3455  -15.9589   28.4053 C   0  0  0  0  0  0  0  0  0  0  0  0
    9.5815  -17.2979   25.4331 C   0  0  0  0  0  0  0  0  0  0  0  0
    9.1332  -18.3500   25.9509 O   0  0  0  0  0  0  0  0  0  0  0  0
   11.5521  -19.5068   23.2290 C   0  0  0  0  0  0  0  0  0  0  0  0
   12.5025  -18.9200   24.2269 C   0  0  1  0  0  0  0  0  0  0  0  0
   13.2959  -17.9498   23.6493 O   0  0  0  0  0  0  0  0  0  0  0  0
   11.8060  -18.4162   25.4785 C   0  0  2  0  0  0  0  0  0  0  0  0
   10.9801  -17.2929   25.1743 N   0  0  0  0  0  0  0  0  0  0  0  0
   12.8595  -18.1204   26.4721 C   0  0  0  0  0  0  0  0  0  0  0  0
   13.0603  -16.9703   26.9073 O   0  0  0  0  0  0  0  0  0  0  0  0
   13.6449  -19.1592   26.9299 O   0  0  0  0  0  0  0  0  0  0  0  0
  2  1  1  6
  2  3  1  0
  3  4  1  0
  4  9  2  0
  5  6  2  0
  5  4  1  0
  6  7  1  0
  7  8  2  0
  9  8  1  0
 10  2  1  0
 10 11  2  0
 12 10  1  0
 13 12  1  0
 13 14  1  1
 15 14  1  0
 15 16  2  0
 17 16  1  0
 18 17  2  0
 19 20  2  0
 19 18  1  0
 20 15  1  0
 21 13  1  0
 22 21  2  0
 24 23  1  6
 24 26  1  0
 25 24  1  0
 26 27  1  6
 26 28  1  0
 27 21  1  0
 28 30  1  0
 29 28  2  0
M  END
$$$$
