FFT.pdb
     RDKit          3D

 30 31  0  0  1  0  0  0  0  0999 V2000
    6.9951  -13.8454   22.1690 N   0  0  0  0  0  0  0  0  0  0  0  0
    8.0948  -14.7866   22.1538 C   0  0  1  0  0  0  0  0  0  0  0  0
    9.1067  -14.2537   21.1459 C   0  0  0  0  0  0  0  0  0  0  0  0
    8.3655  -13.9744   19.8786 C   0  0  0  0  0  0  0  0  0  0  0  0
    8.1180  -12.6907   19.4451 C   0  0  0  0  0  0  0  0  0  0  0  0
    7.4303  -12.4799   18.2698 C   0  0  0  0  0  0  0  0  0  0  0  0
    6.9854  -13.5443   17.5198 C   0  0  0  0  0  0  0  0  0  0  0  0
    7.2243  -14.8332   17.9388 C   0  0  0  0  0  0  0  0  0  0  0  0
    7.9095  -15.0193   19.1098 C   0  0  0  0  0  0  0  0  0  0  0  0
    8.6538  -14.8925   23.5037 C   0  0  0  0  0  0  0  0  0  0  0  0
    9.4382  -13.9985   23.9181 O   0  0  0  0  0  0  0  0  0  0  0  0
    8.3729  -15.9500   24.4019 N   0  0  0  0  0  0  0  0  0  0  0  0
    8.9512  -15.9616   25.7306 C   0  0  1  0  0  0  0  0  0  0  0  0
    7.9427  -15.7228   26.7936 C   0  0  0  0  0  0  0  0  0  0  0  0
    7.4892  -14.3211   26.8129 C   0  0  0  0  0  0  0  0  0  0  0  0
    6.2434  -13.9508   26.3180 C   0  0  0  0  0  0  0  0  0  0  0  0
    5.8080  -12.6436   26.3598 C   0  0  0  0  0  0  0  0  0  0  0  0
    6.5912  -11.6441   26.8956 C   0  0  0  0  0  0  0  0  0  0  0  0
    7.8284  -11.9958   27.3902 C   0  0  0  0  0  0  0  0  0  0  0  0
    8.2675  -13.3195   27.3473 C   0  0  0  0  0  0  0  0  0  0  0  0
    9.5998  -17.2727   25.9135 C   0  0  0  0  0  0  0  0  0  0  0  0
    8.9648  -18.2913   26.2811 O   0  0  0  0  0  0  0  0  0  0  0  0
   11.6603  -18.7240   22.7597 C   0  0  0  0  0  0  0  0  0  0  0  0
   10.8782  -19.1638   23.9590 C   0  0  1  0  0  0  0  0  0  0  0  0
   10.6357  -20.5219   23.9256 O   0  0  0  0  0  0  0  0  0  0  0  0
   11.5132  -18.7300   25.2682 C   0  0  2  0  0  0  0  0  0  0  0  0
   10.9899  -17.4696   25.6851 N   0  0  0  0  0  0  0  0  0  0  0  0
   12.9762  -18.7196   25.0584 C   0  0  0  0  0  0  0  0  0  0  0  0
   13.6493  -17.6726   25.1133 O   0  0  0  0  0  0  0  0  0  0  0  0
   13.6131  -19.9152   24.7926 O   0  0  0  0  0  0  0  0  0  0  0  0
  2  1  1  1
  2  3  1  0
  3  4  1  0
  4  9  2  0
  5  6  2  0
  5  4  1  0
  6  7  1  0
  7  8  2  0
  9  8  1  0
 10  2  1  0
 10 11  2  0
 12 10  1  0
 13 12  1  0
 13 14  1  1
 15 14  1  0
 15 16  2  0
 17 16  1  0
 18 17  2  0
 19 20  2  0
 19 18  1  0
 20 15  1  0
 21 13  1  0
 22 21  2  0
 24 23  1  6
 24 26  1  0
 25 24  1  0
 26 27  1  6
 26 28  1  0
 27 21  1  0
 28 30  1  0
 29 28  2  0
M  END
$$$$
