FFT.pdb
     RDKit          3D

 30 31  0  0  1  0  0  0  0  0999 V2000
    9.7667  -17.5364   20.1492 N   0  0  0  0  0  0  0  0  0  0  0  0
    9.4848  -17.9857   21.4961 C   0  0  1  0  0  0  0  0  0  0  0  0
   10.6092  -18.9418   21.8776 C   0  0  0  0  0  0  0  0  0  0  0  0
   10.4294  -20.1841   21.0666 C   0  0  0  0  0  0  0  0  0  0  0  0
    9.3427  -21.0139   21.2331 C   0  0  0  0  0  0  0  0  0  0  0  0
    9.2176  -22.1496   20.4630 C   0  0  0  0  0  0  0  0  0  0  0  0
   10.1720  -22.4658   19.5237 C   0  0  0  0  0  0  0  0  0  0  0  0
   11.2639  -21.6475   19.3448 C   0  0  0  0  0  0  0  0  0  0  0  0
   11.3680  -20.5240   20.1210 C   0  0  0  0  0  0  0  0  0  0  0  0
    9.4146  -16.8232   22.3845 C   0  0  0  0  0  0  0  0  0  0  0  0
   10.3109  -15.9409   22.3173 O   0  0  0  0  0  0  0  0  0  0  0  0
    8.3901  -16.6092   23.3378 N   0  0  0  0  0  0  0  0  0  0  0  0
    8.4333  -15.4611   24.2209 C   0  0  1  0  0  0  0  0  0  0  0  0
    7.1761  -15.2861   24.9908 C   0  0  0  0  0  0  0  0  0  0  0  0
    7.1691  -14.0219   25.7475 C   0  0  0  0  0  0  0  0  0  0  0  0
    6.9349  -13.9936   27.1180 C   0  0  0  0  0  0  0  0  0  0  0  0
    6.9543  -12.8139   27.8308 C   0  0  0  0  0  0  0  0  0  0  0  0
    7.2074  -11.6078   27.2138 C   0  0  0  0  0  0  0  0  0  0  0  0
    7.4416  -11.6200   25.8558 C   0  0  0  0  0  0  0  0  0  0  0  0
    7.4217  -12.8150   25.1359 C   0  0  0  0  0  0  0  0  0  0  0  0
    9.5781  -15.6517   25.1298 C   0  0  0  0  0  0  0  0  0  0  0  0
   10.6642  -15.0402   24.9803 O   0  0  0  0  0  0  0  0  0  0  0  0
   10.5282  -14.0461   27.2198 C   0  0  0  0  0  0  0  0  0  0  0  0
   10.5010  -15.2843   28.0623 C   0  0  1  0  0  0  0  0  0  0  0  0
    9.4340  -15.2687   28.9374 O   0  0  0  0  0  0  0  0  0  0  0  0
   10.5440  -16.5588   27.2383 C   0  0  2  0  0  0  0  0  0  0  0  0
    9.5269  -16.5427   26.2375 N   0  0  0  0  0  0  0  0  0  0  0  0
   10.4233  -17.6899   28.1819 C   0  0  0  0  0  0  0  0  0  0  0  0
    9.4350  -18.4486   28.1891 O   0  0  0  0  0  0  0  0  0  0  0  0
   11.4449  -17.9080   29.0844 O   0  0  0  0  0  0  0  0  0  0  0  0
  2  1  1  6
  2  3  1  0
  3  4  1  0
  4  9  2  0
  5  6  2  0
  5  4  1  0
  6  7  1  0
  7  8  2  0
  9  8  1  0
 10  2  1  0
 10 11  2  0
 12 10  1  0
 13 12  1  0
 13 14  1  1
 15 14  1  0
 15 16  2  0
 17 16  1  0
 18 17  2  0
 19 20  2  0
 19 18  1  0
 20 15  1  0
 21 13  1  0
 22 21  2  0
 24 23  1  6
 24 26  1  0
 25 24  1  0
 26 27  1  6
 26 28  1  0
 27 21  1  0
 28 30  1  0
 29 28  2  0
M  END
$$$$
