FFT.pdb
     RDKit          3D

 30 31  0  0  1  0  0  0  0  0999 V2000
    9.1788  -16.9913   19.5413 N   0  0  0  0  0  0  0  0  0  0  0  0
    8.5163  -17.5121   20.7184 C   0  0  1  0  0  0  0  0  0  0  0  0
    9.1088  -18.8935   20.9728 C   0  0  0  0  0  0  0  0  0  0  0  0
    8.1592  -19.8956   20.4006 C   0  0  0  0  0  0  0  0  0  0  0  0
    8.1861  -20.2500   19.0698 C   0  0  0  0  0  0  0  0  0  0  0  0
    7.2911  -21.1790   18.5851 C   0  0  0  0  0  0  0  0  0  0  0  0
    6.3653  -21.7599   19.4209 C   0  0  0  0  0  0  0  0  0  0  0  0
    6.3251  -21.4169   20.7531 C   0  0  0  0  0  0  0  0  0  0  0  0
    7.2238  -20.4917   21.2132 C   0  0  0  0  0  0  0  0  0  0  0  0
    8.7378  -16.5945   21.8385 C   0  0  0  0  0  0  0  0  0  0  0  0
    9.9006  -16.1668   22.0646 O   0  0  0  0  0  0  0  0  0  0  0  0
    7.7187  -16.1395   22.7095 N   0  0  0  0  0  0  0  0  0  0  0  0
    8.0204  -15.1966   23.7678 C   0  0  1  0  0  0  0  0  0  0  0  0
    6.8639  -14.3294   24.1059 C   0  0  0  0  0  0  0  0  0  0  0  0
    7.1429  -13.4759   25.2741 C   0  0  0  0  0  0  0  0  0  0  0  0
    8.2201  -12.5965   25.2941 C   0  0  0  0  0  0  0  0  0  0  0  0
    8.4661  -11.7788   26.3763 C   0  0  0  0  0  0  0  0  0  0  0  0
    7.6524  -11.7977   27.4885 C   0  0  0  0  0  0  0  0  0  0  0  0
    6.5807  -12.6640   27.4831 C   0  0  0  0  0  0  0  0  0  0  0  0
    6.3330  -13.4909   26.3869 C   0  0  0  0  0  0  0  0  0  0  0  0
    8.4449  -15.9795   24.9425 C   0  0  0  0  0  0  0  0  0  0  0  0
    7.6692  -16.7608   25.5457 O   0  0  0  0  0  0  0  0  0  0  0  0
   10.9181  -18.6115   25.0444 C   0  0  0  0  0  0  0  0  0  0  0  0
   11.3314  -17.6343   26.1017 C   0  0  1  0  0  0  0  0  0  0  0  0
   12.4410  -16.9141   25.7088 O   0  0  0  0  0  0  0  0  0  0  0  0
   10.1943  -16.7321   26.5472 C   0  0  2  0  0  0  0  0  0  0  0  0
    9.7634  -15.9007   25.4703 N   0  0  0  0  0  0  0  0  0  0  0  0
   10.6765  -15.9732   27.7202 C   0  0  0  0  0  0  0  0  0  0  0  0
   10.8202  -14.7357   27.6995 O   0  0  0  0  0  0  0  0  0  0  0  0
   10.9766  -16.6656   28.8760 O   0  0  0  0  0  0  0  0  0  0  0  0
  2  1  1  6
  2  3  1  0
  3  4  1  0
  4  9  2  0
  5  6  2  0
  5  4  1  0
  6  7  1  0
  7  8  2  0
  9  8  1  0
 10  2  1  0
 10 11  2  0
 12 10  1  0
 13 12  1  0
 13 14  1  1
 15 14  1  0
 15 16  2  0
 17 16  1  0
 18 17  2  0
 19 20  2  0
 19 18  1  0
 20 15  1  0
 21 13  1  0
 22 21  2  0
 24 23  1  6
 24 26  1  0
 25 24  1  0
 26 27  1  6
 26 28  1  0
 27 21  1  0
 28 30  1  0
 29 28  2  0
M  END
$$$$
