FFT.pdb
     RDKit          3D

 30 31  0  0  1  0  0  0  0  0999 V2000
   10.7534  -15.6745   19.3515 N   0  0  0  0  0  0  0  0  0  0  0  0
    9.9445  -16.4918   20.2308 C   0  0  1  0  0  0  0  0  0  0  0  0
   10.6665  -17.8277   20.3657 C   0  0  0  0  0  0  0  0  0  0  0  0
    9.8956  -18.8308   19.5702 C   0  0  0  0  0  0  0  0  0  0  0  0
    8.8164  -18.4727   18.7928 C   0  0  0  0  0  0  0  0  0  0  0  0
    8.1345  -19.4315   18.0755 C   0  0  0  0  0  0  0  0  0  0  0  0
    8.5222  -20.7506   18.1275 C   0  0  0  0  0  0  0  0  0  0  0  0
    9.5984  -21.1251   18.8992 C   0  0  0  0  0  0  0  0  0  0  0  0
   10.2614  -20.1558   19.6038 C   0  0  0  0  0  0  0  0  0  0  0  0
    9.7924  -15.8069   21.5167 C   0  0  0  0  0  0  0  0  0  0  0  0
   10.8202  -15.4899   22.1719 O   0  0  0  0  0  0  0  0  0  0  0  0
    8.5463  -15.4647   22.0950 N   0  0  0  0  0  0  0  0  0  0  0  0
    8.4889  -14.7887   23.3755 C   0  0  1  0  0  0  0  0  0  0  0  0
    7.2830  -13.9343   23.5159 C   0  0  0  0  0  0  0  0  0  0  0  0
    7.1777  -13.3537   24.8660 C   0  0  0  0  0  0  0  0  0  0  0  0
    8.0467  -12.3593   25.3020 C   0  0  0  0  0  0  0  0  0  0  0  0
    7.9320  -11.7973   26.5555 C   0  0  0  0  0  0  0  0  0  0  0  0
    6.9481  -12.1981   27.4334 C   0  0  0  0  0  0  0  0  0  0  0  0
    6.0793  -13.1827   27.0152 C   0  0  0  0  0  0  0  0  0  0  0  0
    6.1966  -13.7504   25.7461 C   0  0  0  0  0  0  0  0  0  0  0  0
    8.5145  -15.8286   24.4201 C   0  0  0  0  0  0  0  0  0  0  0  0
    7.5235  -16.5591   24.6658 O   0  0  0  0  0  0  0  0  0  0  0  0
   10.5424  -18.8823   24.6538 C   0  0  0  0  0  0  0  0  0  0  0  0
   10.7924  -18.1021   25.9077 C   0  0  1  0  0  0  0  0  0  0  0  0
   12.0390  -17.5105   25.8867 O   0  0  0  0  0  0  0  0  0  0  0  0
    9.6912  -17.1010   26.2084 C   0  0  2  0  0  0  0  0  0  0  0  0
    9.6656  -16.0726   25.2193 N   0  0  0  0  0  0  0  0  0  0  0  0
    9.9262  -16.5954   27.5772 C   0  0  0  0  0  0  0  0  0  0  0  0
   10.1616  -15.3947   27.8122 O   0  0  0  0  0  0  0  0  0  0  0  0
    9.8819  -17.4901   28.6275 O   0  0  0  0  0  0  0  0  0  0  0  0
  2  1  1  6
  2  3  1  0
  3  4  1  0
  4  9  2  0
  5  6  2  0
  5  4  1  0
  6  7  1  0
  7  8  2  0
  9  8  1  0
 10  2  1  0
 10 11  2  0
 12 10  1  0
 13 12  1  0
 13 14  1  6
 15 14  1  0
 15 16  2  0
 17 16  1  0
 18 17  2  0
 19 20  2  0
 19 18  1  0
 20 15  1  0
 21 13  1  0
 22 21  2  0
 24 23  1  6
 24 26  1  0
 25 24  1  0
 26 27  1  6
 26 28  1  0
 27 21  1  0
 28 30  1  0
 29 28  2  0
M  END
$$$$
