QMV.pdb
     RDKit          3D

 25 24  0  0  1  0  0  0  0  0999 V2000
    7.2058  -19.6524   22.0426 N   0  0  0  0  0  0  0  0  0  0  0  0
    7.4226  -19.7883   20.6396 C   0  0  0  0  0  0  0  0  0  0  0  0
    6.7124  -20.6392   20.0375 O   0  0  0  0  0  0  0  0  0  0  0  0
    8.4336  -18.9548   19.9549 C   0  0  0  0  0  0  0  0  0  0  0  0
    9.1197  -17.9575   20.7904 C   0  0  0  0  0  0  0  0  0  0  0  0
    8.3985  -16.7545   21.2534 C   0  0  2  0  0  0  0  0  0  0  0  0
    8.6146  -15.7684   20.1353 N   0  0  0  0  0  0  0  0  0  0  0  0
    8.8596  -16.0497   22.4427 C   0  0  0  0  0  0  0  0  0  0  0  0
   10.0619  -15.6283   22.5123 O   0  0  0  0  0  0  0  0  0  0  0  0
    6.8747  -12.2875   27.5682 C   0  0  0  0  0  0  0  0  0  0  0  0
    6.3627  -11.9939   25.8622 S   0  0  0  0  0  0  0  0  0  0  0  0
    6.8526  -13.3316   24.7708 C   0  0  0  0  0  0  0  0  0  0  0  0
    7.4356  -14.5046   25.5325 C   0  0  0  0  0  0  0  0  0  0  0  0
    8.6317  -15.0881   24.7588 C   0  0  2  0  0  0  0  0  0  0  0  0
    8.0677  -15.7529   23.6036 N   0  0  0  0  0  0  0  0  0  0  0  0
    9.2428  -16.0806   25.6559 C   0  0  0  0  0  0  0  0  0  0  0  0
    8.5996  -17.1078   25.9659 O   0  0  0  0  0  0  0  0  0  0  0  0
   13.0331  -17.1398   25.4422 C   0  0  0  0  0  0  0  0  0  0  0  0
   12.6543  -16.9710   26.8973 C   0  0  2  0  0  0  0  0  0  0  0  0
   13.2526  -18.1303   27.6549 C   0  0  0  0  0  0  0  0  0  0  0  0
   11.1403  -16.9561   26.9712 C   0  0  2  0  0  0  0  0  0  0  0  0
   10.5651  -15.9041   26.1902 N   0  0  0  0  0  0  0  0  0  0  0  0
   10.6590  -16.9067   28.3936 C   0  0  0  0  0  0  0  0  0  0  0  0
   10.2966  -15.8306   28.9268 O   0  0  0  0  0  0  0  0  0  0  0  0
   10.5936  -18.0539   29.1845 O   0  0  0  0  0  0  0  0  0  0  0  0
  1  2  1  0
  2  4  1  0
  3  2  2  0
  4  5  1  0
  6  8  1  0
  6  7  1  6
  6  5  1  0
  8  9  2  0
 11 10  1  0
 12 11  1  0
 12 13  1  0
 14 13  1  1
 14 16  1  0
 15 14  1  0
 15  8  1  0
 16 17  2  0
 16 22  1  0
 19 18  1  6
 19 21  1  0
 20 19  1  0
 21 23  1  0
 21 22  1  6
 23 24  2  0
 23 25  1  0
M  END
$$$$
