QMV.pdb
     RDKit          3D

 25 24  0  0  1  0  0  0  0  0999 V2000
    6.7513  -19.5977   17.6057 N   0  0  0  0  0  0  0  0  0  0  0  0
    7.1476  -18.2348   17.7444 C   0  0  0  0  0  0  0  0  0  0  0  0
    7.0498  -17.5103   16.7165 O   0  0  0  0  0  0  0  0  0  0  0  0
    7.6393  -17.7273   19.0429 C   0  0  0  0  0  0  0  0  0  0  0  0
    6.6706  -16.9654   19.8457 C   0  0  0  0  0  0  0  0  0  0  0  0
    6.9071  -15.5363   20.1347 C   0  0  2  0  0  0  0  0  0  0  0  0
    7.6874  -15.0643   18.9357 N   0  0  0  0  0  0  0  0  0  0  0  0
    7.7378  -15.1576   21.2706 C   0  0  0  0  0  0  0  0  0  0  0  0
    8.9999  -15.3406   21.2310 O   0  0  0  0  0  0  0  0  0  0  0  0
    5.6305  -12.2590   26.9489 C   0  0  0  0  0  0  0  0  0  0  0  0
    7.3917  -11.8732   26.8592 S   0  0  0  0  0  0  0  0  0  0  0  0
    8.2580  -12.9385   25.7038 C   0  0  0  0  0  0  0  0  0  0  0  0
    7.3721  -13.3721   24.5535 C   0  0  0  0  0  0  0  0  0  0  0  0
    8.1727  -14.2580   23.5820 C   0  0  2  0  0  0  0  0  0  0  0  0
    7.2712  -14.5619   22.4914 N   0  0  0  0  0  0  0  0  0  0  0  0
    8.4859  -15.4870   24.3268 C   0  0  0  0  0  0  0  0  0  0  0  0
    7.5652  -16.2839   24.6135 O   0  0  0  0  0  0  0  0  0  0  0  0
   12.4534  -16.9487   24.7742 C   0  0  0  0  0  0  0  0  0  0  0  0
   11.2187  -17.8165   24.6660 C   0  0  2  0  0  0  0  0  0  0  0  0
   10.9583  -18.0465   23.1979 C   0  0  0  0  0  0  0  0  0  0  0  0
   10.0834  -17.0730   25.3415 C   0  0  2  0  0  0  0  0  0  0  0  0
    9.8266  -15.8015   24.7375 N   0  0  0  0  0  0  0  0  0  0  0  0
   10.3158  -16.9389   26.8198 C   0  0  0  0  0  0  0  0  0  0  0  0
   10.4948  -15.8195   27.3570 O   0  0  0  0  0  0  0  0  0  0  0  0
   10.3429  -18.0517   27.6605 O   0  0  0  0  0  0  0  0  0  0  0  0
  1  2  1  0
  2  4  1  0
  3  2  2  0
  4  5  1  0
  6  8  1  0
  6  7  1  6
  6  5  1  0
  8  9  2  0
 11 10  1  0
 12 11  1  0
 12 13  1  0
 14 13  1  1
 14 16  1  0
 15 14  1  0
 15  8  1  0
 16 17  2  0
 16 22  1  0
 19 18  1  6
 19 21  1  0
 20 19  1  0
 21 23  1  0
 21 22  1  6
 23 24  2  0
 23 25  1  0
M  END
$$$$
