QMV.pdb
     RDKit          3D

 25 24  0  0  1  0  0  0  0  0999 V2000
   12.7430  -19.3771   22.5836 N   0  0  0  0  0  0  0  0  0  0  0  0
   12.9899  -19.2691   21.1832 C   0  0  0  0  0  0  0  0  0  0  0  0
   14.1167  -19.6632   20.7757 O   0  0  0  0  0  0  0  0  0  0  0  0
   11.9541  -18.7225   20.2811 C   0  0  0  0  0  0  0  0  0  0  0  0
   10.6520  -18.4278   20.8986 C   0  0  0  0  0  0  0  0  0  0  0  0
    9.9901  -17.1307   20.6518 C   0  0  2  0  0  0  0  0  0  0  0  0
   10.9183  -16.4462   19.6827 N   0  0  0  0  0  0  0  0  0  0  0  0
    9.8470  -16.1745   21.7423 C   0  0  0  0  0  0  0  0  0  0  0  0
   10.6395  -15.1784   21.8295 O   0  0  0  0  0  0  0  0  0  0  0  0
    6.2240  -12.1882   27.0304 C   0  0  0  0  0  0  0  0  0  0  0  0
    7.0543  -13.5894   26.2519 S   0  0  0  0  0  0  0  0  0  0  0  0
    6.9371  -13.5340   24.4621 C   0  0  0  0  0  0  0  0  0  0  0  0
    7.1866  -14.8892   23.8319 C   0  0  0  0  0  0  0  0  0  0  0  0
    8.7006  -15.1512   23.7371 C   0  0  2  0  0  0  0  0  0  0  0  0
    8.8556  -16.2259   22.7803 N   0  0  0  0  0  0  0  0  0  0  0  0
    9.1117  -15.6099   25.0727 C   0  0  0  0  0  0  0  0  0  0  0  0
    8.9315  -16.8051   25.3950 O   0  0  0  0  0  0  0  0  0  0  0  0
   11.4580  -14.9466   29.3249 C   0  0  0  0  0  0  0  0  0  0  0  0
   10.7486  -14.2350   28.1936 C   0  0  2  0  0  0  0  0  0  0  0  0
    9.5152  -13.5878   28.7730 C   0  0  0  0  0  0  0  0  0  0  0  0
   10.4124  -15.2766   27.1449 C   0  0  2  0  0  0  0  0  0  0  0  0
    9.7181  -14.7201   26.0244 N   0  0  0  0  0  0  0  0  0  0  0  0
    9.6556  -16.4309   27.7384 C   0  0  0  0  0  0  0  0  0  0  0  0
   10.2209  -17.2809   28.4675 O   0  0  0  0  0  0  0  0  0  0  0  0
    8.2918  -16.6093   27.5055 O   0  0  0  0  0  0  0  0  0  0  0  0
  1  2  1  0
  2  4  1  0
  3  2  2  0
  4  5  1  0
  6  8  1  0
  6  7  1  6
  6  5  1  0
  8  9  2  0
 11 10  1  0
 12 11  1  0
 12 13  1  0
 14 13  1  1
 14 16  1  0
 15 14  1  0
 15  8  1  0
 16 17  2  0
 16 22  1  0
 19 18  1  1
 19 21  1  0
 20 19  1  0
 21 23  1  0
 21 22  1  6
 23 24  2  0
 23 25  1  0
M  END
$$$$
