QMV.pdb
     RDKit          3D

 25 24  0  0  1  0  0  0  0  0999 V2000
   11.2614  -18.8460   18.6712 N   0  0  0  0  0  0  0  0  0  0  0  0
    9.9139  -18.8950   18.2066 C   0  0  0  0  0  0  0  0  0  0  0  0
    9.7150  -19.4866   17.1105 O   0  0  0  0  0  0  0  0  0  0  0  0
    8.8276  -18.2775   18.9966 C   0  0  0  0  0  0  0  0  0  0  0  0
    9.2256  -17.6713   20.2763 C   0  0  0  0  0  0  0  0  0  0  0  0
    8.5078  -16.4879   20.7920 C   0  0  2  0  0  0  0  0  0  0  0  0
    8.7035  -15.4626   19.7058 N   0  0  0  0  0  0  0  0  0  0  0  0
    8.9851  -15.8232   21.9980 C   0  0  0  0  0  0  0  0  0  0  0  0
   10.2294  -15.8231   22.2801 O   0  0  0  0  0  0  0  0  0  0  0  0
    5.5540  -12.4491   27.2068 C   0  0  0  0  0  0  0  0  0  0  0  0
    6.9693  -11.5977   26.4785 S   0  0  0  0  0  0  0  0  0  0  0  0
    8.1851  -12.7454   25.8265 C   0  0  0  0  0  0  0  0  0  0  0  0
    7.6493  -13.5369   24.6508 C   0  0  0  0  0  0  0  0  0  0  0  0
    8.7414  -14.4793   24.1134 C   0  0  2  0  0  0  0  0  0  0  0  0
    8.1691  -15.1237   22.9508 N   0  0  0  0  0  0  0  0  0  0  0  0
    8.9687  -15.4736   25.1731 C   0  0  0  0  0  0  0  0  0  0  0  0
    8.1033  -16.3507   25.3893 O   0  0  0  0  0  0  0  0  0  0  0  0
   12.7876  -16.4069   26.7610 C   0  0  0  0  0  0  0  0  0  0  0  0
   11.5967  -17.3339   26.6533 C   0  0  2  0  0  0  0  0  0  0  0  0
   11.5988  -17.9082   25.2583 C   0  0  0  0  0  0  0  0  0  0  0  0
   10.3558  -16.5096   26.9337 C   0  0  2  0  0  0  0  0  0  0  0  0
   10.1629  -15.4675   25.9724 N   0  0  0  0  0  0  0  0  0  0  0  0
   10.3604  -15.9669   28.3347 C   0  0  0  0  0  0  0  0  0  0  0  0
   10.3444  -14.7331   28.5605 O   0  0  0  0  0  0  0  0  0  0  0  0
   10.3825  -16.8096   29.4461 O   0  0  0  0  0  0  0  0  0  0  0  0
  1  2  1  0
  2  4  1  0
  3  2  2  0
  4  5  1  0
  6  8  1  0
  6  7  1  6
  6  5  1  0
  8  9  2  0
 11 10  1  0
 12 11  1  0
 12 13  1  0
 14 13  1  1
 14 16  1  0
 15 14  1  0
 15  8  1  0
 16 17  2  0
 16 22  1  0
 19 18  1  6
 19 21  1  0
 20 19  1  0
 21 23  1  0
 21 22  1  6
 23 24  2  0
 23 25  1  0
M  END
$$$$
