QMV.pdb
     RDKit          3D

 25 24  0  0  1  0  0  0  0  0999 V2000
    8.3122  -12.1914   19.2381 N   0  0  0  0  0  0  0  0  0  0  0  0
    8.0859  -13.5306   18.8031 C   0  0  0  0  0  0  0  0  0  0  0  0
    8.1338  -13.7369   17.5597 O   0  0  0  0  0  0  0  0  0  0  0  0
    7.8162  -14.6009   19.7866 C   0  0  0  0  0  0  0  0  0  0  0  0
    8.7329  -15.7507   19.7556 C   0  0  0  0  0  0  0  0  0  0  0  0
    9.0933  -16.4466   21.0077 C   0  0  2  0  0  0  0  0  0  0  0  0
    7.9432  -17.3959   21.2206 N   0  0  0  0  0  0  0  0  0  0  0  0
    9.1696  -15.6957   22.2544 C   0  0  0  0  0  0  0  0  0  0  0  0
   10.0285  -14.7619   22.3887 O   0  0  0  0  0  0  0  0  0  0  0  0
    6.7201  -11.3173   25.9173 C   0  0  0  0  0  0  0  0  0  0  0  0
    5.6478  -12.7685   25.8635 S   0  0  0  0  0  0  0  0  0  0  0  0
    6.1775  -13.9537   24.6246 C   0  0  0  0  0  0  0  0  0  0  0  0
    7.0338  -15.0543   25.2174 C   0  0  0  0  0  0  0  0  0  0  0  0
    8.4301  -15.0370   24.5695 C   0  0  2  0  0  0  0  0  0  0  0  0
    8.3360  -15.8940   23.4071 N   0  0  0  0  0  0  0  0  0  0  0  0
    9.3377  -15.6373   25.5591 C   0  0  0  0  0  0  0  0  0  0  0  0
    9.9681  -16.6768   25.2644 O   0  0  0  0  0  0  0  0  0  0  0  0
   10.7516  -13.4165   28.7253 C   0  0  0  0  0  0  0  0  0  0  0  0
   10.6078  -14.8867   29.0525 C   0  0  2  0  0  0  0  0  0  0  0  0
   11.8272  -15.2928   29.8425 C   0  0  0  0  0  0  0  0  0  0  0  0
   10.4997  -15.6336   27.7378 C   0  0  2  0  0  0  0  0  0  0  0  0
    9.5231  -15.0613   26.8625 N   0  0  0  0  0  0  0  0  0  0  0  0
   10.2465  -17.0984   27.9560 C   0  0  0  0  0  0  0  0  0  0  0  0
    9.0830  -17.5539   28.0666 O   0  0  0  0  0  0  0  0  0  0  0  0
   11.2927  -18.0167   28.0452 O   0  0  0  0  0  0  0  0  0  0  0  0
  1  2  1  0
  2  4  1  0
  3  2  2  0
  4  5  1  0
  6  8  1  0
  6  7  1  1
  6  5  1  0
  8  9  2  0
 11 10  1  0
 12 11  1  0
 12 13  1  0
 14 13  1  1
 14 16  1  0
 15 14  1  0
 15  8  1  0
 16 17  2  0
 16 22  1  0
 19 18  1  6
 19 21  1  0
 20 19  1  0
 21 23  1  0
 21 22  1  6
 23 24  2  0
 23 25  1  0
M  END
$$$$
