QMV.pdb
     RDKit          3D

 25 24  0  0  1  0  0  0  0  0999 V2000
   13.1389  -16.6939   18.1527 N   0  0  0  0  0  0  0  0  0  0  0  0
   11.8503  -17.1749   17.7761 C   0  0  0  0  0  0  0  0  0  0  0  0
   11.7531  -17.6934   16.6303 O   0  0  0  0  0  0  0  0  0  0  0  0
   10.7077  -17.0606   18.7072 C   0  0  0  0  0  0  0  0  0  0  0  0
   11.0182  -16.5406   20.0476 C   0  0  0  0  0  0  0  0  0  0  0  0
   10.4032  -17.1537   21.2424 C   0  0  2  0  0  0  0  0  0  0  0  0
    9.1067  -17.7129   20.7172 N   0  0  0  0  0  0  0  0  0  0  0  0
    9.9992  -16.3096   22.3597 C   0  0  0  0  0  0  0  0  0  0  0  0
   10.7193  -15.3143   22.7042 O   0  0  0  0  0  0  0  0  0  0  0  0
    6.2703  -12.0797   26.6226 C   0  0  0  0  0  0  0  0  0  0  0  0
    6.8734  -13.1703   25.3166 S   0  0  0  0  0  0  0  0  0  0  0  0
    6.5752  -14.8999   25.6903 C   0  0  0  0  0  0  0  0  0  0  0  0
    7.0092  -15.8108   24.5599 C   0  0  0  0  0  0  0  0  0  0  0  0
    8.4990  -15.5824   24.2469 C   0  0  2  0  0  0  0  0  0  0  0  0
    8.8137  -16.4766   23.1532 N   0  0  0  0  0  0  0  0  0  0  0  0
    9.2295  -15.9959   25.4546 C   0  0  0  0  0  0  0  0  0  0  0  0
    9.6023  -17.1843   25.5713 O   0  0  0  0  0  0  0  0  0  0  0  0
   10.5027  -13.2348   28.3837 C   0  0  0  0  0  0  0  0  0  0  0  0
   10.0529  -14.5993   28.8582 C   0  0  2  0  0  0  0  0  0  0  0  0
   10.9392  -14.9873   30.0157 C   0  0  0  0  0  0  0  0  0  0  0  0
   10.1874  -15.5519   27.6867 C   0  0  2  0  0  0  0  0  0  0  0  0
    9.5296  -15.0693   26.5112 N   0  0  0  0  0  0  0  0  0  0  0  0
    9.7212  -16.9345   28.0452 C   0  0  0  0  0  0  0  0  0  0  0  0
    8.5217  -17.2773   27.9135 O   0  0  0  0  0  0  0  0  0  0  0  0
   10.6002  -17.8981   28.5399 O   0  0  0  0  0  0  0  0  0  0  0  0
  1  2  1  0
  2  4  1  0
  3  2  2  0
  4  5  1  0
  6  8  1  0
  6  7  1  6
  6  5  1  0
  8  9  2  0
 11 10  1  0
 12 11  1  0
 12 13  1  0
 14 13  1  1
 14 16  1  0
 15 14  1  0
 15  8  1  0
 16 17  2  0
 16 22  1  0
 19 18  1  6
 19 21  1  0
 20 19  1  0
 21 23  1  0
 21 22  1  6
 23 24  2  0
 23 25  1  0
M  END
$$$$
