QMV.pdb
     RDKit          3D

 25 24  0  0  1  0  0  0  0  0999 V2000
    8.9687  -12.5496   19.1816 N   0  0  0  0  0  0  0  0  0  0  0  0
    7.8020  -13.3579   19.0424 C   0  0  0  0  0  0  0  0  0  0  0  0
    6.7455  -12.7689   18.6848 O   0  0  0  0  0  0  0  0  0  0  0  0
    7.8631  -14.8111   19.3069 C   0  0  0  0  0  0  0  0  0  0  0  0
    9.1794  -15.3409   19.6947 C   0  0  0  0  0  0  0  0  0  0  0  0
    9.3412  -16.0643   20.9722 C   0  0  2  0  0  0  0  0  0  0  0  0
    8.0862  -16.8925   21.0636 N   0  0  0  0  0  0  0  0  0  0  0  0
    9.3675  -15.3199   22.2248 C   0  0  0  0  0  0  0  0  0  0  0  0
   10.2331  -14.4002   22.4058 O   0  0  0  0  0  0  0  0  0  0  0  0
    6.3818  -12.1713   27.0760 C   0  0  0  0  0  0  0  0  0  0  0  0
    5.7233  -12.2663   25.3979 S   0  0  0  0  0  0  0  0  0  0  0  0
    6.6843  -13.3679   24.3571 C   0  0  0  0  0  0  0  0  0  0  0  0
    7.2830  -14.5169   25.1427 C   0  0  0  0  0  0  0  0  0  0  0  0
    8.6865  -14.8449   24.6020 C   0  0  2  0  0  0  0  0  0  0  0  0
    8.4752  -15.5098   23.3341 N   0  0  0  0  0  0  0  0  0  0  0  0
    9.2767  -15.7860   25.5660 C   0  0  0  0  0  0  0  0  0  0  0  0
    9.2912  -17.0087   25.3018 O   0  0  0  0  0  0  0  0  0  0  0  0
   10.5000  -14.9744   29.6319 C   0  0  0  0  0  0  0  0  0  0  0  0
   11.4812  -15.5256   28.6206 C   0  0  2  0  0  0  0  0  0  0  0  0
   12.2617  -14.3583   28.0692 C   0  0  0  0  0  0  0  0  0  0  0  0
   10.6759  -16.2355   27.5503 C   0  0  2  0  0  0  0  0  0  0  0  0
    9.8408  -15.3398   26.8101 N   0  0  0  0  0  0  0  0  0  0  0  0
    9.8819  -17.3749   28.1237 C   0  0  0  0  0  0  0  0  0  0  0  0
    8.6277  -17.3585   28.1392 O   0  0  0  0  0  0  0  0  0  0  0  0
   10.5031  -18.5010   28.6640 O   0  0  0  0  0  0  0  0  0  0  0  0
  1  2  1  0
  2  4  1  0
  3  2  2  0
  4  5  1  0
  6  8  1  0
  6  7  1  1
  6  5  1  0
  8  9  2  0
 11 10  1  0
 12 11  1  0
 12 13  1  0
 14 13  1  1
 14 16  1  0
 15 14  1  0
 15  8  1  0
 16 17  2  0
 16 22  1  0
 19 18  1  1
 19 21  1  0
 20 19  1  0
 21 23  1  0
 21 22  1  1
 23 24  2  0
 23 25  1  0
M  END
$$$$
