QMV.pdb
     RDKit          3D

 25 24  0  0  1  0  0  0  0  0999 V2000
    8.2901  -12.6882   17.7505 N   0  0  0  0  0  0  0  0  0  0  0  0
    8.3606  -14.0696   17.4030 C   0  0  0  0  0  0  0  0  0  0  0  0
    8.1678  -14.3580   16.1903 O   0  0  0  0  0  0  0  0  0  0  0  0
    8.6519  -15.0866   18.4357 C   0  0  0  0  0  0  0  0  0  0  0  0
    8.7591  -14.5908   19.8163 C   0  0  0  0  0  0  0  0  0  0  0  0
    9.0113  -15.5329   20.9257 C   0  0  2  0  0  0  0  0  0  0  0  0
    7.7822  -16.4039   20.9276 N   0  0  0  0  0  0  0  0  0  0  0  0
    9.0945  -15.0330   22.2921 C   0  0  0  0  0  0  0  0  0  0  0  0
   10.0687  -14.2880   22.6439 O   0  0  0  0  0  0  0  0  0  0  0  0
    6.3229  -11.4327   26.7387 C   0  0  0  0  0  0  0  0  0  0  0  0
    5.2098  -12.5486   25.8587 S   0  0  0  0  0  0  0  0  0  0  0  0
    6.0709  -13.5260   24.6244 C   0  0  0  0  0  0  0  0  0  0  0  0
    6.8622  -14.6595   25.2448 C   0  0  0  0  0  0  0  0  0  0  0  0
    8.2820  -14.6924   24.6511 C   0  0  2  0  0  0  0  0  0  0  0  0
    8.1477  -15.2919   23.3407 N   0  0  0  0  0  0  0  0  0  0  0  0
    9.0617  -15.5797   25.5275 C   0  0  0  0  0  0  0  0  0  0  0  0
    9.4752  -16.6739   25.0840 O   0  0  0  0  0  0  0  0  0  0  0  0
   10.9164  -14.0899   28.9037 C   0  0  0  0  0  0  0  0  0  0  0  0
   10.4932  -15.5362   29.0389 C   0  0  2  0  0  0  0  0  0  0  0  0
   11.6126  -16.2689   29.7359 C   0  0  0  0  0  0  0  0  0  0  0  0
   10.2424  -16.0661   27.6409 C   0  0  2  0  0  0  0  0  0  0  0  0
    9.3645  -15.2246   26.8866 N   0  0  0  0  0  0  0  0  0  0  0  0
    9.7482  -17.4846   27.6702 C   0  0  0  0  0  0  0  0  0  0  0  0
    8.5247  -17.7547   27.6108 O   0  0  0  0  0  0  0  0  0  0  0  0
   10.6268  -18.5640   27.7647 O   0  0  0  0  0  0  0  0  0  0  0  0
  1  2  1  0
  2  4  1  0
  3  2  2  0
  4  5  1  0
  6  8  1  0
  6  7  1  1
  6  5  1  0
  8  9  2  0
 11 10  1  0
 12 11  1  0
 12 13  1  0
 14 13  1  1
 14 16  1  0
 15 14  1  0
 15  8  1  0
 16 17  2  0
 16 22  1  0
 19 18  1  6
 19 21  1  0
 20 19  1  0
 21 23  1  0
 21 22  1  1
 23 24  2  0
 23 25  1  0
M  END
$$$$
