QMV.pdb
     RDKit          3D

 25 24  0  0  1  0  0  0  0  0999 V2000
    7.8770  -11.9931   18.7268 N   0  0  0  0  0  0  0  0  0  0  0  0
    8.3039  -13.2338   18.1680 C   0  0  0  0  0  0  0  0  0  0  0  0
    9.4242  -13.2372   17.5885 O   0  0  0  0  0  0  0  0  0  0  0  0
    7.4541  -14.4380   18.2840 C   0  0  0  0  0  0  0  0  0  0  0  0
    6.9103  -14.7167   19.6219 C   0  0  0  0  0  0  0  0  0  0  0  0
    7.5967  -15.6688   20.5185 C   0  0  2  0  0  0  0  0  0  0  0  0
    6.4870  -16.5819   20.9704 N   0  0  0  0  0  0  0  0  0  0  0  0
    8.1909  -15.1905   21.7604 C   0  0  0  0  0  0  0  0  0  0  0  0
    9.2638  -14.5004   21.7334 O   0  0  0  0  0  0  0  0  0  0  0  0
    5.9717  -11.3351   26.2056 C   0  0  0  0  0  0  0  0  0  0  0  0
    6.8152  -12.5457   27.2456 S   0  0  0  0  0  0  0  0  0  0  0  0
    7.9602  -13.5602   26.3076 C   0  0  0  0  0  0  0  0  0  0  0  0
    7.3138  -14.1590   25.0749 C   0  0  0  0  0  0  0  0  0  0  0  0
    8.3627  -14.9366   24.2597 C   0  0  2  0  0  0  0  0  0  0  0  0
    7.6718  -15.4134   23.0808 N   0  0  0  0  0  0  0  0  0  0  0  0
    8.7583  -16.0766   25.1007 C   0  0  0  0  0  0  0  0  0  0  0  0
    7.9622  -17.0282   25.2609 O   0  0  0  0  0  0  0  0  0  0  0  0
   11.8433  -17.8720   24.3371 C   0  0  0  0  0  0  0  0  0  0  0  0
   11.8802  -17.7451   25.8444 C   0  0  2  0  0  0  0  0  0  0  0  0
   12.3271  -19.0760   26.3966 C   0  0  0  0  0  0  0  0  0  0  0  0
   10.4834  -17.3732   26.3008 C   0  0  2  0  0  0  0  0  0  0  0  0
   10.0403  -16.1301   25.7478 N   0  0  0  0  0  0  0  0  0  0  0  0
   10.3753  -17.3741   27.7993 C   0  0  0  0  0  0  0  0  0  0  0  0
   10.3960  -16.3077   28.4595 O   0  0  0  0  0  0  0  0  0  0  0  0
   10.2474  -18.5596   28.5233 O   0  0  0  0  0  0  0  0  0  0  0  0
  1  2  1  0
  2  4  1  0
  3  2  2  0
  4  5  1  0
  6  8  1  0
  6  7  1  1
  6  5  1  0
  8  9  2  0
 11 10  1  0
 12 11  1  0
 12 13  1  0
 14 13  1  1
 14 16  1  0
 15 14  1  0
 15  8  1  0
 16 17  2  0
 16 22  1  0
 19 18  1  6
 19 21  1  0
 20 19  1  0
 21 23  1  0
 21 22  1  1
 23 24  2  0
 23 25  1  0
M  END
$$$$
