QMV.pdb
     RDKit          3D

 25 24  0  0  1  0  0  0  0  0999 V2000
    7.8731  -12.8100   17.4628 N   0  0  0  0  0  0  0  0  0  0  0  0
    8.1542  -14.1715   17.1445 C   0  0  0  0  0  0  0  0  0  0  0  0
    8.0409  -14.5038   15.9330 O   0  0  0  0  0  0  0  0  0  0  0  0
    8.5603  -15.1189   18.2042 C   0  0  0  0  0  0  0  0  0  0  0  0
    8.6397  -14.5678   19.5656 C   0  0  0  0  0  0  0  0  0  0  0  0
    9.0799  -15.4217   20.6875 C   0  0  2  0  0  0  0  0  0  0  0  0
    8.0898  -16.5569   20.6689 N   0  0  0  0  0  0  0  0  0  0  0  0
    9.0116  -14.9132   22.0515 C   0  0  0  0  0  0  0  0  0  0  0  0
    9.6744  -13.8743   22.3822 O   0  0  0  0  0  0  0  0  0  0  0  0
    6.7441  -11.3971   26.2636 C   0  0  0  0  0  0  0  0  0  0  0  0
    5.6453  -12.7899   25.9299 S   0  0  0  0  0  0  0  0  0  0  0  0
    6.4534  -14.3683   26.2060 C   0  0  0  0  0  0  0  0  0  0  0  0
    6.7044  -15.1147   24.9115 C   0  0  0  0  0  0  0  0  0  0  0  0
    8.1301  -14.8248   24.4086 C   0  0  2  0  0  0  0  0  0  0  0  0
    8.2337  -15.4754   23.1200 N   0  0  0  0  0  0  0  0  0  0  0  0
    9.0334  -15.4759   25.3696 C   0  0  0  0  0  0  0  0  0  0  0  0
    9.5405  -16.5833   25.0840 O   0  0  0  0  0  0  0  0  0  0  0  0
   10.7025  -13.4492   28.5952 C   0  0  0  0  0  0  0  0  0  0  0  0
   10.3227  -14.8849   28.8847 C   0  0  2  0  0  0  0  0  0  0  0  0
   11.4191  -15.4771   29.7350 C   0  0  0  0  0  0  0  0  0  0  0  0
   10.1834  -15.5929   27.5515 C   0  0  2  0  0  0  0  0  0  0  0  0
    9.3528  -14.8738   26.6348 N   0  0  0  0  0  0  0  0  0  0  0  0
    9.7074  -17.0072   27.7264 C   0  0  0  0  0  0  0  0  0  0  0  0
    8.4856  -17.2867   27.7788 O   0  0  0  0  0  0  0  0  0  0  0  0
   10.6016  -18.0720   27.8383 O   0  0  0  0  0  0  0  0  0  0  0  0
  1  2  1  0
  2  4  1  0
  3  2  2  0
  4  5  1  0
  6  8  1  0
  6  7  1  1
  6  5  1  0
  8  9  2  0
 11 10  1  0
 12 11  1  0
 12 13  1  0
 14 13  1  1
 14 16  1  0
 15 14  1  0
 15  8  1  0
 16 17  2  0
 16 22  1  0
 19 18  1  6
 19 21  1  0
 20 19  1  0
 21 23  1  0
 21 22  1  6
 23 24  2  0
 23 25  1  0
M  END
$$$$
