QMV.pdb
     RDKit          3D

 25 24  0  0  1  0  0  0  0  0999 V2000
    7.3394  -13.2356   18.7004 N   0  0  0  0  0  0  0  0  0  0  0  0
    8.5458  -13.8339   18.2307 C   0  0  0  0  0  0  0  0  0  0  0  0
    9.2517  -13.1425   17.4466 O   0  0  0  0  0  0  0  0  0  0  0  0
    8.9232  -15.1959   18.6641 C   0  0  0  0  0  0  0  0  0  0  0  0
    8.0067  -15.8478   19.6121 C   0  0  0  0  0  0  0  0  0  0  0  0
    8.5369  -16.5071   20.8228 C   0  0  2  0  0  0  0  0  0  0  0  0
    7.3479  -17.2636   21.3550 N   0  0  0  0  0  0  0  0  0  0  0  0
    8.9768  -15.6971   21.9517 C   0  0  0  0  0  0  0  0  0  0  0  0
   10.0580  -15.0241   21.8750 O   0  0  0  0  0  0  0  0  0  0  0  0
    4.9657  -13.0449   26.4581 C   0  0  0  0  0  0  0  0  0  0  0  0
    6.4896  -12.0788   26.5140 S   0  0  0  0  0  0  0  0  0  0  0  0
    7.8987  -13.0048   25.8997 C   0  0  0  0  0  0  0  0  0  0  0  0
    7.5027  -14.0045   24.8321 C   0  0  0  0  0  0  0  0  0  0  0  0
    8.7618  -14.6592   24.2358 C   0  0  2  0  0  0  0  0  0  0  0  0
    8.2884  -15.5575   23.2045 N   0  0  0  0  0  0  0  0  0  0  0  0
    9.3674  -15.4324   25.3307 C   0  0  0  0  0  0  0  0  0  0  0  0
    9.5592  -16.6598   25.1839 O   0  0  0  0  0  0  0  0  0  0  0  0
   11.1837  -13.4693   28.5510 C   0  0  0  0  0  0  0  0  0  0  0  0
   10.6671  -14.8612   28.8423 C   0  0  2  0  0  0  0  0  0  0  0  0
   11.6745  -15.5358   29.7400 C   0  0  0  0  0  0  0  0  0  0  0  0
   10.5137  -15.5736   27.5131 C   0  0  2  0  0  0  0  0  0  0  0  0
    9.7476  -14.8158   26.5717 N   0  0  0  0  0  0  0  0  0  0  0  0
    9.9499  -16.9549   27.6906 C   0  0  0  0  0  0  0  0  0  0  0  0
    8.7143  -17.1685   27.6581 O   0  0  0  0  0  0  0  0  0  0  0  0
   10.7742  -18.0608   27.8993 O   0  0  0  0  0  0  0  0  0  0  0  0
  1  2  1  0
  2  4  1  0
  3  2  2  0
  4  5  1  0
  6  8  1  0
  6  7  1  1
  6  5  1  0
  8  9  2  0
 11 10  1  0
 12 11  1  0
 12 13  1  0
 14 13  1  1
 14 16  1  0
 15 14  1  0
 15  8  1  0
 16 17  2  0
 16 22  1  0
 19 18  1  6
 19 21  1  0
 20 19  1  0
 21 23  1  0
 21 22  1  6
 23 24  2  0
 23 25  1  0
M  END
$$$$
