QMV.pdb
     RDKit          3D

 25 24  0  0  1  0  0  0  0  0999 V2000
   13.4406  -13.6926   19.4132 N   0  0  0  0  0  0  0  0  0  0  0  0
   13.5025  -15.0166   18.8868 C   0  0  0  0  0  0  0  0  0  0  0  0
   14.4926  -15.2878   18.1539 O   0  0  0  0  0  0  0  0  0  0  0  0
   12.4454  -15.9991   19.2073 C   0  0  0  0  0  0  0  0  0  0  0  0
   11.3563  -15.5158   20.0698 C   0  0  0  0  0  0  0  0  0  0  0  0
   10.9182  -16.3166   21.2310 C   0  0  2  0  0  0  0  0  0  0  0  0
    9.7651  -17.1176   20.6850 N   0  0  0  0  0  0  0  0  0  0  0  0
   10.3636  -15.6477   22.4010 C   0  0  0  0  0  0  0  0  0  0  0  0
   11.0209  -14.7206   22.9810 O   0  0  0  0  0  0  0  0  0  0  0  0
    5.9943  -11.9775   26.3748 C   0  0  0  0  0  0  0  0  0  0  0  0
    6.9005  -13.0244   25.2165 S   0  0  0  0  0  0  0  0  0  0  0  0
    6.5372  -14.7656   25.4542 C   0  0  0  0  0  0  0  0  0  0  0  0
    7.1694  -15.6314   24.3833 C   0  0  0  0  0  0  0  0  0  0  0  0
    8.6452  -15.2365   24.1952 C   0  0  2  0  0  0  0  0  0  0  0  0
    9.0883  -15.9240   23.0011 N   0  0  0  0  0  0  0  0  0  0  0  0
    9.3545  -15.7686   25.3687 C   0  0  0  0  0  0  0  0  0  0  0  0
    9.7157  -16.9663   25.3782 O   0  0  0  0  0  0  0  0  0  0  0  0
   10.4437  -13.2680   28.5577 C   0  0  0  0  0  0  0  0  0  0  0  0
   10.2493  -14.7341   28.8770 C   0  0  2  0  0  0  0  0  0  0  0  0
   11.2867  -15.1117   29.9052 C   0  0  0  0  0  0  0  0  0  0  0  0
   10.4165  -15.5044   27.5821 C   0  0  2  0  0  0  0  0  0  0  0  0
    9.6467  -14.9483   26.5118 N   0  0  0  0  0  0  0  0  0  0  0  0
   10.1182  -16.9652   27.7682 C   0  0  0  0  0  0  0  0  0  0  0  0
   10.9974  -17.7699   28.1593 O   0  0  0  0  0  0  0  0  0  0  0  0
    8.8516  -17.4918   27.5146 O   0  0  0  0  0  0  0  0  0  0  0  0
  1  2  1  0
  2  4  1  0
  3  2  2  0
  4  5  1  0
  6  8  1  0
  6  7  1  6
  6  5  1  0
  8  9  2  0
 11 10  1  0
 12 11  1  0
 12 13  1  0
 14 13  1  1
 14 16  1  0
 15 14  1  0
 15  8  1  0
 16 17  2  0
 16 22  1  0
 19 18  1  6
 19 21  1  0
 20 19  1  0
 21 23  1  0
 21 22  1  6
 23 24  2  0
 23 25  1  0
M  END
$$$$
