QMV.pdb
     RDKit          3D

 25 24  0  0  1  0  0  0  0  0999 V2000
   12.6638  -19.0710   21.4200 N   0  0  0  0  0  0  0  0  0  0  0  0
   12.7108  -18.9150   20.0032 C   0  0  0  0  0  0  0  0  0  0  0  0
   13.1810  -19.8816   19.3432 O   0  0  0  0  0  0  0  0  0  0  0  0
   12.2204  -17.6718   19.3710 C   0  0  0  0  0  0  0  0  0  0  0  0
   11.6356  -16.6739   20.2798 C   0  0  0  0  0  0  0  0  0  0  0  0
   10.3625  -16.9572   20.9729 C   0  0  2  0  0  0  0  0  0  0  0  0
    9.3228  -16.6636   19.9232 N   0  0  0  0  0  0  0  0  0  0  0  0
    9.9614  -16.1374   22.1091 C   0  0  0  0  0  0  0  0  0  0  0  0
   10.5487  -15.0281   22.3381 O   0  0  0  0  0  0  0  0  0  0  0  0
    6.2085  -12.1517   26.5379 C   0  0  0  0  0  0  0  0  0  0  0  0
    6.7361  -13.2187   25.1807 S   0  0  0  0  0  0  0  0  0  0  0  0
    6.6710  -14.9564   25.6239 C   0  0  0  0  0  0  0  0  0  0  0  0
    7.1173  -15.8523   24.4863 C   0  0  0  0  0  0  0  0  0  0  0  0
    8.5903  -15.5665   24.1426 C   0  0  2  0  0  0  0  0  0  0  0  0
    8.9179  -16.4509   23.0448 N   0  0  0  0  0  0  0  0  0  0  0  0
    9.3609  -15.9471   25.3362 C   0  0  0  0  0  0  0  0  0  0  0  0
    9.9179  -17.0664   25.3774 O   0  0  0  0  0  0  0  0  0  0  0  0
   10.5648  -13.1536   28.2344 C   0  0  0  0  0  0  0  0  0  0  0  0
   10.1913  -14.5264   28.7493 C   0  0  2  0  0  0  0  0  0  0  0  0
   11.1618  -14.8726   29.8512 C   0  0  0  0  0  0  0  0  0  0  0  0
   10.2821  -15.4874   27.5805 C   0  0  2  0  0  0  0  0  0  0  0  0
    9.4935  -15.0658   26.4634 N   0  0  0  0  0  0  0  0  0  0  0  0
    9.9385  -16.8905   27.9935 C   0  0  0  0  0  0  0  0  0  0  0  0
   10.8201  -17.6961   28.3774 O   0  0  0  0  0  0  0  0  0  0  0  0
    8.6252  -17.3601   27.9686 O   0  0  0  0  0  0  0  0  0  0  0  0
  1  2  1  0
  2  4  1  0
  3  2  2  0
  4  5  1  0
  6  8  1  0
  6  7  1  6
  6  5  1  0
  8  9  2  0
 11 10  1  0
 12 11  1  0
 12 13  1  0
 14 13  1  1
 14 16  1  0
 15 14  1  0
 15  8  1  0
 16 17  2  0
 16 22  1  0
 19 18  1  6
 19 21  1  0
 20 19  1  0
 21 23  1  0
 21 22  1  6
 23 24  2  0
 23 25  1  0
M  END
$$$$
