KMR.pdb
     RDKit          3D

 29 28  0  0  1  0  0  0  0  0999 V2000
   26.5308  -22.0624  -14.9862 N   0  0  0  0  0  0  0  0  0  0  0  0
   26.0958  -20.9789  -14.2132 C   0  0  1  0  0  0  0  0  0  0  0  0
   24.9648  -20.2187  -14.8280 C   0  0  0  0  0  0  0  0  0  0  0  0
   25.3592  -19.4252  -16.0223 C   0  0  0  0  0  0  0  0  0  0  0  0
   24.5059  -19.6915  -17.2050 C   0  0  0  0  0  0  0  0  0  0  0  0
   25.0095  -18.8867  -18.4294 C   0  0  0  0  0  0  0  0  0  0  0  0
   24.5418  -17.5395  -18.2400 N   0  0  0  0  0  0  0  0  0  0  0  0
   25.6817  -21.3345  -12.8275 C   0  0  0  0  0  0  0  0  0  0  0  0
   25.2949  -22.5217  -12.6498 O   0  0  0  0  0  0  0  0  0  0  0  0
   26.9556  -19.4971   -5.3854 C   0  0  0  0  0  0  0  0  0  0  0  0
   27.0201  -19.0519   -7.1510 S   0  0  0  0  0  0  0  0  0  0  0  0
   25.9622  -20.2910   -8.0148 C   0  0  0  0  0  0  0  0  0  0  0  0
   26.1300  -20.0246   -9.4707 C   0  0  0  0  0  0  0  0  0  0  0  0
   25.3720  -20.9445  -10.3953 C   0  0  2  0  0  0  0  0  0  0  0  0
   25.6956  -20.4605  -11.7472 N   0  0  0  0  0  0  0  0  0  0  0  0
   23.9063  -20.8772  -10.2619 C   0  0  0  0  0  0  0  0  0  0  0  0
   23.2410  -20.1369  -11.0680 O   0  0  0  0  0  0  0  0  0  0  0  0
   17.0651  -24.5657   -7.0736 N   0  0  0  0  0  0  0  0  0  0  0  0
   18.2576  -25.2779   -7.3956 C   0  0  0  0  0  0  0  0  0  0  0  0
   18.2104  -26.4368   -7.9130 N   0  0  0  0  0  0  0  0  0  0  0  0
   19.5079  -24.6655   -7.1264 N   0  0  0  0  0  0  0  0  0  0  0  0
   19.5601  -23.3029   -6.5730 C   0  0  0  0  0  0  0  0  0  0  0  0
   19.8099  -22.3504   -7.7078 C   0  0  0  0  0  0  0  0  0  0  0  0
   21.2285  -22.3047   -8.0941 C   0  0  0  0  0  0  0  0  0  0  0  0
   21.6626  -21.4531   -9.2132 C   0  0  2  0  0  0  0  0  0  0  0  0
   23.1304  -21.5670   -9.3097 N   0  0  0  0  0  0  0  0  0  0  0  0
   21.3167  -20.0449   -9.2264 C   0  0  0  0  0  0  0  0  0  0  0  0
   21.9632  -19.1886   -8.5772 O   0  0  0  0  0  0  0  0  0  0  0  0
   20.2436  -19.5971   -9.9717 O   0  0  0  0  0  0  0  0  0  0  0  0
  2  1  1  6
  2  3  1  0
  4  5  1  0
  4  3  1  0
  6  7  1  0
  6  5  1  0
  8  2  1  0
  8  9  2  0
 10 11  1  0
 11 12  1  0
 12 13  1  0
 14 13  1  1
 14 15  1  0
 15  8  1  0
 16 14  1  0
 16 26  1  0
 17 16  2  0
 18 19  1  0
 19 21  1  0
 20 19  2  0
 21 22  1  0
 23 22  1  0
 24 23  1  0
 25 24  1  1
 25 26  1  0
 25 27  1  0
 27 28  2  0
 27 29  1  0
M  END
$$$$
