KMR.pdb
     RDKit          3D

 29 28  0  0  1  0  0  0  0  0999 V2000
   13.0529  -10.8443    3.3587 N   0  0  0  0  0  0  0  0  0  0  0  0
   13.4276  -11.4779    4.5499 C   0  0  1  0  0  0  0  0  0  0  0  0
   12.3890  -12.4097    5.0865 C   0  0  0  0  0  0  0  0  0  0  0  0
   11.1773  -11.7187    5.6023 C   0  0  0  0  0  0  0  0  0  0  0  0
   10.1665  -12.6521    6.1546 C   0  0  0  0  0  0  0  0  0  0  0  0
    8.9134  -11.8748    6.6302 C   0  0  0  0  0  0  0  0  0  0  0  0
    7.9739  -12.8688    7.0760 N   0  0  0  0  0  0  0  0  0  0  0  0
   14.7023  -12.2440    4.4684 C   0  0  0  0  0  0  0  0  0  0  0  0
   14.9281  -12.8337    3.3767 O   0  0  0  0  0  0  0  0  0  0  0  0
   20.4736  -10.4724    6.4235 C   0  0  0  0  0  0  0  0  0  0  0  0
   20.2424  -12.0116    7.3705 S   0  0  0  0  0  0  0  0  0  0  0  0
   19.2090  -13.1023    6.3013 C   0  0  0  0  0  0  0  0  0  0  0  0
   17.8801  -12.4365    6.2049 C   0  0  0  0  0  0  0  0  0  0  0  0
   16.8777  -13.1059    5.2979 C   0  0  2  0  0  0  0  0  0  0  0  0
   15.6331  -12.3452    5.4952 N   0  0  0  0  0  0  0  0  0  0  0  0
   16.5767  -14.5061    5.6433 C   0  0  0  0  0  0  0  0  0  0  0  0
   15.9249  -14.7562    6.7171 O   0  0  0  0  0  0  0  0  0  0  0  0
   15.3684  -21.5511    0.5431 N   0  0  0  0  0  0  0  0  0  0  0  0
   15.0693  -22.0341    1.8509 C   0  0  0  0  0  0  0  0  0  0  0  0
   14.5062  -23.1595    2.0219 N   0  0  0  0  0  0  0  0  0  0  0  0
   15.4142  -21.2303    2.9670 N   0  0  0  0  0  0  0  0  0  0  0  0
   15.7108  -19.8004    2.7851 C   0  0  0  0  0  0  0  0  0  0  0  0
   16.0544  -19.2231    4.1291 C   0  0  0  0  0  0  0  0  0  0  0  0
   16.3350  -17.7807    4.0599 C   0  0  0  0  0  0  0  0  0  0  0  0
   16.6203  -17.0237    5.2893 C   0  0  2  0  0  0  0  0  0  0  0  0
   16.9399  -15.6398    4.8902 N   0  0  0  0  0  0  0  0  0  0  0  0
   17.6538  -17.4823    6.1973 C   0  0  0  0  0  0  0  0  0  0  0  0
   18.8386  -17.0778    6.1253 O   0  0  0  0  0  0  0  0  0  0  0  0
   17.3556  -18.3959    7.1893 O   0  0  0  0  0  0  0  0  0  0  0  0
  2  1  1  6
  2  3  1  0
  4  5  1  0
  4  3  1  0
  6  7  1  0
  6  5  1  0
  8  2  1  0
  8  9  2  0
 10 11  1  0
 11 12  1  0
 12 13  1  0
 14 13  1  1
 14 15  1  0
 15  8  1  0
 16 14  1  0
 16 26  1  0
 17 16  2  0
 18 19  1  0
 19 21  1  0
 20 19  2  0
 21 22  1  0
 23 22  1  0
 24 23  1  0
 25 24  1  6
 25 26  1  0
 25 27  1  0
 27 28  2  0
 27 29  1  0
M  END
$$$$
