KMR.pdb
     RDKit          3D

 29 28  0  0  1  0  0  0  0  0999 V2000
   28.2887  -21.5452  -13.7135 N   0  0  0  0  0  0  0  0  0  0  0  0
   27.8705  -20.5122  -12.8657 C   0  0  1  0  0  0  0  0  0  0  0  0
   27.1564  -19.4062  -13.5741 C   0  0  0  0  0  0  0  0  0  0  0  0
   27.9299  -18.8241  -14.7031 C   0  0  0  0  0  0  0  0  0  0  0  0
   27.1876  -18.8413  -15.9864 C   0  0  0  0  0  0  0  0  0  0  0  0
   28.0248  -18.1732  -17.1060 C   0  0  0  0  0  0  0  0  0  0  0  0
   28.0113  -16.7624  -16.8252 N   0  0  0  0  0  0  0  0  0  0  0  0
   26.9947  -20.9497  -11.7432 C   0  0  0  0  0  0  0  0  0  0  0  0
   26.2704  -21.9584  -11.9633 O   0  0  0  0  0  0  0  0  0  0  0  0
   27.9986  -18.1411   -6.3698 C   0  0  0  0  0  0  0  0  0  0  0  0
   28.0572  -19.9366   -6.0664 S   0  0  0  0  0  0  0  0  0  0  0  0
   27.7761  -20.7275   -7.7084 C   0  0  0  0  0  0  0  0  0  0  0  0
   26.4670  -20.2068   -8.1919 C   0  0  0  0  0  0  0  0  0  0  0  0
   25.9678  -20.7951   -9.4882 C   0  0  2  0  0  0  0  0  0  0  0  0
   26.9295  -20.3303  -10.5010 N   0  0  0  0  0  0  0  0  0  0  0  0
   24.6419  -20.3118   -9.9111 C   0  0  0  0  0  0  0  0  0  0  0  0
   24.5481  -19.1671  -10.4779 O   0  0  0  0  0  0  0  0  0  0  0  0
   22.8062  -22.0003  -16.9105 N   0  0  0  0  0  0  0  0  0  0  0  0
   22.8428  -20.5953  -16.6700 C   0  0  0  0  0  0  0  0  0  0  0  0
   23.0441  -19.7726  -17.6163 N   0  0  0  0  0  0  0  0  0  0  0  0
   22.6487  -20.1279  -15.3454 N   0  0  0  0  0  0  0  0  0  0  0  0
   22.3975  -21.0822  -14.2537 C   0  0  0  0  0  0  0  0  0  0  0  0
   22.3418  -20.3102  -12.9660 C   0  0  0  0  0  0  0  0  0  0  0  0
   22.2199  -21.1908  -11.7940 C   0  0  0  0  0  0  0  0  0  0  0  0
   22.1734  -20.6164  -10.4398 C   0  0  2  0  0  0  0  0  0  0  0  0
   23.4228  -21.0003   -9.7554 N   0  0  0  0  0  0  0  0  0  0  0  0
   21.0627  -20.9267   -9.5606 C   0  0  0  0  0  0  0  0  0  0  0  0
   19.8879  -20.5660   -9.8101 O   0  0  0  0  0  0  0  0  0  0  0  0
   21.2717  -21.6450   -8.3995 O   0  0  0  0  0  0  0  0  0  0  0  0
  2  1  1  6
  2  3  1  0
  4  5  1  0
  4  3  1  0
  6  7  1  0
  6  5  1  0
  8  2  1  0
  8  9  2  0
 10 11  1  0
 11 12  1  0
 12 13  1  0
 14 13  1  1
 14 15  1  0
 15  8  1  0
 16 14  1  0
 16 26  1  0
 17 16  2  0
 18 19  1  0
 19 21  1  0
 20 19  2  0
 21 22  1  0
 23 22  1  0
 24 23  1  0
 25 24  1  6
 25 26  1  0
 25 27  1  0
 27 28  2  0
 27 29  1  0
M  END
$$$$
