KMR.pdb
     RDKit          3D

 29 28  0  0  1  0  0  0  0  0999 V2000
   28.5625  -24.0405  -17.1995 N   0  0  0  0  0  0  0  0  0  0  0  0
   27.1622  -24.0481  -17.2047 C   0  0  1  0  0  0  0  0  0  0  0  0
   26.5688  -25.4104  -17.0409 C   0  0  0  0  0  0  0  0  0  0  0  0
   27.5553  -26.4452  -16.6314 C   0  0  0  0  0  0  0  0  0  0  0  0
   27.4774  -27.6789  -17.4498 C   0  0  0  0  0  0  0  0  0  0  0  0
   28.5224  -28.7163  -16.9679 C   0  0  0  0  0  0  0  0  0  0  0  0
   28.3640  -29.8656  -17.8184 N   0  0  0  0  0  0  0  0  0  0  0  0
   26.5353  -23.1714  -16.1768 C   0  0  0  0  0  0  0  0  0  0  0  0
   26.3402  -23.6927  -15.0451 O   0  0  0  0  0  0  0  0  0  0  0  0
   27.8948  -17.4977  -16.9908 C   0  0  0  0  0  0  0  0  0  0  0  0
   28.0808  -17.8406  -15.2111 S   0  0  0  0  0  0  0  0  0  0  0  0
   27.6068  -19.6094  -14.9938 C   0  0  0  0  0  0  0  0  0  0  0  0
   26.1792  -19.7018  -15.4085 C   0  0  0  0  0  0  0  0  0  0  0  0
   25.5524  -21.0693  -15.2945 C   0  0  2  0  0  0  0  0  0  0  0  0
   26.1624  -21.8488  -16.3838 N   0  0  0  0  0  0  0  0  0  0  0  0
   24.0965  -21.0976  -15.5183 C   0  0  0  0  0  0  0  0  0  0  0  0
   23.6379  -21.6862  -16.5593 O   0  0  0  0  0  0  0  0  0  0  0  0
   18.1328  -23.8428  -12.6284 N   0  0  0  0  0  0  0  0  0  0  0  0
   17.9709  -24.8556  -13.6189 C   0  0  0  0  0  0  0  0  0  0  0  0
   17.1710  -25.8257  -13.4408 N   0  0  0  0  0  0  0  0  0  0  0  0
   18.7241  -24.7607  -14.8165 N   0  0  0  0  0  0  0  0  0  0  0  0
   20.1214  -24.3007  -14.7768 C   0  0  0  0  0  0  0  0  0  0  0  0
   20.1160  -22.7983  -14.7868 C   0  0  0  0  0  0  0  0  0  0  0  0
   21.4755  -22.2369  -14.8060 C   0  0  0  0  0  0  0  0  0  0  0  0
   21.6726  -20.7785  -14.8194 C   0  0  2  0  0  0  0  0  0  0  0  0
   23.1197  -20.5284  -14.6779 N   0  0  0  0  0  0  0  0  0  0  0  0
   20.9740  -19.9457  -13.8595 C   0  0  0  0  0  0  0  0  0  0  0  0
   21.5537  -19.4195  -12.8799 O   0  0  0  0  0  0  0  0  0  0  0  0
   19.6219  -19.7021  -14.0009 O   0  0  0  0  0  0  0  0  0  0  0  0
  2  1  1  1
  2  3  1  0
  4  5  1  0
  4  3  1  0
  6  7  1  0
  6  5  1  0
  8  2  1  0
  8  9  2  0
 10 11  1  0
 11 12  1  0
 12 13  1  0
 14 13  1  6
 14 15  1  0
 15  8  1  0
 16 14  1  0
 16 26  1  0
 17 16  2  0
 18 19  1  0
 19 21  1  0
 20 19  2  0
 21 22  1  0
 23 22  1  0
 24 23  1  0
 25 24  1  1
 25 26  1  0
 25 27  1  0
 27 28  2  0
 27 29  1  0
M  END
$$$$
