KMR.pdb
     RDKit          3D

 29 28  0  0  1  0  0  0  0  0999 V2000
   21.0261  -20.9567  -11.6162 N   0  0  0  0  0  0  0  0  0  0  0  0
   22.0619  -21.6849  -12.2143 C   0  0  1  0  0  0  0  0  0  0  0  0
   21.7181  -22.2152  -13.5692 C   0  0  0  0  0  0  0  0  0  0  0  0
   20.2560  -22.3608  -13.7991 C   0  0  0  0  0  0  0  0  0  0  0  0
   19.8402  -23.7655  -14.0264 C   0  0  0  0  0  0  0  0  0  0  0  0
   18.3204  -23.8407  -14.3181 C   0  0  0  0  0  0  0  0  0  0  0  0
   18.0153  -25.2368  -14.4830 N   0  0  0  0  0  0  0  0  0  0  0  0
   23.3443  -20.9395  -12.3489 C   0  0  0  0  0  0  0  0  0  0  0  0
   23.2517  -19.7321  -12.7011 O   0  0  0  0  0  0  0  0  0  0  0  0
   28.6350  -20.9039   -8.6196 C   0  0  0  0  0  0  0  0  0  0  0  0
   29.2117  -21.5771  -10.2113 S   0  0  0  0  0  0  0  0  0  0  0  0
   28.2168  -20.7173  -11.5042 C   0  0  0  0  0  0  0  0  0  0  0  0
   26.8436  -21.2858  -11.4058 C   0  0  0  0  0  0  0  0  0  0  0  0
   25.8110  -20.6614  -12.3111 C   0  0  2  0  0  0  0  0  0  0  0  0
   24.6032  -21.4798  -12.1159 N   0  0  0  0  0  0  0  0  0  0  0  0
   26.1359  -20.7231  -13.7467 C   0  0  0  0  0  0  0  0  0  0  0  0
   26.0742  -21.8506  -14.3512 O   0  0  0  0  0  0  0  0  0  0  0  0
   22.4156  -16.0787  -18.9067 N   0  0  0  0  0  0  0  0  0  0  0  0
   22.6369  -16.6864  -17.6360 C   0  0  0  0  0  0  0  0  0  0  0  0
   21.8344  -16.4982  -16.6699 N   0  0  0  0  0  0  0  0  0  0  0  0
   23.7777  -17.5117  -17.4675 N   0  0  0  0  0  0  0  0  0  0  0  0
   24.6766  -17.7718  -18.6032 C   0  0  0  0  0  0  0  0  0  0  0  0
   25.7896  -18.6584  -18.1206 C   0  0  0  0  0  0  0  0  0  0  0  0
   25.7510  -18.8569  -16.6636 C   0  0  0  0  0  0  0  0  0  0  0  0
   26.7362  -19.7341  -16.0111 C   0  0  2  0  0  0  0  0  0  0  0  0
   26.5183  -19.6348  -14.5553 N   0  0  0  0  0  0  0  0  0  0  0  0
   28.1512  -19.5504  -16.2699 C   0  0  0  0  0  0  0  0  0  0  0  0
   28.8328  -18.6758  -15.6842 O   0  0  0  0  0  0  0  0  0  0  0  0
   28.8024  -20.3518  -17.1871 O   0  0  0  0  0  0  0  0  0  0  0  0
  2  1  1  6
  2  3  1  0
  4  5  1  0
  4  3  1  0
  6  7  1  0
  6  5  1  0
  8  2  1  0
  8  9  2  0
 10 11  1  0
 11 12  1  0
 12 13  1  0
 14 13  1  1
 14 15  1  0
 15  8  1  0
 16 14  1  0
 16 26  1  0
 17 16  2  0
 18 19  1  0
 19 21  1  0
 20 19  2  0
 21 22  1  0
 23 22  1  0
 24 23  1  0
 25 24  1  6
 25 26  1  0
 25 27  1  0
 27 28  2  0
 27 29  1  0
M  END
$$$$
