KMR.pdb
     RDKit          3D

 29 28  0  0  1  0  0  0  0  0999 V2000
   20.4602  -13.6604  -19.0147 N   0  0  0  0  0  0  0  0  0  0  0  0
   20.7212  -14.0996  -17.7109 C   0  0  1  0  0  0  0  0  0  0  0  0
   19.5685  -14.8068  -17.0737 C   0  0  0  0  0  0  0  0  0  0  0  0
   18.3343  -13.9812  -16.9912 C   0  0  0  0  0  0  0  0  0  0  0  0
   17.1867  -14.7087  -16.3981 C   0  0  0  0  0  0  0  0  0  0  0  0
   15.9546  -13.7763  -16.2831 C   0  0  0  0  0  0  0  0  0  0  0  0
   14.8744  -14.6004  -15.8104 N   0  0  0  0  0  0  0  0  0  0  0  0
   21.9062  -14.9931  -17.5850 C   0  0  0  0  0  0  0  0  0  0  0  0
   22.2217  -15.6473  -18.6160 O   0  0  0  0  0  0  0  0  0  0  0  0
   27.9279  -14.8247  -14.9994 C   0  0  0  0  0  0  0  0  0  0  0  0
   26.7622  -13.4979  -15.4469 S   0  0  0  0  0  0  0  0  0  0  0  0
   25.5033  -14.2894  -16.5376 C   0  0  0  0  0  0  0  0  0  0  0  0
   24.9045  -15.3916  -15.7343 C   0  0  0  0  0  0  0  0  0  0  0  0
   23.7600  -16.1278  -16.3852 C   0  0  2  0  0  0  0  0  0  0  0  0
   22.6650  -15.1451  -16.4308 N   0  0  0  0  0  0  0  0  0  0  0  0
   23.2594  -17.2832  -15.6205 C   0  0  0  0  0  0  0  0  0  0  0  0
   22.1793  -17.1610  -14.9432 O   0  0  0  0  0  0  0  0  0  0  0  0
   18.2799  -18.5968  -10.5877 N   0  0  0  0  0  0  0  0  0  0  0  0
   18.4781  -19.9905  -10.8139 C   0  0  0  0  0  0  0  0  0  0  0  0
   17.7601  -20.8590  -10.2282 N   0  0  0  0  0  0  0  0  0  0  0  0
   19.4988  -20.3943  -11.7115 N   0  0  0  0  0  0  0  0  0  0  0  0
   20.3547  -19.3877  -12.3594 C   0  0  0  0  0  0  0  0  0  0  0  0
   21.3647  -20.1115  -13.2041 C   0  0  0  0  0  0  0  0  0  0  0  0
   22.2438  -19.1864  -13.9357 C   0  0  0  0  0  0  0  0  0  0  0  0
   23.2609  -19.7101  -14.8615 C   0  0  2  0  0  0  0  0  0  0  0  0
   23.8622  -18.5548  -15.5545 N   0  0  0  0  0  0  0  0  0  0  0  0
   22.8911  -20.6940  -15.8605 C   0  0  0  0  0  0  0  0  0  0  0  0
   22.1492  -20.4172  -16.8329 O   0  0  0  0  0  0  0  0  0  0  0  0
   23.3567  -21.9910  -15.7681 O   0  0  0  0  0  0  0  0  0  0  0  0
  2  1  1  6
  2  3  1  0
  4  5  1  0
  4  3  1  0
  6  7  1  0
  6  5  1  0
  8  2  1  0
  8  9  2  0
 10 11  1  0
 11 12  1  0
 12 13  1  0
 14 13  1  1
 14 15  1  0
 15  8  1  0
 16 14  1  0
 16 26  1  0
 17 16  2  0
 18 19  1  0
 19 21  1  0
 20 19  2  0
 21 22  1  0
 23 22  1  0
 24 23  1  0
 25 24  1  6
 25 26  1  0
 25 27  1  0
 27 28  2  0
 27 29  1  0
M  END
$$$$
