KMR.pdb
     RDKit          3D

 29 28  0  0  1  0  0  0  0  0999 V2000
   27.1467  -22.1298  -14.3766 N   0  0  0  0  0  0  0  0  0  0  0  0
   26.4038  -21.0815  -13.8200 C   0  0  1  0  0  0  0  0  0  0  0  0
   25.2845  -20.6101  -14.6917 C   0  0  0  0  0  0  0  0  0  0  0  0
   25.7148  -19.6633  -15.7547 C   0  0  0  0  0  0  0  0  0  0  0  0
   25.7847  -20.2889  -17.0970 C   0  0  0  0  0  0  0  0  0  0  0  0
   26.2001  -19.2429  -18.1618 C   0  0  0  0  0  0  0  0  0  0  0  0
   26.2748  -19.9537  -19.4102 N   0  0  0  0  0  0  0  0  0  0  0  0
   25.8206  -21.3792  -12.4822 C   0  0  0  0  0  0  0  0  0  0  0  0
   25.4177  -22.5605  -12.3012 O   0  0  0  0  0  0  0  0  0  0  0  0
   26.5567  -19.5352   -5.0119 C   0  0  0  0  0  0  0  0  0  0  0  0
   26.9597  -19.2832   -6.7708 S   0  0  0  0  0  0  0  0  0  0  0  0
   25.7134  -20.2640   -7.7116 C   0  0  0  0  0  0  0  0  0  0  0  0
   26.0896  -20.1303   -9.1466 C   0  0  0  0  0  0  0  0  0  0  0  0
   25.2244  -20.8882  -10.1227 C   0  0  2  0  0  0  0  0  0  0  0  0
   25.6973  -20.4584  -11.4487 N   0  0  0  0  0  0  0  0  0  0  0  0
   23.7905  -20.5568  -10.0574 C   0  0  0  0  0  0  0  0  0  0  0  0
   23.3342  -19.6171  -10.7985 O   0  0  0  0  0  0  0  0  0  0  0  0
   18.3361  -25.2929   -5.5969 N   0  0  0  0  0  0  0  0  0  0  0  0
   17.7268  -24.4601   -6.5808 C   0  0  0  0  0  0  0  0  0  0  0  0
   16.4641  -24.3443   -6.6518 N   0  0  0  0  0  0  0  0  0  0  0  0
   18.5613  -23.7571   -7.4865 N   0  0  0  0  0  0  0  0  0  0  0  0
   20.0209  -23.9388   -7.4405 C   0  0  0  0  0  0  0  0  0  0  0  0
   20.6212  -23.1631   -8.5787 C   0  0  0  0  0  0  0  0  0  0  0  0
   20.7295  -21.7273   -8.2778 C   0  0  0  0  0  0  0  0  0  0  0  0
   21.4031  -20.8229   -9.2235 C   0  0  2  0  0  0  0  0  0  0  0  0
   22.8326  -21.1875   -9.2394 N   0  0  0  0  0  0  0  0  0  0  0  0
   21.3049  -19.3871   -9.0454 C   0  0  0  0  0  0  0  0  0  0  0  0
   22.2156  -18.7135   -8.5073 O   0  0  0  0  0  0  0  0  0  0  0  0
   20.1823  -18.7061   -9.4739 O   0  0  0  0  0  0  0  0  0  0  0  0
  2  1  1  6
  2  3  1  0
  4  5  1  0
  4  3  1  0
  6  7  1  0
  6  5  1  0
  8  2  1  0
  8  9  2  0
 10 11  1  0
 11 12  1  0
 12 13  1  0
 14 13  1  1
 14 15  1  0
 15  8  1  0
 16 14  1  0
 16 26  1  0
 17 16  2  0
 18 19  1  0
 19 21  1  0
 20 19  2  0
 21 22  1  0
 23 22  1  0
 24 23  1  0
 25 24  1  1
 25 26  1  0
 25 27  1  0
 27 28  2  0
 27 29  1  0
M  END
$$$$
