KMR.pdb
     RDKit          3D

 29 28  0  0  1  0  0  0  0  0999 V2000
   28.5814  -21.3454  -13.8819 N   0  0  0  0  0  0  0  0  0  0  0  0
   27.9272  -20.3485  -13.1476 C   0  0  1  0  0  0  0  0  0  0  0  0
   27.0522  -19.4669  -13.9795 C   0  0  0  0  0  0  0  0  0  0  0  0
   27.7065  -18.9796  -15.2229 C   0  0  0  0  0  0  0  0  0  0  0  0
   27.9931  -17.5253  -15.1976 C   0  0  0  0  0  0  0  0  0  0  0  0
   28.7421  -17.0977  -16.4848 C   0  0  0  0  0  0  0  0  0  0  0  0
   29.1300  -15.7272  -16.2829 N   0  0  0  0  0  0  0  0  0  0  0  0
   27.0937  -20.8556  -12.0223 C   0  0  0  0  0  0  0  0  0  0  0  0
   26.2644  -21.7617  -12.3086 O   0  0  0  0  0  0  0  0  0  0  0  0
   27.8569  -18.6348   -6.3158 C   0  0  0  0  0  0  0  0  0  0  0  0
   27.0058  -20.1369   -5.7336 S   0  0  0  0  0  0  0  0  0  0  0  0
   26.0112  -20.7319   -7.1680 C   0  0  0  0  0  0  0  0  0  0  0  0
   26.8345  -20.4530   -8.3775 C   0  0  0  0  0  0  0  0  0  0  0  0
   26.2549  -20.9279   -9.6868 C   0  0  2  0  0  0  0  0  0  0  0  0
   27.1726  -20.4029  -10.7109 N   0  0  0  0  0  0  0  0  0  0  0  0
   24.9201  -20.3879   -9.9987 C   0  0  0  0  0  0  0  0  0  0  0  0
   24.8282  -19.3283  -10.7123 O   0  0  0  0  0  0  0  0  0  0  0  0
   19.8788  -24.9214  -14.2670 N   0  0  0  0  0  0  0  0  0  0  0  0
   19.0641  -23.7543  -14.1818 C   0  0  0  0  0  0  0  0  0  0  0  0
   17.8671  -23.7573  -14.6058 N   0  0  0  0  0  0  0  0  0  0  0  0
   19.6174  -22.5803  -13.6106 N   0  0  0  0  0  0  0  0  0  0  0  0
   20.8586  -22.6549  -12.8236 C   0  0  0  0  0  0  0  0  0  0  0  0
   21.2383  -21.2577  -12.4220 C   0  0  0  0  0  0  0  0  0  0  0  0
   22.4483  -21.2282  -11.5860 C   0  0  0  0  0  0  0  0  0  0  0  0
   22.4011  -20.6388  -10.2383 C   0  0  2  0  0  0  0  0  0  0  0  0
   23.6897  -20.9338   -9.5833 N   0  0  0  0  0  0  0  0  0  0  0  0
   21.3357  -21.0059   -9.3256 C   0  0  0  0  0  0  0  0  0  0  0  0
   21.5266  -21.7523   -8.3361 O   0  0  0  0  0  0  0  0  0  0  0  0
   20.0534  -20.5324   -9.5236 O   0  0  0  0  0  0  0  0  0  0  0  0
  2  1  1  6
  2  3  1  0
  4  5  1  0
  4  3  1  0
  6  7  1  0
  6  5  1  0
  8  2  1  0
  8  9  2  0
 10 11  1  0
 11 12  1  0
 12 13  1  0
 14 13  1  1
 14 15  1  0
 15  8  1  0
 16 14  1  0
 16 26  1  0
 17 16  2  0
 18 19  1  0
 19 21  1  0
 20 19  2  0
 21 22  1  0
 23 22  1  0
 24 23  1  0
 25 24  1  6
 25 26  1  0
 25 27  1  0
 27 28  2  0
 27 29  1  0
M  END
$$$$
