KMR.pdb
     RDKit          3D

 29 28  0  0  1  0  0  0  0  0999 V2000
   23.1769  -23.4014   -7.4388 N   0  0  0  0  0  0  0  0  0  0  0  0
   22.5929  -22.2667   -8.0152 C   0  0  1  0  0  0  0  0  0  0  0  0
   21.3775  -21.7836   -7.2910 C   0  0  0  0  0  0  0  0  0  0  0  0
   20.4206  -22.8676   -6.9430 C   0  0  0  0  0  0  0  0  0  0  0  0
   19.2539  -22.3857   -6.1655 C   0  0  0  0  0  0  0  0  0  0  0  0
   18.2903  -23.5576   -5.8513 C   0  0  0  0  0  0  0  0  0  0  0  0
   17.2706  -23.0155   -4.9936 N   0  0  0  0  0  0  0  0  0  0  0  0
   23.5106  -21.1020   -8.1547 C   0  0  0  0  0  0  0  0  0  0  0  0
   22.9857  -20.0236   -8.5445 O   0  0  0  0  0  0  0  0  0  0  0  0
   29.3090  -19.8992   -6.0244 C   0  0  0  0  0  0  0  0  0  0  0  0
   27.9248  -19.6442   -4.8675 S   0  0  0  0  0  0  0  0  0  0  0  0
   26.4121  -19.5427   -5.9173 C   0  0  0  0  0  0  0  0  0  0  0  0
   26.8340  -19.9684   -7.2809 C   0  0  0  0  0  0  0  0  0  0  0  0
   25.7393  -20.0204   -8.3176 C   0  0  2  0  0  0  0  0  0  0  0  0
   24.8741  -21.1311   -7.8881 N   0  0  0  0  0  0  0  0  0  0  0  0
   26.1987  -20.3445   -9.6793 C   0  0  0  0  0  0  0  0  0  0  0  0
   27.0859  -21.2547   -9.8370 O   0  0  0  0  0  0  0  0  0  0  0  0
   23.6791  -23.9992  -15.7724 N   0  0  0  0  0  0  0  0  0  0  0  0
   24.7087  -24.8967  -15.3633 C   0  0  0  0  0  0  0  0  0  0  0  0
   25.1939  -25.7500  -16.1691 N   0  0  0  0  0  0  0  0  0  0  0  0
   25.1861  -24.8201  -14.0302 N   0  0  0  0  0  0  0  0  0  0  0  0
   24.5954  -23.8570  -13.0874 C   0  0  0  0  0  0  0  0  0  0  0  0
   25.2013  -22.5094  -13.3599 C   0  0  0  0  0  0  0  0  0  0  0  0
   25.3640  -21.7140  -12.1332 C   0  0  0  0  0  0  0  0  0  0  0  0
   25.9052  -20.3473  -12.2051 C   0  0  2  0  0  0  0  0  0  0  0  0
   25.7481  -19.7405  -10.8696 N   0  0  0  0  0  0  0  0  0  0  0  0
   25.3877  -19.4156  -13.1886 C   0  0  0  0  0  0  0  0  0  0  0  0
   25.8349  -19.3573  -14.3587 O   0  0  0  0  0  0  0  0  0  0  0  0
   24.3647  -18.5486  -12.8576 O   0  0  0  0  0  0  0  0  0  0  0  0
  2  1  1  1
  2  3  1  0
  4  5  1  0
  4  3  1  0
  6  7  1  0
  6  5  1  0
  8  2  1  0
  8  9  2  0
 10 11  1  0
 11 12  1  0
 12 13  1  0
 14 13  1  1
 14 15  1  0
 15  8  1  0
 16 14  1  0
 16 26  1  0
 17 16  2  0
 18 19  1  0
 19 21  1  0
 20 19  2  0
 21 22  1  0
 23 22  1  0
 24 23  1  0
 25 24  1  1
 25 26  1  0
 25 27  1  0
 27 28  2  0
 27 29  1  0
M  END
$$$$
