KMR.pdb
     RDKit          3D

 29 28  0  0  1  0  0  0  0  0999 V2000
   22.4772  -20.8331  -14.4072 N   0  0  0  0  0  0  0  0  0  0  0  0
   23.4885  -21.2578  -13.5368 C   0  0  1  0  0  0  0  0  0  0  0  0
   23.5184  -22.7378  -13.3281 C   0  0  0  0  0  0  0  0  0  0  0  0
   23.4692  -23.5194  -14.5924 C   0  0  0  0  0  0  0  0  0  0  0  0
   23.5083  -24.9849  -14.3719 C   0  0  0  0  0  0  0  0  0  0  0  0
   23.3555  -25.7398  -15.7162 C   0  0  0  0  0  0  0  0  0  0  0  0
   23.2340  -27.1330  -15.3789 N   0  0  0  0  0  0  0  0  0  0  0  0
   24.8625  -20.8447  -13.9369 C   0  0  0  0  0  0  0  0  0  0  0  0
   24.9692  -20.2819  -15.0604 O   0  0  0  0  0  0  0  0  0  0  0  0
   29.5846  -22.0529  -10.2579 C   0  0  0  0  0  0  0  0  0  0  0  0
   30.5136  -20.7208  -11.0839 S   0  0  0  0  0  0  0  0  0  0  0  0
   29.6650  -20.4508  -12.6987 C   0  0  0  0  0  0  0  0  0  0  0  0
   28.2143  -20.6634  -12.4364 C   0  0  0  0  0  0  0  0  0  0  0  0
   27.3084  -20.5438  -13.6368 C   0  0  2  0  0  0  0  0  0  0  0  0
   26.0034  -21.0368  -13.1672 N   0  0  0  0  0  0  0  0  0  0  0  0
   27.6922  -21.3880  -14.7816 C   0  0  0  0  0  0  0  0  0  0  0  0
   27.2222  -22.5766  -14.8640 O   0  0  0  0  0  0  0  0  0  0  0  0
   24.3589  -24.9456  -18.6299 N   0  0  0  0  0  0  0  0  0  0  0  0
   23.5093  -23.8260  -18.8699 C   0  0  0  0  0  0  0  0  0  0  0  0
   22.2451  -23.9447  -18.8468 N   0  0  0  0  0  0  0  0  0  0  0  0
   24.1044  -22.5669  -19.1367 N   0  0  0  0  0  0  0  0  0  0  0  0
   25.5678  -22.4172  -19.0964 C   0  0  0  0  0  0  0  0  0  0  0  0
   25.9384  -21.8372  -17.7608 C   0  0  0  0  0  0  0  0  0  0  0  0
   27.2162  -22.3661  -17.2596 C   0  0  0  0  0  0  0  0  0  0  0  0
   28.4079  -21.5035  -17.2189 C   0  0  2  0  0  0  0  0  0  0  0  0
   28.5495  -21.0130  -15.8347 N   0  0  0  0  0  0  0  0  0  0  0  0
   28.5085  -20.3668  -18.1137 C   0  0  0  0  0  0  0  0  0  0  0  0
   29.1625  -20.4099  -19.1829 O   0  0  0  0  0  0  0  0  0  0  0  0
   27.8721  -19.1798  -17.8079 O   0  0  0  0  0  0  0  0  0  0  0  0
  2  1  1  6
  2  3  1  0
  4  5  1  0
  4  3  1  0
  6  7  1  0
  6  5  1  0
  8  2  1  0
  8  9  2  0
 10 11  1  0
 11 12  1  0
 12 13  1  0
 14 13  1  1
 14 15  1  0
 15  8  1  0
 16 14  1  0
 16 26  1  0
 17 16  2  0
 18 19  1  0
 19 21  1  0
 20 19  2  0
 21 22  1  0
 23 22  1  0
 24 23  1  0
 25 24  1  1
 25 26  1  0
 25 27  1  0
 27 28  2  0
 27 29  1  0
M  END
$$$$
