SDN.pdb
     RDKit          3D

 23 22  0  0  1  0  0  0  0  0999 V2000
    7.7033  -11.7302   19.7810 O   0  0  0  0  0  0  0  0  0  0  0  0
    8.8030  -12.5559   19.9018 C   0  0  0  0  0  0  0  0  0  0  0  0
    9.0590  -13.3621   18.6415 C   0  0  2  0  0  0  0  0  0  0  0  0
    7.9417  -14.2588   18.4203 N   0  0  0  0  0  0  0  0  0  0  0  0
   10.2823  -14.1997   18.7818 C   0  0  0  0  0  0  0  0  0  0  0  0
   10.0701  -15.4406   18.8188 O   0  0  0  0  0  0  0  0  0  0  0  0
   11.5844  -13.6438   18.8670 N   0  0  0  0  0  0  0  0  0  0  0  0
   12.7935  -14.4914   18.7611 C   0  0  1  0  0  0  0  0  0  0  0  0
   13.6719  -13.8990   17.7379 C   0  0  0  0  0  0  0  0  0  0  0  0
   14.9627  -14.5169   17.4857 C   0  0  0  0  0  0  0  0  0  0  0  0
   15.0488  -15.7815   17.3378 O   0  0  0  0  0  0  0  0  0  0  0  0
   13.3453  -14.7607   20.0855 C   0  0  0  0  0  0  0  0  0  0  0  0
   14.3593  -15.5155   20.2341 O   0  0  0  0  0  0  0  0  0  0  0  0
   16.1599  -13.8303   17.3857 O   0  0  0  0  0  0  0  0  0  0  0  0
   11.4693  -16.9014   24.8146 N   0  0  0  0  0  0  0  0  0  0  0  0
   12.1640  -17.1064   23.5696 C   0  0  0  0  0  0  0  0  0  0  0  0
   12.8484  -18.1656   23.5084 O   0  0  0  0  0  0  0  0  0  0  0  0
   12.0663  -16.1376   22.4671 C   0  0  0  0  0  0  0  0  0  0  0  0
   12.9806  -14.9555   22.5643 C   0  0  2  0  0  0  0  0  0  0  0  0
   12.8175  -14.2206   21.2837 N   0  0  0  0  0  0  0  0  0  0  0  0
   14.3820  -15.4079   22.5756 C   0  0  0  0  0  0  0  0  0  0  0  0
   14.8710  -15.8853   23.6171 O   0  0  0  0  0  0  0  0  0  0  0  0
   15.1783  -15.3184   21.4574 O   0  0  0  0  0  0  0  0  0  0  0  0
  2  1  1  0
  3  4  1  1
  3  2  1  0
  5  6  2  0
  5  3  1  0
  7  5  1  0
  8  7  1  0
  8 12  1  0
  8  9  1  6
 10 14  1  0
 10  9  1  0
 11 10  2  0
 12 20  1  0
 13 12  2  0
 15 16  1  0
 16 18  1  0
 17 16  2  0
 19 18  1  6
 20 19  1  0
 21 19  1  0
 21 23  1  0
 22 21  2  0
M  END
$$$$
