SDN.pdb
     RDKit          3D

 23 22  0  0  1  0  0  0  0  0999 V2000
    8.1236  -12.7407   15.6120 O   0  0  0  0  0  0  0  0  0  0  0  0
    8.1317  -13.6458   16.6543 C   0  0  0  0  0  0  0  0  0  0  0  0
    8.4873  -15.0484   16.1963 C   0  0  2  0  0  0  0  0  0  0  0  0
    7.4861  -15.5042   15.2523 N   0  0  0  0  0  0  0  0  0  0  0  0
    8.4873  -16.0009   17.3411 C   0  0  0  0  0  0  0  0  0  0  0  0
    7.8373  -17.0615   17.1444 O   0  0  0  0  0  0  0  0  0  0  0  0
    9.1663  -15.7347   18.5576 N   0  0  0  0  0  0  0  0  0  0  0  0
    9.5971  -16.8295   19.4561 C   0  0  1  0  0  0  0  0  0  0  0  0
   10.4300  -17.7565   18.6710 C   0  0  0  0  0  0  0  0  0  0  0  0
   10.4255  -19.1661   19.0240 C   0  0  0  0  0  0  0  0  0  0  0  0
   10.3465  -19.5191   20.2478 O   0  0  0  0  0  0  0  0  0  0  0  0
   10.1365  -16.2867   20.6993 C   0  0  0  0  0  0  0  0  0  0  0  0
   11.2092  -15.6017   20.7067 O   0  0  0  0  0  0  0  0  0  0  0  0
   10.5014  -20.2070   18.1155 O   0  0  0  0  0  0  0  0  0  0  0  0
    8.0491  -13.6354   22.3305 N   0  0  0  0  0  0  0  0  0  0  0  0
    7.7713  -14.4505   23.4850 C   0  0  0  0  0  0  0  0  0  0  0  0
    6.6589  -14.2290   24.0397 O   0  0  0  0  0  0  0  0  0  0  0  0
    8.7299  -15.4593   23.9616 C   0  0  0  0  0  0  0  0  0  0  0  0
    9.9558  -15.6330   23.1190 C   0  0  2  0  0  0  0  0  0  0  0  0
    9.5308  -16.4683   21.9666 N   0  0  0  0  0  0  0  0  0  0  0  0
   10.9476  -16.4465   23.8424 C   0  0  0  0  0  0  0  0  0  0  0  0
   11.0236  -17.6705   23.6237 O   0  0  0  0  0  0  0  0  0  0  0  0
   11.8037  -15.8898   24.7640 O   0  0  0  0  0  0  0  0  0  0  0  0
  2  1  1  0
  3  4  1  6
  3  2  1  0
  5  6  2  0
  5  3  1  0
  7  5  1  0
  8  7  1  0
  8 12  1  0
  8  9  1  6
 10 14  1  0
 10  9  1  0
 11 10  2  0
 12 20  1  0
 13 12  2  0
 15 16  1  0
 16 18  1  0
 17 16  2  0
 19 18  1  1
 20 19  1  0
 21 19  1  0
 21 23  1  0
 22 21  2  0
M  END
$$$$
