SDN.pdb
     RDKit          3D

 23 22  0  0  1  0  0  0  0  0999 V2000
    5.0174  -17.5317   21.2808 O   0  0  0  0  0  0  0  0  0  0  0  0
    6.2664  -17.8067   21.8005 C   0  0  0  0  0  0  0  0  0  0  0  0
    7.3135  -17.9894   20.7171 C   0  0  2  0  0  0  0  0  0  0  0  0
    7.0600  -19.2358   20.0218 N   0  0  0  0  0  0  0  0  0  0  0  0
    8.6799  -18.0753   21.3031 C   0  0  0  0  0  0  0  0  0  0  0  0
    9.0522  -19.2403   21.6036 O   0  0  0  0  0  0  0  0  0  0  0  0
    9.4980  -16.9347   21.5067 N   0  0  0  0  0  0  0  0  0  0  0  0
   10.7993  -17.0336   22.2055 C   0  0  1  0  0  0  0  0  0  0  0  0
   11.7981  -16.3048   21.4050 C   0  0  0  0  0  0  0  0  0  0  0  0
   13.1727  -16.2651   21.8746 C   0  0  0  0  0  0  0  0  0  0  0  0
   13.8091  -17.3514   22.0836 O   0  0  0  0  0  0  0  0  0  0  0  0
   10.6483  -16.6903   23.6163 C   0  0  0  0  0  0  0  0  0  0  0  0
   11.6526  -16.6641   24.3977 O   0  0  0  0  0  0  0  0  0  0  0  0
   13.8871  -15.1072   22.1264 O   0  0  0  0  0  0  0  0  0  0  0  0
    8.3695  -14.0250   23.8858 N   0  0  0  0  0  0  0  0  0  0  0  0
    7.5287  -14.4697   24.9674 C   0  0  0  0  0  0  0  0  0  0  0  0
    6.4037  -13.9007   25.0376 O   0  0  0  0  0  0  0  0  0  0  0  0
    7.9721  -15.5112   25.9067 C   0  0  0  0  0  0  0  0  0  0  0  0
    9.3494  -16.0493   25.6699 C   0  0  2  0  0  0  0  0  0  0  0  0
    9.4089  -16.3646   24.2195 N   0  0  0  0  0  0  0  0  0  0  0  0
    9.5040  -17.3440   26.3545 C   0  0  0  0  0  0  0  0  0  0  0  0
    9.5821  -18.3929   25.6869 O   0  0  0  0  0  0  0  0  0  0  0  0
    9.5657  -17.4324   27.7258 O   0  0  0  0  0  0  0  0  0  0  0  0
  2  1  1  0
  3  4  1  1
  3  2  1  0
  5  6  2  0
  5  3  1  0
  7  5  1  0
  8  7  1  0
  8 12  1  0
  8  9  1  6
 10 14  1  0
 10  9  1  0
 11 10  2  0
 12 20  1  0
 13 12  2  0
 15 16  1  0
 16 18  1  0
 17 16  2  0
 19 18  1  6
 20 19  1  0
 21 19  1  0
 21 23  1  0
 22 21  2  0
M  END
$$$$
