SDN.pdb
     RDKit          3D

 23 22  0  0  1  0  0  0  0  0999 V2000
   -1.9034  -27.4941   23.6771 O   0  0  0  0  0  0  0  0  0  0  0  0
   -2.0246  -26.1823   23.2646 C   0  0  0  0  0  0  0  0  0  0  0  0
   -1.9365  -25.2041   24.4218 C   0  0  2  0  0  0  0  0  0  0  0  0
   -0.7746  -25.5283   25.2258 N   0  0  0  0  0  0  0  0  0  0  0  0
   -3.1323  -25.3093   25.3032 C   0  0  0  0  0  0  0  0  0  0  0  0
   -4.2160  -24.9600   24.7651 O   0  0  0  0  0  0  0  0  0  0  0  0
   -3.0568  -25.7671   26.6435 N   0  0  0  0  0  0  0  0  0  0  0  0
   -4.2474  -25.7782   27.5231 C   0  0  1  0  0  0  0  0  0  0  0  0
   -4.2226  -27.0287   28.3009 C   0  0  0  0  0  0  0  0  0  0  0  0
   -5.2379  -27.2357   29.3196 C   0  0  0  0  0  0  0  0  0  0  0  0
   -6.4685  -27.0366   29.0463 O   0  0  0  0  0  0  0  0  0  0  0  0
   -4.3643  -24.5115   28.2394 C   0  0  0  0  0  0  0  0  0  0  0  0
   -4.3313  -23.4004   27.6196 O   0  0  0  0  0  0  0  0  0  0  0  0
   -4.9826  -27.6477   30.6156 O   0  0  0  0  0  0  0  0  0  0  0  0
   -6.1770  -20.7159   31.1988 N   0  0  0  0  0  0  0  0  0  0  0  0
   -6.9125  -21.6278   30.3610 C   0  0  0  0  0  0  0  0  0  0  0  0
   -8.1257  -21.3273   30.1814 O   0  0  0  0  0  0  0  0  0  0  0  0
   -6.2736  -22.8140   29.7708 C   0  0  0  0  0  0  0  0  0  0  0  0
   -4.8893  -23.1110   30.2588 C   0  0  2  0  0  0  0  0  0  0  0  0
   -4.5216  -24.4120   29.6434 N   0  0  0  0  0  0  0  0  0  0  0  0
   -4.9145  -23.3620   31.7097 C   0  0  0  0  0  0  0  0  0  0  0  0
   -5.3727  -24.4354   32.1453 O   0  0  0  0  0  0  0  0  0  0  0  0
   -4.4419  -22.4362   32.6106 O   0  0  0  0  0  0  0  0  0  0  0  0
  2  1  1  0
  3  4  1  1
  3  2  1  0
  5  6  2  0
  5  3  1  0
  7  5  1  0
  8  7  1  0
  8 12  1  0
  8  9  1  1
 10 14  1  0
 10  9  1  0
 11 10  2  0
 12 20  1  0
 13 12  2  0
 15 16  1  0
 16 18  1  0
 17 16  2  0
 19 18  1  6
 20 19  1  0
 21 19  1  0
 21 23  1  0
 22 21  2  0
M  END
$$$$
