SDN.pdb
     RDKit          3D

 23 22  0  0  1  0  0  0  0  0999 V2000
    8.9299  -17.0016   20.5101 O   0  0  0  0  0  0  0  0  0  0  0  0
    9.6965  -16.5368   19.4603 C   0  0  0  0  0  0  0  0  0  0  0  0
   10.8196  -17.4920   19.1002 C   0  0  2  0  0  0  0  0  0  0  0  0
   10.2554  -18.7954   18.8103 N   0  0  0  0  0  0  0  0  0  0  0  0
   11.7656  -17.6584   20.2382 C   0  0  0  0  0  0  0  0  0  0  0  0
   11.6445  -18.7410   20.8703 O   0  0  0  0  0  0  0  0  0  0  0  0
   12.7277  -16.6750   20.5833 N   0  0  0  0  0  0  0  0  0  0  0  0
   13.6798  -16.8849   21.6973 C   0  0  1  0  0  0  0  0  0  0  0  0
   14.9302  -16.1830   21.3608 C   0  0  0  0  0  0  0  0  0  0  0  0
   16.0523  -16.2800   22.2790 C   0  0  0  0  0  0  0  0  0  0  0  0
   16.1160  -17.2448   23.1119 O   0  0  0  0  0  0  0  0  0  0  0  0
   13.0391  -16.5971   22.9771 C   0  0  0  0  0  0  0  0  0  0  0  0
   12.4255  -15.4993   23.1729 O   0  0  0  0  0  0  0  0  0  0  0  0
   17.1050  -15.3838   22.3357 O   0  0  0  0  0  0  0  0  0  0  0  0
   10.2459  -15.1104   24.9473 N   0  0  0  0  0  0  0  0  0  0  0  0
    9.8663  -16.4582   24.6102 C   0  0  0  0  0  0  0  0  0  0  0  0
    8.7019  -16.5826   24.1381 O   0  0  0  0  0  0  0  0  0  0  0  0
   10.7863  -17.5883   24.8110 C   0  0  0  0  0  0  0  0  0  0  0  0
   12.1704  -17.2229   25.2506 C   0  0  2  0  0  0  0  0  0  0  0  0
   13.0428  -17.4881   24.0780 N   0  0  0  0  0  0  0  0  0  0  0  0
   12.6266  -18.1584   26.2925 C   0  0  0  0  0  0  0  0  0  0  0  0
   13.1150  -19.2575   25.9680 O   0  0  0  0  0  0  0  0  0  0  0  0
   12.5289  -17.8525   27.6300 O   0  0  0  0  0  0  0  0  0  0  0  0
  2  1  1  0
  3  4  1  1
  3  2  1  0
  5  6  2  0
  5  3  1  0
  7  5  1  0
  8  7  1  0
  8 12  1  0
  8  9  1  6
 10 14  1  0
 10  9  1  0
 11 10  2  0
 12 20  1  0
 13 12  2  0
 15 16  1  0
 16 18  1  0
 17 16  2  0
 19 18  1  6
 20 19  1  0
 21 19  1  0
 21 23  1  0
 22 21  2  0
M  END
$$$$
