SDN.pdb
     RDKit          3D

 23 22  0  0  1  0  0  0  0  0999 V2000
    9.1202  -19.9796   13.5966 O   0  0  0  0  0  0  0  0  0  0  0  0
    8.7813  -18.7345   13.1060 C   0  0  0  0  0  0  0  0  0  0  0  0
    7.7447  -18.0383   13.9687 C   0  0  2  0  0  0  0  0  0  0  0  0
    7.4980  -16.7140   13.4332 N   0  0  0  0  0  0  0  0  0  0  0  0
    8.2360  -17.8706   15.3646 C   0  0  0  0  0  0  0  0  0  0  0  0
    8.5662  -16.6940   15.6693 O   0  0  0  0  0  0  0  0  0  0  0  0
    8.3249  -18.9510   16.2792 N   0  0  0  0  0  0  0  0  0  0  0  0
    8.8733  -18.7651   17.6416 C   0  0  1  0  0  0  0  0  0  0  0  0
    8.0052  -19.4953   18.5812 C   0  0  0  0  0  0  0  0  0  0  0  0
    6.5743  -19.2449   18.5458 C   0  0  0  0  0  0  0  0  0  0  0  0
    6.0820  -18.2548   19.1830 O   0  0  0  0  0  0  0  0  0  0  0  0
   10.3069  -19.0400   17.6564 C   0  0  0  0  0  0  0  0  0  0  0  0
   11.0249  -18.7321   18.6612 O   0  0  0  0  0  0  0  0  0  0  0  0
    5.6558  -20.0142   17.8537 O   0  0  0  0  0  0  0  0  0  0  0  0
   11.0154  -23.0474   17.7103 N   0  0  0  0  0  0  0  0  0  0  0  0
   12.1492  -22.1622   17.7832 C   0  0  0  0  0  0  0  0  0  0  0  0
   12.7016  -22.0945   18.9165 O   0  0  0  0  0  0  0  0  0  0  0  0
   12.6087  -21.4046   16.6090 C   0  0  0  0  0  0  0  0  0  0  0  0
   12.4598  -19.9174   16.7023 C   0  0  2  0  0  0  0  0  0  0  0  0
   11.0020  -19.6560   16.5872 N   0  0  0  0  0  0  0  0  0  0  0  0
   13.0623  -19.2802   15.5191 C   0  0  0  0  0  0  0  0  0  0  0  0
   12.7102  -19.6338   14.3778 O   0  0  0  0  0  0  0  0  0  0  0  0
   14.0140  -18.2939   15.6367 O   0  0  0  0  0  0  0  0  0  0  0  0
  2  1  1  0
  3  4  1  6
  3  2  1  0
  5  6  2  0
  5  3  1  0
  7  5  1  0
  8  7  1  0
  8 12  1  0
  8  9  1  1
 10 14  1  0
 10  9  1  0
 11 10  2  0
 12 20  1  0
 13 12  2  0
 15 16  1  0
 16 18  1  0
 17 16  2  0
 19 18  1  6
 20 19  1  0
 21 19  1  0
 21 23  1  0
 22 21  2  0
M  END
$$$$
