SDN.pdb
     RDKit          3D

 23 22  0  0  1  0  0  0  0  0999 V2000
    8.3853  -15.7964   19.7080 O   0  0  0  0  0  0  0  0  0  0  0  0
    9.0734  -16.3251   18.6344 C   0  0  0  0  0  0  0  0  0  0  0  0
    9.0548  -17.8427   18.6293 C   0  0  2  0  0  0  0  0  0  0  0  0
    7.6802  -18.2972   18.5581 N   0  0  0  0  0  0  0  0  0  0  0  0
    9.6408  -18.3889   19.8848 C   0  0  0  0  0  0  0  0  0  0  0  0
    8.8000  -18.8449   20.7041 O   0  0  0  0  0  0  0  0  0  0  0  0
   11.0363  -18.3952   20.1380 N   0  0  0  0  0  0  0  0  0  0  0  0
   11.5869  -18.9128   21.4110 C   0  0  1  0  0  0  0  0  0  0  0  0
   12.9038  -19.5073   21.1248 C   0  0  0  0  0  0  0  0  0  0  0  0
   14.0393  -18.6225   20.9268 C   0  0  0  0  0  0  0  0  0  0  0  0
   14.5148  -17.9619   21.9098 O   0  0  0  0  0  0  0  0  0  0  0  0
   11.4896  -17.9002   22.4581 C   0  0  0  0  0  0  0  0  0  0  0  0
   11.9312  -16.7206   22.2749 O   0  0  0  0  0  0  0  0  0  0  0  0
   14.6816  -18.4218   19.7178 O   0  0  0  0  0  0  0  0  0  0  0  0
    7.8601  -14.6353   25.2704 N   0  0  0  0  0  0  0  0  0  0  0  0
    9.1758  -15.2204   25.3024 C   0  0  0  0  0  0  0  0  0  0  0  0
    9.9462  -14.7536   26.1872 O   0  0  0  0  0  0  0  0  0  0  0  0
    9.5674  -16.2819   24.3624 C   0  0  0  0  0  0  0  0  0  0  0  0
   10.8160  -17.0290   24.7169 C   0  0  2  0  0  0  0  0  0  0  0  0
   10.9114  -18.1347   23.7295 N   0  0  0  0  0  0  0  0  0  0  0  0
   10.6490  -17.6891   26.0228 C   0  0  0  0  0  0  0  0  0  0  0  0
   10.2701  -18.8747   26.0742 O   0  0  0  0  0  0  0  0  0  0  0  0
   10.9015  -17.0287   27.2028 O   0  0  0  0  0  0  0  0  0  0  0  0
  2  1  1  0
  3  4  1  1
  3  2  1  0
  5  6  2  0
  5  3  1  0
  7  5  1  0
  8  7  1  0
  8 12  1  0
  8  9  1  6
 10 14  1  0
 10  9  1  0
 11 10  2  0
 12 20  1  0
 13 12  2  0
 15 16  1  0
 16 18  1  0
 17 16  2  0
 19 18  1  6
 20 19  1  0
 21 19  1  0
 21 23  1  0
 22 21  2  0
M  END
$$$$
