SDN.pdb
     RDKit          3D

 23 22  0  0  1  0  0  0  0  0999 V2000
    8.2840  -12.8678   20.4484 O   0  0  0  0  0  0  0  0  0  0  0  0
    7.6330  -13.2375   19.2886 C   0  0  0  0  0  0  0  0  0  0  0  0
    8.5535  -13.2232   18.0819 C   0  0  2  0  0  0  0  0  0  0  0  0
    7.8484  -13.7801   16.9443 N   0  0  0  0  0  0  0  0  0  0  0  0
    9.7574  -14.0675   18.3176 C   0  0  0  0  0  0  0  0  0  0  0  0
    9.5955  -15.2939   18.0811 O   0  0  0  0  0  0  0  0  0  0  0  0
   10.9897  -13.5326   18.7724 N   0  0  0  0  0  0  0  0  0  0  0  0
   12.1393  -14.4084   19.0933 C   0  0  1  0  0  0  0  0  0  0  0  0
   13.3099  -13.9058   18.3541 C   0  0  0  0  0  0  0  0  0  0  0  0
   14.5524  -14.6562   18.4237 C   0  0  0  0  0  0  0  0  0  0  0  0
   15.6653  -14.0735   18.1986 O   0  0  0  0  0  0  0  0  0  0  0  0
   12.2512  -14.5950   20.5368 C   0  0  0  0  0  0  0  0  0  0  0  0
   11.7344  -13.7626   21.3493 O   0  0  0  0  0  0  0  0  0  0  0  0
   14.6445  -16.0033   18.7257 O   0  0  0  0  0  0  0  0  0  0  0  0
   12.0136  -16.6720   25.2574 N   0  0  0  0  0  0  0  0  0  0  0  0
   11.0151  -16.6150   24.2210 C   0  0  0  0  0  0  0  0  0  0  0  0
    9.8448  -16.9120   24.5904 O   0  0  0  0  0  0  0  0  0  0  0  0
   11.3599  -16.2359   22.8422 C   0  0  0  0  0  0  0  0  0  0  0  0
   12.8029  -15.9139   22.6035 C   0  0  2  0  0  0  0  0  0  0  0  0
   12.9225  -15.6862   21.1405 N   0  0  0  0  0  0  0  0  0  0  0  0
   13.6314  -17.0996   22.8801 C   0  0  0  0  0  0  0  0  0  0  0  0
   13.4332  -18.1553   22.2491 O   0  0  0  0  0  0  0  0  0  0  0  0
   14.6301  -17.0775   23.8258 O   0  0  0  0  0  0  0  0  0  0  0  0
  2  1  1  0
  3  4  1  6
  3  2  1  0
  5  6  2  0
  5  3  1  0
  7  5  1  0
  8  7  1  0
  8 12  1  0
  8  9  1  1
 10 14  1  0
 10  9  1  0
 11 10  2  0
 12 20  1  0
 13 12  2  0
 15 16  1  0
 16 18  1  0
 17 16  2  0
 19 18  1  6
 20 19  1  0
 21 19  1  0
 21 23  1  0
 22 21  2  0
M  END
$$$$
