SDN.pdb
     RDKit          3D

 23 22  0  0  1  0  0  0  0  0999 V2000
    7.5756  -13.7486   22.0351 O   0  0  0  0  0  0  0  0  0  0  0  0
    7.3565  -14.7833   21.1479 C   0  0  0  0  0  0  0  0  0  0  0  0
    8.5927  -15.6404   20.9461 C   0  0  2  0  0  0  0  0  0  0  0  0
    8.3173  -16.6323   19.9256 N   0  0  0  0  0  0  0  0  0  0  0  0
    8.9464  -16.3712   22.1946 C   0  0  0  0  0  0  0  0  0  0  0  0
    8.3751  -17.4849   22.3333 O   0  0  0  0  0  0  0  0  0  0  0  0
    9.8556  -15.8536   23.1524 N   0  0  0  0  0  0  0  0  0  0  0  0
   10.2330  -16.6293   24.3555 C   0  0  1  0  0  0  0  0  0  0  0  0
   11.2830  -17.5856   23.9651 C   0  0  0  0  0  0  0  0  0  0  0  0
   11.6808  -18.6099   24.9159 C   0  0  0  0  0  0  0  0  0  0  0  0
   10.9797  -18.8192   25.9616 O   0  0  0  0  0  0  0  0  0  0  0  0
   10.4857  -15.7344   25.4809 C   0  0  0  0  0  0  0  0  0  0  0  0
   11.3271  -14.7839   25.3889 O   0  0  0  0  0  0  0  0  0  0  0  0
   12.7983  -19.4154   24.7862 O   0  0  0  0  0  0  0  0  0  0  0  0
    8.9632  -12.8721   26.0763 N   0  0  0  0  0  0  0  0  0  0  0  0
    8.2371  -13.2845   27.2498 C   0  0  0  0  0  0  0  0  0  0  0  0
    7.1129  -12.7309   27.4039 O   0  0  0  0  0  0  0  0  0  0  0  0
    8.7875  -14.2791   28.1835 C   0  0  0  0  0  0  0  0  0  0  0  0
   10.1184  -14.8519   27.8049 C   0  0  2  0  0  0  0  0  0  0  0  0
    9.8350  -15.8418   26.7343 N   0  0  0  0  0  0  0  0  0  0  0  0
   10.6606  -15.6381   28.9260 C   0  0  0  0  0  0  0  0  0  0  0  0
   11.0420  -15.0600   29.9614 O   0  0  0  0  0  0  0  0  0  0  0  0
   10.7604  -17.0087   28.8645 O   0  0  0  0  0  0  0  0  0  0  0  0
  2  1  1  0
  3  4  1  6
  3  2  1  0
  5  6  2  0
  5  3  1  0
  7  5  1  0
  8  7  1  0
  8 12  1  0
  8  9  1  6
 10 14  1  0
 10  9  1  0
 11 10  2  0
 12 20  1  0
 13 12  2  0
 15 16  1  0
 16 18  1  0
 17 16  2  0
 19 18  1  1
 20 19  1  0
 21 19  1  0
 21 23  1  0
 22 21  2  0
M  END
$$$$
