SDN.pdb
     RDKit          3D

 23 22  0  0  1  0  0  0  0  0999 V2000
    5.1901  -21.9757   19.3872 O   0  0  0  0  0  0  0  0  0  0  0  0
    6.5629  -21.8298   19.3838 C   0  0  0  0  0  0  0  0  0  0  0  0
    7.0543  -20.9766   20.5388 C   0  0  2  0  0  0  0  0  0  0  0  0
    6.1979  -19.8136   20.6636 N   0  0  0  0  0  0  0  0  0  0  0  0
    8.4386  -20.4867   20.2906 C   0  0  0  0  0  0  0  0  0  0  0  0
    9.1081  -21.1849   19.4842 O   0  0  0  0  0  0  0  0  0  0  0  0
    8.9620  -19.3248   20.9134 N   0  0  0  0  0  0  0  0  0  0  0  0
   10.3610  -18.8946   20.6917 C   0  0  1  0  0  0  0  0  0  0  0  0
   10.3303  -17.6313   19.9348 C   0  0  0  0  0  0  0  0  0  0  0  0
   10.1403  -17.6862   18.4953 C   0  0  0  0  0  0  0  0  0  0  0  0
    9.3410  -18.5419   17.9875 O   0  0  0  0  0  0  0  0  0  0  0  0
   11.1137  -18.9427   21.9416 C   0  0  0  0  0  0  0  0  0  0  0  0
   12.2971  -18.4799   22.0145 O   0  0  0  0  0  0  0  0  0  0  0  0
   10.7730  -16.8594   17.5839 O   0  0  0  0  0  0  0  0  0  0  0  0
   10.7421  -20.7314   27.6712 N   0  0  0  0  0  0  0  0  0  0  0  0
   11.1653  -19.6359   26.8374 C   0  0  0  0  0  0  0  0  0  0  0  0
   12.0795  -18.9151   27.3263 O   0  0  0  0  0  0  0  0  0  0  0  0
   10.5606  -19.3967   25.5180 C   0  0  0  0  0  0  0  0  0  0  0  0
   11.4771  -19.5732   24.3469 C   0  0  2  0  0  0  0  0  0  0  0  0
   10.6073  -19.4903   23.1455 N   0  0  0  0  0  0  0  0  0  0  0  0
   12.0192  -20.9425   24.3391 C   0  0  0  0  0  0  0  0  0  0  0  0
   11.4398  -21.8349   23.6913 O   0  0  0  0  0  0  0  0  0  0  0  0
   13.1600  -21.2709   25.0339 O   0  0  0  0  0  0  0  0  0  0  0  0
  2  1  1  0
  3  4  1  6
  3  2  1  0
  5  6  2  0
  5  3  1  0
  7  5  1  0
  8  7  1  0
  8 12  1  0
  8  9  1  1
 10 14  1  0
 10  9  1  0
 11 10  2  0
 12 20  1  0
 13 12  2  0
 15 16  1  0
 16 18  1  0
 17 16  2  0
 19 18  1  1
 20 19  1  0
 21 19  1  0
 21 23  1  0
 22 21  2  0
M  END
$$$$
