SDN.pdb
     RDKit          3D

 23 22  0  0  1  0  0  0  0  0999 V2000
    7.2800  -12.9690   23.2879 O   0  0  0  0  0  0  0  0  0  0  0  0
    7.8600  -14.1985   23.0480 C   0  0  0  0  0  0  0  0  0  0  0  0
    7.6495  -14.6658   21.6195 C   0  0  2  0  0  0  0  0  0  0  0  0
    6.2487  -14.9873   21.4301 N   0  0  0  0  0  0  0  0  0  0  0  0
    8.4326  -15.9013   21.3400 C   0  0  0  0  0  0  0  0  0  0  0  0
    7.8023  -16.9767   21.5200 O   0  0  0  0  0  0  0  0  0  0  0  0
    9.7822  -15.8695   20.9052 N   0  0  0  0  0  0  0  0  0  0  0  0
   10.5422  -17.1154   20.6570 C   0  0  1  0  0  0  0  0  0  0  0  0
   11.1543  -17.0125   19.3213 C   0  0  0  0  0  0  0  0  0  0  0  0
   11.8879  -18.1540   18.8014 C   0  0  0  0  0  0  0  0  0  0  0  0
   12.2411  -19.0981   19.5841 O   0  0  0  0  0  0  0  0  0  0  0  0
   11.3997  -17.4256   21.7970 C   0  0  0  0  0  0  0  0  0  0  0  0
   12.1172  -18.4767   21.8132 O   0  0  0  0  0  0  0  0  0  0  0  0
   12.2541  -18.3198   17.4774 O   0  0  0  0  0  0  0  0  0  0  0  0
   14.3068  -14.8800   22.1443 N   0  0  0  0  0  0  0  0  0  0  0  0
   14.3940  -15.8634   23.1929 C   0  0  0  0  0  0  0  0  0  0  0  0
   15.3957  -16.6290   23.1247 O   0  0  0  0  0  0  0  0  0  0  0  0
   13.3776  -15.9482   24.2528 C   0  0  0  0  0  0  0  0  0  0  0  0
   12.3606  -17.0347   24.0859 C   0  0  2  0  0  0  0  0  0  0  0  0
   11.5059  -16.6078   22.9485 N   0  0  0  0  0  0  0  0  0  0  0  0
   11.4646  -17.0636   25.2543 C   0  0  0  0  0  0  0  0  0  0  0  0
   10.2694  -16.7364   25.1273 O   0  0  0  0  0  0  0  0  0  0  0  0
   11.9122  -17.4455   26.4978 O   0  0  0  0  0  0  0  0  0  0  0  0
  2  1  1  0
  3  4  1  1
  3  2  1  0
  5  6  2  0
  5  3  1  0
  7  5  1  0
  8  7  1  0
  8 12  1  0
  8  9  1  6
 10 14  1  0
 10  9  1  0
 11 10  2  0
 12 20  1  0
 13 12  2  0
 15 16  1  0
 16 18  1  0
 17 16  2  0
 19 18  1  1
 20 19  1  0
 21 19  1  0
 21 23  1  0
 22 21  2  0
M  END
$$$$
