SDN.pdb
     RDKit          3D

 23 22  0  0  1  0  0  0  0  0999 V2000
    8.0311  -18.2482   11.6040 O   0  0  0  0  0  0  0  0  0  0  0  0
    8.9230  -18.9320   12.4057 C   0  0  0  0  0  0  0  0  0  0  0  0
    9.2100  -18.1989   13.7033 C   0  0  2  0  0  0  0  0  0  0  0  0
    9.6574  -16.8547   13.3965 N   0  0  0  0  0  0  0  0  0  0  0  0
   10.2998  -18.8686   14.4660 C   0  0  0  0  0  0  0  0  0  0  0  0
   10.0034  -20.0049   14.9210 O   0  0  0  0  0  0  0  0  0  0  0  0
   11.5719  -18.2735   14.6644 N   0  0  0  0  0  0  0  0  0  0  0  0
   12.6375  -18.9660   15.4237 C   0  0  1  0  0  0  0  0  0  0  0  0
   13.8974  -18.8119   14.6765 C   0  0  0  0  0  0  0  0  0  0  0  0
   14.0728  -19.5620   13.4444 C   0  0  0  0  0  0  0  0  0  0  0  0
   14.3498  -18.9523   12.3580 O   0  0  0  0  0  0  0  0  0  0  0  0
   12.6042  -18.5682   16.8279 C   0  0  0  0  0  0  0  0  0  0  0  0
   13.0186  -17.4226   17.1965 O   0  0  0  0  0  0  0  0  0  0  0  0
   13.9632  -20.9370   13.3356 O   0  0  0  0  0  0  0  0  0  0  0  0
    8.4904  -19.5674   18.6824 N   0  0  0  0  0  0  0  0  0  0  0  0
    9.5218  -18.7988   19.3304 C   0  0  0  0  0  0  0  0  0  0  0  0
    9.2771  -17.5653   19.4433 O   0  0  0  0  0  0  0  0  0  0  0  0
   10.7592  -19.4290   19.8155 C   0  0  0  0  0  0  0  0  0  0  0  0
   12.0305  -18.8691   19.2559 C   0  0  2  0  0  0  0  0  0  0  0  0
   12.1209  -19.3964   17.8701 N   0  0  0  0  0  0  0  0  0  0  0  0
   13.1849  -19.4453   19.9659 C   0  0  0  0  0  0  0  0  0  0  0  0
   13.8543  -20.3490   19.4300 O   0  0  0  0  0  0  0  0  0  0  0  0
   13.5517  -19.0114   21.2186 O   0  0  0  0  0  0  0  0  0  0  0  0
  2  1  1  0
  3  4  1  6
  3  2  1  0
  5  6  2  0
  5  3  1  0
  7  5  1  0
  8  7  1  0
  8 12  1  0
  8  9  1  6
 10 14  1  0
 10  9  1  0
 11 10  2  0
 12 20  1  0
 13 12  2  0
 15 16  1  0
 16 18  1  0
 17 16  2  0
 19 18  1  1
 20 19  1  0
 21 19  1  0
 21 23  1  0
 22 21  2  0
M  END
$$$$
