SDN.pdb
     RDKit          3D

 23 22  0  0  1  0  0  0  0  0999 V2000
   10.0122  -11.6675   18.8331 O   0  0  0  0  0  0  0  0  0  0  0  0
    9.6242  -12.4911   19.8708 C   0  0  0  0  0  0  0  0  0  0  0  0
    9.0341  -13.7996   19.3777 C   0  0  2  0  0  0  0  0  0  0  0  0
    7.6963  -13.5542   18.8762 N   0  0  0  0  0  0  0  0  0  0  0  0
    8.9205  -14.7866   20.4871 C   0  0  0  0  0  0  0  0  0  0  0  0
    7.8529  -14.7127   21.1511 O   0  0  0  0  0  0  0  0  0  0  0  0
    9.9349  -15.7357   20.7734 N   0  0  0  0  0  0  0  0  0  0  0  0
    9.8090  -16.6815   21.9053 C   0  0  1  0  0  0  0  0  0  0  0  0
   10.3541  -17.9794   21.4719 C   0  0  0  0  0  0  0  0  0  0  0  0
    9.7697  -18.6273   20.3100 C   0  0  0  0  0  0  0  0  0  0  0  0
    8.6908  -19.2990   20.4269 O   0  0  0  0  0  0  0  0  0  0  0  0
   10.3250  -16.0809   23.1318 C   0  0  0  0  0  0  0  0  0  0  0  0
   11.4149  -15.4235   23.1338 O   0  0  0  0  0  0  0  0  0  0  0  0
   10.2975  -18.5805   19.0318 O   0  0  0  0  0  0  0  0  0  0  0  0
    8.5891  -13.2798   28.1880 N   0  0  0  0  0  0  0  0  0  0  0  0
    9.5838  -13.9740   27.4114 C   0  0  0  0  0  0  0  0  0  0  0  0
   10.7445  -13.9743   27.9084 O   0  0  0  0  0  0  0  0  0  0  0  0
    9.2459  -14.6260   26.1369 C   0  0  0  0  0  0  0  0  0  0  0  0
   10.2900  -15.5483   25.5874 C   0  0  2  0  0  0  0  0  0  0  0  0
    9.6766  -16.1732   24.3875 N   0  0  0  0  0  0  0  0  0  0  0  0
   10.5203  -16.6583   26.5275 C   0  0  0  0  0  0  0  0  0  0  0  0
   11.0758  -16.4397   27.6208 O   0  0  0  0  0  0  0  0  0  0  0  0
   10.1362  -17.9457   26.2319 O   0  0  0  0  0  0  0  0  0  0  0  0
  2  1  1  0
  3  4  1  1
  3  2  1  0
  5  6  2  0
  5  3  1  0
  7  5  1  0
  8  7  1  0
  8 12  1  0
  8  9  1  6
 10 14  1  0
 10  9  1  0
 11 10  2  0
 12 20  1  0
 13 12  2  0
 15 16  1  0
 16 18  1  0
 17 16  2  0
 19 18  1  1
 20 19  1  0
 21 19  1  0
 21 23  1  0
 22 21  2  0
M  END
$$$$
