SDN.pdb
     RDKit          3D

 23 22  0  0  1  0  0  0  0  0999 V2000
    7.4502  -13.3255   19.7134 O   0  0  0  0  0  0  0  0  0  0  0  0
    7.1106  -13.7803   20.9717 C   0  0  0  0  0  0  0  0  0  0  0  0
    8.2978  -14.3700   21.7109 C   0  0  2  0  0  0  0  0  0  0  0  0
    8.9256  -15.3715   20.8718 N   0  0  0  0  0  0  0  0  0  0  0  0
    7.8647  -15.0465   22.9649 C   0  0  0  0  0  0  0  0  0  0  0  0
    7.0727  -14.3762   23.6789 O   0  0  0  0  0  0  0  0  0  0  0  0
    8.3091  -16.3438   23.3269 N   0  0  0  0  0  0  0  0  0  0  0  0
    7.9958  -16.9247   24.6521 C   0  0  1  0  0  0  0  0  0  0  0  0
    7.6537  -18.3435   24.4537 C   0  0  0  0  0  0  0  0  0  0  0  0
    7.2478  -19.1299   25.6062 C   0  0  0  0  0  0  0  0  0  0  0  0
    7.1168  -18.5729   26.7469 O   0  0  0  0  0  0  0  0  0  0  0  0
    9.0371  -16.5849   25.6171 C   0  0  0  0  0  0  0  0  0  0  0  0
   10.2695  -16.6600   25.3082 O   0  0  0  0  0  0  0  0  0  0  0  0
    6.9773  -20.4867   25.5797 O   0  0  0  0  0  0  0  0  0  0  0  0
    8.1607  -12.6965   27.7355 N   0  0  0  0  0  0  0  0  0  0  0  0
    9.4013  -13.4196   27.8476 C   0  0  0  0  0  0  0  0  0  0  0  0
   10.3743  -12.9101   27.2246 O   0  0  0  0  0  0  0  0  0  0  0  0
    9.5002  -14.6575   28.6359 C   0  0  0  0  0  0  0  0  0  0  0  0
    9.9009  -15.8800   27.8693 C   0  0  2  0  0  0  0  0  0  0  0  0
    8.7745  -16.1536   26.9403 N   0  0  0  0  0  0  0  0  0  0  0  0
    9.9491  -17.0422   28.7725 C   0  0  0  0  0  0  0  0  0  0  0  0
   10.7247  -17.0379   29.7473 O   0  0  0  0  0  0  0  0  0  0  0  0
    9.1542  -18.1465   28.5707 O   0  0  0  0  0  0  0  0  0  0  0  0
  2  1  1  0
  3  4  1  6
  3  2  1  0
  5  6  2  0
  5  3  1  0
  7  5  1  0
  8  7  1  0
  8 12  1  0
  8  9  1  6
 10 14  1  0
 10  9  1  0
 11 10  2  0
 12 20  1  0
 13 12  2  0
 15 16  1  0
 16 18  1  0
 17 16  2  0
 19 18  1  1
 20 19  1  0
 21 19  1  0
 21 23  1  0
 22 21  2  0
M  END
$$$$
