GQM.pdb
     RDKit          3D

 22 21  0  0  1  0  0  0  0  0999 V2000
   26.2753  -24.4191  -15.6707 N   0  0  0  0  0  0  0  0  0  0  0  0
   25.7100  -23.1487  -16.0131 C   0  0  0  0  0  0  0  0  0  0  0  0
   24.5082  -22.9201  -15.1674 C   0  0  0  0  0  0  0  0  0  0  0  0
   24.2033  -23.7153  -14.2423 O   0  0  0  0  0  0  0  0  0  0  0  0
   21.0790  -17.4172  -14.0464 N   0  0  0  0  0  0  0  0  0  0  0  0
   20.3561  -18.5019  -13.4828 C   0  0  0  0  0  0  0  0  0  0  0  0
   19.3110  -18.2160  -12.8636 O   0  0  0  0  0  0  0  0  0  0  0  0
   20.8216  -19.8560  -13.6334 C   0  0  0  0  0  0  0  0  0  0  0  0
   22.0252  -20.1655  -14.3977 C   0  0  0  0  0  0  0  0  0  0  0  0
   22.4834  -21.5602  -14.5750 C   0  0  2  0  0  0  0  0  0  0  0  0
   23.6455  -21.7806  -15.3726 N   0  0  0  0  0  0  0  0  0  0  0  0
   21.3952  -22.5213  -14.8451 C   0  0  0  0  0  0  0  0  0  0  0  0
   20.8734  -22.5600  -15.9634 O   0  0  0  0  0  0  0  0  0  0  0  0
   20.4569  -27.0177  -10.3575 C   0  0  0  0  0  0  0  0  0  0  0  0
   19.3066  -27.6889  -11.5826 S   0  0  0  0  0  0  0  0  0  0  0  0
   19.1349  -26.5542  -12.9865 C   0  0  0  0  0  0  0  0  0  0  0  0
   20.1387  -25.4334  -12.9039 C   0  0  0  0  0  0  0  0  0  0  0  0
   19.9652  -24.4153  -14.0063 C   0  0  2  0  0  0  0  0  0  0  0  0
   20.9643  -23.3827  -13.8283 N   0  0  0  0  0  0  0  0  0  0  0  0
   18.5876  -23.8669  -13.9183 C   0  0  0  0  0  0  0  0  0  0  0  0
   18.4208  -22.7922  -13.2912 O   0  0  0  0  0  0  0  0  0  0  0  0
   17.5014  -24.4822  -14.4891 O   0  0  0  0  0  0  0  0  0  0  0  0
  2  1  1  0
  3  2  1  0
  3 11  1  0
  4  3  2  0
  5  6  1  0
  6  7  2  0
  6  8  1  0
  8  9  1  0
 10  9  1  6
 10 12  1  0
 11 10  1  0
 12 13  2  0
 12 19  1  0
 15 14  1  0
 16 15  1  0
 17 16  1  0
 18 17  1  1
 18 20  1  0
 19 18  1  0
 20 22  1  0
 21 20  2  0
M  END
$$$$
