GQM.pdb
     RDKit          3D

 22 21  0  0  1  0  0  0  0  0999 V2000
   15.8774  -12.8370  -14.2412 N   0  0  0  0  0  0  0  0  0  0  0  0
   15.9033  -11.7845  -15.2119 C   0  0  0  0  0  0  0  0  0  0  0  0
   17.2882  -11.2488  -15.2948 C   0  0  0  0  0  0  0  0  0  0  0  0
   17.8944  -10.8515  -14.2672 O   0  0  0  0  0  0  0  0  0  0  0  0
   22.1209  -12.7494  -19.3116 N   0  0  0  0  0  0  0  0  0  0  0  0
   21.1963  -13.4777  -18.5169 C   0  0  0  0  0  0  0  0  0  0  0  0
   21.2308  -14.7212  -18.6168 O   0  0  0  0  0  0  0  0  0  0  0  0
   20.2766  -12.7958  -17.6440 C   0  0  0  0  0  0  0  0  0  0  0  0
   20.2693  -11.3410  -17.5343 C   0  0  0  0  0  0  0  0  0  0  0  0
   19.3169  -10.6440  -16.6435 C   0  0  2  0  0  0  0  0  0  0  0  0
   17.9912  -11.1632  -16.5531 N   0  0  0  0  0  0  0  0  0  0  0  0
   19.3648   -9.1715  -16.7454 C   0  0  0  0  0  0  0  0  0  0  0  0
   18.4769   -8.5689  -17.3563 O   0  0  0  0  0  0  0  0  0  0  0  0
   22.6874   -2.8712  -13.2871 C   0  0  0  0  0  0  0  0  0  0  0  0
   22.4994   -4.6675  -13.3985 S   0  0  0  0  0  0  0  0  0  0  0  0
   21.5142   -5.1176  -14.8527 C   0  0  0  0  0  0  0  0  0  0  0  0
   21.3113   -6.6087  -14.9301 C   0  0  0  0  0  0  0  0  0  0  0  0
   20.5514   -7.0286  -16.1663 C   0  0  2  0  0  0  0  0  0  0  0  0
   20.4189   -8.4701  -16.1467 N   0  0  0  0  0  0  0  0  0  0  0  0
   21.3086   -6.5632  -17.3564 C   0  0  0  0  0  0  0  0  0  0  0  0
   21.1011   -5.3948  -17.7662 O   0  0  0  0  0  0  0  0  0  0  0  0
   22.2163   -7.3516  -18.0187 O   0  0  0  0  0  0  0  0  0  0  0  0
  2  1  1  0
  3  2  1  0
  3 11  1  0
  4  3  2  0
  5  6  1  0
  6  7  2  0
  6  8  1  0
  8  9  1  0
 10  9  1  6
 10 12  1  0
 11 10  1  0
 12 13  2  0
 12 19  1  0
 15 14  1  0
 16 15  1  0
 17 16  1  0
 18 17  1  1
 18 20  1  0
 19 18  1  0
 20 22  1  0
 21 20  2  0
M  END
$$$$
