GQM.pdb
     RDKit          3D

 22 21  0  0  1  0  0  0  0  0999 V2000
   20.6364  -13.1435  -16.6551 N   0  0  0  0  0  0  0  0  0  0  0  0
   19.3015  -12.6250  -16.6575 C   0  0  0  0  0  0  0  0  0  0  0  0
   19.3684  -11.1408  -16.5915 C   0  0  0  0  0  0  0  0  0  0  0  0
   20.0693  -10.4846  -17.4035 O   0  0  0  0  0  0  0  0  0  0  0  0
   16.0502   -6.6602  -17.1762 N   0  0  0  0  0  0  0  0  0  0  0  0
   16.6686   -6.0389  -16.0588 C   0  0  0  0  0  0  0  0  0  0  0  0
   16.5897   -4.7951  -15.9958 O   0  0  0  0  0  0  0  0  0  0  0  0
   17.3443   -6.8241  -15.0588 C   0  0  0  0  0  0  0  0  0  0  0  0
   17.4070   -8.2789  -15.1489 C   0  0  0  0  0  0  0  0  0  0  0  0
   18.6487   -8.9689  -15.5595 C   0  0  2  0  0  0  0  0  0  0  0  0
   18.6343  -10.3949  -15.5966 N   0  0  0  0  0  0  0  0  0  0  0  0
   19.8753   -8.4098  -14.9564 C   0  0  0  0  0  0  0  0  0  0  0  0
   20.1399   -8.6443  -13.7734 O   0  0  0  0  0  0  0  0  0  0  0  0
   24.4024   -5.5022  -18.8120 C   0  0  0  0  0  0  0  0  0  0  0  0
   25.3286   -6.0065  -17.3415 S   0  0  0  0  0  0  0  0  0  0  0  0
   24.2137   -6.2256  -15.9284 C   0  0  0  0  0  0  0  0  0  0  0  0
   22.9250   -6.8824  -16.3510 C   0  0  0  0  0  0  0  0  0  0  0  0
   21.9192   -6.9660  -15.2270 C   0  0  2  0  0  0  0  0  0  0  0  0
   20.7296   -7.6174  -15.7334 N   0  0  0  0  0  0  0  0  0  0  0  0
   21.6319   -5.5861  -14.7584 C   0  0  0  0  0  0  0  0  0  0  0  0
   20.6930   -4.9608  -15.3094 O   0  0  0  0  0  0  0  0  0  0  0  0
   22.3449   -4.9740  -13.7577 O   0  0  0  0  0  0  0  0  0  0  0  0
  2  1  1  0
  3  2  1  0
  3 11  1  0
  4  3  2  0
  5  6  1  0
  6  7  2  0
  6  8  1  0
  8  9  1  0
 10  9  1  1
 10 12  1  0
 11 10  1  0
 12 13  2  0
 12 19  1  0
 15 14  1  0
 16 15  1  0
 17 16  1  0
 18 17  1  6
 18 20  1  0
 19 18  1  0
 20 22  1  0
 21 20  2  0
M  END
$$$$
