GQM.pdb
     RDKit          3D

 22 21  0  0  1  0  0  0  0  0999 V2000
   22.0730  -12.4955  -18.5274 N   0  0  0  0  0  0  0  0  0  0  0  0
   21.0755  -12.4158  -17.5029 C   0  0  0  0  0  0  0  0  0  0  0  0
   20.7724  -10.9828  -17.2457 C   0  0  0  0  0  0  0  0  0  0  0  0
   21.1749  -10.0827  -18.0261 O   0  0  0  0  0  0  0  0  0  0  0  0
   15.7477   -8.9267  -13.8760 N   0  0  0  0  0  0  0  0  0  0  0  0
   15.9123   -9.8017  -14.9825 C   0  0  0  0  0  0  0  0  0  0  0  0
   14.9466  -10.5426  -15.2581 O   0  0  0  0  0  0  0  0  0  0  0  0
   17.1386   -9.8145  -15.7367 C   0  0  0  0  0  0  0  0  0  0  0  0
   18.2581   -8.9486  -15.3822 C   0  0  0  0  0  0  0  0  0  0  0  0
   19.6206   -9.2085  -15.8946 C   0  0  2  0  0  0  0  0  0  0  0  0
   20.0065  -10.5673  -16.0943 N   0  0  0  0  0  0  0  0  0  0  0  0
   20.6700   -8.3881  -15.2569 C   0  0  0  0  0  0  0  0  0  0  0  0
   21.2804   -8.8252  -14.2767 O   0  0  0  0  0  0  0  0  0  0  0  0
   22.0141   -2.1735  -17.5122 C   0  0  0  0  0  0  0  0  0  0  0  0
   23.5923   -2.8786  -16.9769 S   0  0  0  0  0  0  0  0  0  0  0  0
   23.3232   -4.1981  -15.7627 C   0  0  0  0  0  0  0  0  0  0  0  0
   22.2186   -5.1236  -16.2032 C   0  0  0  0  0  0  0  0  0  0  0  0
   21.9386   -6.2150  -15.1970 C   0  0  2  0  0  0  0  0  0  0  0  0
   20.9644   -7.1190  -15.7710 N   0  0  0  0  0  0  0  0  0  0  0  0
   21.4321   -5.5801  -13.9533 C   0  0  0  0  0  0  0  0  0  0  0  0
   20.2079   -5.3099  -13.8869 O   0  0  0  0  0  0  0  0  0  0  0  0
   22.2409   -5.2802  -12.8855 O   0  0  0  0  0  0  0  0  0  0  0  0
  2  1  1  0
  3  2  1  0
  3 11  1  0
  4  3  2  0
  5  6  1  0
  6  7  2  0
  6  8  1  0
  8  9  1  0
 10  9  1  1
 10 12  1  0
 11 10  1  0
 12 13  2  0
 12 19  1  0
 15 14  1  0
 16 15  1  0
 17 16  1  0
 18 17  1  6
 18 20  1  0
 19 18  1  0
 20 22  1  0
 21 20  2  0
M  END
$$$$
