GQM.pdb
     RDKit          3D

 22 21  0  0  1  0  0  0  0  0999 V2000
   28.6760  -17.9597  -16.2468 N   0  0  0  0  0  0  0  0  0  0  0  0
   28.2620  -19.2354  -15.7449 C   0  0  0  0  0  0  0  0  0  0  0  0
   27.5986  -19.0356  -14.4290 C   0  0  0  0  0  0  0  0  0  0  0  0
   28.0858  -18.2616  -13.5660 O   0  0  0  0  0  0  0  0  0  0  0  0
   21.8653  -20.4200  -11.4202 N   0  0  0  0  0  0  0  0  0  0  0  0
   22.5438  -20.9533  -12.5482 C   0  0  0  0  0  0  0  0  0  0  0  0
   22.4766  -22.1890  -12.7086 O   0  0  0  0  0  0  0  0  0  0  0  0
   23.2641  -20.0929  -13.4504 C   0  0  0  0  0  0  0  0  0  0  0  0
   24.2382  -19.1232  -12.9611 C   0  0  0  0  0  0  0  0  0  0  0  0
   25.6756  -19.4584  -12.8722 C   0  0  2  0  0  0  0  0  0  0  0  0
   26.3728  -19.7189  -14.0893 N   0  0  0  0  0  0  0  0  0  0  0  0
   26.0061  -20.4090  -11.7915 C   0  0  0  0  0  0  0  0  0  0  0  0
   26.1323  -21.6103  -12.0475 O   0  0  0  0  0  0  0  0  0  0  0  0
   27.8768  -18.0029   -6.0626 C   0  0  0  0  0  0  0  0  0  0  0  0
   28.1802  -19.7621   -5.7664 S   0  0  0  0  0  0  0  0  0  0  0  0
   27.3348  -20.7743   -7.0108 C   0  0  0  0  0  0  0  0  0  0  0  0
   27.1592  -20.0144   -8.3001 C   0  0  0  0  0  0  0  0  0  0  0  0
   26.3763  -20.7923   -9.3315 C   0  0  2  0  0  0  0  0  0  0  0  0
   26.1742  -19.9385  -10.4831 N   0  0  0  0  0  0  0  0  0  0  0  0
   25.0866  -21.2043   -8.7207 C   0  0  0  0  0  0  0  0  0  0  0  0
   24.0800  -20.4833   -8.9284 O   0  0  0  0  0  0  0  0  0  0  0  0
   24.9532  -22.3300   -7.9465 O   0  0  0  0  0  0  0  0  0  0  0  0
  2  1  1  0
  3  2  1  0
  3 11  1  0
  4  3  2  0
  5  6  1  0
  6  7  2  0
  6  8  1  0
  8  9  1  0
 10  9  1  6
 10 12  1  0
 11 10  1  0
 12 13  2  0
 12 19  1  0
 15 14  1  0
 16 15  1  0
 17 16  1  0
 18 17  1  1
 18 20  1  0
 19 18  1  0
 20 22  1  0
 21 20  2  0
M  END
$$$$
