GQM.pdb
     RDKit          3D

 22 21  0  0  1  0  0  0  0  0999 V2000
   15.4674  -20.7771    0.9297 N   0  0  0  0  0  0  0  0  0  0  0  0
   14.6270  -19.9096    1.6990 C   0  0  0  0  0  0  0  0  0  0  0  0
   15.4857  -19.0786    2.5842 C   0  0  0  0  0  0  0  0  0  0  0  0
   16.7286  -19.2609    2.6422 O   0  0  0  0  0  0  0  0  0  0  0  0
   17.0823  -14.0811    2.8837 N   0  0  0  0  0  0  0  0  0  0  0  0
   17.0740  -14.0038    4.3018 C   0  0  0  0  0  0  0  0  0  0  0  0
   17.8706  -13.1966    4.8226 O   0  0  0  0  0  0  0  0  0  0  0  0
   16.1808  -14.8222    5.0799 C   0  0  0  0  0  0  0  0  0  0  0  0
   15.3057  -15.8043    4.4489 C   0  0  0  0  0  0  0  0  0  0  0  0
   15.7522  -17.1956    4.2225 C   0  0  2  0  0  0  0  0  0  0  0  0
   14.9305  -18.0325    3.4102 N   0  0  0  0  0  0  0  0  0  0  0  0
   16.2594  -17.8697    5.4346 C   0  0  0  0  0  0  0  0  0  0  0  0
   15.4946  -18.5509    6.1241 O   0  0  0  0  0  0  0  0  0  0  0  0
   22.9229  -20.3331    8.8933 C   0  0  0  0  0  0  0  0  0  0  0  0
   22.0873  -19.5800    7.4759 S   0  0  0  0  0  0  0  0  0  0  0  0
   20.3610  -19.1999    7.8802 C   0  0  0  0  0  0  0  0  0  0  0  0
   19.6287  -18.6606    6.6788 C   0  0  0  0  0  0  0  0  0  0  0  0
   18.1943  -18.2998    6.9860 C   0  0  2  0  0  0  0  0  0  0  0  0
   17.6065  -17.7303    5.7918 N   0  0  0  0  0  0  0  0  0  0  0  0
   18.1908  -17.3333    8.1139 C   0  0  0  0  0  0  0  0  0  0  0  0
   18.2272  -16.1086    7.8397 O   0  0  0  0  0  0  0  0  0  0  0  0
   18.1500  -17.7219    9.4298 O   0  0  0  0  0  0  0  0  0  0  0  0
  2  1  1  0
  3  2  1  0
  3 11  1  0
  4  3  2  0
  5  6  1  0
  6  7  2  0
  6  8  1  0
  8  9  1  0
 10  9  1  1
 10 12  1  0
 11 10  1  0
 12 13  2  0
 12 19  1  0
 15 14  1  0
 16 15  1  0
 17 16  1  0
 18 17  1  6
 18 20  1  0
 19 18  1  0
 20 22  1  0
 21 20  2  0
M  END
$$$$
