GQM.pdb
     RDKit          3D

 22 21  0  0  1  0  0  0  0  0999 V2000
   13.3150   -9.4255   -8.4438 N   0  0  0  0  0  0  0  0  0  0  0  0
   13.6726   -8.2759   -9.2193 C   0  0  0  0  0  0  0  0  0  0  0  0
   14.9667   -8.5462   -9.9003 C   0  0  0  0  0  0  0  0  0  0  0  0
   15.7290   -9.4657   -9.5070 O   0  0  0  0  0  0  0  0  0  0  0  0
   16.1175  -11.0018  -15.5097 N   0  0  0  0  0  0  0  0  0  0  0  0
   15.4823   -9.8397  -14.9968 C   0  0  0  0  0  0  0  0  0  0  0  0
   14.8254   -9.1568  -15.8089 O   0  0  0  0  0  0  0  0  0  0  0  0
   15.6005   -9.4877  -13.6057 C   0  0  0  0  0  0  0  0  0  0  0  0
   16.5048   -8.4319  -13.1629 C   0  0  0  0  0  0  0  0  0  0  0  0
   16.6084   -8.0597  -11.7356 C   0  0  2  0  0  0  0  0  0  0  0  0
   15.3997   -7.7675  -11.0366 N   0  0  0  0  0  0  0  0  0  0  0  0
   17.7019   -7.1127  -11.4385 C   0  0  0  0  0  0  0  0  0  0  0  0
   17.4412   -5.9310  -11.1933 O   0  0  0  0  0  0  0  0  0  0  0  0
   24.3279   -6.1324   -7.6273 C   0  0  0  0  0  0  0  0  0  0  0  0
   22.9471   -7.1813   -8.1448 S   0  0  0  0  0  0  0  0  0  0  0  0
   22.0951   -6.4572   -9.5722 C   0  0  0  0  0  0  0  0  0  0  0  0
   20.8989   -7.2842   -9.9668 C   0  0  0  0  0  0  0  0  0  0  0  0
   20.1735   -6.7219  -11.1666 C   0  0  2  0  0  0  0  0  0  0  0  0
   19.0276   -7.5644  -11.4370 N   0  0  0  0  0  0  0  0  0  0  0  0
   21.1197   -6.6985  -12.3114 C   0  0  0  0  0  0  0  0  0  0  0  0
   21.1289   -7.6852  -13.0876 O   0  0  0  0  0  0  0  0  0  0  0  0
   21.9751   -5.6522  -12.5515 O   0  0  0  0  0  0  0  0  0  0  0  0
  2  1  1  0
  3  2  1  0
  3 11  1  0
  4  3  2  0
  5  6  1  0
  6  7  2  0
  6  8  1  0
  8  9  1  0
 10  9  1  6
 10 12  1  0
 11 10  1  0
 12 13  2  0
 12 19  1  0
 15 14  1  0
 16 15  1  0
 17 16  1  0
 18 17  1  1
 18 20  1  0
 19 18  1  0
 20 22  1  0
 21 20  2  0
M  END
$$$$
