GQM.pdb
     RDKit          3D

 22 21  0  0  1  0  0  0  0  0999 V2000
   20.8041  -15.7418  -17.8537 N   0  0  0  0  0  0  0  0  0  0  0  0
   19.8075  -14.8773  -17.2967 C   0  0  0  0  0  0  0  0  0  0  0  0
   20.1724  -13.4696  -17.6077 C   0  0  0  0  0  0  0  0  0  0  0  0
   20.8191  -13.1797  -18.6465 O   0  0  0  0  0  0  0  0  0  0  0  0
   17.8258   -7.4260  -16.7186 N   0  0  0  0  0  0  0  0  0  0  0  0
   17.5417   -8.4565  -15.7835 C   0  0  0  0  0  0  0  0  0  0  0  0
   16.8381   -8.1426  -14.8019 O   0  0  0  0  0  0  0  0  0  0  0  0
   18.0472   -9.7903  -15.9796 C   0  0  0  0  0  0  0  0  0  0  0  0
   18.7971  -10.1505  -17.1782 C   0  0  0  0  0  0  0  0  0  0  0  0
   19.9926  -11.0174  -17.1030 C   0  0  2  0  0  0  0  0  0  0  0  0
   19.8008  -12.3820  -16.7337 N   0  0  0  0  0  0  0  0  0  0  0  0
   21.1520  -10.3874  -16.4398 C   0  0  0  0  0  0  0  0  0  0  0  0
   21.2676  -10.4526  -15.2122 O   0  0  0  0  0  0  0  0  0  0  0  0
   28.5895   -8.1505  -17.6159 C   0  0  0  0  0  0  0  0  0  0  0  0
   27.0308   -8.7528  -18.3104 S   0  0  0  0  0  0  0  0  0  0  0  0
   25.6797   -8.5493  -17.1184 C   0  0  0  0  0  0  0  0  0  0  0  0
   24.4042   -9.1639  -17.6341 C   0  0  0  0  0  0  0  0  0  0  0  0
   23.2572   -9.0254  -16.6610 C   0  0  2  0  0  0  0  0  0  0  0  0
   22.1123   -9.7205  -17.2108 N   0  0  0  0  0  0  0  0  0  0  0  0
   22.9817   -7.5781  -16.4720 C   0  0  0  0  0  0  0  0  0  0  0  0
   22.2541   -7.0021  -17.3176 O   0  0  0  0  0  0  0  0  0  0  0  0
   23.4858   -6.8533  -15.4209 O   0  0  0  0  0  0  0  0  0  0  0  0
  2  1  1  0
  3  2  1  0
  3 11  1  0
  4  3  2  0
  5  6  1  0
  6  7  2  0
  6  8  1  0
  8  9  1  0
 10  9  1  1
 10 12  1  0
 11 10  1  0
 12 13  2  0
 12 19  1  0
 15 14  1  0
 16 15  1  0
 17 16  1  0
 18 17  1  6
 18 20  1  0
 19 18  1  0
 20 22  1  0
 21 20  2  0
M  END
$$$$
