GQM.pdb
     RDKit          3D

 22 21  0  0  1  0  0  0  0  0999 V2000
   26.9006  -36.9732  -14.7039 N   0  0  0  0  0  0  0  0  0  0  0  0
   25.5275  -36.7948  -14.3383 C   0  0  0  0  0  0  0  0  0  0  0  0
   25.4646  -35.9056  -13.1480 C   0  0  0  0  0  0  0  0  0  0  0  0
   26.5113  -35.4505  -12.6202 O   0  0  0  0  0  0  0  0  0  0  0  0
   21.1967  -33.8493   -9.2124 N   0  0  0  0  0  0  0  0  0  0  0  0
   22.0738  -32.7343   -9.2803 C   0  0  0  0  0  0  0  0  0  0  0  0
   21.9561  -31.8746   -8.3835 O   0  0  0  0  0  0  0  0  0  0  0  0
   23.0450  -32.6232  -10.3374 C   0  0  0  0  0  0  0  0  0  0  0  0
   23.1135  -33.6064  -11.4132 C   0  0  0  0  0  0  0  0  0  0  0  0
   24.1343  -34.6761  -11.4104 C   0  0  2  0  0  0  0  0  0  0  0  0
   24.2046  -35.5294  -12.5516 N   0  0  0  0  0  0  0  0  0  0  0  0
   24.2431  -35.4007  -10.1283 C   0  0  0  0  0  0  0  0  0  0  0  0
   23.5790  -36.4251   -9.9434 O   0  0  0  0  0  0  0  0  0  0  0  0
   28.1435  -32.8003   -5.7024 C   0  0  0  0  0  0  0  0  0  0  0  0
   27.8452  -34.3577   -4.8308 S   0  0  0  0  0  0  0  0  0  0  0  0
   26.7305  -35.4213   -5.7869 C   0  0  0  0  0  0  0  0  0  0  0  0
   26.3044  -34.7492   -7.0664 C   0  0  0  0  0  0  0  0  0  0  0  0
   25.3372  -35.5873   -7.8691 C   0  0  2  0  0  0  0  0  0  0  0  0
   25.1008  -34.9189   -9.1315 N   0  0  0  0  0  0  0  0  0  0  0  0
   24.0858  -35.7324   -7.0823 C   0  0  0  0  0  0  0  0  0  0  0  0
   23.1867  -34.8709   -7.2421 O   0  0  0  0  0  0  0  0  0  0  0  0
   23.8759  -36.7601   -6.1967 O   0  0  0  0  0  0  0  0  0  0  0  0
  2  1  1  0
  3  2  1  0
  3 11  1  0
  4  3  2  0
  5  6  1  0
  6  7  2  0
  6  8  1  0
  8  9  1  0
 10  9  1  1
 10 12  1  0
 11 10  1  0
 12 13  2  0
 12 19  1  0
 15 14  1  0
 16 15  1  0
 17 16  1  0
 18 17  1  1
 18 20  1  0
 19 18  1  0
 20 22  1  0
 21 20  2  0
M  END
$$$$
