GQM.pdb
     RDKit          3D

 22 21  0  0  1  0  0  0  0  0999 V2000
   16.5420  -19.5987    2.1457 N   0  0  0  0  0  0  0  0  0  0  0  0
   16.0278  -18.7443    3.1736 C   0  0  0  0  0  0  0  0  0  0  0  0
   17.1571  -17.9756    3.7612 C   0  0  0  0  0  0  0  0  0  0  0  0
   18.3444  -18.1912    3.4074 O   0  0  0  0  0  0  0  0  0  0  0  0
   17.6345  -11.8612    5.6685 N   0  0  0  0  0  0  0  0  0  0  0  0
   16.9361  -12.5767    4.6599 C   0  0  0  0  0  0  0  0  0  0  0  0
   16.2256  -11.9029    3.8863 O   0  0  0  0  0  0  0  0  0  0  0  0
   17.0589  -14.0071    4.5511 C   0  0  0  0  0  0  0  0  0  0  0  0
   17.8889  -14.7713    5.4761 C   0  0  0  0  0  0  0  0  0  0  0  0
   18.0181  -16.2395    5.3564 C   0  0  2  0  0  0  0  0  0  0  0  0
   16.9382  -16.9542    4.7580 N   0  0  0  0  0  0  0  0  0  0  0  0
   18.5593  -16.8963    6.5633 C   0  0  0  0  0  0  0  0  0  0  0  0
   17.9051  -17.7779    7.1284 O   0  0  0  0  0  0  0  0  0  0  0  0
   25.2445  -17.5198   10.8169 C   0  0  0  0  0  0  0  0  0  0  0  0
   24.3796  -16.8682    9.3672 S   0  0  0  0  0  0  0  0  0  0  0  0
   22.6127  -17.2684    9.4442 C   0  0  0  0  0  0  0  0  0  0  0  0
   21.8977  -16.8091    8.1999 C   0  0  0  0  0  0  0  0  0  0  0  0
   20.4067  -17.0418    8.2667 C   0  0  2  0  0  0  0  0  0  0  0  0
   19.8126  -16.5130    7.0570 N   0  0  0  0  0  0  0  0  0  0  0  0
   19.8848  -16.3590    9.4782 C   0  0  0  0  0  0  0  0  0  0  0  0
   19.5342  -15.1582    9.3721 O   0  0  0  0  0  0  0  0  0  0  0  0
   19.7720  -16.9823   10.6960 O   0  0  0  0  0  0  0  0  0  0  0  0
  2  1  1  0
  3  2  1  0
  3 11  1  0
  4  3  2  0
  5  6  1  0
  6  7  2  0
  6  8  1  0
  8  9  1  0
 10  9  1  1
 10 12  1  0
 11 10  1  0
 12 13  2  0
 12 19  1  0
 15 14  1  0
 16 15  1  0
 17 16  1  0
 18 17  1  6
 18 20  1  0
 19 18  1  0
 20 22  1  0
 21 20  2  0
M  END
$$$$
