GQM.pdb
     RDKit          3D

 22 21  0  0  1  0  0  0  0  0999 V2000
   16.4240   -7.9684   -8.9986 N   0  0  0  0  0  0  0  0  0  0  0  0
   16.3640   -7.0330  -10.0813 C   0  0  0  0  0  0  0  0  0  0  0  0
   17.0024   -7.6473  -11.2756 C   0  0  0  0  0  0  0  0  0  0  0  0
   17.2684   -8.8759  -11.3113 O   0  0  0  0  0  0  0  0  0  0  0  0
   16.5949  -10.1792  -15.2938 N   0  0  0  0  0  0  0  0  0  0  0  0
   15.5445   -9.2244  -15.2478 C   0  0  0  0  0  0  0  0  0  0  0  0
   14.3880   -9.6558  -15.4314 O   0  0  0  0  0  0  0  0  0  0  0  0
   15.8221   -7.8340  -14.9970 C   0  0  0  0  0  0  0  0  0  0  0  0
   17.1901   -7.3421  -14.8742 C   0  0  0  0  0  0  0  0  0  0  0  0
   17.9311   -7.4471  -13.5990 C   0  0  2  0  0  0  0  0  0  0  0  0
   17.3419   -6.8621  -12.4389 N   0  0  0  0  0  0  0  0  0  0  0  0
   19.3784   -7.1800  -13.7202 C   0  0  0  0  0  0  0  0  0  0  0  0
   19.8396   -6.1045  -13.3264 O   0  0  0  0  0  0  0  0  0  0  0  0
   26.2628  -10.8466  -15.1300 C   0  0  0  0  0  0  0  0  0  0  0  0
   24.4545  -10.9140  -15.1281 S   0  0  0  0  0  0  0  0  0  0  0  0
   23.7540   -9.2624  -14.8646 C   0  0  0  0  0  0  0  0  0  0  0  0
   22.2512   -9.3193  -14.7706 C   0  0  0  0  0  0  0  0  0  0  0  0
   21.6328   -7.9642  -14.5194 C   0  0  2  0  0  0  0  0  0  0  0  0
   20.2170   -8.1513  -14.2815 N   0  0  0  0  0  0  0  0  0  0  0  0
   21.8811   -7.1131  -15.7112 C   0  0  0  0  0  0  0  0  0  0  0  0
   21.0916   -7.2149  -16.6820 O   0  0  0  0  0  0  0  0  0  0  0  0
   22.9285   -6.2295  -15.7922 O   0  0  0  0  0  0  0  0  0  0  0  0
  2  1  1  0
  3  2  1  0
  3 11  1  0
  4  3  2  0
  5  6  1  0
  6  7  2  0
  6  8  1  0
  8  9  1  0
 10  9  1  6
 10 12  1  0
 11 10  1  0
 12 13  2  0
 12 19  1  0
 15 14  1  0
 16 15  1  0
 17 16  1  0
 18 17  1  6
 18 20  1  0
 19 18  1  0
 20 22  1  0
 21 20  2  0
M  END
$$$$
