GQM.pdb
     RDKit          3D

 22 21  0  0  1  0  0  0  0  0999 V2000
   29.4913  -22.3511  -15.0831 N   0  0  0  0  0  0  0  0  0  0  0  0
   28.4328  -21.5623  -15.6382 C   0  0  0  0  0  0  0  0  0  0  0  0
   27.6228  -21.0025  -14.5237 C   0  0  0  0  0  0  0  0  0  0  0  0
   28.1683  -20.4179  -13.5532 O   0  0  0  0  0  0  0  0  0  0  0  0
   21.4661  -21.3669  -13.3262 N   0  0  0  0  0  0  0  0  0  0  0  0
   21.8312  -20.1914  -12.6178 C   0  0  0  0  0  0  0  0  0  0  0  0
   21.0061  -19.7602  -11.7868 O   0  0  0  0  0  0  0  0  0  0  0  0
   23.0962  -19.5477  -12.8593 C   0  0  0  0  0  0  0  0  0  0  0  0
   24.0254  -20.0507  -13.8653 C   0  0  0  0  0  0  0  0  0  0  0  0
   25.3906  -20.4848  -13.4992 C   0  0  2  0  0  0  0  0  0  0  0  0
   26.1827  -21.1065  -14.5098 N   0  0  0  0  0  0  0  0  0  0  0  0
   25.4764  -21.1596  -12.1885 C   0  0  0  0  0  0  0  0  0  0  0  0
   25.3372  -22.3844  -12.1180 O   0  0  0  0  0  0  0  0  0  0  0  0
   28.9413  -18.7884   -7.2450 C   0  0  0  0  0  0  0  0  0  0  0  0
   27.4785  -19.3382   -6.3327 S   0  0  0  0  0  0  0  0  0  0  0  0
   26.4664  -20.4426   -7.3544 C   0  0  0  0  0  0  0  0  0  0  0  0
   26.4872  -20.0155   -8.7993 C   0  0  0  0  0  0  0  0  0  0  0  0
   25.6907  -20.9395   -9.6902 C   0  0  2  0  0  0  0  0  0  0  0  0
   25.7157  -20.4028  -11.0346 N   0  0  0  0  0  0  0  0  0  0  0  0
   24.3068  -21.0188   -9.1567 C   0  0  0  0  0  0  0  0  0  0  0  0
   23.4253  -20.3080   -9.6988 O   0  0  0  0  0  0  0  0  0  0  0  0
   23.9573  -21.8297   -8.1057 O   0  0  0  0  0  0  0  0  0  0  0  0
  2  1  1  0
  3  2  1  0
  3 11  1  0
  4  3  2  0
  5  6  1  0
  6  7  2  0
  6  8  1  0
  8  9  1  0
 10  9  1  6
 10 12  1  0
 11 10  1  0
 12 13  2  0
 12 19  1  0
 15 14  1  0
 16 15  1  0
 17 16  1  0
 18 17  1  1
 18 20  1  0
 19 18  1  0
 20 22  1  0
 21 20  2  0
M  END
$$$$
