IKA.pdb
     RDKit          3D

 23 22  0  0  1  0  0  0  0  0999 V2000
   28.5788  -19.6269  -20.5839 C   0  0  0  0  0  0  0  0  0  0  0  0
   27.9673  -18.7859  -19.4888 C   0  0  0  0  0  0  0  0  0  0  0  0
   27.1468  -19.5984  -18.5286 C   0  0  2  0  0  0  0  0  0  0  0  0
   26.1181  -20.4369  -19.2773 C   0  0  0  0  0  0  0  0  0  0  0  0
   26.4744  -18.7561  -17.4672 C   0  0  2  0  0  0  0  0  0  0  0  0
   27.5963  -18.1585  -16.6791 N   0  0  0  0  0  0  0  0  0  0  0  0
   25.6759  -19.4856  -16.4909 C   0  0  0  0  0  0  0  0  0  0  0  0
   24.5811  -20.0489  -16.8638 O   0  0  0  0  0  0  0  0  0  0  0  0
   25.9602  -19.6706  -15.1033 N   0  0  0  0  0  0  0  0  0  0  0  0
   25.0880  -20.1890  -14.1105 C   0  0  1  0  0  0  0  0  0  0  0  0
   25.5922  -20.2028  -12.7027 C   0  0  0  0  0  0  0  0  0  0  0  0
   24.6334  -20.7392  -11.7065 C   0  0  0  0  0  0  0  0  0  0  0  0
   25.2461  -20.7495  -10.3400 C   0  0  0  0  0  0  0  0  0  0  0  0
   24.2700  -21.1895   -9.2903 C   0  0  0  0  0  0  0  0  0  0  0  0
   25.0281  -21.1955   -8.0271 N   0  0  0  0  0  0  0  0  0  0  0  0
   23.6906  -19.7439  -14.1373 C   0  0  0  0  0  0  0  0  0  0  0  0
   23.4694  -18.5178  -13.8414 O   0  0  0  0  0  0  0  0  0  0  0  0
   20.4831  -20.2952  -15.7690 C   0  0  0  0  0  0  0  0  0  0  0  0
   21.1977  -19.9511  -14.4828 C   0  0  2  0  0  0  0  0  0  0  0  0
   22.5423  -20.4982  -14.4451 N   0  0  0  0  0  0  0  0  0  0  0  0
   20.4427  -20.5662  -13.3592 C   0  0  0  0  0  0  0  0  0  0  0  0
   19.2452  -20.0134  -12.8881 O   0  0  0  0  0  0  0  0  0  0  0  0
   20.8323  -21.6110  -12.7706 O   0  0  0  0  0  0  0  0  0  0  0  0
  1  2  1  0
  3  2  1  0
  3  4  1  6
  5  3  1  0
  5  6  1  1
  7  5  1  0
  7  8  2  0
  9  7  1  0
 10  9  1  0
 10 11  1  1
 11 12  1  0
 12 13  1  0
 13 14  1  0
 14 15  1  0
 16 10  1  0
 17 16  2  0
 19 18  1  6
 19 21  1  0
 19 20  1  0
 20 16  1  0
 21 22  1  0
 23 21  2  0
M  END
$$$$
