IKA.pdb
     RDKit          3D

 23 22  0  0  1  0  0  0  0  0999 V2000
   15.4908  -15.1267  -17.0435 C   0  0  0  0  0  0  0  0  0  0  0  0
   16.6481  -14.2868  -16.5579 C   0  0  0  0  0  0  0  0  0  0  0  0
   16.2406  -12.8790  -16.2302 C   0  0  2  0  0  0  0  0  0  0  0  0
   15.5653  -12.2227  -17.4280 C   0  0  0  0  0  0  0  0  0  0  0  0
   17.3923  -12.0304  -15.7389 C   0  0  2  0  0  0  0  0  0  0  0  0
   17.8391  -12.6818  -14.4689 N   0  0  0  0  0  0  0  0  0  0  0  0
   17.0568  -10.6633  -15.3623 C   0  0  0  0  0  0  0  0  0  0  0  0
   16.5849   -9.8608  -16.2501 O   0  0  0  0  0  0  0  0  0  0  0  0
   17.1866  -10.0631  -14.0726 N   0  0  0  0  0  0  0  0  0  0  0  0
   16.7996   -8.7507  -13.6943 C   0  0  1  0  0  0  0  0  0  0  0  0
   16.3901   -8.5466  -12.2705 C   0  0  0  0  0  0  0  0  0  0  0  0
   15.0618   -9.1064  -11.9216 C   0  0  0  0  0  0  0  0  0  0  0  0
   14.8449   -9.0606  -10.4405 C   0  0  0  0  0  0  0  0  0  0  0  0
   13.5334   -9.6710  -10.0460 C   0  0  0  0  0  0  0  0  0  0  0  0
   13.5314   -9.6789   -8.5728 N   0  0  0  0  0  0  0  0  0  0  0  0
   17.6510   -7.6402  -14.1343 C   0  0  0  0  0  0  0  0  0  0  0  0
   18.8582   -7.6340  -13.7074 O   0  0  0  0  0  0  0  0  0  0  0  0
   17.8821   -4.9965  -16.7776 C   0  0  0  0  0  0  0  0  0  0  0  0
   18.2551   -5.5550  -15.4240 C   0  0  2  0  0  0  0  0  0  0  0  0
   17.3107   -6.5613  -14.9723 N   0  0  0  0  0  0  0  0  0  0  0  0
   18.2123   -4.4410  -14.4401 C   0  0  0  0  0  0  0  0  0  0  0  0
   17.2734   -4.4130  -13.4012 O   0  0  0  0  0  0  0  0  0  0  0  0
   19.0108   -3.4660  -14.4827 O   0  0  0  0  0  0  0  0  0  0  0  0
  1  2  1  0
  3  2  1  0
  3  4  1  6
  5  3  1  0
  5  6  1  1
  7  5  1  0
  7  8  2  0
  9  7  1  0
 10  9  1  0
 10 11  1  1
 11 12  1  0
 12 13  1  0
 13 14  1  0
 14 15  1  0
 16 10  1  0
 17 16  2  0
 19 18  1  6
 19 21  1  0
 19 20  1  0
 20 16  1  0
 21 22  1  0
 23 21  2  0
M  END
$$$$
