IKA.pdb
     RDKit          3D

 23 22  0  0  1  0  0  0  0  0999 V2000
   23.5679  -10.0569  -22.9244 C   0  0  0  0  0  0  0  0  0  0  0  0
   23.0595  -10.7303  -21.6720 C   0  0  0  0  0  0  0  0  0  0  0  0
   22.4505   -9.7586  -20.7022 C   0  0  2  0  0  0  0  0  0  0  0  0
   23.4656   -8.6972  -20.2966 C   0  0  0  0  0  0  0  0  0  0  0  0
   21.8685  -10.4319  -19.4790 C   0  0  2  0  0  0  0  0  0  0  0  0
   20.8374  -11.3760  -20.0105 N   0  0  0  0  0  0  0  0  0  0  0  0
   21.1445   -9.5623  -18.5610 C   0  0  0  0  0  0  0  0  0  0  0  0
   20.1974   -8.8168  -19.0108 O   0  0  0  0  0  0  0  0  0  0  0  0
   21.3543   -9.4195  -17.1554 N   0  0  0  0  0  0  0  0  0  0  0  0
   20.6772   -8.5384  -16.2720 C   0  0  1  0  0  0  0  0  0  0  0  0
   19.6590   -9.1418  -15.3580 C   0  0  0  0  0  0  0  0  0  0  0  0
   18.5712   -9.8805  -16.0439 C   0  0  0  0  0  0  0  0  0  0  0  0
   17.5646  -10.3748  -15.0513 C   0  0  0  0  0  0  0  0  0  0  0  0
   16.4144  -11.0695  -15.7166 C   0  0  0  0  0  0  0  0  0  0  0  0
   15.5550  -11.5453  -14.6186 N   0  0  0  0  0  0  0  0  0  0  0  0
   21.4871   -7.5576  -15.5412 C   0  0  0  0  0  0  0  0  0  0  0  0
   22.4062   -8.0207  -14.7794 O   0  0  0  0  0  0  0  0  0  0  0  0
   22.0250   -3.8188  -15.1494 C   0  0  0  0  0  0  0  0  0  0  0  0
   22.2019   -5.2668  -14.7552 C   0  0  2  0  0  0  0  0  0  0  0  0
   21.3833   -6.1537  -15.5627 N   0  0  0  0  0  0  0  0  0  0  0  0
   21.7522   -5.4174  -13.3460 C   0  0  0  0  0  0  0  0  0  0  0  0
   22.5174   -4.9394  -12.2748 O   0  0  0  0  0  0  0  0  0  0  0  0
   20.6665   -5.9786  -13.0358 O   0  0  0  0  0  0  0  0  0  0  0  0
  1  2  1  0
  3  2  1  0
  3  4  1  1
  5  3  1  0
  5  6  1  6
  7  5  1  0
  7  8  2  0
  9  7  1  0
 10  9  1  0
 10 11  1  1
 11 12  1  0
 12 13  1  0
 13 14  1  0
 14 15  1  0
 16 10  1  0
 17 16  2  0
 19 18  1  6
 19 21  1  0
 19 20  1  0
 20 16  1  0
 21 22  1  0
 23 21  2  0
M  END
$$$$
