IKA.pdb
     RDKit          3D

 23 22  0  0  1  0  0  0  0  0999 V2000
   29.7526  -19.6595  -18.7732 C   0  0  0  0  0  0  0  0  0  0  0  0
   29.2313  -20.5053  -17.6360 C   0  0  0  0  0  0  0  0  0  0  0  0
   28.0704  -19.8672  -16.9286 C   0  0  2  0  0  0  0  0  0  0  0  0
   28.4176  -18.4468  -16.5001 C   0  0  0  0  0  0  0  0  0  0  0  0
   27.5837  -20.6748  -15.7458 C   0  0  2  0  0  0  0  0  0  0  0  0
   27.2654  -22.0254  -16.3038 N   0  0  0  0  0  0  0  0  0  0  0  0
   26.3423  -20.2184  -15.1344 C   0  0  0  0  0  0  0  0  0  0  0  0
   26.3877  -19.5383  -14.0434 O   0  0  0  0  0  0  0  0  0  0  0  0
   25.0124  -20.4343  -15.6086 N   0  0  0  0  0  0  0  0  0  0  0  0
   23.8047  -19.9943  -15.0060 C   0  0  1  0  0  0  0  0  0  0  0  0
   22.6317  -19.7831  -15.9093 C   0  0  0  0  0  0  0  0  0  0  0  0
   21.4109  -19.2821  -15.2325 C   0  0  0  0  0  0  0  0  0  0  0  0
   20.7357  -18.2404  -16.0702 C   0  0  0  0  0  0  0  0  0  0  0  0
   19.5238  -17.6740  -15.3929 C   0  0  0  0  0  0  0  0  0  0  0  0
   18.8638  -16.8338  -16.4073 N   0  0  0  0  0  0  0  0  0  0  0  0
   23.3749  -20.6712  -13.7776 C   0  0  0  0  0  0  0  0  0  0  0  0
   22.9742  -21.8817  -13.8954 O   0  0  0  0  0  0  0  0  0  0  0  0
   23.5438  -20.3839  -10.0298 C   0  0  0  0  0  0  0  0  0  0  0  0
   22.9404  -20.9289  -11.3035 C   0  0  2  0  0  0  0  0  0  0  0  0
   23.3392  -20.1575  -12.4673 N   0  0  0  0  0  0  0  0  0  0  0  0
   21.4614  -20.8225  -11.1931 C   0  0  0  0  0  0  0  0  0  0  0  0
   20.7229  -19.9595  -12.0124 O   0  0  0  0  0  0  0  0  0  0  0  0
   20.7920  -21.4963  -10.3637 O   0  0  0  0  0  0  0  0  0  0  0  0
  1  2  1  0
  3  2  1  0
  3  4  1  1
  5  3  1  0
  5  6  1  6
  7  5  1  0
  7  8  2  0
  9  7  1  0
 10  9  1  0
 10 11  1  6
 11 12  1  0
 12 13  1  0
 13 14  1  0
 14 15  1  0
 16 10  1  0
 17 16  2  0
 19 18  1  1
 19 21  1  0
 19 20  1  0
 20 16  1  0
 21 22  1  0
 23 21  2  0
M  END
$$$$
