IKA.pdb
     RDKit          3D

 23 22  0  0  1  0  0  0  0  0999 V2000
   15.4037  -12.5592  -18.3535 C   0  0  0  0  0  0  0  0  0  0  0  0
   16.4840  -12.4202  -17.3076 C   0  0  0  0  0  0  0  0  0  0  0  0
   16.6917  -10.9957  -16.8797 C   0  0  2  0  0  0  0  0  0  0  0  0
   17.0677  -10.1259  -18.0728 C   0  0  0  0  0  0  0  0  0  0  0  0
   17.7160  -10.8545  -15.7756 C   0  0  2  0  0  0  0  0  0  0  0  0
   17.1906  -11.6886  -14.6509 N   0  0  0  0  0  0  0  0  0  0  0  0
   17.8636   -9.5176  -15.2152 C   0  0  0  0  0  0  0  0  0  0  0  0
   18.3830   -8.5849  -15.9331 O   0  0  0  0  0  0  0  0  0  0  0  0
   17.4883   -9.0795  -13.9085 N   0  0  0  0  0  0  0  0  0  0  0  0
   17.7239   -7.8046  -13.3304 C   0  0  1  0  0  0  0  0  0  0  0  0
   16.8264   -7.3906  -12.2081 C   0  0  0  0  0  0  0  0  0  0  0  0
   17.1254   -6.0553  -11.6360 C   0  0  0  0  0  0  0  0  0  0  0  0
   16.1307   -5.7045  -10.5729 C   0  0  0  0  0  0  0  0  0  0  0  0
   16.3675   -4.3339  -10.0128 C   0  0  0  0  0  0  0  0  0  0  0  0
   15.4161   -4.1962   -8.8964 N   0  0  0  0  0  0  0  0  0  0  0  0
   19.1123   -7.4486  -13.0182 C   0  0  0  0  0  0  0  0  0  0  0  0
   19.6133   -7.9561  -11.9547 O   0  0  0  0  0  0  0  0  0  0  0  0
   22.3344   -6.7141  -14.4288 C   0  0  0  0  0  0  0  0  0  0  0  0
   21.3490   -6.3248  -13.3514 C   0  0  2  0  0  0  0  0  0  0  0  0
   19.9787   -6.6064  -13.7409 N   0  0  0  0  0  0  0  0  0  0  0  0
   21.4524   -4.8562  -13.1433 C   0  0  0  0  0  0  0  0  0  0  0  0
   22.5644   -4.2786  -12.5178 O   0  0  0  0  0  0  0  0  0  0  0  0
   20.5540   -4.0528  -13.5140 O   0  0  0  0  0  0  0  0  0  0  0  0
  1  2  1  0
  3  2  1  0
  3  4  1  6
  5  3  1  0
  5  6  1  1
  7  5  1  0
  7  8  2  0
  9  7  1  0
 10  9  1  0
 10 11  1  1
 11 12  1  0
 12 13  1  0
 13 14  1  0
 14 15  1  0
 16 10  1  0
 17 16  2  0
 19 18  1  6
 19 21  1  0
 19 20  1  0
 20 16  1  0
 21 22  1  0
 23 21  2  0
M  END
$$$$
