IKA.pdb
     RDKit          3D

 23 22  0  0  1  0  0  0  0  0999 V2000
   28.7899  -16.4074  -18.4569 C   0  0  0  0  0  0  0  0  0  0  0  0
   27.5966  -17.3239  -18.5859 C   0  0  0  0  0  0  0  0  0  0  0  0
   26.9076  -17.5609  -17.2726 C   0  0  2  0  0  0  0  0  0  0  0  0
   27.7434  -18.4746  -16.3849 C   0  0  0  0  0  0  0  0  0  0  0  0
   25.5073  -18.1104  -17.4315 C   0  0  2  0  0  0  0  0  0  0  0  0
   24.7177  -16.9907  -18.0311 N   0  0  0  0  0  0  0  0  0  0  0  0
   24.8118  -18.4405  -16.1943 C   0  0  0  0  0  0  0  0  0  0  0  0
   24.4267  -17.4933  -15.4136 O   0  0  0  0  0  0  0  0  0  0  0  0
   24.4814  -19.7417  -15.7067 N   0  0  0  0  0  0  0  0  0  0  0  0
   23.8183  -20.0601  -14.4925 C   0  0  1  0  0  0  0  0  0  0  0  0
   22.5752  -20.8854  -14.5929 C   0  0  0  0  0  0  0  0  0  0  0  0
   21.8924  -21.1365  -13.3005 C   0  0  0  0  0  0  0  0  0  0  0  0
   20.6697  -21.9763  -13.5068 C   0  0  0  0  0  0  0  0  0  0  0  0
   19.9137  -22.1904  -12.2297 C   0  0  0  0  0  0  0  0  0  0  0  0
   18.7900  -23.0755  -12.5825 N   0  0  0  0  0  0  0  0  0  0  0  0
   24.6425  -20.5307  -13.3740 C   0  0  0  0  0  0  0  0  0  0  0  0
   25.1380  -21.7070  -13.4768 O   0  0  0  0  0  0  0  0  0  0  0  0
   26.3421  -19.3447  -10.2146 C   0  0  0  0  0  0  0  0  0  0  0  0
   25.7822  -20.4140  -11.1237 C   0  0  2  0  0  0  0  0  0  0  0  0
   24.9621  -19.8526  -12.1823 N   0  0  0  0  0  0  0  0  0  0  0  0
   24.9038  -21.2952  -10.3095 C   0  0  0  0  0  0  0  0  0  0  0  0
   23.5196  -21.3477  -10.5166 O   0  0  0  0  0  0  0  0  0  0  0  0
   25.3490  -22.0394   -9.3942 O   0  0  0  0  0  0  0  0  0  0  0  0
  1  2  1  0
  3  2  1  0
  3  4  1  1
  5  3  1  0
  5  6  1  1
  7  5  1  0
  7  8  2  0
  9  7  1  0
 10  9  1  0
 10 11  1  6
 11 12  1  0
 12 13  1  0
 13 14  1  0
 14 15  1  0
 16 10  1  0
 17 16  2  0
 19 18  1  1
 19 21  1  0
 19 20  1  0
 20 16  1  0
 21 22  1  0
 23 21  2  0
M  END
$$$$
