IKA.pdb
     RDKit          3D

 23 22  0  0  1  0  0  0  0  0999 V2000
   27.0043  -20.0116   -3.8889 C   0  0  0  0  0  0  0  0  0  0  0  0
   27.6738  -20.0164   -5.2424 C   0  0  0  0  0  0  0  0  0  0  0  0
   26.6868  -20.0685   -6.3731 C   0  0  2  0  0  0  0  0  0  0  0  0
   25.7774  -21.2834   -6.2367 C   0  0  0  0  0  0  0  0  0  0  0  0
   27.3467  -20.0493   -7.7341 C   0  0  2  0  0  0  0  0  0  0  0  0
   28.1126  -18.7653   -7.7749 N   0  0  0  0  0  0  0  0  0  0  0  0
   26.4435  -19.9847   -8.8756 C   0  0  0  0  0  0  0  0  0  0  0  0
   25.8458  -18.8783   -9.1470 O   0  0  0  0  0  0  0  0  0  0  0  0
   26.1162  -21.0387   -9.7824 N   0  0  0  0  0  0  0  0  0  0  0  0
   25.3704  -20.9346  -10.9857 C   0  0  1  0  0  0  0  0  0  0  0  0
   25.7174  -21.8871  -12.0852 C   0  0  0  0  0  0  0  0  0  0  0  0
   25.7382  -21.2868  -13.4412 C   0  0  0  0  0  0  0  0  0  0  0  0
   26.1830  -22.2950  -14.4554 C   0  0  0  0  0  0  0  0  0  0  0  0
   26.2668  -21.7071  -15.8322 C   0  0  0  0  0  0  0  0  0  0  0  0
   26.7961  -22.7837  -16.6872 N   0  0  0  0  0  0  0  0  0  0  0  0
   23.9131  -20.8123  -10.8709 C   0  0  0  0  0  0  0  0  0  0  0  0
   23.3469  -21.4983   -9.9498 O   0  0  0  0  0  0  0  0  0  0  0  0
   20.9463  -18.9585  -12.3571 C   0  0  0  0  0  0  0  0  0  0  0  0
   21.6019  -19.9842  -11.4619 C   0  0  2  0  0  0  0  0  0  0  0  0
   23.0405  -20.0327  -11.6539 N   0  0  0  0  0  0  0  0  0  0  0  0
   21.0657  -21.3221  -11.8270 C   0  0  0  0  0  0  0  0  0  0  0  0
   19.9249  -21.8506  -11.2100 O   0  0  0  0  0  0  0  0  0  0  0  0
   21.6013  -22.0520  -12.7047 O   0  0  0  0  0  0  0  0  0  0  0  0
  1  2  1  0
  3  2  1  0
  3  4  1  1
  5  3  1  0
  5  6  1  1
  7  5  1  0
  7  8  2  0
  9  7  1  0
 10  9  1  0
 10 11  1  6
 11 12  1  0
 12 13  1  0
 13 14  1  0
 14 15  1  0
 16 10  1  0
 17 16  2  0
 19 18  1  6
 19 21  1  0
 19 20  1  0
 20 16  1  0
 21 22  1  0
 23 21  2  0
M  END
$$$$
