IKA.pdb
     RDKit          3D

 23 22  0  0  1  0  0  0  0  0999 V2000
   29.8809  -13.1970  -17.4000 C   0  0  0  0  0  0  0  0  0  0  0  0
   28.6674  -13.0670  -16.5107 C   0  0  0  0  0  0  0  0  0  0  0  0
   27.7542  -11.9551  -16.9410 C   0  0  2  0  0  0  0  0  0  0  0  0
   28.5198  -10.6419  -17.0468 C   0  0  0  0  0  0  0  0  0  0  0  0
   26.5507  -11.7970  -16.0385 C   0  0  2  0  0  0  0  0  0  0  0  0
   25.8960  -13.1416  -16.0270 N   0  0  0  0  0  0  0  0  0  0  0  0
   25.5203  -10.8812  -16.5107 C   0  0  0  0  0  0  0  0  0  0  0  0
   25.7842   -9.6254  -16.6017 O   0  0  0  0  0  0  0  0  0  0  0  0
   24.1876  -11.2069  -16.9083 N   0  0  0  0  0  0  0  0  0  0  0  0
   23.1966  -10.3164  -17.3983 C   0  0  1  0  0  0  0  0  0  0  0  0
   21.9975  -10.9264  -18.0514 C   0  0  0  0  0  0  0  0  0  0  0  0
   21.1037   -9.9587  -18.7326 C   0  0  0  0  0  0  0  0  0  0  0  0
   19.9668  -10.6716  -19.3975 C   0  0  0  0  0  0  0  0  0  0  0  0
   19.0956   -9.7336  -20.1782 C   0  0  0  0  0  0  0  0  0  0  0  0
   18.0050  -10.5659  -20.7151 N   0  0  0  0  0  0  0  0  0  0  0  0
   22.7833   -9.2147  -16.5225 C   0  0  0  0  0  0  0  0  0  0  0  0
   22.4241   -9.5260  -15.3334 O   0  0  0  0  0  0  0  0  0  0  0  0
   22.6291   -5.4258  -16.3789 C   0  0  0  0  0  0  0  0  0  0  0  0
   22.3417   -6.8171  -15.8643 C   0  0  2  0  0  0  0  0  0  0  0  0
   22.7235   -7.8402  -16.8214 N   0  0  0  0  0  0  0  0  0  0  0  0
   20.8741   -6.9363  -15.6577 C   0  0  0  0  0  0  0  0  0  0  0  0
   20.2533   -6.4558  -14.4978 O   0  0  0  0  0  0  0  0  0  0  0  0
   20.1099   -7.4715  -16.5059 O   0  0  0  0  0  0  0  0  0  0  0  0
  1  2  1  0
  3  2  1  0
  3  4  1  1
  5  3  1  0
  5  6  1  6
  7  5  1  0
  7  8  2  0
  9  7  1  0
 10  9  1  0
 10 11  1  1
 11 12  1  0
 12 13  1  0
 13 14  1  0
 14 15  1  0
 16 10  1  0
 17 16  2  0
 19 18  1  6
 19 21  1  0
 19 20  1  0
 20 16  1  0
 21 22  1  0
 23 21  2  0
M  END
$$$$
