IKA.pdb
     RDKit          3D

 23 22  0  0  1  0  0  0  0  0999 V2000
   29.8554  -20.4257  -12.0107 C   0  0  0  0  0  0  0  0  0  0  0  0
   28.6342  -21.3129  -11.9683 C   0  0  0  0  0  0  0  0  0  0  0  0
   27.3692  -20.5674  -12.2837 C   0  0  2  0  0  0  0  0  0  0  0  0
   27.1872  -19.3918  -11.3317 C   0  0  0  0  0  0  0  0  0  0  0  0
   26.1436  -21.4537  -12.2737 C   0  0  2  0  0  0  0  0  0  0  0  0
   26.3849  -22.4605  -13.3531 N   0  0  0  0  0  0  0  0  0  0  0  0
   24.8900  -20.8060  -12.6372 C   0  0  0  0  0  0  0  0  0  0  0  0
   24.1996  -20.2106  -11.7295 O   0  0  0  0  0  0  0  0  0  0  0  0
   24.2937  -20.7381  -13.9334 N   0  0  0  0  0  0  0  0  0  0  0  0
   23.0616  -20.1242  -14.2799 C   0  0  1  0  0  0  0  0  0  0  0  0
   22.8077  -19.8819  -15.7336 C   0  0  0  0  0  0  0  0  0  0  0  0
   21.5654  -19.1273  -16.0282 C   0  0  0  0  0  0  0  0  0  0  0  0
   21.8799  -17.6945  -16.3297 C   0  0  0  0  0  0  0  0  0  0  0  0
   20.6440  -16.8984  -16.6247 C   0  0  0  0  0  0  0  0  0  0  0  0
   21.1176  -15.5377  -16.9324 N   0  0  0  0  0  0  0  0  0  0  0  0
   21.8458  -20.6359  -13.6381 C   0  0  0  0  0  0  0  0  0  0  0  0
   21.5782  -21.8758  -13.8140 O   0  0  0  0  0  0  0  0  0  0  0  0
   19.2892  -19.7317  -11.0182 C   0  0  0  0  0  0  0  0  0  0  0  0
   19.7792  -20.5510  -12.1895 C   0  0  2  0  0  0  0  0  0  0  0  0
   20.9174  -19.9334  -12.8464 N   0  0  0  0  0  0  0  0  0  0  0  0
   18.6819  -20.6234  -13.1903 C   0  0  0  0  0  0  0  0  0  0  0  0
   17.5924  -21.4879  -13.0258 O   0  0  0  0  0  0  0  0  0  0  0  0
   18.6681  -19.9179  -14.2353 O   0  0  0  0  0  0  0  0  0  0  0  0
  1  2  1  0
  3  2  1  0
  3  4  1  1
  5  3  1  0
  5  6  1  6
  7  5  1  0
  7  8  2  0
  9  7  1  0
 10  9  1  0
 10 11  1  6
 11 12  1  0
 12 13  1  0
 13 14  1  0
 14 15  1  0
 16 10  1  0
 17 16  2  0
 19 18  1  1
 19 21  1  0
 19 20  1  0
 20 16  1  0
 21 22  1  0
 23 21  2  0
M  END
$$$$
