IKA.pdb
     RDKit          3D

 23 22  0  0  1  0  0  0  0  0999 V2000
   19.4876  -14.3289  -18.2631 C   0  0  0  0  0  0  0  0  0  0  0  0
   19.5088  -13.5062  -16.9970 C   0  0  0  0  0  0  0  0  0  0  0  0
   19.6589  -12.0366  -17.2674 C   0  0  2  0  0  0  0  0  0  0  0  0
   20.8981  -11.7699  -18.1129 C   0  0  0  0  0  0  0  0  0  0  0  0
   19.6880  -11.2041  -16.0049 C   0  0  2  0  0  0  0  0  0  0  0  0
   18.3390  -11.3907  -15.3868 N   0  0  0  0  0  0  0  0  0  0  0  0
   19.8177   -9.7655  -16.1970 C   0  0  0  0  0  0  0  0  0  0  0  0
   20.9328   -9.2821  -16.6191 O   0  0  0  0  0  0  0  0  0  0  0  0
   18.8214   -8.7676  -15.9697 N   0  0  0  0  0  0  0  0  0  0  0  0
   18.9534   -7.3661  -16.1527 C   0  0  1  0  0  0  0  0  0  0  0  0
   17.7345   -6.6201  -16.5935 C   0  0  0  0  0  0  0  0  0  0  0  0
   16.6254   -7.4771  -17.0783 C   0  0  0  0  0  0  0  0  0  0  0  0
   15.4474   -6.6398  -17.4707 C   0  0  0  0  0  0  0  0  0  0  0  0
   14.2966   -7.4764  -17.9442 C   0  0  0  0  0  0  0  0  0  0  0  0
   13.2035   -6.5255  -18.2108 N   0  0  0  0  0  0  0  0  0  0  0  0
   19.6526   -6.6096  -15.1084 C   0  0  0  0  0  0  0  0  0  0  0  0
   19.1661   -6.6731  -13.9256 O   0  0  0  0  0  0  0  0  0  0  0  0
   22.9561   -5.0197  -14.3561 C   0  0  0  0  0  0  0  0  0  0  0  0
   21.4703   -5.1616  -14.1203 C   0  0  2  0  0  0  0  0  0  0  0  0
   20.8022   -5.8068  -15.2365 N   0  0  0  0  0  0  0  0  0  0  0  0
   20.8930   -3.7973  -13.9934 C   0  0  0  0  0  0  0  0  0  0  0  0
   19.9348   -3.3173  -14.8950 O   0  0  0  0  0  0  0  0  0  0  0  0
   21.2289   -3.0003  -13.0757 O   0  0  0  0  0  0  0  0  0  0  0  0
  1  2  1  0
  3  2  1  0
  3  4  1  1
  5  3  1  0
  5  6  1  6
  7  5  1  0
  7  8  2  0
  9  7  1  0
 10  9  1  0
 10 11  1  1
 11 12  1  0
 12 13  1  0
 13 14  1  0
 14 15  1  0
 16 10  1  0
 17 16  2  0
 19 18  1  6
 19 21  1  0
 19 20  1  0
 20 16  1  0
 21 22  1  0
 23 21  2  0
M  END
$$$$
