IKA.pdb
     RDKit          3D

 23 22  0  0  1  0  0  0  0  0999 V2000
   27.8063  -18.6983   -6.9439 C   0  0  0  0  0  0  0  0  0  0  0  0
   27.0490  -19.8669   -7.5280 C   0  0  0  0  0  0  0  0  0  0  0  0
   26.3758  -19.5261   -8.8265 C   0  0  2  0  0  0  0  0  0  0  0  0
   25.4187  -18.3547   -8.6440 C   0  0  0  0  0  0  0  0  0  0  0  0
   25.6600  -20.7051   -9.4476 C   0  0  2  0  0  0  0  0  0  0  0  0
   26.7351  -21.7056   -9.7303 N   0  0  0  0  0  0  0  0  0  0  0  0
   25.0296  -20.4561  -10.7374 C   0  0  0  0  0  0  0  0  0  0  0  0
   24.0877  -19.5839  -10.8228 O   0  0  0  0  0  0  0  0  0  0  0  0
   25.3330  -21.0812  -11.9853 N   0  0  0  0  0  0  0  0  0  0  0  0
   24.7157  -20.8365  -13.2400 C   0  0  1  0  0  0  0  0  0  0  0  0
   25.1981  -21.6424  -14.4037 C   0  0  0  0  0  0  0  0  0  0  0  0
   24.8247  -23.0771  -14.3610 C   0  0  0  0  0  0  0  0  0  0  0  0
   25.2856  -23.7771  -15.6021 C   0  0  0  0  0  0  0  0  0  0  0  0
   24.7729  -25.1842  -15.6763 C   0  0  0  0  0  0  0  0  0  0  0  0
   25.3164  -25.7344  -16.9302 N   0  0  0  0  0  0  0  0  0  0  0  0
   23.2521  -20.7434  -13.2681 C   0  0  0  0  0  0  0  0  0  0  0  0
   22.6070  -21.5641  -12.5263 O   0  0  0  0  0  0  0  0  0  0  0  0
   20.4230  -18.7050  -14.7840 C   0  0  0  0  0  0  0  0  0  0  0  0
   21.0013  -19.8095  -13.9303 C   0  0  2  0  0  0  0  0  0  0  0  0
   22.4499  -19.8616  -14.0171 N   0  0  0  0  0  0  0  0  0  0  0  0
   20.4847  -21.1055  -14.4442 C   0  0  0  0  0  0  0  0  0  0  0  0
   19.2613  -21.6329  -14.0120 O   0  0  0  0  0  0  0  0  0  0  0  0
   21.1112  -21.7989  -15.2907 O   0  0  0  0  0  0  0  0  0  0  0  0
  1  2  1  0
  3  2  1  0
  3  4  1  1
  5  3  1  0
  5  6  1  6
  7  5  1  0
  7  8  2  0
  9  7  1  0
 10  9  1  0
 10 11  1  6
 11 12  1  0
 12 13  1  0
 13 14  1  0
 14 15  1  0
 16 10  1  0
 17 16  2  0
 19 18  1  6
 19 21  1  0
 19 20  1  0
 20 16  1  0
 21 22  1  0
 23 21  2  0
M  END
$$$$
