LEI.pdb
     RDKit          3D

 26 25  0  0  1  0  0  0  0  0999 V2000
   26.2666  -19.5739   -8.9380 C   0  0  0  0  0  0  0  0  0  0  0  0
   25.8850  -20.8161   -9.6777 C   0  0  1  0  0  0  0  0  0  0  0  0
   24.5771  -21.3383   -9.1212 C   0  0  0  0  0  0  0  0  0  0  0  0
   25.7181  -20.6149  -11.1488 C   0  0  0  0  0  0  0  0  0  0  0  0
   25.2948  -21.8572  -11.8808 C   0  0  2  0  0  0  0  0  0  0  0  0
   26.3759  -22.5051  -12.5643 N   0  0  0  0  0  0  0  0  0  0  0  0
   24.2865  -21.4467  -12.8968 C   0  0  0  0  0  0  0  0  0  0  0  0
   24.7232  -21.0383  -14.0061 O   0  0  0  0  0  0  0  0  0  0  0  0
   22.8914  -21.5112  -12.6307 N   0  0  0  0  0  0  0  0  0  0  0  0
   21.9657  -21.2625  -13.6863 C   0  0  1  0  0  0  0  0  0  0  0  0
   20.5871  -21.6833  -13.2523 C   0  0  0  0  0  0  0  0  0  0  0  0
   19.6447  -21.6065  -14.4070 C   0  0  0  0  0  0  0  0  0  0  0  0
   18.8148  -22.8372  -14.5437 C   0  0  0  0  0  0  0  0  0  0  0  0
   18.3436  -23.4619  -13.5604 O   0  0  0  0  0  0  0  0  0  0  0  0
   21.9945  -19.8542  -14.1604 C   0  0  0  0  0  0  0  0  0  0  0  0
   22.0507  -18.9136  -13.3277 O   0  0  0  0  0  0  0  0  0  0  0  0
   18.5400  -23.3300  -15.8102 O   0  0  0  0  0  0  0  0  0  0  0  0
   25.3883  -18.1643  -17.8036 C   0  0  0  0  0  0  0  0  0  0  0  0
   24.3790  -18.2419  -16.7064 C   0  0  0  0  0  0  0  0  0  0  0  0
   22.9634  -17.9834  -17.1534 C   0  0  2  0  0  0  0  0  0  0  0  0
   22.8965  -16.5537  -17.6367 C   0  0  0  0  0  0  0  0  0  0  0  0
   21.9554  -18.1792  -16.0298 C   0  0  2  0  0  0  0  0  0  0  0  0
   21.9588  -19.5499  -15.5616 N   0  0  0  0  0  0  0  0  0  0  0  0
   20.6258  -17.8638  -16.6029 C   0  0  0  0  0  0  0  0  0  0  0  0
   19.9736  -16.6658  -16.3911 O   0  0  0  0  0  0  0  0  0  0  0  0
   20.0633  -18.7276  -17.3166 O   0  0  0  0  0  0  0  0  0  0  0  0
  2  1  1  1
  2  4  1  0
  2  3  1  0
  5  6  1  6
  5  4  1  0
  7  5  1  0
  8  7  2  0
  9  7  1  0
 10  9  1  0
 11 12  1  0
 10 11  1  1
 12 13  1  0
 13 17  1  0
 13 14  2  0
 15 10  1  0
 15 16  2  0
 18 19  1  0
 19 20  1  0
 20 22  1  0
 20 21  1  1
 22 23  1  6
 23 15  1  0
 24 22  1  0
 25 24  1  0
 26 24  2  0
M  END
$$$$
