LEI.pdb
     RDKit          3D

 26 25  0  0  1  0  0  0  0  0999 V2000
   33.3363  -21.4261  -10.1625 C   0  0  0  0  0  0  0  0  0  0  0  0
   32.4685  -22.0041  -11.2343 C   0  0  1  0  0  0  0  0  0  0  0  0
   32.5097  -23.5149  -11.1398 C   0  0  0  0  0  0  0  0  0  0  0  0
   31.0408  -21.5711  -11.1532 C   0  0  0  0  0  0  0  0  0  0  0  0
   30.1906  -22.0908  -12.2782 C   0  0  2  0  0  0  0  0  0  0  0  0
   30.8786  -22.1252  -13.5357 N   0  0  0  0  0  0  0  0  0  0  0  0
   29.0286  -21.1694  -12.4130 C   0  0  0  0  0  0  0  0  0  0  0  0
   28.7421  -20.4573  -11.4136 O   0  0  0  0  0  0  0  0  0  0  0  0
   28.2731  -21.0936  -13.6150 N   0  0  0  0  0  0  0  0  0  0  0  0
   27.0954  -20.2906  -13.6514 C   0  0  1  0  0  0  0  0  0  0  0  0
   26.7187  -20.0198  -15.0835 C   0  0  0  0  0  0  0  0  0  0  0  0
   25.5120  -19.1431  -15.1349 C   0  0  0  0  0  0  0  0  0  0  0  0
   25.0123  -18.9483  -16.5257 C   0  0  0  0  0  0  0  0  0  0  0  0
   23.8069  -18.7206  -16.7981 O   0  0  0  0  0  0  0  0  0  0  0  0
   25.9694  -20.8809  -12.8816 C   0  0  0  0  0  0  0  0  0  0  0  0
   25.5982  -22.0588  -13.1177 O   0  0  0  0  0  0  0  0  0  0  0  0
   25.9079  -19.0185  -17.5818 O   0  0  0  0  0  0  0  0  0  0  0  0
   25.9008  -19.9702   -7.6318 C   0  0  0  0  0  0  0  0  0  0  0  0
   25.6741  -20.6065   -8.9631 C   0  0  0  0  0  0  0  0  0  0  0  0
   24.3626  -20.2367   -9.6062 C   0  0  2  0  0  0  0  0  0  0  0  0
   23.2636  -20.8765   -8.7907 C   0  0  0  0  0  0  0  0  0  0  0  0
   24.2650  -20.7225  -11.0454 C   0  0  2  0  0  0  0  0  0  0  0  0
   25.2956  -20.1226  -11.8675 N   0  0  0  0  0  0  0  0  0  0  0  0
   22.9360  -20.2935  -11.5410 C   0  0  0  0  0  0  0  0  0  0  0  0
   21.7950  -21.0597  -11.4119 O   0  0  0  0  0  0  0  0  0  0  0  0
   22.8411  -19.1785  -12.1064 O   0  0  0  0  0  0  0  0  0  0  0  0
  2  1  1  1
  2  4  1  0
  2  3  1  0
  5  6  1  6
  5  4  1  0
  7  5  1  0
  8  7  2  0
  9  7  1  0
 10  9  1  0
 11 12  1  0
 10 11  1  6
 12 13  1  0
 13 17  1  0
 13 14  2  0
 15 10  1  0
 15 16  2  0
 18 19  1  0
 19 20  1  0
 20 22  1  0
 20 21  1  1
 22 23  1  6
 23 15  1  0
 24 22  1  0
 25 24  1  0
 26 24  2  0
M  END
$$$$
