LEI.pdb
     RDKit          3D

 26 25  0  0  1  0  0  0  0  0999 V2000
   29.9466  -21.5141  -16.0528 C   0  0  0  0  0  0  0  0  0  0  0  0
   28.4529  -21.5462  -15.9915 C   0  0  1  0  0  0  0  0  0  0  0  0
   28.0008  -22.9694  -15.7405 C   0  0  0  0  0  0  0  0  0  0  0  0
   27.8745  -20.6781  -14.9216 C   0  0  0  0  0  0  0  0  0  0  0  0
   26.3818  -20.7957  -14.7943 C   0  0  2  0  0  0  0  0  0  0  0  0
   25.6698  -20.0214  -15.7686 N   0  0  0  0  0  0  0  0  0  0  0  0
   26.0145  -20.2881  -13.4434 C   0  0  0  0  0  0  0  0  0  0  0  0
   26.2555  -19.0752  -13.2012 O   0  0  0  0  0  0  0  0  0  0  0  0
   25.4179  -21.1320  -12.4670 N   0  0  0  0  0  0  0  0  0  0  0  0
   24.9658  -20.5685  -11.2377 C   0  0  1  0  0  0  0  0  0  0  0  0
   23.4826  -20.7870  -11.1028 C   0  0  0  0  0  0  0  0  0  0  0  0
   22.7517  -19.9404  -12.0910 C   0  0  0  0  0  0  0  0  0  0  0  0
   21.2734  -20.0111  -11.9136 C   0  0  0  0  0  0  0  0  0  0  0  0
   20.7142  -20.7926  -11.1039 O   0  0  0  0  0  0  0  0  0  0  0  0
   25.7132  -21.0786  -10.0587 C   0  0  0  0  0  0  0  0  0  0  0  0
   26.0509  -22.2886  -10.0062 O   0  0  0  0  0  0  0  0  0  0  0  0
   20.4612  -19.1811  -12.6711 O   0  0  0  0  0  0  0  0  0  0  0  0
   28.9704  -19.0723   -5.1156 C   0  0  0  0  0  0  0  0  0  0  0  0
   28.1800  -20.1162   -5.8326 C   0  0  0  0  0  0  0  0  0  0  0  0
   27.4726  -19.6140   -7.0647 C   0  0  2  0  0  0  0  0  0  0  0  0
   26.5079  -18.5382   -6.6244 C   0  0  0  0  0  0  0  0  0  0  0  0
   26.7021  -20.7146   -7.7802 C   0  0  2  0  0  0  0  0  0  0  0  0
   26.0571  -20.2062   -8.9733 N   0  0  0  0  0  0  0  0  0  0  0  0
   25.6669  -21.1843   -6.8297 C   0  0  0  0  0  0  0  0  0  0  0  0
   25.9286  -22.0594   -5.7948 O   0  0  0  0  0  0  0  0  0  0  0  0
   24.4931  -20.7667   -6.9712 O   0  0  0  0  0  0  0  0  0  0  0  0
  2  1  1  1
  2  4  1  0
  2  3  1  0
  5  6  1  6
  5  4  1  0
  7  5  1  0
  8  7  2  0
  9  7  1  0
 10  9  1  0
 11 12  1  0
 10 11  1  1
 12 13  1  0
 13 17  1  0
 13 14  2  0
 15 10  1  0
 15 16  2  0
 18 19  1  0
 19 20  1  0
 20 22  1  0
 20 21  1  1
 22 23  1  6
 23 15  1  0
 24 22  1  0
 25 24  1  0
 26 24  2  0
M  END
$$$$
