LEI.pdb
     RDKit          3D

 26 25  0  0  1  0  0  0  0  0999 V2000
   23.1416  -12.8848  -14.8812 C   0  0  0  0  0  0  0  0  0  0  0  0
   24.2131  -13.4415  -15.7631 C   0  0  1  0  0  0  0  0  0  0  0  0
   25.5514  -13.2819  -15.0729 C   0  0  0  0  0  0  0  0  0  0  0  0
   24.0300  -14.8866  -16.0958 C   0  0  0  0  0  0  0  0  0  0  0  0
   25.1308  -15.4507  -16.9493 C   0  0  2  0  0  0  0  0  0  0  0  0
   24.8266  -15.4274  -18.3503 N   0  0  0  0  0  0  0  0  0  0  0  0
   25.3195  -16.8704  -16.5416 C   0  0  0  0  0  0  0  0  0  0  0  0
   24.2803  -17.5675  -16.3924 O   0  0  0  0  0  0  0  0  0  0  0  0
   26.6138  -17.4191  -16.3291 N   0  0  0  0  0  0  0  0  0  0  0  0
   26.7380  -18.7763  -15.9101 C   0  0  1  0  0  0  0  0  0  0  0  0
   27.8083  -19.4547  -16.7225 C   0  0  0  0  0  0  0  0  0  0  0  0
   27.9096  -20.8916  -16.3318 C   0  0  0  0  0  0  0  0  0  0  0  0
   28.9576  -21.6164  -17.1052 C   0  0  0  0  0  0  0  0  0  0  0  0
   29.6539  -21.0715  -17.9981 O   0  0  0  0  0  0  0  0  0  0  0  0
   26.9785  -18.9106  -14.4496 C   0  0  0  0  0  0  0  0  0  0  0  0
   27.7971  -18.1474  -13.8764 O   0  0  0  0  0  0  0  0  0  0  0  0
   29.1881  -22.9574  -16.8390 O   0  0  0  0  0  0  0  0  0  0  0  0
   22.9835  -20.6383  -11.0889 C   0  0  0  0  0  0  0  0  0  0  0  0
   24.2046  -19.9426  -11.5922 C   0  0  0  0  0  0  0  0  0  0  0  0
   25.4531  -20.7852  -11.5523 C   0  0  2  0  0  0  0  0  0  0  0  0
   25.8260  -20.9714  -10.1002 C   0  0  0  0  0  0  0  0  0  0  0  0
   26.6159  -20.1343  -12.2879 C   0  0  2  0  0  0  0  0  0  0  0  0
   26.2869  -19.9035  -13.6794 N   0  0  0  0  0  0  0  0  0  0  0  0
   27.7469  -21.0883  -12.2069 C   0  0  0  0  0  0  0  0  0  0  0  0
   27.9459  -22.1074  -13.1164 O   0  0  0  0  0  0  0  0  0  0  0  0
   28.5655  -20.9651  -11.2653 O   0  0  0  0  0  0  0  0  0  0  0  0
  2  1  1  1
  2  4  1  0
  2  3  1  0
  5  6  1  6
  5  4  1  0
  7  5  1  0
  8  7  2  0
  9  7  1  0
 10  9  1  0
 11 12  1  0
 10 11  1  6
 12 13  1  0
 13 17  1  0
 13 14  2  0
 15 10  1  0
 15 16  2  0
 18 19  1  0
 19 20  1  0
 20 22  1  0
 20 21  1  1
 22 23  1  6
 23 15  1  0
 24 22  1  0
 25 24  1  0
 26 24  2  0
M  END
$$$$
