LEI.pdb
     RDKit          3D

 26 25  0  0  1  0  0  0  0  0999 V2000
   27.3003  -19.9603  -20.0302 C   0  0  0  0  0  0  0  0  0  0  0  0
   27.8908  -19.8245  -18.6632 C   0  0  1  0  0  0  0  0  0  0  0  0
   28.3465  -18.3943  -18.4635 C   0  0  0  0  0  0  0  0  0  0  0  0
   26.9439  -20.1700  -17.5602 C   0  0  0  0  0  0  0  0  0  0  0  0
   27.5486  -20.0498  -16.1897 C   0  0  2  0  0  0  0  0  0  0  0  0
   28.7106  -20.8707  -16.0119 N   0  0  0  0  0  0  0  0  0  0  0  0
   26.5160  -20.4940  -15.2131 C   0  0  0  0  0  0  0  0  0  0  0  0
   25.4000  -20.8479  -15.6792 O   0  0  0  0  0  0  0  0  0  0  0  0
   26.7741  -20.5192  -13.8152 N   0  0  0  0  0  0  0  0  0  0  0  0
   25.7338  -20.9026  -12.9186 C   0  0  1  0  0  0  0  0  0  0  0  0
   26.2012  -20.7141  -11.5001 C   0  0  0  0  0  0  0  0  0  0  0  0
   25.1432  -21.1697  -10.5512 C   0  0  0  0  0  0  0  0  0  0  0  0
   25.5436  -20.9883   -9.1269 C   0  0  0  0  0  0  0  0  0  0  0  0
   26.6076  -20.4174   -8.7787 O   0  0  0  0  0  0  0  0  0  0  0  0
   24.4539  -20.1945  -13.1818 C   0  0  0  0  0  0  0  0  0  0  0  0
   24.4381  -18.9402  -13.2697 O   0  0  0  0  0  0  0  0  0  0  0  0
   24.7131  -21.4666   -8.1250 O   0  0  0  0  0  0  0  0  0  0  0  0
   19.8876  -19.5278  -16.7269 C   0  0  0  0  0  0  0  0  0  0  0  0
   20.2146  -19.6919  -15.2796 C   0  0  0  0  0  0  0  0  0  0  0  0
   21.5444  -20.3513  -15.0203 C   0  0  2  0  0  0  0  0  0  0  0  0
   21.4037  -21.8104  -15.3855 C   0  0  0  0  0  0  0  0  0  0  0  0
   21.9733  -20.2393  -13.5641 C   0  0  2  0  0  0  0  0  0  0  0  0
   23.2292  -20.9245  -13.3379 N   0  0  0  0  0  0  0  0  0  0  0  0
   20.9108  -20.8939  -12.7651 C   0  0  0  0  0  0  0  0  0  0  0  0
   21.0080  -22.1854  -12.2876 O   0  0  0  0  0  0  0  0  0  0  0  0
   19.8701  -20.2433  -12.5089 O   0  0  0  0  0  0  0  0  0  0  0  0
  2  1  1  6
  2  4  1  0
  2  3  1  0
  5  6  1  6
  5  4  1  0
  7  5  1  0
  8  7  2  0
  9  7  1  0
 10  9  1  0
 11 12  1  0
 10 11  1  1
 12 13  1  0
 13 17  1  0
 13 14  2  0
 15 10  1  0
 15 16  2  0
 18 19  1  0
 19 20  1  0
 20 22  1  0
 20 21  1  1
 22 23  1  6
 23 15  1  0
 24 22  1  0
 25 24  1  0
 26 24  2  0
M  END
$$$$
