LEI.pdb
     RDKit          3D

 26 25  0  0  1  0  0  0  0  0999 V2000
   27.1560  -15.6020  -17.8858 C   0  0  0  0  0  0  0  0  0  0  0  0
   27.4582  -16.9059  -17.2191 C   0  0  1  0  0  0  0  0  0  0  0  0
   28.8343  -17.3705  -17.6473 C   0  0  0  0  0  0  0  0  0  0  0  0
   27.4321  -16.8403  -15.7266 C   0  0  0  0  0  0  0  0  0  0  0  0
   27.9202  -18.0965  -15.0616 C   0  0  2  0  0  0  0  0  0  0  0  0
   27.9875  -19.2172  -15.9533 N   0  0  0  0  0  0  0  0  0  0  0  0
   26.9520  -18.4255  -13.9791 C   0  0  0  0  0  0  0  0  0  0  0  0
   26.6378  -17.4960  -13.1883 O   0  0  0  0  0  0  0  0  0  0  0  0
   26.4039  -19.7300  -13.8407 N   0  0  0  0  0  0  0  0  0  0  0  0
   25.4175  -19.9716  -12.8398 C   0  0  1  0  0  0  0  0  0  0  0  0
   24.2697  -20.7364  -13.4429 C   0  0  0  0  0  0  0  0  0  0  0  0
   23.2357  -21.0073  -12.4013 C   0  0  0  0  0  0  0  0  0  0  0  0
   22.1168  -21.8454  -12.9184 C   0  0  0  0  0  0  0  0  0  0  0  0
   20.9999  -21.3738  -13.2492 O   0  0  0  0  0  0  0  0  0  0  0  0
   25.9681  -20.6503  -11.6377 C   0  0  0  0  0  0  0  0  0  0  0  0
   26.6857  -21.6744  -11.7696 O   0  0  0  0  0  0  0  0  0  0  0  0
   22.3005  -23.2137  -13.0469 O   0  0  0  0  0  0  0  0  0  0  0  0
   28.7932  -19.7277   -6.4801 C   0  0  0  0  0  0  0  0  0  0  0  0
   27.7813  -20.5667   -7.1876 C   0  0  0  0  0  0  0  0  0  0  0  0
   27.1038  -19.8719   -8.3404 C   0  0  2  0  0  0  0  0  0  0  0  0
   26.2552  -18.7632   -7.7636 C   0  0  0  0  0  0  0  0  0  0  0  0
   26.2183  -20.8127   -9.1451 C   0  0  2  0  0  0  0  0  0  0  0  0
   25.6916  -20.1518  -10.3215 N   0  0  0  0  0  0  0  0  0  0  0  0
   25.0952  -21.1909   -8.2555 C   0  0  0  0  0  0  0  0  0  0  0  0
   23.7858  -20.8212   -8.4881 O   0  0  0  0  0  0  0  0  0  0  0  0
   25.3451  -21.8818   -7.2395 O   0  0  0  0  0  0  0  0  0  0  0  0
  2  1  1  6
  2  4  1  0
  2  3  1  0
  5  6  1  6
  5  4  1  0
  7  5  1  0
  8  7  2  0
  9  7  1  0
 10  9  1  0
 11 12  1  0
 10 11  1  6
 12 13  1  0
 13 17  1  0
 13 14  2  0
 15 10  1  0
 15 16  2  0
 18 19  1  0
 19 20  1  0
 20 22  1  0
 20 21  1  1
 22 23  1  6
 23 15  1  0
 24 22  1  0
 25 24  1  0
 26 24  2  0
M  END
$$$$
