GSS.pdb
     RDKit          3D

 17 16  0  0  1  0  0  0  0  0999 V2000
    9.5063  -18.6107   18.1291 N   0  0  0  0  0  0  0  0  0  0  0  0
    9.1110  -18.3572   19.4838 C   0  0  0  0  0  0  0  0  0  0  0  0
   10.0237  -17.3509   20.1375 C   0  0  0  0  0  0  0  0  0  0  0  0
   11.0030  -16.8822   19.5063 O   0  0  0  0  0  0  0  0  0  0  0  0
    9.4241  -15.9458   24.2357 O   0  0  0  0  0  0  0  0  0  0  0  0
   10.0746  -15.2432   23.2401 C   0  0  0  0  0  0  0  0  0  0  0  0
   10.6997  -16.1145   22.1957 C   0  0  2  0  0  0  0  0  0  0  0  0
    9.7755  -16.9307   21.4725 N   0  0  0  0  0  0  0  0  0  0  0  0
   11.8640  -16.8974   22.7506 C   0  0  0  0  0  0  0  0  0  0  0  0
   11.6642  -18.0431   23.2017 O   0  0  0  0  0  0  0  0  0  0  0  0
   15.5516  -15.1056   22.8888 O   0  0  0  0  0  0  0  0  0  0  0  0
   15.5466  -16.4659   22.6775 C   0  0  0  0  0  0  0  0  0  0  0  0
   14.3133  -17.1260   23.3022 C   0  0  2  0  0  0  0  0  0  0  0  0
   13.1681  -16.3886   22.7807 N   0  0  0  0  0  0  0  0  0  0  0  0
   14.4409  -16.9642   24.7682 C   0  0  0  0  0  0  0  0  0  0  0  0
   13.6401  -16.1795   25.3383 O   0  0  0  0  0  0  0  0  0  0  0  0
   15.3764  -17.6190   25.5235 O   0  0  0  0  0  0  0  0  0  0  0  0
  1  2  1  0
  2  3  1  0
  3  4  2  0
  5  6  1  0
  7  6  1  1
  7  9  1  0
  8  3  1  0
  8  7  1  0
  9 10  2  0
  9 14  1  0
 11 12  1  0
 13 12  1  6
 14 13  1  0
 15 13  1  0
 15 17  1  0
 16 15  2  0
M  END
$$$$
