GSS.pdb
     RDKit          3D

 17 16  0  0  1  0  0  0  0  0999 V2000
    5.3915  -19.4974   20.4801 N   0  0  0  0  0  0  0  0  0  0  0  0
    5.2247  -19.1215   21.8536 C   0  0  0  0  0  0  0  0  0  0  0  0
    6.5023  -18.5582   22.4224 C   0  0  0  0  0  0  0  0  0  0  0  0
    7.5480  -18.5363   21.7272 O   0  0  0  0  0  0  0  0  0  0  0  0
    6.4901  -16.2985   26.0433 O   0  0  0  0  0  0  0  0  0  0  0  0
    7.4730  -16.2065   25.0772 C   0  0  0  0  0  0  0  0  0  0  0  0
    7.7021  -17.4805   24.3253 C   0  0  2  0  0  0  0  0  0  0  0  0
    6.5242  -18.0502   23.7498 N   0  0  0  0  0  0  0  0  0  0  0  0
    8.4943  -18.4716   25.1416 C   0  0  0  0  0  0  0  0  0  0  0  0
    7.8865  -19.3518   25.7834 O   0  0  0  0  0  0  0  0  0  0  0  0
   12.9329  -20.3002   25.8235 O   0  0  0  0  0  0  0  0  0  0  0  0
   12.1151  -19.2841   25.3833 C   0  0  0  0  0  0  0  0  0  0  0  0
   10.6881  -19.4408   25.9184 C   0  0  2  0  0  0  0  0  0  0  0  0
    9.8926  -18.4450   25.2095 N   0  0  0  0  0  0  0  0  0  0  0  0
   10.7447  -19.1566   27.3702 C   0  0  0  0  0  0  0  0  0  0  0  0
   10.3494  -18.0271   27.7573 O   0  0  0  0  0  0  0  0  0  0  0  0
   11.2008  -20.0525   28.2997 O   0  0  0  0  0  0  0  0  0  0  0  0
  1  2  1  0
  2  3  1  0
  3  4  2  0
  5  6  1  0
  7  6  1  1
  7  9  1  0
  8  3  1  0
  8  7  1  0
  9 10  2  0
  9 14  1  0
 11 12  1  0
 13 12  1  6
 14 13  1  0
 15 13  1  0
 15 17  1  0
 16 15  2  0
M  END
$$$$
