GSS.pdb
     RDKit          3D

 17 16  0  0  1  0  0  0  0  0999 V2000
    7.0994  -17.3736   19.3939 N   0  0  0  0  0  0  0  0  0  0  0  0
    6.4391  -16.6044   20.4077 C   0  0  0  0  0  0  0  0  0  0  0  0
    7.3570  -16.3398   21.5740 C   0  0  0  0  0  0  0  0  0  0  0  0
    8.5021  -16.8544   21.6066 O   0  0  0  0  0  0  0  0  0  0  0  0
    7.3613  -12.8571   23.9569 O   0  0  0  0  0  0  0  0  0  0  0  0
    7.3016  -14.0736   24.6083 C   0  0  0  0  0  0  0  0  0  0  0  0
    7.7550  -15.2294   23.7720 C   0  0  2  0  0  0  0  0  0  0  0  0
    6.9257  -15.5052   22.6408 N   0  0  0  0  0  0  0  0  0  0  0  0
    8.0235  -16.4520   24.6142 C   0  0  0  0  0  0  0  0  0  0  0  0
    7.0587  -17.1050   25.0600 O   0  0  0  0  0  0  0  0  0  0  0  0
   11.6646  -18.0561   24.4872 O   0  0  0  0  0  0  0  0  0  0  0  0
   10.6491  -18.8634   24.9479 C   0  0  0  0  0  0  0  0  0  0  0  0
    9.6080  -18.0611   25.7349 C   0  0  2  0  0  0  0  0  0  0  0  0
    9.3190  -16.8877   24.9185 N   0  0  0  0  0  0  0  0  0  0  0  0
   10.2419  -17.6859   27.0191 C   0  0  0  0  0  0  0  0  0  0  0  0
   10.4365  -16.4623   27.2357 O   0  0  0  0  0  0  0  0  0  0  0  0
   10.6217  -18.5949   27.9699 O   0  0  0  0  0  0  0  0  0  0  0  0
  1  2  1  0
  2  3  1  0
  3  4  2  0
  5  6  1  0
  7  6  1  1
  7  9  1  0
  8  3  1  0
  8  7  1  0
  9 10  2  0
  9 14  1  0
 11 12  1  0
 13 12  1  6
 14 13  1  0
 15 13  1  0
 15 17  1  0
 16 15  2  0
M  END
$$$$
