GSS.pdb
     RDKit          3D

 17 16  0  0  1  0  0  0  0  0999 V2000
    3.7221  -19.6302   16.5668 N   0  0  0  0  0  0  0  0  0  0  0  0
    3.3763  -20.3489   17.7582 C   0  0  0  0  0  0  0  0  0  0  0  0
    3.9294  -19.6677   18.9842 C   0  0  0  0  0  0  0  0  0  0  0  0
    4.9679  -18.9663   18.9032 O   0  0  0  0  0  0  0  0  0  0  0  0
    1.9714  -20.0840   22.7816 O   0  0  0  0  0  0  0  0  0  0  0  0
    2.7208  -18.9642   22.4778 C   0  0  0  0  0  0  0  0  0  0  0  0
    3.7622  -19.2009   21.4288 C   0  0  2  0  0  0  0  0  0  0  0  0
    3.2738  -19.8194   20.2363 N   0  0  0  0  0  0  0  0  0  0  0  0
    4.9737  -19.8977   21.9971 C   0  0  0  0  0  0  0  0  0  0  0  0
    5.1206  -21.1198   21.7949 O   0  0  0  0  0  0  0  0  0  0  0  0
    8.6426  -18.6618   21.9663 O   0  0  0  0  0  0  0  0  0  0  0  0
    8.2430  -18.8657   23.2678 C   0  0  0  0  0  0  0  0  0  0  0  0
    7.1003  -19.8827   23.3509 C   0  0  2  0  0  0  0  0  0  0  0  0
    5.9468  -19.2258   22.7468 N   0  0  0  0  0  0  0  0  0  0  0  0
    6.8777  -20.1558   24.7888 C   0  0  0  0  0  0  0  0  0  0  0  0
    5.8577  -19.6519   25.3251 O   0  0  0  0  0  0  0  0  0  0  0  0
    7.7177  -20.9205   25.5530 O   0  0  0  0  0  0  0  0  0  0  0  0
  1  2  1  0
  2  3  1  0
  3  4  2  0
  5  6  1  0
  7  6  1  1
  7  9  1  0
  8  3  1  0
  8  7  1  0
  9 10  2  0
  9 14  1  0
 11 12  1  0
 13 12  1  1
 14 13  1  0
 15 13  1  0
 15 17  1  0
 16 15  2  0
M  END
$$$$
