GSS.pdb
     RDKit          3D

 17 16  0  0  1  0  0  0  0  0999 V2000
    8.1014  -13.6245   18.7682 N   0  0  0  0  0  0  0  0  0  0  0  0
    7.2705  -13.7241   19.9324 C   0  0  0  0  0  0  0  0  0  0  0  0
    8.1003  -13.8861   21.1806 C   0  0  0  0  0  0  0  0  0  0  0  0
    9.3469  -14.0140   21.0987 O   0  0  0  0  0  0  0  0  0  0  0  0
    6.4024  -13.8001   25.2402 O   0  0  0  0  0  0  0  0  0  0  0  0
    7.6487  -13.3507   24.8495 C   0  0  0  0  0  0  0  0  0  0  0  0
    8.2083  -14.0758   23.6655 C   0  0  2  0  0  0  0  0  0  0  0  0
    7.4703  -13.8943   22.4548 N   0  0  0  0  0  0  0  0  0  0  0  0
    8.4734  -15.5278   23.9786 C   0  0  0  0  0  0  0  0  0  0  0  0
    7.5780  -16.3684   23.7600 O   0  0  0  0  0  0  0  0  0  0  0  0
   12.0344  -17.0118   23.7312 O   0  0  0  0  0  0  0  0  0  0  0  0
   10.9712  -17.8764   23.8627 C   0  0  0  0  0  0  0  0  0  0  0  0
    9.9509  -17.3598   24.8821 C   0  0  2  0  0  0  0  0  0  0  0  0
    9.6903  -15.9745   24.5076 N   0  0  0  0  0  0  0  0  0  0  0  0
   10.5951  -17.4503   26.2120 C   0  0  0  0  0  0  0  0  0  0  0  0
   10.8887  -18.5964   26.6388 O   0  0  0  0  0  0  0  0  0  0  0  0
   10.8828  -16.3607   26.9895 O   0  0  0  0  0  0  0  0  0  0  0  0
  1  2  1  0
  2  3  1  0
  3  4  2  0
  5  6  1  0
  7  6  1  1
  7  9  1  0
  8  3  1  0
  8  7  1  0
  9 10  2  0
  9 14  1  0
 11 12  1  0
 13 12  1  6
 14 13  1  0
 15 13  1  0
 15 17  1  0
 16 15  2  0
M  END
$$$$
