GSS.pdb
     RDKit          3D

 17 16  0  0  1  0  0  0  0  0999 V2000
    8.6446  -14.5199   14.8327 N   0  0  0  0  0  0  0  0  0  0  0  0
    7.7625  -14.3027   15.9419 C   0  0  0  0  0  0  0  0  0  0  0  0
    8.5262  -14.2419   17.2403 C   0  0  0  0  0  0  0  0  0  0  0  0
    9.7624  -14.4626   17.2575 O   0  0  0  0  0  0  0  0  0  0  0  0
    6.6394  -14.0051   21.2084 O   0  0  0  0  0  0  0  0  0  0  0  0
    7.7260  -13.2501   20.8118 C   0  0  0  0  0  0  0  0  0  0  0  0
    8.5223  -13.8717   19.7072 C   0  0  2  0  0  0  0  0  0  0  0  0
    7.8456  -13.9339   18.4496 N   0  0  0  0  0  0  0  0  0  0  0  0
    9.1081  -15.1981   20.1240 C   0  0  0  0  0  0  0  0  0  0  0  0
    8.6135  -16.2491   19.6692 O   0  0  0  0  0  0  0  0  0  0  0  0
   12.3784  -18.0587   20.1630 O   0  0  0  0  0  0  0  0  0  0  0  0
   11.6540  -16.8975   20.0155 C   0  0  0  0  0  0  0  0  0  0  0  0
   10.8859  -16.5492   21.2944 C   0  0  2  0  0  0  0  0  0  0  0  0
   10.1910  -15.2999   21.0059 N   0  0  0  0  0  0  0  0  0  0  0  0
   11.8957  -16.3741   22.3628 C   0  0  0  0  0  0  0  0  0  0  0  0
   12.1429  -15.2007   22.7423 O   0  0  0  0  0  0  0  0  0  0  0  0
   12.5648  -17.4143   22.9498 O   0  0  0  0  0  0  0  0  0  0  0  0
  1  2  1  0
  2  3  1  0
  3  4  2  0
  5  6  1  0
  7  6  1  1
  7  9  1  0
  8  3  1  0
  8  7  1  0
  9 10  2  0
  9 14  1  0
 11 12  1  0
 13 12  1  6
 14 13  1  0
 15 13  1  0
 15 17  1  0
 16 15  2  0
M  END
$$$$
