GSS.pdb
     RDKit          3D

 17 16  0  0  1  0  0  0  0  0999 V2000
    8.8542  -17.5480   18.5918 N   0  0  0  0  0  0  0  0  0  0  0  0
    8.3960  -17.2970   19.9270 C   0  0  0  0  0  0  0  0  0  0  0  0
    9.4773  -16.6600   20.7623 C   0  0  0  0  0  0  0  0  0  0  0  0
   10.6266  -16.4897   20.2856 O   0  0  0  0  0  0  0  0  0  0  0  0
    9.0211  -15.8093   25.0331 O   0  0  0  0  0  0  0  0  0  0  0  0
    9.6437  -14.9579   24.1412 C   0  0  0  0  0  0  0  0  0  0  0  0
   10.1872  -15.6463   22.9282 C   0  0  2  0  0  0  0  0  0  0  0  0
    9.1959  -16.2504   22.0941 N   0  0  0  0  0  0  0  0  0  0  0  0
   11.3100  -16.5898   23.2821 C   0  0  0  0  0  0  0  0  0  0  0  0
   11.0477  -17.7898   23.4995 O   0  0  0  0  0  0  0  0  0  0  0  0
   15.2632  -15.3991   22.8302 O   0  0  0  0  0  0  0  0  0  0  0  0
   14.8568  -16.7055   22.6777 C   0  0  0  0  0  0  0  0  0  0  0  0
   13.7534  -17.0698   23.6762 C   0  0  2  0  0  0  0  0  0  0  0  0
   12.6432  -16.1725   23.3774 N   0  0  0  0  0  0  0  0  0  0  0  0
   14.3037  -16.8208   25.0278 C   0  0  0  0  0  0  0  0  0  0  0  0
   13.8019  -15.8805   25.6956 O   0  0  0  0  0  0  0  0  0  0  0  0
   15.3193  -17.5553   25.5787 O   0  0  0  0  0  0  0  0  0  0  0  0
  1  2  1  0
  2  3  1  0
  3  4  2  0
  5  6  1  0
  7  6  1  1
  7  9  1  0
  8  3  1  0
  8  7  1  0
  9 10  2  0
  9 14  1  0
 11 12  1  0
 13 12  1  6
 14 13  1  0
 15 13  1  0
 15 17  1  0
 16 15  2  0
M  END
$$$$
