GSS.pdb
     RDKit          3D

 17 16  0  0  1  0  0  0  0  0999 V2000
   12.4161  -18.5532   17.1699 N   0  0  0  0  0  0  0  0  0  0  0  0
   11.4796  -18.5846   18.2550 C   0  0  0  0  0  0  0  0  0  0  0  0
   11.9041  -17.6591   19.3668 C   0  0  0  0  0  0  0  0  0  0  0  0
   12.9971  -17.0449   19.2953 O   0  0  0  0  0  0  0  0  0  0  0  0
    9.0865  -16.1510   21.7768 O   0  0  0  0  0  0  0  0  0  0  0  0
   10.2961  -16.1785   22.4431 C   0  0  0  0  0  0  0  0  0  0  0  0
   11.4401  -16.6468   21.5989 C   0  0  2  0  0  0  0  0  0  0  0  0
   11.0649  -17.4806   20.5002 N   0  0  0  0  0  0  0  0  0  0  0  0
   12.5416  -17.2443   22.4392 C   0  0  0  0  0  0  0  0  0  0  0  0
   12.4786  -18.4499   22.7530 O   0  0  0  0  0  0  0  0  0  0  0  0
   15.2738  -14.7090   23.6753 O   0  0  0  0  0  0  0  0  0  0  0  0
   15.8126  -15.9754   23.7071 C   0  0  0  0  0  0  0  0  0  0  0  0
   14.7210  -17.0501   23.6915 C   0  0  2  0  0  0  0  0  0  0  0  0
   13.6391  -16.4975   22.8845 N   0  0  0  0  0  0  0  0  0  0  0  0
   14.3015  -17.2508   25.0970 C   0  0  0  0  0  0  0  0  0  0  0  0
   13.1272  -16.9228   25.4057 O   0  0  0  0  0  0  0  0  0  0  0  0
   15.1197  -17.7695   26.0644 O   0  0  0  0  0  0  0  0  0  0  0  0
  1  2  1  0
  2  3  1  0
  3  4  2  0
  5  6  1  0
  7  6  1  1
  7  9  1  0
  8  3  1  0
  8  7  1  0
  9 10  2  0
  9 14  1  0
 11 12  1  0
 13 12  1  1
 14 13  1  0
 15 13  1  0
 15 17  1  0
 16 15  2  0
M  END
$$$$
