GSS.pdb
     RDKit          3D

 17 16  0  0  1  0  0  0  0  0999 V2000
    8.0401  -17.0147   18.1527 N   0  0  0  0  0  0  0  0  0  0  0  0
    7.4836  -16.8307   19.4612 C   0  0  0  0  0  0  0  0  0  0  0  0
    8.4773  -16.1777   20.3880 C   0  0  0  0  0  0  0  0  0  0  0  0
    9.6567  -15.9737   20.0079 O   0  0  0  0  0  0  0  0  0  0  0  0
    7.6282  -15.3979   24.6129 O   0  0  0  0  0  0  0  0  0  0  0  0
    8.3561  -14.5478   23.8033 C   0  0  0  0  0  0  0  0  0  0  0  0
    8.9984  -15.2288   22.6353 C   0  0  2  0  0  0  0  0  0  0  0  0
    8.0788  -15.7913   21.6966 N   0  0  0  0  0  0  0  0  0  0  0  0
   10.0574  -16.2082   23.0777 C   0  0  0  0  0  0  0  0  0  0  0  0
    9.7930  -17.4273   23.0794 O   0  0  0  0  0  0  0  0  0  0  0  0
   14.8000  -16.8421   23.4834 O   0  0  0  0  0  0  0  0  0  0  0  0
   13.6995  -16.0283   23.3358 C   0  0  0  0  0  0  0  0  0  0  0  0
   12.4173  -16.7301   23.7946 C   0  0  2  0  0  0  0  0  0  0  0  0
   11.3331  -15.8037   23.4892 N   0  0  0  0  0  0  0  0  0  0  0  0
   12.5502  -16.9480   25.2529 C   0  0  0  0  0  0  0  0  0  0  0  0
   11.9025  -16.1862   26.0159 O   0  0  0  0  0  0  0  0  0  0  0  0
   13.3339  -17.9261   25.8038 O   0  0  0  0  0  0  0  0  0  0  0  0
  1  2  1  0
  2  3  1  0
  3  4  2  0
  5  6  1  0
  7  6  1  1
  7  9  1  0
  8  3  1  0
  8  7  1  0
  9 10  2  0
  9 14  1  0
 11 12  1  0
 13 12  1  1
 14 13  1  0
 15 13  1  0
 15 17  1  0
 16 15  2  0
M  END
$$$$
