GSS.pdb
     RDKit          3D

 17 16  0  0  1  0  0  0  0  0999 V2000
   -2.9823  -25.8778   24.8051 N   0  0  0  0  0  0  0  0  0  0  0  0
   -3.2855  -24.5263   25.1754 C   0  0  0  0  0  0  0  0  0  0  0  0
   -4.1542  -24.4816   26.4067 C   0  0  0  0  0  0  0  0  0  0  0  0
   -5.2360  -25.1186   26.4406 O   0  0  0  0  0  0  0  0  0  0  0  0
   -4.6252  -22.9040   31.0197 O   0  0  0  0  0  0  0  0  0  0  0  0
   -3.8866  -22.9005   29.8525 C   0  0  0  0  0  0  0  0  0  0  0  0
   -4.5312  -23.6488   28.7277 C   0  0  2  0  0  0  0  0  0  0  0  0
   -3.7484  -23.7160   27.5335 N   0  0  0  0  0  0  0  0  0  0  0  0
   -5.9404  -23.1708   28.4789 C   0  0  0  0  0  0  0  0  0  0  0  0
   -6.1266  -22.2059   27.7105 O   0  0  0  0  0  0  0  0  0  0  0  0
  -10.3453  -24.2399   27.6419 O   0  0  0  0  0  0  0  0  0  0  0  0
   -9.0418  -24.5104   27.9926 C   0  0  0  0  0  0  0  0  0  0  0  0
   -8.4319  -23.3672   28.8099 C   0  0  2  0  0  0  0  0  0  0  0  0
   -7.0557  -23.7686   29.0782 N   0  0  0  0  0  0  0  0  0  0  0  0
   -9.2215  -23.2685   30.0583 C   0  0  0  0  0  0  0  0  0  0  0  0
  -10.3788  -22.7826   29.9773 O   0  0  0  0  0  0  0  0  0  0  0  0
   -8.7587  -23.6753   31.2809 O   0  0  0  0  0  0  0  0  0  0  0  0
  1  2  1  0
  2  3  1  0
  3  4  2  0
  5  6  1  0
  7  6  1  1
  7  9  1  0
  8  3  1  0
  8  7  1  0
  9 10  2  0
  9 14  1  0
 11 12  1  0
 13 12  1  6
 14 13  1  0
 15 13  1  0
 15 17  1  0
 16 15  2  0
M  END
$$$$
