GSS.pdb
     RDKit          3D

 17 16  0  0  1  0  0  0  0  0999 V2000
    8.8819  -14.1668   13.8104 N   0  0  0  0  0  0  0  0  0  0  0  0
    7.9632  -14.1771   14.9110 C   0  0  0  0  0  0  0  0  0  0  0  0
    8.6764  -13.9360   16.2172 C   0  0  0  0  0  0  0  0  0  0  0  0
    9.9278  -14.0213   16.2791 O   0  0  0  0  0  0  0  0  0  0  0  0
    8.2046  -13.0756   21.0195 O   0  0  0  0  0  0  0  0  0  0  0  0
    7.5950  -13.1896   19.7853 C   0  0  0  0  0  0  0  0  0  0  0  0
    8.5438  -13.4982   18.6693 C   0  0  2  0  0  0  0  0  0  0  0  0
    7.9308  -13.6111   17.3829 N   0  0  0  0  0  0  0  0  0  0  0  0
    9.4286  -14.6739   19.0025 C   0  0  0  0  0  0  0  0  0  0  0  0
    8.9951  -15.8295   18.8215 O   0  0  0  0  0  0  0  0  0  0  0  0
   13.4450  -14.2666   19.1994 O   0  0  0  0  0  0  0  0  0  0  0  0
   12.8425  -15.4894   19.0076 C   0  0  0  0  0  0  0  0  0  0  0  0
   11.5883  -15.6389   19.8745 C   0  0  2  0  0  0  0  0  0  0  0  0
   10.7248  -14.5216   19.5097 N   0  0  0  0  0  0  0  0  0  0  0  0
   12.0316  -15.5443   21.2839 C   0  0  0  0  0  0  0  0  0  0  0  0
   11.6344  -14.5563   21.9531 O   0  0  0  0  0  0  0  0  0  0  0  0
   12.8425  -16.4686   21.8859 O   0  0  0  0  0  0  0  0  0  0  0  0
  1  2  1  0
  2  3  1  0
  3  4  2  0
  5  6  1  0
  7  6  1  1
  7  9  1  0
  8  3  1  0
  8  7  1  0
  9 10  2  0
  9 14  1  0
 11 12  1  0
 13 12  1  6
 14 13  1  0
 15 13  1  0
 15 17  1  0
 16 15  2  0
M  END
$$$$
