GSS.pdb
     RDKit          3D

 17 16  0  0  1  0  0  0  0  0999 V2000
    4.8821  -23.8758   24.8926 N   0  0  0  0  0  0  0  0  0  0  0  0
    4.3532  -22.5702   24.6258 C   0  0  0  0  0  0  0  0  0  0  0  0
    5.2665  -21.7889   23.7157 C   0  0  0  0  0  0  0  0  0  0  0  0
    6.4135  -22.2238   23.4463 O   0  0  0  0  0  0  0  0  0  0  0  0
    3.8907  -18.1706   21.9494 O   0  0  0  0  0  0  0  0  0  0  0  0
    4.9028  -18.8921   21.3469 C   0  0  0  0  0  0  0  0  0  0  0  0
    5.6546  -19.7801   22.2887 C   0  0  2  0  0  0  0  0  0  0  0  0
    4.8288  -20.5559   23.1602 N   0  0  0  0  0  0  0  0  0  0  0  0
    6.7335  -19.0230   23.0230 C   0  0  0  0  0  0  0  0  0  0  0  0
    7.6754  -18.5266   22.3730 O   0  0  0  0  0  0  0  0  0  0  0  0
    6.1046  -16.3637   25.1399 O   0  0  0  0  0  0  0  0  0  0  0  0
    6.9973  -17.0435   25.9374 C   0  0  0  0  0  0  0  0  0  0  0  0
    7.7473  -18.1210   25.1477 C   0  0  2  0  0  0  0  0  0  0  0  0
    6.7219  -18.8528   24.4127 N   0  0  0  0  0  0  0  0  0  0  0  0
    8.4225  -18.9849   26.1424 C   0  0  0  0  0  0  0  0  0  0  0  0
    8.1009  -20.2005   26.1701 O   0  0  0  0  0  0  0  0  0  0  0  0
    9.3679  -18.5302   27.0221 O   0  0  0  0  0  0  0  0  0  0  0  0
  1  2  1  0
  2  3  1  0
  3  4  2  0
  5  6  1  0
  7  6  1  1
  7  9  1  0
  8  3  1  0
  8  7  1  0
  9 10  2  0
  9 14  1  0
 11 12  1  0
 13 12  1  1
 14 13  1  0
 15 13  1  0
 15 17  1  0
 16 15  2  0
M  END
$$$$
