NSW.pdb
     RDKit          3D

 29 30  0  0  1  0  0  0  0  0999 V2000
   14.4018  -15.2171  -16.9223 N   0  0  0  0  0  0  0  0  0  0  0  0
   14.1374  -15.0220  -15.5438 C   0  0  0  0  0  0  0  0  0  0  0  0
   13.0550  -15.3535  -15.0216 O   0  0  0  0  0  0  0  0  0  0  0  0
   15.1939  -14.4007  -14.7065 C   0  0  0  0  0  0  0  0  0  0  0  0
   16.3612  -14.0673  -15.6369 C   0  0  2  0  0  0  0  0  0  0  0  0
   17.2462  -15.2064  -15.7694 N   0  0  0  0  0  0  0  0  0  0  0  0
   17.0973  -12.9537  -15.0219 C   0  0  0  0  0  0  0  0  0  0  0  0
   17.7022  -13.1532  -13.9266 O   0  0  0  0  0  0  0  0  0  0  0  0
   17.3991   -9.3422  -16.8364 O   0  0  0  0  0  0  0  0  0  0  0  0
   18.4037   -9.6135  -15.9282 C   0  0  0  0  0  0  0  0  0  0  0  0
   17.8329  -10.6086  -14.9077 C   0  0  2  0  0  0  0  0  0  0  0  0
   17.1590  -11.6455  -15.6135 N   0  0  0  0  0  0  0  0  0  0  0  0
   16.9402   -9.8243  -14.0209 C   0  0  0  0  0  0  0  0  0  0  0  0
   15.6978   -9.7884  -14.2665 O   0  0  0  0  0  0  0  0  0  0  0  0
   17.4223   -9.1050  -12.8971 N   0  0  0  0  0  0  0  0  0  0  0  0
   16.5497   -8.2672  -12.0672 C   0  0  1  0  0  0  0  0  0  0  0  0
   16.6518   -8.8292  -10.6797 C   0  0  0  0  0  0  0  0  0  0  0  0
   15.8831   -8.1431   -9.6405 C   0  0  0  0  0  0  0  0  0  0  0  0
   16.3155   -7.0075   -8.9398 C   0  0  0  0  0  0  0  0  0  0  0  0
   15.3639   -6.7079   -8.0632 N   0  0  0  0  0  0  0  0  0  0  0  0
   14.3417   -7.5770   -8.1524 C   0  0  0  0  0  0  0  0  0  0  0  0
   13.1426   -7.6858   -7.4945 C   0  0  0  0  0  0  0  0  0  0  0  0
   12.2226   -8.6695   -7.7767 C   0  0  0  0  0  0  0  0  0  0  0  0
   12.5467   -9.5717   -8.7685 C   0  0  0  0  0  0  0  0  0  0  0  0
   13.7382   -9.4952   -9.4488 C   0  0  0  0  0  0  0  0  0  0  0  0
   14.6498   -8.4961   -9.1469 C   0  0  0  0  0  0  0  0  0  0  0  0
   16.8826   -6.8475  -12.1090 C   0  0  0  0  0  0  0  0  0  0  0  0
   15.9298   -5.8517  -11.8877 O   0  0  0  0  0  0  0  0  0  0  0  0
   18.0539   -6.4830  -12.3488 O   0  0  0  0  0  0  0  0  0  0  0  0
  1  2  1  0
  2  4  1  0
  3  2  2  0
  4  5  1  0
  5  6  1  1
  7  5  1  0
  8  7  2  0
  9 10  1  0
 11 10  1  6
 11 13  1  0
 11 12  1  0
 12  7  1  0
 13 14  2  0
 15 16  1  0
 15 13  1  0
 16 17  1  1
 17 18  1  0
 18 26  1  0
 19 20  1  0
 19 18  2  0
 20 21  1  0
 21 26  2  0
 21 22  1  0
 22 23  2  0
 24 23  1  0
 25 24  2  0
 26 25  1  0
 27 28  1  0
 27 16  1  0
 29 27  2  0
M  END
$$$$
