NSW.pdb
     RDKit          3D

 29 30  0  0  1  0  0  0  0  0999 V2000
   22.0172  -13.9992  -20.0225 N   0  0  0  0  0  0  0  0  0  0  0  0
   21.4287  -12.8739  -20.6516 C   0  0  0  0  0  0  0  0  0  0  0  0
   20.6143  -12.9871  -21.5887 O   0  0  0  0  0  0  0  0  0  0  0  0
   21.8048  -11.5218  -20.1684 C   0  0  0  0  0  0  0  0  0  0  0  0
   22.1909  -10.7000  -21.3993 C   0  0  2  0  0  0  0  0  0  0  0  0
   23.4714  -11.1347  -21.9187 N   0  0  0  0  0  0  0  0  0  0  0  0
   22.2965   -9.2996  -20.9661 C   0  0  0  0  0  0  0  0  0  0  0  0
   23.2296   -8.9750  -20.1728 O   0  0  0  0  0  0  0  0  0  0  0  0
   19.3274   -6.5517  -21.5449 O   0  0  0  0  0  0  0  0  0  0  0  0
   20.5974   -6.0268  -21.6836 C   0  0  0  0  0  0  0  0  0  0  0  0
   21.5547   -6.9541  -20.9212 C   0  0  2  0  0  0  0  0  0  0  0  0
   21.3828   -8.2816  -21.4065 N   0  0  0  0  0  0  0  0  0  0  0  0
   21.2179   -6.8047  -19.4849 C   0  0  0  0  0  0  0  0  0  0  0  0
   20.7397   -7.7938  -18.8541 O   0  0  0  0  0  0  0  0  0  0  0  0
   21.4105   -5.5891  -18.7792 N   0  0  0  0  0  0  0  0  0  0  0  0
   21.0350   -5.4310  -17.3699 C   0  0  1  0  0  0  0  0  0  0  0  0
   22.0199   -6.2562  -16.5951 C   0  0  0  0  0  0  0  0  0  0  0  0
   21.8786   -6.2425  -15.1386 C   0  0  0  0  0  0  0  0  0  0  0  0
   22.3041   -5.2013  -14.3005 C   0  0  0  0  0  0  0  0  0  0  0  0
   22.0368   -5.5739  -13.0542 N   0  0  0  0  0  0  0  0  0  0  0  0
   21.4641   -6.7903  -13.0318 C   0  0  0  0  0  0  0  0  0  0  0  0
   20.9952   -7.5881  -12.0188 C   0  0  0  0  0  0  0  0  0  0  0  0
   20.4148   -8.8156  -12.2427 C   0  0  0  0  0  0  0  0  0  0  0  0
   20.3133   -9.2368  -13.5523 C   0  0  0  0  0  0  0  0  0  0  0  0
   20.7722   -8.4660  -14.5932 C   0  0  0  0  0  0  0  0  0  0  0  0
   21.3538   -7.2332  -14.3435 C   0  0  0  0  0  0  0  0  0  0  0  0
   21.0086   -4.0437  -16.9194 C   0  0  0  0  0  0  0  0  0  0  0  0
   20.2028   -3.6188  -15.8618 O   0  0  0  0  0  0  0  0  0  0  0  0
   21.7225   -3.1859  -17.4823 O   0  0  0  0  0  0  0  0  0  0  0  0
  1  2  1  0
  2  4  1  0
  3  2  2  0
  4  5  1  0
  5  6  1  1
  7  5  1  0
  8  7  2  0
  9 10  1  0
 11 10  1  6
 11 13  1  0
 11 12  1  0
 12  7  1  0
 13 14  2  0
 15 16  1  0
 15 13  1  0
 16 17  1  1
 17 18  1  0
 18 26  1  0
 19 20  1  0
 19 18  2  0
 20 21  1  0
 21 26  2  0
 21 22  1  0
 22 23  2  0
 24 23  1  0
 25 24  2  0
 26 25  1  0
 27 28  1  0
 27 16  1  0
 29 27  2  0
M  END
$$$$
