NSW.pdb
     RDKit          3D

 29 30  0  0  1  0  0  0  0  0999 V2000
   30.2804  -21.6040  -18.6392 N   0  0  0  0  0  0  0  0  0  0  0  0
   29.1294  -20.7865  -18.5149 C   0  0  0  0  0  0  0  0  0  0  0  0
   28.3633  -20.5677  -19.4736 O   0  0  0  0  0  0  0  0  0  0  0  0
   28.8400  -20.1766  -17.1930 C   0  0  0  0  0  0  0  0  0  0  0  0
   27.9300  -21.1505  -16.4426 C   0  0  2  0  0  0  0  0  0  0  0  0
   26.6515  -21.2700  -17.1132 N   0  0  0  0  0  0  0  0  0  0  0  0
   27.7194  -20.5942  -15.0986 C   0  0  0  0  0  0  0  0  0  0  0  0
   28.7308  -20.3074  -14.3916 O   0  0  0  0  0  0  0  0  0  0  0  0
   23.9958  -20.0857  -13.5608 O   0  0  0  0  0  0  0  0  0  0  0  0
   24.9138  -19.1586  -13.1074 C   0  0  0  0  0  0  0  0  0  0  0  0
   26.3046  -19.7927  -13.2521 C   0  0  2  0  0  0  0  0  0  0  0  0
   26.4104  -20.3620  -14.5528 N   0  0  0  0  0  0  0  0  0  0  0  0
   26.4187  -20.7912  -12.1619 C   0  0  0  0  0  0  0  0  0  0  0  0
   26.3693  -22.0254  -12.4438 O   0  0  0  0  0  0  0  0  0  0  0  0
   26.5829  -20.4202  -10.8024 N   0  0  0  0  0  0  0  0  0  0  0  0
   26.3298  -21.3518   -9.6978 C   0  0  1  0  0  0  0  0  0  0  0  0
   27.5480  -21.2822   -8.8245 C   0  0  0  0  0  0  0  0  0  0  0  0
   27.5820  -20.2017   -7.8382 C   0  0  0  0  0  0  0  0  0  0  0  0
   26.8015  -19.0376   -7.8953 C   0  0  0  0  0  0  0  0  0  0  0  0
   27.1425  -18.2914   -6.8510 N   0  0  0  0  0  0  0  0  0  0  0  0
   28.0938  -18.8989   -6.1202 C   0  0  0  0  0  0  0  0  0  0  0  0
   28.7511  -18.5571   -4.9653 C   0  0  0  0  0  0  0  0  0  0  0  0
   29.6943  -19.3670   -4.3753 C   0  0  0  0  0  0  0  0  0  0  0  0
   29.9709  -20.5686   -4.9936 C   0  0  0  0  0  0  0  0  0  0  0  0
   29.3337  -20.9449   -6.1515 C   0  0  0  0  0  0  0  0  0  0  0  0
   28.3876  -20.1125   -6.7281 C   0  0  0  0  0  0  0  0  0  0  0  0
   25.1068  -21.0670   -8.9554 C   0  0  0  0  0  0  0  0  0  0  0  0
   24.5341  -21.9910   -8.0798 O   0  0  0  0  0  0  0  0  0  0  0  0
   24.5318  -19.9653   -9.0894 O   0  0  0  0  0  0  0  0  0  0  0  0
  1  2  1  0
  2  4  1  0
  3  2  2  0
  4  5  1  0
  5  6  1  6
  7  5  1  0
  8  7  2  0
  9 10  1  0
 11 10  1  6
 11 13  1  0
 11 12  1  0
 12  7  1  0
 13 14  2  0
 15 16  1  0
 15 13  1  0
 16 17  1  1
 17 18  1  0
 18 26  1  0
 19 20  1  0
 19 18  2  0
 20 21  1  0
 21 26  2  0
 21 22  1  0
 22 23  2  0
 24 23  1  0
 25 24  2  0
 26 25  1  0
 27 28  1  0
 27 16  1  0
 29 27  2  0
M  END
$$$$
