NSW.pdb
     RDKit          3D

 29 30  0  0  1  0  0  0  0  0999 V2000
   28.9466  -24.1592  -19.3425 N   0  0  0  0  0  0  0  0  0  0  0  0
   29.8961  -24.4735  -18.3385 C   0  0  0  0  0  0  0  0  0  0  0  0
   30.5629  -25.5266  -18.3610 O   0  0  0  0  0  0  0  0  0  0  0  0
   30.0916  -23.5072  -17.2289 C   0  0  0  0  0  0  0  0  0  0  0  0
   29.1572  -22.3262  -17.4966 C   0  0  2  0  0  0  0  0  0  0  0  0
   29.8193  -21.3300  -18.3136 N   0  0  0  0  0  0  0  0  0  0  0  0
   28.8244  -21.7363  -16.1921 C   0  0  0  0  0  0  0  0  0  0  0  0
   29.2511  -22.3002  -15.1409 O   0  0  0  0  0  0  0  0  0  0  0  0
   26.3199  -18.5522  -15.8541 O   0  0  0  0  0  0  0  0  0  0  0  0
   27.2881  -18.5933  -14.8699 C   0  0  0  0  0  0  0  0  0  0  0  0
   27.7522  -20.0524  -14.7541 C   0  0  2  0  0  0  0  0  0  0  0  0
   28.0333  -20.5439  -16.0605 N   0  0  0  0  0  0  0  0  0  0  0  0
   26.6547  -20.7821  -14.0746 C   0  0  0  0  0  0  0  0  0  0  0  0
   25.9052  -21.5461  -14.7526 O   0  0  0  0  0  0  0  0  0  0  0  0
   26.4053  -20.6606  -12.6833 N   0  0  0  0  0  0  0  0  0  0  0  0
   25.2760  -21.3278  -12.0264 C   0  0  1  0  0  0  0  0  0  0  0  0
   25.8395  -21.9376  -10.7766 C   0  0  0  0  0  0  0  0  0  0  0  0
   26.2578  -21.0062   -9.7283 C   0  0  0  0  0  0  0  0  0  0  0  0
   25.4446  -20.0098   -9.1682 C   0  0  0  0  0  0  0  0  0  0  0  0
   26.1885  -19.3545   -8.2847 N   0  0  0  0  0  0  0  0  0  0  0  0
   27.4320  -19.8639   -8.2359 C   0  0  0  0  0  0  0  0  0  0  0  0
   28.5427  -19.5579   -7.4907 C   0  0  0  0  0  0  0  0  0  0  0  0
   29.7284  -20.2478   -7.5998 C   0  0  0  0  0  0  0  0  0  0  0  0
   29.7734  -21.2870   -8.5057 C   0  0  0  0  0  0  0  0  0  0  0  0
   28.6819  -21.6225   -9.2701 C   0  0  0  0  0  0  0  0  0  0  0  0
   27.4983  -20.9129   -9.1435 C   0  0  0  0  0  0  0  0  0  0  0  0
   24.1513  -20.4424  -11.7448 C   0  0  0  0  0  0  0  0  0  0  0  0
   22.8667  -20.9265  -11.4923 O   0  0  0  0  0  0  0  0  0  0  0  0
   24.3164  -19.2036  -11.7227 O   0  0  0  0  0  0  0  0  0  0  0  0
  1  2  1  0
  2  4  1  0
  3  2  2  0
  4  5  1  0
  5  6  1  6
  7  5  1  0
  8  7  2  0
  9 10  1  0
 11 10  1  6
 11 13  1  0
 11 12  1  0
 12  7  1  0
 13 14  2  0
 15 16  1  0
 15 13  1  0
 16 17  1  1
 17 18  1  0
 18 26  1  0
 19 20  1  0
 19 18  2  0
 20 21  1  0
 21 26  2  0
 21 22  1  0
 22 23  2  0
 24 23  1  0
 25 24  2  0
 26 25  1  0
 27 28  1  0
 27 16  1  0
 29 27  2  0
M  END
$$$$
