NSW.pdb
     RDKit          3D

 29 30  0  0  1  0  0  0  0  0999 V2000
   20.5567  -17.3080  -15.0125 N   0  0  0  0  0  0  0  0  0  0  0  0
   19.9714  -18.4172  -14.3527 C   0  0  0  0  0  0  0  0  0  0  0  0
   18.8209  -18.8169  -14.6184 O   0  0  0  0  0  0  0  0  0  0  0  0
   20.7667  -19.1160  -13.3123 C   0  0  0  0  0  0  0  0  0  0  0  0
   22.1508  -19.3761  -13.9093 C   0  0  2  0  0  0  0  0  0  0  0  0
   22.0363  -20.0907  -15.1642 N   0  0  0  0  0  0  0  0  0  0  0  0
   22.8856  -20.2081  -12.9460 C   0  0  0  0  0  0  0  0  0  0  0  0
   22.5911  -20.1227  -11.7167 O   0  0  0  0  0  0  0  0  0  0  0  0
   24.5975  -23.7137  -13.7345 O   0  0  0  0  0  0  0  0  0  0  0  0
   25.4675  -22.9292  -13.0028 C   0  0  0  0  0  0  0  0  0  0  0  0
   24.6295  -21.8314  -12.3319 C   0  0  2  0  0  0  0  0  0  0  0  0
   23.9266  -21.1160  -13.3426 N   0  0  0  0  0  0  0  0  0  0  0  0
   25.5845  -20.9896  -11.5716 C   0  0  0  0  0  0  0  0  0  0  0  0
   26.0656  -19.9516  -12.1159 O   0  0  0  0  0  0  0  0  0  0  0  0
   25.9867  -21.2994  -10.2468 N   0  0  0  0  0  0  0  0  0  0  0  0
   26.8951  -20.4398   -9.4802 C   0  0  1  0  0  0  0  0  0  0  0  0
   26.3123  -20.3671   -8.0995 C   0  0  0  0  0  0  0  0  0  0  0  0
   27.0687  -19.5956   -7.1125 C   0  0  0  0  0  0  0  0  0  0  0  0
   27.2650  -18.2074   -7.1577 C   0  0  0  0  0  0  0  0  0  0  0  0
   28.0271  -17.8902   -6.1174 N   0  0  0  0  0  0  0  0  0  0  0  0
   28.3361  -18.9850   -5.4004 C   0  0  0  0  0  0  0  0  0  0  0  0
   29.0646  -19.1811   -4.2543 C   0  0  0  0  0  0  0  0  0  0  0  0
   29.2311  -20.4197   -3.6781 C   0  0  0  0  0  0  0  0  0  0  0  0
   28.6284  -21.4925   -4.3015 C   0  0  0  0  0  0  0  0  0  0  0  0
   27.8918  -21.3354   -5.4508 C   0  0  0  0  0  0  0  0  0  0  0  0
   27.7384  -20.0783   -6.0135 C   0  0  0  0  0  0  0  0  0  0  0  0
   28.2773  -20.9064   -9.4675 C   0  0  0  0  0  0  0  0  0  0  0  0
   28.6081  -22.2593   -9.5606 O   0  0  0  0  0  0  0  0  0  0  0  0
   29.2166  -20.0874   -9.3710 O   0  0  0  0  0  0  0  0  0  0  0  0
  1  2  1  0
  2  4  1  0
  3  2  2  0
  4  5  1  0
  5  6  1  6
  7  5  1  0
  8  7  2  0
  9 10  1  0
 11 10  1  6
 11 13  1  0
 11 12  1  0
 12  7  1  0
 13 14  2  0
 15 16  1  0
 15 13  1  0
 16 17  1  1
 17 18  1  0
 18 26  1  0
 19 20  1  0
 19 18  2  0
 20 21  1  0
 21 26  2  0
 21 22  1  0
 22 23  2  0
 24 23  1  0
 25 24  2  0
 26 25  1  0
 27 28  1  0
 27 16  1  0
 29 27  2  0
M  END
$$$$
