NSW.pdb
     RDKit          3D

 29 30  0  0  1  0  0  0  0  0999 V2000
   31.1400  -16.7172  -18.3560 N   0  0  0  0  0  0  0  0  0  0  0  0
   29.9022  -16.0486  -18.1850 C   0  0  0  0  0  0  0  0  0  0  0  0
   29.3864  -15.3640  -19.0902 O   0  0  0  0  0  0  0  0  0  0  0  0
   29.2087  -16.1767  -16.8790 C   0  0  0  0  0  0  0  0  0  0  0  0
   28.8779  -17.6585  -16.6935 C   0  0  2  0  0  0  0  0  0  0  0  0
   27.8587  -18.0730  -17.6358 N   0  0  0  0  0  0  0  0  0  0  0  0
   28.3631  -17.8167  -15.3259 C   0  0  0  0  0  0  0  0  0  0  0  0
   29.0832  -17.4368  -14.3552 O   0  0  0  0  0  0  0  0  0  0  0  0
   24.6095  -19.2246  -14.5829 O   0  0  0  0  0  0  0  0  0  0  0  0
   25.1127  -18.3328  -13.6560 C   0  0  0  0  0  0  0  0  0  0  0  0
   26.6424  -18.4617  -13.6899 C   0  0  2  0  0  0  0  0  0  0  0  0
   27.0739  -18.3859  -15.0447 N   0  0  0  0  0  0  0  0  0  0  0  0
   26.9622  -19.7567  -13.0423 C   0  0  0  0  0  0  0  0  0  0  0  0
   27.2459  -20.7580  -13.7649 O   0  0  0  0  0  0  0  0  0  0  0  0
   26.9645  -19.9245  -11.6335 N   0  0  0  0  0  0  0  0  0  0  0  0
   27.0739  -21.2429  -10.9996 C   0  0  1  0  0  0  0  0  0  0  0  0
   27.9428  -21.0395   -9.7934 C   0  0  0  0  0  0  0  0  0  0  0  0
   27.3054  -20.4281   -8.6266 C   0  0  0  0  0  0  0  0  0  0  0  0
   26.0303  -19.8437   -8.6224 C   0  0  0  0  0  0  0  0  0  0  0  0
   25.8250  -19.3714   -7.3983 N   0  0  0  0  0  0  0  0  0  0  0  0
   26.8861  -19.6139   -6.6087 C   0  0  0  0  0  0  0  0  0  0  0  0
   27.1538  -19.3489   -5.2894 C   0  0  0  0  0  0  0  0  0  0  0  0
   28.3290  -19.7196   -4.6769 C   0  0  0  0  0  0  0  0  0  0  0  0
   29.2601  -20.3850   -5.4469 C   0  0  0  0  0  0  0  0  0  0  0  0
   29.0280  -20.6674   -6.7716 C   0  0  0  0  0  0  0  0  0  0  0  0
   27.8372  -20.2836   -7.3674 C   0  0  0  0  0  0  0  0  0  0  0  0
   25.7880  -21.8390  -10.6541 C   0  0  0  0  0  0  0  0  0  0  0  0
   24.6037  -21.1003  -10.6402 O   0  0  0  0  0  0  0  0  0  0  0  0
   25.7163  -23.0509  -10.3565 O   0  0  0  0  0  0  0  0  0  0  0  0
  1  2  1  0
  2  4  1  0
  3  2  2  0
  4  5  1  0
  5  6  1  6
  7  5  1  0
  8  7  2  0
  9 10  1  0
 11 10  1  6
 11 13  1  0
 11 12  1  0
 12  7  1  0
 13 14  2  0
 15 16  1  0
 15 13  1  0
 16 17  1  1
 17 18  1  0
 18 26  1  0
 19 20  1  0
 19 18  2  0
 20 21  1  0
 21 26  2  0
 21 22  1  0
 22 23  2  0
 24 23  1  0
 25 24  2  0
 26 25  1  0
 27 28  1  0
 27 16  1  0
 29 27  2  0
M  END
$$$$
