NSW.pdb
     RDKit          3D

 29 30  0  0  1  0  0  0  0  0999 V2000
   20.3188  -30.3006  -11.4511 N   0  0  0  0  0  0  0  0  0  0  0  0
   19.9742  -30.4231  -10.0820 C   0  0  0  0  0  0  0  0  0  0  0  0
   19.1827  -29.6385   -9.5234 O   0  0  0  0  0  0  0  0  0  0  0  0
   20.5848  -31.5269   -9.2996 C   0  0  0  0  0  0  0  0  0  0  0  0
   21.4904  -32.3036  -10.2567 C   0  0  2  0  0  0  0  0  0  0  0  0
   20.6977  -33.0781  -11.1895 N   0  0  0  0  0  0  0  0  0  0  0  0
   22.2998  -33.2169   -9.4376 C   0  0  0  0  0  0  0  0  0  0  0  0
   21.7555  -34.2602   -8.9682 O   0  0  0  0  0  0  0  0  0  0  0  0
   25.9146  -32.2080   -7.7869 O   0  0  0  0  0  0  0  0  0  0  0  0
   25.8644  -33.4985   -8.2766 C   0  0  0  0  0  0  0  0  0  0  0  0
   24.3845  -33.9050   -8.3267 C   0  0  2  0  0  0  0  0  0  0  0  0
   23.6861  -32.9739   -9.1469 N   0  0  0  0  0  0  0  0  0  0  0  0
   23.9127  -33.9202   -6.9211 C   0  0  0  0  0  0  0  0  0  0  0  0
   23.2472  -32.9366   -6.4797 O   0  0  0  0  0  0  0  0  0  0  0  0
   24.1767  -35.0004   -6.0400 N   0  0  0  0  0  0  0  0  0  0  0  0
   23.5916  -35.0798   -4.6971 C   0  0  1  0  0  0  0  0  0  0  0  0
   22.1058  -35.1019   -4.9054 C   0  0  0  0  0  0  0  0  0  0  0  0
   21.2853  -35.3559   -3.7205 C   0  0  0  0  0  0  0  0  0  0  0  0
   21.3710  -34.6416   -2.5164 C   0  0  0  0  0  0  0  0  0  0  0  0
   20.4982  -35.1891   -1.6786 N   0  0  0  0  0  0  0  0  0  0  0  0
   19.8515  -36.2124   -2.2642 C   0  0  0  0  0  0  0  0  0  0  0  0
   18.8670  -37.0675   -1.8372 C   0  0  0  0  0  0  0  0  0  0  0  0
   18.3307  -38.0487   -2.6393 C   0  0  0  0  0  0  0  0  0  0  0  0
   18.8233  -38.1541   -3.9234 C   0  0  0  0  0  0  0  0  0  0  0  0
   19.8093  -37.3165   -4.3863 C   0  0  0  0  0  0  0  0  0  0  0  0
   20.3350  -36.3359   -3.5601 C   0  0  0  0  0  0  0  0  0  0  0  0
   24.0529  -36.2252   -3.9203 C   0  0  0  0  0  0  0  0  0  0  0  0
   24.2531  -36.1580   -2.5405 O   0  0  0  0  0  0  0  0  0  0  0  0
   24.2839  -37.3161   -4.4850 O   0  0  0  0  0  0  0  0  0  0  0  0
  1  2  1  0
  2  4  1  0
  3  2  2  0
  4  5  1  0
  5  6  1  6
  7  5  1  0
  8  7  2  0
  9 10  1  0
 11 10  1  1
 11 13  1  0
 11 12  1  0
 12  7  1  0
 13 14  2  0
 15 16  1  0
 15 13  1  0
 16 17  1  6
 17 18  1  0
 18 26  1  0
 19 20  1  0
 19 18  2  0
 20 21  1  0
 21 26  2  0
 21 22  1  0
 22 23  2  0
 24 23  1  0
 25 24  2  0
 26 25  1  0
 27 28  1  0
 27 16  1  0
 29 27  2  0
M  END
$$$$
