NSW.pdb
     RDKit          3D

 29 30  0  0  1  0  0  0  0  0999 V2000
   28.1932  -22.8717  -18.9073 N   0  0  0  0  0  0  0  0  0  0  0  0
   29.4558  -22.4200  -18.4488 C   0  0  0  0  0  0  0  0  0  0  0  0
   30.4809  -22.4840  -19.1553 O   0  0  0  0  0  0  0  0  0  0  0  0
   29.5452  -21.8550  -17.0791 C   0  0  0  0  0  0  0  0  0  0  0  0
   28.1420  -21.9276  -16.4746 C   0  0  2  0  0  0  0  0  0  0  0  0
   27.2188  -21.1105  -17.2351 N   0  0  0  0  0  0  0  0  0  0  0  0
   28.2356  -21.4021  -15.1052 C   0  0  0  0  0  0  0  0  0  0  0  0
   29.2009  -21.7739  -14.3737 O   0  0  0  0  0  0  0  0  0  0  0  0
   25.7626  -18.4725  -13.7662 O   0  0  0  0  0  0  0  0  0  0  0  0
   27.0141  -18.5292  -13.1846 C   0  0  0  0  0  0  0  0  0  0  0  0
   27.4706  -19.9942  -13.2381 C   0  0  2  0  0  0  0  0  0  0  0  0
   27.2748  -20.4822  -14.5613 N   0  0  0  0  0  0  0  0  0  0  0  0
   26.6676  -20.7144  -12.2207 C   0  0  0  0  0  0  0  0  0  0  0  0
   25.6389  -21.3583  -12.5847 O   0  0  0  0  0  0  0  0  0  0  0  0
   27.0052  -20.7139  -10.8427 N   0  0  0  0  0  0  0  0  0  0  0  0
   26.1378  -21.3106   -9.8212 C   0  0  1  0  0  0  0  0  0  0  0  0
   27.0138  -21.5211   -8.6213 C   0  0  0  0  0  0  0  0  0  0  0  0
   27.2343  -20.3566   -7.7629 C   0  0  0  0  0  0  0  0  0  0  0  0
   26.7145  -19.0753   -7.9988 C   0  0  0  0  0  0  0  0  0  0  0  0
   27.1637  -18.2903   -7.0264 N   0  0  0  0  0  0  0  0  0  0  0  0
   27.9408  -18.9822   -6.1746 C   0  0  0  0  0  0  0  0  0  0  0  0
   28.6114  -18.6403   -5.0275 C   0  0  0  0  0  0  0  0  0  0  0  0
   29.3438  -19.5445   -4.2930 C   0  0  0  0  0  0  0  0  0  0  0  0
   29.3883  -20.8439   -4.7536 C   0  0  0  0  0  0  0  0  0  0  0  0
   28.7303  -21.2239   -5.8986 C   0  0  0  0  0  0  0  0  0  0  0  0
   27.9992  -20.2955   -6.6225 C   0  0  0  0  0  0  0  0  0  0  0  0
   24.9608  -20.5084   -9.5060 C   0  0  0  0  0  0  0  0  0  0  0  0
   23.8966  -21.0096   -8.7545 O   0  0  0  0  0  0  0  0  0  0  0  0
   24.8772  -19.3286   -9.9103 O   0  0  0  0  0  0  0  0  0  0  0  0
  1  2  1  0
  2  4  1  0
  3  2  2  0
  4  5  1  0
  5  6  1  6
  7  5  1  0
  8  7  2  0
  9 10  1  0
 11 10  1  6
 11 13  1  0
 11 12  1  0
 12  7  1  0
 13 14  2  0
 15 16  1  0
 15 13  1  0
 16 17  1  1
 17 18  1  0
 18 26  1  0
 19 20  1  0
 19 18  2  0
 20 21  1  0
 21 26  2  0
 21 22  1  0
 22 23  2  0
 24 23  1  0
 25 24  2  0
 26 25  1  0
 27 28  1  0
 27 16  1  0
 29 27  2  0
M  END
$$$$
