NSW.pdb
     RDKit          3D

 29 30  0  0  1  0  0  0  0  0999 V2000
   28.6211  -23.8712  -18.6443 N   0  0  0  0  0  0  0  0  0  0  0  0
   29.8450  -23.3663  -18.1388 C   0  0  0  0  0  0  0  0  0  0  0  0
   30.9501  -23.7413  -18.5774 O   0  0  0  0  0  0  0  0  0  0  0  0
   29.7936  -22.3585  -17.0503 C   0  0  0  0  0  0  0  0  0  0  0  0
   28.3397  -22.2831  -16.5812 C   0  0  2  0  0  0  0  0  0  0  0  0
   27.5274  -21.5842  -17.5559 N   0  0  0  0  0  0  0  0  0  0  0  0
   28.3332  -21.5299  -15.3191 C   0  0  0  0  0  0  0  0  0  0  0  0
   29.0595  -21.9348  -14.3632 O   0  0  0  0  0  0  0  0  0  0  0  0
   27.6861  -17.4930  -14.7157 O   0  0  0  0  0  0  0  0  0  0  0  0
   26.8670  -18.3383  -13.9931 C   0  0  0  0  0  0  0  0  0  0  0  0
   27.6007  -19.6814  -13.8699 C   0  0  2  0  0  0  0  0  0  0  0  0
   27.5350  -20.3507  -15.1250 N   0  0  0  0  0  0  0  0  0  0  0  0
   26.9288  -20.4199  -12.7736 C   0  0  0  0  0  0  0  0  0  0  0  0
   25.8928  -21.1027  -13.0298 O   0  0  0  0  0  0  0  0  0  0  0  0
   27.4013  -20.3950  -11.4361 N   0  0  0  0  0  0  0  0  0  0  0  0
   26.7499  -21.1476  -10.3586 C   0  0  1  0  0  0  0  0  0  0  0  0
   27.7250  -21.1449   -9.2182 C   0  0  0  0  0  0  0  0  0  0  0  0
   27.1630  -20.9545   -7.8806 C   0  0  0  0  0  0  0  0  0  0  0  0
   25.8530  -21.2871   -7.5052 C   0  0  0  0  0  0  0  0  0  0  0  0
   25.7130  -20.9326   -6.2332 N   0  0  0  0  0  0  0  0  0  0  0  0
   26.8498  -20.3924   -5.7600 C   0  0  0  0  0  0  0  0  0  0  0  0
   27.2141  -19.8982   -4.5330 C   0  0  0  0  0  0  0  0  0  0  0  0
   28.4712  -19.4038   -4.2703 C   0  0  0  0  0  0  0  0  0  0  0  0
   29.3842  -19.4179   -5.3041 C   0  0  0  0  0  0  0  0  0  0  0  0
   29.0560  -19.9042   -6.5468 C   0  0  0  0  0  0  0  0  0  0  0  0
   27.7833  -20.3965   -6.7883 C   0  0  0  0  0  0  0  0  0  0  0  0
   25.4498  -20.6127   -9.9689 C   0  0  0  0  0  0  0  0  0  0  0  0
   24.4112  -21.4307   -9.5210 O   0  0  0  0  0  0  0  0  0  0  0  0
   25.2322  -19.3833  -10.0284 O   0  0  0  0  0  0  0  0  0  0  0  0
  1  2  1  0
  2  4  1  0
  3  2  2  0
  4  5  1  0
  5  6  1  6
  7  5  1  0
  8  7  2  0
  9 10  1  0
 11 10  1  6
 11 13  1  0
 11 12  1  0
 12  7  1  0
 13 14  2  0
 15 16  1  0
 15 13  1  0
 16 17  1  1
 17 18  1  0
 18 26  1  0
 19 20  1  0
 19 18  2  0
 20 21  1  0
 21 26  2  0
 21 22  1  0
 22 23  2  0
 24 23  1  0
 25 24  2  0
 26 25  1  0
 27 28  1  0
 27 16  1  0
 29 27  2  0
M  END
$$$$
