NSW.pdb
     RDKit          3D

 29 30  0  0  1  0  0  0  0  0999 V2000
   16.9476  -26.8154    4.3331 N   0  0  0  0  0  0  0  0  0  0  0  0
   16.8018  -25.9799    3.1978 C   0  0  0  0  0  0  0  0  0  0  0  0
   16.6974  -26.4395    2.0437 O   0  0  0  0  0  0  0  0  0  0  0  0
   16.7749  -24.5104    3.4054 C   0  0  0  0  0  0  0  0  0  0  0  0
   15.3042  -24.0907    3.4301 C   0  0  2  0  0  0  0  0  0  0  0  0
   14.7284  -24.1799    2.1039 N   0  0  0  0  0  0  0  0  0  0  0  0
   15.2631  -22.6923    3.8806 C   0  0  0  0  0  0  0  0  0  0  0  0
   15.0407  -21.7827    3.0272 O   0  0  0  0  0  0  0  0  0  0  0  0
   16.1912  -21.5718    7.6762 O   0  0  0  0  0  0  0  0  0  0  0  0
   15.0923  -20.9087    7.1660 C   0  0  0  0  0  0  0  0  0  0  0  0
   15.1992  -20.9690    5.6355 C   0  0  2  0  0  0  0  0  0  0  0  0
   15.4655  -22.3142    5.2522 N   0  0  0  0  0  0  0  0  0  0  0  0
   16.2793  -20.0254    5.2595 C   0  0  0  0  0  0  0  0  0  0  0  0
   17.4210  -20.4805    4.9521 O   0  0  0  0  0  0  0  0  0  0  0  0
   16.0874  -18.6201    5.2284 N   0  0  0  0  0  0  0  0  0  0  0  0
   17.1893  -17.6818    4.9892 C   0  0  1  0  0  0  0  0  0  0  0  0
   16.6920  -16.7360    3.9358 C   0  0  0  0  0  0  0  0  0  0  0  0
   17.6639  -15.7764    3.4102 C   0  0  0  0  0  0  0  0  0  0  0  0
   18.5029  -16.0046    2.3096 C   0  0  0  0  0  0  0  0  0  0  0  0
   19.2591  -14.9221    2.1683 N   0  0  0  0  0  0  0  0  0  0  0  0
   18.9623  -14.0064    3.1072 C   0  0  0  0  0  0  0  0  0  0  0  0
   19.4369  -12.7466    3.3722 C   0  0  0  0  0  0  0  0  0  0  0  0
   18.9550  -11.9679    4.3994 C   0  0  0  0  0  0  0  0  0  0  0  0
   17.9515  -12.5027    5.1803 C   0  0  0  0  0  0  0  0  0  0  0  0
   17.4513  -13.7609    4.9459 C   0  0  0  0  0  0  0  0  0  0  0  0
   17.9527  -14.5273    3.9059 C   0  0  0  0  0  0  0  0  0  0  0  0
   17.6367  -16.9806    6.1877 C   0  0  0  0  0  0  0  0  0  0  0  0
   16.7431  -16.4847    7.1384 O   0  0  0  0  0  0  0  0  0  0  0  0
   18.8568  -16.8047    6.3948 O   0  0  0  0  0  0  0  0  0  0  0  0
  1  2  1  0
  2  4  1  0
  3  2  2  0
  4  5  1  0
  5  6  1  6
  7  5  1  0
  8  7  2  0
  9 10  1  0
 11 10  1  1
 11 13  1  0
 11 12  1  0
 12  7  1  0
 13 14  2  0
 15 16  1  0
 15 13  1  0
 16 17  1  6
 17 18  1  0
 18 26  1  0
 19 20  1  0
 19 18  2  0
 20 21  1  0
 21 26  2  0
 21 22  1  0
 22 23  2  0
 24 23  1  0
 25 24  2  0
 26 25  1  0
 27 28  1  0
 27 16  1  0
 29 27  2  0
M  END
$$$$
