QGT.pdb
     RDKit          3D

 21 20  0  0  1  0  0  0  0  0999 V2000
   13.9946  -14.6393  -12.4036 N   0  0  0  0  0  0  0  0  0  0  0  0
   14.2315  -15.1898  -13.7190 C   0  0  0  0  0  0  0  0  0  0  0  0
   13.4246  -16.0642  -14.0963 O   0  0  0  0  0  0  0  0  0  0  0  0
   15.3575  -14.7210  -14.5076 C   0  0  0  0  0  0  0  0  0  0  0  0
   16.2107  -13.6332  -13.9350 C   0  0  0  0  0  0  0  0  0  0  0  0
   15.4565  -12.3686  -13.7799 C   0  0  2  0  0  0  0  0  0  0  0  0
   15.1512  -11.7672  -15.0410 N   0  0  0  0  0  0  0  0  0  0  0  0
   16.1137  -11.3845  -12.8939 C   0  0  0  0  0  0  0  0  0  0  0  0
   16.4733  -11.6796  -11.7196 O   0  0  0  0  0  0  0  0  0  0  0  0
   16.3508  -10.0697  -13.3639 N   0  0  0  0  0  0  0  0  0  0  0  0
   17.0706   -9.0995  -12.5628 C   0  0  0  0  0  0  0  0  0  0  0  0
   16.1972   -8.1032  -11.9103 C   0  0  0  0  0  0  0  0  0  0  0  0
   15.0046   -7.9129  -12.3275 O   0  0  0  0  0  0  0  0  0  0  0  0
   15.1989   -7.6975   -8.1917 C   0  0  0  0  0  0  0  0  0  0  0  0
   15.7818   -6.4107   -8.7026 C   0  0  1  0  0  0  0  0  0  0  0  0
   17.1435   -6.3240   -8.3533 O   0  0  0  0  0  0  0  0  0  0  0  0
   15.7305   -6.3632  -10.2126 C   0  0  2  0  0  0  0  0  0  0  0  0
   16.6298   -7.3229  -10.8151 N   0  0  0  0  0  0  0  0  0  0  0  0
   15.9752   -4.9943  -10.7312 C   0  0  0  0  0  0  0  0  0  0  0  0
   16.9733   -4.7776  -11.4632 O   0  0  0  0  0  0  0  0  0  0  0  0
   15.1428   -3.9317  -10.4413 O   0  0  0  0  0  0  0  0  0  0  0  0
  1  2  1  0
  2  3  2  0
  4  5  1  0
  4  2  1  0
  6  5  1  0
  6  7  1  6
  8  9  2  0
  8  6  1  0
 10  8  1  0
 11 10  1  0
 11 12  1  0
 12 18  1  0
 13 12  2  0
 15 16  1  0
 15 14  1  6
 17 15  1  0
 17 19  1  0
 17 18  1  6
 19 20  2  0
 19 21  1  0
M  END
$$$$
