QGT.pdb
     RDKit          3D

 21 20  0  0  1  0  0  0  0  0999 V2000
   13.7847  -13.6628  -16.4319 N   0  0  0  0  0  0  0  0  0  0  0  0
   14.6742  -14.1930  -15.4235 C   0  0  0  0  0  0  0  0  0  0  0  0
   14.2818  -15.2242  -14.8397 O   0  0  0  0  0  0  0  0  0  0  0  0
   15.9324  -13.5235  -15.1440 C   0  0  0  0  0  0  0  0  0  0  0  0
   16.1982  -12.2172  -15.8237 C   0  0  0  0  0  0  0  0  0  0  0  0
   17.6456  -11.9102  -15.8756 C   0  0  2  0  0  0  0  0  0  0  0  0
   18.2781  -12.0878  -14.6053 N   0  0  0  0  0  0  0  0  0  0  0  0
   17.9541  -10.5681  -16.4131 C   0  0  0  0  0  0  0  0  0  0  0  0
   17.7051  -10.2560  -17.6114 O   0  0  0  0  0  0  0  0  0  0  0  0
   18.5471   -9.5967  -15.5700 N   0  0  0  0  0  0  0  0  0  0  0  0
   18.8462   -8.2619  -16.0495 C   0  0  0  0  0  0  0  0  0  0  0  0
   19.4426   -7.3823  -15.0240 C   0  0  0  0  0  0  0  0  0  0  0  0
   19.2654   -7.6208  -13.7813 O   0  0  0  0  0  0  0  0  0  0  0  0
   22.5904   -7.4733  -14.0285 C   0  0  0  0  0  0  0  0  0  0  0  0
   22.4574   -6.0190  -14.3804 C   0  0  1  0  0  0  0  0  0  0  0  0
   22.8972   -5.7983  -15.7002 O   0  0  0  0  0  0  0  0  0  0  0  0
   21.0084   -5.5904  -14.3422 C   0  0  2  0  0  0  0  0  0  0  0  0
   20.2211   -6.2523  -15.3595 N   0  0  0  0  0  0  0  0  0  0  0  0
   20.8659   -4.1153  -14.4239 C   0  0  0  0  0  0  0  0  0  0  0  0
   20.2999   -3.6012  -15.4210 O   0  0  0  0  0  0  0  0  0  0  0  0
   21.3343   -3.2693  -13.4386 O   0  0  0  0  0  0  0  0  0  0  0  0
  1  2  1  0
  2  3  2  0
  4  5  1  0
  4  2  1  0
  6  5  1  0
  6  7  1  1
  8  9  2  0
  8  6  1  0
 10  8  1  0
 11 10  1  0
 11 12  1  0
 12 18  1  0
 13 12  2  0
 15 16  1  0
 15 14  1  6
 17 15  1  0
 17 19  1  0
 17 18  1  6
 19 20  2  0
 19 21  1  0
M  END
$$$$
