QGT.pdb
     RDKit          3D

 21 20  0  0  1  0  0  0  0  0999 V2000
   26.3737  -23.2572  -11.5383 N   0  0  0  0  0  0  0  0  0  0  0  0
   27.0544  -22.0351  -11.1744 C   0  0  0  0  0  0  0  0  0  0  0  0
   28.2557  -22.1549  -10.8575 O   0  0  0  0  0  0  0  0  0  0  0  0
   26.3344  -20.7738  -11.1894 C   0  0  0  0  0  0  0  0  0  0  0  0
   24.9024  -20.7883  -11.6235 C   0  0  0  0  0  0  0  0  0  0  0  0
   24.7557  -20.3968  -13.0437 C   0  0  2  0  0  0  0  0  0  0  0  0
   24.2065  -19.0839  -13.1849 N   0  0  0  0  0  0  0  0  0  0  0  0
   23.9810  -21.3609  -13.8535 C   0  0  0  0  0  0  0  0  0  0  0  0
   24.4423  -22.4956  -14.1617 O   0  0  0  0  0  0  0  0  0  0  0  0
   22.6840  -21.0126  -14.3035 N   0  0  0  0  0  0  0  0  0  0  0  0
   21.8792  -21.9376  -15.0767 C   0  0  0  0  0  0  0  0  0  0  0  0
   20.4984  -21.4697  -15.3124 C   0  0  0  0  0  0  0  0  0  0  0  0
   20.0415  -20.4535  -14.6868 O   0  0  0  0  0  0  0  0  0  0  0  0
   16.3715  -21.5043  -17.9769 C   0  0  0  0  0  0  0  0  0  0  0  0
   17.5835  -22.2891  -17.5628 C   0  0  1  0  0  0  0  0  0  0  0  0
   18.5215  -22.3209  -18.6131 O   0  0  0  0  0  0  0  0  0  0  0  0
   18.2788  -21.6233  -16.3974 C   0  0  2  0  0  0  0  0  0  0  0  0
   19.6289  -22.1122  -16.2216 N   0  0  0  0  0  0  0  0  0  0  0  0
   17.4936  -21.7430  -15.1436 C   0  0  0  0  0  0  0  0  0  0  0  0
   17.5960  -22.7820  -14.4444 O   0  0  0  0  0  0  0  0  0  0  0  0
   16.6425  -20.7488  -14.7039 O   0  0  0  0  0  0  0  0  0  0  0  0
  1  2  1  0
  2  3  2  0
  4  5  1  0
  4  2  1  0
  6  5  1  0
  6  7  1  1
  8  9  2  0
  8  6  1  0
 10  8  1  0
 11 10  1  0
 11 12  1  0
 12 18  1  0
 13 12  2  0
 15 16  1  0
 15 14  1  6
 17 15  1  0
 17 19  1  0
 17 18  1  1
 19 20  2  0
 19 21  1  0
M  END
$$$$
