QGT.pdb
     RDKit          3D

 21 20  0  0  1  0  0  0  0  0999 V2000
   17.5054  -14.6933  -14.6204 N   0  0  0  0  0  0  0  0  0  0  0  0
   17.6976  -14.7340  -16.0524 C   0  0  0  0  0  0  0  0  0  0  0  0
   17.9944  -15.8483  -16.5302 O   0  0  0  0  0  0  0  0  0  0  0  0
   17.5469  -13.5214  -16.8375 C   0  0  0  0  0  0  0  0  0  0  0  0
   17.1615  -12.2652  -16.1215 C   0  0  0  0  0  0  0  0  0  0  0  0
   17.9807  -11.1117  -16.5576 C   0  0  2  0  0  0  0  0  0  0  0  0
   19.3503  -11.4710  -16.7586 N   0  0  0  0  0  0  0  0  0  0  0  0
   17.8896   -9.9397  -15.6612 C   0  0  0  0  0  0  0  0  0  0  0  0
   16.9004   -9.7598  -14.8967 O   0  0  0  0  0  0  0  0  0  0  0  0
   18.9347   -8.9839  -15.6519 N   0  0  0  0  0  0  0  0  0  0  0  0
   18.9437   -7.8838  -14.7080 C   0  0  0  0  0  0  0  0  0  0  0  0
   20.1465   -7.0318  -14.8005 C   0  0  0  0  0  0  0  0  0  0  0  0
   21.1765   -7.4302  -15.4430 O   0  0  0  0  0  0  0  0  0  0  0  0
   19.9994   -3.2403  -15.6426 C   0  0  0  0  0  0  0  0  0  0  0  0
   20.9822   -3.4531  -14.5267 C   0  0  1  0  0  0  0  0  0  0  0  0
   20.3937   -3.1151  -13.2924 O   0  0  0  0  0  0  0  0  0  0  0  0
   21.3670   -4.9113  -14.4244 C   0  0  2  0  0  0  0  0  0  0  0  0
   20.2182   -5.7592  -14.1916 N   0  0  0  0  0  0  0  0  0  0  0  0
   22.4192   -5.1350  -13.4018 C   0  0  0  0  0  0  0  0  0  0  0  0
   23.5661   -4.6521  -13.5762 O   0  0  0  0  0  0  0  0  0  0  0  0
   22.1915   -5.8610  -12.2499 O   0  0  0  0  0  0  0  0  0  0  0  0
  1  2  1  0
  2  3  2  0
  4  5  1  0
  4  2  1  0
  6  5  1  0
  6  7  1  1
  8  9  2  0
  8  6  1  0
 10  8  1  0
 11 10  1  0
 11 12  1  0
 12 18  1  0
 13 12  2  0
 15 16  1  0
 15 14  1  6
 17 15  1  0
 17 19  1  0
 17 18  1  1
 19 20  2  0
 19 21  1  0
M  END
$$$$
