QGT.pdb
     RDKit          3D

 21 20  0  0  1  0  0  0  0  0999 V2000
   17.7342  -14.3232  -19.8623 N   0  0  0  0  0  0  0  0  0  0  0  0
   18.9807  -14.8097  -19.3157 C   0  0  0  0  0  0  0  0  0  0  0  0
   19.3102  -15.9646  -19.6560 O   0  0  0  0  0  0  0  0  0  0  0  0
   19.7590  -13.9658  -18.4261 C   0  0  0  0  0  0  0  0  0  0  0  0
   19.2134  -12.6150  -18.0845 C   0  0  0  0  0  0  0  0  0  0  0  0
   20.1259  -11.5304  -18.5122 C   0  0  2  0  0  0  0  0  0  0  0  0
   21.4654  -11.7458  -18.0598 N   0  0  0  0  0  0  0  0  0  0  0  0
   19.6709  -10.1780  -18.1259 C   0  0  0  0  0  0  0  0  0  0  0  0
   18.5301   -9.7410  -18.4467 O   0  0  0  0  0  0  0  0  0  0  0  0
   20.5306   -9.3389  -17.3758 N   0  0  0  0  0  0  0  0  0  0  0  0
   20.1382   -7.9938  -17.0046 C   0  0  0  0  0  0  0  0  0  0  0  0
   21.0791   -7.3356  -16.0758 C   0  0  0  0  0  0  0  0  0  0  0  0
   22.0766   -7.9767  -15.5996 O   0  0  0  0  0  0  0  0  0  0  0  0
   20.9746   -3.0755  -15.2978 C   0  0  0  0  0  0  0  0  0  0  0  0
   22.2057   -3.9052  -15.5268 C   0  0  1  0  0  0  0  0  0  0  0  0
   23.2924   -3.3665  -14.8105 O   0  0  0  0  0  0  0  0  0  0  0  0
   22.0095   -5.3089  -15.0015 C   0  0  2  0  0  0  0  0  0  0  0  0
   20.9241   -5.9909  -15.6721 N   0  0  0  0  0  0  0  0  0  0  0  0
   21.8310   -5.3279  -13.5282 C   0  0  0  0  0  0  0  0  0  0  0  0
   20.7449   -5.7293  -13.0403 O   0  0  0  0  0  0  0  0  0  0  0  0
   22.8197   -4.9183  -12.6561 O   0  0  0  0  0  0  0  0  0  0  0  0
  1  2  1  0
  2  3  2  0
  4  5  1  0
  4  2  1  0
  6  5  1  0
  6  7  1  1
  8  9  2  0
  8  6  1  0
 10  8  1  0
 11 10  1  0
 11 12  1  0
 12 18  1  0
 13 12  2  0
 15 16  1  0
 15 14  1  1
 17 15  1  0
 17 19  1  0
 17 18  1  6
 19 20  2  0
 19 21  1  0
M  END
$$$$
