QGT.pdb
     RDKit          3D

 21 20  0  0  1  0  0  0  0  0999 V2000
   25.9289  -20.5109  -20.0888 N   0  0  0  0  0  0  0  0  0  0  0  0
   24.5364  -20.3287  -19.7465 C   0  0  0  0  0  0  0  0  0  0  0  0
   23.7124  -20.6659  -20.6214 O   0  0  0  0  0  0  0  0  0  0  0  0
   24.1755  -19.7780  -18.4519 C   0  0  0  0  0  0  0  0  0  0  0  0
   25.2758  -19.4969  -17.4776 C   0  0  0  0  0  0  0  0  0  0  0  0
   25.5685  -20.6724  -16.6264 C   0  0  2  0  0  0  0  0  0  0  0  0
   24.3786  -21.3652  -16.2399 N   0  0  0  0  0  0  0  0  0  0  0  0
   26.3840  -20.3597  -15.4337 C   0  0  0  0  0  0  0  0  0  0  0  0
   27.3678  -19.5694  -15.4866 O   0  0  0  0  0  0  0  0  0  0  0  0
   26.0631  -20.9585  -14.1909 N   0  0  0  0  0  0  0  0  0  0  0  0
   26.8018  -20.6387  -12.9853 C   0  0  0  0  0  0  0  0  0  0  0  0
   26.2727  -21.2954  -11.7730 C   0  0  0  0  0  0  0  0  0  0  0  0
   25.6774  -22.4232  -11.8527 O   0  0  0  0  0  0  0  0  0  0  0  0
   27.2017  -20.9886   -7.6707 C   0  0  0  0  0  0  0  0  0  0  0  0
   25.8530  -20.4918   -8.1077 C   0  0  1  0  0  0  0  0  0  0  0  0
   25.8906  -19.0972   -8.3016 O   0  0  0  0  0  0  0  0  0  0  0  0
   25.4686  -21.0920   -9.4407 C   0  0  2  0  0  0  0  0  0  0  0  0
   26.3928  -20.7187  -10.4891 N   0  0  0  0  0  0  0  0  0  0  0  0
   24.0696  -20.7638   -9.8119 C   0  0  0  0  0  0  0  0  0  0  0  0
   23.8490  -20.0048  -10.7887 O   0  0  0  0  0  0  0  0  0  0  0  0
   22.9828  -21.2625   -9.1219 O   0  0  0  0  0  0  0  0  0  0  0  0
  1  2  1  0
  2  3  2  0
  4  5  1  0
  4  2  1  0
  6  5  1  0
  6  7  1  1
  8  9  2  0
  8  6  1  0
 10  8  1  0
 11 10  1  0
 11 12  1  0
 12 18  1  0
 13 12  2  0
 15 16  1  0
 15 14  1  6
 17 15  1  0
 17 19  1  0
 17 18  1  6
 19 20  2  0
 19 21  1  0
M  END
$$$$
