QGT.pdb
     RDKit          3D

 21 20  0  0  1  0  0  0  0  0999 V2000
   12.3087  -11.8526  -10.6722 N   0  0  0  0  0  0  0  0  0  0  0  0
   11.6558  -10.6337  -11.0932 C   0  0  0  0  0  0  0  0  0  0  0  0
   10.4761  -10.4887  -10.7121 O   0  0  0  0  0  0  0  0  0  0  0  0
   12.3744   -9.6739  -11.9130 C   0  0  0  0  0  0  0  0  0  0  0  0
   13.8226   -9.9310  -12.1878 C   0  0  0  0  0  0  0  0  0  0  0  0
   14.1644   -9.6824  -13.6068 C   0  0  2  0  0  0  0  0  0  0  0  0
   13.4996  -10.5928  -14.4868 N   0  0  0  0  0  0  0  0  0  0  0  0
   15.6170   -9.6804  -13.8811 C   0  0  0  0  0  0  0  0  0  0  0  0
   16.2283  -10.7233  -14.2470 O   0  0  0  0  0  0  0  0  0  0  0  0
   16.3550   -8.4808  -13.7315 N   0  0  0  0  0  0  0  0  0  0  0  0
   17.7768   -8.4291  -14.0090 C   0  0  0  0  0  0  0  0  0  0  0  0
   18.3669   -7.0862  -13.8372 C   0  0  0  0  0  0  0  0  0  0  0  0
   17.6216   -6.0738  -13.6090 O   0  0  0  0  0  0  0  0  0  0  0  0
   21.6273   -6.3523  -11.6613 C   0  0  0  0  0  0  0  0  0  0  0  0
   21.6769   -5.6473  -12.9868 C   0  0  1  0  0  0  0  0  0  0  0  0
   22.4580   -6.3845  -13.8981 O   0  0  0  0  0  0  0  0  0  0  0  0
   20.2961   -5.5543  -13.5946 C   0  0  2  0  0  0  0  0  0  0  0  0
   19.7585   -6.8576  -13.9187 N   0  0  0  0  0  0  0  0  0  0  0  0
   20.2701   -4.6514  -14.7723 C   0  0  0  0  0  0  0  0  0  0  0  0
   20.0379   -5.1258  -15.9124 O   0  0  0  0  0  0  0  0  0  0  0  0
   20.4930   -3.2927  -14.6701 O   0  0  0  0  0  0  0  0  0  0  0  0
  1  2  1  0
  2  3  2  0
  4  5  1  0
  4  2  1  0
  6  5  1  0
  6  7  1  6
  8  9  2  0
  8  6  1  0
 10  8  1  0
 11 10  1  0
 11 12  1  0
 12 18  1  0
 13 12  2  0
 15 16  1  0
 15 14  1  1
 17 15  1  0
 17 19  1  0
 17 18  1  6
 19 20  2  0
 19 21  1  0
M  END
$$$$
