QGT.pdb
     RDKit          3D

 21 20  0  0  1  0  0  0  0  0999 V2000
   22.4038  -16.6289  -18.6159 N   0  0  0  0  0  0  0  0  0  0  0  0
   21.8475  -17.9565  -18.4845 C   0  0  0  0  0  0  0  0  0  0  0  0
   20.6935  -18.0187  -18.0130 O   0  0  0  0  0  0  0  0  0  0  0  0
   22.6298  -19.1120  -18.8875 C   0  0  0  0  0  0  0  0  0  0  0  0
   24.0187  -18.8776  -19.3925 C   0  0  0  0  0  0  0  0  0  0  0  0
   25.0239  -19.6187  -18.5974 C   0  0  2  0  0  0  0  0  0  0  0  0
   24.7205  -21.0138  -18.5141 N   0  0  0  0  0  0  0  0  0  0  0  0
   25.2435  -19.0652  -17.2443 C   0  0  0  0  0  0  0  0  0  0  0  0
   25.6042  -17.8683  -17.0635 O   0  0  0  0  0  0  0  0  0  0  0  0
   25.0481  -19.8916  -16.1108 N   0  0  0  0  0  0  0  0  0  0  0  0
   25.0873  -19.3512  -14.7663 C   0  0  0  0  0  0  0  0  0  0  0  0
   24.7813  -20.3452  -13.7177 C   0  0  0  0  0  0  0  0  0  0  0  0
   24.2357  -21.4604  -14.0195 O   0  0  0  0  0  0  0  0  0  0  0  0
   26.6503  -21.1295  -10.1544 C   0  0  0  0  0  0  0  0  0  0  0  0
   25.1857  -20.8281  -10.0102 C   0  0  1  0  0  0  0  0  0  0  0  0
   25.0045  -19.4921   -9.6028 O   0  0  0  0  0  0  0  0  0  0  0  0
   24.4791  -20.9626  -11.3397 C   0  0  2  0  0  0  0  0  0  0  0  0
   25.0680  -20.1154  -12.3537 N   0  0  0  0  0  0  0  0  0  0  0  0
   23.0196  -20.7229  -11.2167 C   0  0  0  0  0  0  0  0  0  0  0  0
   22.3134  -21.5229  -10.5532 O   0  0  0  0  0  0  0  0  0  0  0  0
   22.3929  -19.6439  -11.8075 O   0  0  0  0  0  0  0  0  0  0  0  0
  1  2  1  0
  2  3  2  0
  4  5  1  0
  4  2  1  0
  6  5  1  0
  6  7  1  1
  8  9  2  0
  8  6  1  0
 10  8  1  0
 11 10  1  0
 11 12  1  0
 12 18  1  0
 13 12  2  0
 15 16  1  0
 15 14  1  6
 17 15  1  0
 17 19  1  0
 17 18  1  6
 19 20  2  0
 19 21  1  0
M  END
$$$$
