QGT.pdb
     RDKit          3D

 21 20  0  0  1  0  0  0  0  0999 V2000
   24.2188  -21.0354  -19.1804 N   0  0  0  0  0  0  0  0  0  0  0  0
   24.0748  -22.4622  -19.3609 C   0  0  0  0  0  0  0  0  0  0  0  0
   24.0912  -22.8657  -20.5420 O   0  0  0  0  0  0  0  0  0  0  0  0
   23.9188  -23.3259  -18.2037 C   0  0  0  0  0  0  0  0  0  0  0  0
   23.9788  -22.6984  -16.8466 C   0  0  0  0  0  0  0  0  0  0  0  0
   25.3678  -22.3653  -16.4570 C   0  0  2  0  0  0  0  0  0  0  0  0
   26.1283  -23.5315  -16.1303 N   0  0  0  0  0  0  0  0  0  0  0  0
   25.4617  -21.3750  -15.3635 C   0  0  0  0  0  0  0  0  0  0  0  0
   24.6790  -20.3865  -15.2895 O   0  0  0  0  0  0  0  0  0  0  0  0
   26.4548  -21.5280  -14.3653 N   0  0  0  0  0  0  0  0  0  0  0  0
   26.5835  -20.5799  -13.2763 C   0  0  0  0  0  0  0  0  0  0  0  0
   25.9589  -21.0335  -12.0172 C   0  0  0  0  0  0  0  0  0  0  0  0
   25.1566  -22.0279  -12.0118 O   0  0  0  0  0  0  0  0  0  0  0  0
   26.3346  -19.0050   -8.1665 C   0  0  0  0  0  0  0  0  0  0  0  0
   26.3701  -20.4973   -8.3346 C   0  0  1  0  0  0  0  0  0  0  0  0
   25.7292  -21.1221   -7.2471 O   0  0  0  0  0  0  0  0  0  0  0  0
   25.6055  -20.9143   -9.5701 C   0  0  2  0  0  0  0  0  0  0  0  0
   26.2098  -20.4001  -10.7797 N   0  0  0  0  0  0  0  0  0  0  0  0
   24.1709  -20.5440   -9.4836 C   0  0  0  0  0  0  0  0  0  0  0  0
   23.4670  -21.0037   -8.5498 O   0  0  0  0  0  0  0  0  0  0  0  0
   23.5654  -19.7042  -10.3970 O   0  0  0  0  0  0  0  0  0  0  0  0
  1  2  1  0
  2  3  2  0
  4  5  1  0
  4  2  1  0
  6  5  1  0
  6  7  1  1
  8  9  2  0
  8  6  1  0
 10  8  1  0
 11 10  1  0
 11 12  1  0
 12 18  1  0
 13 12  2  0
 15 16  1  0
 15 14  1  1
 17 15  1  0
 17 19  1  0
 17 18  1  6
 19 20  2  0
 19 21  1  0
M  END
$$$$
