QGT.pdb
     RDKit          3D

 21 20  0  0  1  0  0  0  0  0999 V2000
   19.5233  -16.1515  -16.5672 N   0  0  0  0  0  0  0  0  0  0  0  0
   20.8050  -15.9488  -17.2039 C   0  0  0  0  0  0  0  0  0  0  0  0
   21.5223  -16.9639  -17.3185 O   0  0  0  0  0  0  0  0  0  0  0  0
   21.1855  -14.6229  -17.6587 C   0  0  0  0  0  0  0  0  0  0  0  0
   20.1746  -13.5254  -17.5458 C   0  0  0  0  0  0  0  0  0  0  0  0
   20.6932  -12.2449  -18.0781 C   0  0  2  0  0  0  0  0  0  0  0  0
   22.1204  -12.1765  -18.0169 N   0  0  0  0  0  0  0  0  0  0  0  0
   20.1000  -11.0488  -17.4436 C   0  0  0  0  0  0  0  0  0  0  0  0
   18.8501  -10.8799  -17.3760 O   0  0  0  0  0  0  0  0  0  0  0  0
   20.9476  -10.0563  -16.8935 N   0  0  0  0  0  0  0  0  0  0  0  0
   20.4108   -8.8393  -16.3175 C   0  0  0  0  0  0  0  0  0  0  0  0
   21.4423   -7.9394  -15.7630 C   0  0  0  0  0  0  0  0  0  0  0  0
   22.6405   -8.3503  -15.5959 O   0  0  0  0  0  0  0  0  0  0  0  0
   22.5619   -4.7683  -17.1858 C   0  0  0  0  0  0  0  0  0  0  0  0
   22.3100   -4.4668  -15.7359 C   0  0  1  0  0  0  0  0  0  0  0  0
   21.0653   -3.8251  -15.5843 O   0  0  0  0  0  0  0  0  0  0  0  0
   22.2262   -5.7437  -14.9313 C   0  0  2  0  0  0  0  0  0  0  0  0
   21.1601   -6.6056  -15.3933 N   0  0  0  0  0  0  0  0  0  0  0  0
   22.1103   -5.4738  -13.4765 C   0  0  0  0  0  0  0  0  0  0  0  0
   21.0582   -5.7934  -12.8684 O   0  0  0  0  0  0  0  0  0  0  0  0
   23.1219   -4.8783  -12.7499 O   0  0  0  0  0  0  0  0  0  0  0  0
  1  2  1  0
  2  3  2  0
  4  5  1  0
  4  2  1  0
  6  5  1  0
  6  7  1  1
  8  9  2  0
  8  6  1  0
 10  8  1  0
 11 10  1  0
 11 12  1  0
 12 18  1  0
 13 12  2  0
 15 16  1  0
 15 14  1  6
 17 15  1  0
 17 19  1  0
 17 18  1  6
 19 20  2  0
 19 21  1  0
M  END
$$$$
