QGT.pdb
     RDKit          3D

 21 20  0  0  1  0  0  0  0  0999 V2000
   23.7081  -20.3431   -8.7932 N   0  0  0  0  0  0  0  0  0  0  0  0
   23.0905  -21.1102   -9.8512 C   0  0  0  0  0  0  0  0  0  0  0  0
   22.1392  -21.8421   -9.5086 O   0  0  0  0  0  0  0  0  0  0  0  0
   23.5901  -21.0011  -11.2106 C   0  0  0  0  0  0  0  0  0  0  0  0
   24.7451  -20.0836  -11.4622 C   0  0  0  0  0  0  0  0  0  0  0  0
   25.6876  -20.6476  -12.4550 C   0  0  2  0  0  0  0  0  0  0  0  0
   26.4744  -21.7084  -11.9064 N   0  0  0  0  0  0  0  0  0  0  0  0
   26.5648  -19.6397  -13.0875 C   0  0  0  0  0  0  0  0  0  0  0  0
   26.9867  -18.6312  -12.4547 O   0  0  0  0  0  0  0  0  0  0  0  0
   26.9485  -19.7980  -14.4416 N   0  0  0  0  0  0  0  0  0  0  0  0
   27.8955  -18.8975  -15.0686 C   0  0  0  0  0  0  0  0  0  0  0  0
   28.1601  -19.2080  -16.4880 C   0  0  0  0  0  0  0  0  0  0  0  0
   28.4717  -20.3943  -16.8460 O   0  0  0  0  0  0  0  0  0  0  0  0
   25.9239  -19.4413  -19.2183 C   0  0  0  0  0  0  0  0  0  0  0  0
   26.9495  -18.4381  -19.6637 C   0  0  1  0  0  0  0  0  0  0  0  0
   26.4983  -17.1317  -19.3923 O   0  0  0  0  0  0  0  0  0  0  0  0
   28.2359  -18.6089  -18.8886 C   0  0  2  0  0  0  0  0  0  0  0  0
   28.0867  -18.2266  -17.5014 N   0  0  0  0  0  0  0  0  0  0  0  0
   29.3662  -17.8905  -19.5281 C   0  0  0  0  0  0  0  0  0  0  0  0
   29.9256  -16.9457  -18.9173 O   0  0  0  0  0  0  0  0  0  0  0  0
   29.8382  -18.2186  -20.7834 O   0  0  0  0  0  0  0  0  0  0  0  0
  1  2  1  0
  2  3  2  0
  4  5  1  0
  4  2  1  0
  6  5  1  0
  6  7  1  1
  8  9  2  0
  8  6  1  0
 10  8  1  0
 11 10  1  0
 11 12  1  0
 12 18  1  0
 13 12  2  0
 15 16  1  0
 15 14  1  1
 17 15  1  0
 17 19  1  0
 17 18  1  1
 19 20  2  0
 19 21  1  0
M  END
$$$$
