GCY.pdb
     RDKit          3D

 23 23  0  0  1  0  0  0  0  0999 V2000
    7.9509  -18.1662   17.7504 N   0  0  0  0  0  0  0  0  0  0  0  0
    8.0472  -18.8115   19.0384 C   0  0  0  0  0  0  0  0  0  0  0  0
    7.5643  -17.9453   20.1392 C   0  0  0  0  0  0  0  0  0  0  0  0
    7.3466  -16.7342   19.9995 O   0  0  0  0  0  0  0  0  0  0  0  0
    7.3465  -18.5478   21.4051 N   0  0  0  0  0  0  0  0  0  0  0  0
    6.9996  -17.7450   22.5569 C   0  0  1  0  0  0  0  0  0  0  0  0
    6.1427  -18.5949   23.4875 C   0  0  0  0  0  0  0  0  0  0  0  0
    5.7944  -17.5761   24.9509 S   0  0  0  0  0  0  0  0  0  0  0  0
    8.2326  -17.3051   23.2648 C   0  0  0  0  0  0  0  0  0  0  0  0
    9.1855  -18.0933   23.4457 O   0  0  0  0  0  0  0  0  0  0  0  0
    5.2637  -12.1125   27.6895 O   0  0  0  0  0  0  0  0  0  0  0  0
    6.3453  -12.5873   26.9536 C   0  0  0  0  0  0  0  0  0  0  0  0
    6.1886  -12.7667   25.6050 C   0  0  0  0  0  0  0  0  0  0  0  0
    7.2335  -13.2351   24.8358 C   0  0  0  0  0  0  0  0  0  0  0  0
    8.4749  -13.5401   25.3973 C   0  0  0  0  0  0  0  0  0  0  0  0
    9.5878  -14.0532   24.5745 C   0  0  0  0  0  0  0  0  0  0  0  0
    9.5602  -15.5566   24.3898 C   0  0  2  0  0  0  0  0  0  0  0  0
    8.3495  -15.9824   23.7479 N   0  0  0  0  0  0  0  0  0  0  0  0
    9.6689  -16.2842   25.6754 C   0  0  0  0  0  0  0  0  0  0  0  0
   10.6977  -16.1923   26.4029 O   0  0  0  0  0  0  0  0  0  0  0  0
    8.6004  -13.3494   26.7545 C   0  0  0  0  0  0  0  0  0  0  0  0
    7.5545  -12.8780   27.5385 C   0  0  0  0  0  0  0  0  0  0  0  0
    8.6583  -17.0924   26.1409 O   0  0  0  0  0  0  0  0  0  0  0  0
  2  1  1  0
  3  2  1  0
  3  5  1  0
  4  3  2  0
  6  5  1  0
  6  7  1  1
  7  8  1  0
  9  6  1  0
  9 18  1  0
 10  9  2  0
 11 12  1  0
 12 22  2  0
 13 14  2  0
 13 12  1  0
 14 15  1  0
 15 16  1  0
 15 21  2  0
 17 18  1  0
 17 16  1  1
 19 17  1  0
 20 19  2  0
 22 21  1  0
 23 19  1  0
M  END
$$$$
