GCY.pdb
     RDKit          3D

 23 23  0  0  1  0  0  0  0  0999 V2000
    4.4267  -19.0858   21.7003 N   0  0  0  0  0  0  0  0  0  0  0  0
    4.6212  -17.7417   22.1904 C   0  0  0  0  0  0  0  0  0  0  0  0
    5.9475  -17.1944   21.8207 C   0  0  0  0  0  0  0  0  0  0  0  0
    6.9838  -17.8724   21.8289 O   0  0  0  0  0  0  0  0  0  0  0  0
    6.0151  -15.8287   21.4423 N   0  0  0  0  0  0  0  0  0  0  0  0
    7.2888  -15.1943   21.1847 C   0  0  1  0  0  0  0  0  0  0  0  0
    7.0291  -13.8978   20.4269 C   0  0  0  0  0  0  0  0  0  0  0  0
    8.6355  -13.3336   19.7929 S   0  0  0  0  0  0  0  0  0  0  0  0
    7.9837  -14.9004   22.4675 C   0  0  0  0  0  0  0  0  0  0  0  0
    7.6182  -13.9507   23.1933 O   0  0  0  0  0  0  0  0  0  0  0  0
    5.7559  -11.3540   27.1313 O   0  0  0  0  0  0  0  0  0  0  0  0
    6.4780  -12.4582   26.6884 C   0  0  0  0  0  0  0  0  0  0  0  0
    7.8207  -12.3119   26.4624 C   0  0  0  0  0  0  0  0  0  0  0  0
    8.5763  -13.3790   26.0230 C   0  0  0  0  0  0  0  0  0  0  0  0
    8.0067  -14.6333   25.7951 C   0  0  0  0  0  0  0  0  0  0  0  0
    8.8145  -15.7706   25.3129 C   0  0  0  0  0  0  0  0  0  0  0  0
    9.7150  -15.4210   24.1459 C   0  0  2  0  0  0  0  0  0  0  0  0
    9.0741  -15.6928   22.8911 N   0  0  0  0  0  0  0  0  0  0  0  0
   10.9903  -16.1740   24.1732 C   0  0  0  0  0  0  0  0  0  0  0  0
   11.0955  -17.3169   23.6452 O   0  0  0  0  0  0  0  0  0  0  0  0
    6.6556  -14.7478   26.0312 C   0  0  0  0  0  0  0  0  0  0  0  0
    5.8854  -13.6794   26.4739 C   0  0  0  0  0  0  0  0  0  0  0  0
   12.1206  -15.6679   24.7713 O   0  0  0  0  0  0  0  0  0  0  0  0
  2  1  1  0
  3  2  1  0
  3  5  1  0
  4  3  2  0
  6  5  1  0
  6  7  1  1
  7  8  1  0
  9  6  1  0
  9 18  1  0
 10  9  2  0
 11 12  1  0
 12 22  2  0
 13 14  2  0
 13 12  1  0
 14 15  1  0
 15 16  1  0
 15 21  2  0
 17 18  1  0
 17 16  1  1
 19 17  1  0
 20 19  2  0
 22 21  1  0
 23 19  1  0
M  END
$$$$
