GCY.pdb
     RDKit          3D

 23 23  0  0  1  0  0  0  0  0999 V2000
    8.4234  -12.0814   18.3472 N   0  0  0  0  0  0  0  0  0  0  0  0
    8.5926  -13.4910   18.6099 C   0  0  0  0  0  0  0  0  0  0  0  0
    7.9557  -13.9069   19.8814 C   0  0  0  0  0  0  0  0  0  0  0  0
    7.5251  -13.1000   20.7163 O   0  0  0  0  0  0  0  0  0  0  0  0
    7.8424  -15.2976   20.1380 N   0  0  0  0  0  0  0  0  0  0  0  0
    7.1624  -15.7790   21.3200 C   0  0  1  0  0  0  0  0  0  0  0  0
    6.6963  -17.2051   21.0523 C   0  0  0  0  0  0  0  0  0  0  0  0
    5.7891  -17.7436   22.5313 S   0  0  0  0  0  0  0  0  0  0  0  0
    8.0864  -15.7590   22.4865 C   0  0  0  0  0  0  0  0  0  0  0  0
    9.2802  -16.1092   22.3667 O   0  0  0  0  0  0  0  0  0  0  0  0
   11.1315  -14.9525   30.7518 O   0  0  0  0  0  0  0  0  0  0  0  0
   10.3142  -14.9786   29.6256 C   0  0  0  0  0  0  0  0  0  0  0  0
   10.1465  -13.8206   28.9141 C   0  0  0  0  0  0  0  0  0  0  0  0
    9.3456  -13.7996   27.7911 C   0  0  0  0  0  0  0  0  0  0  0  0
    8.6841  -14.9449   27.3437 C   0  0  0  0  0  0  0  0  0  0  0  0
    7.8175  -14.9174   26.1492 C   0  0  0  0  0  0  0  0  0  0  0  0
    8.5194  -15.3621   24.8825 C   0  0  2  0  0  0  0  0  0  0  0  0
    7.6296  -15.3418   23.7569 N   0  0  0  0  0  0  0  0  0  0  0  0
    9.0719  -16.7318   24.9958 C   0  0  0  0  0  0  0  0  0  0  0  0
    8.3414  -17.7535   24.8586 O   0  0  0  0  0  0  0  0  0  0  0  0
    8.8727  -16.0921   28.0803 C   0  0  0  0  0  0  0  0  0  0  0  0
    9.6772  -16.1242   29.2128 C   0  0  0  0  0  0  0  0  0  0  0  0
   10.4033  -16.9595   25.2538 O   0  0  0  0  0  0  0  0  0  0  0  0
  2  1  1  0
  3  2  1  0
  3  5  1  0
  4  3  2  0
  6  5  1  0
  6  7  1  6
  7  8  1  0
  9  6  1  0
  9 18  1  0
 10  9  2  0
 11 12  1  0
 12 22  2  0
 13 14  2  0
 13 12  1  0
 14 15  1  0
 15 16  1  0
 15 21  2  0
 17 18  1  0
 17 16  1  1
 19 17  1  0
 20 19  2  0
 22 21  1  0
 23 19  1  0
M  END
$$$$
