GCY.pdb
     RDKit          3D

 23 23  0  0  1  0  0  0  0  0999 V2000
    5.9921  -19.9425   21.0304 N   0  0  0  0  0  0  0  0  0  0  0  0
    5.9987  -18.7029   21.7706 C   0  0  0  0  0  0  0  0  0  0  0  0
    7.1801  -17.8658   21.4561 C   0  0  0  0  0  0  0  0  0  0  0  0
    8.0950  -18.2420   20.7110 O   0  0  0  0  0  0  0  0  0  0  0  0
    7.2501  -16.5766   22.0441 N   0  0  0  0  0  0  0  0  0  0  0  0
    8.3870  -15.7153   21.8058 C   0  0  1  0  0  0  0  0  0  0  0  0
    7.8656  -14.3292   21.4459 C   0  0  0  0  0  0  0  0  0  0  0  0
    6.6769  -13.8671   22.7398 S   0  0  0  0  0  0  0  0  0  0  0  0
    9.2347  -15.6361   23.0265 C   0  0  0  0  0  0  0  0  0  0  0  0
   10.2500  -14.9079   23.0576 O   0  0  0  0  0  0  0  0  0  0  0  0
    5.3832  -11.5232   26.1145 O   0  0  0  0  0  0  0  0  0  0  0  0
    6.1911  -12.6512   26.2240 C   0  0  0  0  0  0  0  0  0  0  0  0
    7.4976  -12.4841   26.5991 C   0  0  0  0  0  0  0  0  0  0  0  0
    8.3350  -13.5736   26.7205 C   0  0  0  0  0  0  0  0  0  0  0  0
    7.8868  -14.8717   26.4685 C   0  0  0  0  0  0  0  0  0  0  0  0
    8.7878  -16.0348   26.5868 C   0  0  0  0  0  0  0  0  0  0  0  0
    9.6788  -16.2350   25.3781 C   0  0  2  0  0  0  0  0  0  0  0  0
    8.9062  -16.3859   24.1782 N   0  0  0  0  0  0  0  0  0  0  0  0
   10.5461  -17.4286   25.5089 C   0  0  0  0  0  0  0  0  0  0  0  0
   10.4077  -18.4330   24.7552 O   0  0  0  0  0  0  0  0  0  0  0  0
    6.5694  -15.0061   26.0934 C   0  0  0  0  0  0  0  0  0  0  0  0
    5.7174  -13.9156   25.9681 C   0  0  0  0  0  0  0  0  0  0  0  0
   11.5430  -17.5027   26.4534 O   0  0  0  0  0  0  0  0  0  0  0  0
  2  1  1  0
  3  2  1  0
  3  5  1  0
  4  3  2  0
  6  5  1  0
  6  7  1  1
  7  8  1  0
  9  6  1  0
  9 18  1  0
 10  9  2  0
 11 12  1  0
 12 22  2  0
 13 14  2  0
 13 12  1  0
 14 15  1  0
 15 16  1  0
 15 21  2  0
 17 18  1  0
 17 16  1  1
 19 17  1  0
 20 19  2  0
 22 21  1  0
 23 19  1  0
M  END
$$$$
