GCY.pdb
     RDKit          3D

 23 23  0  0  1  0  0  0  0  0999 V2000
    7.8157  -12.2228   18.8236 N   0  0  0  0  0  0  0  0  0  0  0  0
    8.5019  -13.4494   19.1541 C   0  0  0  0  0  0  0  0  0  0  0  0
    7.9593  -14.0859   20.3771 C   0  0  0  0  0  0  0  0  0  0  0  0
    7.1936  -13.5045   21.1578 O   0  0  0  0  0  0  0  0  0  0  0  0
    8.3451  -15.4234   20.6511 N   0  0  0  0  0  0  0  0  0  0  0  0
    7.7315  -16.1642   21.7309 C   0  0  1  0  0  0  0  0  0  0  0  0
    7.5596  -17.6092   21.2780 C   0  0  0  0  0  0  0  0  0  0  0  0
    6.6365  -18.4608   22.5907 S   0  0  0  0  0  0  0  0  0  0  0  0
    8.5941  -16.1127   22.9426 C   0  0  0  0  0  0  0  0  0  0  0  0
    9.8322  -15.9725   22.8443 O   0  0  0  0  0  0  0  0  0  0  0  0
    5.6687  -10.5048   26.3515 O   0  0  0  0  0  0  0  0  0  0  0  0
    6.2740  -11.7563   26.4160 C   0  0  0  0  0  0  0  0  0  0  0  0
    5.4902  -12.8689   26.2636 C   0  0  0  0  0  0  0  0  0  0  0  0
    6.0470  -14.1297   26.3201 C   0  0  0  0  0  0  0  0  0  0  0  0
    7.4144  -14.3159   26.5322 C   0  0  0  0  0  0  0  0  0  0  0  0
    8.0063  -15.6661   26.6049 C   0  0  0  0  0  0  0  0  0  0  0  0
    8.8447  -16.0248   25.3951 C   0  0  2  0  0  0  0  0  0  0  0  0
    8.0273  -16.2217   24.2322 N   0  0  0  0  0  0  0  0  0  0  0  0
    9.6362  -17.2592   25.6042 C   0  0  0  0  0  0  0  0  0  0  0  0
   10.5112  -17.3385   26.5121 O   0  0  0  0  0  0  0  0  0  0  0  0
    8.1747  -13.1785   26.6817 C   0  0  0  0  0  0  0  0  0  0  0  0
    7.6240  -11.9039   26.6264 C   0  0  0  0  0  0  0  0  0  0  0  0
    9.4582  -18.3777   24.8240 O   0  0  0  0  0  0  0  0  0  0  0  0
  2  1  1  0
  3  2  1  0
  3  5  1  0
  4  3  2  0
  6  5  1  0
  6  7  1  6
  7  8  1  0
  9  6  1  0
  9 18  1  0
 10  9  2  0
 11 12  1  0
 12 22  2  0
 13 14  2  0
 13 12  1  0
 14 15  1  0
 15 16  1  0
 15 21  2  0
 17 18  1  0
 17 16  1  1
 19 17  1  0
 20 19  2  0
 22 21  1  0
 23 19  1  0
M  END
$$$$
