GCY.pdb
     RDKit          3D

 23 23  0  0  1  0  0  0  0  0999 V2000
   11.0519  -20.1995   16.0834 N   0  0  0  0  0  0  0  0  0  0  0  0
   11.6497  -18.9448   15.6925 C   0  0  0  0  0  0  0  0  0  0  0  0
   13.1202  -19.0451   15.5407 C   0  0  0  0  0  0  0  0  0  0  0  0
   13.7778  -20.0080   15.9579 O   0  0  0  0  0  0  0  0  0  0  0  0
   13.7895  -17.9799   14.8848 N   0  0  0  0  0  0  0  0  0  0  0  0
   15.2256  -18.0007   14.7159 C   0  0  1  0  0  0  0  0  0  0  0  0
   15.6005  -16.9239   13.7047 C   0  0  0  0  0  0  0  0  0  0  0  0
   17.2282  -17.3787   13.0381 S   0  0  0  0  0  0  0  0  0  0  0  0
   15.8983  -17.7308   16.0157 C   0  0  0  0  0  0  0  0  0  0  0  0
   15.4037  -16.9339   16.8419 O   0  0  0  0  0  0  0  0  0  0  0  0
   13.1559  -21.2211   20.8210 O   0  0  0  0  0  0  0  0  0  0  0  0
   14.3308  -20.7984   20.2063 C   0  0  0  0  0  0  0  0  0  0  0  0
   14.9457  -19.6702   20.6801 C   0  0  0  0  0  0  0  0  0  0  0  0
   16.1121  -19.2142   20.1018 C   0  0  0  0  0  0  0  0  0  0  0  0
   16.7020  -19.8785   19.0246 C   0  0  0  0  0  0  0  0  0  0  0  0
   17.9433  -19.3818   18.3991 C   0  0  0  0  0  0  0  0  0  0  0  0
   17.7508  -18.1092   17.6003 C   0  0  2  0  0  0  0  0  0  0  0  0
   17.1139  -18.3731   16.3417 N   0  0  0  0  0  0  0  0  0  0  0  0
   19.0318  -17.4197   17.3215 C   0  0  0  0  0  0  0  0  0  0  0  0
   19.3980  -17.1557   16.1416 O   0  0  0  0  0  0  0  0  0  0  0  0
   16.0599  -21.0084   18.5718 C   0  0  0  0  0  0  0  0  0  0  0  0
   14.8848  -21.4763   19.1470 C   0  0  0  0  0  0  0  0  0  0  0  0
   19.8832  -17.0325   18.3296 O   0  0  0  0  0  0  0  0  0  0  0  0
  2  1  1  0
  3  2  1  0
  3  5  1  0
  4  3  2  0
  6  5  1  0
  6  7  1  6
  7  8  1  0
  9  6  1  0
  9 18  1  0
 10  9  2  0
 11 12  1  0
 12 22  2  0
 13 14  2  0
 13 12  1  0
 14 15  1  0
 15 16  1  0
 15 21  2  0
 17 18  1  0
 17 16  1  6
 19 17  1  0
 20 19  2  0
 22 21  1  0
 23 19  1  0
M  END
$$$$
