GCY.pdb
     RDKit          3D

 23 23  0  0  1  0  0  0  0  0999 V2000
    8.3197  -18.3774   17.5756 N   0  0  0  0  0  0  0  0  0  0  0  0
    8.0764  -18.9116   18.8948 C   0  0  0  0  0  0  0  0  0  0  0  0
    7.7401  -17.8543   19.8768 C   0  0  0  0  0  0  0  0  0  0  0  0
    7.8456  -16.6453   19.6299 O   0  0  0  0  0  0  0  0  0  0  0  0
    7.2774  -18.2637   21.1539 N   0  0  0  0  0  0  0  0  0  0  0  0
    6.9782  -17.2894   22.1799 C   0  0  1  0  0  0  0  0  0  0  0  0
    5.7517  -17.7690   22.9470 C   0  0  0  0  0  0  0  0  0  0  0  0
    6.2066  -19.3471   23.7237 S   0  0  0  0  0  0  0  0  0  0  0  0
    8.1335  -17.1511   23.1077 C   0  0  0  0  0  0  0  0  0  0  0  0
    9.0338  -18.0172   23.1465 O   0  0  0  0  0  0  0  0  0  0  0  0
    5.0204  -11.9240   27.3456 O   0  0  0  0  0  0  0  0  0  0  0  0
    6.1628  -12.5349   26.8370 C   0  0  0  0  0  0  0  0  0  0  0  0
    6.2723  -12.6874   25.4805 C   0  0  0  0  0  0  0  0  0  0  0  0
    7.3869  -13.2870   24.9319 C   0  0  0  0  0  0  0  0  0  0  0  0
    8.4324  -13.7553   25.7301 C   0  0  0  0  0  0  0  0  0  0  0  0
    9.6185  -14.4080   25.1419 C   0  0  0  0  0  0  0  0  0  0  0  0
    9.3959  -15.8652   24.7925 C   0  0  2  0  0  0  0  0  0  0  0  0
    8.2349  -16.0333   23.9660 N   0  0  0  0  0  0  0  0  0  0  0  0
    9.2198  -16.7122   25.9948 C   0  0  0  0  0  0  0  0  0  0  0  0
    8.1055  -17.2363   26.2777 O   0  0  0  0  0  0  0  0  0  0  0  0
    8.2922  -13.5875   27.0889 C   0  0  0  0  0  0  0  0  0  0  0  0
    7.1739  -12.9848   27.6518 C   0  0  0  0  0  0  0  0  0  0  0  0
   10.2570  -16.9711   26.8599 O   0  0  0  0  0  0  0  0  0  0  0  0
  2  1  1  0
  3  2  1  0
  3  5  1  0
  4  3  2  0
  6  5  1  0
  6  7  1  1
  7  8  1  0
  9  6  1  0
  9 18  1  0
 10  9  2  0
 11 12  1  0
 12 22  2  0
 13 14  2  0
 13 12  1  0
 14 15  1  0
 15 16  1  0
 15 21  2  0
 17 18  1  0
 17 16  1  1
 19 17  1  0
 20 19  2  0
 22 21  1  0
 23 19  1  0
M  END
$$$$
