GCY.pdb
     RDKit          3D

 23 23  0  0  1  0  0  0  0  0999 V2000
    6.9468  -15.5097   20.0287 N   0  0  0  0  0  0  0  0  0  0  0  0
    6.2856  -15.0480   21.2263 C   0  0  0  0  0  0  0  0  0  0  0  0
    7.2225  -14.3951   22.1704 C   0  0  0  0  0  0  0  0  0  0  0  0
    8.4466  -14.3547   21.9871 O   0  0  0  0  0  0  0  0  0  0  0  0
    6.6749  -13.7936   23.3327 N   0  0  0  0  0  0  0  0  0  0  0  0
    7.5321  -13.1767   24.3206 C   0  0  1  0  0  0  0  0  0  0  0  0
    6.7676  -12.0231   24.9590 C   0  0  0  0  0  0  0  0  0  0  0  0
    5.4209  -12.7632   25.9282 S   0  0  0  0  0  0  0  0  0  0  0  0
    7.9117  -14.1701   25.3617 C   0  0  0  0  0  0  0  0  0  0  0  0
    7.1492  -15.1158   25.6557 O   0  0  0  0  0  0  0  0  0  0  0  0
   12.1082  -19.9059   30.3309 O   0  0  0  0  0  0  0  0  0  0  0  0
   11.7181  -18.9487   29.3989 C   0  0  0  0  0  0  0  0  0  0  0  0
   10.6036  -19.1919   28.6413 C   0  0  0  0  0  0  0  0  0  0  0  0
   10.1798  -18.2715   27.7052 C   0  0  0  0  0  0  0  0  0  0  0  0
   10.8636  -17.0719   27.4981 C   0  0  0  0  0  0  0  0  0  0  0  0
   10.4158  -16.0940   26.4872 C   0  0  0  0  0  0  0  0  0  0  0  0
    9.5000  -15.0239   27.0451 C   0  0  2  0  0  0  0  0  0  0  0  0
    9.1463  -14.0625   26.0403 N   0  0  0  0  0  0  0  0  0  0  0  0
   10.1145  -14.2897   28.1752 C   0  0  0  0  0  0  0  0  0  0  0  0
   10.7416  -13.2072   27.9983 O   0  0  0  0  0  0  0  0  0  0  0  0
   11.9794  -16.8574   28.2748 C   0  0  0  0  0  0  0  0  0  0  0  0
   12.4148  -17.7777   29.2204 C   0  0  0  0  0  0  0  0  0  0  0  0
   10.0325  -14.7469   29.4696 O   0  0  0  0  0  0  0  0  0  0  0  0
  2  1  1  0
  3  2  1  0
  3  5  1  0
  4  3  2  0
  6  5  1  0
  6  7  1  1
  7  8  1  0
  9  6  1  0
  9 18  1  0
 10  9  2  0
 11 12  1  0
 12 22  2  0
 13 14  2  0
 13 12  1  0
 14 15  1  0
 15 16  1  0
 15 21  2  0
 17 18  1  0
 17 16  1  6
 19 17  1  0
 20 19  2  0
 22 21  1  0
 23 19  1  0
M  END
$$$$
