GCY.pdb
     RDKit          3D

 23 23  0  0  1  0  0  0  0  0999 V2000
    4.4072  -19.4235   19.0126 N   0  0  0  0  0  0  0  0  0  0  0  0
    5.5480  -18.5588   18.8245 C   0  0  0  0  0  0  0  0  0  0  0  0
    6.4900  -18.6134   19.9669 C   0  0  0  0  0  0  0  0  0  0  0  0
    6.1490  -18.9547   21.1074 O   0  0  0  0  0  0  0  0  0  0  0  0
    7.8413  -18.2550   19.7249 N   0  0  0  0  0  0  0  0  0  0  0  0
    8.8062  -18.2365   20.8019 C   0  0  1  0  0  0  0  0  0  0  0  0
   10.1851  -18.4998   20.2088 C   0  0  0  0  0  0  0  0  0  0  0  0
   10.5800  -17.0741   19.1542 S   0  0  0  0  0  0  0  0  0  0  0  0
    8.7914  -16.9120   21.4804 C   0  0  0  0  0  0  0  0  0  0  0  0
    8.1384  -15.9560   21.0093 O   0  0  0  0  0  0  0  0  0  0  0  0
    6.4135  -11.1897   27.2811 O   0  0  0  0  0  0  0  0  0  0  0  0
    6.7638  -12.2884   26.5019 C   0  0  0  0  0  0  0  0  0  0  0  0
    6.6322  -12.1926   25.1422 C   0  0  0  0  0  0  0  0  0  0  0  0
    6.9675  -13.2564   24.3306 C   0  0  0  0  0  0  0  0  0  0  0  0
    7.4477  -14.4562   24.8593 C   0  0  0  0  0  0  0  0  0  0  0  0
    7.7940  -15.5977   23.9899 C   0  0  0  0  0  0  0  0  0  0  0  0
    9.2300  -15.5771   23.5080 C   0  0  2  0  0  0  0  0  0  0  0  0
    9.5184  -16.7094   22.6749 N   0  0  0  0  0  0  0  0  0  0  0  0
   10.2000  -15.5824   24.6274 C   0  0  0  0  0  0  0  0  0  0  0  0
   11.0109  -14.6299   24.8050 O   0  0  0  0  0  0  0  0  0  0  0  0
    7.5683  -14.5209   26.2287 C   0  0  0  0  0  0  0  0  0  0  0  0
    7.2335  -13.4553   27.0554 C   0  0  0  0  0  0  0  0  0  0  0  0
   10.2657  -16.6201   25.5275 O   0  0  0  0  0  0  0  0  0  0  0  0
  2  1  1  0
  3  2  1  0
  3  5  1  0
  4  3  2  0
  6  5  1  0
  6  7  1  6
  7  8  1  0
  9  6  1  0
  9 18  1  0
 10  9  2  0
 11 12  1  0
 12 22  2  0
 13 14  2  0
 13 12  1  0
 14 15  1  0
 15 16  1  0
 15 21  2  0
 17 18  1  0
 17 16  1  1
 19 17  1  0
 20 19  2  0
 22 21  1  0
 23 19  1  0
M  END
$$$$
