GCY.pdb
     RDKit          3D

 23 23  0  0  1  0  0  0  0  0999 V2000
    4.9268  -18.3510   20.1404 N   0  0  0  0  0  0  0  0  0  0  0  0
    5.0733  -17.0576   20.7650 C   0  0  0  0  0  0  0  0  0  0  0  0
    6.4938  -16.6679   20.9257 C   0  0  0  0  0  0  0  0  0  0  0  0
    7.3984  -17.4863   21.1394 O   0  0  0  0  0  0  0  0  0  0  0  0
    6.8146  -15.2894   20.8272 N   0  0  0  0  0  0  0  0  0  0  0  0
    8.1669  -14.8268   21.0470 C   0  0  1  0  0  0  0  0  0  0  0  0
    8.3036  -13.4440   20.4209 C   0  0  0  0  0  0  0  0  0  0  0  0
    8.1382  -13.6660   18.6254 S   0  0  0  0  0  0  0  0  0  0  0  0
    8.4523  -14.7525   22.5058 C   0  0  0  0  0  0  0  0  0  0  0  0
    7.6300  -14.2411   23.2961 O   0  0  0  0  0  0  0  0  0  0  0  0
    5.4884  -11.3858   27.0689 O   0  0  0  0  0  0  0  0  0  0  0  0
    6.2799  -12.4331   26.6067 C   0  0  0  0  0  0  0  0  0  0  0  0
    5.6608  -13.5573   26.1289 C   0  0  0  0  0  0  0  0  0  0  0  0
    6.4052  -14.6201   25.6605 C   0  0  0  0  0  0  0  0  0  0  0  0
    7.8011  -14.5892   25.6563 C   0  0  0  0  0  0  0  0  0  0  0  0
    8.5959  -15.7324   25.1664 C   0  0  0  0  0  0  0  0  0  0  0  0
    9.8643  -15.3228   24.4465 C   0  0  2  0  0  0  0  0  0  0  0  0
    9.6632  -15.2607   23.0270 N   0  0  0  0  0  0  0  0  0  0  0  0
   10.9844  -16.2576   24.7027 C   0  0  0  0  0  0  0  0  0  0  0  0
   11.5841  -16.2830   25.8144 O   0  0  0  0  0  0  0  0  0  0  0  0
    8.3930  -13.4459   26.1428 C   0  0  0  0  0  0  0  0  0  0  0  0
    7.6527  -12.3698   26.6169 C   0  0  0  0  0  0  0  0  0  0  0  0
   11.4254  -17.1428   23.7471 O   0  0  0  0  0  0  0  0  0  0  0  0
  2  1  1  0
  3  2  1  0
  3  5  1  0
  4  3  2  0
  6  5  1  0
  6  7  1  1
  7  8  1  0
  9  6  1  0
  9 18  1  0
 10  9  2  0
 11 12  1  0
 12 22  2  0
 13 14  2  0
 13 12  1  0
 14 15  1  0
 15 16  1  0
 15 21  2  0
 17 18  1  0
 17 16  1  1
 19 17  1  0
 20 19  2  0
 22 21  1  0
 23 19  1  0
M  END
$$$$
