GCY.pdb
     RDKit          3D

 23 23  0  0  1  0  0  0  0  0999 V2000
    9.0000  -19.5176   18.3820 N   0  0  0  0  0  0  0  0  0  0  0  0
    9.0611  -19.8883   19.7761 C   0  0  0  0  0  0  0  0  0  0  0  0
    8.5626  -18.8139   20.6664 C   0  0  0  0  0  0  0  0  0  0  0  0
    8.7292  -17.6097   20.4301 O   0  0  0  0  0  0  0  0  0  0  0  0
    7.8644  -19.2006   21.8393 N   0  0  0  0  0  0  0  0  0  0  0  0
    7.4065  -18.2102   22.7884 C   0  0  1  0  0  0  0  0  0  0  0  0
    6.3330  -18.8492   23.6612 C   0  0  0  0  0  0  0  0  0  0  0  0
    5.7849  -17.5728   24.8320 S   0  0  0  0  0  0  0  0  0  0  0  0
    8.5402  -17.7499   23.6357 C   0  0  0  0  0  0  0  0  0  0  0  0
    9.4041  -18.5548   24.0455 O   0  0  0  0  0  0  0  0  0  0  0  0
    5.2317  -12.0532   27.0279 O   0  0  0  0  0  0  0  0  0  0  0  0
    6.3866  -12.6323   26.5104 C   0  0  0  0  0  0  0  0  0  0  0  0
    6.4134  -12.9590   25.1808 C   0  0  0  0  0  0  0  0  0  0  0  0
    7.5368  -13.5347   24.6246 C   0  0  0  0  0  0  0  0  0  0  0  0
    8.6749  -13.8025   25.3880 C   0  0  0  0  0  0  0  0  0  0  0  0
    9.8714  -14.4301   24.7937 C   0  0  0  0  0  0  0  0  0  0  0  0
    9.8001  -15.9426   24.7455 C   0  0  2  0  0  0  0  0  0  0  0  0
    8.6617  -16.3887   23.9944 N   0  0  0  0  0  0  0  0  0  0  0  0
    9.7140  -16.5459   26.0956 C   0  0  0  0  0  0  0  0  0  0  0  0
   10.6482  -16.4212   26.9369 O   0  0  0  0  0  0  0  0  0  0  0  0
    8.6164  -13.4628   26.7204 C   0  0  0  0  0  0  0  0  0  0  0  0
    7.4899  -12.8825   27.2906 C   0  0  0  0  0  0  0  0  0  0  0  0
    8.6160  -17.2683   26.5002 O   0  0  0  0  0  0  0  0  0  0  0  0
  2  1  1  0
  3  2  1  0
  3  5  1  0
  4  3  2  0
  6  5  1  0
  6  7  1  1
  7  8  1  0
  9  6  1  0
  9 18  1  0
 10  9  2  0
 11 12  1  0
 12 22  2  0
 13 14  2  0
 13 12  1  0
 14 15  1  0
 15 16  1  0
 15 21  2  0
 17 18  1  0
 17 16  1  1
 19 17  1  0
 20 19  2  0
 22 21  1  0
 23 19  1  0
M  END
$$$$
