ICV.pdb
     RDKit          3D

 22 21  0  0  1  0  0  0  0  0999 V2000
   20.5986  -13.0041  -21.6789 C   0  0  0  0  0  0  0  0  0  0  0  0
   20.9887  -13.0945  -20.2312 C   0  0  0  0  0  0  0  0  0  0  0  0
   20.5529  -11.9164  -19.4012 C   0  0  2  0  0  0  0  0  0  0  0  0
   21.1510  -10.6292  -19.9433 C   0  0  0  0  0  0  0  0  0  0  0  0
   20.9467  -12.1458  -17.9656 C   0  0  2  0  0  0  0  0  0  0  0  0
   20.3320  -13.3991  -17.5442 N   0  0  0  0  0  0  0  0  0  0  0  0
   20.4420  -11.0720  -17.0480 C   0  0  0  0  0  0  0  0  0  0  0  0
   19.1789  -10.9988  -16.8488 O   0  0  0  0  0  0  0  0  0  0  0  0
   21.2418  -10.1374  -16.3847 N   0  0  0  0  0  0  0  0  0  0  0  0
   20.6113   -9.0555  -15.6096 C   0  0  1  0  0  0  0  0  0  0  0  0
   21.4158   -9.0178  -14.3096 C   0  0  0  0  0  0  0  0  0  0  0  0
   21.0007   -7.6496  -13.2439 S   0  0  0  0  0  0  0  0  0  0  0  0
   20.8007   -7.7603  -16.2974 C   0  0  0  0  0  0  0  0  0  0  0  0
   21.9495   -7.5001  -16.7925 O   0  0  0  0  0  0  0  0  0  0  0  0
   19.5487   -3.9714  -18.9441 C   0  0  0  0  0  0  0  0  0  0  0  0
   19.3177   -5.3328  -18.3389 C   0  0  2  0  0  0  0  0  0  0  0  0
   17.8554   -5.5808  -18.1238 C   0  0  0  0  0  0  0  0  0  0  0  0
   20.0984   -5.4595  -17.0399 C   0  0  2  0  0  0  0  0  0  0  0  0
   19.8223   -6.7652  -16.4655 N   0  0  0  0  0  0  0  0  0  0  0  0
   19.6103   -4.3864  -16.1333 C   0  0  0  0  0  0  0  0  0  0  0  0
   20.0933   -3.0953  -16.2117 O   0  0  0  0  0  0  0  0  0  0  0  0
   18.7359   -4.6332  -15.2639 O   0  0  0  0  0  0  0  0  0  0  0  0
  2  1  1  0
  3  4  1  6
  3  2  1  0
  3  5  1  0
  5  6  1  1
  7  5  1  0
  7  8  2  0
  9  7  1  0
 10  9  1  0
 10 13  1  0
 10 11  1  1
 12 11  1  0
 13 19  1  0
 13 14  2  0
 16 15  1  1
 16 17  1  0
 18 16  1  0
 18 19  1  1
 20 18  1  0
 20 21  1  0
 22 20  2  0
M  END
$$$$
