ICV.pdb
     RDKit          3D

 22 21  0  0  1  0  0  0  0  0999 V2000
   22.4533  -19.3210  -16.2538 C   0  0  0  0  0  0  0  0  0  0  0  0
   23.7026  -20.1549  -16.2435 C   0  0  0  0  0  0  0  0  0  0  0  0
   24.2544  -20.4204  -14.8681 C   0  0  2  0  0  0  0  0  0  0  0  0
   24.5724  -19.1155  -14.1577 C   0  0  0  0  0  0  0  0  0  0  0  0
   25.4733  -21.2980  -14.9814 C   0  0  2  0  0  0  0  0  0  0  0  0
   25.0361  -22.5754  -15.5320 N   0  0  0  0  0  0  0  0  0  0  0  0
   26.1092  -21.5803  -13.6527 C   0  0  0  0  0  0  0  0  0  0  0  0
   25.4798  -22.3407  -12.8366 O   0  0  0  0  0  0  0  0  0  0  0  0
   27.3429  -21.0802  -13.2272 N   0  0  0  0  0  0  0  0  0  0  0  0
   27.8392  -21.4087  -11.8802 C   0  0  1  0  0  0  0  0  0  0  0  0
   29.3390  -21.1210  -11.9608 C   0  0  0  0  0  0  0  0  0  0  0  0
   30.2535  -22.3208  -12.9116 S   0  0  0  0  0  0  0  0  0  0  0  0
   27.2539  -20.4863  -10.8837 C   0  0  0  0  0  0  0  0  0  0  0  0
   27.0770  -19.2661  -11.2188 O   0  0  0  0  0  0  0  0  0  0  0  0
   25.1262  -21.7066   -7.4786 C   0  0  0  0  0  0  0  0  0  0  0  0
   24.9669  -20.3700   -8.1577 C   0  0  2  0  0  0  0  0  0  0  0  0
   23.9927  -20.4602   -9.2930 C   0  0  0  0  0  0  0  0  0  0  0  0
   26.3219  -19.8654   -8.6288 C   0  0  2  0  0  0  0  0  0  0  0  0
   26.8633  -20.8246   -9.5764 N   0  0  0  0  0  0  0  0  0  0  0  0
   27.1955  -19.7813   -7.4282 C   0  0  0  0  0  0  0  0  0  0  0  0
   27.0503  -18.7744   -6.4947 O   0  0  0  0  0  0  0  0  0  0  0  0
   28.0975  -20.6356   -7.2332 O   0  0  0  0  0  0  0  0  0  0  0  0
  2  1  1  0
  3  4  1  6
  3  2  1  0
  3  5  1  0
  5  6  1  1
  7  5  1  0
  7  8  2  0
  9  7  1  0
 10  9  1  0
 10 13  1  0
 10 11  1  6
 12 11  1  0
 13 19  1  0
 13 14  2  0
 16 15  1  6
 16 17  1  0
 18 16  1  0
 18 19  1  6
 20 18  1  0
 20 21  1  0
 22 20  2  0
M  END
$$$$
