ICV.pdb
     RDKit          3D

 22 21  0  0  1  0  0  0  0  0999 V2000
   26.6767  -25.9101  -17.8676 C   0  0  0  0  0  0  0  0  0  0  0  0
   25.8995  -25.4452  -16.6692 C   0  0  0  0  0  0  0  0  0  0  0  0
   26.0545  -23.9787  -16.3657 C   0  0  2  0  0  0  0  0  0  0  0  0
   27.4889  -23.6611  -15.9779 C   0  0  0  0  0  0  0  0  0  0  0  0
   25.0898  -23.5911  -15.2759 C   0  0  2  0  0  0  0  0  0  0  0  0
   25.4863  -24.3114  -14.0718 N   0  0  0  0  0  0  0  0  0  0  0  0
   23.6766  -23.9864  -15.5860 C   0  0  0  0  0  0  0  0  0  0  0  0
   23.0669  -23.3512  -16.5162 O   0  0  0  0  0  0  0  0  0  0  0  0
   22.9633  -25.0001  -14.9404 N   0  0  0  0  0  0  0  0  0  0  0  0
   21.5776  -25.2905  -15.3458 C   0  0  1  0  0  0  0  0  0  0  0  0
   21.3164  -26.6895  -14.7862 C   0  0  0  0  0  0  0  0  0  0  0  0
   19.6001  -27.1719  -14.8221 S   0  0  0  0  0  0  0  0  0  0  0  0
   20.6463  -24.3549  -14.6796 C   0  0  0  0  0  0  0  0  0  0  0  0
   20.7746  -24.1656  -13.4225 O   0  0  0  0  0  0  0  0  0  0  0  0
   16.7592  -21.5233  -15.4967 C   0  0  0  0  0  0  0  0  0  0  0  0
   18.2577  -21.6615  -15.5888 C   0  0  2  0  0  0  0  0  0  0  0  0
   18.6787  -21.9945  -16.9881 C   0  0  0  0  0  0  0  0  0  0  0  0
   18.7412  -22.7110  -14.5999 C   0  0  2  0  0  0  0  0  0  0  0  0
   19.6119  -23.6367  -15.3041 N   0  0  0  0  0  0  0  0  0  0  0  0
   17.5357  -23.4220  -14.0971 C   0  0  0  0  0  0  0  0  0  0  0  0
   16.7967  -22.9363  -13.0367 O   0  0  0  0  0  0  0  0  0  0  0  0
   17.1569  -24.4950  -14.6326 O   0  0  0  0  0  0  0  0  0  0  0  0
  2  1  1  0
  3  4  1  1
  3  2  1  0
  3  5  1  0
  5  6  1  1
  7  5  1  0
  7  8  2  0
  9  7  1  0
 10  9  1  0
 10 13  1  0
 10 11  1  1
 12 11  1  0
 13 19  1  0
 13 14  2  0
 16 15  1  6
 16 17  1  0
 18 16  1  0
 18 19  1  6
 20 18  1  0
 20 21  1  0
 22 20  2  0
M  END
$$$$
