ICV.pdb
     RDKit          3D

 22 21  0  0  1  0  0  0  0  0999 V2000
   17.6256  -15.3121  -18.8298 C   0  0  0  0  0  0  0  0  0  0  0  0
   18.8911  -14.7552  -18.2429 C   0  0  0  0  0  0  0  0  0  0  0  0
   18.7279  -13.4062  -17.5947 C   0  0  2  0  0  0  0  0  0  0  0  0
   18.2242  -12.3860  -18.6017 C   0  0  0  0  0  0  0  0  0  0  0  0
   20.0405  -12.9823  -16.9897 C   0  0  2  0  0  0  0  0  0  0  0  0
   20.4505  -14.0345  -16.0673 N   0  0  0  0  0  0  0  0  0  0  0  0
   19.9300  -11.7138  -16.1971 C   0  0  0  0  0  0  0  0  0  0  0  0
   18.9930  -11.6298  -15.3280 O   0  0  0  0  0  0  0  0  0  0  0  0
   20.7724  -10.6063  -16.3273 N   0  0  0  0  0  0  0  0  0  0  0  0
   20.5183   -9.3969  -15.5264 C   0  0  1  0  0  0  0  0  0  0  0  0
   21.8550   -9.1268  -14.8342 C   0  0  0  0  0  0  0  0  0  0  0  0
   21.9130   -7.5746  -13.9583 S   0  0  0  0  0  0  0  0  0  0  0  0
   20.2283   -8.2506  -16.4145 C   0  0  0  0  0  0  0  0  0  0  0  0
   20.8945   -8.1416  -17.4993 O   0  0  0  0  0  0  0  0  0  0  0  0
   17.3498   -5.1012  -18.5729 C   0  0  0  0  0  0  0  0  0  0  0  0
   17.6237   -6.2409  -17.6247 C   0  0  2  0  0  0  0  0  0  0  0  0
   16.6169   -6.2664  -16.5148 C   0  0  0  0  0  0  0  0  0  0  0  0
   19.0414   -6.1339  -17.0847 C   0  0  2  0  0  0  0  0  0  0  0  0
   19.2719   -7.2474  -16.1803 N   0  0  0  0  0  0  0  0  0  0  0  0
   19.1288   -4.8462  -16.3459 C   0  0  0  0  0  0  0  0  0  0  0  0
   19.4965   -3.6730  -16.9741 O   0  0  0  0  0  0  0  0  0  0  0  0
   18.8665   -4.7956  -15.1170 O   0  0  0  0  0  0  0  0  0  0  0  0
  2  1  1  0
  3  4  1  6
  3  2  1  0
  3  5  1  0
  5  6  1  1
  7  5  1  0
  7  8  2  0
  9  7  1  0
 10  9  1  0
 10 13  1  0
 10 11  1  6
 12 11  1  0
 13 19  1  0
 13 14  2  0
 16 15  1  6
 16 17  1  0
 18 16  1  0
 18 19  1  1
 20 18  1  0
 20 21  1  0
 22 20  2  0
M  END
$$$$
