ICV.pdb
     RDKit          3D

 22 21  0  0  1  0  0  0  0  0999 V2000
   26.8404  -15.6713  -15.6148 C   0  0  0  0  0  0  0  0  0  0  0  0
   25.3638  -15.8202  -15.3835 C   0  0  0  0  0  0  0  0  0  0  0  0
   24.5518  -14.6216  -15.7967 C   0  0  2  0  0  0  0  0  0  0  0  0
   24.9776  -13.3909  -15.0140 C   0  0  0  0  0  0  0  0  0  0  0  0
   23.0884  -14.9203  -15.6016 C   0  0  2  0  0  0  0  0  0  0  0  0
   22.7854  -16.1187  -16.3750 N   0  0  0  0  0  0  0  0  0  0  0  0
   22.2006  -13.8246  -16.1125 C   0  0  0  0  0  0  0  0  0  0  0  0
   22.1617  -13.6255  -17.3771 O   0  0  0  0  0  0  0  0  0  0  0  0
   21.4038  -12.9965  -15.3174 N   0  0  0  0  0  0  0  0  0  0  0  0
   20.6606  -11.8853  -15.9353 C   0  0  1  0  0  0  0  0  0  0  0  0
   19.2144  -12.1222  -15.4981 C   0  0  0  0  0  0  0  0  0  0  0  0
   18.5810  -13.7292  -15.9411 S   0  0  0  0  0  0  0  0  0  0  0  0
   21.1023  -10.5964  -15.3606 C   0  0  0  0  0  0  0  0  0  0  0  0
   21.4809  -10.5758  -14.1405 O   0  0  0  0  0  0  0  0  0  0  0  0
   21.5168   -7.1321  -17.7009 C   0  0  0  0  0  0  0  0  0  0  0  0
   22.4210   -7.3736  -16.5189 C   0  0  2  0  0  0  0  0  0  0  0  0
   23.6678   -8.0921  -16.9378 C   0  0  0  0  0  0  0  0  0  0  0  0
   21.6711   -8.1454  -15.4443 C   0  0  2  0  0  0  0  0  0  0  0  0
   21.1491   -9.3650  -16.0368 N   0  0  0  0  0  0  0  0  0  0  0  0
   20.5531   -7.2779  -14.9867 C   0  0  0  0  0  0  0  0  0  0  0  0
   20.7645   -6.2099  -14.1375 O   0  0  0  0  0  0  0  0  0  0  0  0
   19.3752   -7.4997  -15.3674 O   0  0  0  0  0  0  0  0  0  0  0  0
  2  1  1  0
  3  4  1  1
  3  2  1  0
  3  5  1  0
  5  6  1  6
  7  5  1  0
  7  8  2  0
  9  7  1  0
 10  9  1  0
 10 13  1  0
 10 11  1  1
 12 11  1  0
 13 19  1  0
 13 14  2  0
 16 15  1  6
 16 17  1  0
 18 16  1  0
 18 19  1  6
 20 18  1  0
 20 21  1  0
 22 20  2  0
M  END
$$$$
