ICV.pdb
     RDKit          3D

 22 21  0  0  1  0  0  0  0  0999 V2000
   20.0230  -16.8264  -15.8430 C   0  0  0  0  0  0  0  0  0  0  0  0
   20.7346  -18.0833  -16.2555 C   0  0  0  0  0  0  0  0  0  0  0  0
   21.3104  -18.8699  -15.1082 C   0  0  2  0  0  0  0  0  0  0  0  0
   22.3020  -18.0262  -14.3249 C   0  0  0  0  0  0  0  0  0  0  0  0
   21.9519  -20.1256  -15.6376 C   0  0  2  0  0  0  0  0  0  0  0  0
   20.8959  -20.9270  -16.2449 N   0  0  0  0  0  0  0  0  0  0  0  0
   22.5758  -20.9573  -14.5565 C   0  0  0  0  0  0  0  0  0  0  0  0
   21.8148  -21.7429  -13.8902 O   0  0  0  0  0  0  0  0  0  0  0  0
   23.9305  -20.9480  -14.2133 N   0  0  0  0  0  0  0  0  0  0  0  0
   24.3971  -21.7346  -13.0591 C   0  0  1  0  0  0  0  0  0  0  0  0
   25.1085  -22.9309  -13.6928 C   0  0  0  0  0  0  0  0  0  0  0  0
   24.8183  -23.0976  -15.4444 S   0  0  0  0  0  0  0  0  0  0  0  0
   25.4003  -20.9655  -12.2917 C   0  0  0  0  0  0  0  0  0  0  0  0
   26.2002  -20.2041  -12.9342 O   0  0  0  0  0  0  0  0  0  0  0  0
   25.1077  -19.9043   -8.3432 C   0  0  0  0  0  0  0  0  0  0  0  0
   26.4520  -20.4789   -8.7118 C   0  0  2  0  0  0  0  0  0  0  0  0
   27.5484  -19.8137   -7.9362 C   0  0  0  0  0  0  0  0  0  0  0  0
   26.6757  -20.3491  -10.2104 C   0  0  2  0  0  0  0  0  0  0  0  0
   25.5653  -20.9878  -10.8960 N   0  0  0  0  0  0  0  0  0  0  0  0
   27.9464  -21.0557  -10.5228 C   0  0  0  0  0  0  0  0  0  0  0  0
   27.9694  -22.3976  -10.8471 O   0  0  0  0  0  0  0  0  0  0  0  0
   29.0426  -20.4399  -10.4985 O   0  0  0  0  0  0  0  0  0  0  0  0
  2  1  1  0
  3  4  1  6
  3  2  1  0
  3  5  1  0
  5  6  1  1
  7  5  1  0
  7  8  2  0
  9  7  1  0
 10  9  1  0
 10 13  1  0
 10 11  1  6
 12 11  1  0
 13 19  1  0
 13 14  2  0
 16 15  1  6
 16 17  1  0
 18 16  1  0
 18 19  1  6
 20 18  1  0
 20 21  1  0
 22 20  2  0
M  END
$$$$
