ICV.pdb
     RDKit          3D

 22 21  0  0  1  0  0  0  0  0999 V2000
   28.7288  -14.6590  -16.9251 C   0  0  0  0  0  0  0  0  0  0  0  0
   27.2612  -14.9431  -17.0718 C   0  0  0  0  0  0  0  0  0  0  0  0
   26.4163  -13.7177  -17.2983 C   0  0  2  0  0  0  0  0  0  0  0  0
   26.4563  -12.8078  -16.0822 C   0  0  0  0  0  0  0  0  0  0  0  0
   25.0077  -14.1379  -17.6268 C   0  0  2  0  0  0  0  0  0  0  0  0
   25.0802  -15.0277  -18.7796 N   0  0  0  0  0  0  0  0  0  0  0  0
   24.1333  -12.9816  -18.0114 C   0  0  0  0  0  0  0  0  0  0  0  0
   24.3565  -12.4092  -19.1353 O   0  0  0  0  0  0  0  0  0  0  0  0
   23.0847  -12.4728  -17.2402 N   0  0  0  0  0  0  0  0  0  0  0  0
   22.3278  -11.3030  -17.7172 C   0  0  1  0  0  0  0  0  0  0  0  0
   20.8711  -11.7670  -17.6785 C   0  0  0  0  0  0  0  0  0  0  0  0
   20.5024  -13.0825  -18.8244 S   0  0  0  0  0  0  0  0  0  0  0  0
   22.4715  -10.1814  -16.7643 C   0  0  0  0  0  0  0  0  0  0  0  0
   22.4295  -10.4403  -15.5138 O   0  0  0  0  0  0  0  0  0  0  0  0
   23.9538   -6.4738  -17.9037 C   0  0  0  0  0  0  0  0  0  0  0  0
   24.0666   -6.9747  -16.4862 C   0  0  2  0  0  0  0  0  0  0  0  0
   25.3124   -7.7877  -16.3042 C   0  0  0  0  0  0  0  0  0  0  0  0
   22.8251   -7.7733  -16.1205 C   0  0  2  0  0  0  0  0  0  0  0  0
   22.6544   -8.8296  -17.1034 N   0  0  0  0  0  0  0  0  0  0  0  0
   21.6735   -6.8338  -16.1717 C   0  0  0  0  0  0  0  0  0  0  0  0
   21.4997   -5.8468  -15.2219 O   0  0  0  0  0  0  0  0  0  0  0  0
   20.8210   -6.9175  -17.0925 O   0  0  0  0  0  0  0  0  0  0  0  0
  2  1  1  0
  3  4  1  1
  3  2  1  0
  3  5  1  0
  5  6  1  6
  7  5  1  0
  7  8  2  0
  9  7  1  0
 10  9  1  0
 10 13  1  0
 10 11  1  1
 12 11  1  0
 13 19  1  0
 13 14  2  0
 16 15  1  6
 16 17  1  0
 18 16  1  0
 18 19  1  6
 20 18  1  0
 20 21  1  0
 22 20  2  0
M  END
$$$$
