ICV.pdb
     RDKit          3D

 22 21  0  0  1  0  0  0  0  0999 V2000
   20.6390  -13.7671  -20.1942 C   0  0  0  0  0  0  0  0  0  0  0  0
   21.4695  -13.0091  -19.1982 C   0  0  0  0  0  0  0  0  0  0  0  0
   20.7795  -11.8082  -18.6080 C   0  0  2  0  0  0  0  0  0  0  0  0
   20.2644  -10.8933  -19.7063 C   0  0  0  0  0  0  0  0  0  0  0  0
   21.7323  -11.0871  -17.6910 C   0  0  2  0  0  0  0  0  0  0  0  0
   22.2910  -12.0802  -16.7812 N   0  0  0  0  0  0  0  0  0  0  0  0
   21.0524  -10.0469  -16.8513 C   0  0  0  0  0  0  0  0  0  0  0  0
   20.5299   -9.0418  -17.4490 O   0  0  0  0  0  0  0  0  0  0  0  0
   20.9385  -10.0835  -15.4589 N   0  0  0  0  0  0  0  0  0  0  0  0
   20.3135   -8.9560  -14.7471 C   0  0  1  0  0  0  0  0  0  0  0  0
   19.9700   -9.5335  -13.3733 C   0  0  0  0  0  0  0  0  0  0  0  0
   19.5611   -8.2988  -12.1535 S   0  0  0  0  0  0  0  0  0  0  0  0
   21.2984   -7.8709  -14.5490 C   0  0  0  0  0  0  0  0  0  0  0  0
   22.4680   -8.1824  -14.1399 O   0  0  0  0  0  0  0  0  0  0  0  0
   20.8960   -4.0536  -16.2019 C   0  0  0  0  0  0  0  0  0  0  0  0
   22.2229   -4.6685  -15.8354 C   0  0  2  0  0  0  0  0  0  0  0  0
   22.7505   -5.5094  -16.9581 C   0  0  0  0  0  0  0  0  0  0  0  0
   22.0809   -5.4780  -14.5558 C   0  0  2  0  0  0  0  0  0  0  0  0
   21.0724   -6.5015  -14.7713 N   0  0  0  0  0  0  0  0  0  0  0  0
   21.6378   -4.5367  -13.4931 C   0  0  0  0  0  0  0  0  0  0  0  0
   22.5014   -3.6162  -12.9334 O   0  0  0  0  0  0  0  0  0  0  0  0
   20.4521   -4.5577  -13.0747 O   0  0  0  0  0  0  0  0  0  0  0  0
  2  1  1  0
  3  4  1  6
  3  2  1  0
  3  5  1  0
  5  6  1  1
  7  5  1  0
  7  8  2  0
  9  7  1  0
 10  9  1  0
 10 13  1  0
 10 11  1  1
 12 11  1  0
 13 19  1  0
 13 14  2  0
 16 15  1  6
 16 17  1  0
 18 16  1  0
 18 19  1  6
 20 18  1  0
 20 21  1  0
 22 20  2  0
M  END
$$$$
