ICV.pdb
     RDKit          3D

 22 21  0  0  1  0  0  0  0  0999 V2000
   27.2695  -19.0266   -6.2015 C   0  0  0  0  0  0  0  0  0  0  0  0
   26.9054  -20.4328   -6.5840 C   0  0  0  0  0  0  0  0  0  0  0  0
   27.1915  -20.7735   -8.0223 C   0  0  2  0  0  0  0  0  0  0  0  0
   28.5701  -20.2781   -8.4257 C   0  0  0  0  0  0  0  0  0  0  0  0
   26.1160  -20.1845   -8.8970 C   0  0  2  0  0  0  0  0  0  0  0  0
   24.8332  -20.6096   -8.3495 N   0  0  0  0  0  0  0  0  0  0  0  0
   26.1830  -20.6808  -10.3108 C   0  0  0  0  0  0  0  0  0  0  0  0
   27.1853  -21.4048  -10.6449 O   0  0  0  0  0  0  0  0  0  0  0  0
   25.2340  -20.4187  -11.3026 N   0  0  0  0  0  0  0  0  0  0  0  0
   25.5184  -20.7837  -12.7006 C   0  0  1  0  0  0  0  0  0  0  0  0
   24.3263  -21.6529  -13.1034 C   0  0  0  0  0  0  0  0  0  0  0  0
   23.8995  -22.8955  -11.8977 S   0  0  0  0  0  0  0  0  0  0  0  0
   25.5073  -19.5761  -13.5539 C   0  0  0  0  0  0  0  0  0  0  0  0
   24.8858  -18.5425  -13.1319 O   0  0  0  0  0  0  0  0  0  0  0  0
   28.6535  -18.2598  -15.3617 C   0  0  0  0  0  0  0  0  0  0  0  0
   27.4941  -18.1586  -16.3201 C   0  0  2  0  0  0  0  0  0  0  0  0
   27.5984  -16.9191  -17.1560 C   0  0  0  0  0  0  0  0  0  0  0  0
   26.1830  -18.1994  -15.5505 C   0  0  2  0  0  0  0  0  0  0  0  0
   26.1259  -19.4479  -14.8095 N   0  0  0  0  0  0  0  0  0  0  0  0
   25.0877  -18.1485  -16.5552 C   0  0  0  0  0  0  0  0  0  0  0  0
   24.4395  -16.9687  -16.8623 O   0  0  0  0  0  0  0  0  0  0  0  0
   24.7224  -19.1914  -17.1555 O   0  0  0  0  0  0  0  0  0  0  0  0
  2  1  1  0
  3  4  1  6
  3  2  1  0
  3  5  1  0
  5  6  1  1
  7  5  1  0
  7  8  2  0
  9  7  1  0
 10  9  1  0
 10 13  1  0
 10 11  1  6
 12 11  1  0
 13 19  1  0
 13 14  2  0
 16 15  1  1
 16 17  1  0
 18 16  1  0
 18 19  1  6
 20 18  1  0
 20 21  1  0
 22 20  2  0
M  END
$$$$
