ICV.pdb
     RDKit          3D

 22 21  0  0  1  0  0  0  0  0999 V2000
   29.5476  -19.0057  -17.7128 C   0  0  0  0  0  0  0  0  0  0  0  0
   28.7789  -18.5795  -16.4947 C   0  0  0  0  0  0  0  0  0  0  0  0
   27.8465  -19.6315  -15.9556 C   0  0  2  0  0  0  0  0  0  0  0  0
   26.8720  -20.0843  -17.0298 C   0  0  0  0  0  0  0  0  0  0  0  0
   27.1252  -19.0873  -14.7505 C   0  0  2  0  0  0  0  0  0  0  0  0
   28.1403  -18.7000  -13.7781 N   0  0  0  0  0  0  0  0  0  0  0  0
   26.2451  -20.1082  -14.0925 C   0  0  0  0  0  0  0  0  0  0  0  0
   25.2755  -20.5927  -14.7749 O   0  0  0  0  0  0  0  0  0  0  0  0
   26.3967  -20.5807  -12.7861 N   0  0  0  0  0  0  0  0  0  0  0  0
   25.3781  -21.4745  -12.2096 C   0  0  1  0  0  0  0  0  0  0  0  0
   25.7391  -21.5339  -10.7247 C   0  0  0  0  0  0  0  0  0  0  0  0
   25.7440  -19.9429   -9.9194 S   0  0  0  0  0  0  0  0  0  0  0  0
   24.0381  -20.8603  -12.3259 C   0  0  0  0  0  0  0  0  0  0  0  0
   23.8362  -19.7355  -11.7544 O   0  0  0  0  0  0  0  0  0  0  0  0
   21.3214  -21.6794  -15.3168 C   0  0  0  0  0  0  0  0  0  0  0  0
   21.2554  -20.4448  -14.4539 C   0  0  2  0  0  0  0  0  0  0  0  0
   22.1459  -19.3671  -14.9940 C   0  0  0  0  0  0  0  0  0  0  0  0
   21.6188  -20.7972  -13.0198 C   0  0  2  0  0  0  0  0  0  0  0  0
   22.9404  -21.4009  -13.0177 N   0  0  0  0  0  0  0  0  0  0  0  0
   20.6064  -21.7768  -12.5433 C   0  0  0  0  0  0  0  0  0  0  0  0
   19.3051  -21.4021  -12.2740 O   0  0  0  0  0  0  0  0  0  0  0  0
   20.9160  -22.9837  -12.3726 O   0  0  0  0  0  0  0  0  0  0  0  0
  2  1  1  0
  3  4  1  6
  3  2  1  0
  3  5  1  0
  5  6  1  1
  7  5  1  0
  7  8  2  0
  9  7  1  0
 10  9  1  0
 10 13  1  0
 10 11  1  1
 12 11  1  0
 13 19  1  0
 13 14  2  0
 16 15  1  6
 16 17  1  0
 18 16  1  0
 18 19  1  6
 20 18  1  0
 20 21  1  0
 22 20  2  0
M  END
$$$$
