ICV.pdb
     RDKit          3D

 22 21  0  0  1  0  0  0  0  0999 V2000
   29.9176  -20.5969  -11.3017 C   0  0  0  0  0  0  0  0  0  0  0  0
   28.5176  -20.9968  -10.9326 C   0  0  0  0  0  0  0  0  0  0  0  0
   27.5211  -20.8543  -12.0522 C   0  0  2  0  0  0  0  0  0  0  0  0
   27.5532  -19.4459  -12.6213 C   0  0  0  0  0  0  0  0  0  0  0  0
   26.1487  -21.2134  -11.5460 C   0  0  2  0  0  0  0  0  0  0  0  0
   26.1986  -22.6048  -11.1128 N   0  0  0  0  0  0  0  0  0  0  0  0
   25.0954  -21.1158  -12.6092 C   0  0  0  0  0  0  0  0  0  0  0  0
   25.1695  -21.9217  -13.6020 O   0  0  0  0  0  0  0  0  0  0  0  0
   24.0292  -20.2123  -12.6068 N   0  0  0  0  0  0  0  0  0  0  0  0
   23.1179  -20.1544  -13.7621 C   0  0  1  0  0  0  0  0  0  0  0  0
   21.7257  -20.2595  -13.1379 C   0  0  0  0  0  0  0  0  0  0  0  0
   20.4027  -20.3218  -14.3318 S   0  0  0  0  0  0  0  0  0  0  0  0
   23.2192  -18.8360  -14.4241 C   0  0  0  0  0  0  0  0  0  0  0  0
   23.0458  -17.7876  -13.7147 O   0  0  0  0  0  0  0  0  0  0  0  0
   25.2998  -18.0522  -17.8654 C   0  0  0  0  0  0  0  0  0  0  0  0
   24.8223  -16.9649  -16.9365 C   0  0  2  0  0  0  0  0  0  0  0  0
   25.7945  -16.7547  -15.8154 C   0  0  0  0  0  0  0  0  0  0  0  0
   23.4363  -17.3060  -16.4116 C   0  0  2  0  0  0  0  0  0  0  0  0
   23.4938  -18.6156  -15.7849 N   0  0  0  0  0  0  0  0  0  0  0  0
   22.5232  -17.3383  -17.5850 C   0  0  0  0  0  0  0  0  0  0  0  0
   22.1615  -16.1862  -18.2545 O   0  0  0  0  0  0  0  0  0  0  0  0
   22.0538  -18.4289  -17.9995 O   0  0  0  0  0  0  0  0  0  0  0  0
  2  1  1  0
  3  4  1  1
  3  2  1  0
  3  5  1  0
  5  6  1  6
  7  5  1  0
  7  8  2  0
  9  7  1  0
 10  9  1  0
 10 13  1  0
 10 11  1  1
 12 11  1  0
 13 19  1  0
 13 14  2  0
 16 15  1  6
 16 17  1  0
 18 16  1  0
 18 19  1  6
 20 18  1  0
 20 21  1  0
 22 20  2  0
M  END
$$$$
