ICV.pdb
     RDKit          3D

 22 21  0  0  1  0  0  0  0  0999 V2000
   11.6390  -13.2318  -14.1137 C   0  0  0  0  0  0  0  0  0  0  0  0
   13.0525  -12.8919  -14.4916 C   0  0  0  0  0  0  0  0  0  0  0  0
   13.7805  -12.0609  -13.4688 C   0  0  2  0  0  0  0  0  0  0  0  0
   13.0413  -10.7583  -13.2130 C   0  0  0  0  0  0  0  0  0  0  0  0
   15.1892  -11.8122  -13.9405 C   0  0  2  0  0  0  0  0  0  0  0  0
   15.8432  -13.1108  -14.0507 N   0  0  0  0  0  0  0  0  0  0  0  0
   15.9882  -10.9923  -12.9715 C   0  0  0  0  0  0  0  0  0  0  0  0
   16.4677  -11.5817  -11.9406 O   0  0  0  0  0  0  0  0  0  0  0  0
   16.2572   -9.6270  -13.1014 N   0  0  0  0  0  0  0  0  0  0  0  0
   16.9887   -8.9219  -12.0354 C   0  0  1  0  0  0  0  0  0  0  0  0
   18.2407   -8.3932  -12.7365 C   0  0  0  0  0  0  0  0  0  0  0  0
   19.2011   -7.2650  -11.7441 S   0  0  0  0  0  0  0  0  0  0  0  0
   16.2066   -7.7580  -11.5661 C   0  0  0  0  0  0  0  0  0  0  0  0
   15.6182   -7.0328  -12.4380 O   0  0  0  0  0  0  0  0  0  0  0  0
   14.9269   -7.2566   -7.6232 C   0  0  0  0  0  0  0  0  0  0  0  0
   14.2480   -6.6073   -8.8024 C   0  0  2  0  0  0  0  0  0  0  0  0
   13.2283   -7.5259   -9.4044 C   0  0  0  0  0  0  0  0  0  0  0  0
   15.2878   -6.1848   -9.8285 C   0  0  2  0  0  0  0  0  0  0  0  0
   16.0412   -7.3612  -10.2277 N   0  0  0  0  0  0  0  0  0  0  0  0
   16.1840   -5.2039   -9.1603 C   0  0  0  0  0  0  0  0  0  0  0  0
   15.7656   -3.9210   -8.8681 O   0  0  0  0  0  0  0  0  0  0  0  0
   17.3577   -5.5243   -8.8421 O   0  0  0  0  0  0  0  0  0  0  0  0
  2  1  1  0
  3  4  1  6
  3  2  1  0
  3  5  1  0
  5  6  1  1
  7  5  1  0
  7  8  2  0
  9  7  1  0
 10  9  1  0
 10 13  1  0
 10 11  1  6
 12 11  1  0
 13 19  1  0
 13 14  2  0
 16 15  1  1
 16 17  1  0
 18 16  1  0
 18 19  1  1
 20 18  1  0
 20 21  1  0
 22 20  2  0
M  END
$$$$
