ICV.pdb
     RDKit          3D

 22 21  0  0  1  0  0  0  0  0999 V2000
   18.0915  -13.0476  -19.7991 C   0  0  0  0  0  0  0  0  0  0  0  0
   17.9883  -13.0995  -18.3015 C   0  0  0  0  0  0  0  0  0  0  0  0
   17.9677  -11.7479  -17.6384 C   0  0  2  0  0  0  0  0  0  0  0  0
   19.2897  -11.0288  -17.8480 C   0  0  0  0  0  0  0  0  0  0  0  0
   17.6575  -11.9163  -16.1741 C   0  0  2  0  0  0  0  0  0  0  0  0
   16.3434  -12.5412  -16.0802 N   0  0  0  0  0  0  0  0  0  0  0  0
   17.5815  -10.6082  -15.4442 C   0  0  0  0  0  0  0  0  0  0  0  0
   16.4338  -10.0514  -15.3302 O   0  0  0  0  0  0  0  0  0  0  0  0
   18.6676   -9.9409  -14.8712 N   0  0  0  0  0  0  0  0  0  0  0  0
   18.4522   -8.6669  -14.1648 C   0  0  1  0  0  0  0  0  0  0  0  0
   17.7812   -9.0818  -12.8547 C   0  0  0  0  0  0  0  0  0  0  0  0
   17.9162   -7.8651  -11.5582 S   0  0  0  0  0  0  0  0  0  0  0  0
   19.7514   -8.0446  -13.8310 C   0  0  0  0  0  0  0  0  0  0  0  0
   20.5653   -8.6998  -13.0956 O   0  0  0  0  0  0  0  0  0  0  0  0
   21.4527   -5.3381  -16.3531 C   0  0  0  0  0  0  0  0  0  0  0  0
   22.2253   -6.2500  -15.4341 C   0  0  2  0  0  0  0  0  0  0  0  0
   22.3596   -7.6191  -16.0289 C   0  0  0  0  0  0  0  0  0  0  0  0
   21.5517   -6.3012  -14.0716 C   0  0  2  0  0  0  0  0  0  0  0  0
   20.1909   -6.7772  -14.2514 N   0  0  0  0  0  0  0  0  0  0  0  0
   21.5435   -4.9128  -13.5386 C   0  0  0  0  0  0  0  0  0  0  0  0
   20.3856   -4.1625  -13.4871 O   0  0  0  0  0  0  0  0  0  0  0  0
   22.6038   -4.3838  -13.1174 O   0  0  0  0  0  0  0  0  0  0  0  0
  2  1  1  0
  3  4  1  1
  3  2  1  0
  3  5  1  0
  5  6  1  6
  7  5  1  0
  7  8  2  0
  9  7  1  0
 10  9  1  0
 10 13  1  0
 10 11  1  1
 12 11  1  0
 13 19  1  0
 13 14  2  0
 16 15  1  6
 16 17  1  0
 18 16  1  0
 18 19  1  6
 20 18  1  0
 20 21  1  0
 22 20  2  0
M  END
$$$$
