VTY.pdb
     RDKit          3D

 27 27  0  0  1  0  0  0  0  0999 V2000
   15.3559  -10.9612  -22.5763 C   0  0  0  0  0  0  0  0  0  0  0  0
   15.9870   -9.7966  -21.8476 C   0  0  1  0  0  0  0  0  0  0  0  0
   14.9875   -9.0415  -21.0078 C   0  0  0  0  0  0  0  0  0  0  0  0
   17.2076  -10.2092  -21.0658 C   0  0  2  0  0  0  0  0  0  0  0  0
   16.8028  -11.3397  -20.2285 N   0  0  0  0  0  0  0  0  0  0  0  0
   17.7436   -9.1635  -20.1975 C   0  0  0  0  0  0  0  0  0  0  0  0
   18.3115   -8.1748  -20.7542 O   0  0  0  0  0  0  0  0  0  0  0  0
   16.8898   -9.0599  -16.0540 C   0  0  0  0  0  0  0  0  0  0  0  0
   17.2290   -7.8419  -16.8533 C   0  0  1  0  0  0  0  0  0  0  0  0
   17.8349   -6.8918  -15.9994 O   0  0  0  0  0  0  0  0  0  0  0  0
   18.2671   -8.1570  -17.9384 C   0  0  2  0  0  0  0  0  0  0  0  0
   17.6868   -9.1534  -18.7900 N   0  0  0  0  0  0  0  0  0  0  0  0
   19.5129   -8.6667  -17.2664 C   0  0  0  0  0  0  0  0  0  0  0  0
   19.7442   -9.9018  -17.2424 O   0  0  0  0  0  0  0  0  0  0  0  0
   27.2311  -11.2379  -15.0457 O   0  0  0  0  0  0  0  0  0  0  0  0
   26.0975  -10.6246  -15.5934 C   0  0  0  0  0  0  0  0  0  0  0  0
   24.8505  -11.1895  -15.4203 C   0  0  0  0  0  0  0  0  0  0  0  0
   23.7117  -10.6157  -15.9439 C   0  0  0  0  0  0  0  0  0  0  0  0
   23.7823   -9.4349  -16.6725 C   0  0  0  0  0  0  0  0  0  0  0  0
   22.5433   -8.8823  -17.2211 C   0  0  0  0  0  0  0  0  0  0  0  0
   21.7362   -8.2118  -16.1524 C   0  0  2  0  0  0  0  0  0  0  0  0
   20.4388   -7.7792  -16.6551 N   0  0  0  0  0  0  0  0  0  0  0  0
   22.4649   -7.1355  -15.4949 C   0  0  0  0  0  0  0  0  0  0  0  0
   23.2926   -7.2235  -14.4007 O   0  0  0  0  0  0  0  0  0  0  0  0
   25.0433   -8.8842  -16.8349 C   0  0  0  0  0  0  0  0  0  0  0  0
   26.1833   -9.4548  -16.3130 C   0  0  0  0  0  0  0  0  0  0  0  0
   22.3255   -5.9595  -15.9836 O   0  0  0  0  0  0  0  0  0  0  0  0
  2  3  1  1
  2  1  1  0
  4  2  1  0
  4  5  1  1
  6  7  2  0
  6  4  1  0
  9  8  1  1
  9 11  1  0
 10  9  1  0
 11 12  1  6
 12  6  1  0
 13 14  2  0
 13 11  1  0
 16 15  1  0
 17 16  2  0
 18 17  1  0
 19 25  1  0
 19 18  2  0
 20 19  1  0
 21 20  1  6
 21 22  1  0
 22 13  1  0
 23 21  1  0
 24 23  1  0
 25 26  2  0
 26 16  1  0
 27 23  2  0
M  END
$$$$
