VTY.pdb
     RDKit          3D

 27 27  0  0  1  0  0  0  0  0999 V2000
   18.6261  -15.4004  -18.3415 C   0  0  0  0  0  0  0  0  0  0  0  0
   19.0867  -14.0612  -17.8123 C   0  0  1  0  0  0  0  0  0  0  0  0
   20.3755  -14.1685  -17.0364 C   0  0  0  0  0  0  0  0  0  0  0  0
   19.1457  -13.0125  -18.8930 C   0  0  2  0  0  0  0  0  0  0  0  0
   19.9082  -13.5963  -19.9980 N   0  0  0  0  0  0  0  0  0  0  0  0
   19.8020  -11.7717  -18.4874 C   0  0  0  0  0  0  0  0  0  0  0  0
   21.0202  -11.6221  -18.8088 O   0  0  0  0  0  0  0  0  0  0  0  0
   19.1624   -8.4174  -19.5288 C   0  0  0  0  0  0  0  0  0  0  0  0
   19.0637   -8.3562  -18.0376 C   0  0  1  0  0  0  0  0  0  0  0  0
   17.7130   -8.5419  -17.6632 O   0  0  0  0  0  0  0  0  0  0  0  0
   19.8455   -9.5003  -17.3786 C   0  0  2  0  0  0  0  0  0  0  0  0
   19.2012  -10.7202  -17.7678 N   0  0  0  0  0  0  0  0  0  0  0  0
   19.7995   -9.3063  -15.8874 C   0  0  0  0  0  0  0  0  0  0  0  0
   19.0014   -9.9889  -15.1970 O   0  0  0  0  0  0  0  0  0  0  0  0
   22.9400   -2.4756  -15.4503 O   0  0  0  0  0  0  0  0  0  0  0  0
   22.7247   -3.7723  -14.9676 C   0  0  0  0  0  0  0  0  0  0  0  0
   22.1605   -3.9653  -13.7231 C   0  0  0  0  0  0  0  0  0  0  0  0
   21.9331   -5.2260  -13.2138 C   0  0  0  0  0  0  0  0  0  0  0  0
   22.2684   -6.3584  -13.9455 C   0  0  0  0  0  0  0  0  0  0  0  0
   22.0221   -7.6704  -13.3461 C   0  0  0  0  0  0  0  0  0  0  0  0
   20.7025   -8.2229  -13.7894 C   0  0  2  0  0  0  0  0  0  0  0  0
   20.6420   -8.3643  -15.2383 N   0  0  0  0  0  0  0  0  0  0  0  0
   19.5748   -7.4705  -13.2564 C   0  0  0  0  0  0  0  0  0  0  0  0
   19.1645   -7.3806  -11.9474 O   0  0  0  0  0  0  0  0  0  0  0  0
   22.8336   -6.1429  -15.1920 C   0  0  0  0  0  0  0  0  0  0  0  0
   23.0623   -4.8848  -15.7041 C   0  0  0  0  0  0  0  0  0  0  0  0
   18.8707   -6.8095  -14.0982 O   0  0  0  0  0  0  0  0  0  0  0  0
  2  3  1  6
  2  1  1  0
  4  2  1  0
  4  5  1  6
  6  7  2  0
  6  4  1  0
  9  8  1  6
  9 11  1  0
 10  9  1  0
 11 12  1  1
 12  6  1  0
 13 14  2  0
 13 11  1  0
 16 15  1  0
 17 16  2  0
 18 17  1  0
 19 25  1  0
 19 18  2  0
 20 19  1  0
 21 20  1  6
 21 22  1  0
 22 13  1  0
 23 21  1  0
 24 23  1  0
 25 26  2  0
 26 16  1  0
 27 23  2  0
M  END
$$$$
