VTY.pdb
     RDKit          3D

 27 27  0  0  1  0  0  0  0  0999 V2000
   12.1207   -6.4392  -16.2599 C   0  0  0  0  0  0  0  0  0  0  0  0
   13.2029   -7.2167  -16.9740 C   0  0  1  0  0  0  0  0  0  0  0  0
   14.4331   -6.3812  -17.2246 C   0  0  0  0  0  0  0  0  0  0  0  0
   13.5168   -8.5191  -16.2838 C   0  0  2  0  0  0  0  0  0  0  0  0
   12.3914   -8.7981  -15.3901 N   0  0  0  0  0  0  0  0  0  0  0  0
   14.7409   -8.4939  -15.4865 C   0  0  0  0  0  0  0  0  0  0  0  0
   14.6991   -7.8943  -14.3690 O   0  0  0  0  0  0  0  0  0  0  0  0
   16.4609  -11.2091  -14.0301 C   0  0  0  0  0  0  0  0  0  0  0  0
   17.5502  -10.5031  -14.7733 C   0  0  1  0  0  0  0  0  0  0  0  0
   17.7168  -11.1230  -16.0331 O   0  0  0  0  0  0  0  0  0  0  0  0
   17.1721   -9.0453  -15.0669 C   0  0  2  0  0  0  0  0  0  0  0  0
   15.9706   -9.0783  -15.8480 N   0  0  0  0  0  0  0  0  0  0  0  0
   18.3036   -8.4076  -15.8262 C   0  0  0  0  0  0  0  0  0  0  0  0
   18.1878   -8.2088  -17.0617 O   0  0  0  0  0  0  0  0  0  0  0  0
   22.3613   -1.5643  -14.2054 O   0  0  0  0  0  0  0  0  0  0  0  0
   21.8001   -2.6995  -14.8032 C   0  0  0  0  0  0  0  0  0  0  0  0
   22.6054   -3.7528  -15.1855 C   0  0  0  0  0  0  0  0  0  0  0  0
   22.0903   -4.8866  -15.7767 C   0  0  0  0  0  0  0  0  0  0  0  0
   20.7262   -5.0082  -16.0102 C   0  0  0  0  0  0  0  0  0  0  0  0
   20.2385   -6.2260  -16.6587 C   0  0  0  0  0  0  0  0  0  0  0  0
   20.6397   -7.4433  -15.8839 C   0  0  2  0  0  0  0  0  0  0  0  0
   19.5064   -8.0229  -15.1750 N   0  0  0  0  0  0  0  0  0  0  0  0
   21.7771   -7.1976  -15.0077 C   0  0  0  0  0  0  0  0  0  0  0  0
   23.1114   -7.1939  -15.3392 O   0  0  0  0  0  0  0  0  0  0  0  0
   19.9353   -3.9398  -15.6192 C   0  0  0  0  0  0  0  0  0  0  0  0
   20.4466   -2.8055  -15.0283 C   0  0  0  0  0  0  0  0  0  0  0  0
   21.5176   -6.9562  -13.7766 O   0  0  0  0  0  0  0  0  0  0  0  0
  2  3  1  1
  2  1  1  0
  4  2  1  0
  4  5  1  1
  6  7  2  0
  6  4  1  0
  9  8  1  6
  9 11  1  0
 10  9  1  0
 11 12  1  6
 12  6  1  0
 13 14  2  0
 13 11  1  0
 16 15  1  0
 17 16  2  0
 18 17  1  0
 19 25  1  0
 19 18  2  0
 20 19  1  0
 21 20  1  1
 21 22  1  0
 22 13  1  0
 23 21  1  0
 24 23  1  0
 25 26  2  0
 26 16  1  0
 27 23  2  0
M  END
$$$$
