VTY.pdb
     RDKit          3D

 27 27  0  0  1  0  0  0  0  0999 V2000
   24.6364  -19.7975  -19.7041 C   0  0  0  0  0  0  0  0  0  0  0  0
   23.9741  -19.1494  -18.5096 C   0  0  1  0  0  0  0  0  0  0  0  0
   22.6243  -18.5704  -18.8518 C   0  0  0  0  0  0  0  0  0  0  0  0
   23.9252  -20.0701  -17.3175 C   0  0  2  0  0  0  0  0  0  0  0  0
   23.2637  -21.2966  -17.7661 N   0  0  0  0  0  0  0  0  0  0  0  0
   23.1802  -19.5365  -16.1796 C   0  0  0  0  0  0  0  0  0  0  0  0
   23.6823  -18.5473  -15.5635 O   0  0  0  0  0  0  0  0  0  0  0  0
   20.4876  -17.4115  -15.8672 C   0  0  0  0  0  0  0  0  0  0  0  0
   20.0241  -18.6917  -15.2478 C   0  0  1  0  0  0  0  0  0  0  0  0
   19.5073  -19.5277  -16.2643 O   0  0  0  0  0  0  0  0  0  0  0  0
   21.1922  -19.4634  -14.6198 C   0  0  2  0  0  0  0  0  0  0  0  0
   21.9479  -20.0234  -15.7015 N   0  0  0  0  0  0  0  0  0  0  0  0
   20.6255  -20.5375  -13.7317 C   0  0  0  0  0  0  0  0  0  0  0  0
   20.5961  -21.7267  -14.1372 O   0  0  0  0  0  0  0  0  0  0  0  0
   17.3135  -24.8200   -6.7988 O   0  0  0  0  0  0  0  0  0  0  0  0
   17.9149  -23.8500   -7.6103 C   0  0  0  0  0  0  0  0  0  0  0  0
   17.1560  -22.8375   -8.1608 C   0  0  0  0  0  0  0  0  0  0  0  0
   17.7116  -21.8649   -8.9643 C   0  0  0  0  0  0  0  0  0  0  0  0
   19.0711  -21.8717   -9.2503 C   0  0  0  0  0  0  0  0  0  0  0  0
   19.6019  -20.8255  -10.1251 C   0  0  0  0  0  0  0  0  0  0  0  0
   19.5389  -21.2449  -11.5615 C   0  0  2  0  0  0  0  0  0  0  0  0
   20.1202  -20.2368  -12.4383 N   0  0  0  0  0  0  0  0  0  0  0  0
   18.1957  -21.6311  -11.9719 C   0  0  0  0  0  0  0  0  0  0  0  0
   17.6440  -22.8903  -11.9732 O   0  0  0  0  0  0  0  0  0  0  0  0
   19.8151  -22.8965   -8.6882 C   0  0  0  0  0  0  0  0  0  0  0  0
   19.2633  -23.8699   -7.8848 C   0  0  0  0  0  0  0  0  0  0  0  0
   17.4254  -20.6948  -12.3855 O   0  0  0  0  0  0  0  0  0  0  0  0
  2  3  1  6
  2  1  1  0
  4  2  1  0
  4  5  1  6
  6  7  2  0
  6  4  1  0
  9  8  1  6
  9 11  1  0
 10  9  1  0
 11 12  1  6
 12  6  1  0
 13 14  2  0
 13 11  1  0
 16 15  1  0
 17 16  2  0
 18 17  1  0
 19 25  1  0
 19 18  2  0
 20 19  1  0
 21 20  1  1
 21 22  1  0
 22 13  1  0
 23 21  1  0
 24 23  1  0
 25 26  2  0
 26 16  1  0
 27 23  2  0
M  END
$$$$
