VTY.pdb
     RDKit          3D

 27 27  0  0  1  0  0  0  0  0999 V2000
   18.1525  -13.5286  -17.2305 C   0  0  0  0  0  0  0  0  0  0  0  0
   18.6963  -12.1826  -17.6528 C   0  0  1  0  0  0  0  0  0  0  0  0
   17.6931  -11.3884  -18.4511 C   0  0  0  0  0  0  0  0  0  0  0  0
   19.2579  -11.4060  -16.4898 C   0  0  2  0  0  0  0  0  0  0  0  0
   18.2236  -11.4024  -15.4537 N   0  0  0  0  0  0  0  0  0  0  0  0
   19.5977  -10.0202  -16.8041 C   0  0  0  0  0  0  0  0  0  0  0  0
   20.6013   -9.8195  -17.5540 O   0  0  0  0  0  0  0  0  0  0  0  0
   17.5367   -7.1364  -18.3293 C   0  0  0  0  0  0  0  0  0  0  0  0
   18.0148   -6.7579  -16.9634 C   0  0  1  0  0  0  0  0  0  0  0  0
   17.0385   -7.1446  -16.0166 O   0  0  0  0  0  0  0  0  0  0  0  0
   19.2924   -7.5200  -16.5876 C   0  0  2  0  0  0  0  0  0  0  0  0
   18.9080   -8.8799  -16.3474 N   0  0  0  0  0  0  0  0  0  0  0  0
   19.8739   -6.8872  -15.3528 C   0  0  0  0  0  0  0  0  0  0  0  0
   19.4301   -7.2100  -14.2222 O   0  0  0  0  0  0  0  0  0  0  0  0
   26.5796   -5.9811  -18.0179 O   0  0  0  0  0  0  0  0  0  0  0  0
   25.6257   -6.0053  -16.9930 C   0  0  0  0  0  0  0  0  0  0  0  0
   25.3405   -4.8572  -16.2825 C   0  0  0  0  0  0  0  0  0  0  0  0
   24.4082   -4.8414  -15.2672 C   0  0  0  0  0  0  0  0  0  0  0  0
   23.7160   -5.9951  -14.9210 C   0  0  0  0  0  0  0  0  0  0  0  0
   22.7524   -5.9233  -13.8221 C   0  0  0  0  0  0  0  0  0  0  0  0
   21.4813   -5.2670  -14.2657 C   0  0  2  0  0  0  0  0  0  0  0  0
   20.9189   -5.9282  -15.4360 N   0  0  0  0  0  0  0  0  0  0  0  0
   21.6318   -3.8308  -14.4570 C   0  0  0  0  0  0  0  0  0  0  0  0
   22.0013   -2.8903  -13.5248 O   0  0  0  0  0  0  0  0  0  0  0  0
   24.0170   -7.1367  -15.6463 C   0  0  0  0  0  0  0  0  0  0  0  0
   24.9479   -7.1561  -16.6614 C   0  0  0  0  0  0  0  0  0  0  0  0
   21.3926   -3.3752  -15.6302 O   0  0  0  0  0  0  0  0  0  0  0  0
  2  3  1  1
  2  1  1  0
  4  2  1  0
  4  5  1  1
  6  7  2  0
  6  4  1  0
  9  8  1  6
  9 11  1  0
 10  9  1  0
 11 12  1  1
 12  6  1  0
 13 14  2  0
 13 11  1  0
 16 15  1  0
 17 16  2  0
 18 17  1  0
 19 25  1  0
 19 18  2  0
 20 19  1  0
 21 20  1  6
 21 22  1  0
 22 13  1  0
 23 21  1  0
 24 23  1  0
 25 26  2  0
 26 16  1  0
 27 23  2  0
M  END
$$$$
