VTY.pdb
     RDKit          3D

 27 27  0  0  1  0  0  0  0  0999 V2000
   26.5048  -26.0375  -16.4058 C   0  0  0  0  0  0  0  0  0  0  0  0
   27.9602  -26.1817  -16.7887 C   0  0  1  0  0  0  0  0  0  0  0  0
   28.1752  -27.2722  -17.8080 C   0  0  0  0  0  0  0  0  0  0  0  0
   28.5711  -24.8688  -17.2060 C   0  0  2  0  0  0  0  0  0  0  0  0
   30.0215  -25.0286  -17.0874 N   0  0  0  0  0  0  0  0  0  0  0  0
   28.1656  -23.7317  -16.3830 C   0  0  0  0  0  0  0  0  0  0  0  0
   28.8261  -23.5123  -15.3221 O   0  0  0  0  0  0  0  0  0  0  0  0
   28.5627  -20.3371  -16.7468 C   0  0  0  0  0  0  0  0  0  0  0  0
   27.0789  -20.4690  -16.6113 C   0  0  1  0  0  0  0  0  0  0  0  0
   26.5151  -20.6061  -17.9007 O   0  0  0  0  0  0  0  0  0  0  0  0
   26.6989  -21.7438  -15.8467 C   0  0  2  0  0  0  0  0  0  0  0  0
   27.1017  -22.8517  -16.6623 N   0  0  0  0  0  0  0  0  0  0  0  0
   25.2107  -21.7365  -15.6263 C   0  0  0  0  0  0  0  0  0  0  0  0
   24.4534  -22.2538  -16.4856 O   0  0  0  0  0  0  0  0  0  0  0  0
   17.2934  -20.7162  -11.8535 O   0  0  0  0  0  0  0  0  0  0  0  0
   18.6695  -20.6672  -12.1078 C   0  0  0  0  0  0  0  0  0  0  0  0
   19.4423  -21.8019  -11.9683 C   0  0  0  0  0  0  0  0  0  0  0  0
   20.7996  -21.7933  -12.2095 C   0  0  0  0  0  0  0  0  0  0  0  0
   21.4427  -20.6275  -12.6060 C   0  0  0  0  0  0  0  0  0  0  0  0
   22.8883  -20.6733  -12.8288 C   0  0  0  0  0  0  0  0  0  0  0  0
   23.2015  -21.1028  -14.2290 C   0  0  2  0  0  0  0  0  0  0  0  0
   24.6387  -21.1552  -14.4629 N   0  0  0  0  0  0  0  0  0  0  0  0
   22.5043  -20.3034  -15.2274 C   0  0  0  0  0  0  0  0  0  0  0  0
   21.3135  -20.5872  -15.8531 O   0  0  0  0  0  0  0  0  0  0  0  0
   20.6491  -19.4996  -12.7401 C   0  0  0  0  0  0  0  0  0  0  0  0
   19.2928  -19.5046  -12.5000 C   0  0  0  0  0  0  0  0  0  0  0  0
   23.0571  -19.2012  -15.5749 O   0  0  0  0  0  0  0  0  0  0  0  0
  2  3  1  6
  2  1  1  0
  4  2  1  0
  4  5  1  1
  6  7  2  0
  6  4  1  0
  9  8  1  6
  9 11  1  0
 10  9  1  0
 11 12  1  6
 12  6  1  0
 13 14  2  0
 13 11  1  0
 16 15  1  0
 17 16  2  0
 18 17  1  0
 19 25  1  0
 19 18  2  0
 20 19  1  0
 21 20  1  1
 21 22  1  0
 22 13  1  0
 23 21  1  0
 24 23  1  0
 25 26  2  0
 26 16  1  0
 27 23  2  0
M  END
$$$$
