VTY.pdb
     RDKit          3D

 27 27  0  0  1  0  0  0  0  0999 V2000
   30.1387  -22.0681  -19.3850 C   0  0  0  0  0  0  0  0  0  0  0  0
   29.7234  -21.7240  -17.9726 C   0  0  1  0  0  0  0  0  0  0  0  0
   29.8278  -20.2458  -17.6927 C   0  0  0  0  0  0  0  0  0  0  0  0
   28.3689  -22.2860  -17.6254 C   0  0  2  0  0  0  0  0  0  0  0  0
   27.4317  -21.7553  -18.6169 N   0  0  0  0  0  0  0  0  0  0  0  0
   27.8899  -21.9147  -16.2960 C   0  0  0  0  0  0  0  0  0  0  0  0
   28.5517  -22.3331  -15.2976 O   0  0  0  0  0  0  0  0  0  0  0  0
   28.1520  -19.6697  -13.8507 C   0  0  0  0  0  0  0  0  0  0  0  0
   26.7021  -19.5827  -14.2080 C   0  0  1  0  0  0  0  0  0  0  0  0
   26.5510  -18.6679  -15.2754 O   0  0  0  0  0  0  0  0  0  0  0  0
   26.1727  -20.9267  -14.7256 C   0  0  2  0  0  0  0  0  0  0  0  0
   26.7532  -21.1295  -16.0205 N   0  0  0  0  0  0  0  0  0  0  0  0
   24.6725  -20.8452  -14.8028 C   0  0  0  0  0  0  0  0  0  0  0  0
   24.1042  -20.9085  -15.9220 O   0  0  0  0  0  0  0  0  0  0  0  0
   16.2273  -21.1308  -15.1093 O   0  0  0  0  0  0  0  0  0  0  0  0
   17.5989  -21.3056  -14.8875 C   0  0  0  0  0  0  0  0  0  0  0  0
   18.5138  -20.8909  -15.8337 C   0  0  0  0  0  0  0  0  0  0  0  0
   19.8714  -21.0457  -15.6515 C   0  0  0  0  0  0  0  0  0  0  0  0
   20.3702  -21.6318  -14.4948 C   0  0  0  0  0  0  0  0  0  0  0  0
   21.8193  -21.7879  -14.3648 C   0  0  0  0  0  0  0  0  0  0  0  0
   22.4253  -20.6080  -13.6694 C   0  0  2  0  0  0  0  0  0  0  0  0
   23.8792  -20.6977  -13.6334 N   0  0  0  0  0  0  0  0  0  0  0  0
   21.8494  -20.3806  -12.3509 C   0  0  0  0  0  0  0  0  0  0  0  0
   20.8650  -19.4859  -12.0038 O   0  0  0  0  0  0  0  0  0  0  0  0
   19.4353  -22.0412  -13.5577 C   0  0  0  0  0  0  0  0  0  0  0  0
   18.0781  -21.8881  -13.7365 C   0  0  0  0  0  0  0  0  0  0  0  0
   22.3072  -21.0922  -11.3890 O   0  0  0  0  0  0  0  0  0  0  0  0
  2  3  1  6
  2  1  1  0
  4  2  1  0
  4  5  1  6
  6  7  2  0
  6  4  1  0
  9  8  1  6
  9 11  1  0
 10  9  1  0
 11 12  1  6
 12  6  1  0
 13 14  2  0
 13 11  1  0
 16 15  1  0
 17 16  2  0
 18 17  1  0
 19 25  1  0
 19 18  2  0
 20 19  1  0
 21 20  1  1
 21 22  1  0
 22 13  1  0
 23 21  1  0
 24 23  1  0
 25 26  2  0
 26 16  1  0
 27 23  2  0
M  END
$$$$
