VTY.pdb
     RDKit          3D

 27 27  0  0  1  0  0  0  0  0999 V2000
   43.4064   -9.7864   -4.7033 C   0  0  0  0  0  0  0  0  0  0  0  0
   44.7972  -10.3193   -4.9629 C   0  0  1  0  0  0  0  0  0  0  0  0
   45.3961  -10.9672   -3.7399 C   0  0  0  0  0  0  0  0  0  0  0  0
   44.8466  -11.2126   -6.1757 C   0  0  2  0  0  0  0  0  0  0  0  0
   46.2367  -11.6506   -6.3134 N   0  0  0  0  0  0  0  0  0  0  0  0
   44.4465  -10.5569   -7.4185 C   0  0  0  0  0  0  0  0  0  0  0  0
   45.3257   -9.8768   -8.0305 O   0  0  0  0  0  0  0  0  0  0  0  0
   42.5986  -11.8878  -10.5493 C   0  0  0  0  0  0  0  0  0  0  0  0
   41.8260  -10.7460   -9.9690 C   0  0  1  0  0  0  0  0  0  0  0  0
   40.8514  -11.2600   -9.0830 O   0  0  0  0  0  0  0  0  0  0  0  0
   42.7259   -9.8347   -9.1240 C   0  0  2  0  0  0  0  0  0  0  0  0
   43.1658  -10.6117   -8.0025 N   0  0  0  0  0  0  0  0  0  0  0  0
   41.9151   -8.6461   -8.6846 C   0  0  0  0  0  0  0  0  0  0  0  0
   40.9362   -8.8129   -7.9142 O   0  0  0  0  0  0  0  0  0  0  0  0
   46.5147   -4.0808   -5.3381 O   0  0  0  0  0  0  0  0  0  0  0  0
   45.2935   -4.5992   -5.7863 C   0  0  0  0  0  0  0  0  0  0  0  0
   44.3586   -3.7685   -6.3696 C   0  0  0  0  0  0  0  0  0  0  0  0
   43.1458   -4.2415   -6.8230 C   0  0  0  0  0  0  0  0  0  0  0  0
   42.8201   -5.5870   -6.7065 C   0  0  0  0  0  0  0  0  0  0  0  0
   41.5105   -6.0286   -7.1874 C   0  0  0  0  0  0  0  0  0  0  0  0
   41.5014   -6.1522   -8.6800 C   0  0  2  0  0  0  0  0  0  0  0  0
   42.2322   -7.3323   -9.1228 N   0  0  0  0  0  0  0  0  0  0  0  0
   41.9531   -4.9367   -9.3436 C   0  0  0  0  0  0  0  0  0  0  0  0
   41.4274   -3.6711   -9.2339 O   0  0  0  0  0  0  0  0  0  0  0  0
   43.7721   -6.4039   -6.1181 C   0  0  0  0  0  0  0  0  0  0  0  0
   44.9849   -5.9347   -5.6640 C   0  0  0  0  0  0  0  0  0  0  0  0
   42.9599   -5.0459  -10.1283 O   0  0  0  0  0  0  0  0  0  0  0  0
  2  3  1  1
  2  1  1  0
  4  2  1  0
  4  5  1  6
  6  7  2  0
  6  4  1  0
  9  8  1  1
  9 11  1  0
 10  9  1  0
 11 12  1  1
 12  6  1  0
 13 14  2  0
 13 11  1  0
 16 15  1  0
 17 16  2  0
 18 17  1  0
 19 25  1  0
 19 18  2  0
 20 19  1  0
 21 20  1  1
 21 22  1  0
 22 13  1  0
 23 21  1  0
 24 23  1  0
 25 26  2  0
 26 16  1  0
 27 23  2  0
M  END
$$$$
