VTY.pdb
     RDKit          3D

 27 27  0  0  1  0  0  0  0  0999 V2000
   21.6991  -12.2510  -20.5048 C   0  0  0  0  0  0  0  0  0  0  0  0
   21.4511  -13.6018  -19.8727 C   0  0  1  0  0  0  0  0  0  0  0  0
   21.9902  -14.7315  -20.7139 C   0  0  0  0  0  0  0  0  0  0  0  0
   21.9335  -13.6593  -18.4462 C   0  0  2  0  0  0  0  0  0  0  0  0
   21.5199  -14.9610  -17.9193 N   0  0  0  0  0  0  0  0  0  0  0  0
   21.3786  -12.6179  -17.5845 C   0  0  0  0  0  0  0  0  0  0  0  0
   20.1150  -12.5208  -17.5235 O   0  0  0  0  0  0  0  0  0  0  0  0
   21.6292  -12.4022  -14.0729 C   0  0  0  0  0  0  0  0  0  0  0  0
   22.0933  -11.0521  -14.5193 C   0  0  1  0  0  0  0  0  0  0  0  0
   23.5038  -11.0651  -14.6160 O   0  0  0  0  0  0  0  0  0  0  0  0
   21.5768  -10.7206  -15.9256 C   0  0  2  0  0  0  0  0  0  0  0  0
   22.1238  -11.7066  -16.8108 N   0  0  0  0  0  0  0  0  0  0  0  0
   22.0454   -9.3375  -16.2872 C   0  0  0  0  0  0  0  0  0  0  0  0
   23.0072   -9.1964  -17.0837 O   0  0  0  0  0  0  0  0  0  0  0  0
   15.9890   -6.4779  -18.9901 O   0  0  0  0  0  0  0  0  0  0  0  0
   17.3508   -6.5755  -18.6789 C   0  0  0  0  0  0  0  0  0  0  0  0
   18.0214   -5.4921  -18.1488 C   0  0  0  0  0  0  0  0  0  0  0  0
   19.3612   -5.5495  -17.8296 C   0  0  0  0  0  0  0  0  0  0  0  0
   20.0903   -6.7144  -18.0334 C   0  0  0  0  0  0  0  0  0  0  0  0
   21.5138   -6.7110  -17.6944 C   0  0  0  0  0  0  0  0  0  0  0  0
   21.7128   -6.8325  -16.2150 C   0  0  2  0  0  0  0  0  0  0  0  0
   21.4222   -8.1811  -15.7459 N   0  0  0  0  0  0  0  0  0  0  0  0
   20.9852   -5.8151  -15.4684 C   0  0  0  0  0  0  0  0  0  0  0  0
   21.1353   -4.4503  -15.5372 O   0  0  0  0  0  0  0  0  0  0  0  0
   19.3987   -7.7902  -18.5664 C   0  0  0  0  0  0  0  0  0  0  0  0
   18.0600   -7.7365  -18.8864 C   0  0  0  0  0  0  0  0  0  0  0  0
   20.0965   -6.2279  -14.6432 O   0  0  0  0  0  0  0  0  0  0  0  0
  2  3  1  6
  2  1  1  0
  4  2  1  0
  4  5  1  1
  6  7  2  0
  6  4  1  0
  9  8  1  6
  9 11  1  0
 10  9  1  0
 11 12  1  6
 12  6  1  0
 13 14  2  0
 13 11  1  0
 16 15  1  0
 17 16  2  0
 18 17  1  0
 19 25  1  0
 19 18  2  0
 20 19  1  0
 21 20  1  6
 21 22  1  0
 22 13  1  0
 23 21  1  0
 24 23  1  0
 25 26  2  0
 26 16  1  0
 27 23  2  0
M  END
$$$$
