VTY.pdb
     RDKit          3D

 27 27  0  0  1  0  0  0  0  0999 V2000
   25.0875  -12.8709  -16.2125 C   0  0  0  0  0  0  0  0  0  0  0  0
   25.2344  -13.2986  -17.6551 C   0  0  1  0  0  0  0  0  0  0  0  0
   25.3046  -14.7980  -17.8000 C   0  0  0  0  0  0  0  0  0  0  0  0
   24.1853  -12.6785  -18.5417 C   0  0  2  0  0  0  0  0  0  0  0  0
   24.5518  -13.0157  -19.9184 N   0  0  0  0  0  0  0  0  0  0  0  0
   24.0941  -11.2243  -18.4339 C   0  0  0  0  0  0  0  0  0  0  0  0
   24.9059  -10.5345  -19.1231 O   0  0  0  0  0  0  0  0  0  0  0  0
   23.5749   -9.0117  -20.0225 C   0  0  0  0  0  0  0  0  0  0  0  0
   22.5839   -8.6347  -18.9673 C   0  0  1  0  0  0  0  0  0  0  0  0
   21.3726   -9.3204  -19.2154 O   0  0  0  0  0  0  0  0  0  0  0  0
   23.0486   -9.0881  -17.5770 C   0  0  2  0  0  0  0  0  0  0  0  0
   23.1812  -10.5145  -17.6294 N   0  0  0  0  0  0  0  0  0  0  0  0
   22.0100   -8.6696  -16.5722 C   0  0  0  0  0  0  0  0  0  0  0  0
   21.0337   -9.4252  -16.3371 O   0  0  0  0  0  0  0  0  0  0  0  0
   17.9375   -5.8435   -9.5080 O   0  0  0  0  0  0  0  0  0  0  0  0
   18.8968   -6.1603  -10.4777 C   0  0  0  0  0  0  0  0  0  0  0  0
   19.4193   -5.1719  -11.2865 C   0  0  0  0  0  0  0  0  0  0  0  0
   20.3649   -5.4445  -12.2519 C   0  0  0  0  0  0  0  0  0  0  0  0
   20.8291   -6.7395  -12.4452 C   0  0  0  0  0  0  0  0  0  0  0  0
   21.8186   -6.9726  -13.4978 C   0  0  0  0  0  0  0  0  0  0  0  0
   21.1655   -7.0287  -14.8445 C   0  0  2  0  0  0  0  0  0  0  0  0
   22.1083   -7.4332  -15.8791 N   0  0  0  0  0  0  0  0  0  0  0  0
   20.4688   -5.7939  -15.1789 C   0  0  0  0  0  0  0  0  0  0  0  0
   19.1371   -5.5025  -15.0008 O   0  0  0  0  0  0  0  0  0  0  0  0
   20.2919   -7.7170  -11.6232 C   0  0  0  0  0  0  0  0  0  0  0  0
   19.3470   -7.4482  -10.6576 C   0  0  0  0  0  0  0  0  0  0  0  0
   21.1690   -4.8587  -15.7047 O   0  0  0  0  0  0  0  0  0  0  0  0
  2  3  1  1
  2  1  1  0
  4  2  1  0
  4  5  1  6
  6  7  2  0
  6  4  1  0
  9  8  1  6
  9 11  1  0
 10  9  1  0
 11 12  1  6
 12  6  1  0
 13 14  2  0
 13 11  1  0
 16 15  1  0
 17 16  2  0
 18 17  1  0
 19 25  1  0
 19 18  2  0
 20 19  1  0
 21 20  1  1
 21 22  1  0
 22 13  1  0
 23 21  1  0
 24 23  1  0
 25 26  2  0
 26 16  1  0
 27 23  2  0
M  END
$$$$
