VTY.pdb
     RDKit          3D

 27 27  0  0  1  0  0  0  0  0999 V2000
   28.9911  -17.5409  -21.7391 C   0  0  0  0  0  0  0  0  0  0  0  0
   27.6621  -17.3459  -21.0453 C   0  0  1  0  0  0  0  0  0  0  0  0
   26.5093  -17.8657  -21.8670 C   0  0  0  0  0  0  0  0  0  0  0  0
   27.6677  -17.8941  -19.6416 C   0  0  2  0  0  0  0  0  0  0  0  0
   28.0788  -19.2955  -19.7439 N   0  0  0  0  0  0  0  0  0  0  0  0
   26.3687  -17.8443  -18.9746 C   0  0  0  0  0  0  0  0  0  0  0  0
   25.8795  -16.6992  -18.7313 O   0  0  0  0  0  0  0  0  0  0  0  0
   22.9656  -18.5375  -19.7954 C   0  0  0  0  0  0  0  0  0  0  0  0
   23.2781  -19.4639  -18.6633 C   0  0  1  0  0  0  0  0  0  0  0  0
   23.7567  -20.6842  -19.1933 O   0  0  0  0  0  0  0  0  0  0  0  0
   24.4096  -18.9121  -17.7860 C   0  0  2  0  0  0  0  0  0  0  0  0
   25.6057  -18.9589  -18.5748 N   0  0  0  0  0  0  0  0  0  0  0  0
   24.5244  -19.7797  -16.5623 C   0  0  0  0  0  0  0  0  0  0  0  0
   25.5612  -20.4672  -16.3838 O   0  0  0  0  0  0  0  0  0  0  0  0
   25.6372  -21.4607   -8.2534 O   0  0  0  0  0  0  0  0  0  0  0  0
   25.3833  -20.9817   -9.5445 C   0  0  0  0  0  0  0  0  0  0  0  0
   26.2913  -21.2054  -10.5593 C   0  0  0  0  0  0  0  0  0  0  0  0
   26.0767  -20.7499  -11.8426 C   0  0  0  0  0  0  0  0  0  0  0  0
   24.9249  -20.0415  -12.1611 C   0  0  0  0  0  0  0  0  0  0  0  0
   24.7599  -19.5656  -13.5350 C   0  0  0  0  0  0  0  0  0  0  0  0
   23.6854  -20.3324  -14.2425 C   0  0  2  0  0  0  0  0  0  0  0  0
   23.4821  -19.8398  -15.5986 N   0  0  0  0  0  0  0  0  0  0  0  0
   22.4457  -20.3895  -13.4798 C   0  0  0  0  0  0  0  0  0  0  0  0
   21.4393  -19.4540  -13.4358 O   0  0  0  0  0  0  0  0  0  0  0  0
   24.0263  -19.8275  -11.1283 C   0  0  0  0  0  0  0  0  0  0  0  0
   24.2374  -20.2812   -9.8450 C   0  0  0  0  0  0  0  0  0  0  0  0
   22.2584  -21.4306  -12.7571 O   0  0  0  0  0  0  0  0  0  0  0  0
  2  3  1  6
  2  1  1  0
  4  2  1  0
  4  5  1  6
  6  7  2  0
  6  4  1  0
  9  8  1  6
  9 11  1  0
 10  9  1  0
 11 12  1  6
 12  6  1  0
 13 14  2  0
 13 11  1  0
 16 15  1  0
 17 16  2  0
 18 17  1  0
 19 25  1  0
 19 18  2  0
 20 19  1  0
 21 20  1  1
 21 22  1  0
 22 13  1  0
 23 21  1  0
 24 23  1  0
 25 26  2  0
 26 16  1  0
 27 23  2  0
M  END
$$$$
