VTY.pdb
     RDKit          3D

 27 27  0  0  1  0  0  0  0  0999 V2000
   15.9233  -17.0893  -16.7166 C   0  0  0  0  0  0  0  0  0  0  0  0
   16.6011  -15.7446  -16.5820 C   0  0  1  0  0  0  0  0  0  0  0  0
   16.3130  -15.0924  -15.2531 C   0  0  0  0  0  0  0  0  0  0  0  0
   18.0756  -15.8182  -16.8846 C   0  0  2  0  0  0  0  0  0  0  0  0
   18.5985  -16.9591  -16.1309 N   0  0  0  0  0  0  0  0  0  0  0  0
   18.8266  -14.6272  -16.4946 C   0  0  0  0  0  0  0  0  0  0  0  0
   19.2853  -14.5859  -15.3123 O   0  0  0  0  0  0  0  0  0  0  0  0
   21.9084  -13.2658  -17.9099 C   0  0  0  0  0  0  0  0  0  0  0  0
   20.9285  -12.1364  -17.9491 C   0  0  1  0  0  0  0  0  0  0  0  0
   20.3009  -12.1227  -19.2160 O   0  0  0  0  0  0  0  0  0  0  0  0
   19.8048  -12.3359  -16.9235 C   0  0  2  0  0  0  0  0  0  0  0  0
   19.0893  -13.5141  -17.3170 N   0  0  0  0  0  0  0  0  0  0  0  0
   18.9188  -11.1203  -16.9511 C   0  0  0  0  0  0  0  0  0  0  0  0
   17.7490  -11.2149  -17.4005 O   0  0  0  0  0  0  0  0  0  0  0  0
   14.1314   -4.1075  -15.9653 O   0  0  0  0  0  0  0  0  0  0  0  0
   14.8957   -5.2807  -15.9471 C   0  0  0  0  0  0  0  0  0  0  0  0
   15.6124   -5.6253  -14.8193 C   0  0  0  0  0  0  0  0  0  0  0  0
   16.3759   -6.7716  -14.7633 C   0  0  0  0  0  0  0  0  0  0  0  0
   16.4504   -7.6290  -15.8539 C   0  0  0  0  0  0  0  0  0  0  0  0
   17.2922   -8.8209  -15.7439 C   0  0  0  0  0  0  0  0  0  0  0  0
   18.5609   -8.6548  -16.5223 C   0  0  2  0  0  0  0  0  0  0  0  0
   19.3767   -9.8612  -16.4781 N   0  0  0  0  0  0  0  0  0  0  0  0
   19.3050   -7.4656  -16.1299 C   0  0  0  0  0  0  0  0  0  0  0  0
   19.0847   -6.1661  -16.5210 O   0  0  0  0  0  0  0  0  0  0  0  0
   15.7238   -7.2650  -16.9761 C   0  0  0  0  0  0  0  0  0  0  0  0
   14.9598   -6.1204  -17.0356 C   0  0  0  0  0  0  0  0  0  0  0  0
   20.2868   -7.6368  -15.3250 O   0  0  0  0  0  0  0  0  0  0  0  0
  2  3  1  1
  2  1  1  0
  4  2  1  0
  4  5  1  1
  6  7  2  0
  6  4  1  0
  9  8  1  6
  9 11  1  0
 10  9  1  0
 11 12  1  6
 12  6  1  0
 13 14  2  0
 13 11  1  0
 16 15  1  0
 17 16  2  0
 18 17  1  0
 19 25  1  0
 19 18  2  0
 20 19  1  0
 21 20  1  1
 21 22  1  0
 22 13  1  0
 23 21  1  0
 24 23  1  0
 25 26  2  0
 26 16  1  0
 27 23  2  0
M  END
$$$$
