VTY.pdb
     RDKit          3D

 27 27  0  0  1  0  0  0  0  0999 V2000
   15.2954  -14.3050  -15.1032 C   0  0  0  0  0  0  0  0  0  0  0  0
   16.0980  -13.0372  -14.9183 C   0  0  1  0  0  0  0  0  0  0  0  0
   17.5293  -13.1994  -15.3648 C   0  0  0  0  0  0  0  0  0  0  0  0
   15.4265  -11.8426  -15.5452 C   0  0  2  0  0  0  0  0  0  0  0  0
   15.2807  -12.1473  -16.9697 N   0  0  0  0  0  0  0  0  0  0  0  0
   16.1794  -10.5971  -15.4167 C   0  0  0  0  0  0  0  0  0  0  0  0
   16.5205  -10.0066  -16.4867 O   0  0  0  0  0  0  0  0  0  0  0  0
   15.7543   -7.8867  -15.9780 C   0  0  0  0  0  0  0  0  0  0  0  0
   16.1226   -7.6712  -14.5444 C   0  0  1  0  0  0  0  0  0  0  0  0
   14.9779   -7.8877  -13.7433 O   0  0  0  0  0  0  0  0  0  0  0  0
   17.1655   -8.6945  -14.0757 C   0  0  2  0  0  0  0  0  0  0  0  0
   16.5633   -9.9888  -14.2055 N   0  0  0  0  0  0  0  0  0  0  0  0
   17.5139   -8.3918  -12.6437 C   0  0  0  0  0  0  0  0  0  0  0  0
   16.8602   -8.9348  -11.7178 O   0  0  0  0  0  0  0  0  0  0  0  0
   22.7315   -4.2390  -15.1305 O   0  0  0  0  0  0  0  0  0  0  0  0
   22.1801   -4.9924  -14.0868 C   0  0  0  0  0  0  0  0  0  0  0  0
   21.5727   -4.3613  -13.0205 C   0  0  0  0  0  0  0  0  0  0  0  0
   21.0187   -5.0683  -11.9747 C   0  0  0  0  0  0  0  0  0  0  0  0
   21.0540   -6.4570  -11.9591 C   0  0  0  0  0  0  0  0  0  0  0  0
   20.4676   -7.1537  -10.8136 C   0  0  0  0  0  0  0  0  0  0  0  0
   18.9772   -7.2320  -10.9395 C   0  0  2  0  0  0  0  0  0  0  0  0
   18.5705   -7.5017  -12.3125 N   0  0  0  0  0  0  0  0  0  0  0  0
   18.3076   -6.0657  -10.3800 C   0  0  0  0  0  0  0  0  0  0  0  0
   18.2483   -5.6792   -9.0620 O   0  0  0  0  0  0  0  0  0  0  0  0
   21.6684   -7.0711  -13.0386 C   0  0  0  0  0  0  0  0  0  0  0  0
   22.2228   -6.3679  -14.0852 C   0  0  0  0  0  0  0  0  0  0  0  0
   17.6945   -5.2998  -11.2039 O   0  0  0  0  0  0  0  0  0  0  0  0
  2  3  1  6
  2  1  1  0
  4  2  1  0
  4  5  1  6
  6  7  2  0
  6  4  1  0
  9  8  1  6
  9 11  1  0
 10  9  1  0
 11 12  1  1
 12  6  1  0
 13 14  2  0
 13 11  1  0
 16 15  1  0
 17 16  2  0
 18 17  1  0
 19 25  1  0
 19 18  2  0
 20 19  1  0
 21 20  1  6
 21 22  1  0
 22 13  1  0
 23 21  1  0
 24 23  1  0
 25 26  2  0
 26 16  1  0
 27 23  2  0
M  END
$$$$
