IAQ.pdb
     RDKit          3D

 23 22  0  0  1  0  0  0  0  0999 V2000
    7.4815  -11.6935   19.8020 C   0  0  0  0  0  0  0  0  0  0  0  0
    7.8352  -13.0719   19.2511 C   0  0  0  0  0  0  0  0  0  0  0  0
    8.1277  -13.9511   20.4447 C   0  0  2  0  0  0  0  0  0  0  0  0
    9.2934  -13.3498   21.1965 C   0  0  0  0  0  0  0  0  0  0  0  0
    8.4139  -15.3795   20.0265 C   0  0  2  0  0  0  0  0  0  0  0  0
    7.2186  -15.8599   19.3326 N   0  0  0  0  0  0  0  0  0  0  0  0
    8.6977  -16.2228   21.2028 C   0  0  0  0  0  0  0  0  0  0  0  0
    7.7132  -16.6886   21.8393 O   0  0  0  0  0  0  0  0  0  0  0  0
   11.5998  -18.1221   22.4828 C   0  0  0  0  0  0  0  0  0  0  0  0
   10.1991  -17.5208   22.6790 C   0  0  2  0  0  0  0  0  0  0  0  0
   10.0092  -16.5329   21.6494 N   0  0  0  0  0  0  0  0  0  0  0  0
   10.0787  -16.9800   24.0348 C   0  0  0  0  0  0  0  0  0  0  0  0
   10.2050  -17.6926   25.0489 O   0  0  0  0  0  0  0  0  0  0  0  0
    6.4351  -11.6943   26.8692 N   0  0  0  0  0  0  0  0  0  0  0  0
    6.4811  -13.0929   26.7125 C   0  0  0  0  0  0  0  0  0  0  0  0
    5.4421  -13.7828   26.5628 O   0  0  0  0  0  0  0  0  0  0  0  0
    7.8184  -13.7572   26.7276 C   0  0  0  0  0  0  0  0  0  0  0  0
    8.1128  -14.4173   25.3952 C   0  0  0  0  0  0  0  0  0  0  0  0
    9.4964  -14.9803   25.4545 C   0  0  2  0  0  0  0  0  0  0  0  0
    9.8090  -15.5971   24.2031 N   0  0  0  0  0  0  0  0  0  0  0  0
    9.6947  -15.8959   26.6077 C   0  0  0  0  0  0  0  0  0  0  0  0
   10.4532  -15.4356   27.6660 O   0  0  0  0  0  0  0  0  0  0  0  0
    9.2143  -17.0432   26.6614 O   0  0  0  0  0  0  0  0  0  0  0  0
  1  2  1  0
  2  3  1  0
  3  4  1  6
  5  3  1  0
  5  7  1  0
  5  6  1  1
  7 11  1  0
  7  8  2  0
 10  9  1  1
 11 10  1  0
 12 10  1  0
 12 13  2  0
 15 14  1  0
 15 17  1  0
 16 15  2  0
 18 17  1  0
 19 18  1  6
 19 20  1  0
 20 12  1  0
 21 19  1  0
 22 21  1  0
 23 21  2  0
M  END
$$$$
