IAQ.pdb
     RDKit          3D

 23 22  0  0  1  0  0  0  0  0999 V2000
    6.4509  -11.5314   26.7750 C   0  0  0  0  0  0  0  0  0  0  0  0
    5.9120  -12.7930   26.1071 C   0  0  0  0  0  0  0  0  0  0  0  0
    7.1061  -13.5237   25.5386 C   0  0  2  0  0  0  0  0  0  0  0  0
    7.8516  -12.5710   24.6318 C   0  0  0  0  0  0  0  0  0  0  0  0
    6.6898  -14.7810   24.8016 C   0  0  2  0  0  0  0  0  0  0  0  0
    5.9325  -15.5932   25.7543 N   0  0  0  0  0  0  0  0  0  0  0  0
    7.8712  -15.5220   24.3213 C   0  0  0  0  0  0  0  0  0  0  0  0
    8.2663  -16.5021   25.0104 O   0  0  0  0  0  0  0  0  0  0  0  0
    9.5108  -15.8084   21.0145 C   0  0  0  0  0  0  0  0  0  0  0  0
    9.4159  -16.1761   22.5036 C   0  0  2  0  0  0  0  0  0  0  0  0
    8.5779  -15.1909   23.1354 N   0  0  0  0  0  0  0  0  0  0  0  0
   10.7600  -16.2541   23.0803 C   0  0  0  0  0  0  0  0  0  0  0  0
   11.6391  -17.0070   22.6192 O   0  0  0  0  0  0  0  0  0  0  0  0
   10.0807  -14.0947   28.5511 N   0  0  0  0  0  0  0  0  0  0  0  0
   10.7337  -15.3027   28.8627 C   0  0  0  0  0  0  0  0  0  0  0  0
   11.2157  -15.5272   30.0008 O   0  0  0  0  0  0  0  0  0  0  0  0
   10.8458  -16.3366   27.7911 C   0  0  0  0  0  0  0  0  0  0  0  0
   10.3763  -15.7905   26.4573 C   0  0  0  0  0  0  0  0  0  0  0  0
   11.4904  -15.9527   25.4739 C   0  0  2  0  0  0  0  0  0  0  0  0
   11.0756  -15.4458   24.2030 N   0  0  0  0  0  0  0  0  0  0  0  0
   11.9886  -17.3503   25.3962 C   0  0  0  0  0  0  0  0  0  0  0  0
   12.9197  -17.7499   26.3345 O   0  0  0  0  0  0  0  0  0  0  0  0
   11.6093  -18.1654   24.5349 O   0  0  0  0  0  0  0  0  0  0  0  0
  1  2  1  0
  2  3  1  0
  3  4  1  6
  5  3  1  0
  5  7  1  0
  5  6  1  1
  7 11  1  0
  7  8  2  0
 10  9  1  6
 11 10  1  0
 12 10  1  0
 12 13  2  0
 15 14  1  0
 15 17  1  0
 16 15  2  0
 18 17  1  0
 19 18  1  1
 19 20  1  0
 20 12  1  0
 21 19  1  0
 22 21  1  0
 23 21  2  0
M  END
$$$$
