IAQ.pdb
     RDKit          3D

 23 22  0  0  1  0  0  0  0  0999 V2000
    7.3096  -11.9601   19.7751 C   0  0  0  0  0  0  0  0  0  0  0  0
    7.5424  -13.4198   19.3962 C   0  0  0  0  0  0  0  0  0  0  0  0
    7.9087  -14.1431   20.6713 C   0  0  2  0  0  0  0  0  0  0  0  0
    9.1437  -13.4868   21.2454 C   0  0  0  0  0  0  0  0  0  0  0  0
    8.1283  -15.6229   20.4280 C   0  0  2  0  0  0  0  0  0  0  0  0
    6.8922  -16.1379   19.8382 N   0  0  0  0  0  0  0  0  0  0  0  0
    8.4241  -16.3233   21.6919 C   0  0  0  0  0  0  0  0  0  0  0  0
    7.4463  -16.6925   22.3983 O   0  0  0  0  0  0  0  0  0  0  0  0
   11.3444  -18.1295   23.0614 C   0  0  0  0  0  0  0  0  0  0  0  0
    9.9415  -17.5254   23.2314 C   0  0  2  0  0  0  0  0  0  0  0  0
    9.7398  -16.5995   22.1479 N   0  0  0  0  0  0  0  0  0  0  0  0
    9.8260  -16.9081   24.5546 C   0  0  0  0  0  0  0  0  0  0  0  0
    9.9165  -17.5687   25.6070 O   0  0  0  0  0  0  0  0  0  0  0  0
    6.5494  -12.2152   25.2110 N   0  0  0  0  0  0  0  0  0  0  0  0
    6.6528  -12.5301   26.5796 C   0  0  0  0  0  0  0  0  0  0  0  0
    6.2831  -11.7337   27.4779 O   0  0  0  0  0  0  0  0  0  0  0  0
    7.2232  -13.8586   26.9529 C   0  0  0  0  0  0  0  0  0  0  0  0
    7.6683  -14.6244   25.7228 C   0  0  0  0  0  0  0  0  0  0  0  0
    9.1446  -14.8378   25.8206 C   0  0  2  0  0  0  0  0  0  0  0  0
    9.6033  -15.5097   24.6449 N   0  0  0  0  0  0  0  0  0  0  0  0
    9.5420  -15.5374   27.0698 C   0  0  0  0  0  0  0  0  0  0  0  0
   10.2719  -14.8219   27.9983 O   0  0  0  0  0  0  0  0  0  0  0  0
    9.2501  -16.7230   27.3129 O   0  0  0  0  0  0  0  0  0  0  0  0
  1  2  1  0
  2  3  1  0
  3  4  1  6
  5  3  1  0
  5  7  1  0
  5  6  1  1
  7 11  1  0
  7  8  2  0
 10  9  1  6
 11 10  1  0
 12 10  1  0
 12 13  2  0
 15 14  1  0
 15 17  1  0
 16 15  2  0
 18 17  1  0
 19 18  1  6
 19 20  1  0
 20 12  1  0
 21 19  1  0
 22 21  1  0
 23 21  2  0
M  END
$$$$
