IAQ.pdb
     RDKit          3D

 23 22  0  0  1  0  0  0  0  0999 V2000
    7.5509  -11.1859   26.7266 C   0  0  0  0  0  0  0  0  0  0  0  0
    7.6222  -12.6775   27.0403 C   0  0  0  0  0  0  0  0  0  0  0  0
    7.2275  -13.4035   25.7752 C   0  0  2  0  0  0  0  0  0  0  0  0
    5.8181  -12.9904   25.4168 C   0  0  0  0  0  0  0  0  0  0  0  0
    7.3417  -14.9061   25.9375 C   0  0  2  0  0  0  0  0  0  0  0  0
    8.6459  -15.1632   26.5489 N   0  0  0  0  0  0  0  0  0  0  0  0
    7.2456  -15.5829   24.6306 C   0  0  0  0  0  0  0  0  0  0  0  0
    6.1783  -15.4372   23.9740 O   0  0  0  0  0  0  0  0  0  0  0  0
    8.3559  -15.3267   21.9285 C   0  0  0  0  0  0  0  0  0  0  0  0
    8.2915  -16.6709   22.6708 C   0  0  2  0  0  0  0  0  0  0  0  0
    8.2828  -16.3812   24.0809 N   0  0  0  0  0  0  0  0  0  0  0  0
    9.4118  -17.5185   22.2569 C   0  0  0  0  0  0  0  0  0  0  0  0
    9.7727  -17.6104   21.0680 O   0  0  0  0  0  0  0  0  0  0  0  0
   13.7432  -14.7258   23.6885 N   0  0  0  0  0  0  0  0  0  0  0  0
   13.8321  -15.4379   22.4769 C   0  0  0  0  0  0  0  0  0  0  0  0
   14.6867  -15.1592   21.5995 O   0  0  0  0  0  0  0  0  0  0  0  0
   12.8698  -16.5566   22.2482 C   0  0  0  0  0  0  0  0  0  0  0  0
   11.8643  -16.6487   23.3787 C   0  0  0  0  0  0  0  0  0  0  0  0
   11.4969  -18.0871   23.5541 C   0  0  2  0  0  0  0  0  0  0  0  0
   10.1129  -18.2623   23.2411 N   0  0  0  0  0  0  0  0  0  0  0  0
   11.8485  -18.6094   24.8999 C   0  0  0  0  0  0  0  0  0  0  0  0
   11.2120  -18.0482   25.9894 O   0  0  0  0  0  0  0  0  0  0  0  0
   12.6796  -19.5175   25.0862 O   0  0  0  0  0  0  0  0  0  0  0  0
  1  2  1  0
  2  3  1  0
  3  4  1  1
  5  3  1  0
  5  7  1  0
  5  6  1  6
  7 11  1  0
  7  8  2  0
 10  9  1  6
 11 10  1  0
 12 10  1  0
 12 13  2  0
 15 14  1  0
 15 17  1  0
 16 15  2  0
 18 17  1  0
 19 18  1  1
 19 20  1  0
 20 12  1  0
 21 19  1  0
 22 21  1  0
 23 21  2  0
M  END
$$$$
