IAQ.pdb
     RDKit          3D

 23 22  0  0  1  0  0  0  0  0999 V2000
    6.3842  -11.6975   26.9678 C   0  0  0  0  0  0  0  0  0  0  0  0
    5.8405  -12.8996   26.2011 C   0  0  0  0  0  0  0  0  0  0  0  0
    7.0399  -13.6705   25.7009 C   0  0  2  0  0  0  0  0  0  0  0  0
    7.8737  -12.7408   24.8487 C   0  0  0  0  0  0  0  0  0  0  0  0
    6.6242  -14.9074   24.9300 C   0  0  2  0  0  0  0  0  0  0  0  0
    5.7824  -15.6975   25.8289 N   0  0  0  0  0  0  0  0  0  0  0  0
    7.8051  -15.6877   24.5153 C   0  0  0  0  0  0  0  0  0  0  0  0
    8.2484  -16.5503   25.3220 O   0  0  0  0  0  0  0  0  0  0  0  0
    9.4889  -16.3582   21.2708 C   0  0  0  0  0  0  0  0  0  0  0  0
    9.3685  -16.5295   22.7933 C   0  0  2  0  0  0  0  0  0  0  0  0
    8.4604  -15.5181   23.2674 N   0  0  0  0  0  0  0  0  0  0  0  0
   10.6966  -16.4536   23.4060 C   0  0  0  0  0  0  0  0  0  0  0  0
   11.6185  -17.2316   23.0943 O   0  0  0  0  0  0  0  0  0  0  0  0
   11.4330  -16.5878   29.0880 N   0  0  0  0  0  0  0  0  0  0  0  0
   10.8606  -15.3643   28.6898 C   0  0  0  0  0  0  0  0  0  0  0  0
   10.2024  -14.6456   29.4823 O   0  0  0  0  0  0  0  0  0  0  0  0
   11.0544  -14.9262   27.2755 C   0  0  0  0  0  0  0  0  0  0  0  0
   11.9268  -15.9067   26.5171 C   0  0  0  0  0  0  0  0  0  0  0  0
   12.1545  -15.3574   25.1456 C   0  0  2  0  0  0  0  0  0  0  0  0
   10.9459  -15.4611   24.3890 N   0  0  0  0  0  0  0  0  0  0  0  0
   13.3130  -15.9865   24.4603 C   0  0  0  0  0  0  0  0  0  0  0  0
   13.2349  -17.3370   24.1826 O   0  0  0  0  0  0  0  0  0  0  0  0
   14.3364  -15.3590   24.1299 O   0  0  0  0  0  0  0  0  0  0  0  0
  1  2  1  0
  2  3  1  0
  3  4  1  6
  5  3  1  0
  5  7  1  0
  5  6  1  1
  7 11  1  0
  7  8  2  0
 10  9  1  6
 11 10  1  0
 12 10  1  0
 12 13  2  0
 15 14  1  0
 15 17  1  0
 16 15  2  0
 18 17  1  0
 19 18  1  1
 19 20  1  0
 20 12  1  0
 21 19  1  0
 22 21  1  0
 23 21  2  0
M  END
$$$$
