IAQ.pdb
     RDKit          3D

 23 22  0  0  1  0  0  0  0  0999 V2000
    6.2800  -11.7956   27.1647 C   0  0  0  0  0  0  0  0  0  0  0  0
    5.6601  -13.0393   26.5343 C   0  0  0  0  0  0  0  0  0  0  0  0
    6.7483  -13.6969   25.7179 C   0  0  2  0  0  0  0  0  0  0  0  0
    7.2959  -12.6708   24.7521 C   0  0  0  0  0  0  0  0  0  0  0  0
    6.2344  -14.9242   24.9920 C   0  0  2  0  0  0  0  0  0  0  0  0
    5.8526  -15.8905   26.0222 N   0  0  0  0  0  0  0  0  0  0  0  0
    7.2786  -15.4916   24.1185 C   0  0  0  0  0  0  0  0  0  0  0  0
    7.8222  -16.5704   24.4821 O   0  0  0  0  0  0  0  0  0  0  0  0
    8.5714  -14.8356   20.6700 C   0  0  0  0  0  0  0  0  0  0  0  0
    8.5134  -15.6368   21.9802 C   0  0  2  0  0  0  0  0  0  0  0  0
    7.6978  -14.8908   22.9024 N   0  0  0  0  0  0  0  0  0  0  0  0
    9.8716  -15.8822   22.4702 C   0  0  0  0  0  0  0  0  0  0  0  0
   10.7444  -16.4262   21.7671 O   0  0  0  0  0  0  0  0  0  0  0  0
   10.5475  -14.0860   28.2695 N   0  0  0  0  0  0  0  0  0  0  0  0
   10.6986  -15.4737   28.0842 C   0  0  0  0  0  0  0  0  0  0  0  0
   10.8329  -16.2657   29.0499 O   0  0  0  0  0  0  0  0  0  0  0  0
   10.6961  -15.9995   26.6866 C   0  0  0  0  0  0  0  0  0  0  0  0
   11.4904  -15.0960   25.7643 C   0  0  0  0  0  0  0  0  0  0  0  0
   11.4835  -15.7076   24.4002 C   0  0  2  0  0  0  0  0  0  0  0  0
   10.2088  -15.4880   23.7910 N   0  0  0  0  0  0  0  0  0  0  0  0
   11.8711  -17.1419   24.4122 C   0  0  0  0  0  0  0  0  0  0  0  0
   13.1947  -17.4440   24.6651 O   0  0  0  0  0  0  0  0  0  0  0  0
   11.0670  -18.0701   24.2073 O   0  0  0  0  0  0  0  0  0  0  0  0
  1  2  1  0
  2  3  1  0
  3  4  1  6
  5  3  1  0
  5  7  1  0
  5  6  1  1
  7 11  1  0
  7  8  2  0
 10  9  1  6
 11 10  1  0
 12 10  1  0
 12 13  2  0
 15 14  1  0
 15 17  1  0
 16 15  2  0
 18 17  1  0
 19 18  1  1
 19 20  1  0
 20 12  1  0
 21 19  1  0
 22 21  1  0
 23 21  2  0
M  END
$$$$
