IAQ.pdb
     RDKit          3D

 23 22  0  0  1  0  0  0  0  0999 V2000
    6.4686  -12.0487   27.4319 C   0  0  0  0  0  0  0  0  0  0  0  0
    5.8229  -13.1743   26.6290 C   0  0  0  0  0  0  0  0  0  0  0  0
    6.9351  -13.8471   25.8586 C   0  0  2  0  0  0  0  0  0  0  0  0
    7.6205  -12.7991   25.0116 C   0  0  0  0  0  0  0  0  0  0  0  0
    6.4126  -14.9907   25.0122 C   0  0  2  0  0  0  0  0  0  0  0  0
    5.8343  -15.9658   25.9372 N   0  0  0  0  0  0  0  0  0  0  0  0
    7.5031  -15.6068   24.2333 C   0  0  0  0  0  0  0  0  0  0  0  0
    7.8767  -16.7650   24.5657 O   0  0  0  0  0  0  0  0  0  0  0  0
    9.1849  -14.9174   20.9798 C   0  0  0  0  0  0  0  0  0  0  0  0
    9.0050  -15.7299   22.2719 C   0  0  2  0  0  0  0  0  0  0  0  0
    8.1462  -14.9683   23.1405 N   0  0  0  0  0  0  0  0  0  0  0  0
   10.3148  -16.0228   22.8582 C   0  0  0  0  0  0  0  0  0  0  0  0
   11.2161  -16.5983   22.2189 O   0  0  0  0  0  0  0  0  0  0  0  0
   10.8989  -16.1523   28.9702 N   0  0  0  0  0  0  0  0  0  0  0  0
   10.7053  -14.8963   28.3634 C   0  0  0  0  0  0  0  0  0  0  0  0
   10.3180  -13.8933   29.0130 O   0  0  0  0  0  0  0  0  0  0  0  0
   10.9749  -14.7751   26.8997 C   0  0  0  0  0  0  0  0  0  0  0  0
   11.5320  -16.0691   26.3404 C   0  0  0  0  0  0  0  0  0  0  0  0
   11.8048  -15.8636   24.8850 C   0  0  2  0  0  0  0  0  0  0  0  0
   10.5699  -15.6395   24.2003 N   0  0  0  0  0  0  0  0  0  0  0  0
   12.5963  -16.9700   24.2875 C   0  0  0  0  0  0  0  0  0  0  0  0
   13.9439  -16.7517   24.0794 O   0  0  0  0  0  0  0  0  0  0  0  0
   12.1054  -18.0695   23.9707 O   0  0  0  0  0  0  0  0  0  0  0  0
  1  2  1  0
  2  3  1  0
  3  4  1  6
  5  3  1  0
  5  7  1  0
  5  6  1  1
  7 11  1  0
  7  8  2  0
 10  9  1  6
 11 10  1  0
 12 10  1  0
 12 13  2  0
 15 14  1  0
 15 17  1  0
 16 15  2  0
 18 17  1  0
 19 18  1  1
 19 20  1  0
 20 12  1  0
 21 19  1  0
 22 21  1  0
 23 21  2  0
M  END
$$$$
