IAQ.pdb
     RDKit          3D

 23 22  0  0  1  0  0  0  0  0999 V2000
    6.3951  -11.2472   26.5086 C   0  0  0  0  0  0  0  0  0  0  0  0
    5.8457  -12.5856   26.0235 C   0  0  0  0  0  0  0  0  0  0  0  0
    7.0383  -13.4181   25.6137 C   0  0  2  0  0  0  0  0  0  0  0  0
    7.8292  -12.6343   24.5911 C   0  0  0  0  0  0  0  0  0  0  0  0
    6.6141  -14.7686   25.0718 C   0  0  2  0  0  0  0  0  0  0  0  0
    5.8894  -15.4430   26.1492 N   0  0  0  0  0  0  0  0  0  0  0  0
    7.7891  -15.5634   24.6681 C   0  0  0  0  0  0  0  0  0  0  0  0
    8.5209  -16.0309   25.5832 O   0  0  0  0  0  0  0  0  0  0  0  0
    9.4219  -16.6827   21.4841 C   0  0  0  0  0  0  0  0  0  0  0  0
    9.3292  -16.5684   23.0139 C   0  0  2  0  0  0  0  0  0  0  0  0
    8.1337  -15.8257   23.3161 N   0  0  0  0  0  0  0  0  0  0  0  0
   10.5483  -15.9488   23.5382 C   0  0  0  0  0  0  0  0  0  0  0  0
   10.9368  -14.8253   23.1654 O   0  0  0  0  0  0  0  0  0  0  0  0
   11.2460  -16.7972   29.0451 N   0  0  0  0  0  0  0  0  0  0  0  0
   10.8875  -15.5544   28.4883 C   0  0  0  0  0  0  0  0  0  0  0  0
   10.1291  -14.7495   29.0841 O   0  0  0  0  0  0  0  0  0  0  0  0
   11.4377  -15.2020   27.1456 C   0  0  0  0  0  0  0  0  0  0  0  0
   12.3476  -16.2975   26.6262 C   0  0  0  0  0  0  0  0  0  0  0  0
   12.4805  -16.1249   25.1473 C   0  0  2  0  0  0  0  0  0  0  0  0
   11.3160  -16.6492   24.5044 N   0  0  0  0  0  0  0  0  0  0  0  0
   13.7388  -16.7065   24.6123 C   0  0  0  0  0  0  0  0  0  0  0  0
   14.9305  -16.1642   25.0511 O   0  0  0  0  0  0  0  0  0  0  0  0
   13.7658  -17.6476   23.7976 O   0  0  0  0  0  0  0  0  0  0  0  0
  1  2  1  0
  2  3  1  0
  3  4  1  6
  5  3  1  0
  5  7  1  0
  5  6  1  1
  7 11  1  0
  7  8  2  0
 10  9  1  6
 11 10  1  0
 12 10  1  0
 12 13  2  0
 15 14  1  0
 15 17  1  0
 16 15  2  0
 18 17  1  0
 19 18  1  1
 19 20  1  0
 20 12  1  0
 21 19  1  0
 22 21  1  0
 23 21  2  0
M  END
$$$$
