IAQ.pdb
     RDKit          3D

 23 22  0  0  1  0  0  0  0  0999 V2000
    6.1553  -11.6441   27.0554 C   0  0  0  0  0  0  0  0  0  0  0  0
    5.5715  -12.8004   26.2488 C   0  0  0  0  0  0  0  0  0  0  0  0
    6.7279  -13.4460   25.5215 C   0  0  2  0  0  0  0  0  0  0  0  0
    7.3620  -12.4036   24.6287 C   0  0  0  0  0  0  0  0  0  0  0  0
    6.2799  -14.6578   24.7291 C   0  0  2  0  0  0  0  0  0  0  0  0
    5.6385  -15.5661   25.6802 N   0  0  0  0  0  0  0  0  0  0  0  0
    7.4314  -15.3182   24.0861 C   0  0  0  0  0  0  0  0  0  0  0  0
    8.1771  -16.0307   24.8126 O   0  0  0  0  0  0  0  0  0  0  0  0
    9.0839  -15.3707   20.7285 C   0  0  0  0  0  0  0  0  0  0  0  0
    8.8757  -15.8880   22.1606 C   0  0  2  0  0  0  0  0  0  0  0  0
    7.7389  -15.1932   22.7058 N   0  0  0  0  0  0  0  0  0  0  0  0
   10.1023  -15.6983   22.9381 C   0  0  0  0  0  0  0  0  0  0  0  0
   10.8300  -14.6967   22.7989 O   0  0  0  0  0  0  0  0  0  0  0  0
   11.6527  -16.4223   29.6454 N   0  0  0  0  0  0  0  0  0  0  0  0
   11.3934  -15.6030   28.5299 C   0  0  0  0  0  0  0  0  0  0  0  0
   10.7095  -14.5530   28.6169 O   0  0  0  0  0  0  0  0  0  0  0  0
   11.9592  -16.0141   27.2106 C   0  0  0  0  0  0  0  0  0  0  0  0
   10.8572  -16.2626   26.1999 C   0  0  0  0  0  0  0  0  0  0  0  0
   11.4964  -16.5159   24.8725 C   0  0  2  0  0  0  0  0  0  0  0  0
   10.4783  -16.6875   23.8834 N   0  0  0  0  0  0  0  0  0  0  0  0
   12.4576  -17.6484   24.9049 C   0  0  0  0  0  0  0  0  0  0  0  0
   13.6974  -17.4183   25.4678 O   0  0  0  0  0  0  0  0  0  0  0  0
   12.1984  -18.7795   24.4536 O   0  0  0  0  0  0  0  0  0  0  0  0
  1  2  1  0
  2  3  1  0
  3  4  1  6
  5  3  1  0
  5  7  1  0
  5  6  1  1
  7 11  1  0
  7  8  2  0
 10  9  1  6
 11 10  1  0
 12 10  1  0
 12 13  2  0
 15 14  1  0
 15 17  1  0
 16 15  2  0
 18 17  1  0
 19 18  1  1
 19 20  1  0
 20 12  1  0
 21 19  1  0
 22 21  1  0
 23 21  2  0
M  END
$$$$
