IAQ.pdb
     RDKit          3D

 23 22  0  0  1  0  0  0  0  0999 V2000
    6.2121  -10.5627   26.7261 C   0  0  0  0  0  0  0  0  0  0  0  0
    6.6969  -11.9542   27.1224 C   0  0  0  0  0  0  0  0  0  0  0  0
    6.5643  -12.8232   25.8934 C   0  0  2  0  0  0  0  0  0  0  0  0
    5.1160  -12.8059   25.4600 C   0  0  0  0  0  0  0  0  0  0  0  0
    7.0487  -14.2352   26.1557 C   0  0  2  0  0  0  0  0  0  0  0  0
    8.2487  -14.1187   26.9848 N   0  0  0  0  0  0  0  0  0  0  0  0
    7.3646  -14.9241   24.8903 C   0  0  0  0  0  0  0  0  0  0  0  0
    6.7940  -16.0268   24.6669 O   0  0  0  0  0  0  0  0  0  0  0  0
    8.7636  -14.2788   21.5797 C   0  0  0  0  0  0  0  0  0  0  0  0
    8.6315  -15.2208   22.7868 C   0  0  2  0  0  0  0  0  0  0  0  0
    8.2687  -14.4137   23.9221 N   0  0  0  0  0  0  0  0  0  0  0  0
    9.8805  -15.9624   22.9742 C   0  0  0  0  0  0  0  0  0  0  0  0
   10.3866  -16.6527   22.0690 O   0  0  0  0  0  0  0  0  0  0  0  0
   11.1847  -14.5068   27.7278 N   0  0  0  0  0  0  0  0  0  0  0  0
   11.4649  -15.8591   28.0031 C   0  0  0  0  0  0  0  0  0  0  0  0
   11.2114  -16.3803   29.1175 O   0  0  0  0  0  0  0  0  0  0  0  0
   12.0832  -16.6819   26.9213 C   0  0  0  0  0  0  0  0  0  0  0  0
   12.4089  -15.8312   25.7097 C   0  0  0  0  0  0  0  0  0  0  0  0
   11.8096  -16.4893   24.5087 C   0  0  2  0  0  0  0  0  0  0  0  0
   10.5399  -15.8947   24.2289 N   0  0  0  0  0  0  0  0  0  0  0  0
   11.7310  -17.9670   24.6431 C   0  0  0  0  0  0  0  0  0  0  0  0
   10.5050  -18.5149   24.9651 O   0  0  0  0  0  0  0  0  0  0  0  0
   12.7074  -18.7221   24.4806 O   0  0  0  0  0  0  0  0  0  0  0  0
  1  2  1  0
  2  3  1  0
  3  4  1  1
  5  3  1  0
  5  7  1  0
  5  6  1  1
  7 11  1  0
  7  8  2  0
 10  9  1  6
 11 10  1  0
 12 10  1  0
 12 13  2  0
 15 14  1  0
 15 17  1  0
 16 15  2  0
 18 17  1  0
 19 18  1  1
 19 20  1  0
 20 12  1  0
 21 19  1  0
 22 21  1  0
 23 21  2  0
M  END
$$$$
