IAQ.pdb
     RDKit          3D

 23 22  0  0  1  0  0  0  0  0999 V2000
    6.4418  -11.1317   26.6656 C   0  0  0  0  0  0  0  0  0  0  0  0
    5.8036  -12.4576   26.2619 C   0  0  0  0  0  0  0  0  0  0  0  0
    6.8635  -13.2380   25.5198 C   0  0  2  0  0  0  0  0  0  0  0  0
    7.3969  -12.3648   24.4069 C   0  0  0  0  0  0  0  0  0  0  0  0
    6.3184  -14.5475   24.9857 C   0  0  2  0  0  0  0  0  0  0  0  0
    5.9229  -15.3418   26.1490 N   0  0  0  0  0  0  0  0  0  0  0  0
    7.3442  -15.2612   24.2022 C   0  0  0  0  0  0  0  0  0  0  0  0
    8.1764  -15.9674   24.8347 O   0  0  0  0  0  0  0  0  0  0  0  0
    8.1809  -15.8181   20.5938 C   0  0  0  0  0  0  0  0  0  0  0  0
    8.4412  -15.9679   22.1010 C   0  0  2  0  0  0  0  0  0  0  0  0
    7.4405  -15.1936   22.7874 N   0  0  0  0  0  0  0  0  0  0  0  0
    9.8117  -15.5536   22.4096 C   0  0  0  0  0  0  0  0  0  0  0  0
   10.1661  -14.3594   22.3897 O   0  0  0  0  0  0  0  0  0  0  0  0
    9.3893  -16.1273   27.6635 N   0  0  0  0  0  0  0  0  0  0  0  0
   10.7625  -15.8576   27.5066 C   0  0  0  0  0  0  0  0  0  0  0  0
   11.3844  -15.0874   28.2797 O   0  0  0  0  0  0  0  0  0  0  0  0
   11.4831  -16.5190   26.3783 C   0  0  0  0  0  0  0  0  0  0  0  0
   10.6316  -16.5356   25.1244 C   0  0  0  0  0  0  0  0  0  0  0  0
   11.5483  -16.5458   23.9437 C   0  0  2  0  0  0  0  0  0  0  0  0
   10.7718  -16.5438   22.7432 N   0  0  0  0  0  0  0  0  0  0  0  0
   12.5287  -17.6614   23.9877 C   0  0  0  0  0  0  0  0  0  0  0  0
   13.8336  -17.3527   24.3176 O   0  0  0  0  0  0  0  0  0  0  0  0
   12.2301  -18.8452   23.7437 O   0  0  0  0  0  0  0  0  0  0  0  0
  1  2  1  0
  2  3  1  0
  3  4  1  6
  5  3  1  0
  5  7  1  0
  5  6  1  1
  7 11  1  0
  7  8  2  0
 10  9  1  6
 11 10  1  0
 12 10  1  0
 12 13  2  0
 15 14  1  0
 15 17  1  0
 16 15  2  0
 18 17  1  0
 19 18  1  1
 19 20  1  0
 20 12  1  0
 21 19  1  0
 22 21  1  0
 23 21  2  0
M  END
$$$$
