IAQ.pdb
     RDKit          3D

 23 22  0  0  1  0  0  0  0  0999 V2000
    7.5885  -11.7806   26.1966 C   0  0  0  0  0  0  0  0  0  0  0  0
    6.8047  -13.0354   26.5700 C   0  0  0  0  0  0  0  0  0  0  0  0
    7.4348  -14.1794   25.8102 C   0  0  2  0  0  0  0  0  0  0  0  0
    7.3755  -13.8528   24.3352 C   0  0  0  0  0  0  0  0  0  0  0  0
    6.7478  -15.4955   26.1157 C   0  0  2  0  0  0  0  0  0  0  0  0
    6.8028  -15.6691   27.5675 N   0  0  0  0  0  0  0  0  0  0  0  0
    7.4325  -16.6131   25.4393 C   0  0  0  0  0  0  0  0  0  0  0  0
    8.5707  -16.9471   25.8687 O   0  0  0  0  0  0  0  0  0  0  0  0
    6.5020  -19.4126   23.2260 C   0  0  0  0  0  0  0  0  0  0  0  0
    7.5670  -18.4752   23.8167 C   0  0  2  0  0  0  0  0  0  0  0  0
    6.8805  -17.3238   24.3413 N   0  0  0  0  0  0  0  0  0  0  0  0
    8.5589  -18.1450   22.7909 C   0  0  0  0  0  0  0  0  0  0  0  0
    9.2998  -19.0065   22.2803 O   0  0  0  0  0  0  0  0  0  0  0  0
    7.6897  -13.3969   19.0114 N   0  0  0  0  0  0  0  0  0  0  0  0
    8.2235  -12.9938   20.2506 C   0  0  0  0  0  0  0  0  0  0  0  0
    8.1766  -11.8010   20.6418 O   0  0  0  0  0  0  0  0  0  0  0  0
    8.8613  -14.0337   21.1116 C   0  0  0  0  0  0  0  0  0  0  0  0
    8.8263  -15.3921   20.4399 C   0  0  0  0  0  0  0  0  0  0  0  0
    9.5547  -16.3597   21.3163 C   0  0  2  0  0  0  0  0  0  0  0  0
    8.6832  -16.7983   22.3614 N   0  0  0  0  0  0  0  0  0  0  0  0
   10.8363  -15.8137   21.8331 C   0  0  0  0  0  0  0  0  0  0  0  0
   11.8387  -15.5612   20.9175 O   0  0  0  0  0  0  0  0  0  0  0  0
   11.0434  -15.5771   23.0378 O   0  0  0  0  0  0  0  0  0  0  0  0
  1  2  1  0
  2  3  1  0
  3  4  1  6
  5  3  1  0
  5  7  1  0
  5  6  1  1
  7 11  1  0
  7  8  2  0
 10  9  1  6
 11 10  1  0
 12 10  1  0
 12 13  2  0
 15 14  1  0
 15 17  1  0
 16 15  2  0
 18 17  1  0
 19 18  1  1
 19 20  1  0
 20 12  1  0
 21 19  1  0
 22 21  1  0
 23 21  2  0
M  END
$$$$
