IAQ.pdb
     RDKit          3D

 23 22  0  0  1  0  0  0  0  0999 V2000
    7.4603  -12.1165   19.1674 C   0  0  0  0  0  0  0  0  0  0  0  0
    8.4544  -13.1302   19.7266 C   0  0  0  0  0  0  0  0  0  0  0  0
    7.7546  -13.8384   20.8632 C   0  0  2  0  0  0  0  0  0  0  0  0
    7.3239  -12.7973   21.8713 C   0  0  0  0  0  0  0  0  0  0  0  0
    8.6448  -14.8893   21.4959 C   0  0  2  0  0  0  0  0  0  0  0  0
    9.1426  -15.7280   20.4051 N   0  0  0  0  0  0  0  0  0  0  0  0
    7.8869  -15.7039   22.4641 C   0  0  0  0  0  0  0  0  0  0  0  0
    7.5451  -15.1559   23.5478 O   0  0  0  0  0  0  0  0  0  0  0  0
    5.9003  -18.7951   22.5384 C   0  0  0  0  0  0  0  0  0  0  0  0
    6.8114  -17.7861   23.2552 C   0  0  2  0  0  0  0  0  0  0  0  0
    7.5269  -17.0586   22.2397 N   0  0  0  0  0  0  0  0  0  0  0  0
    7.6875  -18.4908   24.1937 C   0  0  0  0  0  0  0  0  0  0  0  0
    7.2430  -19.2409   25.0835 O   0  0  0  0  0  0  0  0  0  0  0  0
   13.7114  -19.6726   22.9885 N   0  0  0  0  0  0  0  0  0  0  0  0
   13.5832  -20.1633   24.3022 C   0  0  0  0  0  0  0  0  0  0  0  0
   14.5335  -20.7256   24.9009 O   0  0  0  0  0  0  0  0  0  0  0  0
   12.2664  -19.9994   24.9870 C   0  0  0  0  0  0  0  0  0  0  0  0
   11.2808  -19.2631   24.1015 C   0  0  0  0  0  0  0  0  0  0  0  0
   10.0537  -18.9842   24.9086 C   0  0  2  0  0  0  0  0  0  0  0  0
    9.0917  -18.3156   24.0891 N   0  0  0  0  0  0  0  0  0  0  0  0
   10.3477  -18.2446   26.1632 C   0  0  0  0  0  0  0  0  0  0  0  0
   10.8250  -18.9709   27.2363 O   0  0  0  0  0  0  0  0  0  0  0  0
   10.1849  -17.0165   26.2881 O   0  0  0  0  0  0  0  0  0  0  0  0
  1  2  1  0
  2  3  1  0
  3  4  1  1
  5  3  1  0
  5  7  1  0
  5  6  1  6
  7 11  1  0
  7  8  2  0
 10  9  1  6
 11 10  1  0
 12 10  1  0
 12 13  2  0
 15 14  1  0
 15 17  1  0
 16 15  2  0
 18 17  1  0
 19 18  1  6
 19 20  1  0
 20 12  1  0
 21 19  1  0
 22 21  1  0
 23 21  2  0
M  END
$$$$
