RAL.pdb
     RDKit          3D

 25 24  0  0  1  0  0  0  0  0999 V2000
   10.1361  -13.3475   19.2682 N   0  0  0  0  0  0  0  0  0  0  0  0
    9.2360  -13.1231   18.2088 C   0  0  0  0  0  0  0  0  0  0  0  0
    9.6979  -12.9629   17.0231 N   0  0  0  0  0  0  0  0  0  0  0  0
    7.8336  -13.0747   18.4500 N   0  0  0  0  0  0  0  0  0  0  0  0
    7.3294  -13.3751   19.7776 C   0  0  0  0  0  0  0  0  0  0  0  0
    7.4829  -14.8368   20.0152 C   0  0  0  0  0  0  0  0  0  0  0  0
    6.8341  -15.3730   21.2408 C   0  0  0  0  0  0  0  0  0  0  0  0
    6.8967  -16.8482   21.4340 C   0  0  2  0  0  0  0  0  0  0  0  0
    5.7324  -17.5794   21.0451 N   0  0  0  0  0  0  0  0  0  0  0  0
    7.1397  -17.0977   22.8781 C   0  0  0  0  0  0  0  0  0  0  0  0
    6.1750  -17.0437   23.6748 O   0  0  0  0  0  0  0  0  0  0  0  0
    9.1351  -12.7603   16.1857 C   0  0  0  0  0  0  0  0  0  0  0  0
    9.5534  -18.6441   25.1703 C   0  0  1  0  0  0  0  0  0  0  0  0
    8.5998  -17.4985   24.8594 N   0  0  0  0  0  0  0  0  0  0  0  0
    8.4219  -17.3969   23.4032 C   0  0  0  0  0  0  0  0  0  0  0  0
    9.2005  -16.2110   25.3189 O   0  0  0  0  0  0  0  0  0  0  0  0
   10.1807  -15.6952   24.7319 C   0  0  0  0  0  0  0  0  0  0  0  0
    5.7467  -12.5695   26.8167 C   0  0  1  0  0  0  0  0  0  0  0  0
    6.9577  -13.3470   26.3507 C   0  0  0  0  0  0  0  0  0  0  0  0
    7.6874  -12.4857   25.3258 C   0  0  0  0  0  0  0  0  0  0  0  0
    7.9064  -13.5809   27.4762 C   0  0  2  0  0  0  0  0  0  0  0  0
    9.1120  -14.3267   27.0007 N   0  0  0  0  0  0  0  0  0  0  0  0
    8.6286  -15.5841   26.4427 C   0  0  0  0  0  0  0  0  0  0  0  0
   10.1437  -14.5765   28.0053 O   0  0  0  0  0  0  0  0  0  0  0  0
   11.0522  -13.6247   28.4378 O   0  0  0  0  0  0  0  0  0  0  0  0
  1  2  1  0
  2  4  1  0
  2  3  2  0
  4  5  1  0
  6  5  1  0
  6  7  1  0
  7  8  1  0
  8  9  1  1
 10 11  2  0
 10  8  1  0
 13 12  1  1
 13 14  1  0
 13 15  1  0
 14 10  1  0
 15 22  1  0
 16 15  2  0
 18 20  1  0
 18 17  1  6
 19 18  1  0
 21 20  1  6
 21 23  1  0
 22 21  1  0
 23 25  2  0
 23 24  1  0
M  END
$$$$
