RAL.pdb
     RDKit          3D

 25 24  0  0  1  0  0  0  0  0999 V2000
    8.4350  -13.8624   17.6202 N   0  0  0  0  0  0  0  0  0  0  0  0
    7.9846  -14.7381   16.6136 C   0  0  0  0  0  0  0  0  0  0  0  0
    7.5708  -14.2488   15.5027 N   0  0  0  0  0  0  0  0  0  0  0  0
    7.9882  -16.1459   16.8259 N   0  0  0  0  0  0  0  0  0  0  0  0
    8.6011  -16.6826   18.0272 C   0  0  0  0  0  0  0  0  0  0  0  0
    7.8210  -17.8761   18.4558 C   0  0  0  0  0  0  0  0  0  0  0  0
    8.2891  -18.5552   19.6928 C   0  0  0  0  0  0  0  0  0  0  0  0
    7.8008  -17.9950   20.9832 C   0  0  2  0  0  0  0  0  0  0  0  0
    6.4326  -17.5837   21.0081 N   0  0  0  0  0  0  0  0  0  0  0  0
    8.6450  -16.8156   21.3039 C   0  0  0  0  0  0  0  0  0  0  0  0
    9.8872  -16.9032   21.1706 O   0  0  0  0  0  0  0  0  0  0  0  0
    7.1668  -14.7898   14.7260 C   0  0  0  0  0  0  0  0  0  0  0  0
    8.3686  -13.1689   21.5213 C   0  0  2  0  0  0  0  0  0  0  0  0
    9.0135  -14.4554   22.0190 N   0  0  0  0  0  0  0  0  0  0  0  0
    8.1085  -15.5845   21.7575 C   0  0  0  0  0  0  0  0  0  0  0  0
    9.2029  -14.3783   23.4982 O   0  0  0  0  0  0  0  0  0  0  0  0
   10.1463  -13.7294   24.0083 C   0  0  0  0  0  0  0  0  0  0  0  0
    5.7394  -12.3061   26.3153 C   0  0  1  0  0  0  0  0  0  0  0  0
    7.0576  -12.9436   25.9361 C   0  0  0  0  0  0  0  0  0  0  0  0
    8.1352  -12.3266   26.8210 C   0  0  0  0  0  0  0  0  0  0  0  0
    7.0446  -14.4062   26.2228 C   0  0  2  0  0  0  0  0  0  0  0  0
    8.3208  -15.0415   25.7717 N   0  0  0  0  0  0  0  0  0  0  0  0
    8.2813  -15.0622   24.3143 C   0  0  0  0  0  0  0  0  0  0  0  0
    8.5856  -16.3802   26.2949 O   0  0  0  0  0  0  0  0  0  0  0  0
    9.0364  -16.6362   27.5792 O   0  0  0  0  0  0  0  0  0  0  0  0
  1  2  1  0
  2  4  1  0
  2  3  2  0
  4  5  1  0
  6  5  1  0
  6  7  1  0
  7  8  1  0
  8  9  1  6
 10 11  2  0
 10  8  1  0
 13 12  1  6
 13 14  1  0
 13 15  1  0
 14 10  1  0
 15 22  1  0
 16 15  2  0
 18 20  1  0
 18 17  1  6
 19 18  1  0
 21 20  1  6
 21 23  1  0
 22 21  1  0
 23 25  2  0
 23 24  1  0
M  END
$$$$
