RAL.pdb
     RDKit          3D

 25 24  0  0  1  0  0  0  0  0999 V2000
   13.0726  -14.8651   21.4204 N   0  0  0  0  0  0  0  0  0  0  0  0
   13.4278  -14.3912   20.1429 C   0  0  0  0  0  0  0  0  0  0  0  0
   14.6123  -13.9368   19.9549 N   0  0  0  0  0  0  0  0  0  0  0  0
   12.4860  -14.4159   19.0754 N   0  0  0  0  0  0  0  0  0  0  0  0
   11.0866  -14.6680   19.3670 C   0  0  0  0  0  0  0  0  0  0  0  0
   10.3946  -13.3567   19.5020 C   0  0  0  0  0  0  0  0  0  0  0  0
    9.0198  -13.2806   18.9412 C   0  0  0  0  0  0  0  0  0  0  0  0
    8.3421  -14.5778   18.6664 C   0  0  2  0  0  0  0  0  0  0  0  0
    7.2416  -14.5275   17.7565 N   0  0  0  0  0  0  0  0  0  0  0  0
    7.8466  -15.1043   19.9641 C   0  0  0  0  0  0  0  0  0  0  0  0
    6.8108  -14.6097   20.4649 O   0  0  0  0  0  0  0  0  0  0  0  0
   14.9427  -13.4669   19.1010 C   0  0  0  0  0  0  0  0  0  0  0  0
    8.3185  -18.0561   22.1831 C   0  0  1  0  0  0  0  0  0  0  0  0
    7.9486  -16.5960   21.9597 N   0  0  0  0  0  0  0  0  0  0  0  0
    8.4948  -16.1490   20.6696 C   0  0  0  0  0  0  0  0  0  0  0  0
    8.5800  -15.7540   23.0189 O   0  0  0  0  0  0  0  0  0  0  0  0
    9.8234  -15.6132   23.0940 C   0  0  0  0  0  0  0  0  0  0  0  0
    8.7448  -11.5764   26.2665 C   0  0  2  0  0  0  0  0  0  0  0  0
    7.5603  -12.4774   26.5372 C   0  0  0  0  0  0  0  0  0  0  0  0
    6.3671  -11.5817   26.8520 C   0  0  0  0  0  0  0  0  0  0  0  0
    7.2030  -13.2670   25.3247 C   0  0  1  0  0  0  0  0  0  0  0  0
    8.2100  -14.3460   25.0847 N   0  0  0  0  0  0  0  0  0  0  0  0
    7.7304  -15.1142   23.9419 C   0  0  0  0  0  0  0  0  0  0  0  0
    8.4795  -15.2292   26.2174 O   0  0  0  0  0  0  0  0  0  0  0  0
    9.5870  -15.1181   27.0417 O   0  0  0  0  0  0  0  0  0  0  0  0
  1  2  1  0
  2  4  1  0
  2  3  2  0
  4  5  1  0
  6  5  1  0
  6  7  1  0
  7  8  1  0
  8  9  1  6
 10 11  2  0
 10  8  1  0
 13 12  1  6
 13 14  1  0
 13 15  1  0
 14 10  1  0
 15 22  1  0
 16 15  2  0
 18 20  1  0
 18 17  1  1
 19 18  1  0
 21 20  1  6
 21 23  1  0
 22 21  1  0
 23 25  2  0
 23 24  1  0
M  END
$$$$
