RAL.pdb
     RDKit          3D

 25 24  0  0  1  0  0  0  0  0999 V2000
    7.2656  -13.6989   16.0749 N   0  0  0  0  0  0  0  0  0  0  0  0
    8.5960  -14.0521   16.3718 C   0  0  0  0  0  0  0  0  0  0  0  0
    9.2331  -14.8149   15.5613 N   0  0  0  0  0  0  0  0  0  0  0  0
    9.2249  -13.5696   17.5546 N   0  0  0  0  0  0  0  0  0  0  0  0
    8.4358  -12.8482   18.5362 C   0  0  0  0  0  0  0  0  0  0  0  0
    7.5356  -13.8196   19.2164 C   0  0  0  0  0  0  0  0  0  0  0  0
    7.9399  -14.2409   20.5838 C   0  0  0  0  0  0  0  0  0  0  0  0
    8.3105  -15.6729   20.7549 C   0  0  2  0  0  0  0  0  0  0  0  0
    7.4733  -16.6193   20.0878 N   0  0  0  0  0  0  0  0  0  0  0  0
    8.2776  -15.9700   22.2100 C   0  0  0  0  0  0  0  0  0  0  0  0
    7.2600  -15.6597   22.8706 O   0  0  0  0  0  0  0  0  0  0  0  0
    8.8879  -15.1335   14.6456 C   0  0  0  0  0  0  0  0  0  0  0  0
   10.1696  -18.0389   24.6825 C   0  0  2  0  0  0  0  0  0  0  0  0
    9.2094  -16.9134   24.3218 N   0  0  0  0  0  0  0  0  0  0  0  0
    9.3515  -16.5935   22.8935 C   0  0  0  0  0  0  0  0  0  0  0  0
    9.5739  -15.6831   25.0853 O   0  0  0  0  0  0  0  0  0  0  0  0
   10.4915  -14.9190   24.7038 C   0  0  0  0  0  0  0  0  0  0  0  0
    5.8755  -12.4306   26.6437 C   0  0  1  0  0  0  0  0  0  0  0  0
    7.1664  -13.1329   26.2854 C   0  0  0  0  0  0  0  0  0  0  0  0
    8.0972  -12.0932   25.6710 C   0  0  0  0  0  0  0  0  0  0  0  0
    7.8445  -13.6568   27.5048 C   0  0  2  0  0  0  0  0  0  0  0  0
    9.1535  -14.2860   27.1489 N   0  0  0  0  0  0  0  0  0  0  0  0
    8.8496  -15.4008   26.2596 C   0  0  0  0  0  0  0  0  0  0  0  0
    9.9701  -14.7374   28.2737 O   0  0  0  0  0  0  0  0  0  0  0  0
   10.7060  -13.8917   29.0870 O   0  0  0  0  0  0  0  0  0  0  0  0
  1  2  1  0
  2  4  1  0
  2  3  2  0
  4  5  1  0
  6  5  1  0
  6  7  1  0
  7  8  1  0
  8  9  1  6
 10 11  2  0
 10  8  1  0
 13 12  1  6
 13 14  1  0
 13 15  1  0
 14 10  1  0
 15 22  1  0
 16 15  2  0
 18 20  1  0
 18 17  1  6
 19 18  1  0
 21 20  1  6
 21 23  1  0
 22 21  1  0
 23 25  2  0
 23 24  1  0
M  END
$$$$
