RAL.pdb
     RDKit          3D

 25 24  0  0  1  0  0  0  0  0999 V2000
    8.9799  -15.6367   15.9711 N   0  0  0  0  0  0  0  0  0  0  0  0
    8.3876  -14.4710   15.4485 C   0  0  0  0  0  0  0  0  0  0  0  0
    8.0359  -14.4509   14.2154 N   0  0  0  0  0  0  0  0  0  0  0  0
    8.1823  -13.3312   16.2766 N   0  0  0  0  0  0  0  0  0  0  0  0
    8.5475  -13.3964   17.6800 C   0  0  0  0  0  0  0  0  0  0  0  0
    7.3849  -13.9324   18.4401 C   0  0  0  0  0  0  0  0  0  0  0  0
    7.5136  -13.9306   19.9213 C   0  0  0  0  0  0  0  0  0  0  0  0
    8.7495  -14.5441   20.4812 C   0  0  2  0  0  0  0  0  0  0  0  0
    9.3362  -15.5892   19.7031 N   0  0  0  0  0  0  0  0  0  0  0  0
    8.4060  -15.0975   21.8162 C   0  0  0  0  0  0  0  0  0  0  0  0
    7.5805  -14.4867   22.5331 O   0  0  0  0  0  0  0  0  0  0  0  0
    7.6408  -13.6396   13.7206 C   0  0  0  0  0  0  0  0  0  0  0  0
    9.0745  -18.2019   23.8426 C   0  0  2  0  0  0  0  0  0  0  0  0
    8.5635  -16.7805   23.6494 N   0  0  0  0  0  0  0  0  0  0  0  0
    8.9720  -16.2941   22.3231 C   0  0  0  0  0  0  0  0  0  0  0  0
    9.1959  -15.8816   24.6603 O   0  0  0  0  0  0  0  0  0  0  0  0
   10.3836  -15.4966   24.5476 C   0  0  0  0  0  0  0  0  0  0  0  0
    5.9194  -12.2177   26.5604 C   0  0  1  0  0  0  0  0  0  0  0  0
    7.1560  -12.9746   26.1293 C   0  0  0  0  0  0  0  0  0  0  0  0
    8.2176  -11.9439   25.7609 C   0  0  0  0  0  0  0  0  0  0  0  0
    7.7063  -13.7820   27.2548 C   0  0  2  0  0  0  0  0  0  0  0  0
    8.8897  -14.5762   26.8024 N   0  0  0  0  0  0  0  0  0  0  0  0
    8.4122  -15.4729   25.7565 C   0  0  0  0  0  0  0  0  0  0  0  0
    9.5866  -15.3297   27.8428 O   0  0  0  0  0  0  0  0  0  0  0  0
   10.4751  -14.7679   28.7445 O   0  0  0  0  0  0  0  0  0  0  0  0
  1  2  1  0
  2  4  1  0
  2  3  2  0
  4  5  1  0
  6  5  1  0
  6  7  1  0
  7  8  1  0
  8  9  1  6
 10 11  2  0
 10  8  1  0
 13 12  1  6
 13 14  1  0
 13 15  1  0
 14 10  1  0
 15 22  1  0
 16 15  2  0
 18 20  1  0
 18 17  1  6
 19 18  1  0
 21 20  1  6
 21 23  1  0
 22 21  1  0
 23 25  2  0
 23 24  1  0
M  END
$$$$
