RAL.pdb
     RDKit          3D

 25 24  0  0  1  0  0  0  0  0999 V2000
    8.5947  -12.7086   17.7880 N   0  0  0  0  0  0  0  0  0  0  0  0
    9.4249  -13.3064   18.7555 C   0  0  0  0  0  0  0  0  0  0  0  0
   10.5181  -12.7219   19.0844 N   0  0  0  0  0  0  0  0  0  0  0  0
    9.0565  -14.5418   19.3600 N   0  0  0  0  0  0  0  0  0  0  0  0
    8.2595  -15.4926   18.6065 C   0  0  0  0  0  0  0  0  0  0  0  0
    6.8563  -15.4184   19.0985 C   0  0  0  0  0  0  0  0  0  0  0  0
    6.6589  -15.6527   20.5534 C   0  0  0  0  0  0  0  0  0  0  0  0
    6.6183  -17.0734   20.9976 C   0  0  2  0  0  0  0  0  0  0  0  0
    5.5466  -17.8612   20.4753 N   0  0  0  0  0  0  0  0  0  0  0  0
    6.5137  -17.0733   22.4794 C   0  0  0  0  0  0  0  0  0  0  0  0
    5.4288  -16.7452   23.0120 O   0  0  0  0  0  0  0  0  0  0  0  0
   11.2325  -13.1052   19.7183 C   0  0  0  0  0  0  0  0  0  0  0  0
    7.7879  -18.6735   25.4191 C   0  0  1  0  0  0  0  0  0  0  0  0
    7.4240  -17.3374   24.7858 N   0  0  0  0  0  0  0  0  0  0  0  0
    7.5919  -17.4298   23.3278 C   0  0  0  0  0  0  0  0  0  0  0  0
    8.3647  -16.2836   25.2698 O   0  0  0  0  0  0  0  0  0  0  0  0
    9.4921  -16.1171   24.7476 C   0  0  0  0  0  0  0  0  0  0  0  0
    5.6423  -12.2368   27.3054 C   0  0  1  0  0  0  0  0  0  0  0  0
    6.6634  -13.1212   26.6248 C   0  0  0  0  0  0  0  0  0  0  0  0
    7.2505  -12.3298   25.4612 C   0  0  0  0  0  0  0  0  0  0  0  0
    7.7907  -13.4403   27.5461 C   0  0  2  0  0  0  0  0  0  0  0  0
    8.7477  -14.3882   26.8970 N   0  0  0  0  0  0  0  0  0  0  0  0
    7.9456  -15.4717   26.3414 C   0  0  0  0  0  0  0  0  0  0  0  0
    9.7998  -14.9217   27.7598 O   0  0  0  0  0  0  0  0  0  0  0  0
    9.9062  -16.2548   28.1202 O   0  0  0  0  0  0  0  0  0  0  0  0
  1  2  1  0
  2  4  1  0
  2  3  2  0
  4  5  1  0
  6  5  1  0
  6  7  1  0
  7  8  1  0
  8  9  1  6
 10 11  2  0
 10  8  1  0
 13 12  1  6
 13 14  1  0
 13 15  1  0
 14 10  1  0
 15 22  1  0
 16 15  2  0
 18 20  1  0
 18 17  1  6
 19 18  1  0
 21 20  1  6
 21 23  1  0
 22 21  1  0
 23 25  2  0
 23 24  1  0
M  END
$$$$
