RAL.pdb
     RDKit          3D

 25 24  0  0  1  0  0  0  0  0999 V2000
   10.2107  -19.1498   16.0616 N   0  0  0  0  0  0  0  0  0  0  0  0
    9.0429  -19.9365   16.0760 C   0  0  0  0  0  0  0  0  0  0  0  0
    9.0575  -21.0826   15.5006 N   0  0  0  0  0  0  0  0  0  0  0  0
    7.8630  -19.4668   16.7197 N   0  0  0  0  0  0  0  0  0  0  0  0
    7.8882  -18.1879   17.4060 C   0  0  0  0  0  0  0  0  0  0  0  0
    8.1856  -18.4357   18.8436 C   0  0  0  0  0  0  0  0  0  0  0  0
    8.1587  -17.2446   19.7330 C   0  0  0  0  0  0  0  0  0  0  0  0
    8.5268  -17.4715   21.1579 C   0  0  2  0  0  0  0  0  0  0  0  0
    7.6437  -18.3097   21.9057 N   0  0  0  0  0  0  0  0  0  0  0  0
    8.5772  -16.1432   21.8211 C   0  0  0  0  0  0  0  0  0  0  0  0
    9.3550  -15.2697   21.3735 O   0  0  0  0  0  0  0  0  0  0  0  0
    8.2481  -21.7100   15.3995 C   0  0  0  0  0  0  0  0  0  0  0  0
    6.3888  -14.1436   24.0571 C   0  0  2  0  0  0  0  0  0  0  0  0
    7.7443  -14.4221   23.4216 N   0  0  0  0  0  0  0  0  0  0  0  0
    7.7806  -15.8131   22.9461 C   0  0  0  0  0  0  0  0  0  0  0  0
    8.8161  -14.2824   24.4519 O   0  0  0  0  0  0  0  0  0  0  0  0
    9.0385  -13.1910   25.0269 C   0  0  0  0  0  0  0  0  0  0  0  0
    9.5354  -12.9265   27.1635 C   0  0  2  0  0  0  0  0  0  0  0  0
   10.5522  -13.9553   27.6057 C   0  0  0  0  0  0  0  0  0  0  0  0
   10.4444  -14.0825   29.1214 C   0  0  0  0  0  0  0  0  0  0  0  0
   10.2381  -15.2953   27.0337 C   0  0  2  0  0  0  0  0  0  0  0  0
   10.7499  -15.4017   25.6328 N   0  0  0  0  0  0  0  0  0  0  0  0
    9.5790  -15.4242   24.7641 C   0  0  0  0  0  0  0  0  0  0  0  0
   11.6140  -16.5473   25.3555 O   0  0  0  0  0  0  0  0  0  0  0  0
   12.9745  -16.5734   25.6136 O   0  0  0  0  0  0  0  0  0  0  0  0
  1  2  1  0
  2  4  1  0
  2  3  2  0
  4  5  1  0
  6  5  1  0
  6  7  1  0
  7  8  1  0
  8  9  1  1
 10 11  2  0
 10  8  1  0
 13 12  1  6
 13 14  1  0
 13 15  1  0
 14 10  1  0
 15 22  1  0
 16 15  2  0
 18 20  1  0
 18 17  1  1
 19 18  1  0
 21 20  1  6
 21 23  1  0
 22 21  1  0
 23 25  2  0
 23 24  1  0
M  END
$$$$
