RAL.pdb
     RDKit          3D

 25 24  0  0  1  0  0  0  0  0999 V2000
    9.6722  -15.1828   16.6751 N   0  0  0  0  0  0  0  0  0  0  0  0
    8.6965  -14.2732   16.2239 C   0  0  0  0  0  0  0  0  0  0  0  0
    8.3302  -14.3121   14.9955 N   0  0  0  0  0  0  0  0  0  0  0  0
    8.1249  -13.3241   17.1182 N   0  0  0  0  0  0  0  0  0  0  0  0
    8.2575  -13.5258   18.5495 C   0  0  0  0  0  0  0  0  0  0  0  0
    7.8510  -14.9233   18.8634 C   0  0  0  0  0  0  0  0  0  0  0  0
    7.7185  -15.2588   20.3057 C   0  0  0  0  0  0  0  0  0  0  0  0
    7.3549  -16.6660   20.6294 C   0  0  2  0  0  0  0  0  0  0  0  0
    6.2317  -17.1991   19.9252 N   0  0  0  0  0  0  0  0  0  0  0  0
    7.0607  -16.7261   22.0842 C   0  0  0  0  0  0  0  0  0  0  0  0
    5.9115  -16.4304   22.4844 O   0  0  0  0  0  0  0  0  0  0  0  0
    7.6380  -13.6880   14.5591 C   0  0  0  0  0  0  0  0  0  0  0  0
    7.9325  -18.4132   25.1094 C   0  0  2  0  0  0  0  0  0  0  0  0
    7.6781  -17.0510   24.4782 N   0  0  0  0  0  0  0  0  0  0  0  0
    8.0261  -17.1052   23.0504 C   0  0  0  0  0  0  0  0  0  0  0  0
    8.5715  -16.0345   25.1092 O   0  0  0  0  0  0  0  0  0  0  0  0
    9.7630  -15.8898   24.7474 C   0  0  0  0  0  0  0  0  0  0  0  0
    5.8371  -11.7994   26.6983 C   0  0  1  0  0  0  0  0  0  0  0  0
    6.8905  -12.7653   26.2031 C   0  0  0  0  0  0  0  0  0  0  0  0
    7.7614  -12.0171   25.1997 C   0  0  0  0  0  0  0  0  0  0  0  0
    7.7829  -13.1974   27.3159 C   0  0  2  0  0  0  0  0  0  0  0  0
    8.7846  -14.1951   26.8291 N   0  0  0  0  0  0  0  0  0  0  0  0
    8.0324  -15.2326   26.1336 C   0  0  0  0  0  0  0  0  0  0  0  0
    9.6443  -14.7861   27.8526 O   0  0  0  0  0  0  0  0  0  0  0  0
   10.7443  -14.1502   28.4038 O   0  0  0  0  0  0  0  0  0  0  0  0
  1  2  1  0
  2  4  1  0
  2  3  2  0
  4  5  1  0
  6  5  1  0
  6  7  1  0
  7  8  1  0
  8  9  1  6
 10 11  2  0
 10  8  1  0
 13 12  1  6
 13 14  1  0
 13 15  1  0
 14 10  1  0
 15 22  1  0
 16 15  2  0
 18 20  1  0
 18 17  1  6
 19 18  1  0
 21 20  1  6
 21 23  1  0
 22 21  1  0
 23 25  2  0
 23 24  1  0
M  END
$$$$
