RAL.pdb
     RDKit          3D

 25 24  0  0  1  0  0  0  0  0999 V2000
    8.2572  -12.6692   15.3137 N   0  0  0  0  0  0  0  0  0  0  0  0
    7.8895  -14.0276   15.3643 C   0  0  0  0  0  0  0  0  0  0  0  0
    7.9892  -14.7393   14.3021 N   0  0  0  0  0  0  0  0  0  0  0  0
    7.4138  -14.6027   16.5768 N   0  0  0  0  0  0  0  0  0  0  0  0
    7.3971  -13.8002   17.7862 C   0  0  0  0  0  0  0  0  0  0  0  0
    8.1136  -14.5505   18.8540 C   0  0  0  0  0  0  0  0  0  0  0  0
    9.5153  -14.1326   19.1206 C   0  0  0  0  0  0  0  0  0  0  0  0
   10.2122  -14.8228   20.2410 C   0  0  2  0  0  0  0  0  0  0  0  0
   10.8342  -16.0679   19.9177 N   0  0  0  0  0  0  0  0  0  0  0  0
    9.2062  -15.0701   21.3056 C   0  0  0  0  0  0  0  0  0  0  0  0
    8.4587  -14.1318   21.6651 O   0  0  0  0  0  0  0  0  0  0  0  0
    7.6785  -15.7157   14.2066 C   0  0  0  0  0  0  0  0  0  0  0  0
    7.8709  -17.9109   23.3768 C   0  0  2  0  0  0  0  0  0  0  0  0
    8.1650  -16.4409   23.1096 N   0  0  0  0  0  0  0  0  0  0  0  0
    9.0495  -16.3278   21.9403 C   0  0  0  0  0  0  0  0  0  0  0  0
    8.8990  -15.8598   24.2729 O   0  0  0  0  0  0  0  0  0  0  0  0
   10.1488  -15.7627   24.2810 C   0  0  0  0  0  0  0  0  0  0  0  0
    5.8904  -12.3464   27.0532 C   0  0  1  0  0  0  0  0  0  0  0  0
    7.0587  -13.0404   26.3888 C   0  0  0  0  0  0  0  0  0  0  0  0
    8.1561  -12.0004   26.1914 C   0  0  0  0  0  0  0  0  0  0  0  0
    7.6198  -14.1024   27.2713 C   0  0  2  0  0  0  0  0  0  0  0  0
    8.7227  -14.8347   26.5761 N   0  0  0  0  0  0  0  0  0  0  0  0
    8.1398  -15.4179   25.3736 C   0  0  0  0  0  0  0  0  0  0  0  0
    9.4017  -15.8610   27.3644 O   0  0  0  0  0  0  0  0  0  0  0  0
    9.2049  -17.2221   27.2005 O   0  0  0  0  0  0  0  0  0  0  0  0
  1  2  1  0
  2  4  1  0
  2  3  2  0
  4  5  1  0
  6  5  1  0
  6  7  1  0
  7  8  1  0
  8  9  1  6
 10 11  2  0
 10  8  1  0
 13 12  1  6
 13 14  1  0
 13 15  1  0
 14 10  1  0
 15 22  1  0
 16 15  2  0
 18 20  1  0
 18 17  1  6
 19 18  1  0
 21 20  1  6
 21 23  1  0
 22 21  1  0
 23 25  2  0
 23 24  1  0
M  END
$$$$
