RAL.pdb
     RDKit          3D

 25 24  0  0  1  0  0  0  0  0999 V2000
    9.8798  -14.6840   16.1590 N   0  0  0  0  0  0  0  0  0  0  0  0
    8.6522  -14.0444   16.4170 C   0  0  0  0  0  0  0  0  0  0  0  0
    8.6315  -12.7693   16.5533 N   0  0  0  0  0  0  0  0  0  0  0  0
    7.4514  -14.8017   16.5251 N   0  0  0  0  0  0  0  0  0  0  0  0
    6.7888  -14.9046   17.8125 C   0  0  0  0  0  0  0  0  0  0  0  0
    7.8151  -14.7467   18.8794 C   0  0  0  0  0  0  0  0  0  0  0  0
    7.3102  -14.7353   20.2778 C   0  0  0  0  0  0  0  0  0  0  0  0
    8.3379  -14.6960   21.3546 C   0  0  2  0  0  0  0  0  0  0  0  0
    9.5929  -15.3040   21.0432 N   0  0  0  0  0  0  0  0  0  0  0  0
    7.7684  -15.3891   22.5385 C   0  0  0  0  0  0  0  0  0  0  0  0
    6.6042  -15.1087   22.9051 O   0  0  0  0  0  0  0  0  0  0  0  0
    7.8250  -12.2164   16.8744 C   0  0  0  0  0  0  0  0  0  0  0  0
    8.4427  -18.4557   24.5338 C   0  0  2  0  0  0  0  0  0  0  0  0
    7.8079  -17.0814   24.3695 N   0  0  0  0  0  0  0  0  0  0  0  0
    8.4849  -16.3614   23.2806 C   0  0  0  0  0  0  0  0  0  0  0  0
    8.0130  -16.2852   25.6159 O   0  0  0  0  0  0  0  0  0  0  0  0
    7.5267  -16.6442   26.7141 C   0  0  0  0  0  0  0  0  0  0  0  0
    5.8226  -12.3115   25.9052 C   0  0  2  0  0  0  0  0  0  0  0  0
    7.1633  -12.9651   25.6536 C   0  0  0  0  0  0  0  0  0  0  0  0
    8.1131  -11.8823   25.1532 C   0  0  0  0  0  0  0  0  0  0  0  0
    7.7417  -13.4996   26.9191 C   0  0  2  0  0  0  0  0  0  0  0  0
    9.0273  -14.2136   26.6488 N   0  0  0  0  0  0  0  0  0  0  0  0
    8.7774  -15.1061   25.5232 C   0  0  0  0  0  0  0  0  0  0  0  0
    9.5924  -14.9558   27.7738 O   0  0  0  0  0  0  0  0  0  0  0  0
    9.7394  -16.3328   27.7997 O   0  0  0  0  0  0  0  0  0  0  0  0
  1  2  1  0
  2  4  1  0
  2  3  2  0
  4  5  1  0
  6  5  1  0
  6  7  1  0
  7  8  1  0
  8  9  1  6
 10 11  2  0
 10  8  1  0
 13 12  1  6
 13 14  1  0
 13 15  1  0
 14 10  1  0
 15 22  1  0
 16 15  2  0
 18 20  1  0
 18 17  1  6
 19 18  1  0
 21 20  1  6
 21 23  1  0
 22 21  1  0
 23 25  2  0
 23 24  1  0
M  END
$$$$
