RAL.pdb
     RDKit          3D

 25 24  0  0  1  0  0  0  0  0999 V2000
    9.3335  -14.6821   16.0427 N   0  0  0  0  0  0  0  0  0  0  0  0
    8.0690  -14.0636   16.0782 C   0  0  0  0  0  0  0  0  0  0  0  0
    7.3256  -14.1069   15.0341 N   0  0  0  0  0  0  0  0  0  0  0  0
    7.6221  -13.3997   17.2558 N   0  0  0  0  0  0  0  0  0  0  0  0
    8.4988  -13.3324   18.4106 C   0  0  0  0  0  0  0  0  0  0  0  0
    8.7828  -14.7223   18.8624 C   0  0  0  0  0  0  0  0  0  0  0  0
    7.7451  -15.3586   19.7162 C   0  0  0  0  0  0  0  0  0  0  0  0
    8.0294  -16.7426   20.1865 C   0  0  2  0  0  0  0  0  0  0  0  0
    7.4444  -17.7961   19.4187 N   0  0  0  0  0  0  0  0  0  0  0  0
    7.5268  -16.8507   21.5801 C   0  0  0  0  0  0  0  0  0  0  0  0
    6.3728  -17.2956   21.7771 O   0  0  0  0  0  0  0  0  0  0  0  0
    6.4230  -13.6249   14.9236 C   0  0  0  0  0  0  0  0  0  0  0  0
    7.7747  -18.2077   24.3432 C   0  0  2  0  0  0  0  0  0  0  0  0
    7.7653  -16.7119   24.0584 N   0  0  0  0  0  0  0  0  0  0  0  0
    8.2965  -16.4716   22.7084 C   0  0  0  0  0  0  0  0  0  0  0  0
    8.6737  -16.0159   25.0176 O   0  0  0  0  0  0  0  0  0  0  0  0
    9.9181  -16.1585   24.9676 C   0  0  0  0  0  0  0  0  0  0  0  0
    5.8949  -11.7831   26.8165 C   0  0  2  0  0  0  0  0  0  0  0  0
    6.9224  -12.7405   26.2546 C   0  0  0  0  0  0  0  0  0  0  0  0
    7.7958  -11.9550   25.2824 C   0  0  0  0  0  0  0  0  0  0  0  0
    7.8196  -13.2509   27.3298 C   0  0  2  0  0  0  0  0  0  0  0  0
    8.8303  -14.1974   26.7656 N   0  0  0  0  0  0  0  0  0  0  0  0
    8.0873  -15.1846   25.9913 C   0  0  0  0  0  0  0  0  0  0  0  0
    9.6971  -14.8584   27.7390 O   0  0  0  0  0  0  0  0  0  0  0  0
   10.8092  -14.2672   28.3152 O   0  0  0  0  0  0  0  0  0  0  0  0
  1  2  1  0
  2  4  1  0
  2  3  2  0
  4  5  1  0
  6  5  1  0
  6  7  1  0
  7  8  1  0
  8  9  1  6
 10 11  2  0
 10  8  1  0
 13 12  1  6
 13 14  1  0
 13 15  1  0
 14 10  1  0
 15 22  1  0
 16 15  2  0
 18 20  1  0
 18 17  1  6
 19 18  1  0
 21 20  1  6
 21 23  1  0
 22 21  1  0
 23 25  2  0
 23 24  1  0
M  END
$$$$
