DKH.pdb
     RDKit          3D

 28 28  0  0  1  0  0  0  0  0999 V2000
   12.5671  -20.4338   17.5136 N   0  0  0  0  0  0  0  0  0  0  0  0
   13.2349  -19.3600   18.1772 C   0  0  1  0  0  0  0  0  0  0  0  0
   13.5696  -18.2282   17.2579 C   0  0  0  0  0  0  0  0  0  0  0  0
   14.5749  -18.6456   16.2539 C   0  0  0  0  0  0  0  0  0  0  0  0
   14.6279  -18.0223   15.1672 O   0  0  0  0  0  0  0  0  0  0  0  0
   12.4230  -18.7982   19.3042 C   0  0  0  0  0  0  0  0  0  0  0  0
   12.8157  -17.7433   19.8419 O   0  0  0  0  0  0  0  0  0  0  0  0
   15.4406  -19.6993   16.5013 O   0  0  0  0  0  0  0  0  0  0  0  0
   11.2439  -19.4075   19.7775 N   0  0  0  0  0  0  0  0  0  0  0  0
   10.3914  -18.7591   20.7498 C   0  0  1  0  0  0  0  0  0  0  0  0
    8.9831  -19.3570   20.7221 C   0  0  0  0  0  0  0  0  0  0  0  0
    8.3624  -18.9479   19.4110 C   0  0  0  0  0  0  0  0  0  0  0  0
    6.9726  -19.4957   19.2364 C   0  0  0  0  0  0  0  0  0  0  0  0
    6.3915  -18.8639   17.9820 C   0  0  0  0  0  0  0  0  0  0  0  0
    5.0205  -19.3487   17.8658 N   0  0  0  0  0  0  0  0  0  0  0  0
   10.9772  -18.9255   22.0874 C   0  0  0  0  0  0  0  0  0  0  0  0
   11.3401  -20.0777   22.4591 O   0  0  0  0  0  0  0  0  0  0  0  0
   11.1516  -17.8183   22.9891 N   0  0  0  0  0  0  0  0  0  0  0  0
   11.6981  -18.0700   24.2797 C   0  0  1  0  0  0  0  0  0  0  0  0
   12.7533  -17.0620   24.6835 C   0  0  0  0  0  0  0  0  0  0  0  0
   13.9593  -17.1476   23.8221 C   0  0  0  0  0  0  0  0  0  0  0  0
   14.1642  -18.0146   22.7553 C   0  0  0  0  0  0  0  0  0  0  0  0
   15.3852  -17.7577   22.2542 N   0  0  0  0  0  0  0  0  0  0  0  0
   15.9582  -16.7682   22.9572 C   0  0  0  0  0  0  0  0  0  0  0  0
   15.0720  -16.4142   23.9045 N   0  0  0  0  0  0  0  0  0  0  0  0
   10.6296  -17.9933   25.3064 C   0  0  0  0  0  0  0  0  0  0  0  0
    9.4828  -17.6388   24.9433 O   0  0  0  0  0  0  0  0  0  0  0  0
   10.8734  -18.2988   26.6218 O   0  0  0  0  0  0  0  0  0  0  0  0
  2  1  1  6
  2  3  1  0
  3  4  1  0
  4  5  2  0
  4  8  1  0
  6  7  2  0
  6  2  1  0
  9  6  1  0
 10  9  1  0
 10 11  1  1
 11 12  1  0
 12 13  1  0
 13 14  1  0
 14 15  1  0
 16 17  2  0
 16 10  1  0
 18 16  1  0
 19 18  1  0
 19 20  1  1
 20 21  1  0
 21 25  1  0
 21 22  2  0
 22 23  1  0
 24 23  1  0
 25 24  2  0
 26 28  1  0
 26 19  1  0
 27 26  2  0
M  END
$$$$
