DKH.pdb
     RDKit          3D

 28 28  0  0  1  0  0  0  0  0999 V2000
    8.6081  -18.3145   15.4769 N   0  0  0  0  0  0  0  0  0  0  0  0
    9.3799  -18.1789   16.6707 C   0  0  1  0  0  0  0  0  0  0  0  0
   10.4202  -17.1083   16.5708 C   0  0  0  0  0  0  0  0  0  0  0  0
   11.5735  -17.5692   15.7643 C   0  0  0  0  0  0  0  0  0  0  0  0
   11.5273  -18.7145   15.2564 O   0  0  0  0  0  0  0  0  0  0  0  0
    8.5283  -17.8676   17.8635 C   0  0  0  0  0  0  0  0  0  0  0  0
    7.6590  -16.9804   17.7490 O   0  0  0  0  0  0  0  0  0  0  0  0
   12.6819  -16.7599   15.5706 O   0  0  0  0  0  0  0  0  0  0  0  0
    8.6682  -18.5306   19.0991 N   0  0  0  0  0  0  0  0  0  0  0  0
    7.7517  -18.2981   20.1938 C   0  0  1  0  0  0  0  0  0  0  0  0
    7.4870  -19.5929   20.9652 C   0  0  0  0  0  0  0  0  0  0  0  0
    6.5794  -20.4342   20.1049 C   0  0  0  0  0  0  0  0  0  0  0  0
    6.2103  -21.7369   20.7597 C   0  0  0  0  0  0  0  0  0  0  0  0
    5.3448  -22.5082   19.7767 C   0  0  0  0  0  0  0  0  0  0  0  0
    5.0995  -23.8170   20.3726 N   0  0  0  0  0  0  0  0  0  0  0  0
    8.3274  -17.2900   21.0950 C   0  0  0  0  0  0  0  0  0  0  0  0
    9.5486  -17.3745   21.4098 O   0  0  0  0  0  0  0  0  0  0  0  0
    7.5457  -16.2082   21.6317 N   0  0  0  0  0  0  0  0  0  0  0  0
    8.1861  -15.2589   22.4781 C   0  0  1  0  0  0  0  0  0  0  0  0
    7.8231  -13.8274   22.1444 C   0  0  0  0  0  0  0  0  0  0  0  0
    8.2263  -13.4614   20.7633 C   0  0  0  0  0  0  0  0  0  0  0  0
    7.4272  -12.8802   19.7860 C   0  0  0  0  0  0  0  0  0  0  0  0
    8.1851  -12.7189   18.6871 N   0  0  0  0  0  0  0  0  0  0  0  0
    9.4251  -13.1723   18.9285 C   0  0  0  0  0  0  0  0  0  0  0  0
    9.4252  -13.6184   20.1969 N   0  0  0  0  0  0  0  0  0  0  0  0
    7.7762  -15.4784   23.8872 C   0  0  0  0  0  0  0  0  0  0  0  0
    6.8987  -16.3431   24.1216 O   0  0  0  0  0  0  0  0  0  0  0  0
    8.3325  -14.7628   24.9174 O   0  0  0  0  0  0  0  0  0  0  0  0
  2  1  1  6
  2  3  1  0
  3  4  1  0
  4  5  2  0
  4  8  1  0
  6  7  2  0
  6  2  1  0
  9  6  1  0
 10  9  1  0
 10 11  1  1
 11 12  1  0
 12 13  1  0
 13 14  1  0
 14 15  1  0
 16 17  2  0
 16 10  1  0
 18 16  1  0
 19 18  1  0
 19 20  1  6
 20 21  1  0
 21 25  1  0
 21 22  2  0
 22 23  1  0
 24 23  1  0
 25 24  2  0
 26 28  1  0
 26 19  1  0
 27 26  2  0
M  END
$$$$
