DKH.pdb
     RDKit          3D

 28 28  0  0  1  0  0  0  0  0999 V2000
   12.9954  -15.1753   18.3986 N   0  0  0  0  0  0  0  0  0  0  0  0
   12.3978  -16.0882   19.3198 C   0  0  1  0  0  0  0  0  0  0  0  0
   13.3978  -16.9823   19.9823 C   0  0  0  0  0  0  0  0  0  0  0  0
   14.1459  -17.7709   18.9766 C   0  0  0  0  0  0  0  0  0  0  0  0
   15.3971  -17.6909   18.9653 O   0  0  0  0  0  0  0  0  0  0  0  0
   11.6380  -15.3844   20.4026 C   0  0  0  0  0  0  0  0  0  0  0  0
   12.2758  -14.6560   21.1892 O   0  0  0  0  0  0  0  0  0  0  0  0
   13.4864  -18.5809   18.0656 O   0  0  0  0  0  0  0  0  0  0  0  0
   10.2442  -15.5106   20.5673 N   0  0  0  0  0  0  0  0  0  0  0  0
    9.5204  -14.7249   21.5426 C   0  0  1  0  0  0  0  0  0  0  0  0
    8.0829  -14.4757   21.0810 C   0  0  0  0  0  0  0  0  0  0  0  0
    8.1485  -13.4264   20.0011 C   0  0  0  0  0  0  0  0  0  0  0  0
    8.2378  -14.0231   18.6234 C   0  0  0  0  0  0  0  0  0  0  0  0
    8.2358  -12.8720   17.6307 C   0  0  0  0  0  0  0  0  0  0  0  0
    8.3600  -13.4640   16.3031 N   0  0  0  0  0  0  0  0  0  0  0  0
    9.5146  -15.4412   22.8260 C   0  0  0  0  0  0  0  0  0  0  0  0
    9.0083  -16.5980   22.8806 O   0  0  0  0  0  0  0  0  0  0  0  0
   10.0670  -14.8681   24.0242 N   0  0  0  0  0  0  0  0  0  0  0  0
    9.1756  -14.4418   25.0496 C   0  0  1  0  0  0  0  0  0  0  0  0
    7.9690  -13.6995   24.5153 C   0  0  0  0  0  0  0  0  0  0  0  0
    7.0783  -13.2321   25.6071 C   0  0  0  0  0  0  0  0  0  0  0  0
    7.2292  -12.0830   26.3742 C   0  0  0  0  0  0  0  0  0  0  0  0
    6.2057  -12.0409   27.2452 N   0  0  0  0  0  0  0  0  0  0  0  0
    5.4174  -13.1115   27.0611 C   0  0  0  0  0  0  0  0  0  0  0  0
    5.9686  -13.8202   26.0602 N   0  0  0  0  0  0  0  0  0  0  0  0
    8.6521  -15.6181   25.7873 C   0  0  0  0  0  0  0  0  0  0  0  0
    8.9196  -15.7193   27.0083 O   0  0  0  0  0  0  0  0  0  0  0  0
    7.8941  -16.5779   25.1649 O   0  0  0  0  0  0  0  0  0  0  0  0
  2  1  1  6
  2  3  1  0
  3  4  1  0
  4  5  2  0
  4  8  1  0
  6  7  2  0
  6  2  1  0
  9  6  1  0
 10  9  1  0
 10 11  1  6
 11 12  1  0
 12 13  1  0
 13 14  1  0
 14 15  1  0
 16 17  2  0
 16 10  1  0
 18 16  1  0
 19 18  1  0
 19 20  1  6
 20 21  1  0
 21 25  1  0
 21 22  2  0
 22 23  1  0
 24 23  1  0
 25 24  2  0
 26 28  1  0
 26 19  1  0
 27 26  2  0
M  END
$$$$
