DKH.pdb
     RDKit          3D

 28 28  0  0  1  0  0  0  0  0999 V2000
   12.8257  -16.3349   11.9470 N   0  0  0  0  0  0  0  0  0  0  0  0
   13.7188  -16.0447   13.0228 C   0  0  1  0  0  0  0  0  0  0  0  0
   14.6135  -14.8804   12.7364 C   0  0  0  0  0  0  0  0  0  0  0  0
   15.5308  -15.1854   11.6145 C   0  0  0  0  0  0  0  0  0  0  0  0
   15.0834  -15.8280   10.6353 O   0  0  0  0  0  0  0  0  0  0  0  0
   12.9913  -15.7487   14.2988 C   0  0  0  0  0  0  0  0  0  0  0  0
   13.5988  -15.1207   15.1890 O   0  0  0  0  0  0  0  0  0  0  0  0
   16.8541  -14.7741   11.6384 O   0  0  0  0  0  0  0  0  0  0  0  0
   11.6600  -16.1473   14.5323 N   0  0  0  0  0  0  0  0  0  0  0  0
   10.9826  -15.8428   15.7736 C   0  0  1  0  0  0  0  0  0  0  0  0
    9.4831  -16.1251   15.6578 C   0  0  0  0  0  0  0  0  0  0  0  0
    8.9323  -15.1460   14.6530 C   0  0  0  0  0  0  0  0  0  0  0  0
    7.4664  -15.3549   14.3896 C   0  0  0  0  0  0  0  0  0  0  0  0
    7.0613  -14.3854   13.2913 C   0  0  0  0  0  0  0  0  0  0  0  0
    5.6305  -14.5713   13.0757 N   0  0  0  0  0  0  0  0  0  0  0  0
   11.5620  -16.6603   16.8488 C   0  0  0  0  0  0  0  0  0  0  0  0
   12.1769  -17.7228   16.5481 O   0  0  0  0  0  0  0  0  0  0  0  0
   11.4521  -16.2904   18.2346 N   0  0  0  0  0  0  0  0  0  0  0  0
   11.9759  -17.1752   19.2198 C   0  0  1  0  0  0  0  0  0  0  0  0
   13.4853  -17.2862   19.1745 C   0  0  0  0  0  0  0  0  0  0  0  0
   14.1328  -15.9620   18.9980 C   0  0  0  0  0  0  0  0  0  0  0  0
   14.1102  -14.8955   19.8890 C   0  0  0  0  0  0  0  0  0  0  0  0
   14.8192  -13.8940   19.3391 N   0  0  0  0  0  0  0  0  0  0  0  0
   15.2871  -14.2818   18.1423 C   0  0  0  0  0  0  0  0  0  0  0  0
   14.8566  -15.5422   17.9575 N   0  0  0  0  0  0  0  0  0  0  0  0
   11.6317  -16.6836   20.5769 C   0  0  0  0  0  0  0  0  0  0  0  0
   11.9979  -17.3641   21.5645 O   0  0  0  0  0  0  0  0  0  0  0  0
   10.9321  -15.5179   20.7632 O   0  0  0  0  0  0  0  0  0  0  0  0
  2  1  1  6
  2  3  1  0
  3  4  1  0
  4  5  2  0
  4  8  1  0
  6  7  2  0
  6  2  1  0
  9  6  1  0
 10  9  1  0
 10 11  1  6
 11 12  1  0
 12 13  1  0
 13 14  1  0
 14 15  1  0
 16 17  2  0
 16 10  1  0
 18 16  1  0
 19 18  1  0
 19 20  1  1
 20 21  1  0
 21 25  1  0
 21 22  2  0
 22 23  1  0
 24 23  1  0
 25 24  2  0
 26 28  1  0
 26 19  1  0
 27 26  2  0
M  END
$$$$
