DKH.pdb
     RDKit          3D

 28 28  0  0  1  0  0  0  0  0999 V2000
   11.5531  -20.1477   16.6015 N   0  0  0  0  0  0  0  0  0  0  0  0
   12.6788  -19.4065   17.0734 C   0  0  1  0  0  0  0  0  0  0  0  0
   13.4215  -18.7159   15.9735 C   0  0  0  0  0  0  0  0  0  0  0  0
   13.8874  -19.6906   14.9607 C   0  0  0  0  0  0  0  0  0  0  0  0
   14.9517  -19.4480   14.3439 O   0  0  0  0  0  0  0  0  0  0  0  0
   12.2902  -18.3636   18.0766 C   0  0  0  0  0  0  0  0  0  0  0  0
   13.1993  -17.7895   18.7090 O   0  0  0  0  0  0  0  0  0  0  0  0
   13.1700  -20.8462   14.6945 O   0  0  0  0  0  0  0  0  0  0  0  0
   10.9510  -18.0078   18.3327 N   0  0  0  0  0  0  0  0  0  0  0  0
   10.6080  -16.9824   19.2937 C   0  0  1  0  0  0  0  0  0  0  0  0
    9.3063  -16.2813   18.8990 C   0  0  0  0  0  0  0  0  0  0  0  0
    9.0531  -15.2179   19.9365 C   0  0  0  0  0  0  0  0  0  0  0  0
    7.7704  -14.4709   19.6939 C   0  0  0  0  0  0  0  0  0  0  0  0
    7.9185  -13.0987   20.3307 C   0  0  0  0  0  0  0  0  0  0  0  0
    6.6874  -12.3698   20.0453 N   0  0  0  0  0  0  0  0  0  0  0  0
   10.4598  -17.5987   20.6197 C   0  0  0  0  0  0  0  0  0  0  0  0
   10.1843  -18.8298   20.6966 O   0  0  0  0  0  0  0  0  0  0  0  0
   10.6182  -16.8457   21.8351 N   0  0  0  0  0  0  0  0  0  0  0  0
   11.3056  -17.4494   22.9262 C   0  0  1  0  0  0  0  0  0  0  0  0
   12.7049  -17.9030   22.5674 C   0  0  0  0  0  0  0  0  0  0  0  0
   13.3682  -18.5996   23.6982 C   0  0  0  0  0  0  0  0  0  0  0  0
   12.7486  -19.2142   24.7798 C   0  0  0  0  0  0  0  0  0  0  0  0
   13.7153  -19.7195   25.5661 N   0  0  0  0  0  0  0  0  0  0  0  0
   14.9153  -19.4507   25.0284 C   0  0  0  0  0  0  0  0  0  0  0  0
   14.6780  -18.7693   23.8937 N   0  0  0  0  0  0  0  0  0  0  0  0
   11.4519  -16.4742   24.0351 C   0  0  0  0  0  0  0  0  0  0  0  0
   12.0241  -16.8518   25.0851 O   0  0  0  0  0  0  0  0  0  0  0  0
   10.9792  -15.1902   23.9301 O   0  0  0  0  0  0  0  0  0  0  0  0
  2  1  1  6
  2  3  1  0
  3  4  1  0
  4  5  2  0
  4  8  1  0
  6  7  2  0
  6  2  1  0
  9  6  1  0
 10  9  1  0
 10 11  1  6
 11 12  1  0
 12 13  1  0
 13 14  1  0
 14 15  1  0
 16 17  2  0
 16 10  1  0
 18 16  1  0
 19 18  1  0
 19 20  1  6
 20 21  1  0
 21 25  1  0
 21 22  2  0
 22 23  1  0
 24 23  1  0
 25 24  2  0
 26 28  1  0
 26 19  1  0
 27 26  2  0
M  END
$$$$
