DKH.pdb
     RDKit          3D

 28 28  0  0  1  0  0  0  0  0999 V2000
   11.8356  -17.2996   18.1106 N   0  0  0  0  0  0  0  0  0  0  0  0
   12.5298  -17.5480   19.3335 C   0  0  1  0  0  0  0  0  0  0  0  0
   13.9967  -17.2715   19.2348 C   0  0  0  0  0  0  0  0  0  0  0  0
   14.5924  -17.9952   18.0884 C   0  0  0  0  0  0  0  0  0  0  0  0
   14.8617  -19.2121   18.2253 O   0  0  0  0  0  0  0  0  0  0  0  0
   11.9933  -16.7270   20.4663 C   0  0  0  0  0  0  0  0  0  0  0  0
   12.8065  -16.2541   21.2854 O   0  0  0  0  0  0  0  0  0  0  0  0
   14.8495  -17.3503   16.8889 O   0  0  0  0  0  0  0  0  0  0  0  0
   10.6191  -16.4695   20.6427 N   0  0  0  0  0  0  0  0  0  0  0  0
   10.1212  -15.7662   21.8045 C   0  0  1  0  0  0  0  0  0  0  0  0
    8.7460  -15.1570   21.5228 C   0  0  0  0  0  0  0  0  0  0  0  0
    8.9274  -14.1775   20.3918 C   0  0  0  0  0  0  0  0  0  0  0  0
    7.6289  -13.5590   19.9521 C   0  0  0  0  0  0  0  0  0  0  0  0
    7.9504  -12.5744   18.8397 C   0  0  0  0  0  0  0  0  0  0  0  0
    6.7031  -11.8932   18.5103 N   0  0  0  0  0  0  0  0  0  0  0  0
   10.0286  -16.7062   22.9305 C   0  0  0  0  0  0  0  0  0  0  0  0
    9.5020  -17.8396   22.7417 O   0  0  0  0  0  0  0  0  0  0  0  0
   10.5184  -16.3784   24.2427 N   0  0  0  0  0  0  0  0  0  0  0  0
   10.4382  -17.3650   25.2663 C   0  0  1  0  0  0  0  0  0  0  0  0
   11.7248  -17.5111   26.0510 C   0  0  0  0  0  0  0  0  0  0  0  0
   12.7790  -18.1978   25.2631 C   0  0  0  0  0  0  0  0  0  0  0  0
   12.6892  -18.6294   23.9450 C   0  0  0  0  0  0  0  0  0  0  0  0
   13.8650  -19.1977   23.6246 N   0  0  0  0  0  0  0  0  0  0  0  0
   14.6908  -19.1434   24.6813 C   0  0  0  0  0  0  0  0  0  0  0  0
   14.0080  -18.5313   25.6646 N   0  0  0  0  0  0  0  0  0  0  0  0
    9.3883  -16.9939   26.2470 C   0  0  0  0  0  0  0  0  0  0  0  0
    8.7700  -15.9166   26.0745 O   0  0  0  0  0  0  0  0  0  0  0  0
    9.0899  -17.7969   27.3190 O   0  0  0  0  0  0  0  0  0  0  0  0
  2  1  1  6
  2  3  1  0
  3  4  1  0
  4  5  2  0
  4  8  1  0
  6  7  2  0
  6  2  1  0
  9  6  1  0
 10  9  1  0
 10 11  1  6
 11 12  1  0
 12 13  1  0
 13 14  1  0
 14 15  1  0
 16 17  2  0
 16 10  1  0
 18 16  1  0
 19 18  1  0
 19 20  1  1
 20 21  1  0
 21 25  1  0
 21 22  2  0
 22 23  1  0
 24 23  1  0
 25 24  2  0
 26 28  1  0
 26 19  1  0
 27 26  2  0
M  END
$$$$
