DKH.pdb
     RDKit          3D

 28 28  0  0  1  0  0  0  0  0999 V2000
    9.6679  -18.8772   20.5823 N   0  0  0  0  0  0  0  0  0  0  0  0
   10.7822  -18.0524   20.9246 C   0  0  1  0  0  0  0  0  0  0  0  0
   11.5126  -17.5364   19.7253 C   0  0  0  0  0  0  0  0  0  0  0  0
   12.2191  -18.6347   19.0269 C   0  0  0  0  0  0  0  0  0  0  0  0
   11.7663  -19.7990   19.1337 O   0  0  0  0  0  0  0  0  0  0  0  0
   10.3783  -16.8678   21.7484 C   0  0  0  0  0  0  0  0  0  0  0  0
   11.2792  -16.1387   22.2098 O   0  0  0  0  0  0  0  0  0  0  0  0
   13.3547  -18.3901   18.2710 O   0  0  0  0  0  0  0  0  0  0  0  0
    9.0336  -16.5464   22.0209 N   0  0  0  0  0  0  0  0  0  0  0  0
    8.6756  -15.4107   22.8422 C   0  0  1  0  0  0  0  0  0  0  0  0
    7.6650  -14.5159   22.1213 C   0  0  0  0  0  0  0  0  0  0  0  0
    8.2495  -14.2020   20.7680 C   0  0  0  0  0  0  0  0  0  0  0  0
    7.3328  -13.3566   19.9271 C   0  0  0  0  0  0  0  0  0  0  0  0
    7.9725  -13.2228   18.5548 C   0  0  0  0  0  0  0  0  0  0  0  0
    7.0861  -12.3793   17.7604 N   0  0  0  0  0  0  0  0  0  0  0  0
    8.1006  -15.8948   24.1051 C   0  0  0  0  0  0  0  0  0  0  0  0
    6.9031  -16.2987   24.1189 O   0  0  0  0  0  0  0  0  0  0  0  0
    8.8571  -15.9242   25.3283 N   0  0  0  0  0  0  0  0  0  0  0  0
    8.5766  -16.9467   26.2788 C   0  0  1  0  0  0  0  0  0  0  0  0
    8.7504  -18.3420   25.7171 C   0  0  0  0  0  0  0  0  0  0  0  0
    7.5187  -18.8252   25.0437 C   0  0  0  0  0  0  0  0  0  0  0  0
    6.3313  -18.1239   24.8704 C   0  0  0  0  0  0  0  0  0  0  0  0
    5.4786  -18.9288   24.2124 N   0  0  0  0  0  0  0  0  0  0  0  0
    6.0755  -20.1050   23.9637 C   0  0  0  0  0  0  0  0  0  0  0  0
    7.3145  -20.0175   24.4786 N   0  0  0  0  0  0  0  0  0  0  0  0
    9.5074  -16.8385   27.4293 C   0  0  0  0  0  0  0  0  0  0  0  0
   10.4832  -16.0570   27.3310 O   0  0  0  0  0  0  0  0  0  0  0  0
    9.3194  -17.5669   28.5770 O   0  0  0  0  0  0  0  0  0  0  0  0
  2  1  1  6
  2  3  1  0
  3  4  1  0
  4  5  2  0
  4  8  1  0
  6  7  2  0
  6  2  1  0
  9  6  1  0
 10  9  1  0
 10 11  1  6
 11 12  1  0
 12 13  1  0
 13 14  1  0
 14 15  1  0
 16 17  2  0
 16 10  1  0
 18 16  1  0
 19 18  1  0
 19 20  1  6
 20 21  1  0
 21 25  1  0
 21 22  2  0
 22 23  1  0
 24 23  1  0
 25 24  2  0
 26 28  1  0
 26 19  1  0
 27 26  2  0
M  END
$$$$
