DKH.pdb
     RDKit          3D

 28 28  0  0  1  0  0  0  0  0999 V2000
    9.1921  -19.5272   17.7892 N   0  0  0  0  0  0  0  0  0  0  0  0
    8.5647  -18.2855   18.1114 C   0  0  1  0  0  0  0  0  0  0  0  0
    7.2670  -18.0875   17.3936 C   0  0  0  0  0  0  0  0  0  0  0  0
    7.4825  -18.0023   15.9310 C   0  0  0  0  0  0  0  0  0  0  0  0
    8.6398  -18.1889   15.4862 O   0  0  0  0  0  0  0  0  0  0  0  0
    8.2911  -18.1530   19.5786 C   0  0  0  0  0  0  0  0  0  0  0  0
    7.3049  -17.4765   19.9332 O   0  0  0  0  0  0  0  0  0  0  0  0
    6.4353  -17.7234   15.0671 O   0  0  0  0  0  0  0  0  0  0  0  0
    9.0956  -18.7561   20.5658 N   0  0  0  0  0  0  0  0  0  0  0  0
    8.7421  -18.7077   21.9676 C   0  0  1  0  0  0  0  0  0  0  0  0
    9.4365  -19.8299   22.7422 C   0  0  0  0  0  0  0  0  0  0  0  0
    8.9754  -19.7208   24.1730 C   0  0  0  0  0  0  0  0  0  0  0  0
    9.5930  -20.7683   25.0582 C   0  0  0  0  0  0  0  0  0  0  0  0
    8.9498  -20.6385   26.4292 C   0  0  0  0  0  0  0  0  0  0  0  0
    9.5575  -21.6602   27.2750 N   0  0  0  0  0  0  0  0  0  0  0  0
    9.1386  -17.4035   22.5171 C   0  0  0  0  0  0  0  0  0  0  0  0
   10.3404  -17.0292   22.4021 O   0  0  0  0  0  0  0  0  0  0  0  0
    8.2026  -16.5374   23.1826 N   0  0  0  0  0  0  0  0  0  0  0  0
    8.6696  -15.2927   23.6928 C   0  0  1  0  0  0  0  0  0  0  0  0
    7.7690  -14.1296   23.3342 C   0  0  0  0  0  0  0  0  0  0  0  0
    7.9304  -13.7211   21.9161 C   0  0  0  0  0  0  0  0  0  0  0  0
    8.8568  -14.2142   21.0049 C   0  0  0  0  0  0  0  0  0  0  0  0
    8.6578  -13.5739   19.8394 N   0  0  0  0  0  0  0  0  0  0  0  0
    7.6481  -12.7001   19.9757 C   0  0  0  0  0  0  0  0  0  0  0  0
    7.2226  -12.8082   21.2466 N   0  0  0  0  0  0  0  0  0  0  0  0
    8.7233  -15.3406   25.1750 C   0  0  0  0  0  0  0  0  0  0  0  0
    9.1779  -14.3432   25.7843 O   0  0  0  0  0  0  0  0  0  0  0  0
    8.2912  -16.4390   25.8748 O   0  0  0  0  0  0  0  0  0  0  0  0
  2  1  1  1
  2  3  1  0
  3  4  1  0
  4  5  2  0
  4  8  1  0
  6  7  2  0
  6  2  1  0
  9  6  1  0
 10  9  1  0
 10 11  1  1
 11 12  1  0
 12 13  1  0
 13 14  1  0
 14 15  1  0
 16 17  2  0
 16 10  1  0
 18 16  1  0
 19 18  1  0
 19 20  1  1
 20 21  1  0
 21 25  1  0
 21 22  2  0
 22 23  1  0
 24 23  1  0
 25 24  2  0
 26 28  1  0
 26 19  1  0
 27 26  2  0
M  END
$$$$
