DKH.pdb
     RDKit          3D

 28 28  0  0  1  0  0  0  0  0999 V2000
   11.5107  -17.9775   19.9723 N   0  0  0  0  0  0  0  0  0  0  0  0
   11.9792  -17.6847   21.2891 C   0  0  1  0  0  0  0  0  0  0  0  0
   13.4000  -17.2167   21.3089 C   0  0  0  0  0  0  0  0  0  0  0  0
   14.2883  -18.2043   20.6543 C   0  0  0  0  0  0  0  0  0  0  0  0
   13.8906  -19.3888   20.5509 O   0  0  0  0  0  0  0  0  0  0  0  0
   11.1511  -16.6345   21.9646 C   0  0  0  0  0  0  0  0  0  0  0  0
   11.6463  -16.0326   22.9384 O   0  0  0  0  0  0  0  0  0  0  0  0
   15.5317  -17.8364   20.1647 O   0  0  0  0  0  0  0  0  0  0  0  0
    9.8466  -16.3019   21.5483 N   0  0  0  0  0  0  0  0  0  0  0  0
    9.0687  -15.2875   22.2253 C   0  0  1  0  0  0  0  0  0  0  0  0
    7.9539  -14.7621   21.3182 C   0  0  0  0  0  0  0  0  0  0  0  0
    8.6210  -14.2071   20.0859 C   0  0  0  0  0  0  0  0  0  0  0  0
    7.6306  -13.6957   19.0762 C   0  0  0  0  0  0  0  0  0  0  0  0
    8.4210  -13.2176   17.8690 C   0  0  0  0  0  0  0  0  0  0  0  0
    7.4497  -12.7026   16.9100 N   0  0  0  0  0  0  0  0  0  0  0  0
    8.4877  -15.8642   23.4459 C   0  0  0  0  0  0  0  0  0  0  0  0
    8.2334  -17.1019   23.4787 O   0  0  0  0  0  0  0  0  0  0  0  0
    8.1983  -15.0653   24.6066 N   0  0  0  0  0  0  0  0  0  0  0  0
    7.6115  -15.6970   25.7399 C   0  0  1  0  0  0  0  0  0  0  0  0
    7.4984  -14.7785   26.9382 C   0  0  0  0  0  0  0  0  0  0  0  0
    8.7930  -14.6359   27.6507 C   0  0  0  0  0  0  0  0  0  0  0  0
    9.9598  -15.3533   27.4150 C   0  0  0  0  0  0  0  0  0  0  0  0
   10.8888  -14.9101   28.2802 N   0  0  0  0  0  0  0  0  0  0  0  0
   10.3596  -13.9462   29.0498 C   0  0  0  0  0  0  0  0  0  0  0  0
    9.0850  -13.7977   28.6481 N   0  0  0  0  0  0  0  0  0  0  0  0
    6.2318  -16.1374   25.4168 C   0  0  0  0  0  0  0  0  0  0  0  0
    5.6142  -16.8228   26.2661 O   0  0  0  0  0  0  0  0  0  0  0  0
    5.6338  -15.8119   24.2255 O   0  0  0  0  0  0  0  0  0  0  0  0
  2  1  1  6
  2  3  1  0
  3  4  1  0
  4  5  2  0
  4  8  1  0
  6  7  2  0
  6  2  1  0
  9  6  1  0
 10  9  1  0
 10 11  1  6
 11 12  1  0
 12 13  1  0
 13 14  1  0
 14 15  1  0
 16 17  2  0
 16 10  1  0
 18 16  1  0
 19 18  1  0
 19 20  1  1
 20 21  1  0
 21 25  1  0
 21 22  2  0
 22 23  1  0
 24 23  1  0
 25 24  2  0
 26 28  1  0
 26 19  1  0
 27 26  2  0
M  END
$$$$
