DKH.pdb
     RDKit          3D

 28 28  0  0  1  0  0  0  0  0999 V2000
   13.8587  -16.5987   18.8529 N   0  0  0  0  0  0  0  0  0  0  0  0
   13.9365  -15.5409   19.8092 C   0  0  1  0  0  0  0  0  0  0  0  0
   14.2030  -14.2094   19.1814 C   0  0  0  0  0  0  0  0  0  0  0  0
   15.4899  -14.2212   18.4490 C   0  0  0  0  0  0  0  0  0  0  0  0
   16.2500  -15.2078   18.5933 O   0  0  0  0  0  0  0  0  0  0  0  0
   12.6807  -15.4136   20.6165 C   0  0  0  0  0  0  0  0  0  0  0  0
   12.5786  -14.4439   21.3945 O   0  0  0  0  0  0  0  0  0  0  0  0
   15.8535  -13.1705   17.6214 O   0  0  0  0  0  0  0  0  0  0  0  0
   11.6192  -16.3366   20.5334 N   0  0  0  0  0  0  0  0  0  0  0  0
   10.4363  -16.2098   21.3562 C   0  0  1  0  0  0  0  0  0  0  0  0
    9.3295  -17.1451   20.8645 C   0  0  0  0  0  0  0  0  0  0  0  0
    9.2687  -16.9970   19.3659 C   0  0  0  0  0  0  0  0  0  0  0  0
    8.2123  -17.8683   18.7438 C   0  0  0  0  0  0  0  0  0  0  0  0
    8.2233  -17.5953   17.2486 C   0  0  0  0  0  0  0  0  0  0  0  0
    7.1867  -18.4376   16.6617 N   0  0  0  0  0  0  0  0  0  0  0  0
   10.7826  -16.5355   22.7469 C   0  0  0  0  0  0  0  0  0  0  0  0
   11.9729  -16.8587   23.0231 O   0  0  0  0  0  0  0  0  0  0  0  0
    9.8100  -16.4986   23.8061 N   0  0  0  0  0  0  0  0  0  0  0  0
   10.2473  -16.1753   25.1221 C   0  0  1  0  0  0  0  0  0  0  0  0
    9.6551  -14.8828   25.6429 C   0  0  0  0  0  0  0  0  0  0  0  0
   10.0200  -14.6385   27.0611 C   0  0  0  0  0  0  0  0  0  0  0  0
   10.7764  -15.4650   27.8835 C   0  0  0  0  0  0  0  0  0  0  0  0
   10.8658  -14.8678   29.0849 N   0  0  0  0  0  0  0  0  0  0  0  0
   10.1999  -13.7028   29.0559 C   0  0  0  0  0  0  0  0  0  0  0  0
    9.6947  -13.5859   27.8153 N   0  0  0  0  0  0  0  0  0  0  0  0
    9.8323  -17.2391   26.0698 C   0  0  0  0  0  0  0  0  0  0  0  0
    8.7155  -17.7830   25.8984 O   0  0  0  0  0  0  0  0  0  0  0  0
   10.6373  -17.6286   27.1106 O   0  0  0  0  0  0  0  0  0  0  0  0
  2  1  1  6
  2  3  1  0
  3  4  1  0
  4  5  2  0
  4  8  1  0
  6  7  2  0
  6  2  1  0
  9  6  1  0
 10  9  1  0
 10 11  1  6
 11 12  1  0
 12 13  1  0
 13 14  1  0
 14 15  1  0
 16 17  2  0
 16 10  1  0
 18 16  1  0
 19 18  1  0
 19 20  1  1
 20 21  1  0
 21 25  1  0
 21 22  2  0
 22 23  1  0
 24 23  1  0
 25 24  2  0
 26 28  1  0
 26 19  1  0
 27 26  2  0
M  END
$$$$
