DKH.pdb
     RDKit          3D

 28 28  0  0  1  0  0  0  0  0999 V2000
   11.7093  -14.4245   18.6469 N   0  0  0  0  0  0  0  0  0  0  0  0
   12.2702  -15.2339   19.6810 C   0  0  1  0  0  0  0  0  0  0  0  0
   13.4611  -14.6030   20.3304 C   0  0  0  0  0  0  0  0  0  0  0  0
   14.5862  -14.4946   19.3736 C   0  0  0  0  0  0  0  0  0  0  0  0
   14.5339  -15.1605   18.3125 O   0  0  0  0  0  0  0  0  0  0  0  0
   11.2786  -15.5395   20.7620 C   0  0  0  0  0  0  0  0  0  0  0  0
   10.5253  -14.6217   21.1443 O   0  0  0  0  0  0  0  0  0  0  0  0
   15.6751  -13.6786   19.6369 O   0  0  0  0  0  0  0  0  0  0  0  0
   11.1633  -16.8106   21.3593 N   0  0  0  0  0  0  0  0  0  0  0  0
   10.1011  -17.1179   22.2919 C   0  0  1  0  0  0  0  0  0  0  0  0
    9.4447  -18.4563   21.9461 C   0  0  0  0  0  0  0  0  0  0  0  0
    8.6123  -18.2263   20.7109 C   0  0  0  0  0  0  0  0  0  0  0  0
    8.1129  -19.5096   20.1062 C   0  0  0  0  0  0  0  0  0  0  0  0
    7.1731  -19.1391   18.9705 C   0  0  0  0  0  0  0  0  0  0  0  0
    6.7232  -20.3920   18.3739 N   0  0  0  0  0  0  0  0  0  0  0  0
   10.6577  -17.1724   23.6511 C   0  0  0  0  0  0  0  0  0  0  0  0
   11.8821  -17.4471   23.8020 O   0  0  0  0  0  0  0  0  0  0  0  0
    9.8535  -16.9229   24.8175 N   0  0  0  0  0  0  0  0  0  0  0  0
   10.4358  -17.1203   26.1018 C   0  0  1  0  0  0  0  0  0  0  0  0
    9.5772  -16.5889   27.2301 C   0  0  0  0  0  0  0  0  0  0  0  0
   10.0248  -15.2475   27.6820 C   0  0  0  0  0  0  0  0  0  0  0  0
   11.1693  -14.5693   27.2799 C   0  0  0  0  0  0  0  0  0  0  0  0
   11.1918  -13.3927   27.9304 N   0  0  0  0  0  0  0  0  0  0  0  0
   10.1131  -13.2996   28.7238 C   0  0  0  0  0  0  0  0  0  0  0  0
    9.4194  -14.4390   28.5553 N   0  0  0  0  0  0  0  0  0  0  0  0
   10.6165  -18.5705   26.3590 C   0  0  0  0  0  0  0  0  0  0  0  0
    9.9648  -19.3823   25.6599 O   0  0  0  0  0  0  0  0  0  0  0  0
   11.4698  -19.0271   27.3319 O   0  0  0  0  0  0  0  0  0  0  0  0
  2  1  1  6
  2  3  1  0
  3  4  1  0
  4  5  2  0
  4  8  1  0
  6  7  2  0
  6  2  1  0
  9  6  1  0
 10  9  1  0
 10 11  1  6
 11 12  1  0
 12 13  1  0
 13 14  1  0
 14 15  1  0
 16 17  2  0
 16 10  1  0
 18 16  1  0
 19 18  1  0
 19 20  1  1
 20 21  1  0
 21 25  1  0
 21 22  2  0
 22 23  1  0
 24 23  1  0
 25 24  2  0
 26 28  1  0
 26 19  1  0
 27 26  2  0
M  END
$$$$
