DKH.pdb
     RDKit          3D

 28 28  0  0  1  0  0  0  0  0999 V2000
    9.8802  -17.8685   15.6693 N   0  0  0  0  0  0  0  0  0  0  0  0
    9.4382  -18.3483   16.9396 C   0  0  1  0  0  0  0  0  0  0  0  0
   10.0206  -19.6807   17.2915 C   0  0  0  0  0  0  0  0  0  0  0  0
    9.5507  -20.7248   16.3524 C   0  0  0  0  0  0  0  0  0  0  0  0
    8.4161  -20.5954   15.8347 O   0  0  0  0  0  0  0  0  0  0  0  0
    9.7765  -17.4025   18.0514 C   0  0  0  0  0  0  0  0  0  0  0  0
   10.8563  -16.7815   17.9859 O   0  0  0  0  0  0  0  0  0  0  0  0
   10.3401  -21.8223   16.0473 O   0  0  0  0  0  0  0  0  0  0  0  0
    8.9318  -17.1878   19.1587 N   0  0  0  0  0  0  0  0  0  0  0  0
    9.2753  -16.2504   20.2055 C   0  0  1  0  0  0  0  0  0  0  0  0
    8.0472  -15.9057   21.0507 C   0  0  0  0  0  0  0  0  0  0  0  0
    8.5255  -15.0193   22.1719 C   0  0  0  0  0  0  0  0  0  0  0  0
    7.4011  -14.5474   23.0523 C   0  0  0  0  0  0  0  0  0  0  0  0
    8.0033  -13.6262   24.1007 C   0  0  0  0  0  0  0  0  0  0  0  0
    6.9014  -13.1742   24.9432 N   0  0  0  0  0  0  0  0  0  0  0  0
   10.3159  -16.8435   21.0573 C   0  0  0  0  0  0  0  0  0  0  0  0
   10.2123  -18.0561   21.3980 O   0  0  0  0  0  0  0  0  0  0  0  0
   11.4506  -16.0880   21.5168 N   0  0  0  0  0  0  0  0  0  0  0  0
   12.4542  -16.7575   22.2731 C   0  0  1  0  0  0  0  0  0  0  0  0
   13.7354  -15.9599   22.3953 C   0  0  0  0  0  0  0  0  0  0  0  0
   14.7584  -16.6752   23.1990 C   0  0  0  0  0  0  0  0  0  0  0  0
   14.5527  -17.3725   24.3835 C   0  0  0  0  0  0  0  0  0  0  0  0
   15.7413  -17.8645   24.7747 N   0  0  0  0  0  0  0  0  0  0  0  0
   16.6859  -17.5085   23.8901 C   0  0  0  0  0  0  0  0  0  0  0  0
   16.0638  -16.7864   22.9417 N   0  0  0  0  0  0  0  0  0  0  0  0
   11.9731  -16.9935   23.6569 C   0  0  0  0  0  0  0  0  0  0  0  0
   11.1311  -16.1971   24.1357 O   0  0  0  0  0  0  0  0  0  0  0  0
   12.4274  -18.0500   24.4055 O   0  0  0  0  0  0  0  0  0  0  0  0
  2  1  1  6
  2  3  1  0
  3  4  1  0
  4  5  2  0
  4  8  1  0
  6  7  2  0
  6  2  1  0
  9  6  1  0
 10  9  1  0
 10 11  1  1
 11 12  1  0
 12 13  1  0
 13 14  1  0
 14 15  1  0
 16 17  2  0
 16 10  1  0
 18 16  1  0
 19 18  1  0
 19 20  1  1
 20 21  1  0
 21 25  1  0
 21 22  2  0
 22 23  1  0
 24 23  1  0
 25 24  2  0
 26 28  1  0
 26 19  1  0
 27 26  2  0
M  END
$$$$
