DKH.pdb
     RDKit          3D

 28 28  0  0  1  0  0  0  0  0999 V2000
    9.5161  -18.7258   20.6495 N   0  0  0  0  0  0  0  0  0  0  0  0
   10.6432  -17.8848   20.8976 C   0  0  1  0  0  0  0  0  0  0  0  0
   11.3901  -17.5323   19.6501 C   0  0  0  0  0  0  0  0  0  0  0  0
   11.9188  -18.7489   18.9920 C   0  0  0  0  0  0  0  0  0  0  0  0
   12.8211  -19.3976   19.5727 O   0  0  0  0  0  0  0  0  0  0  0  0
   10.2561  -16.6014   21.5670 C   0  0  0  0  0  0  0  0  0  0  0  0
   11.1631  -15.8013   21.8720 O   0  0  0  0  0  0  0  0  0  0  0  0
   11.4335  -19.1678   17.7633 O   0  0  0  0  0  0  0  0  0  0  0  0
    8.9204  -16.2642   21.8636 N   0  0  0  0  0  0  0  0  0  0  0  0
    8.5836  -15.0517   22.5769 C   0  0  1  0  0  0  0  0  0  0  0  0
    7.5450  -14.2367   21.8032 C   0  0  0  0  0  0  0  0  0  0  0  0
    8.0276  -14.1583   20.3775 C   0  0  0  0  0  0  0  0  0  0  0  0
    7.0984  -13.3678   19.4979 C   0  0  0  0  0  0  0  0  0  0  0  0
    7.7355  -13.2911   18.1201 C   0  0  0  0  0  0  0  0  0  0  0  0
    6.8255  -12.5194   17.2806 N   0  0  0  0  0  0  0  0  0  0  0  0
    8.0531  -15.4063   23.9009 C   0  0  0  0  0  0  0  0  0  0  0  0
    6.8370  -15.7340   24.0068 O   0  0  0  0  0  0  0  0  0  0  0  0
    8.8737  -15.3928   25.0824 N   0  0  0  0  0  0  0  0  0  0  0  0
    8.8142  -16.5075   25.9663 C   0  0  1  0  0  0  0  0  0  0  0  0
    8.9802  -17.8354   25.2580 C   0  0  0  0  0  0  0  0  0  0  0  0
    8.0517  -18.8654   25.7877 C   0  0  0  0  0  0  0  0  0  0  0  0
    7.1518  -18.7188   26.8367 C   0  0  0  0  0  0  0  0  0  0  0  0
    6.5109  -19.8913   26.9866 N   0  0  0  0  0  0  0  0  0  0  0  0
    6.9666  -20.7694   26.0794 C   0  0  0  0  0  0  0  0  0  0  0  0
    7.9023  -20.1223   25.3627 N   0  0  0  0  0  0  0  0  0  0  0  0
    9.9106  -16.4234   26.9627 C   0  0  0  0  0  0  0  0  0  0  0  0
    9.6098  -16.4583   28.1796 O   0  0  0  0  0  0  0  0  0  0  0  0
   11.2233  -16.3101   26.5792 O   0  0  0  0  0  0  0  0  0  0  0  0
  2  1  1  6
  2  3  1  0
  3  4  1  0
  4  5  2  0
  4  8  1  0
  6  7  2  0
  6  2  1  0
  9  6  1  0
 10  9  1  0
 10 11  1  6
 11 12  1  0
 12 13  1  0
 13 14  1  0
 14 15  1  0
 16 17  2  0
 16 10  1  0
 18 16  1  0
 19 18  1  0
 19 20  1  6
 20 21  1  0
 21 25  1  0
 21 22  2  0
 22 23  1  0
 24 23  1  0
 25 24  2  0
 26 28  1  0
 26 19  1  0
 27 26  2  0
M  END
$$$$
