DKH.pdb
     RDKit          3D

 28 28  0  0  1  0  0  0  0  0999 V2000
   12.0534  -18.6455   17.2498 N   0  0  0  0  0  0  0  0  0  0  0  0
   12.3621  -18.5264   18.6390 C   0  0  1  0  0  0  0  0  0  0  0  0
   13.3295  -17.4219   18.9260 C   0  0  0  0  0  0  0  0  0  0  0  0
   14.6455  -17.7012   18.3069 C   0  0  0  0  0  0  0  0  0  0  0  0
   15.0719  -16.9134   17.4297 O   0  0  0  0  0  0  0  0  0  0  0  0
   11.1409  -18.2814   19.4718 C   0  0  0  0  0  0  0  0  0  0  0  0
   10.2808  -17.4910   19.0343 O   0  0  0  0  0  0  0  0  0  0  0  0
   15.3946  -18.8051   18.6825 O   0  0  0  0  0  0  0  0  0  0  0  0
   10.9261  -18.9022   20.7184 N   0  0  0  0  0  0  0  0  0  0  0  0
    9.6574  -18.8054   21.4065 C   0  0  1  0  0  0  0  0  0  0  0  0
    9.3829  -20.0716   22.2209 C   0  0  0  0  0  0  0  0  0  0  0  0
    7.9870  -19.9393   22.7736 C   0  0  0  0  0  0  0  0  0  0  0  0
    7.5763  -21.1329   23.5914 C   0  0  0  0  0  0  0  0  0  0  0  0
    6.1097  -20.9539   23.9483 C   0  0  0  0  0  0  0  0  0  0  0  0
    5.7293  -22.1126   24.7490 N   0  0  0  0  0  0  0  0  0  0  0  0
    9.6829  -17.6362   22.2967 C   0  0  0  0  0  0  0  0  0  0  0  0
   10.7166  -17.4152   22.9895 O   0  0  0  0  0  0  0  0  0  0  0  0
    8.5682  -16.7335   22.4057 N   0  0  0  0  0  0  0  0  0  0  0  0
    8.6627  -15.6403   23.3132 C   0  0  1  0  0  0  0  0  0  0  0  0
    7.7623  -14.4813   22.9411 C   0  0  0  0  0  0  0  0  0  0  0  0
    8.1335  -13.8902   21.6308 C   0  0  0  0  0  0  0  0  0  0  0  0
    9.2186  -14.2376   20.8349 C   0  0  0  0  0  0  0  0  0  0  0  0
    9.1825  -13.4587   19.7395 N   0  0  0  0  0  0  0  0  0  0  0  0
    8.1237  -12.6368   19.8098 C   0  0  0  0  0  0  0  0  0  0  0  0
    7.5019  -12.9182   20.9683 N   0  0  0  0  0  0  0  0  0  0  0  0
    8.2511  -16.0722   24.6718 C   0  0  0  0  0  0  0  0  0  0  0  0
    7.8429  -17.2485   24.8217 O   0  0  0  0  0  0  0  0  0  0  0  0
    8.3095  -15.2198   25.7456 O   0  0  0  0  0  0  0  0  0  0  0  0
  2  1  1  6
  2  3  1  0
  3  4  1  0
  4  5  2  0
  4  8  1  0
  6  7  2  0
  6  2  1  0
  9  6  1  0
 10  9  1  0
 10 11  1  1
 11 12  1  0
 12 13  1  0
 13 14  1  0
 14 15  1  0
 16 17  2  0
 16 10  1  0
 18 16  1  0
 19 18  1  0
 19 20  1  6
 20 21  1  0
 21 25  1  0
 21 22  2  0
 22 23  1  0
 24 23  1  0
 25 24  2  0
 26 28  1  0
 26 19  1  0
 27 26  2  0
M  END
$$$$
