ETM.pdb
     RDKit          3D

 25 24  0  0  1  0  0  0  0  0999 V2000
   25.8082  -21.7593  -11.4795 N   0  0  0  0  0  0  0  0  0  0  0  0
   25.4549  -21.7721  -12.9004 C   0  0  1  0  0  0  0  0  0  0  0  0
   24.3361  -22.8139  -13.0363 C   0  0  0  0  0  0  0  0  0  0  0  0
   24.9171  -24.0445  -13.6758 C   0  0  0  0  0  0  0  0  0  0  0  0
   25.1765  -23.9005  -15.1211 C   0  0  0  0  0  0  0  0  0  0  0  0
   24.2826  -23.8065  -15.9843 O   0  0  0  0  0  0  0  0  0  0  0  0
   24.9494  -20.4293  -13.2527 C   0  0  0  0  0  0  0  0  0  0  0  0
   24.3617  -19.7397  -12.3987 O   0  0  0  0  0  0  0  0  0  0  0  0
   26.5099  -23.8659  -15.5594 O   0  0  0  0  0  0  0  0  0  0  0  0
   27.0513  -17.6995  -14.4508 C   0  0  0  0  0  0  0  0  0  0  0  0
   25.9815  -17.8816  -15.4760 C   0  0  1  0  0  0  0  0  0  0  0  0
   26.5091  -18.7747  -16.4384 O   0  0  0  0  0  0  0  0  0  0  0  0
   24.7302  -18.5628  -14.9358 C   0  0  2  0  0  0  0  0  0  0  0  0
   25.1416  -19.9330  -14.5756 N   0  0  0  0  0  0  0  0  0  0  0  0
   23.6428  -18.6581  -15.9200 C   0  0  0  0  0  0  0  0  0  0  0  0
   23.1869  -19.8016  -16.2839 O   0  0  0  0  0  0  0  0  0  0  0  0
   18.9199  -20.1838  -14.5301 C   0  0  0  0  0  0  0  0  0  0  0  0
   18.1959  -18.7683  -15.4026 S   0  0  0  0  0  0  0  0  0  0  0  0
   19.2907  -18.2361  -16.7707 C   0  0  0  0  0  0  0  0  0  0  0  0
   20.6615  -18.0834  -16.1732 C   0  0  0  0  0  0  0  0  0  0  0  0
   21.7039  -17.6588  -17.1627 C   0  0  2  0  0  0  0  0  0  0  0  0
   23.0152  -17.5484  -16.5380 N   0  0  0  0  0  0  0  0  0  0  0  0
   21.3976  -16.3201  -17.6922 C   0  0  0  0  0  0  0  0  0  0  0  0
   22.0292  -15.3085  -17.3142 O   0  0  0  0  0  0  0  0  0  0  0  0
   20.4027  -16.1051  -18.6306 O   0  0  0  0  0  0  0  0  0  0  0  0
  2  1  1  1
  2  3  1  0
  4  5  1  0
  4  3  1  0
  5  6  2  0
  7  8  2  0
  7  2  1  0
  9  5  1  0
 11 10  1  1
 11 13  1  0
 12 11  1  0
 13 14  1  6
 14  7  1  0
 15 13  1  0
 15 22  1  0
 16 15  2  0
 18 17  1  0
 19 18  1  0
 19 20  1  0
 21 20  1  1
 21 22  1  0
 21 23  1  0
 23 25  1  0
 24 23  2  0
M  END
$$$$
