ETM.pdb
     RDKit          3D

 25 24  0  0  1  0  0  0  0  0999 V2000
   25.6608  -19.9904  -16.0558 N   0  0  0  0  0  0  0  0  0  0  0  0
   26.3883  -20.5902  -14.9357 C   0  0  1  0  0  0  0  0  0  0  0  0
   27.8611  -20.2187  -15.1560 C   0  0  0  0  0  0  0  0  0  0  0  0
   28.6559  -21.4916  -15.2522 C   0  0  0  0  0  0  0  0  0  0  0  0
   28.6336  -22.1096  -16.5917 C   0  0  0  0  0  0  0  0  0  0  0  0
   28.2369  -23.2690  -16.8186 O   0  0  0  0  0  0  0  0  0  0  0  0
   25.8864  -19.9755  -13.6895 C   0  0  0  0  0  0  0  0  0  0  0  0
   25.8388  -18.7361  -13.5800 O   0  0  0  0  0  0  0  0  0  0  0  0
   29.0849  -21.3515  -17.6839 O   0  0  0  0  0  0  0  0  0  0  0  0
   22.6428  -19.9908  -12.3962 C   0  0  0  0  0  0  0  0  0  0  0  0
   23.4608  -20.6160  -11.3152 C   0  0  1  0  0  0  0  0  0  0  0  0
   23.4279  -22.0100  -11.5554 O   0  0  0  0  0  0  0  0  0  0  0  0
   24.9344  -20.2318  -11.3673 C   0  0  2  0  0  0  0  0  0  0  0  0
   25.4579  -20.8131  -12.6181 N   0  0  0  0  0  0  0  0  0  0  0  0
   25.7215  -20.7722  -10.2499 C   0  0  0  0  0  0  0  0  0  0  0  0
   26.2741  -21.9276  -10.3363 O   0  0  0  0  0  0  0  0  0  0  0  0
   27.7456  -17.8175   -4.3392 C   0  0  0  0  0  0  0  0  0  0  0  0
   28.9265  -19.0026   -5.0392 S   0  0  0  0  0  0  0  0  0  0  0  0
   28.0378  -20.3704   -5.8714 C   0  0  0  0  0  0  0  0  0  0  0  0
   27.4241  -19.7779   -7.1090 C   0  0  0  0  0  0  0  0  0  0  0  0
   26.6091  -20.7542   -7.9017 C   0  0  2  0  0  0  0  0  0  0  0  0
   25.9411  -20.1031   -9.0206 N   0  0  0  0  0  0  0  0  0  0  0  0
   25.5365  -21.3252   -7.0710 C   0  0  0  0  0  0  0  0  0  0  0  0
   25.7917  -22.0417   -6.0777 O   0  0  0  0  0  0  0  0  0  0  0  0
   24.1963  -21.1040   -7.3380 O   0  0  0  0  0  0  0  0  0  0  0  0
  2  1  1  6
  2  3  1  0
  4  5  1  0
  4  3  1  0
  5  6  2  0
  7  8  2  0
  7  2  1  0
  9  5  1  0
 11 10  1  6
 11 13  1  0
 12 11  1  0
 13 14  1  6
 14  7  1  0
 15 13  1  0
 15 22  1  0
 16 15  2  0
 18 17  1  0
 19 18  1  0
 19 20  1  0
 21 20  1  1
 21 22  1  0
 21 23  1  0
 23 25  1  0
 24 23  2  0
M  END
$$$$
