ETM.pdb
     RDKit          3D

 25 24  0  0  1  0  0  0  0  0999 V2000
   15.8017  -10.9730  -19.0039 N   0  0  0  0  0  0  0  0  0  0  0  0
   16.4844  -10.9210  -17.7097 C   0  0  1  0  0  0  0  0  0  0  0  0
   17.3360  -12.1962  -17.6429 C   0  0  0  0  0  0  0  0  0  0  0  0
   18.0265  -12.2288  -16.3075 C   0  0  0  0  0  0  0  0  0  0  0  0
   17.5474  -13.3002  -15.4136 C   0  0  0  0  0  0  0  0  0  0  0  0
   17.4279  -14.4927  -15.7555 O   0  0  0  0  0  0  0  0  0  0  0  0
   17.3521   -9.7253  -17.7039 C   0  0  0  0  0  0  0  0  0  0  0  0
   18.1193   -9.5061  -18.6598 O   0  0  0  0  0  0  0  0  0  0  0  0
   17.2032  -12.9645  -14.0945 O   0  0  0  0  0  0  0  0  0  0  0  0
   16.0580   -6.3216  -17.3646 C   0  0  0  0  0  0  0  0  0  0  0  0
   17.1133   -6.4591  -16.3178 C   0  0  1  0  0  0  0  0  0  0  0  0
   16.4405   -6.8300  -15.1295 O   0  0  0  0  0  0  0  0  0  0  0  0
   18.0998   -7.5875  -16.5924 C   0  0  2  0  0  0  0  0  0  0  0  0
   17.3013   -8.8280  -16.5969 N   0  0  0  0  0  0  0  0  0  0  0  0
   19.1408   -7.7201  -15.5634 C   0  0  0  0  0  0  0  0  0  0  0  0
   19.3031   -8.8274  -14.9344 O   0  0  0  0  0  0  0  0  0  0  0  0
   24.2383  -11.0571  -13.9295 C   0  0  0  0  0  0  0  0  0  0  0  0
   24.2507   -9.5387  -14.9211 S   0  0  0  0  0  0  0  0  0  0  0  0
   23.3211   -8.2127  -14.0663 C   0  0  0  0  0  0  0  0  0  0  0  0
   22.0820   -7.9774  -14.8841 C   0  0  0  0  0  0  0  0  0  0  0  0
   21.1683   -6.9403  -14.3050 C   0  0  2  0  0  0  0  0  0  0  0  0
   20.0309   -6.6870  -15.1792 N   0  0  0  0  0  0  0  0  0  0  0  0
   21.8679   -5.6521  -14.1731 C   0  0  0  0  0  0  0  0  0  0  0  0
   21.7693   -4.7634  -15.0481 O   0  0  0  0  0  0  0  0  0  0  0  0
   22.6675   -5.3521  -13.0835 O   0  0  0  0  0  0  0  0  0  0  0  0
  2  1  1  6
  2  3  1  0
  4  5  1  0
  4  3  1  0
  5  6  2  0
  7  8  2  0
  7  2  1  0
  9  5  1  0
 11 10  1  6
 11 13  1  0
 12 11  1  0
 13 14  1  1
 14  7  1  0
 15 13  1  0
 15 22  1  0
 16 15  2  0
 18 17  1  0
 19 18  1  0
 19 20  1  0
 21 20  1  6
 21 22  1  0
 21 23  1  0
 23 25  1  0
 24 23  2  0
M  END
$$$$
