ETM.pdb
     RDKit          3D

 25 24  0  0  1  0  0  0  0  0999 V2000
   18.7476  -12.3281  -16.2258 N   0  0  0  0  0  0  0  0  0  0  0  0
   19.6810  -11.2606  -16.5903 C   0  0  1  0  0  0  0  0  0  0  0  0
   19.2362  -10.7823  -17.9792 C   0  0  0  0  0  0  0  0  0  0  0  0
   19.3822  -11.9307  -18.9389 C   0  0  0  0  0  0  0  0  0  0  0  0
   19.0289  -11.5938  -20.3312 C   0  0  0  0  0  0  0  0  0  0  0  0
   19.8265  -11.1044  -21.1544 O   0  0  0  0  0  0  0  0  0  0  0  0
   19.5316  -10.1724  -15.6023 C   0  0  0  0  0  0  0  0  0  0  0  0
   18.5271  -10.1298  -14.8677 O   0  0  0  0  0  0  0  0  0  0  0  0
   17.7156  -11.8368  -20.7638 O   0  0  0  0  0  0  0  0  0  0  0  0
   19.5593   -9.8789  -12.9836 C   0  0  0  0  0  0  0  0  0  0  0  0
   20.5013   -8.7325  -13.1478 C   0  0  1  0  0  0  0  0  0  0  0  0
   21.8033   -9.2798  -13.0616 O   0  0  0  0  0  0  0  0  0  0  0  0
   20.4288   -8.0769  -14.5213 C   0  0  2  0  0  0  0  0  0  0  0  0
   20.5462   -9.1758  -15.4986 N   0  0  0  0  0  0  0  0  0  0  0  0
   21.5188   -7.1241  -14.7749 C   0  0  0  0  0  0  0  0  0  0  0  0
   22.4522   -7.4037  -15.6106 O   0  0  0  0  0  0  0  0  0  0  0  0
   22.6640   -1.7459  -19.3335 C   0  0  0  0  0  0  0  0  0  0  0  0
   21.9216   -3.1548  -18.4658 S   0  0  0  0  0  0  0  0  0  0  0  0
   22.6149   -3.2993  -16.7771 C   0  0  0  0  0  0  0  0  0  0  0  0
   21.9528   -4.4967  -16.1548 C   0  0  0  0  0  0  0  0  0  0  0  0
   22.4128   -4.7783  -14.7567 C   0  0  2  0  0  0  0  0  0  0  0  0
   21.6439   -5.8578  -14.1521 N   0  0  0  0  0  0  0  0  0  0  0  0
   22.1994   -3.6030  -13.8968 C   0  0  0  0  0  0  0  0  0  0  0  0
   21.1896   -3.5047  -13.1647 O   0  0  0  0  0  0  0  0  0  0  0  0
   23.0953   -2.5487  -13.8484 O   0  0  0  0  0  0  0  0  0  0  0  0
  2  1  1  1
  2  3  1  0
  4  5  1  0
  4  3  1  0
  5  6  2  0
  7  8  2  0
  7  2  1  0
  9  5  1  0
 11 10  1  6
 11 13  1  0
 12 11  1  0
 13 14  1  6
 14  7  1  0
 15 13  1  0
 15 22  1  0
 16 15  2  0
 18 17  1  0
 19 18  1  0
 19 20  1  0
 21 20  1  6
 21 22  1  0
 21 23  1  0
 23 25  1  0
 24 23  2  0
M  END
$$$$
