ETM.pdb
     RDKit          3D

 25 24  0  0  1  0  0  0  0  0999 V2000
   19.7255  -13.6131  -16.6334 N   0  0  0  0  0  0  0  0  0  0  0  0
   19.8076  -12.2136  -17.0558 C   0  0  1  0  0  0  0  0  0  0  0  0
   18.3550  -11.7561  -17.2467 C   0  0  0  0  0  0  0  0  0  0  0  0
   17.7464  -12.5773  -18.3496 C   0  0  0  0  0  0  0  0  0  0  0  0
   16.3499  -12.2173  -18.6610 C   0  0  0  0  0  0  0  0  0  0  0  0
   15.6824  -11.3876  -18.0136 O   0  0  0  0  0  0  0  0  0  0  0  0
   20.4458  -11.4487  -15.9649 C   0  0  0  0  0  0  0  0  0  0  0  0
   20.1278  -11.6663  -14.7808 O   0  0  0  0  0  0  0  0  0  0  0  0
   15.7272  -12.8429  -19.7528 O   0  0  0  0  0  0  0  0  0  0  0  0
   23.7851  -11.4604  -14.8776 C   0  0  0  0  0  0  0  0  0  0  0  0
   23.5317  -10.0317  -15.2285 C   0  0  1  0  0  0  0  0  0  0  0  0
   23.9490   -9.8781  -16.5717 O   0  0  0  0  0  0  0  0  0  0  0  0
   22.0553   -9.6550  -15.2185 C   0  0  2  0  0  0  0  0  0  0  0  0
   21.4266  -10.4631  -16.2808 N   0  0  0  0  0  0  0  0  0  0  0  0
   21.8095   -8.2375  -15.5193 C   0  0  0  0  0  0  0  0  0  0  0  0
   21.2659   -7.8878  -16.6285 O   0  0  0  0  0  0  0  0  0  0  0  0
   17.5317   -2.5083  -16.0658 C   0  0  0  0  0  0  0  0  0  0  0  0
   18.1295   -4.1802  -15.6963 S   0  0  0  0  0  0  0  0  0  0  0  0
   19.9452   -4.1690  -15.4596 C   0  0  0  0  0  0  0  0  0  0  0  0
   20.3431   -5.5974  -15.2128 C   0  0  0  0  0  0  0  0  0  0  0  0
   21.8144   -5.7822  -14.9965 C   0  0  2  0  0  0  0  0  0  0  0  0
   22.1316   -7.1623  -14.6549 N   0  0  0  0  0  0  0  0  0  0  0  0
   22.2742   -4.9710  -13.8576 C   0  0  0  0  0  0  0  0  0  0  0  0
   22.3244   -3.7226  -13.9236 O   0  0  0  0  0  0  0  0  0  0  0  0
   22.6734   -5.5370  -12.6589 O   0  0  0  0  0  0  0  0  0  0  0  0
  2  1  1  1
  2  3  1  0
  4  5  1  0
  4  3  1  0
  5  6  2  0
  7  8  2  0
  7  2  1  0
  9  5  1  0
 11 10  1  6
 11 13  1  0
 12 11  1  0
 13 14  1  6
 14  7  1  0
 15 13  1  0
 15 22  1  0
 16 15  2  0
 18 17  1  0
 19 18  1  0
 19 20  1  0
 21 20  1  1
 21 22  1  0
 21 23  1  0
 23 25  1  0
 24 23  2  0
M  END
$$$$
