ETM.pdb
     RDKit          3D

 25 24  0  0  1  0  0  0  0  0999 V2000
   21.2554  -20.6898  -14.5637 N   0  0  0  0  0  0  0  0  0  0  0  0
   22.1129  -19.7637  -13.8214 C   0  0  1  0  0  0  0  0  0  0  0  0
   21.1658  -18.7095  -13.2322 C   0  0  0  0  0  0  0  0  0  0  0  0
   20.1118  -18.4004  -14.2592 C   0  0  0  0  0  0  0  0  0  0  0  0
   18.8694  -19.1785  -14.0926 C   0  0  0  0  0  0  0  0  0  0  0  0
   18.3866  -19.4937  -12.9877 O   0  0  0  0  0  0  0  0  0  0  0  0
   22.7692  -20.5245  -12.7384 C   0  0  0  0  0  0  0  0  0  0  0  0
   22.0958  -21.2696  -12.0022 O   0  0  0  0  0  0  0  0  0  0  0  0
   18.1823  -19.5931  -15.2445 O   0  0  0  0  0  0  0  0  0  0  0  0
   24.7883  -23.1933  -13.1033 C   0  0  0  0  0  0  0  0  0  0  0  0
   25.6577  -22.2635  -12.3235 C   0  0  1  0  0  0  0  0  0  0  0  0
   26.4082  -21.5362  -13.2773 O   0  0  0  0  0  0  0  0  0  0  0  0
   24.8781  -21.2156  -11.5386 C   0  0  2  0  0  0  0  0  0  0  0  0
   24.1764  -20.3977  -12.5461 N   0  0  0  0  0  0  0  0  0  0  0  0
   25.7325  -20.3230  -10.7428 C   0  0  0  0  0  0  0  0  0  0  0  0
   26.2544  -19.2747  -11.2689 O   0  0  0  0  0  0  0  0  0  0  0  0
   28.1844  -19.9688   -3.7581 C   0  0  0  0  0  0  0  0  0  0  0  0
   28.2641  -18.9139   -5.2311 S   0  0  0  0  0  0  0  0  0  0  0  0
   28.6800  -19.9135   -6.7080 C   0  0  0  0  0  0  0  0  0  0  0  0
   27.3689  -20.3007   -7.3330 C   0  0  0  0  0  0  0  0  0  0  0  0
   27.3197  -20.0749   -8.8136 C   0  0  2  0  0  0  0  0  0  0  0  0
   26.0516  -20.5191   -9.3765 N   0  0  0  0  0  0  0  0  0  0  0  0
   28.3589  -20.8671   -9.4911 C   0  0  0  0  0  0  0  0  0  0  0  0
   28.1235  -22.0160   -9.9267 O   0  0  0  0  0  0  0  0  0  0  0  0
   29.6445  -20.3910   -9.6839 O   0  0  0  0  0  0  0  0  0  0  0  0
  2  1  1  6
  2  3  1  0
  4  5  1  0
  4  3  1  0
  5  6  2  0
  7  8  2  0
  7  2  1  0
  9  5  1  0
 11 10  1  6
 11 13  1  0
 12 11  1  0
 13 14  1  6
 14  7  1  0
 15 13  1  0
 15 22  1  0
 16 15  2  0
 18 17  1  0
 19 18  1  0
 19 20  1  0
 21 20  1  1
 21 22  1  0
 21 23  1  0
 23 25  1  0
 24 23  2  0
M  END
$$$$
