ETM.pdb
     RDKit          3D

 25 24  0  0  1  0  0  0  0  0999 V2000
   12.7736   -8.8854   -8.8321 N   0  0  0  0  0  0  0  0  0  0  0  0
   14.1509   -9.1484   -9.2535 C   0  0  1  0  0  0  0  0  0  0  0  0
   14.0520  -10.2520  -10.3155 C   0  0  0  0  0  0  0  0  0  0  0  0
   13.7680  -11.5520   -9.6152 C   0  0  0  0  0  0  0  0  0  0  0  0
   13.6370  -12.7049  -10.5264 C   0  0  0  0  0  0  0  0  0  0  0  0
   14.5964  -13.2455  -11.1099 O   0  0  0  0  0  0  0  0  0  0  0  0
   14.6852   -7.9081   -9.8526 C   0  0  0  0  0  0  0  0  0  0  0  0
   13.9108   -6.9911  -10.1841 O   0  0  0  0  0  0  0  0  0  0  0  0
   12.3561  -13.2322  -10.7554 O   0  0  0  0  0  0  0  0  0  0  0  0
   17.0502   -4.1489   -9.8636 C   0  0  0  0  0  0  0  0  0  0  0  0
   16.3543   -5.4396   -9.5833 C   0  0  1  0  0  0  0  0  0  0  0  0
   14.9708   -5.1766   -9.7208 O   0  0  0  0  0  0  0  0  0  0  0  0
   16.6614   -6.5305  -10.6019 C   0  0  2  0  0  0  0  0  0  0  0  0
   16.0914   -7.7724  -10.0457 N   0  0  0  0  0  0  0  0  0  0  0  0
   18.0995   -6.7456  -10.8156 C   0  0  0  0  0  0  0  0  0  0  0  0
   18.7210   -7.6824  -10.1957 O   0  0  0  0  0  0  0  0  0  0  0  0
   22.7458  -10.5329  -14.7282 C   0  0  0  0  0  0  0  0  0  0  0  0
   21.1896   -9.8107  -14.1403 S   0  0  0  0  0  0  0  0  0  0  0  0
   21.5014   -8.1957  -13.3356 C   0  0  0  0  0  0  0  0  0  0  0  0
   20.1951   -7.7756  -12.7219 C   0  0  0  0  0  0  0  0  0  0  0  0
   20.2380   -6.4179  -12.0890 C   0  0  2  0  0  0  0  0  0  0  0  0
   18.9088   -5.9769  -11.6880 N   0  0  0  0  0  0  0  0  0  0  0  0
   20.7202   -5.4148  -13.0522 C   0  0  0  0  0  0  0  0  0  0  0  0
   19.9309   -4.7959  -13.8000 O   0  0  0  0  0  0  0  0  0  0  0  0
   22.0620   -5.1009  -13.1846 O   0  0  0  0  0  0  0  0  0  0  0  0
  2  1  1  6
  2  3  1  0
  4  5  1  0
  4  3  1  0
  5  6  2  0
  7  8  2  0
  7  2  1  0
  9  5  1  0
 11 10  1  6
 11 13  1  0
 12 11  1  0
 13 14  1  1
 14  7  1  0
 15 13  1  0
 15 22  1  0
 16 15  2  0
 18 17  1  0
 19 18  1  0
 19 20  1  0
 21 20  1  6
 21 22  1  0
 21 23  1  0
 23 25  1  0
 24 23  2  0
M  END
$$$$
