ETM.pdb
     RDKit          3D

 25 24  0  0  1  0  0  0  0  0999 V2000
   17.2365  -11.0426  -18.5042 N   0  0  0  0  0  0  0  0  0  0  0  0
   16.9675   -9.6800  -18.0406 C   0  0  1  0  0  0  0  0  0  0  0  0
   16.2205   -9.8388  -16.7093 C   0  0  0  0  0  0  0  0  0  0  0  0
   16.1255  -11.3068  -16.3977 C   0  0  0  0  0  0  0  0  0  0  0  0
   15.2750  -11.6160  -15.2325 C   0  0  0  0  0  0  0  0  0  0  0  0
   15.3798  -12.6519  -14.5476 O   0  0  0  0  0  0  0  0  0  0  0  0
   18.2669   -9.0121  -17.8218 C   0  0  0  0  0  0  0  0  0  0  0  0
   19.3209   -9.6747  -17.8435 O   0  0  0  0  0  0  0  0  0  0  0  0
   14.2844  -10.6914  -14.8653 O   0  0  0  0  0  0  0  0  0  0  0  0
   19.0785   -5.7004  -19.5965 C   0  0  0  0  0  0  0  0  0  0  0  0
   19.4121   -5.5623  -18.1480 C   0  0  1  0  0  0  0  0  0  0  0  0
   18.2858   -4.9565  -17.5426 O   0  0  0  0  0  0  0  0  0  0  0  0
   19.5859   -6.8968  -17.4334 C   0  0  2  0  0  0  0  0  0  0  0  0
   18.3014   -7.6060  -17.5873 N   0  0  0  0  0  0  0  0  0  0  0  0
   19.8616   -6.7612  -15.9962 C   0  0  0  0  0  0  0  0  0  0  0  0
   19.0329   -7.2107  -15.1249 O   0  0  0  0  0  0  0  0  0  0  0  0
   21.7336   -9.9211  -10.7944 C   0  0  0  0  0  0  0  0  0  0  0  0
   23.0037   -9.0683  -11.7683 S   0  0  0  0  0  0  0  0  0  0  0  0
   22.4625   -7.3652  -12.1679 C   0  0  0  0  0  0  0  0  0  0  0  0
   21.9607   -7.4078  -13.5842 C   0  0  0  0  0  0  0  0  0  0  0  0
   21.2796   -6.1455  -14.0182 C   0  0  2  0  0  0  0  0  0  0  0  0
   21.0173   -6.1494  -15.4511 N   0  0  0  0  0  0  0  0  0  0  0  0
   22.1457   -4.9811  -13.7719 C   0  0  0  0  0  0  0  0  0  0  0  0
   22.6050   -4.2984  -14.7144 O   0  0  0  0  0  0  0  0  0  0  0  0
   22.4982   -4.5777  -12.4954 O   0  0  0  0  0  0  0  0  0  0  0  0
  2  1  1  1
  2  3  1  0
  4  5  1  0
  4  3  1  0
  5  6  2  0
  7  8  2  0
  7  2  1  0
  9  5  1  0
 11 10  1  6
 11 13  1  0
 12 11  1  0
 13 14  1  1
 14  7  1  0
 15 13  1  0
 15 22  1  0
 16 15  2  0
 18 17  1  0
 19 18  1  0
 19 20  1  0
 21 20  1  6
 21 22  1  0
 21 23  1  0
 23 25  1  0
 24 23  2  0
M  END
$$$$
