ETM.pdb
     RDKit          3D

 25 24  0  0  1  0  0  0  0  0999 V2000
   15.0513  -10.4818  -18.2069 N   0  0  0  0  0  0  0  0  0  0  0  0
   15.8895  -10.3386  -17.0149 C   0  0  1  0  0  0  0  0  0  0  0  0
   16.6751  -11.6525  -16.9048 C   0  0  0  0  0  0  0  0  0  0  0  0
   15.7532  -12.7047  -16.3533 C   0  0  0  0  0  0  0  0  0  0  0  0
   15.6341  -12.6830  -14.8829 C   0  0  0  0  0  0  0  0  0  0  0  0
   16.1989  -11.8486  -14.1495 O   0  0  0  0  0  0  0  0  0  0  0  0
   16.8125   -9.2081  -17.2443 C   0  0  0  0  0  0  0  0  0  0  0  0
   17.3459   -9.0540  -18.3589 O   0  0  0  0  0  0  0  0  0  0  0  0
   14.8369  -13.6587  -14.2636 O   0  0  0  0  0  0  0  0  0  0  0  0
   16.0891   -5.7675  -17.2034 C   0  0  0  0  0  0  0  0  0  0  0  0
   17.1794   -5.9077  -16.1934 C   0  0  1  0  0  0  0  0  0  0  0  0
   16.5370   -6.0561  -14.9415 O   0  0  0  0  0  0  0  0  0  0  0  0
   18.0149   -7.1695  -16.3708 C   0  0  2  0  0  0  0  0  0  0  0  0
   17.0845   -8.2985  -16.1805 N   0  0  0  0  0  0  0  0  0  0  0  0
   19.0968   -7.3003  -15.3846 C   0  0  0  0  0  0  0  0  0  0  0  0
   19.1946   -8.3519  -14.6550 O   0  0  0  0  0  0  0  0  0  0  0  0
   25.7381   -9.7765  -14.1272 C   0  0  0  0  0  0  0  0  0  0  0  0
   24.1885   -9.3608  -14.9727 S   0  0  0  0  0  0  0  0  0  0  0  0
   23.3858   -7.9282  -14.1625 C   0  0  0  0  0  0  0  0  0  0  0  0
   22.0837   -7.7165  -14.8830 C   0  0  0  0  0  0  0  0  0  0  0  0
   21.2584   -6.6011  -14.3166 C   0  0  2  0  0  0  0  0  0  0  0  0
   20.0965   -6.3241  -15.1504 N   0  0  0  0  0  0  0  0  0  0  0  0
   22.0348   -5.3511  -14.2821 C   0  0  0  0  0  0  0  0  0  0  0  0
   21.8491   -4.4440  -15.1235 O   0  0  0  0  0  0  0  0  0  0  0  0
   23.0058   -5.1090  -13.3254 O   0  0  0  0  0  0  0  0  0  0  0  0
  2  1  1  6
  2  3  1  0
  4  5  1  0
  4  3  1  0
  5  6  2  0
  7  8  2  0
  7  2  1  0
  9  5  1  0
 11 10  1  6
 11 13  1  0
 12 11  1  0
 13 14  1  1
 14  7  1  0
 15 13  1  0
 15 22  1  0
 16 15  2  0
 18 17  1  0
 19 18  1  0
 19 20  1  0
 21 20  1  6
 21 22  1  0
 21 23  1  0
 23 25  1  0
 24 23  2  0
M  END
$$$$
