KSQ.pdb
     RDKit          3D

 25 24  0  0  1  0  0  0  0  0999 V2000
   24.1625  -14.2745  -20.1946 N   0  0  0  0  0  0  0  0  0  0  0  0
   23.8377  -12.9794  -20.7694 C   0  0  1  0  0  0  0  0  0  0  0  0
   22.4316  -13.0211  -21.2753 C   0  0  0  0  0  0  0  0  0  0  0  0
   22.1368  -14.2815  -22.0599 C   0  0  0  0  0  0  0  0  0  0  0  0
   20.7372  -14.2270  -22.6626 C   0  0  0  0  0  0  0  0  0  0  0  0
   20.4342  -15.5027  -23.4199 C   0  0  0  0  0  0  0  0  0  0  0  0
   19.0678  -15.4039  -23.8865 N   0  0  0  0  0  0  0  0  0  0  0  0
   24.0624  -11.8862  -19.7953 C   0  0  0  0  0  0  0  0  0  0  0  0
   24.0482  -12.1796  -18.5773 O   0  0  0  0  0  0  0  0  0  0  0  0
   25.5372   -8.1040  -20.8204 O   0  0  0  0  0  0  0  0  0  0  0  0
   25.7765   -8.6806  -19.5698 C   0  0  0  0  0  0  0  0  0  0  0  0
   24.6106   -9.5618  -19.1573 C   0  0  2  0  0  0  0  0  0  0  0  0
   24.2910  -10.5379  -20.1518 N   0  0  0  0  0  0  0  0  0  0  0  0
   23.4419   -8.6546  -18.9847 C   0  0  0  0  0  0  0  0  0  0  0  0
   22.6578   -8.4194  -19.9537 O   0  0  0  0  0  0  0  0  0  0  0  0
   18.4648   -9.1784  -18.3741 N   0  0  0  0  0  0  0  0  0  0  0  0
   18.4029   -7.8317  -17.8840 C   0  0  0  0  0  0  0  0  0  0  0  0
   17.2791   -7.3006  -17.7134 O   0  0  0  0  0  0  0  0  0  0  0  0
   19.6214   -7.0667  -17.5771 C   0  0  0  0  0  0  0  0  0  0  0  0
   20.8366   -7.9099  -17.8120 C   0  0  0  0  0  0  0  0  0  0  0  0
   22.0748   -7.1424  -17.4828 C   0  0  2  0  0  0  0  0  0  0  0  0
   23.2128   -8.0527  -17.7188 N   0  0  0  0  0  0  0  0  0  0  0  0
   22.0955   -6.7021  -16.0608 C   0  0  0  0  0  0  0  0  0  0  0  0
   21.3215   -5.6586  -15.6164 O   0  0  0  0  0  0  0  0  0  0  0  0
   22.8402   -7.3061  -15.2630 O   0  0  0  0  0  0  0  0  0  0  0  0
  2  1  1  1
  3  2  1  0
  3  4  1  0
  5  4  1  0
  5  6  1  0
  7  6  1  0
  8  2  1  0
  8  9  2  0
 11 10  1  0
 12 11  1  6
 12 13  1  0
 13  8  1  0
 14 12  1  0
 14 22  1  0
 15 14  2  0
 16 17  1  0
 17 19  1  0
 18 17  2  0
 19 20  1  0
 21 20  1  1
 21 22  1  0
 21 23  1  0
 23 25  2  0
 23 24  1  0
M  END
$$$$
