KSQ.pdb
     RDKit          3D

 25 24  0  0  1  0  0  0  0  0999 V2000
   20.5102  -12.2210  -17.9482 N   0  0  0  0  0  0  0  0  0  0  0  0
   19.8446  -11.5963  -16.8168 C   0  0  1  0  0  0  0  0  0  0  0  0
   19.3842  -12.6686  -15.8826 C   0  0  0  0  0  0  0  0  0  0  0  0
   18.5960  -13.7509  -16.5884 C   0  0  0  0  0  0  0  0  0  0  0  0
   18.3914  -14.9534  -15.6734 C   0  0  0  0  0  0  0  0  0  0  0  0
   17.6010  -16.0329  -16.3824 C   0  0  0  0  0  0  0  0  0  0  0  0
   17.4596  -17.1336  -15.4534 N   0  0  0  0  0  0  0  0  0  0  0  0
   20.7226  -10.6019  -16.1574 C   0  0  0  0  0  0  0  0  0  0  0  0
   20.3716  -10.1688  -15.0353 O   0  0  0  0  0  0  0  0  0  0  0  0
   23.8121   -8.4807  -18.0275 O   0  0  0  0  0  0  0  0  0  0  0  0
   24.0419   -8.8791  -16.7077 C   0  0  0  0  0  0  0  0  0  0  0  0
   22.7287   -9.1661  -16.0012 C   0  0  2  0  0  0  0  0  0  0  0  0
   21.9269  -10.1127  -16.7119 N   0  0  0  0  0  0  0  0  0  0  0  0
   21.9963   -7.8706  -15.9385 C   0  0  0  0  0  0  0  0  0  0  0  0
   21.1273   -7.5765  -16.8146 O   0  0  0  0  0  0  0  0  0  0  0  0
   17.5763   -6.7989  -13.8023 N   0  0  0  0  0  0  0  0  0  0  0  0
   18.5860   -6.9036  -12.7889 C   0  0  0  0  0  0  0  0  0  0  0  0
   18.2575   -7.3037  -11.6460 O   0  0  0  0  0  0  0  0  0  0  0  0
   19.9895   -6.5565  -13.0608 C   0  0  0  0  0  0  0  0  0  0  0  0
   20.1328   -6.0283  -14.4548 C   0  0  0  0  0  0  0  0  0  0  0  0
   21.5585   -5.6847  -14.7377 C   0  0  2  0  0  0  0  0  0  0  0  0
   22.2814   -6.9636  -14.8834 N   0  0  0  0  0  0  0  0  0  0  0  0
   22.1741   -4.9056  -13.6285 C   0  0  0  0  0  0  0  0  0  0  0  0
   21.8620   -3.5860  -13.4127 O   0  0  0  0  0  0  0  0  0  0  0  0
   22.9935   -5.4794  -12.8834 O   0  0  0  0  0  0  0  0  0  0  0  0
  2  1  1  6
  3  2  1  0
  3  4  1  0
  5  4  1  0
  5  6  1  0
  7  6  1  0
  8  2  1  0
  8  9  2  0
 11 10  1  0
 12 11  1  6
 12 13  1  0
 13  8  1  0
 14 12  1  0
 14 22  1  0
 15 14  2  0
 16 17  1  0
 17 19  1  0
 18 17  2  0
 19 20  1  0
 21 20  1  1
 21 22  1  0
 21 23  1  0
 23 25  2  0
 23 24  1  0
M  END
$$$$
