KSQ.pdb
     RDKit          3D

 25 24  0  0  1  0  0  0  0  0999 V2000
   17.8306  -11.6853  -16.1664 N   0  0  0  0  0  0  0  0  0  0  0  0
   19.1579  -11.1258  -16.3630 C   0  0  1  0  0  0  0  0  0  0  0  0
   19.5506  -11.3203  -17.7922 C   0  0  0  0  0  0  0  0  0  0  0  0
   19.7290  -12.7804  -18.1490 C   0  0  0  0  0  0  0  0  0  0  0  0
   20.2882  -12.9267  -19.5600 C   0  0  0  0  0  0  0  0  0  0  0  0
   20.5427  -14.3840  -19.8828 C   0  0  0  0  0  0  0  0  0  0  0  0
   21.0532  -14.4352  -21.2361 N   0  0  0  0  0  0  0  0  0  0  0  0
   19.2114   -9.7060  -15.9437 C   0  0  0  0  0  0  0  0  0  0  0  0
   18.3619   -8.9232  -16.4292 O   0  0  0  0  0  0  0  0  0  0  0  0
   20.3715   -7.9947  -12.2898 O   0  0  0  0  0  0  0  0  0  0  0  0
   20.9873   -7.5108  -13.4475 C   0  0  0  0  0  0  0  0  0  0  0  0
   20.1301   -7.7989  -14.6674 C   0  0  2  0  0  0  0  0  0  0  0  0
   20.1566   -9.1804  -15.0340 N   0  0  0  0  0  0  0  0  0  0  0  0
   20.7073   -6.9972  -15.7822 C   0  0  0  0  0  0  0  0  0  0  0  0
   21.3086   -7.5661  -16.7434 O   0  0  0  0  0  0  0  0  0  0  0  0
   19.2265   -6.0941  -20.4649 N   0  0  0  0  0  0  0  0  0  0  0  0
   20.1234   -4.9760  -20.5162 C   0  0  0  0  0  0  0  0  0  0  0  0
   20.3573   -4.4379  -21.6253 O   0  0  0  0  0  0  0  0  0  0  0  0
   20.7682   -4.4490  -19.3036 C   0  0  0  0  0  0  0  0  0  0  0  0
   20.3933   -5.2784  -18.1142 C   0  0  0  0  0  0  0  0  0  0  0  0
   21.0369   -4.7389  -16.8792 C   0  0  2  0  0  0  0  0  0  0  0  0
   20.5772   -5.5830  -15.7587 N   0  0  0  0  0  0  0  0  0  0  0  0
   20.6406   -3.3283  -16.6154 C   0  0  0  0  0  0  0  0  0  0  0  0
   21.3168   -2.2716  -17.1734 O   0  0  0  0  0  0  0  0  0  0  0  0
   19.6666   -3.1156  -15.8657 O   0  0  0  0  0  0  0  0  0  0  0  0
  2  1  1  6
  3  2  1  0
  3  4  1  0
  5  4  1  0
  5  6  1  0
  7  6  1  0
  8  2  1  0
  8  9  2  0
 11 10  1  0
 12 11  1  1
 12 13  1  0
 13  8  1  0
 14 12  1  0
 14 22  1  0
 15 14  2  0
 16 17  1  0
 17 19  1  0
 18 17  2  0
 19 20  1  0
 21 20  1  6
 21 22  1  0
 21 23  1  0
 23 25  2  0
 23 24  1  0
M  END
$$$$
