KSQ.pdb
     RDKit          3D

 25 24  0  0  1  0  0  0  0  0999 V2000
   34.0192  -15.1867  -19.9522 N   0  0  0  0  0  0  0  0  0  0  0  0
   33.9899  -13.9351  -19.2133 C   0  0  1  0  0  0  0  0  0  0  0  0
   35.1298  -13.0835  -19.6719 C   0  0  0  0  0  0  0  0  0  0  0  0
   36.4701  -13.6149  -19.2113 C   0  0  0  0  0  0  0  0  0  0  0  0
   37.3312  -14.0145  -20.4046 C   0  0  0  0  0  0  0  0  0  0  0  0
   38.6822  -14.5169  -19.9411 C   0  0  0  0  0  0  0  0  0  0  0  0
   39.4368  -14.8590  -21.1278 N   0  0  0  0  0  0  0  0  0  0  0  0
   32.6793  -13.2586  -19.3516 C   0  0  0  0  0  0  0  0  0  0  0  0
   32.1160  -13.3036  -20.4700 O   0  0  0  0  0  0  0  0  0  0  0  0
   30.1927  -12.8747  -16.2970 O   0  0  0  0  0  0  0  0  0  0  0  0
   29.6895  -12.7273  -17.5926 C   0  0  0  0  0  0  0  0  0  0  0  0
   30.7091  -12.0425  -18.4857 C   0  0  2  0  0  0  0  0  0  0  0  0
   32.0264  -12.5680  -18.3056 N   0  0  0  0  0  0  0  0  0  0  0  0
   30.7097  -10.6055  -18.0935 C   0  0  0  0  0  0  0  0  0  0  0  0
   31.6707  -10.1190  -17.4237 O   0  0  0  0  0  0  0  0  0  0  0  0
   32.6575   -7.3715  -21.4972 N   0  0  0  0  0  0  0  0  0  0  0  0
   32.0838   -6.3091  -20.7229 C   0  0  0  0  0  0  0  0  0  0  0  0
   32.4145   -5.1262  -20.9794 O   0  0  0  0  0  0  0  0  0  0  0  0
   31.1204   -6.5756  -19.6436 C   0  0  0  0  0  0  0  0  0  0  0  0
   30.8952   -8.0494  -19.5010 C   0  0  0  0  0  0  0  0  0  0  0  0
   29.7482   -8.3146  -18.5821 C   0  0  2  0  0  0  0  0  0  0  0  0
   29.6188   -9.7816  -18.4786 N   0  0  0  0  0  0  0  0  0  0  0  0
   28.4730   -7.7532  -19.1067 C   0  0  0  0  0  0  0  0  0  0  0  0
   27.7104   -8.4296  -20.0266 O   0  0  0  0  0  0  0  0  0  0  0  0
   28.0997   -6.6380  -18.6909 O   0  0  0  0  0  0  0  0  0  0  0  0
  2  1  1  6
  3  2  1  0
  3  4  1  0
  5  4  1  0
  5  6  1  0
  7  6  1  0
  8  2  1  0
  8  9  2  0
 11 10  1  0
 12 11  1  1
 12 13  1  0
 13  8  1  0
 14 12  1  0
 14 22  1  0
 15 14  2  0
 16 17  1  0
 17 19  1  0
 18 17  2  0
 19 20  1  0
 21 20  1  6
 21 22  1  0
 21 23  1  0
 23 25  2  0
 23 24  1  0
M  END
$$$$
