KSQ.pdb
     RDKit          3D

 25 24  0  0  1  0  0  0  0  0999 V2000
   17.5650  -11.2991  -17.8783 N   0  0  0  0  0  0  0  0  0  0  0  0
   18.1502  -11.2847  -16.5477 C   0  0  1  0  0  0  0  0  0  0  0  0
   19.4531  -12.0163  -16.5916 C   0  0  0  0  0  0  0  0  0  0  0  0
   19.2776  -13.4930  -16.8731 C   0  0  0  0  0  0  0  0  0  0  0  0
   18.5466  -14.1784  -15.7237 C   0  0  0  0  0  0  0  0  0  0  0  0
   18.4657  -15.6718  -15.9600 C   0  0  0  0  0  0  0  0  0  0  0  0
   17.7520  -16.2403  -14.8366 N   0  0  0  0  0  0  0  0  0  0  0  0
   18.2882   -9.9017  -16.0349 C   0  0  0  0  0  0  0  0  0  0  0  0
   18.8271   -9.0541  -16.7840 O   0  0  0  0  0  0  0  0  0  0  0  0
   17.5433   -8.7866  -12.0580 O   0  0  0  0  0  0  0  0  0  0  0  0
   17.3312   -7.8151  -13.0402 C   0  0  0  0  0  0  0  0  0  0  0  0
   18.1111   -8.1507  -14.2992 C   0  0  2  0  0  0  0  0  0  0  0  0
   17.8520   -9.4794  -14.7587 N   0  0  0  0  0  0  0  0  0  0  0  0
   19.5524   -8.0417  -13.9393 C   0  0  0  0  0  0  0  0  0  0  0  0
   20.2354   -9.0801  -13.6855 O   0  0  0  0  0  0  0  0  0  0  0  0
   23.8462   -7.9729  -16.9095 N   0  0  0  0  0  0  0  0  0  0  0  0
   22.9471   -6.8704  -17.0928 C   0  0  0  0  0  0  0  0  0  0  0  0
   22.8965   -6.3104  -18.2144 O   0  0  0  0  0  0  0  0  0  0  0  0
   22.0870   -6.3878  -16.0012 C   0  0  0  0  0  0  0  0  0  0  0  0
   22.3324   -7.1837  -14.7565 C   0  0  0  0  0  0  0  0  0  0  0  0
   21.5966   -6.5859  -13.6024 C   0  0  2  0  0  0  0  0  0  0  0  0
   20.1575   -6.7580  -13.8827 N   0  0  0  0  0  0  0  0  0  0  0  0
   21.8883   -5.1343  -13.4477 C   0  0  0  0  0  0  0  0  0  0  0  0
   23.0845   -4.6877  -12.9426 O   0  0  0  0  0  0  0  0  0  0  0  0
   21.0140   -4.3132  -13.7900 O   0  0  0  0  0  0  0  0  0  0  0  0
  2  1  1  6
  3  2  1  0
  3  4  1  0
  5  4  1  0
  5  6  1  0
  7  6  1  0
  8  2  1  0
  8  9  2  0
 11 10  1  0
 12 11  1  1
 12 13  1  0
 13  8  1  0
 14 12  1  0
 14 22  1  0
 15 14  2  0
 16 17  1  0
 17 19  1  0
 18 17  2  0
 19 20  1  0
 21 20  1  6
 21 22  1  0
 21 23  1  0
 23 25  2  0
 23 24  1  0
M  END
$$$$
