KSQ.pdb
     RDKit          3D

 25 24  0  0  1  0  0  0  0  0999 V2000
   25.8513  -21.5127   -9.9075 N   0  0  0  0  0  0  0  0  0  0  0  0
   25.1460  -21.0893  -11.1061 C   0  0  1  0  0  0  0  0  0  0  0  0
   23.9421  -20.3025  -10.6983 C   0  0  0  0  0  0  0  0  0  0  0  0
   22.6766  -21.1327  -10.7136 C   0  0  0  0  0  0  0  0  0  0  0  0
   22.1482  -21.2850  -12.1358 C   0  0  0  0  0  0  0  0  0  0  0  0
   20.9545  -22.2160  -12.1629 C   0  0  0  0  0  0  0  0  0  0  0  0
   20.4675  -22.2408  -13.5256 N   0  0  0  0  0  0  0  0  0  0  0  0
   26.0381  -20.3370  -12.0186 C   0  0  0  0  0  0  0  0  0  0  0  0
   26.7102  -19.3979  -11.5325 O   0  0  0  0  0  0  0  0  0  0  0  0
   26.5648  -21.0541  -16.2155 O   0  0  0  0  0  0  0  0  0  0  0  0
   27.5612  -20.4884  -15.4150 C   0  0  0  0  0  0  0  0  0  0  0  0
   26.9452  -19.7475  -14.2412 C   0  0  2  0  0  0  0  0  0  0  0  0
   26.1787  -20.6108  -13.3980 N   0  0  0  0  0  0  0  0  0  0  0  0
   26.0381  -18.7204  -14.8251 C   0  0  0  0  0  0  0  0  0  0  0  0
   24.8215  -18.9917  -15.0607 O   0  0  0  0  0  0  0  0  0  0  0  0
   27.9865  -12.8100  -16.0321 N   0  0  0  0  0  0  0  0  0  0  0  0
   26.6033  -12.7883  -16.4113 C   0  0  0  0  0  0  0  0  0  0  0  0
   26.1086  -11.7163  -16.8359 O   0  0  0  0  0  0  0  0  0  0  0  0
   25.7592  -13.9894  -16.3158 C   0  0  0  0  0  0  0  0  0  0  0  0
   26.5408  -15.1283  -15.7369 C   0  0  0  0  0  0  0  0  0  0  0  0
   25.7020  -16.3629  -15.6858 C   0  0  2  0  0  0  0  0  0  0  0  0
   26.5507  -17.4284  -15.1167 N   0  0  0  0  0  0  0  0  0  0  0  0
   25.2439  -16.7815  -17.0391 C   0  0  0  0  0  0  0  0  0  0  0  0
   26.0203  -17.5692  -17.8528 O   0  0  0  0  0  0  0  0  0  0  0  0
   24.1233  -16.3992  -17.4312 O   0  0  0  0  0  0  0  0  0  0  0  0
  2  1  1  1
  3  2  1  0
  3  4  1  0
  5  4  1  0
  5  6  1  0
  7  6  1  0
  8  2  1  0
  8  9  2  0
 11 10  1  0
 12 11  1  6
 12 13  1  0
 13  8  1  0
 14 12  1  0
 14 22  1  0
 15 14  2  0
 16 17  1  0
 17 19  1  0
 18 17  2  0
 19 20  1  0
 21 20  1  6
 21 22  1  0
 21 23  1  0
 23 25  2  0
 23 24  1  0
M  END
$$$$
