KSQ.pdb
     RDKit          3D

 25 24  0  0  1  0  0  0  0  0999 V2000
   19.8969  -12.8219  -17.5627 N   0  0  0  0  0  0  0  0  0  0  0  0
   20.7807  -11.6946  -17.8101 C   0  0  1  0  0  0  0  0  0  0  0  0
   21.0450  -11.6089  -19.2790 C   0  0  0  0  0  0  0  0  0  0  0  0
   21.1937  -12.9720  -19.9199 C   0  0  0  0  0  0  0  0  0  0  0  0
   21.4380  -12.8395  -21.4192 C   0  0  0  0  0  0  0  0  0  0  0  0
   21.4932  -14.2047  -22.0718 C   0  0  0  0  0  0  0  0  0  0  0  0
   21.5979  -13.9881  -23.4989 N   0  0  0  0  0  0  0  0  0  0  0  0
   20.2213  -10.4398  -17.2559 C   0  0  0  0  0  0  0  0  0  0  0  0
   19.1564  -10.0070  -17.7545 O   0  0  0  0  0  0  0  0  0  0  0  0
   20.2965   -9.3701  -13.4706 O   0  0  0  0  0  0  0  0  0  0  0  0
   19.4572   -8.7494  -14.4001 C   0  0  0  0  0  0  0  0  0  0  0  0
   20.1923   -8.5131  -15.7077 C   0  0  2  0  0  0  0  0  0  0  0  0
   20.8107   -9.7027  -16.2040 N   0  0  0  0  0  0  0  0  0  0  0  0
   21.2531   -7.5091  -15.4150 C   0  0  0  0  0  0  0  0  0  0  0  0
   22.4701   -7.8585  -15.3387 O   0  0  0  0  0  0  0  0  0  0  0  0
   21.0620   -1.6110  -17.1186 N   0  0  0  0  0  0  0  0  0  0  0  0
   22.1979   -1.6284  -16.2429 C   0  0  0  0  0  0  0  0  0  0  0  0
   22.9125   -0.6005  -16.1578 O   0  0  0  0  0  0  0  0  0  0  0  0
   22.5385   -2.8171  -15.4460 C   0  0  0  0  0  0  0  0  0  0  0  0
   21.5491   -3.9126  -15.6992 C   0  0  0  0  0  0  0  0  0  0  0  0
   21.8830   -5.1157  -14.8798 C   0  0  2  0  0  0  0  0  0  0  0  0
   20.8871   -6.1505  -15.2214 N   0  0  0  0  0  0  0  0  0  0  0  0
   21.8056   -4.8342  -13.4199 C   0  0  0  0  0  0  0  0  0  0  0  0
   20.7785   -5.3140  -12.6452 O   0  0  0  0  0  0  0  0  0  0  0  0
   22.7044   -4.1429  -12.9001 O   0  0  0  0  0  0  0  0  0  0  0  0
  2  1  1  6
  3  2  1  0
  3  4  1  0
  5  4  1  0
  5  6  1  0
  7  6  1  0
  8  2  1  0
  8  9  2  0
 11 10  1  0
 12 11  1  1
 12 13  1  0
 13  8  1  0
 14 12  1  0
 14 22  1  0
 15 14  2  0
 16 17  1  0
 17 19  1  0
 18 17  2  0
 19 20  1  0
 21 20  1  6
 21 22  1  0
 21 23  1  0
 23 25  2  0
 23 24  1  0
M  END
$$$$
