KSQ.pdb
     RDKit          3D

 25 24  0  0  1  0  0  0  0  0999 V2000
   17.0526  -14.5723  -17.0592 N   0  0  0  0  0  0  0  0  0  0  0  0
   16.6377  -13.2982  -17.6230 C   0  0  1  0  0  0  0  0  0  0  0  0
   15.2141  -13.4128  -18.0645 C   0  0  0  0  0  0  0  0  0  0  0  0
   15.0151  -14.5015  -19.0971 C   0  0  0  0  0  0  0  0  0  0  0  0
   13.5389  -14.6473  -19.4499 C   0  0  0  0  0  0  0  0  0  0  0  0
   13.3366  -15.7799  -20.4343 C   0  0  0  0  0  0  0  0  0  0  0  0
   11.9097  -15.9207  -20.6307 N   0  0  0  0  0  0  0  0  0  0  0  0
   16.8511  -12.1897  -16.6637 C   0  0  0  0  0  0  0  0  0  0  0  0
   16.0684  -12.1046  -15.6889 O   0  0  0  0  0  0  0  0  0  0  0  0
   20.4483  -10.7304  -15.7416 O   0  0  0  0  0  0  0  0  0  0  0  0
   19.3304  -10.5772  -14.9167 C   0  0  0  0  0  0  0  0  0  0  0  0
   18.0965  -10.2627  -15.7441 C   0  0  2  0  0  0  0  0  0  0  0  0
   17.8779  -11.2255  -16.7781 N   0  0  0  0  0  0  0  0  0  0  0  0
   18.3419   -8.9343  -16.3718 C   0  0  0  0  0  0  0  0  0  0  0  0
   18.8111   -8.8519  -17.5474 O   0  0  0  0  0  0  0  0  0  0  0  0
   14.3311   -3.6884  -16.8060 N   0  0  0  0  0  0  0  0  0  0  0  0
   15.1039   -4.5821  -15.9926 C   0  0  0  0  0  0  0  0  0  0  0  0
   14.8539   -4.6528  -14.7651 O   0  0  0  0  0  0  0  0  0  0  0  0
   16.1742   -5.4137  -16.5644 C   0  0  0  0  0  0  0  0  0  0  0  0
   17.3382   -5.4801  -15.6243 C   0  0  0  0  0  0  0  0  0  0  0  0
   18.3799   -6.4122  -16.1501 C   0  0  2  0  0  0  0  0  0  0  0  0
   18.0440   -7.7554  -15.6379 N   0  0  0  0  0  0  0  0  0  0  0  0
   19.7442   -6.0440  -15.6815 C   0  0  0  0  0  0  0  0  0  0  0  0
   20.3717   -4.9009  -16.1116 O   0  0  0  0  0  0  0  0  0  0  0  0
   20.3206   -6.8031  -14.8770 O   0  0  0  0  0  0  0  0  0  0  0  0
  2  1  1  1
  3  2  1  0
  3  4  1  0
  5  4  1  0
  5  6  1  0
  7  6  1  0
  8  2  1  0
  8  9  2  0
 11 10  1  0
 12 11  1  6
 12 13  1  0
 13  8  1  0
 14 12  1  0
 14 22  1  0
 15 14  2  0
 16 17  1  0
 17 19  1  0
 18 17  2  0
 19 20  1  0
 21 20  1  1
 21 22  1  0
 21 23  1  0
 23 25  2  0
 23 24  1  0
M  END
$$$$
