KSQ.pdb
     RDKit          3D

 25 24  0  0  1  0  0  0  0  0999 V2000
   25.2600  -21.6924  -14.5722 N   0  0  0  0  0  0  0  0  0  0  0  0
   23.8507  -21.7571  -14.9228 C   0  0  1  0  0  0  0  0  0  0  0  0
   23.5818  -23.0742  -15.5766 C   0  0  0  0  0  0  0  0  0  0  0  0
   24.5606  -23.3770  -16.6907 C   0  0  0  0  0  0  0  0  0  0  0  0
   25.4237  -24.5834  -16.3378 C   0  0  0  0  0  0  0  0  0  0  0  0
   26.4242  -24.8623  -17.4396 C   0  0  0  0  0  0  0  0  0  0  0  0
   27.2357  -25.9780  -17.0024 N   0  0  0  0  0  0  0  0  0  0  0  0
   22.9901  -21.5195  -13.7406 C   0  0  0  0  0  0  0  0  0  0  0  0
   23.5355  -21.5268  -12.6126 O   0  0  0  0  0  0  0  0  0  0  0  0
   19.2026  -19.9099  -13.9513 O   0  0  0  0  0  0  0  0  0  0  0  0
   19.9225  -19.8413  -12.7552 C   0  0  0  0  0  0  0  0  0  0  0  0
   20.8410  -21.0426  -12.6163 C   0  0  2  0  0  0  0  0  0  0  0  0
   21.5978  -21.2861  -13.8045 N   0  0  0  0  0  0  0  0  0  0  0  0
   19.9589  -22.2157  -12.3624 C   0  0  0  0  0  0  0  0  0  0  0  0
   19.4796  -22.8847  -13.3277 O   0  0  0  0  0  0  0  0  0  0  0  0
   19.3831  -25.0290   -6.7659 N   0  0  0  0  0  0  0  0  0  0  0  0
   18.2642  -25.5495   -7.4970 C   0  0  0  0  0  0  0  0  0  0  0  0
   17.5384  -26.4181   -6.9557 O   0  0  0  0  0  0  0  0  0  0  0  0
   17.9507  -25.0874   -8.8580 C   0  0  0  0  0  0  0  0  0  0  0  0
   18.9069  -24.0125   -9.2743 C   0  0  0  0  0  0  0  0  0  0  0  0
   18.6832  -23.6411  -10.7034 C   0  0  2  0  0  0  0  0  0  0  0  0
   19.6583  -22.5798  -11.0229 N   0  0  0  0  0  0  0  0  0  0  0  0
   17.3082  -23.1190  -10.9344 C   0  0  0  0  0  0  0  0  0  0  0  0
   16.3183  -23.9041  -11.4719 O   0  0  0  0  0  0  0  0  0  0  0  0
   17.0631  -21.9353  -10.6267 O   0  0  0  0  0  0  0  0  0  0  0  0
  2  1  1  1
  3  2  1  0
  3  4  1  0
  5  4  1  0
  5  6  1  0
  7  6  1  0
  8  2  1  0
  8  9  2  0
 11 10  1  0
 12 11  1  6
 12 13  1  0
 13  8  1  0
 14 12  1  0
 14 22  1  0
 15 14  2  0
 16 17  1  0
 17 19  1  0
 18 17  2  0
 19 20  1  0
 21 20  1  1
 21 22  1  0
 21 23  1  0
 23 25  2  0
 23 24  1  0
M  END
$$$$
