KSQ.pdb
     RDKit          3D

 25 24  0  0  1  0  0  0  0  0999 V2000
   16.2117  -13.2550  -17.4457 N   0  0  0  0  0  0  0  0  0  0  0  0
   17.4396  -12.8994  -16.7534 C   0  0  1  0  0  0  0  0  0  0  0  0
   18.5720  -13.6531  -17.3732 C   0  0  0  0  0  0  0  0  0  0  0  0
   18.3770  -15.1523  -17.3006 C   0  0  0  0  0  0  0  0  0  0  0  0
   19.5179  -15.8796  -18.0038 C   0  0  0  0  0  0  0  0  0  0  0  0
   19.3040  -17.3777  -17.9548 C   0  0  0  0  0  0  0  0  0  0  0  0
   20.3804  -17.9842  -18.7084 N   0  0  0  0  0  0  0  0  0  0  0  0
   17.6567  -11.4341  -16.7600 C   0  0  0  0  0  0  0  0  0  0  0  0
   17.6135  -10.8441  -17.8646 O   0  0  0  0  0  0  0  0  0  0  0  0
   18.2480   -9.0824  -13.3064 O   0  0  0  0  0  0  0  0  0  0  0  0
   17.6440   -8.5255  -14.4372 C   0  0  0  0  0  0  0  0  0  0  0  0
   18.0971   -9.2478  -15.6938 C   0  0  2  0  0  0  0  0  0  0  0  0
   17.9085  -10.6621  -15.6033 N   0  0  0  0  0  0  0  0  0  0  0  0
   19.5532   -8.9676  -15.8347 C   0  0  0  0  0  0  0  0  0  0  0  0
   20.3654   -9.8983  -16.1235 O   0  0  0  0  0  0  0  0  0  0  0  0
   24.6360   -6.9871  -19.6844 N   0  0  0  0  0  0  0  0  0  0  0  0
   23.3797   -7.3366  -19.0869 C   0  0  0  0  0  0  0  0  0  0  0  0
   22.5013   -7.8808  -19.7986 O   0  0  0  0  0  0  0  0  0  0  0  0
   23.1027   -7.0743  -17.6661 C   0  0  0  0  0  0  0  0  0  0  0  0
   21.6978   -7.4692  -17.3297 C   0  0  0  0  0  0  0  0  0  0  0  0
   21.4374   -7.2764  -15.8718 C   0  0  2  0  0  0  0  0  0  0  0  0
   20.0258   -7.6422  -15.6416 N   0  0  0  0  0  0  0  0  0  0  0  0
   21.6449   -5.8635  -15.4511 C   0  0  0  0  0  0  0  0  0  0  0  0
   20.5903   -5.0367  -15.1516 O   0  0  0  0  0  0  0  0  0  0  0  0
   22.8128   -5.4327  -15.3729 O   0  0  0  0  0  0  0  0  0  0  0  0
  2  1  1  6
  3  2  1  0
  3  4  1  0
  5  4  1  0
  5  6  1  0
  7  6  1  0
  8  2  1  0
  8  9  2  0
 11 10  1  0
 12 11  1  1
 12 13  1  0
 13  8  1  0
 14 12  1  0
 14 22  1  0
 15 14  2  0
 16 17  1  0
 17 19  1  0
 18 17  2  0
 19 20  1  0
 21 20  1  6
 21 22  1  0
 21 23  1  0
 23 25  2  0
 23 24  1  0
M  END
$$$$
