KSQ.pdb
     RDKit          3D

 25 24  0  0  1  0  0  0  0  0999 V2000
   28.9894  -27.5110  -16.1408 N   0  0  0  0  0  0  0  0  0  0  0  0
   28.2958  -26.8666  -17.2440 C   0  0  1  0  0  0  0  0  0  0  0  0
   27.0109  -27.5907  -17.4878 C   0  0  0  0  0  0  0  0  0  0  0  0
   27.1716  -28.7435  -18.4553 C   0  0  0  0  0  0  0  0  0  0  0  0
   25.8202  -29.3746  -18.7721 C   0  0  0  0  0  0  0  0  0  0  0  0
   25.1550  -28.6558  -19.9269 C   0  0  0  0  0  0  0  0  0  0  0  0
   23.8610  -29.2739  -20.1217 N   0  0  0  0  0  0  0  0  0  0  0  0
   28.0974  -25.4216  -16.9849 C   0  0  0  0  0  0  0  0  0  0  0  0
   27.6422  -25.0879  -15.8663 O   0  0  0  0  0  0  0  0  0  0  0  0
   29.0405  -20.7978  -17.9830 O   0  0  0  0  0  0  0  0  0  0  0  0
   29.0578  -22.1093  -18.4658 C   0  0  0  0  0  0  0  0  0  0  0  0
   28.2523  -23.0221  -17.5579 C   0  0  2  0  0  0  0  0  0  0  0  0
   28.3879  -24.3994  -17.9165 N   0  0  0  0  0  0  0  0  0  0  0  0
   26.8267  -22.6231  -17.7228 C   0  0  0  0  0  0  0  0  0  0  0  0
   26.0857  -23.2086  -18.5697 O   0  0  0  0  0  0  0  0  0  0  0  0
   21.0719  -21.3303  -13.8377 N   0  0  0  0  0  0  0  0  0  0  0  0
   22.4552  -21.1518  -14.1728 C   0  0  0  0  0  0  0  0  0  0  0  0
   23.2681  -20.8712  -13.2592 O   0  0  0  0  0  0  0  0  0  0  0  0
   22.9374  -21.2926  -15.5555 C   0  0  0  0  0  0  0  0  0  0  0  0
   24.3949  -20.9571  -15.6335 C   0  0  0  0  0  0  0  0  0  0  0  0
   24.8971  -21.1380  -17.0284 C   0  0  2  0  0  0  0  0  0  0  0  0
   26.3026  -21.5761  -16.9190 N   0  0  0  0  0  0  0  0  0  0  0  0
   24.8456  -19.8704  -17.8075 C   0  0  0  0  0  0  0  0  0  0  0  0
   23.6723  -19.3982  -18.3419 O   0  0  0  0  0  0  0  0  0  0  0  0
   25.9039  -19.2308  -17.9714 O   0  0  0  0  0  0  0  0  0  0  0  0
  2  1  1  1
  3  2  1  0
  3  4  1  0
  5  4  1  0
  5  6  1  0
  7  6  1  0
  8  2  1  0
  8  9  2  0
 11 10  1  0
 12 11  1  6
 12 13  1  0
 13  8  1  0
 14 12  1  0
 14 22  1  0
 15 14  2  0
 16 17  1  0
 17 19  1  0
 18 17  2  0
 19 20  1  0
 21 20  1  1
 21 22  1  0
 21 23  1  0
 23 25  2  0
 23 24  1  0
M  END
$$$$
