KSQ.pdb
     RDKit          3D

 25 24  0  0  1  0  0  0  0  0999 V2000
   14.4300  -16.4231    4.3437 N   0  0  0  0  0  0  0  0  0  0  0  0
   15.1069  -17.1692    5.3918 C   0  0  1  0  0  0  0  0  0  0  0  0
   16.0671  -18.1218    4.7553 C   0  0  0  0  0  0  0  0  0  0  0  0
   15.3709  -19.3065    4.1207 C   0  0  0  0  0  0  0  0  0  0  0  0
   16.3717  -20.1884    3.3821 C   0  0  0  0  0  0  0  0  0  0  0  0
   15.6656  -21.3482    2.7121 C   0  0  0  0  0  0  0  0  0  0  0  0
   16.6790  -22.1239    2.0296 N   0  0  0  0  0  0  0  0  0  0  0  0
   15.7612  -16.2613    6.3625 C   0  0  0  0  0  0  0  0  0  0  0  0
   15.9259  -15.0666    6.0227 O   0  0  0  0  0  0  0  0  0  0  0  0
   17.3205  -17.4601   10.0659 O   0  0  0  0  0  0  0  0  0  0  0  0
   16.6669  -16.2259   10.0097 C   0  0  0  0  0  0  0  0  0  0  0  0
   16.6663  -15.6871    8.5900 C   0  0  2  0  0  0  0  0  0  0  0  0
   16.2098  -16.6562    7.6432 N   0  0  0  0  0  0  0  0  0  0  0  0
   18.0799  -15.3393    8.2745 C   0  0  0  0  0  0  0  0  0  0  0  0
   18.7624  -16.0613    7.4859 O   0  0  0  0  0  0  0  0  0  0  0  0
   20.0182   -9.8827    6.8960 N   0  0  0  0  0  0  0  0  0  0  0  0
   21.2731  -10.5490    7.0933 C   0  0  0  0  0  0  0  0  0  0  0  0
   22.3267   -9.9778    6.7219 O   0  0  0  0  0  0  0  0  0  0  0  0
   21.3499  -11.8776    7.7200 C   0  0  0  0  0  0  0  0  0  0  0  0
   19.9745  -12.3987    8.0022 C   0  0  0  0  0  0  0  0  0  0  0  0
   20.0468  -13.7742    8.5796 C   0  0  2  0  0  0  0  0  0  0  0  0
   18.6588  -14.1861    8.8679 N   0  0  0  0  0  0  0  0  0  0  0  0
   20.8327  -13.8069    9.8436 C   0  0  0  0  0  0  0  0  0  0  0  0
   22.1794  -14.0747    9.8501 O   0  0  0  0  0  0  0  0  0  0  0  0
   20.2392  -13.5834   10.9176 O   0  0  0  0  0  0  0  0  0  0  0  0
  2  1  1  6
  3  2  1  0
  3  4  1  0
  5  4  1  0
  5  6  1  0
  7  6  1  0
  8  2  1  0
  8  9  2  0
 11 10  1  0
 12 11  1  1
 12 13  1  0
 13  8  1  0
 14 12  1  0
 14 22  1  0
 15 14  2  0
 16 17  1  0
 17 19  1  0
 18 17  2  0
 19 20  1  0
 21 20  1  1
 21 22  1  0
 21 23  1  0
 23 25  2  0
 23 24  1  0
M  END
$$$$
