KSQ.pdb
     RDKit          3D

 25 24  0  0  1  0  0  0  0  0999 V2000
   15.4184  -10.8715  -16.0269 N   0  0  0  0  0  0  0  0  0  0  0  0
   16.2987  -11.0517  -14.8842 C   0  0  1  0  0  0  0  0  0  0  0  0
   17.4055  -11.9771  -15.2759 C   0  0  0  0  0  0  0  0  0  0  0  0
   16.8995  -13.3458  -15.6777 C   0  0  0  0  0  0  0  0  0  0  0  0
   16.6995  -14.2289  -14.4509 C   0  0  0  0  0  0  0  0  0  0  0  0
   16.2489  -15.6150  -14.8610 C   0  0  0  0  0  0  0  0  0  0  0  0
   16.0235  -16.3646  -13.6437 N   0  0  0  0  0  0  0  0  0  0  0  0
   16.7938   -9.7515  -14.3754 C   0  0  0  0  0  0  0  0  0  0  0  0
   17.1281   -8.8860  -15.2175 O   0  0  0  0  0  0  0  0  0  0  0  0
   17.9528   -9.0225  -10.4451 O   0  0  0  0  0  0  0  0  0  0  0  0
   17.3167   -7.9574  -11.0888 C   0  0  0  0  0  0  0  0  0  0  0  0
   17.3712   -8.1360  -12.5958 C   0  0  2  0  0  0  0  0  0  0  0  0
   16.9126   -9.4267  -13.0051 N   0  0  0  0  0  0  0  0  0  0  0  0
   18.8026   -7.9924  -12.9819 C   0  0  0  0  0  0  0  0  0  0  0  0
   19.4839   -9.0057  -13.3260 O   0  0  0  0  0  0  0  0  0  0  0  0
   21.9270   -9.0639  -15.7904 N   0  0  0  0  0  0  0  0  0  0  0  0
   22.6580   -7.8366  -15.9205 C   0  0  0  0  0  0  0  0  0  0  0  0
   23.8377   -7.8768  -16.3458 O   0  0  0  0  0  0  0  0  0  0  0  0
   22.0564   -6.5406  -15.5704 C   0  0  0  0  0  0  0  0  0  0  0  0
   20.7077   -6.7446  -14.9520 C   0  0  0  0  0  0  0  0  0  0  0  0
   20.7596   -6.4666  -13.4855 C   0  0  2  0  0  0  0  0  0  0  0  0
   19.4002   -6.7042  -12.9611 N   0  0  0  0  0  0  0  0  0  0  0  0
   21.1484   -5.0583  -13.1991 C   0  0  0  0  0  0  0  0  0  0  0  0
   22.4412   -4.7147  -12.8893 O   0  0  0  0  0  0  0  0  0  0  0  0
   20.2663   -4.1777  -13.2455 O   0  0  0  0  0  0  0  0  0  0  0  0
  2  1  1  6
  3  2  1  0
  3  4  1  0
  5  4  1  0
  5  6  1  0
  7  6  1  0
  8  2  1  0
  8  9  2  0
 11 10  1  0
 12 11  1  1
 12 13  1  0
 13  8  1  0
 14 12  1  0
 14 22  1  0
 15 14  2  0
 16 17  1  0
 17 19  1  0
 18 17  2  0
 19 20  1  0
 21 20  1  6
 21 22  1  0
 21 23  1  0
 23 25  2  0
 23 24  1  0
M  END
$$$$
