KSQ.pdb
     RDKit          3D

 25 24  0  0  1  0  0  0  0  0999 V2000
   21.8141  -12.5632  -18.4087 N   0  0  0  0  0  0  0  0  0  0  0  0
   21.1279  -11.2920  -18.5716 C   0  0  1  0  0  0  0  0  0  0  0  0
   19.6855  -11.4810  -18.2277 C   0  0  0  0  0  0  0  0  0  0  0  0
   19.0076  -12.4999  -19.1183 C   0  0  0  0  0  0  0  0  0  0  0  0
   17.5017  -12.5089  -18.8790 C   0  0  0  0  0  0  0  0  0  0  0  0
   16.8191  -13.4772  -19.8219 C   0  0  0  0  0  0  0  0  0  0  0  0
   15.4002  -13.4086  -19.5453 N   0  0  0  0  0  0  0  0  0  0  0  0
   21.7717  -10.2257  -17.7697 C   0  0  0  0  0  0  0  0  0  0  0  0
   21.9356  -10.4365  -16.5455 O   0  0  0  0  0  0  0  0  0  0  0  0
   22.5302   -6.2697  -19.0739 O   0  0  0  0  0  0  0  0  0  0  0  0
   23.4719   -6.8917  -18.2493 C   0  0  0  0  0  0  0  0  0  0  0  0
   22.8261   -8.0124  -17.4538 C   0  0  2  0  0  0  0  0  0  0  0  0
   22.2113   -8.9901  -18.2964 N   0  0  0  0  0  0  0  0  0  0  0  0
   21.7739   -7.3757  -16.6135 C   0  0  0  0  0  0  0  0  0  0  0  0
   20.5448   -7.5654  -16.8634 O   0  0  0  0  0  0  0  0  0  0  0  0
   19.2722   -9.1410  -12.4979 N   0  0  0  0  0  0  0  0  0  0  0  0
   18.8586   -7.7906  -12.2471 C   0  0  0  0  0  0  0  0  0  0  0  0
   17.9133   -7.5854  -11.4480 O   0  0  0  0  0  0  0  0  0  0  0  0
   19.5169   -6.6490  -12.9010 C   0  0  0  0  0  0  0  0  0  0  0  0
   20.5718   -7.1312  -13.8485 C   0  0  0  0  0  0  0  0  0  0  0  0
   21.1736   -5.9811  -14.5871 C   0  0  2  0  0  0  0  0  0  0  0  0
   22.1617   -6.5503  -15.5247 N   0  0  0  0  0  0  0  0  0  0  0  0
   21.8666   -5.0330  -13.6721 C   0  0  0  0  0  0  0  0  0  0  0  0
   21.1945   -4.0134  -13.0443 O   0  0  0  0  0  0  0  0  0  0  0  0
   23.0902   -5.1805  -13.4798 O   0  0  0  0  0  0  0  0  0  0  0  0
  2  1  1  1
  3  2  1  0
  3  4  1  0
  5  4  1  0
  5  6  1  0
  7  6  1  0
  8  2  1  0
  8  9  2  0
 11 10  1  0
 12 11  1  6
 12 13  1  0
 13  8  1  0
 14 12  1  0
 14 22  1  0
 15 14  2  0
 16 17  1  0
 17 19  1  0
 18 17  2  0
 19 20  1  0
 21 20  1  1
 21 22  1  0
 21 23  1  0
 23 25  2  0
 23 24  1  0
M  END
$$$$
