KSQ.pdb
     RDKit          3D

 25 24  0  0  1  0  0  0  0  0999 V2000
   15.7613  -13.0634  -14.5822 N   0  0  0  0  0  0  0  0  0  0  0  0
   17.0934  -13.3944  -15.0609 C   0  0  1  0  0  0  0  0  0  0  0  0
   16.9780  -14.4857  -16.0761 C   0  0  0  0  0  0  0  0  0  0  0  0
   15.5770  -15.0527  -16.1584 C   0  0  0  0  0  0  0  0  0  0  0  0
   15.4799  -16.0919  -17.2699 C   0  0  0  0  0  0  0  0  0  0  0  0
   14.0873  -16.6838  -17.3245 C   0  0  0  0  0  0  0  0  0  0  0  0
   14.0475  -17.5684  -18.4692 N   0  0  0  0  0  0  0  0  0  0  0  0
   17.7902  -12.1971  -15.5856 C   0  0  0  0  0  0  0  0  0  0  0  0
   18.8983  -12.3668  -16.1454 O   0  0  0  0  0  0  0  0  0  0  0  0
   17.8762   -7.4840  -16.7309 O   0  0  0  0  0  0  0  0  0  0  0  0
   17.1983   -8.4957  -16.0449 C   0  0  0  0  0  0  0  0  0  0  0  0
   18.0101   -9.7790  -16.0494 C   0  0  2  0  0  0  0  0  0  0  0  0
   17.2858  -10.8800  -15.4952 N   0  0  0  0  0  0  0  0  0  0  0  0
   19.2072   -9.5190  -15.2019 C   0  0  0  0  0  0  0  0  0  0  0  0
   19.1480   -9.6516  -13.9418 O   0  0  0  0  0  0  0  0  0  0  0  0
   24.6317  -11.6724  -16.0697 N   0  0  0  0  0  0  0  0  0  0  0  0
   24.8588  -10.7820  -14.9683 C   0  0  0  0  0  0  0  0  0  0  0  0
   25.9084  -10.9100  -14.2928 O   0  0  0  0  0  0  0  0  0  0  0  0
   23.8946   -9.7276  -14.6184 C   0  0  0  0  0  0  0  0  0  0  0  0
   22.6498   -9.8695  -15.4390 C   0  0  0  0  0  0  0  0  0  0  0  0
   21.6419   -8.8428  -15.0384 C   0  0  2  0  0  0  0  0  0  0  0  0
   20.4213   -9.1194  -15.8213 N   0  0  0  0  0  0  0  0  0  0  0  0
   22.1054   -7.4604  -15.3389 C   0  0  0  0  0  0  0  0  0  0  0  0
   22.8216   -6.7244  -14.4274 O   0  0  0  0  0  0  0  0  0  0  0  0
   21.8289   -6.9703  -16.4521 O   0  0  0  0  0  0  0  0  0  0  0  0
  2  1  1  6
  3  2  1  0
  3  4  1  0
  5  4  1  0
  5  6  1  0
  7  6  1  0
  8  2  1  0
  8  9  2  0
 11 10  1  0
 12 11  1  1
 12 13  1  0
 13  8  1  0
 14 12  1  0
 14 22  1  0
 15 14  2  0
 16 17  1  0
 17 19  1  0
 18 17  2  0
 19 20  1  0
 21 20  1  6
 21 22  1  0
 21 23  1  0
 23 25  2  0
 23 24  1  0
M  END
$$$$
