IIC.pdb
     RDKit          3D

 23 22  0  0  1  0  0  0  0  0999 V2000
   21.9281  -14.7822  -18.1506 C   0  0  0  0  0  0  0  0  0  0  0  0
   22.4899  -13.5923  -17.4133 C   0  0  0  0  0  0  0  0  0  0  0  0
   23.4853  -12.8178  -18.2541 C   0  0  2  0  0  0  0  0  0  0  0  0
   24.6015  -13.7324  -18.6298 C   0  0  0  0  0  0  0  0  0  0  0  0
   23.9168  -11.5512  -17.5482 C   0  0  2  0  0  0  0  0  0  0  0  0
   24.3140  -12.0186  -16.2004 N   0  0  0  0  0  0  0  0  0  0  0  0
   22.7839  -10.6396  -17.3593 C   0  0  0  0  0  0  0  0  0  0  0  0
   22.1962  -10.1299  -18.3749 O   0  0  0  0  0  0  0  0  0  0  0  0
   18.1639  -11.6343  -15.5246 C   0  0  0  0  0  0  0  0  0  0  0  0
   19.2498  -10.8613  -16.2382 C   0  0  0  0  0  0  0  0  0  0  0  0
   19.9674   -9.9167  -15.2959 C   0  0  2  0  0  0  0  0  0  0  0  0
   19.0085   -8.8967  -14.7800 C   0  0  0  0  0  0  0  0  0  0  0  0
   21.1588   -9.2605  -16.0212 C   0  0  2  0  0  0  0  0  0  0  0  0
   22.2252  -10.2319  -16.1124 N   0  0  0  0  0  0  0  0  0  0  0  0
   21.4645   -8.0495  -15.2681 C   0  0  0  0  0  0  0  0  0  0  0  0
   21.9512   -8.2498  -14.1014 O   0  0  0  0  0  0  0  0  0  0  0  0
   21.2899   -6.7145  -15.6687 N   0  0  0  0  0  0  0  0  0  0  0  0
   21.8041   -5.6359  -14.8264 C   0  0  1  0  0  0  0  0  0  0  0  0
   23.0414   -5.0108  -15.4270 C   0  0  0  0  0  0  0  0  0  0  0  0
   23.4795   -3.5867  -14.3885 S   0  0  0  0  0  0  0  0  0  0  0  0
   20.7609   -4.5841  -14.7738 C   0  0  0  0  0  0  0  0  0  0  0  0
   20.0611   -4.2736  -15.7752 O   0  0  0  0  0  0  0  0  0  0  0  0
   20.5111   -3.8899  -13.6010 O   0  0  0  0  0  0  0  0  0  0  0  0
  1  2  1  0
  3  2  1  0
  3  4  1  1
  5  3  1  0
  5  6  1  1
  7  8  2  0
  7  5  1  0
  9 10  1  0
 10 11  1  0
 11 13  1  0
 11 12  1  6
 13 14  1  1
 14  7  1  0
 15 17  1  0
 15 13  1  0
 16 15  2  0
 18 17  1  0
 18 21  1  0
 18 19  1  6
 20 19  1  0
 21 23  1  0
 22 21  2  0
M  END
$$$$
