IIC.pdb
     RDKit          3D

 23 22  0  0  1  0  0  0  0  0999 V2000
   21.3061  -20.8578   -9.3845 C   0  0  0  0  0  0  0  0  0  0  0  0
   22.7400  -21.1107   -8.9905 C   0  0  0  0  0  0  0  0  0  0  0  0
   23.7130  -20.6795  -10.0700 C   0  0  2  0  0  0  0  0  0  0  0  0
   23.2674  -21.2599  -11.3692 C   0  0  0  0  0  0  0  0  0  0  0  0
   25.1349  -21.0191   -9.6807 C   0  0  2  0  0  0  0  0  0  0  0  0
   25.3626  -20.2223   -8.4534 N   0  0  0  0  0  0  0  0  0  0  0  0
   26.0879  -20.5294  -10.6818 C   0  0  0  0  0  0  0  0  0  0  0  0
   26.2629  -19.2717  -10.8376 O   0  0  0  0  0  0  0  0  0  0  0  0
   30.9821  -21.8827  -10.9956 C   0  0  0  0  0  0  0  0  0  0  0  0
   29.6496  -21.1852  -11.1495 C   0  0  0  0  0  0  0  0  0  0  0  0
   29.0945  -21.3542  -12.5489 C   0  0  2  0  0  0  0  0  0  0  0  0
   30.0106  -20.7092  -13.5343 C   0  0  0  0  0  0  0  0  0  0  0  0
   27.6734  -20.7616  -12.6224 C   0  0  2  0  0  0  0  0  0  0  0  0
   26.8894  -21.3289  -11.5487 N   0  0  0  0  0  0  0  0  0  0  0  0
   27.1967  -21.0383  -13.9727 C   0  0  0  0  0  0  0  0  0  0  0  0
   26.6693  -22.1937  -14.1310 O   0  0  0  0  0  0  0  0  0  0  0  0
   27.2486  -20.1984  -15.0974 N   0  0  0  0  0  0  0  0  0  0  0  0
   26.0653  -20.0525  -15.9434 C   0  0  1  0  0  0  0  0  0  0  0  0
   24.9154  -19.4380  -15.1802 C   0  0  0  0  0  0  0  0  0  0  0  0
   23.5043  -19.3473  -16.3199 S   0  0  0  0  0  0  0  0  0  0  0  0
   26.4192  -19.1152  -17.0360 C   0  0  0  0  0  0  0  0  0  0  0  0
   27.0982  -18.0715  -16.8397 O   0  0  0  0  0  0  0  0  0  0  0  0
   26.0095  -19.3551  -18.3377 O   0  0  0  0  0  0  0  0  0  0  0  0
  1  2  1  0
  3  2  1  0
  3  4  1  6
  5  3  1  0
  5  6  1  1
  7  8  2  0
  7  5  1  0
  9 10  1  0
 10 11  1  0
 11 13  1  0
 11 12  1  6
 13 14  1  1
 14  7  1  0
 15 17  1  0
 15 13  1  0
 16 15  2  0
 18 17  1  0
 18 21  1  0
 18 19  1  1
 20 19  1  0
 21 23  1  0
 22 21  2  0
M  END
$$$$
