IIC.pdb
     RDKit          3D

 23 22  0  0  1  0  0  0  0  0999 V2000
   26.2116  -19.6697  -19.7175 C   0  0  0  0  0  0  0  0  0  0  0  0
   27.1406  -20.1590  -18.6345 C   0  0  0  0  0  0  0  0  0  0  0  0
   26.3857  -20.6931  -17.4334 C   0  0  2  0  0  0  0  0  0  0  0  0
   25.3383  -19.7024  -17.0528 C   0  0  0  0  0  0  0  0  0  0  0  0
   27.3392  -21.0641  -16.3190 C   0  0  2  0  0  0  0  0  0  0  0  0
   28.0170  -22.2788  -16.8270 N   0  0  0  0  0  0  0  0  0  0  0  0
   26.6101  -21.4643  -15.1113 C   0  0  0  0  0  0  0  0  0  0  0  0
   25.9867  -22.5811  -15.0805 O   0  0  0  0  0  0  0  0  0  0  0  0
   28.5838  -20.9113  -10.2903 C   0  0  0  0  0  0  0  0  0  0  0  0
   27.7392  -21.4578  -11.4188 C   0  0  0  0  0  0  0  0  0  0  0  0
   26.3890  -20.7736  -11.4814 C   0  0  2  0  0  0  0  0  0  0  0  0
   25.5768  -21.1544  -10.2891 C   0  0  0  0  0  0  0  0  0  0  0  0
   25.6757  -21.1446  -12.7966 C   0  0  2  0  0  0  0  0  0  0  0  0
   26.5082  -20.7202  -13.8993 N   0  0  0  0  0  0  0  0  0  0  0  0
   24.3566  -20.5270  -12.7211 C   0  0  0  0  0  0  0  0  0  0  0  0
   24.3590  -19.2475  -12.7504 O   0  0  0  0  0  0  0  0  0  0  0  0
   23.1081  -21.1630  -12.6225 N   0  0  0  0  0  0  0  0  0  0  0  0
   21.8924  -20.3556  -12.5367 C   0  0  1  0  0  0  0  0  0  0  0  0
   22.0522  -19.2235  -11.5492 C   0  0  0  0  0  0  0  0  0  0  0  0
   21.6439  -19.8838   -9.9073 S   0  0  0  0  0  0  0  0  0  0  0  0
   21.6734  -19.7479  -13.8709 C   0  0  0  0  0  0  0  0  0  0  0  0
   22.5665  -19.7262  -14.7602 O   0  0  0  0  0  0  0  0  0  0  0  0
   20.4568  -19.1703  -14.1970 O   0  0  0  0  0  0  0  0  0  0  0  0
  1  2  1  0
  3  2  1  0
  3  4  1  1
  5  3  1  0
  5  6  1  6
  7  8  2  0
  7  5  1  0
  9 10  1  0
 10 11  1  0
 11 13  1  0
 11 12  1  1
 13 14  1  6
 14  7  1  0
 15 17  1  0
 15 13  1  0
 16 15  2  0
 18 17  1  0
 18 21  1  0
 18 19  1  1
 20 19  1  0
 21 23  1  0
 22 21  2  0
M  END
$$$$
