IIC.pdb
     RDKit          3D

 23 22  0  0  1  0  0  0  0  0999 V2000
   24.7656  -14.6211  -14.6983 C   0  0  0  0  0  0  0  0  0  0  0  0
   23.5122  -14.4621  -15.5223 C   0  0  0  0  0  0  0  0  0  0  0  0
   23.2459  -13.0140  -15.8824 C   0  0  2  0  0  0  0  0  0  0  0  0
   23.3100  -12.1962  -14.6372 C   0  0  0  0  0  0  0  0  0  0  0  0
   21.9551  -12.8807  -16.6601 C   0  0  2  0  0  0  0  0  0  0  0  0
   22.2162  -13.6375  -17.9059 N   0  0  0  0  0  0  0  0  0  0  0  0
   21.7184  -11.4889  -17.0564 C   0  0  0  0  0  0  0  0  0  0  0  0
   22.5585  -10.8862  -17.8099 O   0  0  0  0  0  0  0  0  0  0  0  0
   17.6648   -9.8171  -19.6337 C   0  0  0  0  0  0  0  0  0  0  0  0
   19.0712   -9.7553  -19.0826 C   0  0  0  0  0  0  0  0  0  0  0  0
   19.1044   -9.0876  -17.7231 C   0  0  2  0  0  0  0  0  0  0  0  0
   18.7753   -7.6394  -17.8663 C   0  0  0  0  0  0  0  0  0  0  0  0
   20.4868   -9.2943  -17.0731 C   0  0  2  0  0  0  0  0  0  0  0  0
   20.6029  -10.6819  -16.6857 N   0  0  0  0  0  0  0  0  0  0  0  0
   20.5653   -8.3224  -15.9884 C   0  0  0  0  0  0  0  0  0  0  0  0
   19.8729   -8.6152  -14.9526 O   0  0  0  0  0  0  0  0  0  0  0  0
   21.2997   -7.1257  -15.9507 N   0  0  0  0  0  0  0  0  0  0  0  0
   21.3619   -6.3568  -14.7089 C   0  0  1  0  0  0  0  0  0  0  0  0
   22.7863   -6.0020  -14.3520 C   0  0  0  0  0  0  0  0  0  0  0  0
   22.7187   -4.9072  -12.9046 S   0  0  0  0  0  0  0  0  0  0  0  0
   20.6371   -5.0850  -14.9427 C   0  0  0  0  0  0  0  0  0  0  0  0
   19.8025   -4.6199  -14.1205 O   0  0  0  0  0  0  0  0  0  0  0  0
   20.8535   -4.3460  -16.0947 O   0  0  0  0  0  0  0  0  0  0  0  0
  1  2  1  0
  3  2  1  0
  3  4  1  1
  5  3  1  0
  5  6  1  6
  7  8  2  0
  7  5  1  0
  9 10  1  0
 10 11  1  0
 11 13  1  0
 11 12  1  6
 13 14  1  1
 14  7  1  0
 15 17  1  0
 15 13  1  0
 16 15  2  0
 18 17  1  0
 18 21  1  0
 18 19  1  6
 20 19  1  0
 21 23  1  0
 22 21  2  0
M  END
$$$$
