IIC.pdb
     RDKit          3D

 23 22  0  0  1  0  0  0  0  0999 V2000
   17.4251  -12.3057  -14.2460 C   0  0  0  0  0  0  0  0  0  0  0  0
   16.8061  -12.2251  -12.8728 C   0  0  0  0  0  0  0  0  0  0  0  0
   16.3314  -10.8241  -12.5422 C   0  0  2  0  0  0  0  0  0  0  0  0
   17.4622   -9.8767  -12.7592 C   0  0  0  0  0  0  0  0  0  0  0  0
   15.7221  -10.7741  -11.1583 C   0  0  2  0  0  0  0  0  0  0  0  0
   14.6232  -11.7646  -11.2228 N   0  0  0  0  0  0  0  0  0  0  0  0
   15.0987   -9.4718  -10.9023 C   0  0  0  0  0  0  0  0  0  0  0  0
   14.3263   -8.9487  -11.7777 O   0  0  0  0  0  0  0  0  0  0  0  0
   12.1732   -7.9952   -6.7843 C   0  0  0  0  0  0  0  0  0  0  0  0
   12.8078   -8.0589   -8.1551 C   0  0  0  0  0  0  0  0  0  0  0  0
   14.0557   -7.2030   -8.2279 C   0  0  2  0  0  0  0  0  0  0  0  0
   13.7104   -5.7839   -7.9228 C   0  0  0  0  0  0  0  0  0  0  0  0
   14.7049   -7.3431   -9.6189 C   0  0  2  0  0  0  0  0  0  0  0  0
   15.2555   -8.6749   -9.7304 N   0  0  0  0  0  0  0  0  0  0  0  0
   15.6627   -6.2482   -9.7225 C   0  0  0  0  0  0  0  0  0  0  0  0
   16.6579   -6.3262   -8.9215 O   0  0  0  0  0  0  0  0  0  0  0  0
   15.6195   -5.1397  -10.5842 N   0  0  0  0  0  0  0  0  0  0  0  0
   16.7023   -4.1580  -10.5510 C   0  0  1  0  0  0  0  0  0  0  0  0
   17.6095   -4.2985  -11.7508 C   0  0  0  0  0  0  0  0  0  0  0  0
   16.5434   -4.4411  -13.2142 S   0  0  0  0  0  0  0  0  0  0  0  0
   16.0799   -2.8147  -10.6249 C   0  0  0  0  0  0  0  0  0  0  0  0
   14.8484   -2.6495  -10.8370 O   0  0  0  0  0  0  0  0  0  0  0  0
   16.8420   -1.6691  -10.4606 O   0  0  0  0  0  0  0  0  0  0  0  0
  1  2  1  0
  3  2  1  0
  3  4  1  1
  5  3  1  0
  5  6  1  6
  7  8  2  0
  7  5  1  0
  9 10  1  0
 10 11  1  0
 11 13  1  0
 11 12  1  6
 13 14  1  1
 14  7  1  0
 15 17  1  0
 15 13  1  0
 16 15  2  0
 18 17  1  0
 18 21  1  0
 18 19  1  6
 20 19  1  0
 21 23  1  0
 22 21  2  0
M  END
$$$$
