IIC.pdb
     RDKit          3D

 23 22  0  0  1  0  0  0  0  0999 V2000
   19.9412  -21.7067  -11.7698 C   0  0  0  0  0  0  0  0  0  0  0  0
   21.2005  -21.7335  -10.9399 C   0  0  0  0  0  0  0  0  0  0  0  0
   22.3787  -21.1207  -11.6707 C   0  0  2  0  0  0  0  0  0  0  0  0
   22.4473  -21.7108  -13.0383 C   0  0  0  0  0  0  0  0  0  0  0  0
   23.6477  -21.2588  -10.8585 C   0  0  2  0  0  0  0  0  0  0  0  0
   23.3778  -20.4525   -9.6461 N   0  0  0  0  0  0  0  0  0  0  0  0
   24.7820  -20.6263  -11.5393 C   0  0  0  0  0  0  0  0  0  0  0  0
   24.8530  -19.3512  -11.6150 O   0  0  0  0  0  0  0  0  0  0  0  0
   29.6344  -21.4866  -10.2571 C   0  0  0  0  0  0  0  0  0  0  0  0
   28.3780  -20.8734  -10.8325 C   0  0  0  0  0  0  0  0  0  0  0  0
   28.2849  -21.1016  -12.3273 C   0  0  2  0  0  0  0  0  0  0  0  0
   29.4288  -20.4300  -13.0105 C   0  0  0  0  0  0  0  0  0  0  0  0
   26.9294  -20.5874  -12.8510 C   0  0  2  0  0  0  0  0  0  0  0  0
   25.8772  -21.2968  -12.1590 N   0  0  0  0  0  0  0  0  0  0  0  0
   26.9698  -20.7634  -14.2982 C   0  0  0  0  0  0  0  0  0  0  0  0
   26.9226  -21.9796  -14.6939 O   0  0  0  0  0  0  0  0  0  0  0  0
   27.0524  -19.7705  -15.2883 N   0  0  0  0  0  0  0  0  0  0  0  0
   27.0337  -20.1553  -16.6986 C   0  0  1  0  0  0  0  0  0  0  0  0
   25.6279  -20.1500  -17.2519 C   0  0  0  0  0  0  0  0  0  0  0  0
   24.7484  -18.7692  -16.4657 S   0  0  0  0  0  0  0  0  0  0  0  0
   27.8036  -19.1310  -17.4438 C   0  0  0  0  0  0  0  0  0  0  0  0
   28.2358  -18.0795  -16.8994 O   0  0  0  0  0  0  0  0  0  0  0  0
   28.0823  -19.2934  -18.7914 O   0  0  0  0  0  0  0  0  0  0  0  0
  1  2  1  0
  3  2  1  0
  3  4  1  6
  5  3  1  0
  5  6  1  1
  7  8  2  0
  7  5  1  0
  9 10  1  0
 10 11  1  0
 11 13  1  0
 11 12  1  6
 13 14  1  1
 14  7  1  0
 15 17  1  0
 15 13  1  0
 16 15  2  0
 18 17  1  0
 18 21  1  0
 18 19  1  6
 20 19  1  0
 21 23  1  0
 22 21  2  0
M  END
$$$$
