IIC.pdb
     RDKit          3D

 23 22  0  0  1  0  0  0  0  0999 V2000
   16.2306  -18.4970  -17.7481 C   0  0  0  0  0  0  0  0  0  0  0  0
   17.6739  -18.6514  -17.3375 C   0  0  0  0  0  0  0  0  0  0  0  0
   18.2064  -17.4116  -16.6468 C   0  0  2  0  0  0  0  0  0  0  0  0
   17.8309  -16.2184  -17.4584 C   0  0  0  0  0  0  0  0  0  0  0  0
   19.6872  -17.5447  -16.3669 C   0  0  2  0  0  0  0  0  0  0  0  0
   19.7600  -18.6460  -15.3796 N   0  0  0  0  0  0  0  0  0  0  0  0
   20.2084  -16.3476  -15.6995 C   0  0  0  0  0  0  0  0  0  0  0  0
   19.7627  -16.0112  -14.5485 O   0  0  0  0  0  0  0  0  0  0  0  0
   25.3170  -15.0323  -15.4530 C   0  0  0  0  0  0  0  0  0  0  0  0
   23.8374  -15.1619  -15.1704 C   0  0  0  0  0  0  0  0  0  0  0  0
   23.0626  -13.9838  -15.7244 C   0  0  2  0  0  0  0  0  0  0  0  0
   23.5026  -12.7294  -15.0469 C   0  0  0  0  0  0  0  0  0  0  0  0
   21.5501  -14.2239  -15.5483 C   0  0  2  0  0  0  0  0  0  0  0  0
   21.2087  -15.4658  -16.2043 N   0  0  0  0  0  0  0  0  0  0  0  0
   20.8950  -13.0290  -16.0680 C   0  0  0  0  0  0  0  0  0  0  0  0
   21.0718  -12.8189  -17.3181 O   0  0  0  0  0  0  0  0  0  0  0  0
   20.1070  -12.1007  -15.3677 N   0  0  0  0  0  0  0  0  0  0  0  0
   19.4294  -11.0323  -16.1003 C   0  0  1  0  0  0  0  0  0  0  0  0
   18.1063  -10.6804  -15.4617 C   0  0  0  0  0  0  0  0  0  0  0  0
   17.1008  -12.1927  -15.4454 S   0  0  0  0  0  0  0  0  0  0  0  0
   20.2911   -9.8288  -16.0190 C   0  0  0  0  0  0  0  0  0  0  0  0
   21.3561   -9.8025  -15.3452 O   0  0  0  0  0  0  0  0  0  0  0  0
   19.9525   -8.6663  -16.6927 O   0  0  0  0  0  0  0  0  0  0  0  0
  1  2  1  0
  3  2  1  0
  3  4  1  6
  5  3  1  0
  5  6  1  1
  7  8  2  0
  7  5  1  0
  9 10  1  0
 10 11  1  0
 11 13  1  0
 11 12  1  1
 13 14  1  6
 14  7  1  0
 15 17  1  0
 15 13  1  0
 16 15  2  0
 18 17  1  0
 18 21  1  0
 18 19  1  1
 20 19  1  0
 21 23  1  0
 22 21  2  0
M  END
$$$$
