IIC.pdb
     RDKit          3D

 23 22  0  0  1  0  0  0  0  0999 V2000
   16.5959  -12.7294  -21.0471 C   0  0  0  0  0  0  0  0  0  0  0  0
   17.8421  -13.1103  -20.2873 C   0  0  0  0  0  0  0  0  0  0  0  0
   18.1814  -12.1035  -19.2062 C   0  0  2  0  0  0  0  0  0  0  0  0
   18.3088  -10.7575  -19.8350 C   0  0  0  0  0  0  0  0  0  0  0  0
   19.3922  -12.5488  -18.4159 C   0  0  2  0  0  0  0  0  0  0  0  0
   18.9501  -13.8098  -17.7776 N   0  0  0  0  0  0  0  0  0  0  0  0
   19.6884  -11.6098  -17.3294 C   0  0  0  0  0  0  0  0  0  0  0  0
   18.8820  -11.4976  -16.3426 O   0  0  0  0  0  0  0  0  0  0  0  0
   24.0777  -11.4604  -14.6023 C   0  0  0  0  0  0  0  0  0  0  0  0
   22.6500  -11.2825  -15.0666 C   0  0  0  0  0  0  0  0  0  0  0  0
   22.4179   -9.8928  -15.6234 C   0  0  2  0  0  0  0  0  0  0  0  0
   22.6747   -8.8765  -14.5616 C   0  0  0  0  0  0  0  0  0  0  0  0
   20.9836   -9.7850  -16.1779 C   0  0  2  0  0  0  0  0  0  0  0  0
   20.8304  -10.7616  -17.2324 N   0  0  0  0  0  0  0  0  0  0  0  0
   20.8139   -8.3912  -16.5724 C   0  0  0  0  0  0  0  0  0  0  0  0
   21.5172   -8.0270  -17.5777 O   0  0  0  0  0  0  0  0  0  0  0  0
   19.9828   -7.4217  -15.9872 N   0  0  0  0  0  0  0  0  0  0  0  0
   19.9086   -6.0855  -16.5758 C   0  0  1  0  0  0  0  0  0  0  0  0
   18.6583   -5.9191  -17.4074 C   0  0  0  0  0  0  0  0  0  0  0  0
   18.5679   -4.1718  -17.8941 S   0  0  0  0  0  0  0  0  0  0  0  0
   19.8250   -5.1166  -15.4570 C   0  0  0  0  0  0  0  0  0  0  0  0
   19.2475   -5.3859  -14.3694 O   0  0  0  0  0  0  0  0  0  0  0  0
   20.3885   -3.8555  -15.5664 O   0  0  0  0  0  0  0  0  0  0  0  0
  1  2  1  0
  3  2  1  0
  3  4  1  6
  5  3  1  0
  5  6  1  1
  7  8  2  0
  7  5  1  0
  9 10  1  0
 10 11  1  0
 11 13  1  0
 11 12  1  1
 13 14  1  6
 14  7  1  0
 15 17  1  0
 15 13  1  0
 16 15  2  0
 18 17  1  0
 18 21  1  0
 18 19  1  6
 20 19  1  0
 21 23  1  0
 22 21  2  0
M  END
$$$$
