IIC.pdb
     RDKit          3D

 23 22  0  0  1  0  0  0  0  0999 V2000
   18.9540  -27.6648  -10.0719 C   0  0  0  0  0  0  0  0  0  0  0  0
   20.4038  -27.9640  -10.3615 C   0  0  0  0  0  0  0  0  0  0  0  0
   20.7727  -29.3919  -10.0115 C   0  0  2  0  0  0  0  0  0  0  0  0
   20.4765  -29.6179   -8.5677 C   0  0  0  0  0  0  0  0  0  0  0  0
   22.1976  -29.6958  -10.4192 C   0  0  2  0  0  0  0  0  0  0  0  0
   22.1456  -29.7008  -11.8991 N   0  0  0  0  0  0  0  0  0  0  0  0
   22.5876  -31.0483  -10.0083 C   0  0  0  0  0  0  0  0  0  0  0  0
   22.0862  -32.0663  -10.5990 O   0  0  0  0  0  0  0  0  0  0  0  0
   27.4851  -32.5369   -9.9022 C   0  0  0  0  0  0  0  0  0  0  0  0
   25.9741  -32.5020   -9.9371 C   0  0  0  0  0  0  0  0  0  0  0  0
   25.3804  -32.8761   -8.5944 C   0  0  2  0  0  0  0  0  0  0  0  0
   25.8085  -34.2561   -8.2226 C   0  0  0  0  0  0  0  0  0  0  0  0
   23.8449  -32.7532   -8.6496 C   0  0  2  0  0  0  0  0  0  0  0  0
   23.5108  -31.3851   -8.9752 N   0  0  0  0  0  0  0  0  0  0  0  0
   23.3609  -33.2368   -7.3616 C   0  0  0  0  0  0  0  0  0  0  0  0
   23.0684  -32.3199   -6.5179 O   0  0  0  0  0  0  0  0  0  0  0  0
   23.1821  -34.5675   -6.9490 N   0  0  0  0  0  0  0  0  0  0  0  0
   22.2767  -34.8628   -5.8398 C   0  0  1  0  0  0  0  0  0  0  0  0
   20.8526  -34.4877   -6.1769 C   0  0  0  0  0  0  0  0  0  0  0  0
   20.4763  -32.9542   -5.2796 S   0  0  0  0  0  0  0  0  0  0  0  0
   22.3067  -36.3295   -5.6267 C   0  0  0  0  0  0  0  0  0  0  0  0
   22.2093  -37.1539   -6.5754 O   0  0  0  0  0  0  0  0  0  0  0  0
   22.4453  -36.8594   -4.3540 O   0  0  0  0  0  0  0  0  0  0  0  0
  1  2  1  0
  3  2  1  0
  3  4  1  1
  5  3  1  0
  5  6  1  6
  7  8  2  0
  7  5  1  0
  9 10  1  0
 10 11  1  0
 11 13  1  0
 11 12  1  6
 13 14  1  1
 14  7  1  0
 15 17  1  0
 15 13  1  0
 16 15  2  0
 18 17  1  0
 18 21  1  0
 18 19  1  6
 20 19  1  0
 21 23  1  0
 22 21  2  0
M  END
$$$$
