IIC.pdb
     RDKit          3D

 23 22  0  0  1  0  0  0  0  0999 V2000
   33.7989  -29.7481  -18.6363 C   0  0  0  0  0  0  0  0  0  0  0  0
   34.0494  -29.7496  -17.1488 C   0  0  0  0  0  0  0  0  0  0  0  0
   34.6361  -31.0628  -16.6702 C   0  0  2  0  0  0  0  0  0  0  0  0
   33.7622  -32.1737  -17.1452 C   0  0  0  0  0  0  0  0  0  0  0  0
   34.8683  -31.0365  -15.1755 C   0  0  2  0  0  0  0  0  0  0  0  0
   35.8821  -29.9721  -14.9967 N   0  0  0  0  0  0  0  0  0  0  0  0
   35.4844  -32.2847  -14.7145 C   0  0  0  0  0  0  0  0  0  0  0  0
   36.6237  -32.6434  -15.1726 O   0  0  0  0  0  0  0  0  0  0  0  0
   35.7451  -33.6168   -9.6527 C   0  0  0  0  0  0  0  0  0  0  0  0
   36.0674  -33.5363  -11.1276 C   0  0  0  0  0  0  0  0  0  0  0  0
   35.4164  -34.6659  -11.8991 C   0  0  2  0  0  0  0  0  0  0  0  0
   35.9999  -35.9700  -11.4689 C   0  0  0  0  0  0  0  0  0  0  0  0
   35.5947  -34.4356  -13.4128 C   0  0  2  0  0  0  0  0  0  0  0  0
   34.9390  -33.1961  -13.7633 N   0  0  0  0  0  0  0  0  0  0  0  0
   35.0762  -35.6348  -14.0610 C   0  0  0  0  0  0  0  0  0  0  0  0
   33.7998  -35.7004  -14.1294 O   0  0  0  0  0  0  0  0  0  0  0  0
   35.8028  -36.7049  -14.6087 N   0  0  0  0  0  0  0  0  0  0  0  0
   35.0926  -37.7793  -15.3006 C   0  0  1  0  0  0  0  0  0  0  0  0
   34.3994  -37.2702  -16.5426 C   0  0  0  0  0  0  0  0  0  0  0  0
   33.5647  -38.6892  -17.3094 S   0  0  0  0  0  0  0  0  0  0  0  0
   36.1080  -38.7672  -15.7372 C   0  0  0  0  0  0  0  0  0  0  0  0
   37.3354  -38.4897  -15.8103 O   0  0  0  0  0  0  0  0  0  0  0  0
   35.7397  -40.0561  -16.0877 O   0  0  0  0  0  0  0  0  0  0  0  0
  1  2  1  0
  3  2  1  0
  3  4  1  1
  5  3  1  0
  5  6  1  6
  7  8  2  0
  7  5  1  0
  9 10  1  0
 10 11  1  0
 11 13  1  0
 11 12  1  1
 13 14  1  6
 14  7  1  0
 15 17  1  0
 15 13  1  0
 16 15  2  0
 18 17  1  0
 18 21  1  0
 18 19  1  6
 20 19  1  0
 21 23  1  0
 22 21  2  0
M  END
$$$$
