IIC.pdb
     RDKit          3D

 23 22  0  0  1  0  0  0  0  0999 V2000
   21.5766  -19.1033  -15.9229 C   0  0  0  0  0  0  0  0  0  0  0  0
   22.7797  -19.1472  -15.0140 C   0  0  0  0  0  0  0  0  0  0  0  0
   22.5357  -20.0005  -13.7852 C   0  0  2  0  0  0  0  0  0  0  0  0
   21.2082  -19.6370  -13.2115 C   0  0  0  0  0  0  0  0  0  0  0  0
   23.6930  -19.8940  -12.8167 C   0  0  2  0  0  0  0  0  0  0  0  0
   24.8366  -20.4527  -13.5737 N   0  0  0  0  0  0  0  0  0  0  0  0
   23.4921  -20.7665  -11.6554 C   0  0  0  0  0  0  0  0  0  0  0  0
   23.3768  -22.0303  -11.8167 O   0  0  0  0  0  0  0  0  0  0  0  0
   26.1423  -19.5131   -7.4180 C   0  0  0  0  0  0  0  0  0  0  0  0
   25.4900  -20.5078   -8.3512 C   0  0  0  0  0  0  0  0  0  0  0  0
   24.0379  -20.7391   -7.9867 C   0  0  2  0  0  0  0  0  0  0  0  0
   23.9541  -21.6608   -6.8164 C   0  0  0  0  0  0  0  0  0  0  0  0
   23.2759  -21.2973   -9.2049 C   0  0  2  0  0  0  0  0  0  0  0  0
   23.4074  -20.3548  -10.2929 N   0  0  0  0  0  0  0  0  0  0  0  0
   21.9159  -21.5485   -8.7420 C   0  0  0  0  0  0  0  0  0  0  0  0
   21.1880  -20.5031   -8.6179 O   0  0  0  0  0  0  0  0  0  0  0  0
   21.3245  -22.7822   -8.4236 N   0  0  0  0  0  0  0  0  0  0  0  0
   19.9022  -22.8350   -8.0896 C   0  0  1  0  0  0  0  0  0  0  0  0
   19.1994  -23.9367   -8.8476 C   0  0  0  0  0  0  0  0  0  0  0  0
   17.5091  -24.0435   -8.1921 S   0  0  0  0  0  0  0  0  0  0  0  0
   19.8015  -23.1603   -6.6468 C   0  0  0  0  0  0  0  0  0  0  0  0
   20.7676  -23.6340   -5.9902 O   0  0  0  0  0  0  0  0  0  0  0  0
   18.6204  -22.9522   -5.9529 O   0  0  0  0  0  0  0  0  0  0  0  0
  1  2  1  0
  3  2  1  0
  3  4  1  1
  5  3  1  0
  5  6  1  6
  7  8  2  0
  7  5  1  0
  9 10  1  0
 10 11  1  0
 11 13  1  0
 11 12  1  1
 13 14  1  6
 14  7  1  0
 15 17  1  0
 15 13  1  0
 16 15  2  0
 18 17  1  0
 18 21  1  0
 18 19  1  6
 20 19  1  0
 21 23  1  0
 22 21  2  0
M  END
$$$$
