IIC.pdb
     RDKit          3D

 23 22  0  0  1  0  0  0  0  0999 V2000
   28.1732  -16.6908  -17.1034 C   0  0  0  0  0  0  0  0  0  0  0  0
   28.6539  -17.8092  -16.2126 C   0  0  0  0  0  0  0  0  0  0  0  0
   27.5127  -18.4837  -15.4774 C   0  0  2  0  0  0  0  0  0  0  0  0
   26.7260  -17.4383  -14.7620 C   0  0  0  0  0  0  0  0  0  0  0  0
   28.0253  -19.6019  -14.5966 C   0  0  2  0  0  0  0  0  0  0  0  0
   28.6065  -20.5670  -15.5576 N   0  0  0  0  0  0  0  0  0  0  0  0
   26.9208  -20.2929  -13.9238 C   0  0  0  0  0  0  0  0  0  0  0  0
   26.2207  -21.1530  -14.5616 O   0  0  0  0  0  0  0  0  0  0  0  0
   26.7534  -20.4634   -8.4296 C   0  0  0  0  0  0  0  0  0  0  0  0
   26.5715  -21.0625   -9.8058 C   0  0  0  0  0  0  0  0  0  0  0  0
   25.3366  -20.5130  -10.4901 C   0  0  2  0  0  0  0  0  0  0  0  0
   24.1135  -21.0833   -9.8536 C   0  0  0  0  0  0  0  0  0  0  0  0
   25.3914  -20.8275  -11.9981 C   0  0  2  0  0  0  0  0  0  0  0  0
   26.5115  -20.1149  -12.5697 N   0  0  0  0  0  0  0  0  0  0  0  0
   24.0778  -20.4757  -12.5254 C   0  0  0  0  0  0  0  0  0  0  0  0
   23.7887  -19.2305  -12.4629 O   0  0  0  0  0  0  0  0  0  0  0  0
   23.1127  -21.3301  -13.0837 N   0  0  0  0  0  0  0  0  0  0  0  0
   21.8806  -20.7654  -13.6316 C   0  0  1  0  0  0  0  0  0  0  0  0
   21.5972  -21.3014  -15.0154 C   0  0  0  0  0  0  0  0  0  0  0  0
   22.0946  -23.0481  -15.0249 S   0  0  0  0  0  0  0  0  0  0  0  0
   20.7686  -21.2027  -12.7542 C   0  0  0  0  0  0  0  0  0  0  0  0
   20.9335  -22.0182  -11.8073 O   0  0  0  0  0  0  0  0  0  0  0  0
   19.4828  -20.7230  -12.9452 O   0  0  0  0  0  0  0  0  0  0  0  0
  1  2  1  0
  3  2  1  0
  3  4  1  1
  5  3  1  0
  5  6  1  6
  7  8  2  0
  7  5  1  0
  9 10  1  0
 10 11  1  0
 11 13  1  0
 11 12  1  1
 13 14  1  6
 14  7  1  0
 15 17  1  0
 15 13  1  0
 16 15  2  0
 18 17  1  0
 18 21  1  0
 18 19  1  6
 20 19  1  0
 21 23  1  0
 22 21  2  0
M  END
$$$$
