IIC.pdb
     RDKit          3D

 23 22  0  0  1  0  0  0  0  0999 V2000
   19.5909  -12.9996  -18.6677 C   0  0  0  0  0  0  0  0  0  0  0  0
   19.7478  -12.3335  -17.3234 C   0  0  0  0  0  0  0  0  0  0  0  0
   19.7711  -10.8220  -17.4347 C   0  0  2  0  0  0  0  0  0  0  0  0
   20.7647  -10.4387  -18.4784 C   0  0  0  0  0  0  0  0  0  0  0  0
   19.9991  -10.1855  -16.0813 C   0  0  2  0  0  0  0  0  0  0  0  0
   18.9218  -10.7548  -15.2399 N   0  0  0  0  0  0  0  0  0  0  0  0
   19.7705   -8.7380  -16.1332 C   0  0  0  0  0  0  0  0  0  0  0  0
   20.5932   -7.9819  -16.7561 O   0  0  0  0  0  0  0  0  0  0  0  0
   14.7614   -6.8302  -16.5010 C   0  0  0  0  0  0  0  0  0  0  0  0
   16.2556   -6.8871  -16.7239 C   0  0  0  0  0  0  0  0  0  0  0  0
   17.0124   -6.2774  -15.5617 C   0  0  2  0  0  0  0  0  0  0  0  0
   16.7712   -4.8056  -15.5215 C   0  0  0  0  0  0  0  0  0  0  0  0
   18.5138   -6.6037  -15.6871 C   0  0  2  0  0  0  0  0  0  0  0  0
   18.6810   -8.0322  -15.5433 N   0  0  0  0  0  0  0  0  0  0  0  0
   19.1842   -5.7810  -14.6867 C   0  0  0  0  0  0  0  0  0  0  0  0
   19.1820   -6.2656  -13.5022 O   0  0  0  0  0  0  0  0  0  0  0  0
   19.8201   -4.5421  -14.8707 N   0  0  0  0  0  0  0  0  0  0  0  0
   20.9045   -4.1480  -13.9730 C   0  0  1  0  0  0  0  0  0  0  0  0
   22.0581   -5.1211  -14.0430 C   0  0  0  0  0  0  0  0  0  0  0  0
   21.9341   -6.2036  -12.5900 S   0  0  0  0  0  0  0  0  0  0  0  0
   21.4077   -2.8348  -14.4417 C   0  0  0  0  0  0  0  0  0  0  0  0
   21.1764   -2.3951  -15.6002 O   0  0  0  0  0  0  0  0  0  0  0  0
   22.1649   -2.0264  -13.6092 O   0  0  0  0  0  0  0  0  0  0  0  0
  1  2  1  0
  3  2  1  0
  3  4  1  6
  5  3  1  0
  5  6  1  1
  7  8  2  0
  7  5  1  0
  9 10  1  0
 10 11  1  0
 11 13  1  0
 11 12  1  6
 13 14  1  1
 14  7  1  0
 15 17  1  0
 15 13  1  0
 16 15  2  0
 18 17  1  0
 18 21  1  0
 18 19  1  6
 20 19  1  0
 21 23  1  0
 22 21  2  0
M  END
$$$$
