IIC.pdb
     RDKit          3D

 23 22  0  0  1  0  0  0  0  0999 V2000
   30.1904  -22.3580  -16.9483 C   0  0  0  0  0  0  0  0  0  0  0  0
   29.1576  -21.2908  -16.6843 C   0  0  0  0  0  0  0  0  0  0  0  0
   27.9958  -21.8120  -15.8620 C   0  0  2  0  0  0  0  0  0  0  0  0
   27.4801  -23.0549  -16.5043 C   0  0  0  0  0  0  0  0  0  0  0  0
   26.9575  -20.7320  -15.6512 C   0  0  2  0  0  0  0  0  0  0  0  0
   27.7133  -19.6423  -14.9925 N   0  0  0  0  0  0  0  0  0  0  0  0
   25.9302  -21.1656  -14.6988 C   0  0  0  0  0  0  0  0  0  0  0  0
   25.1642  -22.1488  -14.9871 O   0  0  0  0  0  0  0  0  0  0  0  0
   26.4429  -20.3887   -9.2825 C   0  0  0  0  0  0  0  0  0  0  0  0
   26.0820  -21.0472  -10.5946 C   0  0  0  0  0  0  0  0  0  0  0  0
   24.7964  -20.4818  -11.1627 C   0  0  2  0  0  0  0  0  0  0  0  0
   23.6577  -20.8154  -10.2581 C   0  0  0  0  0  0  0  0  0  0  0  0
   24.5696  -21.0279  -12.5863 C   0  0  2  0  0  0  0  0  0  0  0  0
   25.6689  -20.5946  -13.4187 N   0  0  0  0  0  0  0  0  0  0  0  0
   23.2470  -20.5603  -12.9852 C   0  0  0  0  0  0  0  0  0  0  0  0
   23.1076  -19.2881  -12.9993 O   0  0  0  0  0  0  0  0  0  0  0  0
   22.1305  -21.3310  -13.3493 N   0  0  0  0  0  0  0  0  0  0  0  0
   20.8916  -20.6632  -13.7451 C   0  0  1  0  0  0  0  0  0  0  0  0
   20.1367  -21.4698  -14.7757 C   0  0  0  0  0  0  0  0  0  0  0  0
   18.5273  -20.6625  -15.0131 S   0  0  0  0  0  0  0  0  0  0  0  0
   20.0340  -20.5774  -12.5391 C   0  0  0  0  0  0  0  0  0  0  0  0
   19.3678  -19.5461  -12.2537 O   0  0  0  0  0  0  0  0  0  0  0  0
   19.9303  -21.6468  -11.6641 O   0  0  0  0  0  0  0  0  0  0  0  0
  1  2  1  0
  3  2  1  0
  3  4  1  6
  5  3  1  0
  5  6  1  1
  7  8  2  0
  7  5  1  0
  9 10  1  0
 10 11  1  0
 11 13  1  0
 11 12  1  1
 13 14  1  6
 14  7  1  0
 15 17  1  0
 15 13  1  0
 16 15  2  0
 18 17  1  0
 18 21  1  0
 18 19  1  6
 20 19  1  0
 21 23  1  0
 22 21  2  0
M  END
$$$$
