KPA.pdb
     RDKit          3D

 22 22  0  0  1  0  0  0  0  0999 V2000
    9.1608  -17.0697   17.1049 N   0  0  0  0  0  0  0  0  0  0  0  0
    8.3347  -16.7084   18.1940 C   0  0  1  0  0  0  0  0  0  0  0  0
    7.4531  -17.8730   18.5709 C   0  0  0  0  0  0  0  0  0  0  0  0
    6.4943  -18.3332   17.5513 C   0  0  0  0  0  0  0  0  0  0  0  0
    6.4011  -19.7884   17.2840 C   0  0  0  0  0  0  0  0  0  0  0  0
    5.2119  -20.4534   17.9401 C   0  0  0  0  0  0  0  0  0  0  0  0
    5.1570  -21.8647   17.5507 N   0  0  0  0  0  0  0  0  0  0  0  0
    9.0117  -16.2579   19.4346 C   0  0  0  0  0  0  0  0  0  0  0  0
    9.9456  -17.0482   19.8560 O   0  0  0  0  0  0  0  0  0  0  0  0
    8.7739  -15.1070   20.1936 N   0  0  0  0  0  0  0  0  0  0  0  0
    8.6581  -13.7340   19.6535 C   0  0  0  0  0  0  0  0  0  0  0  0
    7.3551  -13.2948   20.3618 C   0  0  0  0  0  0  0  0  0  0  0  0
    7.1828  -14.2467   21.5359 C   0  0  0  0  0  0  0  0  0  0  0  0
    8.5950  -14.8235   21.5887 C   0  0  1  0  0  0  0  0  0  0  0  0
    8.8036  -15.8055   22.5924 C   0  0  0  0  0  0  0  0  0  0  0  0
    7.9714  -16.6143   23.0132 O   0  0  0  0  0  0  0  0  0  0  0  0
   11.7090  -17.6489   23.8102 C   0  0  0  0  0  0  0  0  0  0  0  0
   10.4371  -16.8928   24.1757 C   0  0  2  0  0  0  0  0  0  0  0  0
   10.1114  -15.8881   23.1987 N   0  0  0  0  0  0  0  0  0  0  0  0
   10.7081  -16.2299   25.4743 C   0  0  0  0  0  0  0  0  0  0  0  0
   10.8720  -16.9485   26.6548 O   0  0  0  0  0  0  0  0  0  0  0  0
   10.7888  -14.9751   25.4886 O   0  0  0  0  0  0  0  0  0  0  0  0
  2  1  1  6
  3  2  1  0
  4  3  1  0
  5  4  1  0
  6  5  1  0
  7  6  1  0
  8  2  1  0
  8 10  1  0
  9  8  2  0
 10 11  1  0
 11 12  1  0
 13 14  1  0
 13 12  1  0
 14 10  1  0
 15 19  1  0
 14 15  1  1
 16 15  2  0
 18 17  1  6
 18 19  1  0
 20 21  1  0
 20 18  1  0
 22 20  2  0
M  END
$$$$
