KPA.pdb
     RDKit          3D

 22 22  0  0  1  0  0  0  0  0999 V2000
    8.4899  -14.8831   20.9887 N   0  0  0  0  0  0  0  0  0  0  0  0
    7.6640  -14.8460   22.1357 C   0  0  1  0  0  0  0  0  0  0  0  0
    7.0341  -16.1995   22.3518 C   0  0  0  0  0  0  0  0  0  0  0  0
    7.8881  -17.3736   22.1009 C   0  0  0  0  0  0  0  0  0  0  0  0
    7.3273  -18.7186   22.3734 C   0  0  0  0  0  0  0  0  0  0  0  0
    8.3037  -19.8469   22.1280 C   0  0  0  0  0  0  0  0  0  0  0  0
    7.6485  -21.1324   22.3823 N   0  0  0  0  0  0  0  0  0  0  0  0
    8.3035  -14.4561   23.4160 C   0  0  0  0  0  0  0  0  0  0  0  0
    9.4932  -14.9340   23.5914 O   0  0  0  0  0  0  0  0  0  0  0  0
    7.7937  -13.6508   24.4401 N   0  0  0  0  0  0  0  0  0  0  0  0
    6.9684  -12.4379   24.2451 C   0  0  0  0  0  0  0  0  0  0  0  0
    5.8271  -12.7481   25.2419 C   0  0  0  0  0  0  0  0  0  0  0  0
    6.3809  -13.8031   26.1877 C   0  0  0  0  0  0  0  0  0  0  0  0
    7.8670  -13.6537   25.8730 C   0  0  1  0  0  0  0  0  0  0  0  0
    8.7215  -14.5364   26.5843 C   0  0  0  0  0  0  0  0  0  0  0  0
    8.8360  -15.7523   26.4042 O   0  0  0  0  0  0  0  0  0  0  0  0
   11.1463  -14.0031   29.4942 C   0  0  0  0  0  0  0  0  0  0  0  0
   10.4907  -14.7868   28.3632 C   0  0  2  0  0  0  0  0  0  0  0  0
    9.5504  -13.9827   27.6288 N   0  0  0  0  0  0  0  0  0  0  0  0
    9.7646  -15.9098   29.0042 C   0  0  0  0  0  0  0  0  0  0  0  0
   10.4199  -17.0395   29.4851 O   0  0  0  0  0  0  0  0  0  0  0  0
    8.5146  -15.8195   29.1073 O   0  0  0  0  0  0  0  0  0  0  0  0
  2  1  1  6
  3  2  1  0
  4  3  1  0
  5  4  1  0
  6  5  1  0
  7  6  1  0
  8  2  1  0
  8 10  1  0
  9  8  2  0
 10 11  1  0
 11 12  1  0
 13 14  1  0
 13 12  1  0
 14 10  1  0
 15 19  1  0
 14 15  1  6
 16 15  2  0
 18 17  1  1
 18 19  1  0
 20 21  1  0
 20 18  1  0
 22 20  2  0
M  END
$$$$
