KPA.pdb
     RDKit          3D

 22 22  0  0  1  0  0  0  0  0999 V2000
    9.4035  -16.2204   15.8091 N   0  0  0  0  0  0  0  0  0  0  0  0
    8.5636  -15.7692   16.8532 C   0  0  1  0  0  0  0  0  0  0  0  0
    7.4722  -16.7808   17.1002 C   0  0  0  0  0  0  0  0  0  0  0  0
    7.9030  -18.1491   17.4360 C   0  0  0  0  0  0  0  0  0  0  0  0
    6.8582  -19.1691   17.6925 C   0  0  0  0  0  0  0  0  0  0  0  0
    7.4086  -20.5544   17.9469 C   0  0  0  0  0  0  0  0  0  0  0  0
    6.3049  -21.4940   18.1601 N   0  0  0  0  0  0  0  0  0  0  0  0
    9.2032  -15.4932   18.1629 C   0  0  0  0  0  0  0  0  0  0  0  0
   10.1301  -16.3320   18.4970 O   0  0  0  0  0  0  0  0  0  0  0  0
    8.9373  -14.4592   19.0668 N   0  0  0  0  0  0  0  0  0  0  0  0
    8.8000  -13.0283   18.7147 C   0  0  0  0  0  0  0  0  0  0  0  0
    7.4829  -12.7114   19.4613 C   0  0  0  0  0  0  0  0  0  0  0  0
    7.3190  -13.8153   20.4951 C   0  0  0  0  0  0  0  0  0  0  0  0
    8.7414  -14.3689   20.4853 C   0  0  1  0  0  0  0  0  0  0  0  0
    8.9602  -15.4731   21.3503 C   0  0  0  0  0  0  0  0  0  0  0  0
    8.1701  -16.3928   21.5820 O   0  0  0  0  0  0  0  0  0  0  0  0
   11.8606  -17.3550   22.3655 C   0  0  0  0  0  0  0  0  0  0  0  0
   10.5810  -16.6858   22.8535 C   0  0  2  0  0  0  0  0  0  0  0  0
   10.2255  -15.5527   22.0412 N   0  0  0  0  0  0  0  0  0  0  0  0
   10.8581  -16.2193   24.2336 C   0  0  0  0  0  0  0  0  0  0  0  0
   11.0324  -17.1025   25.2949 O   0  0  0  0  0  0  0  0  0  0  0  0
   10.9344  -14.9798   24.4314 O   0  0  0  0  0  0  0  0  0  0  0  0
  2  1  1  6
  3  2  1  0
  4  3  1  0
  5  4  1  0
  6  5  1  0
  7  6  1  0
  8  2  1  0
  8 10  1  0
  9  8  2  0
 10 11  1  0
 11 12  1  0
 13 14  1  0
 13 12  1  0
 14 10  1  0
 15 19  1  0
 14 15  1  1
 16 15  2  0
 18 17  1  6
 18 19  1  0
 20 21  1  0
 20 18  1  0
 22 20  2  0
M  END
$$$$
