KPA.pdb
     RDKit          3D

 22 22  0  0  1  0  0  0  0  0999 V2000
    8.9555  -14.9024   20.8478 N   0  0  0  0  0  0  0  0  0  0  0  0
    8.0704  -14.9821   21.9475 C   0  0  1  0  0  0  0  0  0  0  0  0
    7.4937  -16.3732   22.0356 C   0  0  0  0  0  0  0  0  0  0  0  0
    8.4569  -17.4879   22.0550 C   0  0  0  0  0  0  0  0  0  0  0  0
    7.9335  -18.8625   22.2396 C   0  0  0  0  0  0  0  0  0  0  0  0
    9.0118  -19.9201   22.3144 C   0  0  0  0  0  0  0  0  0  0  0  0
    8.4064  -21.2256   22.5893 N   0  0  0  0  0  0  0  0  0  0  0  0
    8.6240  -14.6569   23.2848 C   0  0  0  0  0  0  0  0  0  0  0  0
    9.8088  -15.1276   23.5062 O   0  0  0  0  0  0  0  0  0  0  0  0
    8.0391  -13.9183   24.3189 N   0  0  0  0  0  0  0  0  0  0  0  0
    7.1315  -12.7632   24.1387 C   0  0  0  0  0  0  0  0  0  0  0  0
    5.9982  -13.1816   25.1047 C   0  0  0  0  0  0  0  0  0  0  0  0
    6.6102  -14.2190   26.0338 C   0  0  0  0  0  0  0  0  0  0  0  0
    8.0869  -13.9545   25.7524 C   0  0  1  0  0  0  0  0  0  0  0  0
    8.9903  -14.7922   26.4576 C   0  0  0  0  0  0  0  0  0  0  0  0
    9.2389  -15.9761   26.2117 O   0  0  0  0  0  0  0  0  0  0  0  0
   11.1104  -14.2446   29.5908 C   0  0  0  0  0  0  0  0  0  0  0  0
   10.6429  -14.9974   28.3508 C   0  0  2  0  0  0  0  0  0  0  0  0
    9.7030  -14.2281   27.5794 N   0  0  0  0  0  0  0  0  0  0  0  0
    9.9709  -16.2254   28.8407 C   0  0  0  0  0  0  0  0  0  0  0  0
    8.5852  -16.3422   28.8947 O   0  0  0  0  0  0  0  0  0  0  0  0
   10.6952  -17.1825   29.2155 O   0  0  0  0  0  0  0  0  0  0  0  0
  2  1  1  6
  3  2  1  0
  4  3  1  0
  5  4  1  0
  6  5  1  0
  7  6  1  0
  8  2  1  0
  8 10  1  0
  9  8  2  0
 10 11  1  0
 11 12  1  0
 13 14  1  0
 13 12  1  0
 14 10  1  0
 15 19  1  0
 14 15  1  6
 16 15  2  0
 18 17  1  1
 18 19  1  0
 20 21  1  0
 20 18  1  0
 22 20  2  0
M  END
$$$$
