KPA.pdb
     RDKit          3D

 22 22  0  0  1  0  0  0  0  0999 V2000
    7.9428  -17.1583   19.8118 N   0  0  0  0  0  0  0  0  0  0  0  0
    7.4872  -16.8275   21.1088 C   0  0  1  0  0  0  0  0  0  0  0  0
    6.4849  -17.8551   21.5724 C   0  0  0  0  0  0  0  0  0  0  0  0
    5.1411  -17.7851   20.9725 C   0  0  0  0  0  0  0  0  0  0  0  0
    4.3249  -19.0221   20.9366 C   0  0  0  0  0  0  0  0  0  0  0  0
    2.9752  -18.8426   20.2787 C   0  0  0  0  0  0  0  0  0  0  0  0
    2.2913  -20.1354   20.1916 N   0  0  0  0  0  0  0  0  0  0  0  0
    8.5120  -16.7098   22.1749 C   0  0  0  0  0  0  0  0  0  0  0  0
    9.3571  -17.6886   22.2200 O   0  0  0  0  0  0  0  0  0  0  0  0
    8.6789  -15.6928   23.1208 N   0  0  0  0  0  0  0  0  0  0  0  0
    8.7383  -14.2449   22.8198 C   0  0  0  0  0  0  0  0  0  0  0  0
    7.7296  -13.7283   23.8725 C   0  0  0  0  0  0  0  0  0  0  0  0
    7.6131  -14.8347   24.9100 C   0  0  0  0  0  0  0  0  0  0  0  0
    8.8560  -15.6414   24.5437 C   0  0  1  0  0  0  0  0  0  0  0  0
    9.0621  -16.8104   25.3223 C   0  0  0  0  0  0  0  0  0  0  0  0
    8.1885  -17.5624   25.7642 O   0  0  0  0  0  0  0  0  0  0  0  0
   12.1460  -18.8764   26.0568 C   0  0  0  0  0  0  0  0  0  0  0  0
   10.7331  -18.3899   26.3570 C   0  0  2  0  0  0  0  0  0  0  0  0
   10.4202  -17.1797   25.6445 N   0  0  0  0  0  0  0  0  0  0  0  0
   10.6907  -18.1142   27.8136 C   0  0  0  0  0  0  0  0  0  0  0  0
   10.7571  -19.1290   28.7635 O   0  0  0  0  0  0  0  0  0  0  0  0
   10.5912  -16.9163   28.1828 O   0  0  0  0  0  0  0  0  0  0  0  0
  2  1  1  6
  3  2  1  0
  4  3  1  0
  5  4  1  0
  6  5  1  0
  7  6  1  0
  8  2  1  0
  8 10  1  0
  9  8  2  0
 10 11  1  0
 11 12  1  0
 13 14  1  0
 13 12  1  0
 14 10  1  0
 15 19  1  0
 14 15  1  1
 16 15  2  0
 18 17  1  6
 18 19  1  0
 20 21  1  0
 20 18  1  0
 22 20  2  0
M  END
$$$$
