KPA.pdb
     RDKit          3D

 22 22  0  0  1  0  0  0  0  0999 V2000
    9.6525  -18.5221   21.3656 N   0  0  0  0  0  0  0  0  0  0  0  0
    8.6419  -17.7857   22.0255 C   0  0  1  0  0  0  0  0  0  0  0  0
    7.7999  -18.7163   22.8624 C   0  0  0  0  0  0  0  0  0  0  0  0
    8.5228  -19.6379   23.7561 C   0  0  0  0  0  0  0  0  0  0  0  0
    7.7300  -20.4793   24.6842 C   0  0  0  0  0  0  0  0  0  0  0  0
    8.5738  -21.3211   25.6149 C   0  0  0  0  0  0  0  0  0  0  0  0
    7.7066  -22.1571   26.4489 N   0  0  0  0  0  0  0  0  0  0  0  0
    9.0814  -16.6819   22.9136 C   0  0  0  0  0  0  0  0  0  0  0  0
    9.9867  -17.0131   23.7769 O   0  0  0  0  0  0  0  0  0  0  0  0
    8.6501  -15.3513   22.9361 N   0  0  0  0  0  0  0  0  0  0  0  0
    8.4289  -14.5027   21.7439 C   0  0  0  0  0  0  0  0  0  0  0  0
    7.0275  -13.9461   22.0888 C   0  0  0  0  0  0  0  0  0  0  0  0
    6.8607  -14.1482   23.5872 C   0  0  0  0  0  0  0  0  0  0  0  0
    8.3186  -14.4031   23.9606 C   0  0  1  0  0  0  0  0  0  0  0  0
    8.5471  -14.6664   25.3367 C   0  0  0  0  0  0  0  0  0  0  0  0
    7.7979  -15.2809   26.1015 O   0  0  0  0  0  0  0  0  0  0  0  0
    8.7684  -13.2217   27.9535 C   0  0  0  0  0  0  0  0  0  0  0  0
    9.9207  -14.0148   27.3482 C   0  0  2  0  0  0  0  0  0  0  0  0
    9.7708  -14.1773   25.9265 N   0  0  0  0  0  0  0  0  0  0  0  0
    9.8861  -15.3511   27.9906 C   0  0  0  0  0  0  0  0  0  0  0  0
    9.5894  -16.5095   27.2788 O   0  0  0  0  0  0  0  0  0  0  0  0
   10.1362  -15.4188   29.2211 O   0  0  0  0  0  0  0  0  0  0  0  0
  2  1  1  1
  3  2  1  0
  4  3  1  0
  5  4  1  0
  6  5  1  0
  7  6  1  0
  8  2  1  0
  8 10  1  0
  9  8  2  0
 10 11  1  0
 11 12  1  0
 13 14  1  0
 13 12  1  0
 14 10  1  0
 15 19  1  0
 14 15  1  1
 16 15  2  0
 18 17  1  1
 18 19  1  0
 20 21  1  0
 20 18  1  0
 22 20  2  0
M  END
$$$$
