KPA.pdb
     RDKit          3D

 22 22  0  0  1  0  0  0  0  0999 V2000
    7.4827  -18.1102   18.6212 N   0  0  0  0  0  0  0  0  0  0  0  0
    7.0609  -17.8137   19.9378 C   0  0  1  0  0  0  0  0  0  0  0  0
    6.3672  -19.0144   20.5314 C   0  0  0  0  0  0  0  0  0  0  0  0
    4.9500  -19.2022   20.1749 C   0  0  0  0  0  0  0  0  0  0  0  0
    4.6285  -19.6692   18.8051 C   0  0  0  0  0  0  0  0  0  0  0  0
    3.1550  -19.9213   18.5775 C   0  0  0  0  0  0  0  0  0  0  0  0
    2.9311  -20.3267   17.1876 N   0  0  0  0  0  0  0  0  0  0  0  0
    8.1062  -17.3955   20.9036 C   0  0  0  0  0  0  0  0  0  0  0  0
    8.8871  -18.3488   21.2984 O   0  0  0  0  0  0  0  0  0  0  0  0
    8.3518  -16.1238   21.4324 N   0  0  0  0  0  0  0  0  0  0  0  0
    8.1543  -14.8451   20.7139 C   0  0  0  0  0  0  0  0  0  0  0  0
    7.3538  -14.0739   21.7896 C   0  0  0  0  0  0  0  0  0  0  0  0
    7.6199  -14.7988   23.1003 C   0  0  0  0  0  0  0  0  0  0  0  0
    8.8400  -15.6149   22.6819 C   0  0  1  0  0  0  0  0  0  0  0  0
    9.3665  -16.4645   23.6900 C   0  0  0  0  0  0  0  0  0  0  0  0
    8.7197  -17.1896   24.4514 O   0  0  0  0  0  0  0  0  0  0  0  0
   12.8846  -17.6560   24.4548 C   0  0  0  0  0  0  0  0  0  0  0  0
   11.4290  -17.3812   24.8138 C   0  0  2  0  0  0  0  0  0  0  0  0
   10.7993  -16.5031   23.8638 N   0  0  0  0  0  0  0  0  0  0  0  0
   11.4477  -16.7191   26.1407 C   0  0  0  0  0  0  0  0  0  0  0  0
   11.8724  -17.3754   27.2920 O   0  0  0  0  0  0  0  0  0  0  0  0
   11.0628  -15.5239   26.2070 O   0  0  0  0  0  0  0  0  0  0  0  0
  2  1  1  6
  3  2  1  0
  4  3  1  0
  5  4  1  0
  6  5  1  0
  7  6  1  0
  8  2  1  0
  8 10  1  0
  9  8  2  0
 10 11  1  0
 11 12  1  0
 13 14  1  0
 13 12  1  0
 14 10  1  0
 15 19  1  0
 14 15  1  1
 16 15  2  0
 18 17  1  6
 18 19  1  0
 20 21  1  0
 20 18  1  0
 22 20  2  0
M  END
$$$$
