KPA.pdb
     RDKit          3D

 22 22  0  0  1  0  0  0  0  0999 V2000
    9.3741  -15.4186   15.3102 N   0  0  0  0  0  0  0  0  0  0  0  0
    8.5473  -15.2402   16.4433 C   0  0  1  0  0  0  0  0  0  0  0  0
    7.5800  -16.3925   16.5526 C   0  0  0  0  0  0  0  0  0  0  0  0
    8.1659  -17.7331   16.7262 C   0  0  0  0  0  0  0  0  0  0  0  0
    7.2457  -18.8879   16.8579 C   0  0  0  0  0  0  0  0  0  0  0  0
    7.9526  -20.2161   17.0089 C   0  0  0  0  0  0  0  0  0  0  0  0
    7.6566  -20.7874   18.3251 N   0  0  0  0  0  0  0  0  0  0  0  0
    9.2220  -15.1144   17.7583 C   0  0  0  0  0  0  0  0  0  0  0  0
   10.1749  -15.9666   17.9586 O   0  0  0  0  0  0  0  0  0  0  0  0
    8.9646  -14.2070   18.7915 N   0  0  0  0  0  0  0  0  0  0  0  0
    8.7159  -12.7585   18.6167 C   0  0  0  0  0  0  0  0  0  0  0  0
    7.4430  -12.6161   19.4839 C   0  0  0  0  0  0  0  0  0  0  0  0
    7.4243  -13.8360   20.3925 C   0  0  0  0  0  0  0  0  0  0  0  0
    8.8723  -14.2874   20.2211 C   0  0  1  0  0  0  0  0  0  0  0  0
    9.2216  -15.4630   20.9360 C   0  0  0  0  0  0  0  0  0  0  0  0
    8.5299  -16.4773   21.0651 O   0  0  0  0  0  0  0  0  0  0  0  0
   12.4961  -16.7434   22.3232 C   0  0  0  0  0  0  0  0  0  0  0  0
   10.9741  -16.6704   22.2882 C   0  0  2  0  0  0  0  0  0  0  0  0
   10.5096  -15.5028   21.5873 N   0  0  0  0  0  0  0  0  0  0  0  0
   10.5307  -16.5904   23.7011 C   0  0  0  0  0  0  0  0  0  0  0  0
    9.8294  -15.4962   24.1983 O   0  0  0  0  0  0  0  0  0  0  0  0
   10.8075  -17.5543   24.4598 O   0  0  0  0  0  0  0  0  0  0  0  0
  2  1  1  6
  3  2  1  0
  4  3  1  0
  5  4  1  0
  6  5  1  0
  7  6  1  0
  8  2  1  0
  8 10  1  0
  9  8  2  0
 10 11  1  0
 11 12  1  0
 13 14  1  0
 13 12  1  0
 14 10  1  0
 15 19  1  0
 14 15  1  6
 16 15  2  0
 18 17  1  1
 18 19  1  0
 20 21  1  0
 20 18  1  0
 22 20  2  0
M  END
$$$$
