KPA.pdb
     RDKit          3D

 22 22  0  0  1  0  0  0  0  0999 V2000
    9.7187  -15.3116   15.5666 N   0  0  0  0  0  0  0  0  0  0  0  0
    8.8281  -15.1376   16.6509 C   0  0  1  0  0  0  0  0  0  0  0  0
    7.8435  -16.2798   16.6877 C   0  0  0  0  0  0  0  0  0  0  0  0
    8.3793  -17.6028   17.0526 C   0  0  0  0  0  0  0  0  0  0  0  0
    7.4330  -18.7401   17.1462 C   0  0  0  0  0  0  0  0  0  0  0  0
    8.0796  -20.0365   17.5800 C   0  0  0  0  0  0  0  0  0  0  0  0
    7.0778  -21.1053   17.6041 N   0  0  0  0  0  0  0  0  0  0  0  0
    9.4248  -15.0359   18.0052 C   0  0  0  0  0  0  0  0  0  0  0  0
   10.3220  -15.9308   18.2670 O   0  0  0  0  0  0  0  0  0  0  0  0
    9.1466  -14.1114   19.0176 N   0  0  0  0  0  0  0  0  0  0  0  0
    8.9287  -12.6614   18.8167 C   0  0  0  0  0  0  0  0  0  0  0  0
    7.6287  -12.4871   19.6367 C   0  0  0  0  0  0  0  0  0  0  0  0
    7.5577  -13.6950   20.5587 C   0  0  0  0  0  0  0  0  0  0  0  0
    9.0030  -14.1722   20.4439 C   0  0  1  0  0  0  0  0  0  0  0  0
    9.3072  -15.3442   21.1849 C   0  0  0  0  0  0  0  0  0  0  0  0
    8.6453  -16.3857   21.2169 O   0  0  0  0  0  0  0  0  0  0  0  0
   12.4496  -16.4847   22.9641 C   0  0  0  0  0  0  0  0  0  0  0  0
   10.9496  -16.5178   22.6957 C   0  0  2  0  0  0  0  0  0  0  0  0
   10.5054  -15.3449   21.9905 N   0  0  0  0  0  0  0  0  0  0  0  0
   10.2920  -16.5571   24.0243 C   0  0  0  0  0  0  0  0  0  0  0  0
   10.3854  -17.6610   24.8666 O   0  0  0  0  0  0  0  0  0  0  0  0
    9.6320  -15.5490   24.3840 O   0  0  0  0  0  0  0  0  0  0  0  0
  2  1  1  6
  3  2  1  0
  4  3  1  0
  5  4  1  0
  6  5  1  0
  7  6  1  0
  8  2  1  0
  8 10  1  0
  9  8  2  0
 10 11  1  0
 11 12  1  0
 13 14  1  0
 13 12  1  0
 14 10  1  0
 15 19  1  0
 14 15  1  6
 16 15  2  0
 18 17  1  1
 18 19  1  0
 20 21  1  0
 20 18  1  0
 22 20  2  0
M  END
$$$$
