KPA.pdb
     RDKit          3D

 22 22  0  0  1  0  0  0  0  0999 V2000
   10.1585  -16.9869   17.3365 N   0  0  0  0  0  0  0  0  0  0  0  0
    9.2515  -17.1701   18.4057 C   0  0  1  0  0  0  0  0  0  0  0  0
    9.3241  -18.5953   18.8946 C   0  0  0  0  0  0  0  0  0  0  0  0
    8.4404  -18.9545   20.0174 C   0  0  0  0  0  0  0  0  0  0  0  0
    8.4488  -20.3583   20.4939 C   0  0  0  0  0  0  0  0  0  0  0  0
    7.4460  -20.6353   21.5913 C   0  0  0  0  0  0  0  0  0  0  0  0
    7.4966  -22.0518   21.9620 N   0  0  0  0  0  0  0  0  0  0  0  0
    9.4206  -16.2957   19.5919 C   0  0  0  0  0  0  0  0  0  0  0  0
   10.4128  -16.6145   20.3590 O   0  0  0  0  0  0  0  0  0  0  0  0
    8.6581  -15.1889   19.9800 N   0  0  0  0  0  0  0  0  0  0  0  0
    7.9252  -14.2895   19.0611 C   0  0  0  0  0  0  0  0  0  0  0  0
    6.5541  -14.2628   19.7768 C   0  0  0  0  0  0  0  0  0  0  0  0
    6.8233  -14.7244   21.2011 C   0  0  0  0  0  0  0  0  0  0  0  0
    8.3401  -14.5554   21.2275 C   0  0  1  0  0  0  0  0  0  0  0  0
    8.9633  -14.9311   22.4464 C   0  0  0  0  0  0  0  0  0  0  0  0
   10.0892  -15.4205   22.5755 O   0  0  0  0  0  0  0  0  0  0  0  0
    8.2036  -14.3495   26.0980 C   0  0  0  0  0  0  0  0  0  0  0  0
    8.7220  -15.1969   24.9421 C   0  0  2  0  0  0  0  0  0  0  0  0
    8.2285  -14.7316   23.6731 N   0  0  0  0  0  0  0  0  0  0  0  0
    8.2187  -16.5717   25.1782 C   0  0  0  0  0  0  0  0  0  0  0  0
    8.8714  -17.4668   26.0205 O   0  0  0  0  0  0  0  0  0  0  0  0
    7.1649  -16.9218   24.5881 O   0  0  0  0  0  0  0  0  0  0  0  0
  2  1  1  6
  3  2  1  0
  4  3  1  0
  5  4  1  0
  6  5  1  0
  7  6  1  0
  8  2  1  0
  8 10  1  0
  9  8  2  0
 10 11  1  0
 11 12  1  0
 13 14  1  0
 13 12  1  0
 14 10  1  0
 15 19  1  0
 14 15  1  1
 16 15  2  0
 18 17  1  1
 18 19  1  0
 20 21  1  0
 20 18  1  0
 22 20  2  0
M  END
$$$$
