KPA.pdb
     RDKit          3D

 22 22  0  0  1  0  0  0  0  0999 V2000
    8.7351  -16.8222   16.4893 N   0  0  0  0  0  0  0  0  0  0  0  0
    8.0228  -16.4182   17.6420 C   0  0  1  0  0  0  0  0  0  0  0  0
    7.1012  -17.5275   18.0842 C   0  0  0  0  0  0  0  0  0  0  0  0
    6.2494  -18.1327   17.0454 C   0  0  0  0  0  0  0  0  0  0  0  0
    6.1403  -19.6105   17.0026 C   0  0  0  0  0  0  0  0  0  0  0  0
    5.1989  -20.1212   15.9350 C   0  0  0  0  0  0  0  0  0  0  0  0
    5.2075  -21.5862   15.9273 N   0  0  0  0  0  0  0  0  0  0  0  0
    8.8234  -16.0219   18.8261 C   0  0  0  0  0  0  0  0  0  0  0  0
    9.7520  -16.8613   19.1540 O   0  0  0  0  0  0  0  0  0  0  0  0
    8.7053  -14.8757   19.6195 N   0  0  0  0  0  0  0  0  0  0  0  0
    8.5527  -13.4943   19.1108 C   0  0  0  0  0  0  0  0  0  0  0  0
    7.3564  -13.0381   19.9787 C   0  0  0  0  0  0  0  0  0  0  0  0
    7.3103  -14.0003   21.1560 C   0  0  0  0  0  0  0  0  0  0  0  0
    8.7059  -14.6053   21.0286 C   0  0  1  0  0  0  0  0  0  0  0  0
    9.0160  -15.6032   21.9895 C   0  0  0  0  0  0  0  0  0  0  0  0
    8.2319  -16.4225   22.4772 O   0  0  0  0  0  0  0  0  0  0  0  0
   12.3130  -16.9497   23.2952 C   0  0  0  0  0  0  0  0  0  0  0  0
   10.8073  -16.7240   23.3651 C   0  0  2  0  0  0  0  0  0  0  0  0
   10.3778  -15.6903   22.4610 N   0  0  0  0  0  0  0  0  0  0  0  0
   10.5166  -16.2973   24.7553 C   0  0  0  0  0  0  0  0  0  0  0  0
    9.9420  -15.0642   25.0487 O   0  0  0  0  0  0  0  0  0  0  0  0
   10.8065  -17.0906   25.6868 O   0  0  0  0  0  0  0  0  0  0  0  0
  2  1  1  6
  3  2  1  0
  4  3  1  0
  5  4  1  0
  6  5  1  0
  7  6  1  0
  8  2  1  0
  8 10  1  0
  9  8  2  0
 10 11  1  0
 11 12  1  0
 13 14  1  0
 13 12  1  0
 14 10  1  0
 15 19  1  0
 14 15  1  1
 16 15  2  0
 18 17  1  1
 18 19  1  0
 20 21  1  0
 20 18  1  0
 22 20  2  0
M  END
$$$$
