QMS.pdb
     RDKit          3D

 24 23  0  0  1  0  0  0  0  0999 V2000
   25.1516  -23.7819  -12.3369 N   0  0  0  0  0  0  0  0  0  0  0  0
   24.1270  -24.2440  -13.1950 C   0  0  0  0  0  0  0  0  0  0  0  0
   24.1608  -25.4748  -13.5015 O   0  0  0  0  0  0  0  0  0  0  0  0
   23.0562  -23.3440  -13.7202 C   0  0  0  0  0  0  0  0  0  0  0  0
   23.3058  -21.9210  -13.2701 C   0  0  0  0  0  0  0  0  0  0  0  0
   23.6219  -21.0074  -14.4141 C   0  0  2  0  0  0  0  0  0  0  0  0
   24.9527  -21.2011  -14.8958 N   0  0  0  0  0  0  0  0  0  0  0  0
   23.3377  -19.5961  -14.1348 C   0  0  0  0  0  0  0  0  0  0  0  0
   23.6991  -18.9916  -13.0967 O   0  0  0  0  0  0  0  0  0  0  0  0
   26.2253  -13.3624  -15.3097 C   0  0  0  0  0  0  0  0  0  0  0  0
   25.9692  -15.1543  -15.4287 S   0  0  0  0  0  0  0  0  0  0  0  0
   24.1723  -15.4611  -15.2341 C   0  0  0  0  0  0  0  0  0  0  0  0
   23.9941  -16.9418  -15.2271 C   0  0  0  0  0  0  0  0  0  0  0  0
   22.5594  -17.3984  -15.0637 C   0  0  2  0  0  0  0  0  0  0  0  0
   22.6032  -18.8536  -15.1001 N   0  0  0  0  0  0  0  0  0  0  0  0
   21.7293  -16.9415  -16.2030 C   0  0  0  0  0  0  0  0  0  0  0  0
   22.0208  -17.2300  -17.4021 O   0  0  0  0  0  0  0  0  0  0  0  0
   18.4920  -14.7701  -15.3388 O   0  0  0  0  0  0  0  0  0  0  0  0
   18.3608  -15.3993  -16.5806 C   0  0  0  0  0  0  0  0  0  0  0  0
   19.7368  -15.7436  -17.0577 C   0  0  2  0  0  0  0  0  0  0  0  0
   20.5779  -16.1608  -15.9566 N   0  0  0  0  0  0  0  0  0  0  0  0
   20.3440  -14.4904  -17.6249 C   0  0  0  0  0  0  0  0  0  0  0  0
   21.1920  -13.8588  -16.9373 O   0  0  0  0  0  0  0  0  0  0  0  0
   19.9944  -14.0132  -18.8838 O   0  0  0  0  0  0  0  0  0  0  0  0
  1  2  1  0
  2  3  2  0
  4  5  1  0
  4  2  1  0
  6  5  1  0
  6  8  1  0
  6  7  1  1
  8 15  1  0
  9  8  2  0
 11 12  1  0
 11 10  1  0
 12 13  1  0
 14 13  1  6
 15 14  1  0
 16 17  2  0
 16 14  1  0
 18 19  1  0
 20 19  1  1
 20 22  1  0
 20 21  1  0
 21 16  1  0
 22 24  1  0
 23 22  2  0
M  END
$$$$
