QMS.pdb
     RDKit          3D

 24 23  0  0  1  0  0  0  0  0999 V2000
   16.3077  -12.6301  -19.8201 N   0  0  0  0  0  0  0  0  0  0  0  0
   16.9726  -13.5098  -20.7053 C   0  0  0  0  0  0  0  0  0  0  0  0
   16.4025  -13.7273  -21.8178 O   0  0  0  0  0  0  0  0  0  0  0  0
   18.2759  -14.1556  -20.3633 C   0  0  0  0  0  0  0  0  0  0  0  0
   18.7119  -13.7432  -18.9742 C   0  0  0  0  0  0  0  0  0  0  0  0
   19.9717  -12.9332  -18.9881 C   0  0  2  0  0  0  0  0  0  0  0  0
   21.0812  -13.6864  -19.4802 N   0  0  0  0  0  0  0  0  0  0  0  0
   20.2698  -12.2885  -17.7051 C   0  0  0  0  0  0  0  0  0  0  0  0
   20.3323  -12.8905  -16.6062 O   0  0  0  0  0  0  0  0  0  0  0  0
   26.0946  -10.0411  -14.3203 C   0  0  0  0  0  0  0  0  0  0  0  0
   25.0851  -10.7201  -15.6658 S   0  0  0  0  0  0  0  0  0  0  0  0
   23.3784  -10.0917  -15.4358 C   0  0  0  0  0  0  0  0  0  0  0  0
   22.5608  -10.6738  -16.5389 C   0  0  0  0  0  0  0  0  0  0  0  0
   21.1135  -10.2280  -16.5471 C   0  0  2  0  0  0  0  0  0  0  0  0
   20.5057  -10.8861  -17.6953 N   0  0  0  0  0  0  0  0  0  0  0  0
   21.0154   -8.7647  -16.7593 C   0  0  0  0  0  0  0  0  0  0  0  0
   21.5208   -8.1999  -17.7749 O   0  0  0  0  0  0  0  0  0  0  0  0
   17.9670   -6.6696  -15.5417 O   0  0  0  0  0  0  0  0  0  0  0  0
   19.1224   -5.9586  -15.2033 C   0  0  0  0  0  0  0  0  0  0  0  0
   20.2533   -6.5348  -15.9961 C   0  0  2  0  0  0  0  0  0  0  0  0
   20.3415   -7.9668  -15.8078 N   0  0  0  0  0  0  0  0  0  0  0  0
   21.5271   -5.9414  -15.4612 C   0  0  0  0  0  0  0  0  0  0  0  0
   22.3933   -6.7087  -14.9593 O   0  0  0  0  0  0  0  0  0  0  0  0
   21.7720   -4.5729  -15.5063 O   0  0  0  0  0  0  0  0  0  0  0  0
  1  2  1  0
  2  3  2  0
  4  5  1  0
  4  2  1  0
  6  5  1  0
  6  8  1  0
  6  7  1  1
  8 15  1  0
  9  8  2  0
 11 12  1  0
 11 10  1  0
 12 13  1  0
 14 13  1  6
 15 14  1  0
 16 17  2  0
 16 14  1  0
 18 19  1  0
 20 19  1  1
 20 22  1  0
 20 21  1  0
 21 16  1  0
 22 24  1  0
 23 22  2  0
M  END
$$$$
