QMS.pdb
     RDKit          3D

 24 23  0  0  1  0  0  0  0  0999 V2000
   18.2573  -13.0764  -14.8186 N   0  0  0  0  0  0  0  0  0  0  0  0
   18.0886  -13.2077  -16.2165 C   0  0  0  0  0  0  0  0  0  0  0  0
   18.2284  -14.3750  -16.6938 O   0  0  0  0  0  0  0  0  0  0  0  0
   17.7632  -12.0448  -17.0963 C   0  0  0  0  0  0  0  0  0  0  0  0
   17.5947  -10.7932  -16.2627 C   0  0  0  0  0  0  0  0  0  0  0  0
   18.6040   -9.7402  -16.6030 C   0  0  2  0  0  0  0  0  0  0  0  0
   19.8636  -10.3095  -16.9633 N   0  0  0  0  0  0  0  0  0  0  0  0
   18.7423   -8.7045  -15.5741 C   0  0  0  0  0  0  0  0  0  0  0  0
   17.7794   -8.1505  -14.9912 O   0  0  0  0  0  0  0  0  0  0  0  0
   22.3489  -10.4625  -10.2868 C   0  0  0  0  0  0  0  0  0  0  0  0
   22.7224   -9.2219  -11.5564 S   0  0  0  0  0  0  0  0  0  0  0  0
   21.1467   -8.8169  -12.4013 C   0  0  0  0  0  0  0  0  0  0  0  0
   21.4576   -7.7371  -13.3820 C   0  0  0  0  0  0  0  0  0  0  0  0
   20.2682   -7.2677  -14.1936 C   0  0  2  0  0  0  0  0  0  0  0  0
   20.0527   -8.2933  -15.2048 N   0  0  0  0  0  0  0  0  0  0  0  0
   20.5775   -5.9990  -14.8939 C   0  0  0  0  0  0  0  0  0  0  0  0
   21.4019   -5.9482  -15.8551 O   0  0  0  0  0  0  0  0  0  0  0  0
   17.9429   -3.2709  -15.5751 O   0  0  0  0  0  0  0  0  0  0  0  0
   19.0693   -2.6172  -15.0659 C   0  0  0  0  0  0  0  0  0  0  0  0
   20.2241   -3.5631  -15.1717 C   0  0  2  0  0  0  0  0  0  0  0  0
   19.9410   -4.8055  -14.4860 N   0  0  0  0  0  0  0  0  0  0  0  0
   21.3921   -2.9288  -14.4685 C   0  0  0  0  0  0  0  0  0  0  0  0
   21.9017   -3.5204  -13.4780 O   0  0  0  0  0  0  0  0  0  0  0  0
   21.9215   -1.7109  -14.8823 O   0  0  0  0  0  0  0  0  0  0  0  0
  1  2  1  0
  2  3  2  0
  4  5  1  0
  4  2  1  0
  6  5  1  0
  6  8  1  0
  6  7  1  1
  8 15  1  0
  9  8  2  0
 11 12  1  0
 11 10  1  0
 12 13  1  0
 14 13  1  1
 15 14  1  0
 16 17  2  0
 16 14  1  0
 18 19  1  0
 20 19  1  1
 20 22  1  0
 20 21  1  0
 21 16  1  0
 22 24  1  0
 23 22  2  0
M  END
$$$$
