QMS.pdb
     RDKit          3D

 24 23  0  0  1  0  0  0  0  0999 V2000
   23.6552  -20.1416  -12.8041 N   0  0  0  0  0  0  0  0  0  0  0  0
   22.4993  -20.1610  -11.9897 C   0  0  0  0  0  0  0  0  0  0  0  0
   21.5108  -19.4781  -12.3978 O   0  0  0  0  0  0  0  0  0  0  0  0
   22.4308  -20.9382  -10.7155 C   0  0  0  0  0  0  0  0  0  0  0  0
   23.7162  -21.7087  -10.5066 C   0  0  0  0  0  0  0  0  0  0  0  0
   24.7027  -20.9568   -9.6670 C   0  0  2  0  0  0  0  0  0  0  0  0
   24.0605  -19.9993   -8.8236 N   0  0  0  0  0  0  0  0  0  0  0  0
   25.7989  -20.3627  -10.4389 C   0  0  0  0  0  0  0  0  0  0  0  0
   25.7805  -19.2049  -10.9217 O   0  0  0  0  0  0  0  0  0  0  0  0
   31.7982  -21.8110   -9.1461 C   0  0  0  0  0  0  0  0  0  0  0  0
   31.8844  -22.0664  -10.9399 S   0  0  0  0  0  0  0  0  0  0  0  0
   30.5588  -21.0522  -11.6981 C   0  0  0  0  0  0  0  0  0  0  0  0
   29.2912  -21.4283  -11.0082 C   0  0  0  0  0  0  0  0  0  0  0  0
   28.0790  -20.6358  -11.4513 C   0  0  2  0  0  0  0  0  0  0  0  0
   26.9665  -21.1438  -10.6607 N   0  0  0  0  0  0  0  0  0  0  0  0
   27.7754  -20.8936  -12.8786 C   0  0  0  0  0  0  0  0  0  0  0  0
   27.5542  -22.0623  -13.3158 O   0  0  0  0  0  0  0  0  0  0  0  0
   26.4014  -17.9339  -14.9092 O   0  0  0  0  0  0  0  0  0  0  0  0
   26.2452  -19.1470  -15.5868 C   0  0  0  0  0  0  0  0  0  0  0  0
   27.3687  -20.0431  -15.1692 C   0  0  2  0  0  0  0  0  0  0  0  0
   27.7292  -19.8124  -13.7869 N   0  0  0  0  0  0  0  0  0  0  0  0
   28.5670  -19.6819  -16.0026 C   0  0  0  0  0  0  0  0  0  0  0  0
   29.5796  -19.1906  -15.4333 O   0  0  0  0  0  0  0  0  0  0  0  0
   28.5853  -19.8756  -17.3799 O   0  0  0  0  0  0  0  0  0  0  0  0
  1  2  1  0
  2  3  2  0
  4  5  1  0
  4  2  1  0
  6  5  1  0
  6  8  1  0
  6  7  1  6
  8 15  1  0
  9  8  2  0
 11 12  1  0
 11 10  1  0
 12 13  1  0
 14 13  1  1
 15 14  1  0
 16 17  2  0
 16 14  1  0
 18 19  1  0
 20 19  1  6
 20 22  1  0
 20 21  1  0
 21 16  1  0
 22 24  1  0
 23 22  2  0
M  END
$$$$
