QMS.pdb
     RDKit          3D

 24 23  0  0  1  0  0  0  0  0999 V2000
   17.8922  -10.5082  -18.8447 N   0  0  0  0  0  0  0  0  0  0  0  0
   17.4634  -11.7772  -18.3917 C   0  0  0  0  0  0  0  0  0  0  0  0
   16.8969  -12.5203  -19.2501 O   0  0  0  0  0  0  0  0  0  0  0  0
   17.6596  -12.2323  -16.9821 C   0  0  0  0  0  0  0  0  0  0  0  0
   18.2645  -11.1185  -16.1555 C   0  0  0  0  0  0  0  0  0  0  0  0
   19.7597  -11.1911  -16.1065 C   0  0  2  0  0  0  0  0  0  0  0  0
   20.2138  -12.4557  -15.6217 N   0  0  0  0  0  0  0  0  0  0  0  0
   20.3790  -10.0721  -15.3890 C   0  0  0  0  0  0  0  0  0  0  0  0
   20.2364   -9.8497  -14.1627 O   0  0  0  0  0  0  0  0  0  0  0  0
   26.3986  -11.2356  -14.9001 C   0  0  0  0  0  0  0  0  0  0  0  0
   25.7364   -9.6854  -15.5699 S   0  0  0  0  0  0  0  0  0  0  0  0
   23.9593   -9.6158  -15.1250 C   0  0  0  0  0  0  0  0  0  0  0  0
   23.4075   -8.3931  -15.7767 C   0  0  0  0  0  0  0  0  0  0  0  0
   21.9523   -8.1180  -15.4598 C   0  0  2  0  0  0  0  0  0  0  0  0
   21.1989   -9.1723  -16.1245 N   0  0  0  0  0  0  0  0  0  0  0  0
   21.5244   -6.8222  -16.0376 C   0  0  0  0  0  0  0  0  0  0  0  0
   21.3476   -6.6701  -17.2832 O   0  0  0  0  0  0  0  0  0  0  0  0
   18.7656   -4.6404  -14.6752 O   0  0  0  0  0  0  0  0  0  0  0  0
   19.8736   -3.7970  -14.8018 C   0  0  0  0  0  0  0  0  0  0  0  0
   20.8404   -4.4614  -15.7310 C   0  0  2  0  0  0  0  0  0  0  0  0
   21.3048   -5.7180  -15.1841 N   0  0  0  0  0  0  0  0  0  0  0  0
   22.0404   -3.5632  -15.8505 C   0  0  0  0  0  0  0  0  0  0  0  0
   23.1643   -3.9944  -15.4742 O   0  0  0  0  0  0  0  0  0  0  0  0
   21.9411   -2.2742  -16.3636 O   0  0  0  0  0  0  0  0  0  0  0  0
  1  2  1  0
  2  3  2  0
  4  5  1  0
  4  2  1  0
  6  5  1  0
  6  8  1  0
  6  7  1  1
  8 15  1  0
  9  8  2  0
 11 12  1  0
 11 10  1  0
 12 13  1  0
 14 13  1  6
 15 14  1  0
 16 17  2  0
 16 14  1  0
 18 19  1  0
 20 19  1  1
 20 22  1  0
 20 21  1  0
 21 16  1  0
 22 24  1  0
 23 22  2  0
M  END
$$$$
