QMS.pdb
     RDKit          3D

 24 23  0  0  1  0  0  0  0  0999 V2000
   21.0081  -15.8442  -18.9810 N   0  0  0  0  0  0  0  0  0  0  0  0
   19.6938  -15.6678  -18.4901 C   0  0  0  0  0  0  0  0  0  0  0  0
   18.7925  -16.3854  -19.0218 O   0  0  0  0  0  0  0  0  0  0  0  0
   19.3686  -14.6937  -17.4048 C   0  0  0  0  0  0  0  0  0  0  0  0
   20.6169  -13.9503  -16.9821 C   0  0  0  0  0  0  0  0  0  0  0  0
   20.6038  -12.5177  -17.4188 C   0  0  2  0  0  0  0  0  0  0  0  0
   21.2244  -12.3461  -18.6940 N   0  0  0  0  0  0  0  0  0  0  0  0
   21.1419  -11.5928  -16.4160 C   0  0  0  0  0  0  0  0  0  0  0  0
   20.5906  -11.3369  -15.3186 O   0  0  0  0  0  0  0  0  0  0  0  0
   27.3108  -10.3196  -16.8534 C   0  0  0  0  0  0  0  0  0  0  0  0
   27.0297  -10.0237  -15.0859 S   0  0  0  0  0  0  0  0  0  0  0  0
   25.2971   -9.4550  -14.8984 C   0  0  0  0  0  0  0  0  0  0  0  0
   24.4687  -10.3219  -15.7852 C   0  0  0  0  0  0  0  0  0  0  0  0
   22.9835  -10.0293  -15.7360 C   0  0  2  0  0  0  0  0  0  0  0  0
   22.3719  -10.9363  -16.6972 N   0  0  0  0  0  0  0  0  0  0  0  0
   22.7059   -8.6433  -16.1808 C   0  0  0  0  0  0  0  0  0  0  0  0
   23.0154   -8.2375  -17.3408 O   0  0  0  0  0  0  0  0  0  0  0  0
   19.8134   -6.5631  -14.6099 O   0  0  0  0  0  0  0  0  0  0  0  0
   20.4164   -6.0345  -15.7554 C   0  0  0  0  0  0  0  0  0  0  0  0
   21.8750   -6.3625  -15.6878 C   0  0  2  0  0  0  0  0  0  0  0  0
   22.0787   -7.7399  -15.2939 N   0  0  0  0  0  0  0  0  0  0  0  0
   22.4808   -5.5033  -14.6128 C   0  0  0  0  0  0  0  0  0  0  0  0
   22.9300   -6.0558  -13.5718 O   0  0  0  0  0  0  0  0  0  0  0  0
   22.5573   -4.1201  -14.7384 O   0  0  0  0  0  0  0  0  0  0  0  0
  1  2  1  0
  2  3  2  0
  4  5  1  0
  4  2  1  0
  6  5  1  0
  6  8  1  0
  6  7  1  6
  8 15  1  0
  9  8  2  0
 11 12  1  0
 11 10  1  0
 12 13  1  0
 14 13  1  6
 15 14  1  0
 16 17  2  0
 16 14  1  0
 18 19  1  0
 20 19  1  1
 20 22  1  0
 20 21  1  0
 21 16  1  0
 22 24  1  0
 23 22  2  0
M  END
$$$$
