QMS.pdb
     RDKit          3D

 24 23  0  0  1  0  0  0  0  0999 V2000
   23.6800  -16.4902  -17.9909 N   0  0  0  0  0  0  0  0  0  0  0  0
   23.1957  -16.6271  -19.3125 C   0  0  0  0  0  0  0  0  0  0  0  0
   23.8602  -17.3880  -20.0802 O   0  0  0  0  0  0  0  0  0  0  0  0
   21.9699  -15.9207  -19.7931 C   0  0  0  0  0  0  0  0  0  0  0  0
   21.3533  -15.1232  -18.6647 C   0  0  0  0  0  0  0  0  0  0  0  0
   21.3852  -13.6483  -18.9239 C   0  0  2  0  0  0  0  0  0  0  0  0
   22.2592  -13.3185  -20.0046 N   0  0  0  0  0  0  0  0  0  0  0  0
   21.6630  -12.8474  -17.7273 C   0  0  0  0  0  0  0  0  0  0  0  0
   21.0536  -12.9656  -16.6372 O   0  0  0  0  0  0  0  0  0  0  0  0
   27.7425  -13.3080  -15.3702 C   0  0  0  0  0  0  0  0  0  0  0  0
   26.9394  -11.8218  -16.0310 S   0  0  0  0  0  0  0  0  0  0  0  0
   25.1290  -12.0947  -15.9378 C   0  0  0  0  0  0  0  0  0  0  0  0
   24.4891  -10.9142  -16.5866 C   0  0  0  0  0  0  0  0  0  0  0  0
   22.9788  -10.9892  -16.6715 C   0  0  2  0  0  0  0  0  0  0  0  0
   22.6913  -11.8674  -17.7972 N   0  0  0  0  0  0  0  0  0  0  0  0
   22.4027   -9.6584  -16.9764 C   0  0  0  0  0  0  0  0  0  0  0  0
   22.7521   -8.9956  -17.9985 O   0  0  0  0  0  0  0  0  0  0  0  0
   19.3936   -8.2608  -14.6481 O   0  0  0  0  0  0  0  0  0  0  0  0
   19.4628   -7.7030  -15.9284 C   0  0  0  0  0  0  0  0  0  0  0  0
   20.8864   -7.7924  -16.3814 C   0  0  2  0  0  0  0  0  0  0  0  0
   21.4356   -9.1032  -16.1090 N   0  0  0  0  0  0  0  0  0  0  0  0
   21.6801   -6.8057  -15.5707 C   0  0  0  0  0  0  0  0  0  0  0  0
   21.4178   -5.5767  -15.6794 O   0  0  0  0  0  0  0  0  0  0  0  0
   22.6918   -7.2137  -14.7078 O   0  0  0  0  0  0  0  0  0  0  0  0
  1  2  1  0
  2  3  2  0
  4  5  1  0
  4  2  1  0
  6  5  1  0
  6  8  1  0
  6  7  1  6
  8 15  1  0
  9  8  2  0
 11 12  1  0
 11 10  1  0
 12 13  1  0
 14 13  1  6
 15 14  1  0
 16 17  2  0
 16 14  1  0
 18 19  1  0
 20 19  1  1
 20 22  1  0
 20 21  1  0
 21 16  1  0
 22 24  1  0
 23 22  2  0
M  END
$$$$
