QMS.pdb
     RDKit          3D

 24 23  0  0  1  0  0  0  0  0999 V2000
   14.2366  -10.5476  -19.4281 N   0  0  0  0  0  0  0  0  0  0  0  0
   15.2858   -9.6637  -19.0855 C   0  0  0  0  0  0  0  0  0  0  0  0
   15.5941   -8.7914  -19.9539 O   0  0  0  0  0  0  0  0  0  0  0  0
   16.0019   -9.7404  -17.7764 C   0  0  0  0  0  0  0  0  0  0  0  0
   17.4823   -9.5012  -17.9786 C   0  0  0  0  0  0  0  0  0  0  0  0
   18.3229  -10.5903  -17.3865 C   0  0  2  0  0  0  0  0  0  0  0  0
   17.5256  -11.6734  -16.9050 N   0  0  0  0  0  0  0  0  0  0  0  0
   19.2736  -10.1152  -16.3761 C   0  0  0  0  0  0  0  0  0  0  0  0
   19.0128  -10.0017  -15.1543 O   0  0  0  0  0  0  0  0  0  0  0  0
   26.7696  -10.1335  -14.6021 C   0  0  0  0  0  0  0  0  0  0  0  0
   25.4015  -10.5701  -15.7103 S   0  0  0  0  0  0  0  0  0  0  0  0
   23.9990   -9.4610  -15.3062 C   0  0  0  0  0  0  0  0  0  0  0  0
   22.8655   -9.8756  -16.1823 C   0  0  0  0  0  0  0  0  0  0  0  0
   21.5513   -9.1900  -15.8714 C   0  0  2  0  0  0  0  0  0  0  0  0
   20.5829   -9.7562  -16.8000 N   0  0  0  0  0  0  0  0  0  0  0  0
   21.6406   -7.7356  -16.1409 C   0  0  0  0  0  0  0  0  0  0  0  0
   21.8682   -7.2824  -17.3022 O   0  0  0  0  0  0  0  0  0  0  0  0
   20.2954   -3.4060  -15.4081 O   0  0  0  0  0  0  0  0  0  0  0  0
   20.1593   -4.7800  -15.1873 C   0  0  0  0  0  0  0  0  0  0  0  0
   21.5149   -5.3960  -15.3373 C   0  0  2  0  0  0  0  0  0  0  0  0
   21.4690   -6.8191  -15.0795 N   0  0  0  0  0  0  0  0  0  0  0  0
   22.4050   -4.7874  -14.2894 C   0  0  0  0  0  0  0  0  0  0  0  0
   22.5233   -5.3701  -13.1770 O   0  0  0  0  0  0  0  0  0  0  0  0
   23.0977   -3.6027  -14.5162 O   0  0  0  0  0  0  0  0  0  0  0  0
  1  2  1  0
  2  3  2  0
  4  5  1  0
  4  2  1  0
  6  5  1  0
  6  8  1  0
  6  7  1  1
  8 15  1  0
  9  8  2  0
 11 12  1  0
 11 10  1  0
 12 13  1  0
 14 13  1  6
 15 14  1  0
 16 17  2  0
 16 14  1  0
 18 19  1  0
 20 19  1  1
 20 22  1  0
 20 21  1  0
 21 16  1  0
 22 24  1  0
 23 22  2  0
M  END
$$$$
