QMS.pdb
     RDKit          3D

 24 23  0  0  1  0  0  0  0  0999 V2000
   28.9722  -16.6870  -16.5615 N   0  0  0  0  0  0  0  0  0  0  0  0
   28.1731  -17.3519  -17.5200 C   0  0  0  0  0  0  0  0  0  0  0  0
   28.4330  -17.1077  -18.7377 O   0  0  0  0  0  0  0  0  0  0  0  0
   27.0786  -18.2935  -17.1353 C   0  0  0  0  0  0  0  0  0  0  0  0
   26.9865  -18.3959  -15.6284 C   0  0  0  0  0  0  0  0  0  0  0  0
   27.5871  -19.6640  -15.1044 C   0  0  2  0  0  0  0  0  0  0  0  0
   28.4222  -20.2964  -16.0757 N   0  0  0  0  0  0  0  0  0  0  0  0
   26.6017  -20.5910  -14.5387 C   0  0  0  0  0  0  0  0  0  0  0  0
   25.9106  -21.3909  -15.2142 O   0  0  0  0  0  0  0  0  0  0  0  0
   24.7497  -21.1595   -7.8199 C   0  0  0  0  0  0  0  0  0  0  0  0
   26.1445  -20.3278   -8.6282 S   0  0  0  0  0  0  0  0  0  0  0  0
   25.6793  -20.0656  -10.3819 C   0  0  0  0  0  0  0  0  0  0  0  0
   25.6891  -21.4098  -11.0279 C   0  0  0  0  0  0  0  0  0  0  0  0
   25.3663  -21.3952  -12.5075 C   0  0  2  0  0  0  0  0  0  0  0  0
   26.4090  -20.5910  -13.1296 N   0  0  0  0  0  0  0  0  0  0  0  0
   24.0683  -20.7246  -12.7558 C   0  0  0  0  0  0  0  0  0  0  0  0
   23.9470  -19.4639  -12.7137 O   0  0  0  0  0  0  0  0  0  0  0  0
   20.0230  -20.6725  -15.0504 O   0  0  0  0  0  0  0  0  0  0  0  0
   21.1863  -21.3805  -14.7334 C   0  0  0  0  0  0  0  0  0  0  0  0
   21.6867  -20.8593  -13.4229 C   0  0  2  0  0  0  0  0  0  0  0  0
   22.9268  -21.5040  -13.0482 N   0  0  0  0  0  0  0  0  0  0  0  0
   20.6694  -21.2203  -12.3762 C   0  0  0  0  0  0  0  0  0  0  0  0
   20.9076  -22.1876  -11.6027 O   0  0  0  0  0  0  0  0  0  0  0  0
   19.4773  -20.5163  -12.2412 O   0  0  0  0  0  0  0  0  0  0  0  0
  1  2  1  0
  2  3  2  0
  4  5  1  0
  4  2  1  0
  6  5  1  0
  6  8  1  0
  6  7  1  6
  8 15  1  0
  9  8  2  0
 11 12  1  0
 11 10  1  0
 12 13  1  0
 14 13  1  1
 15 14  1  0
 16 17  2  0
 16 14  1  0
 18 19  1  0
 20 19  1  6
 20 22  1  0
 20 21  1  0
 21 16  1  0
 22 24  1  0
 23 22  2  0
M  END
$$$$
