QMS.pdb
     RDKit          3D

 24 23  0  0  1  0  0  0  0  0999 V2000
   26.4132  -10.9629  -14.9633 N   0  0  0  0  0  0  0  0  0  0  0  0
   25.8614  -11.0342  -16.2633 C   0  0  0  0  0  0  0  0  0  0  0  0
   26.6572  -10.8118  -17.2263 O   0  0  0  0  0  0  0  0  0  0  0  0
   24.4219  -11.3527  -16.5057 C   0  0  0  0  0  0  0  0  0  0  0  0
   23.7023  -11.5422  -15.1881 C   0  0  0  0  0  0  0  0  0  0  0  0
   22.2265  -11.7271  -15.3649 C   0  0  2  0  0  0  0  0  0  0  0  0
   21.9274  -12.5781  -16.4725 N   0  0  0  0  0  0  0  0  0  0  0  0
   21.4791  -10.4667  -15.4217 C   0  0  0  0  0  0  0  0  0  0  0  0
   20.9401  -10.0075  -16.4573 O   0  0  0  0  0  0  0  0  0  0  0  0
   16.5110  -10.5268  -10.9985 C   0  0  0  0  0  0  0  0  0  0  0  0
   17.9291   -9.3984  -11.0776 S   0  0  0  0  0  0  0  0  0  0  0  0
   18.5529   -9.4287  -12.8011 C   0  0  0  0  0  0  0  0  0  0  0  0
   19.7988   -8.6091  -12.8147 C   0  0  0  0  0  0  0  0  0  0  0  0
   20.4851   -8.5365  -14.1628 C   0  0  2  0  0  0  0  0  0  0  0  0
   21.3508   -9.7058  -14.2271 N   0  0  0  0  0  0  0  0  0  0  0  0
   21.3436   -7.3319  -14.2514 C   0  0  0  0  0  0  0  0  0  0  0  0
   22.4665   -7.2654  -13.6678 O   0  0  0  0  0  0  0  0  0  0  0  0
   22.1743   -3.1244  -16.3990 O   0  0  0  0  0  0  0  0  0  0  0  0
   21.3374   -4.2432  -16.3445 C   0  0  0  0  0  0  0  0  0  0  0  0
   21.7792   -5.0790  -15.1844 C   0  0  2  0  0  0  0  0  0  0  0  0
   20.9070   -6.2197  -15.0054 N   0  0  0  0  0  0  0  0  0  0  0  0
   21.6572   -4.2333  -13.9472 C   0  0  0  0  0  0  0  0  0  0  0  0
   20.5476   -4.1842  -13.3495 O   0  0  0  0  0  0  0  0  0  0  0  0
   22.7336   -3.5071  -13.4484 O   0  0  0  0  0  0  0  0  0  0  0  0
  1  2  1  0
  2  3  2  0
  4  5  1  0
  4  2  1  0
  6  5  1  0
  6  8  1  0
  6  7  1  6
  8 15  1  0
  9  8  2  0
 11 12  1  0
 11 10  1  0
 12 13  1  0
 14 13  1  1
 15 14  1  0
 16 17  2  0
 16 14  1  0
 18 19  1  0
 20 19  1  6
 20 22  1  0
 20 21  1  0
 21 16  1  0
 22 24  1  0
 23 22  2  0
M  END
$$$$
