QMS.pdb
     RDKit          3D

 24 23  0  0  1  0  0  0  0  0999 V2000
   16.0920  -25.9058  -10.0076 N   0  0  0  0  0  0  0  0  0  0  0  0
   17.1026  -26.7479   -9.4887 C   0  0  0  0  0  0  0  0  0  0  0  0
   16.7330  -27.8971   -9.0981 O   0  0  0  0  0  0  0  0  0  0  0  0
   18.5318  -26.3217   -9.3989 C   0  0  0  0  0  0  0  0  0  0  0  0
   18.7063  -24.9530  -10.0202 C   0  0  0  0  0  0  0  0  0  0  0  0
   19.1807  -23.9332   -9.0311 C   0  0  2  0  0  0  0  0  0  0  0  0
   18.2217  -23.7121   -7.9957 N   0  0  0  0  0  0  0  0  0  0  0  0
   19.6240  -22.6786   -9.6476 C   0  0  0  0  0  0  0  0  0  0  0  0
   18.8526  -21.7792  -10.0596 O   0  0  0  0  0  0  0  0  0  0  0  0
   26.3660  -21.1242  -11.1679 C   0  0  0  0  0  0  0  0  0  0  0  0
   25.4239  -20.0759  -10.0259 S   0  0  0  0  0  0  0  0  0  0  0  0
   23.7034  -19.9968  -10.6538 C   0  0  0  0  0  0  0  0  0  0  0  0
   22.9704  -21.1328  -10.0243 C   0  0  0  0  0  0  0  0  0  0  0  0
   21.5343  -21.2810  -10.4818 C   0  0  2  0  0  0  0  0  0  0  0  0
   21.0213  -22.4569   -9.7928 N   0  0  0  0  0  0  0  0  0  0  0  0
   21.4713  -21.5459  -11.9384 C   0  0  0  0  0  0  0  0  0  0  0  0
   21.3591  -22.7203  -12.4012 O   0  0  0  0  0  0  0  0  0  0  0  0
   19.2980  -20.7904  -15.6764 O   0  0  0  0  0  0  0  0  0  0  0  0
   19.6269  -20.5574  -14.3375 C   0  0  0  0  0  0  0  0  0  0  0  0
   21.1161  -20.6457  -14.2185 C   0  0  2  0  0  0  0  0  0  0  0  0
   21.5379  -20.4654  -12.8461 N   0  0  0  0  0  0  0  0  0  0  0  0
   21.6998  -19.5091  -15.0112 C   0  0  0  0  0  0  0  0  0  0  0  0
   21.9022  -19.6680  -16.2460 O   0  0  0  0  0  0  0  0  0  0  0  0
   22.0204  -18.2924  -14.4182 O   0  0  0  0  0  0  0  0  0  0  0  0
  1  2  1  0
  2  3  2  0
  4  5  1  0
  4  2  1  0
  6  5  1  0
  6  8  1  0
  6  7  1  1
  8 15  1  0
  9  8  2  0
 11 12  1  0
 11 10  1  0
 12 13  1  0
 14 13  1  1
 15 14  1  0
 16 17  2  0
 16 14  1  0
 18 19  1  0
 20 19  1  1
 20 22  1  0
 20 21  1  0
 21 16  1  0
 22 24  1  0
 23 22  2  0
M  END
$$$$
