MDA.pdb
     RDKit          3D

 22 21  0  0  1  0  0  0  0  0999 V2000
    7.1549  -12.7189   24.6769 C   0  0  0  0  0  0  0  0  0  0  0  0
    8.0937  -13.0123   23.1826 S   0  0  0  0  0  0  0  0  0  0  0  0
    7.0843  -13.2065   21.7451 C   0  0  0  0  0  0  0  0  0  0  0  0
    6.9573  -14.5375   21.1212 C   0  0  0  0  0  0  0  0  0  0  0  0
    8.1725  -15.3490   20.8911 C   0  0  2  0  0  0  0  0  0  0  0  0
    7.9179  -16.4753   19.9779 N   0  0  0  0  0  0  0  0  0  0  0  0
    8.5262  -15.9799   22.2157 C   0  0  0  0  0  0  0  0  0  0  0  0
    7.6117  -16.5524   22.8471 O   0  0  0  0  0  0  0  0  0  0  0  0
    9.8295  -15.9507   22.7616 N   0  0  0  0  0  0  0  0  0  0  0  0
   10.1958  -16.6193   24.0102 C   0  0  1  0  0  0  0  0  0  0  0  0
   11.3709  -17.5196   23.7738 C   0  0  0  0  0  0  0  0  0  0  0  0
   11.1686  -18.6029   22.8141 C   0  0  0  0  0  0  0  0  0  0  0  0
   10.2567  -19.4540   22.8492 O   0  0  0  0  0  0  0  0  0  0  0  0
   10.4346  -15.5555   25.0080 C   0  0  0  0  0  0  0  0  0  0  0  0
   11.4155  -14.7776   24.9254 O   0  0  0  0  0  0  0  0  0  0  0  0
   12.0615  -18.7353   21.7350 O   0  0  0  0  0  0  0  0  0  0  0  0
    8.6822  -13.6193   27.5206 C   0  0  0  0  0  0  0  0  0  0  0  0
    9.8924  -14.4773   27.1951 C   0  0  2  0  0  0  0  0  0  0  0  0
    9.5336  -15.3832   26.1153 N   0  0  0  0  0  0  0  0  0  0  0  0
   10.2357  -15.2441   28.4226 C   0  0  0  0  0  0  0  0  0  0  0  0
   10.7150  -14.5797   29.5341 O   0  0  0  0  0  0  0  0  0  0  0  0
   10.0745  -16.5131   28.4114 O   0  0  0  0  0  0  0  0  0  0  0  0
  2  1  1  0
  3  4  1  0
  3  2  1  0
  4  5  1  0
  5  7  1  0
  5  6  1  6
  7  8  2  0
  9 10  1  0
  9  7  1  0
 10 14  1  0
 10 11  1  6
 12 11  1  0
 13 12  2  0
 14 15  2  0
 14 19  1  0
 16 12  1  0
 18 17  1  1
 19 18  1  0
 20 21  1  0
 20 18  1  0
 22 20  2  0
M  END
$$$$
