MDA.pdb
     RDKit          3D

 22 21  0  0  1  0  0  0  0  0999 V2000
    7.9788  -11.3945   21.1499 C   0  0  0  0  0  0  0  0  0  0  0  0
    7.8518  -12.7124   19.9470 S   0  0  0  0  0  0  0  0  0  0  0  0
    6.9971  -14.1361   20.5517 C   0  0  0  0  0  0  0  0  0  0  0  0
    7.5869  -14.9252   21.6501 C   0  0  0  0  0  0  0  0  0  0  0  0
    8.4183  -16.1058   21.3292 C   0  0  2  0  0  0  0  0  0  0  0  0
    7.6411  -17.1611   20.6587 N   0  0  0  0  0  0  0  0  0  0  0  0
    8.8476  -16.7013   22.6478 C   0  0  0  0  0  0  0  0  0  0  0  0
    8.0160  -17.4013   23.2652 O   0  0  0  0  0  0  0  0  0  0  0  0
   10.1321  -16.5034   23.2030 N   0  0  0  0  0  0  0  0  0  0  0  0
   10.5509  -17.0660   24.4869 C   0  0  1  0  0  0  0  0  0  0  0  0
   11.8003  -17.8731   24.2999 C   0  0  0  0  0  0  0  0  0  0  0  0
   12.3528  -18.4916   25.5031 C   0  0  0  0  0  0  0  0  0  0  0  0
   11.6968  -18.9429   26.4640 O   0  0  0  0  0  0  0  0  0  0  0  0
   10.6935  -15.9307   25.4223 C   0  0  0  0  0  0  0  0  0  0  0  0
   11.6031  -15.0763   25.2937 O   0  0  0  0  0  0  0  0  0  0  0  0
   13.7487  -18.6097   25.6313 O   0  0  0  0  0  0  0  0  0  0  0  0
    8.7187  -13.9711   27.7176 C   0  0  0  0  0  0  0  0  0  0  0  0
   10.0153  -14.7337   27.5074 C   0  0  2  0  0  0  0  0  0  0  0  0
    9.7781  -15.7753   26.5203 N   0  0  0  0  0  0  0  0  0  0  0  0
   10.3936  -15.3346   28.8145 C   0  0  0  0  0  0  0  0  0  0  0  0
   10.7758  -14.5171   29.8596 O   0  0  0  0  0  0  0  0  0  0  0  0
   10.3530  -16.6077   28.9325 O   0  0  0  0  0  0  0  0  0  0  0  0
  2  1  1  0
  3  4  1  0
  3  2  1  0
  4  5  1  0
  5  7  1  0
  5  6  1  1
  7  8  2  0
  9 10  1  0
  9  7  1  0
 10 14  1  0
 10 11  1  6
 12 11  1  0
 13 12  2  0
 14 15  2  0
 14 19  1  0
 16 12  1  0
 18 17  1  1
 19 18  1  0
 20 21  1  0
 20 18  1  0
 22 20  2  0
M  END
$$$$
