MDA.pdb
     RDKit          3D

 22 21  0  0  1  0  0  0  0  0999 V2000
    6.8637  -12.9225   26.9360 C   0  0  0  0  0  0  0  0  0  0  0  0
    7.7767  -13.0190   25.4007 S   0  0  0  0  0  0  0  0  0  0  0  0
    6.8071  -12.6145   23.9797 C   0  0  0  0  0  0  0  0  0  0  0  0
    6.5990  -13.6297   22.9296 C   0  0  0  0  0  0  0  0  0  0  0  0
    7.7669  -14.1617   22.1939 C   0  0  2  0  0  0  0  0  0  0  0  0
    7.4068  -14.6101   20.8387 N   0  0  0  0  0  0  0  0  0  0  0  0
    8.2050  -15.4075   22.9245 C   0  0  0  0  0  0  0  0  0  0  0  0
    7.3146  -16.1320   23.4194 O   0  0  0  0  0  0  0  0  0  0  0  0
    9.5601  -15.7823   23.0683 N   0  0  0  0  0  0  0  0  0  0  0  0
    9.9865  -17.0744   23.6059 C   0  0  1  0  0  0  0  0  0  0  0  0
   11.3865  -17.3693   23.1580 C   0  0  0  0  0  0  0  0  0  0  0  0
   11.5778  -17.5479   21.7203 C   0  0  0  0  0  0  0  0  0  0  0  0
   10.7725  -18.0867   20.9338 O   0  0  0  0  0  0  0  0  0  0  0  0
    9.8191  -17.0009   25.0724 C   0  0  0  0  0  0  0  0  0  0  0  0
   10.3364  -16.0829   25.7533 O   0  0  0  0  0  0  0  0  0  0  0  0
   12.7657  -17.0841   21.1262 O   0  0  0  0  0  0  0  0  0  0  0  0
    7.7716  -18.7651   27.6615 C   0  0  0  0  0  0  0  0  0  0  0  0
    8.9896  -17.9731   27.2188 C   0  0  2  0  0  0  0  0  0  0  0  0
    9.0463  -17.9959   25.7656 N   0  0  0  0  0  0  0  0  0  0  0  0
   10.1870  -18.6416   27.7949 C   0  0  0  0  0  0  0  0  0  0  0  0
   11.1328  -19.1959   26.9554 O   0  0  0  0  0  0  0  0  0  0  0  0
   10.3061  -18.6834   29.0679 O   0  0  0  0  0  0  0  0  0  0  0  0
  2  1  1  0
  3  4  1  0
  3  2  1  0
  4  5  1  0
  5  7  1  0
  5  6  1  6
  7  8  2  0
  9 10  1  0
  9  7  1  0
 10 14  1  0
 10 11  1  1
 12 11  1  0
 13 12  2  0
 14 15  2  0
 14 19  1  0
 16 12  1  0
 18 17  1  6
 19 18  1  0
 20 21  1  0
 20 18  1  0
 22 20  2  0
M  END
$$$$
