MDA.pdb
     RDKit          3D

 22 21  0  0  1  0  0  0  0  0999 V2000
    6.6719  -11.5313   27.3459 C   0  0  0  0  0  0  0  0  0  0  0  0
    7.1908  -13.0919   26.6420 S   0  0  0  0  0  0  0  0  0  0  0  0
    6.5819  -13.3618   25.0051 C   0  0  0  0  0  0  0  0  0  0  0  0
    6.8360  -14.6538   24.3395 C   0  0  0  0  0  0  0  0  0  0  0  0
    7.8968  -14.7438   23.3125 C   0  0  2  0  0  0  0  0  0  0  0  0
    7.3927  -15.3031   22.0474 N   0  0  0  0  0  0  0  0  0  0  0  0
    8.9038  -15.7467   23.8203 C   0  0  0  0  0  0  0  0  0  0  0  0
    8.4811  -16.6798   24.5368 O   0  0  0  0  0  0  0  0  0  0  0  0
   10.2834  -15.6749   23.5220 N   0  0  0  0  0  0  0  0  0  0  0  0
   11.2928  -16.5135   24.1687 C   0  0  1  0  0  0  0  0  0  0  0  0
   12.4764  -16.6674   23.2615 C   0  0  0  0  0  0  0  0  0  0  0  0
   12.2084  -17.2473   21.9472 C   0  0  0  0  0  0  0  0  0  0  0  0
   12.5652  -16.7736   20.8492 O   0  0  0  0  0  0  0  0  0  0  0  0
   11.6003  -15.8822   25.4691 C   0  0  0  0  0  0  0  0  0  0  0  0
   12.5994  -15.1396   25.6256 O   0  0  0  0  0  0  0  0  0  0  0  0
   11.4845  -18.4508   21.8661 O   0  0  0  0  0  0  0  0  0  0  0  0
   10.3709  -14.4408   28.3054 C   0  0  0  0  0  0  0  0  0  0  0  0
   11.1802  -15.6675   27.9222 C   0  0  2  0  0  0  0  0  0  0  0  0
   10.7478  -16.1074   26.6050 N   0  0  0  0  0  0  0  0  0  0  0  0
   10.9007  -16.7184   28.9373 C   0  0  0  0  0  0  0  0  0  0  0  0
   11.3803  -16.5731   30.2239 O   0  0  0  0  0  0  0  0  0  0  0  0
   10.2154  -17.7387   28.5828 O   0  0  0  0  0  0  0  0  0  0  0  0
  2  1  1  0
  3  4  1  0
  3  2  1  0
  4  5  1  0
  5  7  1  0
  5  6  1  6
  7  8  2  0
  9 10  1  0
  9  7  1  0
 10 14  1  0
 10 11  1  6
 12 11  1  0
 13 12  2  0
 14 15  2  0
 14 19  1  0
 16 12  1  0
 18 17  1  1
 19 18  1  0
 20 21  1  0
 20 18  1  0
 22 20  2  0
M  END
$$$$
