MDA.pdb
     RDKit          3D

 22 21  0  0  1  0  0  0  0  0999 V2000
    6.2334  -11.3152   24.9304 C   0  0  0  0  0  0  0  0  0  0  0  0
    5.8218  -12.5094   26.1971 S   0  0  0  0  0  0  0  0  0  0  0  0
    6.2471  -14.1689   25.7633 C   0  0  0  0  0  0  0  0  0  0  0  0
    6.7013  -14.4674   24.3917 C   0  0  0  0  0  0  0  0  0  0  0  0
    6.9205  -15.8743   23.9906 C   0  0  2  0  0  0  0  0  0  0  0  0
    5.9784  -16.7897   24.6552 N   0  0  0  0  0  0  0  0  0  0  0  0
    8.2853  -16.2612   24.5058 C   0  0  0  0  0  0  0  0  0  0  0  0
    8.3381  -16.9278   25.5620 O   0  0  0  0  0  0  0  0  0  0  0  0
    9.4868  -15.9067   23.8515 N   0  0  0  0  0  0  0  0  0  0  0  0
   10.8030  -16.3959   24.2621 C   0  0  1  0  0  0  0  0  0  0  0  0
   11.8156  -16.0636   23.2077 C   0  0  0  0  0  0  0  0  0  0  0  0
   13.1263  -16.6931   23.3532 C   0  0  0  0  0  0  0  0  0  0  0  0
   14.1427  -16.1662   23.8498 O   0  0  0  0  0  0  0  0  0  0  0  0
   11.0841  -15.8008   25.5853 C   0  0  0  0  0  0  0  0  0  0  0  0
   11.3649  -14.5853   25.7192 O   0  0  0  0  0  0  0  0  0  0  0  0
   13.3029  -18.0150   22.9054 O   0  0  0  0  0  0  0  0  0  0  0  0
   10.1158  -15.0634   28.3680 C   0  0  0  0  0  0  0  0  0  0  0  0
   11.2742  -15.9989   28.0682 C   0  0  2  0  0  0  0  0  0  0  0  0
   11.0414  -16.6136   26.7708 N   0  0  0  0  0  0  0  0  0  0  0  0
   11.2961  -17.0343   29.1360 C   0  0  0  0  0  0  0  0  0  0  0  0
   11.5749  -16.6699   30.4383 O   0  0  0  0  0  0  0  0  0  0  0  0
   11.0528  -18.2474   28.8111 O   0  0  0  0  0  0  0  0  0  0  0  0
  2  1  1  0
  3  4  1  0
  3  2  1  0
  4  5  1  0
  5  7  1  0
  5  6  1  1
  7  8  2  0
  9 10  1  0
  9  7  1  0
 10 14  1  0
 10 11  1  6
 12 11  1  0
 13 12  2  0
 14 15  2  0
 14 19  1  0
 16 12  1  0
 18 17  1  1
 19 18  1  0
 20 21  1  0
 20 18  1  0
 22 20  2  0
M  END
$$$$
