MDA.pdb
     RDKit          3D

 22 21  0  0  1  0  0  0  0  0999 V2000
    6.9271  -11.1316   26.2376 C   0  0  0  0  0  0  0  0  0  0  0  0
    5.6431  -12.2625   26.7599 S   0  0  0  0  0  0  0  0  0  0  0  0
    5.6337  -13.7811   25.8562 C   0  0  0  0  0  0  0  0  0  0  0  0
    6.9082  -14.4739   25.5869 C   0  0  0  0  0  0  0  0  0  0  0  0
    6.9370  -15.5851   24.6110 C   0  0  2  0  0  0  0  0  0  0  0  0
    5.9623  -16.6368   24.9445 N   0  0  0  0  0  0  0  0  0  0  0  0
    8.2913  -16.2384   24.7422 C   0  0  0  0  0  0  0  0  0  0  0  0
    8.3468  -17.3448   25.3214 O   0  0  0  0  0  0  0  0  0  0  0  0
    9.4799  -15.6590   24.2434 N   0  0  0  0  0  0  0  0  0  0  0  0
   10.7791  -16.3309   24.2747 C   0  0  1  0  0  0  0  0  0  0  0  0
   11.6095  -15.8762   23.1123 C   0  0  0  0  0  0  0  0  0  0  0  0
   12.9493  -16.4516   23.0146 C   0  0  0  0  0  0  0  0  0  0  0  0
   13.2272  -17.6682   23.0093 O   0  0  0  0  0  0  0  0  0  0  0  0
   11.3740  -16.0449   25.5969 C   0  0  0  0  0  0  0  0  0  0  0  0
   12.5075  -16.4745   25.9206 O   0  0  0  0  0  0  0  0  0  0  0  0
   14.0572  -15.5904   22.9156 O   0  0  0  0  0  0  0  0  0  0  0  0
   10.3101  -14.1327   28.6657 C   0  0  0  0  0  0  0  0  0  0  0  0
   11.1832  -15.1187   27.9091 C   0  0  2  0  0  0  0  0  0  0  0  0
   10.6566  -15.2540   26.5601 N   0  0  0  0  0  0  0  0  0  0  0  0
   11.1091  -16.4191   28.6274 C   0  0  0  0  0  0  0  0  0  0  0  0
   11.7141  -16.5561   29.8610 O   0  0  0  0  0  0  0  0  0  0  0  0
   10.4786  -17.3844   28.0732 O   0  0  0  0  0  0  0  0  0  0  0  0
  2  1  1  0
  3  4  1  0
  3  2  1  0
  4  5  1  0
  5  7  1  0
  5  6  1  1
  7  8  2  0
  9 10  1  0
  9  7  1  0
 10 14  1  0
 10 11  1  6
 12 11  1  0
 13 12  2  0
 14 15  2  0
 14 19  1  0
 16 12  1  0
 18 17  1  1
 19 18  1  0
 20 21  1  0
 20 18  1  0
 22 20  2  0
M  END
$$$$
