MDA.pdb
     RDKit          3D

 22 21  0  0  1  0  0  0  0  0999 V2000
    7.4418  -11.5094   21.9068 C   0  0  0  0  0  0  0  0  0  0  0  0
    7.5486  -12.1126   20.2260 S   0  0  0  0  0  0  0  0  0  0  0  0
    7.9380  -13.8331   20.1201 C   0  0  0  0  0  0  0  0  0  0  0  0
    8.5346  -14.5157   21.2841 C   0  0  0  0  0  0  0  0  0  0  0  0
    8.8568  -15.9565   21.1928 C   0  0  2  0  0  0  0  0  0  0  0  0
    7.6753  -16.7645   20.8484 N   0  0  0  0  0  0  0  0  0  0  0  0
    9.2528  -16.3980   22.5807 C   0  0  0  0  0  0  0  0  0  0  0  0
    8.3370  -16.7079   23.3732 O   0  0  0  0  0  0  0  0  0  0  0  0
   10.5961  -16.4748   23.0129 N   0  0  0  0  0  0  0  0  0  0  0  0
   10.9922  -16.9765   24.3288 C   0  0  1  0  0  0  0  0  0  0  0  0
   12.3487  -17.6087   24.2397 C   0  0  0  0  0  0  0  0  0  0  0  0
   12.4749  -18.7331   23.3148 C   0  0  0  0  0  0  0  0  0  0  0  0
   11.6410  -19.6470   23.1521 O   0  0  0  0  0  0  0  0  0  0  0  0
   10.9136  -15.8326   25.2613 C   0  0  0  0  0  0  0  0  0  0  0  0
   11.7964  -14.9418   25.2933 O   0  0  0  0  0  0  0  0  0  0  0  0
   13.6275  -18.8332   22.5144 O   0  0  0  0  0  0  0  0  0  0  0  0
    8.4196  -14.0869   27.2889 C   0  0  0  0  0  0  0  0  0  0  0  0
    9.8198  -14.6652   27.1798 C   0  0  2  0  0  0  0  0  0  0  0  0
    9.8051  -15.7110   26.1691 N   0  0  0  0  0  0  0  0  0  0  0  0
   10.1698  -15.2338   28.5091 C   0  0  0  0  0  0  0  0  0  0  0  0
   10.4149  -14.3885   29.5730 O   0  0  0  0  0  0  0  0  0  0  0  0
   10.2341  -16.5058   28.6280 O   0  0  0  0  0  0  0  0  0  0  0  0
  2  1  1  0
  3  4  1  0
  3  2  1  0
  4  5  1  0
  5  7  1  0
  5  6  1  1
  7  8  2  0
  9 10  1  0
  9  7  1  0
 10 14  1  0
 10 11  1  6
 12 11  1  0
 13 12  2  0
 14 15  2  0
 14 19  1  0
 16 12  1  0
 18 17  1  1
 19 18  1  0
 20 21  1  0
 20 18  1  0
 22 20  2  0
M  END
$$$$
