MDA.pdb
     RDKit          3D

 22 21  0  0  1  0  0  0  0  0999 V2000
    7.2924  -12.5977   27.6837 C   0  0  0  0  0  0  0  0  0  0  0  0
    6.9248  -12.2734   25.9633 S   0  0  0  0  0  0  0  0  0  0  0  0
    7.3835  -13.5962   24.8850 C   0  0  0  0  0  0  0  0  0  0  0  0
    6.5872  -14.8382   24.8796 C   0  0  0  0  0  0  0  0  0  0  0  0
    6.9249  -15.9116   23.9194 C   0  0  2  0  0  0  0  0  0  0  0  0
    6.0465  -17.0832   24.0714 N   0  0  0  0  0  0  0  0  0  0  0  0
    8.3064  -16.3972   24.2848 C   0  0  0  0  0  0  0  0  0  0  0  0
    8.3911  -17.3572   25.0809 O   0  0  0  0  0  0  0  0  0  0  0  0
    9.4892  -15.8197   23.7701 N   0  0  0  0  0  0  0  0  0  0  0  0
   10.8270  -16.3472   24.0390 C   0  0  1  0  0  0  0  0  0  0  0  0
   11.7294  -16.0469   22.8802 C   0  0  0  0  0  0  0  0  0  0  0  0
   12.3167  -17.2026   22.2057 C   0  0  0  0  0  0  0  0  0  0  0  0
   13.0501  -18.0648   22.7311 O   0  0  0  0  0  0  0  0  0  0  0  0
   11.2663  -15.7585   25.3215 C   0  0  0  0  0  0  0  0  0  0  0  0
   11.9530  -14.7095   25.3684 O   0  0  0  0  0  0  0  0  0  0  0  0
   12.0571  -17.3998   20.8372 O   0  0  0  0  0  0  0  0  0  0  0  0
   10.7171  -14.4369   27.9749 C   0  0  0  0  0  0  0  0  0  0  0  0
   11.3700  -15.7991   27.8170 C   0  0  2  0  0  0  0  0  0  0  0  0
   10.9112  -16.3837   26.5667 N   0  0  0  0  0  0  0  0  0  0  0  0
   10.9378  -16.6346   28.9694 C   0  0  0  0  0  0  0  0  0  0  0  0
   11.3633  -16.3169   30.2439 O   0  0  0  0  0  0  0  0  0  0  0  0
   10.1747  -17.6357   28.7417 O   0  0  0  0  0  0  0  0  0  0  0  0
  2  1  1  0
  3  4  1  0
  3  2  1  0
  4  5  1  0
  5  7  1  0
  5  6  1  1
  7  8  2  0
  9 10  1  0
  9  7  1  0
 10 14  1  0
 10 11  1  6
 12 11  1  0
 13 12  2  0
 14 15  2  0
 14 19  1  0
 16 12  1  0
 18 17  1  1
 19 18  1  0
 20 21  1  0
 20 18  1  0
 22 20  2  0
M  END
$$$$
