MDA.pdb
     RDKit          3D

 22 21  0  0  1  0  0  0  0  0999 V2000
    6.8097  -11.2629   27.3274 C   0  0  0  0  0  0  0  0  0  0  0  0
    6.2500  -12.5460   26.2136 S   0  0  0  0  0  0  0  0  0  0  0  0
    7.3621  -12.8479   24.8737 C   0  0  0  0  0  0  0  0  0  0  0  0
    7.0534  -13.9120   23.8994 C   0  0  0  0  0  0  0  0  0  0  0  0
    6.9241  -15.3090   24.3683 C   0  0  2  0  0  0  0  0  0  0  0  0
    6.8996  -15.3969   25.8377 N   0  0  0  0  0  0  0  0  0  0  0  0
    8.1845  -16.0234   23.9456 C   0  0  0  0  0  0  0  0  0  0  0  0
    8.2245  -16.4907   22.7869 O   0  0  0  0  0  0  0  0  0  0  0  0
    9.3040  -16.1816   24.7936 N   0  0  0  0  0  0  0  0  0  0  0  0
   10.2651  -17.2771   24.6641 C   0  0  1  0  0  0  0  0  0  0  0  0
   11.5850  -16.7374   24.2014 C   0  0  0  0  0  0  0  0  0  0  0  0
   11.7335  -16.5491   22.7599 C   0  0  0  0  0  0  0  0  0  0  0  0
   11.2406  -17.2724   21.8705 O   0  0  0  0  0  0  0  0  0  0  0  0
   10.3115  -17.9591   25.9744 C   0  0  0  0  0  0  0  0  0  0  0  0
   11.2120  -18.7846   26.2602 O   0  0  0  0  0  0  0  0  0  0  0  0
   12.4944  -15.4643   22.2873 O   0  0  0  0  0  0  0  0  0  0  0  0
    8.0755  -19.7362   27.2759 C   0  0  0  0  0  0  0  0  0  0  0  0
    8.9761  -18.7133   27.9462 C   0  0  2  0  0  0  0  0  0  0  0  0
    9.3096  -17.6883   26.9696 N   0  0  0  0  0  0  0  0  0  0  0  0
   10.2041  -19.4261   28.3894 C   0  0  0  0  0  0  0  0  0  0  0  0
   10.4697  -19.5603   29.7378 O   0  0  0  0  0  0  0  0  0  0  0  0
   10.9878  -19.8997   27.4961 O   0  0  0  0  0  0  0  0  0  0  0  0
  2  1  1  0
  3  4  1  0
  3  2  1  0
  4  5  1  0
  5  7  1  0
  5  6  1  1
  7  8  2  0
  9 10  1  0
  9  7  1  0
 10 14  1  0
 10 11  1  1
 12 11  1  0
 13 12  2  0
 14 15  2  0
 14 19  1  0
 16 12  1  0
 18 17  1  6
 19 18  1  0
 20 21  1  0
 20 18  1  0
 22 20  2  0
M  END
$$$$
