MDA.pdb
     RDKit          3D

 22 21  0  0  1  0  0  0  0  0999 V2000
    6.8578  -11.6006   25.1487 C   0  0  0  0  0  0  0  0  0  0  0  0
    6.2556  -12.7875   26.3441 S   0  0  0  0  0  0  0  0  0  0  0  0
    6.6227  -14.4627   25.9175 C   0  0  0  0  0  0  0  0  0  0  0  0
    6.5341  -14.8894   24.5079 C   0  0  0  0  0  0  0  0  0  0  0  0
    6.7609  -16.3103   24.1651 C   0  0  2  0  0  0  0  0  0  0  0  0
    5.9757  -17.2156   25.0201 N   0  0  0  0  0  0  0  0  0  0  0  0
    8.2050  -16.6062   24.4891 C   0  0  0  0  0  0  0  0  0  0  0  0
    8.4377  -17.3820   25.4412 O   0  0  0  0  0  0  0  0  0  0  0  0
    9.2873  -16.0509   23.7697 N   0  0  0  0  0  0  0  0  0  0  0  0
   10.6814  -16.4405   23.9825 C   0  0  1  0  0  0  0  0  0  0  0  0
   11.5011  -16.0516   22.7891 C   0  0  0  0  0  0  0  0  0  0  0  0
   12.8432  -16.6251   22.7159 C   0  0  0  0  0  0  0  0  0  0  0  0
   13.2829  -17.5567   23.4202 O   0  0  0  0  0  0  0  0  0  0  0  0
   11.1107  -15.8094   25.2481 C   0  0  0  0  0  0  0  0  0  0  0  0
   11.8185  -14.7736   25.2653 O   0  0  0  0  0  0  0  0  0  0  0  0
   13.7565  -16.1091   21.7784 O   0  0  0  0  0  0  0  0  0  0  0  0
   10.2691  -14.4013   27.8168 C   0  0  0  0  0  0  0  0  0  0  0  0
   11.0727  -15.6880   27.7429 C   0  0  2  0  0  0  0  0  0  0  0  0
   10.7211  -16.3764   26.5108 N   0  0  0  0  0  0  0  0  0  0  0  0
   10.6986  -16.5132   28.9226 C   0  0  0  0  0  0  0  0  0  0  0  0
   10.9465  -16.0404   30.1960 O   0  0  0  0  0  0  0  0  0  0  0  0
   10.1512  -17.6513   28.7191 O   0  0  0  0  0  0  0  0  0  0  0  0
  2  1  1  0
  3  4  1  0
  3  2  1  0
  4  5  1  0
  5  7  1  0
  5  6  1  1
  7  8  2  0
  9 10  1  0
  9  7  1  0
 10 14  1  0
 10 11  1  6
 12 11  1  0
 13 12  2  0
 14 15  2  0
 14 19  1  0
 16 12  1  0
 18 17  1  1
 19 18  1  0
 20 21  1  0
 20 18  1  0
 22 20  2  0
M  END
$$$$
