MDA.pdb
     RDKit          3D

 22 21  0  0  1  0  0  0  0  0999 V2000
    7.1380  -11.5191   26.6562 C   0  0  0  0  0  0  0  0  0  0  0  0
    5.7617  -12.6607   26.7096 S   0  0  0  0  0  0  0  0  0  0  0  0
    5.8906  -13.9727   25.5327 C   0  0  0  0  0  0  0  0  0  0  0  0
    7.1566  -14.7212   25.4153 C   0  0  0  0  0  0  0  0  0  0  0  0
    7.3054  -15.7303   24.3440 C   0  0  2  0  0  0  0  0  0  0  0  0
    6.3478  -16.8383   24.4939 N   0  0  0  0  0  0  0  0  0  0  0  0
    8.6687  -16.3522   24.5247 C   0  0  0  0  0  0  0  0  0  0  0  0
    8.7246  -17.4777   25.0658 O   0  0  0  0  0  0  0  0  0  0  0  0
    9.8653  -15.7236   24.1121 N   0  0  0  0  0  0  0  0  0  0  0  0
   11.1914  -16.3123   24.2996 C   0  0  1  0  0  0  0  0  0  0  0  0
   12.1409  -15.7486   23.2856 C   0  0  0  0  0  0  0  0  0  0  0  0
   13.5030  -16.2770   23.3161 C   0  0  0  0  0  0  0  0  0  0  0  0
   13.8623  -17.3507   23.8409 O   0  0  0  0  0  0  0  0  0  0  0  0
   11.5762  -16.0552   25.7032 C   0  0  0  0  0  0  0  0  0  0  0  0
   12.6461  -16.4956   26.1884 O   0  0  0  0  0  0  0  0  0  0  0  0
   14.5358  -15.5394   22.7092 O   0  0  0  0  0  0  0  0  0  0  0  0
   10.3161  -13.8226   28.4369 C   0  0  0  0  0  0  0  0  0  0  0  0
   11.1475  -14.9831   27.9184 C   0  0  2  0  0  0  0  0  0  0  0  0
   10.7197  -15.2812   26.5606 N   0  0  0  0  0  0  0  0  0  0  0  0
   10.8909  -16.1460   28.8098 C   0  0  0  0  0  0  0  0  0  0  0  0
   10.2126  -17.2459   28.3232 O   0  0  0  0  0  0  0  0  0  0  0  0
   11.3120  -16.0912   30.0164 O   0  0  0  0  0  0  0  0  0  0  0  0
  2  1  1  0
  3  4  1  0
  3  2  1  0
  4  5  1  0
  5  7  1  0
  5  6  1  1
  7  8  2  0
  9 10  1  0
  9  7  1  0
 10 14  1  0
 10 11  1  6
 12 11  1  0
 13 12  2  0
 14 15  2  0
 14 19  1  0
 16 12  1  0
 18 17  1  1
 19 18  1  0
 20 21  1  0
 20 18  1  0
 22 20  2  0
M  END
$$$$
