MDA.pdb
     RDKit          3D

 22 21  0  0  1  0  0  0  0  0999 V2000
    5.0186  -11.8440   27.5202 C   0  0  0  0  0  0  0  0  0  0  0  0
    6.2471  -12.1944   26.2679 S   0  0  0  0  0  0  0  0  0  0  0  0
    6.2900  -13.8927   25.7812 C   0  0  0  0  0  0  0  0  0  0  0  0
    7.2608  -14.3313   24.7603 C   0  0  0  0  0  0  0  0  0  0  0  0
    7.2012  -15.7193   24.2524 C   0  0  2  0  0  0  0  0  0  0  0  0
    6.2754  -16.5535   25.0360 N   0  0  0  0  0  0  0  0  0  0  0  0
    8.5679  -16.3190   24.4770 C   0  0  0  0  0  0  0  0  0  0  0  0
    8.6336  -17.3811   25.1328 O   0  0  0  0  0  0  0  0  0  0  0  0
    9.7572  -15.7375   23.9823 N   0  0  0  0  0  0  0  0  0  0  0  0
   11.0751  -16.3580   24.1182 C   0  0  1  0  0  0  0  0  0  0  0  0
   11.9922  -15.8310   23.0557 C   0  0  0  0  0  0  0  0  0  0  0  0
   13.3472  -16.3781   23.0462 C   0  0  0  0  0  0  0  0  0  0  0  0
   14.3959  -15.7459   23.2867 O   0  0  0  0  0  0  0  0  0  0  0  0
   11.5288  -16.0944   25.4998 C   0  0  0  0  0  0  0  0  0  0  0  0
   12.6072  -16.5577   25.9430 O   0  0  0  0  0  0  0  0  0  0  0  0
   13.5323  -17.7393   22.7429 O   0  0  0  0  0  0  0  0  0  0  0  0
   10.4128  -13.9306   28.3508 C   0  0  0  0  0  0  0  0  0  0  0  0
   11.1378  -15.1332   27.7721 C   0  0  2  0  0  0  0  0  0  0  0  0
   10.7322  -15.2871   26.3838 N   0  0  0  0  0  0  0  0  0  0  0  0
   10.7287  -16.3225   28.5665 C   0  0  0  0  0  0  0  0  0  0  0  0
   10.0397  -17.3510   27.9551 O   0  0  0  0  0  0  0  0  0  0  0  0
   11.0316  -16.3568   29.8089 O   0  0  0  0  0  0  0  0  0  0  0  0
  2  1  1  0
  3  4  1  0
  3  2  1  0
  4  5  1  0
  5  7  1  0
  5  6  1  1
  7  8  2  0
  9 10  1  0
  9  7  1  0
 10 14  1  0
 10 11  1  6
 12 11  1  0
 13 12  2  0
 14 15  2  0
 14 19  1  0
 16 12  1  0
 18 17  1  1
 19 18  1  0
 20 21  1  0
 20 18  1  0
 22 20  2  0
M  END
$$$$
