MDA.pdb
     RDKit          3D

 22 21  0  0  1  0  0  0  0  0999 V2000
    7.3374  -11.5077   26.7095 C   0  0  0  0  0  0  0  0  0  0  0  0
    5.7378  -12.2968   26.5730 S   0  0  0  0  0  0  0  0  0  0  0  0
    5.7760  -13.8099   25.6609 C   0  0  0  0  0  0  0  0  0  0  0  0
    7.0651  -14.4932   25.4413 C   0  0  0  0  0  0  0  0  0  0  0  0
    7.1295  -15.6358   24.5040 C   0  0  2  0  0  0  0  0  0  0  0  0
    6.2088  -16.7176   24.8901 N   0  0  0  0  0  0  0  0  0  0  0  0
    8.5139  -16.2226   24.6350 C   0  0  0  0  0  0  0  0  0  0  0  0
    8.6444  -17.2465   25.3401 O   0  0  0  0  0  0  0  0  0  0  0  0
    9.6500  -15.6703   24.0015 N   0  0  0  0  0  0  0  0  0  0  0  0
   10.9768  -16.2850   24.0466 C   0  0  1  0  0  0  0  0  0  0  0  0
   11.7975  -15.7975   22.8906 C   0  0  0  0  0  0  0  0  0  0  0  0
   13.1330  -16.3764   22.7603 C   0  0  0  0  0  0  0  0  0  0  0  0
   13.4632  -17.5383   23.0735 O   0  0  0  0  0  0  0  0  0  0  0  0
   11.5464  -15.9701   25.3735 C   0  0  0  0  0  0  0  0  0  0  0  0
   12.7840  -15.8822   25.5595 O   0  0  0  0  0  0  0  0  0  0  0  0
   14.1725  -15.5855   22.2378 O   0  0  0  0  0  0  0  0  0  0  0  0
   10.7378  -14.1825   28.3295 C   0  0  0  0  0  0  0  0  0  0  0  0
   11.2634  -15.5104   27.8125 C   0  0  2  0  0  0  0  0  0  0  0  0
   10.6816  -15.7532   26.5017 N   0  0  0  0  0  0  0  0  0  0  0  0
   10.8340  -16.5619   28.7730 C   0  0  0  0  0  0  0  0  0  0  0  0
   11.3326  -16.5587   30.0607 O   0  0  0  0  0  0  0  0  0  0  0  0
   10.0048  -17.4495   28.3718 O   0  0  0  0  0  0  0  0  0  0  0  0
  2  1  1  0
  3  4  1  0
  3  2  1  0
  4  5  1  0
  5  7  1  0
  5  6  1  1
  7  8  2  0
  9 10  1  0
  9  7  1  0
 10 14  1  0
 10 11  1  6
 12 11  1  0
 13 12  2  0
 14 15  2  0
 14 19  1  0
 16 12  1  0
 18 17  1  1
 19 18  1  0
 20 21  1  0
 20 18  1  0
 22 20  2  0
M  END
$$$$
