QPP.pdb
     RDKit          3D

 24 25  0  0  1  0  0  0  0  0999 V2000
   12.8634  -16.6984    4.6908 N   0  0  0  0  0  0  0  0  0  0  0  0
   12.3949  -16.9108    3.3477 C   0  0  0  0  0  0  0  0  0  0  0  0
   11.4095  -16.2678    2.9556 O   0  0  0  0  0  0  0  0  0  0  0  0
   13.1026  -17.8798    2.4930 C   0  0  0  0  0  0  0  0  0  0  0  0
   14.3037  -18.5166    3.1058 C   0  0  0  0  0  0  0  0  0  0  0  0
   15.1369  -19.3302    2.1246 C   0  0  2  0  0  0  0  0  0  0  0  0
   14.3665  -20.4731    1.6559 N   0  0  0  0  0  0  0  0  0  0  0  0
   16.4114  -19.7677    2.7443 C   0  0  0  0  0  0  0  0  0  0  0  0
   16.4624  -20.9345    3.2016 O   0  0  0  0  0  0  0  0  0  0  0  0
   17.5533  -18.9509    2.8440 N   0  0  0  0  0  0  0  0  0  0  0  0
   17.7110  -17.6572    2.2228 C   0  0  0  0  0  0  0  0  0  0  0  0
   19.2119  -17.7206    1.8882 C   0  0  0  0  0  0  0  0  0  0  0  0
   19.7229  -18.1153    3.2820 C   0  0  0  0  0  0  0  0  0  0  0  0
   18.7731  -19.2631    3.5777 C   0  0  1  0  0  0  0  0  0  0  0  0
   18.5576  -19.3293    5.0203 C   0  0  0  0  0  0  0  0  0  0  0  0
   17.5469  -18.8450    5.5975 O   0  0  0  0  0  0  0  0  0  0  0  0
   19.5631  -19.9887    5.8217 N   0  0  0  0  0  0  0  0  0  0  0  0
   20.7032  -20.7167    5.3187 C   0  0  0  0  0  0  0  0  0  0  0  0
   21.0183  -21.7319    6.4199 C   0  0  0  0  0  0  0  0  0  0  0  0
   20.6708  -20.9693    7.6730 C   0  0  0  0  0  0  0  0  0  0  0  0
   19.5971  -20.0369    7.2523 C   0  0  1  0  0  0  0  0  0  0  0  0
   19.7486  -18.6758    7.8522 C   0  0  0  0  0  0  0  0  0  0  0  0
   19.2213  -18.3345    9.0622 O   0  0  0  0  0  0  0  0  0  0  0  0
   20.3951  -17.8264    7.1920 O   0  0  0  0  0  0  0  0  0  0  0  0
  2  3  2  0
  2  1  1  0
  4  2  1  0
  5  4  1  0
  6  5  1  0
  6  7  1  1
  8  6  1  0
  9  8  2  0
 10  8  1  0
 10 14  1  0
 11 10  1  0
 12 13  1  0
 12 11  1  0
 13 14  1  0
 14 15  1  1
 15 16  2  0
 15 17  1  0
 17 21  1  0
 18 17  1  0
 18 19  1  0
 19 20  1  0
 21 20  1  0
 22 23  1  0
 21 22  1  1
 24 22  2  0
M  END
$$$$
