QPP.pdb
     RDKit          3D

 24 25  0  0  1  0  0  0  0  0999 V2000
   24.9774  -23.2549  -20.1658 N   0  0  0  0  0  0  0  0  0  0  0  0
   24.6180  -23.4364  -18.7850 C   0  0  0  0  0  0  0  0  0  0  0  0
   23.6954  -24.2187  -18.5112 O   0  0  0  0  0  0  0  0  0  0  0  0
   25.3585  -22.6893  -17.7537 C   0  0  0  0  0  0  0  0  0  0  0  0
   26.4061  -21.7592  -18.2650 C   0  0  0  0  0  0  0  0  0  0  0  0
   27.7320  -21.8581  -17.5226 C   0  0  2  0  0  0  0  0  0  0  0  0
   28.2996  -23.1861  -17.7059 N   0  0  0  0  0  0  0  0  0  0  0  0
   27.5593  -21.5491  -16.0824 C   0  0  0  0  0  0  0  0  0  0  0  0
   27.6443  -22.5022  -15.2714 O   0  0  0  0  0  0  0  0  0  0  0  0
   27.3087  -20.2567  -15.5844 N   0  0  0  0  0  0  0  0  0  0  0  0
   27.2129  -19.0582  -16.3838 C   0  0  0  0  0  0  0  0  0  0  0  0
   27.8448  -18.0525  -15.4051 C   0  0  0  0  0  0  0  0  0  0  0  0
   26.9840  -18.3832  -14.1766 C   0  0  0  0  0  0  0  0  0  0  0  0
   27.1106  -19.8967  -14.1862 C   0  0  1  0  0  0  0  0  0  0  0  0
   25.8891  -20.4697  -13.6281 C   0  0  0  0  0  0  0  0  0  0  0  0
   24.9377  -20.9043  -14.3317 O   0  0  0  0  0  0  0  0  0  0  0  0
   25.7741  -20.5386  -12.1893 N   0  0  0  0  0  0  0  0  0  0  0  0
   26.7811  -20.1314  -11.2390 C   0  0  0  0  0  0  0  0  0  0  0  0
   26.5036  -20.9910  -10.0035 C   0  0  0  0  0  0  0  0  0  0  0  0
   25.0011  -21.1122  -10.0238 C   0  0  0  0  0  0  0  0  0  0  0  0
   24.6429  -21.0278  -11.4604 C   0  0  1  0  0  0  0  0  0  0  0  0
   23.4231  -20.1977  -11.7019 C   0  0  0  0  0  0  0  0  0  0  0  0
   22.1572  -20.6609  -11.4982 O   0  0  0  0  0  0  0  0  0  0  0  0
   23.5992  -19.0242  -12.1107 O   0  0  0  0  0  0  0  0  0  0  0  0
  2  3  2  0
  2  1  1  0
  4  2  1  0
  5  4  1  0
  6  5  1  0
  6  7  1  1
  8  6  1  0
  9  8  2  0
 10  8  1  0
 10 14  1  0
 11 10  1  0
 12 13  1  0
 12 11  1  0
 13 14  1  0
 14 15  1  6
 15 16  2  0
 15 17  1  0
 17 21  1  0
 18 17  1  0
 18 19  1  0
 19 20  1  0
 21 20  1  0
 22 23  1  0
 21 22  1  1
 24 22  2  0
M  END
$$$$
