QPP.pdb
     RDKit          3D

 24 25  0  0  1  0  0  0  0  0999 V2000
   23.3669  -18.7443  -17.2556 N   0  0  0  0  0  0  0  0  0  0  0  0
   22.4419  -18.0915  -16.3686 C   0  0  0  0  0  0  0  0  0  0  0  0
   22.6583  -16.9125  -16.0504 O   0  0  0  0  0  0  0  0  0  0  0  0
   21.2769  -18.8464  -15.8756 C   0  0  0  0  0  0  0  0  0  0  0  0
   21.1549  -20.2419  -16.3870 C   0  0  0  0  0  0  0  0  0  0  0  0
   20.6676  -21.2390  -15.3444 C   0  0  2  0  0  0  0  0  0  0  0  0
   19.3909  -20.7975  -14.8015 N   0  0  0  0  0  0  0  0  0  0  0  0
   21.6707  -21.4137  -14.2660 C   0  0  0  0  0  0  0  0  0  0  0  0
   21.5101  -20.7515  -13.2129 O   0  0  0  0  0  0  0  0  0  0  0  0
   22.7802  -22.2744  -14.3620 N   0  0  0  0  0  0  0  0  0  0  0  0
   23.0326  -23.1930  -15.4469 C   0  0  0  0  0  0  0  0  0  0  0  0
   23.6744  -24.3463  -14.6552 C   0  0  0  0  0  0  0  0  0  0  0  0
   24.7366  -23.5252  -13.9088 C   0  0  0  0  0  0  0  0  0  0  0  0
   23.8592  -22.3989  -13.3905 C   0  0  1  0  0  0  0  0  0  0  0  0
   24.6672  -21.1867  -13.2926 C   0  0  0  0  0  0  0  0  0  0  0  0
   24.7430  -20.3231  -14.2077 O   0  0  0  0  0  0  0  0  0  0  0  0
   25.4169  -20.9738  -12.0757 N   0  0  0  0  0  0  0  0  0  0  0  0
   25.3194  -21.7641  -10.8720 C   0  0  0  0  0  0  0  0  0  0  0  0
   25.7238  -20.8002   -9.7540 C   0  0  0  0  0  0  0  0  0  0  0  0
   26.7717  -19.9482  -10.4238 C   0  0  0  0  0  0  0  0  0  0  0  0
   26.3812  -19.9387  -11.8544 C   0  0  1  0  0  0  0  0  0  0  0  0
   27.5545  -20.0647  -12.7725 C   0  0  0  0  0  0  0  0  0  0  0  0
   27.9916  -21.2607  -13.2592 O   0  0  0  0  0  0  0  0  0  0  0  0
   28.1470  -19.0063  -13.0950 O   0  0  0  0  0  0  0  0  0  0  0  0
  2  3  2  0
  2  1  1  0
  4  2  1  0
  5  4  1  0
  6  5  1  0
  6  7  1  1
  8  6  1  0
  9  8  2  0
 10  8  1  0
 10 14  1  0
 11 10  1  0
 12 13  1  0
 12 11  1  0
 13 14  1  0
 14 15  1  6
 15 16  2  0
 15 17  1  0
 17 21  1  0
 18 17  1  0
 18 19  1  0
 19 20  1  0
 21 20  1  0
 22 23  1  0
 21 22  1  6
 24 22  2  0
M  END
$$$$
