QPP.pdb
     RDKit          3D

 24 25  0  0  1  0  0  0  0  0999 V2000
   21.9602  -19.8725  -10.8342 N   0  0  0  0  0  0  0  0  0  0  0  0
   22.5045  -19.4753  -12.1048 C   0  0  0  0  0  0  0  0  0  0  0  0
   21.7208  -19.1470  -13.0082 O   0  0  0  0  0  0  0  0  0  0  0  0
   23.9670  -19.4727  -12.2820 C   0  0  0  0  0  0  0  0  0  0  0  0
   24.7585  -19.8592  -11.0787 C   0  0  0  0  0  0  0  0  0  0  0  0
   25.7856  -20.9519  -11.3427 C   0  0  2  0  0  0  0  0  0  0  0  0
   25.1148  -22.1497  -11.8273 N   0  0  0  0  0  0  0  0  0  0  0  0
   26.5769  -21.2439  -10.1227 C   0  0  0  0  0  0  0  0  0  0  0  0
   25.9829  -21.7946   -9.1652 O   0  0  0  0  0  0  0  0  0  0  0  0
   27.9442  -20.9391   -9.9860 N   0  0  0  0  0  0  0  0  0  0  0  0
   28.8126  -20.5010  -11.0531 C   0  0  0  0  0  0  0  0  0  0  0  0
   30.1151  -21.1957  -10.6179 C   0  0  0  0  0  0  0  0  0  0  0  0
   30.1501  -20.6906   -9.1677 C   0  0  0  0  0  0  0  0  0  0  0  0
   28.7245  -21.0172   -8.7577 C   0  0  1  0  0  0  0  0  0  0  0  0
   28.2934  -20.0448   -7.7575 C   0  0  0  0  0  0  0  0  0  0  0  0
   27.6616  -18.9904   -8.0368 O   0  0  0  0  0  0  0  0  0  0  0  0
   28.6124  -20.3153   -6.3743 N   0  0  0  0  0  0  0  0  0  0  0  0
   29.2215  -21.5209   -5.8660 C   0  0  0  0  0  0  0  0  0  0  0  0
   28.7304  -21.6107   -4.4192 C   0  0  0  0  0  0  0  0  0  0  0  0
   28.6607  -20.1615   -4.0100 C   0  0  0  0  0  0  0  0  0  0  0  0
   28.3738  -19.4350   -5.2705 C   0  0  1  0  0  0  0  0  0  0  0  0
   29.1522  -18.1643   -5.3928 C   0  0  0  0  0  0  0  0  0  0  0  0
   28.8821  -17.0534   -4.6503 O   0  0  0  0  0  0  0  0  0  0  0  0
   30.0923  -18.1451   -6.2242 O   0  0  0  0  0  0  0  0  0  0  0  0
  2  3  2  0
  2  1  1  0
  4  2  1  0
  5  4  1  0
  6  5  1  0
  6  7  1  1
  8  6  1  0
  9  8  2  0
 10  8  1  0
 10 14  1  0
 11 10  1  0
 12 13  1  0
 12 11  1  0
 13 14  1  0
 14 15  1  1
 15 16  2  0
 15 17  1  0
 17 21  1  0
 18 17  1  0
 18 19  1  0
 19 20  1  0
 21 20  1  0
 22 23  1  0
 21 22  1  6
 24 22  2  0
M  END
$$$$
