QPP.pdb
     RDKit          3D

 24 25  0  0  1  0  0  0  0  0999 V2000
   19.1437  -20.0664  -15.2280 N   0  0  0  0  0  0  0  0  0  0  0  0
   19.3633  -19.4292  -16.4986 C   0  0  0  0  0  0  0  0  0  0  0  0
   18.6070  -19.7102  -17.4405 O   0  0  0  0  0  0  0  0  0  0  0  0
   20.4737  -18.4701  -16.6302 C   0  0  0  0  0  0  0  0  0  0  0  0
   21.7387  -18.8566  -15.9417 C   0  0  0  0  0  0  0  0  0  0  0  0
   22.9585  -18.8619  -16.8533 C   0  0  2  0  0  0  0  0  0  0  0  0
   22.7042  -19.7099  -18.0090 N   0  0  0  0  0  0  0  0  0  0  0  0
   24.1675  -19.3116  -16.1212 C   0  0  0  0  0  0  0  0  0  0  0  0
   24.4477  -20.5335  -16.1612 O   0  0  0  0  0  0  0  0  0  0  0  0
   25.0071  -18.4479  -15.3930 N   0  0  0  0  0  0  0  0  0  0  0  0
   24.9753  -17.0057  -15.4534 C   0  0  0  0  0  0  0  0  0  0  0  0
   26.4782  -16.7146  -15.2948 C   0  0  0  0  0  0  0  0  0  0  0  0
   26.7244  -17.5549  -14.0326 C   0  0  0  0  0  0  0  0  0  0  0  0
   26.0544  -18.8485  -14.4623 C   0  0  1  0  0  0  0  0  0  0  0  0
   25.5247  -19.5148  -13.2760 C   0  0  0  0  0  0  0  0  0  0  0  0
   24.3325  -19.3969  -12.8837 O   0  0  0  0  0  0  0  0  0  0  0  0
   26.4237  -20.3539  -12.5172 N   0  0  0  0  0  0  0  0  0  0  0  0
   27.8222  -20.5702  -12.8009 C   0  0  0  0  0  0  0  0  0  0  0  0
   28.1162  -21.9538  -12.2163 C   0  0  0  0  0  0  0  0  0  0  0  0
   27.2268  -21.9872  -10.9995 C   0  0  0  0  0  0  0  0  0  0  0  0
   26.0793  -21.1184  -11.3566 C   0  0  1  0  0  0  0  0  0  0  0  0
   25.6433  -20.2456  -10.2236 C   0  0  0  0  0  0  0  0  0  0  0  0
   24.7837  -20.6641   -9.2519 O   0  0  0  0  0  0  0  0  0  0  0  0
   26.1040  -19.0786  -10.1881 O   0  0  0  0  0  0  0  0  0  0  0  0
  2  3  2  0
  2  1  1  0
  4  2  1  0
  5  4  1  0
  6  5  1  0
  6  7  1  6
  8  6  1  0
  9  8  2  0
 10  8  1  0
 10 14  1  0
 11 10  1  0
 12 13  1  0
 12 11  1  0
 13 14  1  0
 14 15  1  1
 15 16  2  0
 15 17  1  0
 17 21  1  0
 18 17  1  0
 18 19  1  0
 19 20  1  0
 21 20  1  0
 22 23  1  0
 21 22  1  1
 24 22  2  0
M  END
$$$$
