QPP.pdb
     RDKit          3D

 24 25  0  0  1  0  0  0  0  0999 V2000
   19.7729  -19.8341  -17.9479 N   0  0  0  0  0  0  0  0  0  0  0  0
   19.9656  -18.4861  -17.4849 C   0  0  0  0  0  0  0  0  0  0  0  0
   19.0573  -17.6616  -17.6676 O   0  0  0  0  0  0  0  0  0  0  0  0
   21.2298  -18.1394  -16.8128 C   0  0  0  0  0  0  0  0  0  0  0  0
   22.2187  -19.2495  -16.6966 C   0  0  0  0  0  0  0  0  0  0  0  0
   23.5679  -18.9407  -17.3315 C   0  0  2  0  0  0  0  0  0  0  0  0
   23.6834  -19.6394  -18.6035 N   0  0  0  0  0  0  0  0  0  0  0  0
   24.6802  -19.3077  -16.4218 C   0  0  0  0  0  0  0  0  0  0  0  0
   25.0527  -20.5053  -16.4162 O   0  0  0  0  0  0  0  0  0  0  0  0
   25.3322  -18.3920  -15.5747 N   0  0  0  0  0  0  0  0  0  0  0  0
   25.1790  -16.9570  -15.6210 C   0  0  0  0  0  0  0  0  0  0  0  0
   26.6142  -16.5394  -15.2543 C   0  0  0  0  0  0  0  0  0  0  0  0
   26.7619  -17.3856  -13.9808 C   0  0  0  0  0  0  0  0  0  0  0  0
   26.2756  -18.7220  -14.5143 C   0  0  1  0  0  0  0  0  0  0  0  0
   25.6524  -19.4612  -13.4201 C   0  0  0  0  0  0  0  0  0  0  0  0
   24.4153  -19.4386  -13.1788 O   0  0  0  0  0  0  0  0  0  0  0  0
   26.5087  -20.2600  -12.5735 N   0  0  0  0  0  0  0  0  0  0  0  0
   27.9369  -20.4110  -12.7156 C   0  0  0  0  0  0  0  0  0  0  0  0
   28.2344  -21.7812  -12.1019 C   0  0  0  0  0  0  0  0  0  0  0  0
   27.2303  -21.8588  -10.9801 C   0  0  0  0  0  0  0  0  0  0  0  0
   26.0854  -21.0427  -11.4518 C   0  0  1  0  0  0  0  0  0  0  0  0
   25.4986  -20.1940  -10.3698 C   0  0  0  0  0  0  0  0  0  0  0  0
   24.5746  -20.6574   -9.4811 O   0  0  0  0  0  0  0  0  0  0  0  0
   25.8912  -19.0040  -10.2974 O   0  0  0  0  0  0  0  0  0  0  0  0
  2  3  2  0
  2  1  1  0
  4  2  1  0
  5  4  1  0
  6  5  1  0
  6  7  1  6
  8  6  1  0
  9  8  2  0
 10  8  1  0
 10 14  1  0
 11 10  1  0
 12 13  1  0
 12 11  1  0
 13 14  1  0
 14 15  1  1
 15 16  2  0
 15 17  1  0
 17 21  1  0
 18 17  1  0
 18 19  1  0
 19 20  1  0
 21 20  1  0
 22 23  1  0
 21 22  1  1
 24 22  2  0
M  END
$$$$
