QPP.pdb
     RDKit          3D

 24 25  0  0  1  0  0  0  0  0999 V2000
   22.9781  -19.9815  -14.0242 N   0  0  0  0  0  0  0  0  0  0  0  0
   22.3166  -20.4886  -12.8521 C   0  0  0  0  0  0  0  0  0  0  0  0
   21.1167  -20.7913  -12.9336 O   0  0  0  0  0  0  0  0  0  0  0  0
   23.0885  -20.6291  -11.6052 C   0  0  0  0  0  0  0  0  0  0  0  0
   24.4973  -20.1442  -11.6660 C   0  0  0  0  0  0  0  0  0  0  0  0
   25.5163  -21.2450  -11.9282 C   0  0  2  0  0  0  0  0  0  0  0  0
   24.8270  -22.5027  -12.1783 N   0  0  0  0  0  0  0  0  0  0  0  0
   26.4624  -21.3751  -10.7934 C   0  0  0  0  0  0  0  0  0  0  0  0
   26.2960  -22.3389  -10.0083 O   0  0  0  0  0  0  0  0  0  0  0  0
   27.5252  -20.4835  -10.5553 N   0  0  0  0  0  0  0  0  0  0  0  0
   27.8997  -19.3833  -11.4120 C   0  0  0  0  0  0  0  0  0  0  0  0
   29.4265  -19.4269  -11.2236 C   0  0  0  0  0  0  0  0  0  0  0  0
   29.4506  -19.4170   -9.6877 C   0  0  0  0  0  0  0  0  0  0  0  0
   28.4352  -20.5138   -9.4175 C   0  0  1  0  0  0  0  0  0  0  0  0
   27.7624  -20.2245   -8.1543 C   0  0  0  0  0  0  0  0  0  0  0  0
   26.5967  -19.7510   -8.0775 O   0  0  0  0  0  0  0  0  0  0  0  0
   28.4800  -20.5003   -6.9307 N   0  0  0  0  0  0  0  0  0  0  0  0
   29.7631  -21.1534   -6.8305 C   0  0  0  0  0  0  0  0  0  0  0  0
   29.7519  -21.7960   -5.4415 C   0  0  0  0  0  0  0  0  0  0  0  0
   28.9626  -20.8004   -4.6301 C   0  0  0  0  0  0  0  0  0  0  0  0
   28.0379  -20.1772   -5.6077 C   0  0  1  0  0  0  0  0  0  0  0  0
   27.9009  -18.7014   -5.4109 C   0  0  0  0  0  0  0  0  0  0  0  0
   27.1198  -18.1512   -4.4385 O   0  0  0  0  0  0  0  0  0  0  0  0
   28.5444  -17.9565   -6.1895 O   0  0  0  0  0  0  0  0  0  0  0  0
  2  3  2  0
  2  1  1  0
  4  2  1  0
  5  4  1  0
  6  5  1  0
  6  7  1  1
  8  6  1  0
  9  8  2  0
 10  8  1  0
 10 14  1  0
 11 10  1  0
 12 13  1  0
 12 11  1  0
 13 14  1  0
 14 15  1  1
 15 16  2  0
 15 17  1  0
 17 21  1  0
 18 17  1  0
 18 19  1  0
 19 20  1  0
 21 20  1  0
 22 23  1  0
 21 22  1  6
 24 22  2  0
M  END
$$$$
