QPP.pdb
     RDKit          3D

 24 25  0  0  1  0  0  0  0  0999 V2000
   14.0288  -17.2708    2.0735 N   0  0  0  0  0  0  0  0  0  0  0  0
   12.7284  -17.8508    2.2770 C   0  0  0  0  0  0  0  0  0  0  0  0
   11.7531  -17.3296    1.7154 O   0  0  0  0  0  0  0  0  0  0  0  0
   12.6070  -19.0380    3.1407 C   0  0  0  0  0  0  0  0  0  0  0  0
   13.8904  -19.5689    3.6836 C   0  0  0  0  0  0  0  0  0  0  0  0
   14.8980  -19.9589    2.6105 C   0  0  2  0  0  0  0  0  0  0  0  0
   14.4885  -21.2069    1.9827 N   0  0  0  0  0  0  0  0  0  0  0  0
   16.2628  -20.0741    3.1793 C   0  0  0  0  0  0  0  0  0  0  0  0
   16.5285  -21.1046    3.8431 O   0  0  0  0  0  0  0  0  0  0  0  0
   17.2638  -19.0984    3.0141 N   0  0  0  0  0  0  0  0  0  0  0  0
   17.1804  -17.9580    2.1325 C   0  0  0  0  0  0  0  0  0  0  0  0
   18.6525  -17.8736    1.6915 C   0  0  0  0  0  0  0  0  0  0  0  0
   19.2926  -17.8837    3.0878 C   0  0  0  0  0  0  0  0  0  0  0  0
   18.5547  -19.0671    3.6894 C   0  0  1  0  0  0  0  0  0  0  0  0
   18.4289  -18.8545    5.1285 C   0  0  0  0  0  0  0  0  0  0  0  0
   17.3818  -18.4211    5.6806 O   0  0  0  0  0  0  0  0  0  0  0  0
   19.5724  -19.1614    5.9569 N   0  0  0  0  0  0  0  0  0  0  0  0
   20.8035  -19.7675    5.5098 C   0  0  0  0  0  0  0  0  0  0  0  0
   21.3475  -20.4774    6.7518 C   0  0  0  0  0  0  0  0  0  0  0  0
   20.9213  -19.5548    7.8653 C   0  0  0  0  0  0  0  0  0  0  0  0
   19.6774  -18.9214    7.3646 C   0  0  1  0  0  0  0  0  0  0  0  0
   19.6029  -17.4636    7.6883 C   0  0  0  0  0  0  0  0  0  0  0  0
   19.1928  -16.9919    8.8998 O   0  0  0  0  0  0  0  0  0  0  0  0
   19.9385  -16.6577    6.7865 O   0  0  0  0  0  0  0  0  0  0  0  0
  2  3  2  0
  2  1  1  0
  4  2  1  0
  5  4  1  0
  6  5  1  0
  6  7  1  1
  8  6  1  0
  9  8  2  0
 10  8  1  0
 10 14  1  0
 11 10  1  0
 12 13  1  0
 12 11  1  0
 13 14  1  0
 14 15  1  1
 15 16  2  0
 15 17  1  0
 17 21  1  0
 18 17  1  0
 18 19  1  0
 19 20  1  0
 21 20  1  0
 22 23  1  0
 21 22  1  6
 24 22  2  0
M  END
$$$$
