QPP.pdb
     RDKit          3D

 24 25  0  0  1  0  0  0  0  0999 V2000
   23.7950   -9.0704  -21.4987 N   0  0  0  0  0  0  0  0  0  0  0  0
   23.2112  -10.3256  -21.8887 C   0  0  0  0  0  0  0  0  0  0  0  0
   22.3802  -10.3316  -22.8094 O   0  0  0  0  0  0  0  0  0  0  0  0
   23.6231  -11.5510  -21.1824 C   0  0  0  0  0  0  0  0  0  0  0  0
   24.6492  -11.3618  -20.1169 C   0  0  0  0  0  0  0  0  0  0  0  0
   24.4377  -12.2458  -18.8951 C   0  0  2  0  0  0  0  0  0  0  0  0
   23.4040  -13.2319  -19.1754 N   0  0  0  0  0  0  0  0  0  0  0  0
   24.0870  -11.4331  -17.7051 C   0  0  0  0  0  0  0  0  0  0  0  0
   22.8749  -11.3587  -17.3914 O   0  0  0  0  0  0  0  0  0  0  0  0
   25.0331  -10.7495  -16.9185 N   0  0  0  0  0  0  0  0  0  0  0  0
   26.4661  -10.8378  -17.0717 C   0  0  0  0  0  0  0  0  0  0  0  0
   26.8834  -10.7331  -15.5941 C   0  0  0  0  0  0  0  0  0  0  0  0
   26.0951   -9.4630  -15.2409 C   0  0  0  0  0  0  0  0  0  0  0  0
   24.7412   -9.8450  -15.8138 C   0  0  1  0  0  0  0  0  0  0  0  0
   24.0605   -8.6293  -16.2503 C   0  0  0  0  0  0  0  0  0  0  0  0
   24.2256   -8.1068  -17.3856 O   0  0  0  0  0  0  0  0  0  0  0  0
   23.1491   -7.9982  -15.3234 N   0  0  0  0  0  0  0  0  0  0  0  0
   22.7524   -8.5207  -14.0379 C   0  0  0  0  0  0  0  0  0  0  0  0
   21.3678   -7.9152  -13.7954 C   0  0  0  0  0  0  0  0  0  0  0  0
   21.4920   -6.5557  -14.4350 C   0  0  0  0  0  0  0  0  0  0  0  0
   22.4794   -6.7487  -15.5244 C   0  0  1  0  0  0  0  0  0  0  0  0
   23.4436   -5.6115  -15.6359 C   0  0  0  0  0  0  0  0  0  0  0  0
   24.7271   -5.6787  -15.1814 O   0  0  0  0  0  0  0  0  0  0  0  0
   23.0281   -4.5577  -16.1765 O   0  0  0  0  0  0  0  0  0  0  0  0
  2  3  2  0
  2  1  1  0
  4  2  1  0
  5  4  1  0
  6  5  1  0
  6  7  1  6
  8  6  1  0
  9  8  2  0
 10  8  1  0
 10 14  1  0
 11 10  1  0
 12 13  1  0
 12 11  1  0
 13 14  1  0
 14 15  1  6
 15 16  2  0
 15 17  1  0
 17 21  1  0
 18 17  1  0
 18 19  1  0
 19 20  1  0
 21 20  1  0
 22 23  1  0
 21 22  1  1
 24 22  2  0
M  END
$$$$
