QPP.pdb
     RDKit          3D

 24 25  0  0  1  0  0  0  0  0999 V2000
   20.1842  -23.2828  -13.3586 N   0  0  0  0  0  0  0  0  0  0  0  0
   21.0162  -22.7367  -14.3969 C   0  0  0  0  0  0  0  0  0  0  0  0
   21.1530  -23.3821  -15.4471 O   0  0  0  0  0  0  0  0  0  0  0  0
   21.6701  -21.4357  -14.1731 C   0  0  0  0  0  0  0  0  0  0  0  0
   21.3230  -20.7565  -12.8917 C   0  0  0  0  0  0  0  0  0  0  0  0
   22.4581  -20.7403  -11.8768 C   0  0  2  0  0  0  0  0  0  0  0  0
   22.0387  -20.0213  -10.6824 N   0  0  0  0  0  0  0  0  0  0  0  0
   23.6818  -20.1361  -12.4573 C   0  0  0  0  0  0  0  0  0  0  0  0
   23.5822  -18.9877  -12.9517 O   0  0  0  0  0  0  0  0  0  0  0  0
   24.9347  -20.7771  -12.4813 N   0  0  0  0  0  0  0  0  0  0  0  0
   25.2263  -22.0620  -11.8908 C   0  0  0  0  0  0  0  0  0  0  0  0
   26.6688  -21.8012  -11.4219 C   0  0  0  0  0  0  0  0  0  0  0  0
   27.2317  -21.2756  -12.7510 C   0  0  0  0  0  0  0  0  0  0  0  0
   26.1531  -20.2622  -13.0927 C   0  0  1  0  0  0  0  0  0  0  0  0
   26.0516  -20.1624  -14.5458 C   0  0  0  0  0  0  0  0  0  0  0  0
   25.2562  -20.8528  -15.2385 O   0  0  0  0  0  0  0  0  0  0  0  0
   26.9137  -19.2171  -15.2176 N   0  0  0  0  0  0  0  0  0  0  0  0
   27.7890  -18.2654  -14.5764 C   0  0  0  0  0  0  0  0  0  0  0  0
   27.9177  -17.1274  -15.5917 C   0  0  0  0  0  0  0  0  0  0  0  0
   27.8723  -17.8608  -16.9081 C   0  0  0  0  0  0  0  0  0  0  0  0
   27.0430  -19.0594  -16.6349 C   0  0  1  0  0  0  0  0  0  0  0  0
   27.5815  -20.2929  -17.2859 C   0  0  0  0  0  0  0  0  0  0  0  0
   27.4997  -20.5209  -18.6274 O   0  0  0  0  0  0  0  0  0  0  0  0
   28.1293  -21.1422  -16.5415 O   0  0  0  0  0  0  0  0  0  0  0  0
  2  3  2  0
  2  1  1  0
  4  2  1  0
  5  4  1  0
  6  5  1  0
  6  7  1  1
  8  6  1  0
  9  8  2  0
 10  8  1  0
 10 14  1  0
 11 10  1  0
 12 13  1  0
 12 11  1  0
 13 14  1  0
 14 15  1  6
 15 16  2  0
 15 17  1  0
 17 21  1  0
 18 17  1  0
 18 19  1  0
 19 20  1  0
 21 20  1  0
 22 23  1  0
 21 22  1  1
 24 22  2  0
M  END
$$$$
