QPP.pdb
     RDKit          3D

 24 25  0  0  1  0  0  0  0  0999 V2000
   13.5752  -24.8038    3.6816 N   0  0  0  0  0  0  0  0  0  0  0  0
   12.5703  -23.9818    3.0627 C   0  0  0  0  0  0  0  0  0  0  0  0
   11.4888  -24.5026    2.7507 O   0  0  0  0  0  0  0  0  0  0  0  0
   12.8639  -22.5578    2.8256 C   0  0  0  0  0  0  0  0  0  0  0  0
   14.2304  -22.1111    3.2217 C   0  0  0  0  0  0  0  0  0  0  0  0
   14.9332  -21.2697    2.1648 C   0  0  2  0  0  0  0  0  0  0  0  0
   15.2508  -22.0971    1.0098 N   0  0  0  0  0  0  0  0  0  0  0  0
   16.1558  -20.6363    2.7159 C   0  0  0  0  0  0  0  0  0  0  0  0
   17.2133  -21.3106    2.7033 O   0  0  0  0  0  0  0  0  0  0  0  0
   16.1903  -19.3327    3.2454 N   0  0  0  0  0  0  0  0  0  0  0  0
   15.0978  -18.3894    3.2131 C   0  0  0  0  0  0  0  0  0  0  0  0
   15.8963  -17.0866    3.0295 C   0  0  0  0  0  0  0  0  0  0  0  0
   16.8830  -17.2777    4.1912 C   0  0  0  0  0  0  0  0  0  0  0  0
   17.3252  -18.7029    3.9080 C   0  0  1  0  0  0  0  0  0  0  0  0
   17.6619  -19.3463    5.1747 C   0  0  0  0  0  0  0  0  0  0  0  0
   16.8711  -20.0965    5.8078 O   0  0  0  0  0  0  0  0  0  0  0  0
   18.9763  -19.1044    5.7243 N   0  0  0  0  0  0  0  0  0  0  0  0
   20.0582  -18.4175    5.0605 C   0  0  0  0  0  0  0  0  0  0  0  0
   21.3222  -19.0022    5.6953 C   0  0  0  0  0  0  0  0  0  0  0  0
   20.8876  -19.2454    7.1182 C   0  0  0  0  0  0  0  0  0  0  0  0
   19.4317  -19.5097    7.0198 C   0  0  1  0  0  0  0  0  0  0  0  0
   18.6522  -18.8544    8.1145 C   0  0  0  0  0  0  0  0  0  0  0  0
   18.5425  -19.3822    9.3667 O   0  0  0  0  0  0  0  0  0  0  0  0
   18.0820  -17.7697    7.8431 O   0  0  0  0  0  0  0  0  0  0  0  0
  2  3  2  0
  2  1  1  0
  4  2  1  0
  5  4  1  0
  6  5  1  0
  6  7  1  6
  8  6  1  0
  9  8  2  0
 10  8  1  0
 10 14  1  0
 11 10  1  0
 12 13  1  0
 12 11  1  0
 13 14  1  0
 14 15  1  1
 15 16  2  0
 15 17  1  0
 17 21  1  0
 18 17  1  0
 18 19  1  0
 19 20  1  0
 21 20  1  0
 22 23  1  0
 21 22  1  1
 24 22  2  0
M  END
$$$$
