QPP.pdb
     RDKit          3D

 24 25  0  0  1  0  0  0  0  0999 V2000
   20.5907  -18.6293  -15.7240 N   0  0  0  0  0  0  0  0  0  0  0  0
   21.4735  -19.6190  -15.1674 C   0  0  0  0  0  0  0  0  0  0  0  0
   21.3161  -19.9544  -13.9838 O   0  0  0  0  0  0  0  0  0  0  0  0
   22.5257  -20.1945  -16.0230 C   0  0  0  0  0  0  0  0  0  0  0  0
   22.6297  -19.6099  -17.3909 C   0  0  0  0  0  0  0  0  0  0  0  0
   24.0543  -19.2711  -17.8086 C   0  0  2  0  0  0  0  0  0  0  0  0
   24.3980  -20.0023  -19.0197 N   0  0  0  0  0  0  0  0  0  0  0  0
   25.0137  -19.5704  -16.7179 C   0  0  0  0  0  0  0  0  0  0  0  0
   25.4704  -20.7367  -16.6522 O   0  0  0  0  0  0  0  0  0  0  0  0
   25.4336  -18.6242  -15.7642 N   0  0  0  0  0  0  0  0  0  0  0  0
   25.0474  -17.2331  -15.7425 C   0  0  0  0  0  0  0  0  0  0  0  0
   26.3587  -16.6168  -15.2235 C   0  0  0  0  0  0  0  0  0  0  0  0
   26.5427  -17.5165  -13.9922 C   0  0  0  0  0  0  0  0  0  0  0  0
   26.3306  -18.8725  -14.6429 C   0  0  1  0  0  0  0  0  0  0  0  0
   25.7534  -19.7784  -13.6539 C   0  0  0  0  0  0  0  0  0  0  0  0
   24.5205  -20.0283  -13.5726 O   0  0  0  0  0  0  0  0  0  0  0  0
   26.6529  -20.4194  -12.7222 N   0  0  0  0  0  0  0  0  0  0  0  0
   28.0940  -20.3455  -12.7495 C   0  0  0  0  0  0  0  0  0  0  0  0
   28.5511  -21.6423  -12.0772 C   0  0  0  0  0  0  0  0  0  0  0  0
   27.4845  -21.8601  -11.0343 C   0  0  0  0  0  0  0  0  0  0  0  0
   26.2681  -21.2420  -11.6152 C   0  0  1  0  0  0  0  0  0  0  0  0
   25.4711  -20.4800  -10.6054 C   0  0  0  0  0  0  0  0  0  0  0  0
   24.5387  -21.0644   -9.8006 O   0  0  0  0  0  0  0  0  0  0  0  0
   25.6890  -19.2473  -10.5139 O   0  0  0  0  0  0  0  0  0  0  0  0
  2  3  2  0
  2  1  1  0
  4  2  1  0
  5  4  1  0
  6  5  1  0
  6  7  1  6
  8  6  1  0
  9  8  2  0
 10  8  1  0
 10 14  1  0
 11 10  1  0
 12 13  1  0
 12 11  1  0
 13 14  1  0
 14 15  1  1
 15 16  2  0
 15 17  1  0
 17 21  1  0
 18 17  1  0
 18 19  1  0
 19 20  1  0
 21 20  1  0
 22 23  1  0
 21 22  1  1
 24 22  2  0
M  END
$$$$
