QPP.pdb
     RDKit          3D

 24 25  0  0  1  0  0  0  0  0999 V2000
   22.9464  -20.2916   -9.8472 N   0  0  0  0  0  0  0  0  0  0  0  0
   23.1452  -19.7127  -11.1487 C   0  0  0  0  0  0  0  0  0  0  0  0
   22.6387  -18.6062  -11.3883 O   0  0  0  0  0  0  0  0  0  0  0  0
   23.9414  -20.4539  -12.1421 C   0  0  0  0  0  0  0  0  0  0  0  0
   25.4136  -20.2242  -12.0833 C   0  0  0  0  0  0  0  0  0  0  0  0
   26.2312  -21.5025  -11.9553 C   0  0  2  0  0  0  0  0  0  0  0  0
   25.3962  -22.6530  -12.2693 N   0  0  0  0  0  0  0  0  0  0  0  0
   26.8158  -21.6261  -10.5979 C   0  0  0  0  0  0  0  0  0  0  0  0
   26.0772  -22.0722   -9.6876 O   0  0  0  0  0  0  0  0  0  0  0  0
   28.1414  -21.2733  -10.2823 N   0  0  0  0  0  0  0  0  0  0  0  0
   29.1249  -20.7953  -11.2250 C   0  0  0  0  0  0  0  0  0  0  0  0
   30.3842  -21.4461  -10.6256 C   0  0  0  0  0  0  0  0  0  0  0  0
   30.2108  -20.9522   -9.1815 C   0  0  0  0  0  0  0  0  0  0  0  0
   28.7569  -21.3335   -8.9628 C   0  0  1  0  0  0  0  0  0  0  0  0
   28.1632  -20.3857   -8.0240 C   0  0  0  0  0  0  0  0  0  0  0  0
   27.4419  -19.4139   -8.3766 O   0  0  0  0  0  0  0  0  0  0  0  0
   28.4217  -20.5813   -6.6158 N   0  0  0  0  0  0  0  0  0  0  0  0
   29.1344  -21.6924   -6.0322 C   0  0  0  0  0  0  0  0  0  0  0  0
   28.5648  -21.8040   -4.6161 C   0  0  0  0  0  0  0  0  0  0  0  0
   28.2986  -20.3637   -4.2593 C   0  0  0  0  0  0  0  0  0  0  0  0
   28.0102  -19.7085   -5.5580 C   0  0  1  0  0  0  0  0  0  0  0  0
   28.6398  -18.3574   -5.6737 C   0  0  0  0  0  0  0  0  0  0  0  0
   29.8903  -18.1616   -6.1801 O   0  0  0  0  0  0  0  0  0  0  0  0
   27.9658  -17.3745   -5.2799 O   0  0  0  0  0  0  0  0  0  0  0  0
  2  3  2  0
  2  1  1  0
  4  2  1  0
  5  4  1  0
  6  5  1  0
  6  7  1  1
  8  6  1  0
  9  8  2  0
 10  8  1  0
 10 14  1  0
 11 10  1  0
 12 13  1  0
 12 11  1  0
 13 14  1  0
 14 15  1  1
 15 16  2  0
 15 17  1  0
 17 21  1  0
 18 17  1  0
 18 19  1  0
 19 20  1  0
 21 20  1  0
 22 23  1  0
 21 22  1  1
 24 22  2  0
M  END
$$$$
