FRI.pdb
     RDKit          3D

 31 31  0  0  1  0  0  0  0  0999 V2000
   28.9585  -21.2560   -9.8951 N   0  0  0  0  0  0  0  0  0  0  0  0
   27.5694  -21.2000   -9.5771 C   0  0  1  0  0  0  0  0  0  0  0  0
   27.1563  -20.0282   -8.7349 C   0  0  0  0  0  0  0  0  0  0  0  0
   27.7442  -20.1311   -7.3633 C   0  0  0  0  0  0  0  0  0  0  0  0
   26.9271  -19.7816   -6.3095 C   0  0  0  0  0  0  0  0  0  0  0  0
   27.4018  -19.8503   -5.0124 C   0  0  0  0  0  0  0  0  0  0  0  0
   28.6975  -20.2718   -4.7976 C   0  0  0  0  0  0  0  0  0  0  0  0
   29.5087  -20.6195   -5.8544 C   0  0  0  0  0  0  0  0  0  0  0  0
   29.0494  -20.5558   -7.1504 C   0  0  0  0  0  0  0  0  0  0  0  0
   26.7969  -21.1174  -10.8619 C   0  0  0  0  0  0  0  0  0  0  0  0
   27.2247  -20.4363  -11.8030 O   0  0  0  0  0  0  0  0  0  0  0  0
   25.3258  -23.9313  -17.0206 N   0  0  0  0  0  0  0  0  0  0  0  0
   25.7574  -24.9721  -16.1569 C   0  0  0  0  0  0  0  0  0  0  0  0
   26.8338  -25.6325  -16.4048 N   0  0  0  0  0  0  0  0  0  0  0  0
   25.0246  -25.3205  -14.9900 N   0  0  0  0  0  0  0  0  0  0  0  0
   23.8288  -24.6276  -14.6684 C   0  0  0  0  0  0  0  0  0  0  0  0
   24.0150  -23.1943  -14.2217 C   0  0  0  0  0  0  0  0  0  0  0  0
   24.6530  -23.1998  -12.8543 C   0  0  0  0  0  0  0  0  0  0  0  0
   24.9397  -21.8350  -12.3168 C   0  0  2  0  0  0  0  0  0  0  0  0
   25.5825  -21.7899  -11.0579 N   0  0  0  0  0  0  0  0  0  0  0  0
   23.7732  -20.9207  -12.3032 C   0  0  0  0  0  0  0  0  0  0  0  0
   23.1199  -20.7257  -11.2387 O   0  0  0  0  0  0  0  0  0  0  0  0
   27.1039  -26.4214  -15.8106 C   0  0  0  0  0  0  0  0  0  0  0  0
   23.1340  -16.8600  -16.0576 C   0  0  0  0  0  0  0  0  0  0  0  0
   23.1728  -17.6056  -14.7152 C   0  0  2  0  0  0  0  0  0  0  0  0
   22.0019  -18.5446  -14.6183 C   0  0  0  0  0  0  0  0  0  0  0  0
   20.7288  -17.7739  -14.7450 C   0  0  2  0  0  0  0  0  0  0  0  0
   22.1234  -19.3811  -13.3811 N   0  0  0  0  0  0  0  0  0  0  0  0
   23.3246  -20.2229  -13.4481 C   0  0  0  0  0  0  0  0  0  0  0  0
   20.9640  -20.2833  -13.2605 O   0  0  0  0  0  0  0  0  0  0  0  0
   20.0038  -19.9429  -12.5231 O   0  0  0  0  0  0  0  0  0  0  0  0
  2  1  1  6
  2 10  1  0
  3  2  1  0
  3  4  1  0
  4  9  2  0
  4  5  1  0
  5  6  2  0
  6  7  1  0
  8  7  2  0
  9  8  1  0
 10 11  2  0
 13 15  1  0
 13 12  1  0
 14 13  2  0
 16 15  1  0
 16 17  1  0
 19 18  1  1
 18 17  1  0
 20 19  1  0
 20 10  1  0
 21 19  1  0
 21 22  2  0
 23 24  1  0
 24 25  1  0
 25 26  1  6
 27 28  1  1
 27 25  1  0
 28 21  1  0
 29 31  1  0
 29 27  1  0
 30 29  2  0
M  END
$$$$
