FRI.pdb
     RDKit          3D

 31 31  0  0  1  0  0  0  0  0999 V2000
   19.0166  -20.9689  -13.9039 N   0  0  0  0  0  0  0  0  0  0  0  0
   20.0391  -20.3446  -14.6776 C   0  0  1  0  0  0  0  0  0  0  0  0
   20.2309  -18.8793  -14.4144 C   0  0  0  0  0  0  0  0  0  0  0  0
   19.3163  -18.0649  -15.2733 C   0  0  0  0  0  0  0  0  0  0  0  0
   19.8097  -17.6575  -16.4943 C   0  0  0  0  0  0  0  0  0  0  0  0
   19.0220  -16.9005  -17.3422 C   0  0  0  0  0  0  0  0  0  0  0  0
   17.7447  -16.5650  -16.9442 C   0  0  0  0  0  0  0  0  0  0  0  0
   17.2576  -16.9749  -15.7233 C   0  0  0  0  0  0  0  0  0  0  0  0
   18.0305  -17.7286  -14.8695 C   0  0  0  0  0  0  0  0  0  0  0  0
   21.3416  -21.0250  -14.3699 C   0  0  0  0  0  0  0  0  0  0  0  0
   21.5840  -21.4152  -13.2203 O   0  0  0  0  0  0  0  0  0  0  0  0
   26.8974  -26.0671  -15.7738 N   0  0  0  0  0  0  0  0  0  0  0  0
   25.8783  -25.9479  -16.7551 C   0  0  0  0  0  0  0  0  0  0  0  0
   25.0937  -26.9342  -17.0158 N   0  0  0  0  0  0  0  0  0  0  0  0
   25.6834  -24.7413  -17.4805 N   0  0  0  0  0  0  0  0  0  0  0  0
   26.3181  -23.5457  -17.0548 C   0  0  0  0  0  0  0  0  0  0  0  0
   25.7106  -22.8940  -15.8322 C   0  0  0  0  0  0  0  0  0  0  0  0
   24.3006  -22.4732  -16.1666 C   0  0  0  0  0  0  0  0  0  0  0  0
   23.5794  -21.8233  -15.0304 C   0  0  2  0  0  0  0  0  0  0  0  0
   22.3258  -21.2483  -15.3432 N   0  0  0  0  0  0  0  0  0  0  0  0
   24.3888  -20.8451  -14.2657 C   0  0  0  0  0  0  0  0  0  0  0  0
   24.4437  -19.6342  -14.6242 O   0  0  0  0  0  0  0  0  0  0  0  0
   24.3862  -26.8507  -17.7513 C   0  0  0  0  0  0  0  0  0  0  0  0
   26.9492  -21.5678   -9.0185 C   0  0  0  0  0  0  0  0  0  0  0  0
   26.8018  -21.5119  -10.5465 C   0  0  2  0  0  0  0  0  0  0  0  0
   25.8645  -20.3996  -10.9289 C   0  0  0  0  0  0  0  0  0  0  0  0
   24.5039  -20.6789  -10.3797 C   0  0  1  0  0  0  0  0  0  0  0  0
   25.9233  -20.1729  -12.4090 N   0  0  0  0  0  0  0  0  0  0  0  0
   25.1336  -21.1900  -13.1145 C   0  0  0  0  0  0  0  0  0  0  0  0
   27.3126  -20.2894  -12.8872 O   0  0  0  0  0  0  0  0  0  0  0  0
   27.6567  -21.3290  -13.5057 O   0  0  0  0  0  0  0  0  0  0  0  0
  2  1  1  1
  2 10  1  0
  3  2  1  0
  3  4  1  0
  4  9  2  0
  4  5  1  0
  5  6  2  0
  6  7  1  0
  8  7  2  0
  9  8  1  0
 10 11  2  0
 13 15  1  0
 13 12  1  0
 14 13  2  0
 16 15  1  0
 16 17  1  0
 19 18  1  6
 18 17  1  0
 20 19  1  0
 20 10  1  0
 21 19  1  0
 21 22  2  0
 23 24  1  0
 24 25  1  0
 25 26  1  1
 27 28  1  1
 27 25  1  0
 28 21  1  0
 29 31  1  0
 29 27  1  0
 30 29  2  0
M  END
$$$$
