FRI.pdb
     RDKit          3D

 31 31  0  0  1  0  0  0  0  0999 V2000
   20.8073  -24.2424   -7.7657 N   0  0  0  0  0  0  0  0  0  0  0  0
   20.8379  -22.8496   -8.0709 C   0  0  1  0  0  0  0  0  0  0  0  0
   20.2424  -21.9554   -7.0227 C   0  0  0  0  0  0  0  0  0  0  0  0
   18.7584  -22.1325   -6.9592 C   0  0  0  0  0  0  0  0  0  0  0  0
   18.0173  -21.5250   -7.9501 C   0  0  0  0  0  0  0  0  0  0  0  0
   16.6395  -21.6438   -7.9564 C   0  0  0  0  0  0  0  0  0  0  0  0
   16.0286  -22.3761   -6.9599 C   0  0  0  0  0  0  0  0  0  0  0  0
   16.7743  -22.9806   -5.9728 C   0  0  0  0  0  0  0  0  0  0  0  0
   18.1462  -22.8706   -5.9543 C   0  0  0  0  0  0  0  0  0  0  0  0
   22.2716  -22.4383   -8.2427 C   0  0  0  0  0  0  0  0  0  0  0  0
   23.1400  -22.8713   -7.4739 O   0  0  0  0  0  0  0  0  0  0  0  0
   26.3636  -23.3646  -13.4307 N   0  0  0  0  0  0  0  0  0  0  0  0
   27.3919  -22.4069  -13.6336 C   0  0  0  0  0  0  0  0  0  0  0  0
   28.5606  -22.7674  -14.0342 N   0  0  0  0  0  0  0  0  0  0  0  0
   27.1712  -21.0212  -13.4077 N   0  0  0  0  0  0  0  0  0  0  0  0
   25.9777  -20.5854  -12.7760 C   0  0  0  0  0  0  0  0  0  0  0  0
   25.8254  -21.0013  -11.3295 C   0  0  0  0  0  0  0  0  0  0  0  0
   24.3543  -21.1508  -11.0284 C   0  0  0  0  0  0  0  0  0  0  0  0
   24.0554  -21.3890   -9.5835 C   0  0  2  0  0  0  0  0  0  0  0  0
   22.6909  -21.5654   -9.2564 N   0  0  0  0  0  0  0  0  0  0  0  0
   24.6558  -20.3985   -8.6588 C   0  0  0  0  0  0  0  0  0  0  0  0
   24.0617  -19.3122   -8.4042 O   0  0  0  0  0  0  0  0  0  0  0  0
   29.3052  -22.0734  -14.1452 C   0  0  0  0  0  0  0  0  0  0  0  0
   28.3851  -21.5930   -4.6171 C   0  0  0  0  0  0  0  0  0  0  0  0
   27.1863  -21.0324   -5.3971 C   0  0  2  0  0  0  0  0  0  0  0  0
   27.6635  -20.0464   -6.4277 C   0  0  0  0  0  0  0  0  0  0  0  0
   28.5097  -19.0050   -5.7719 C   0  0  2  0  0  0  0  0  0  0  0  0
   26.4962  -19.5241   -7.2088 N   0  0  0  0  0  0  0  0  0  0  0  0
   25.8992  -20.5959   -8.0155 C   0  0  0  0  0  0  0  0  0  0  0  0
   26.9374  -18.4704   -8.1404 O   0  0  0  0  0  0  0  0  0  0  0  0
   26.8191  -17.2668   -7.7956 O   0  0  0  0  0  0  0  0  0  0  0  0
  2  1  1  1
  2 10  1  0
  3  2  1  0
  3  4  1  0
  4  9  2  0
  4  5  1  0
  5  6  2  0
  6  7  1  0
  8  7  2  0
  9  8  1  0
 10 11  2  0
 13 15  1  0
 13 12  1  0
 14 13  2  0
 16 15  1  0
 16 17  1  0
 19 18  1  6
 18 17  1  0
 20 19  1  0
 20 10  1  0
 21 19  1  0
 21 22  2  0
 23 24  1  0
 24 25  1  0
 25 26  1  6
 27 28  1  1
 27 25  1  0
 28 21  1  0
 29 31  1  0
 29 27  1  0
 30 29  2  0
M  END
$$$$
