FRI.pdb
     RDKit          3D

 31 31  0  0  1  0  0  0  0  0999 V2000
   24.7199  -17.3791  -15.7984 N   0  0  0  0  0  0  0  0  0  0  0  0
   25.8482  -17.8641  -15.0734 C   0  0  1  0  0  0  0  0  0  0  0  0
   26.6280  -16.8159  -14.3342 C   0  0  0  0  0  0  0  0  0  0  0  0
   27.1948  -15.8108  -15.2861 C   0  0  0  0  0  0  0  0  0  0  0  0
   28.2118  -16.2413  -16.1111 C   0  0  0  0  0  0  0  0  0  0  0  0
   28.7859  -15.3679  -17.0166 C   0  0  0  0  0  0  0  0  0  0  0  0
   28.3239  -14.0696  -17.0762 C   0  0  0  0  0  0  0  0  0  0  0  0
   27.3077  -13.6457  -16.2495 C   0  0  0  0  0  0  0  0  0  0  0  0
   26.7272  -14.5042  -15.3436 C   0  0  0  0  0  0  0  0  0  0  0  0
   25.3614  -18.8550  -14.0559 C   0  0  0  0  0  0  0  0  0  0  0  0
   24.3733  -18.5952  -13.3568 O   0  0  0  0  0  0  0  0  0  0  0  0
   24.1587  -26.9927  -15.4133 N   0  0  0  0  0  0  0  0  0  0  0  0
   23.7782  -25.6862  -15.8182 C   0  0  0  0  0  0  0  0  0  0  0  0
   23.2427  -25.4814  -16.9703 N   0  0  0  0  0  0  0  0  0  0  0  0
   23.9689  -24.5612  -14.9707 N   0  0  0  0  0  0  0  0  0  0  0  0
   24.4041  -24.7449  -13.6327 C   0  0  0  0  0  0  0  0  0  0  0  0
   24.5765  -23.4738  -12.8310 C   0  0  0  0  0  0  0  0  0  0  0  0
   25.1825  -22.4224  -13.7279 C   0  0  0  0  0  0  0  0  0  0  0  0
   25.4028  -21.1074  -13.0528 C   0  0  2  0  0  0  0  0  0  0  0  0
   25.9842  -20.0941  -13.8498 N   0  0  0  0  0  0  0  0  0  0  0  0
   26.1276  -21.1910  -11.7627 C   0  0  0  0  0  0  0  0  0  0  0  0
   27.2860  -21.6937  -11.7061 O   0  0  0  0  0  0  0  0  0  0  0  0
   22.9531  -24.5383  -17.2447 C   0  0  0  0  0  0  0  0  0  0  0  0
   28.0137  -19.0705   -6.6018 C   0  0  0  0  0  0  0  0  0  0  0  0
   27.5445  -20.3242   -7.3552 C   0  0  2  0  0  0  0  0  0  0  0  0
   26.9293  -19.9298   -8.6698 C   0  0  0  0  0  0  0  0  0  0  0  0
   26.1037  -18.6985   -8.4881 C   0  0  2  0  0  0  0  0  0  0  0  0
   26.2092  -21.1014   -9.2648 N   0  0  0  0  0  0  0  0  0  0  0  0
   25.5881  -20.7262  -10.5412 C   0  0  0  0  0  0  0  0  0  0  0  0
   25.1279  -21.5443   -8.3664 O   0  0  0  0  0  0  0  0  0  0  0  0
   23.9343  -21.3401   -8.7061 O   0  0  0  0  0  0  0  0  0  0  0  0
  2  1  1  1
  2 10  1  0
  3  2  1  0
  3  4  1  0
  4  9  2  0
  4  5  1  0
  5  6  2  0
  6  7  1  0
  8  7  2  0
  9  8  1  0
 10 11  2  0
 13 15  1  0
 13 12  1  0
 14 13  2  0
 16 15  1  0
 16 17  1  0
 19 18  1  6
 18 17  1  0
 20 19  1  0
 20 10  1  0
 21 19  1  0
 21 22  2  0
 23 24  1  0
 24 25  1  0
 25 26  1  6
 27 28  1  1
 27 25  1  0
 28 21  1  0
 29 31  1  0
 29 27  1  0
 30 29  2  0
M  END
$$$$
