FRI.pdb
     RDKit          3D

 31 31  0  0  1  0  0  0  0  0999 V2000
   25.7172  -21.3481   -7.8828 N   0  0  0  0  0  0  0  0  0  0  0  0
   26.2368  -20.1121   -8.3690 C   0  0  1  0  0  0  0  0  0  0  0  0
   27.7256  -19.9585   -8.2537 C   0  0  0  0  0  0  0  0  0  0  0  0
   28.1378  -19.8770   -6.8181 C   0  0  0  0  0  0  0  0  0  0  0  0
   27.5731  -18.8693   -6.0659 C   0  0  0  0  0  0  0  0  0  0  0  0
   27.9070  -18.7308   -4.7311 C   0  0  0  0  0  0  0  0  0  0  0  0
   28.8084  -19.6137   -4.1738 C   0  0  0  0  0  0  0  0  0  0  0  0
   29.3691  -20.6181   -4.9304 C   0  0  0  0  0  0  0  0  0  0  0  0
   29.0459  -20.7677   -6.2599 C   0  0  0  0  0  0  0  0  0  0  0  0
   25.8905  -19.9981   -9.8254 C   0  0  0  0  0  0  0  0  0  0  0  0
   25.8587  -18.8881  -10.3729 O   0  0  0  0  0  0  0  0  0  0  0  0
   27.7932  -24.5172  -16.9731 N   0  0  0  0  0  0  0  0  0  0  0  0
   26.9942  -23.4559  -17.4740 C   0  0  0  0  0  0  0  0  0  0  0  0
   26.8218  -23.2995  -18.7397 N   0  0  0  0  0  0  0  0  0  0  0  0
   26.3545  -22.5330  -16.6028 N   0  0  0  0  0  0  0  0  0  0  0  0
   26.4895  -22.6719  -15.1971 C   0  0  0  0  0  0  0  0  0  0  0  0
   25.6541  -21.7179  -14.3723 C   0  0  0  0  0  0  0  0  0  0  0  0
   26.0300  -21.8871  -12.9207 C   0  0  0  0  0  0  0  0  0  0  0  0
   25.2684  -20.9971  -11.9925 C   0  0  2  0  0  0  0  0  0  0  0  0
   25.5928  -21.1135  -10.6209 N   0  0  0  0  0  0  0  0  0  0  0  0
   23.7962  -21.0547  -12.1533 C   0  0  0  0  0  0  0  0  0  0  0  0
   23.1182  -21.9446  -11.5648 O   0  0  0  0  0  0  0  0  0  0  0  0
   26.3290  -22.4755  -19.0957 C   0  0  0  0  0  0  0  0  0  0  0  0
   19.3336  -17.7401  -11.7808 C   0  0  0  0  0  0  0  0  0  0  0  0
   19.6487  -18.5847  -13.0246 C   0  0  2  0  0  0  0  0  0  0  0  0
   21.1378  -18.6813  -13.2125 C   0  0  0  0  0  0  0  0  0  0  0  0
   21.4991  -18.2392  -14.5927 C   0  0  2  0  0  0  0  0  0  0  0  0
   21.6087  -20.0531  -12.8359 N   0  0  0  0  0  0  0  0  0  0  0  0
   23.0696  -20.1429  -12.9531 C   0  0  0  0  0  0  0  0  0  0  0  0
   21.0347  -21.0573  -13.7496 O   0  0  0  0  0  0  0  0  0  0  0  0
   19.8145  -21.3443  -13.6471 O   0  0  0  0  0  0  0  0  0  0  0  0
  2  1  1  6
  2 10  1  0
  3  2  1  0
  3  4  1  0
  4  9  2  0
  4  5  1  0
  5  6  2  0
  6  7  1  0
  8  7  2  0
  9  8  1  0
 10 11  2  0
 13 15  1  0
 13 12  1  0
 14 13  2  0
 16 15  1  0
 16 17  1  0
 19 18  1  6
 18 17  1  0
 20 19  1  0
 20 10  1  0
 21 19  1  0
 21 22  2  0
 23 24  1  0
 24 25  1  0
 25 26  1  1
 27 28  1  6
 27 25  1  0
 28 21  1  0
 29 31  1  0
 29 27  1  0
 30 29  2  0
M  END
$$$$
