FRI.pdb
     RDKit          3D

 31 31  0  0  1  0  0  0  0  0999 V2000
   27.8755  -21.1897  -17.0903 N   0  0  0  0  0  0  0  0  0  0  0  0
   28.1208  -20.1764  -16.1171 C   0  0  1  0  0  0  0  0  0  0  0  0
   27.1670  -19.0178  -16.1509 C   0  0  0  0  0  0  0  0  0  0  0  0
   27.3226  -18.2433  -17.4211 C   0  0  0  0  0  0  0  0  0  0  0  0
   28.4324  -17.4319  -17.5219 C   0  0  0  0  0  0  0  0  0  0  0  0
   28.6427  -16.6847  -18.6665 C   0  0  0  0  0  0  0  0  0  0  0  0
   27.7274  -16.7678  -19.6950 C   0  0  0  0  0  0  0  0  0  0  0  0
   26.6208  -17.5802  -19.5882 C   0  0  0  0  0  0  0  0  0  0  0  0
   26.3990  -18.3292  -18.4550 C   0  0  0  0  0  0  0  0  0  0  0  0
   28.0149  -20.7987  -14.7549 C   0  0  0  0  0  0  0  0  0  0  0  0
   27.0900  -21.5803  -14.4974 O   0  0  0  0  0  0  0  0  0  0  0  0
   32.0408  -24.5385  -12.7477 N   0  0  0  0  0  0  0  0  0  0  0  0
   33.2638  -23.8235  -12.6537 C   0  0  0  0  0  0  0  0  0  0  0  0
   34.2713  -24.1385  -13.3898 N   0  0  0  0  0  0  0  0  0  0  0  0
   33.4210  -22.7365  -11.7517 N   0  0  0  0  0  0  0  0  0  0  0  0
   32.2804  -22.0497  -11.2608 C   0  0  0  0  0  0  0  0  0  0  0  0
   31.0719  -22.0756  -12.1703 C   0  0  0  0  0  0  0  0  0  0  0  0
   30.0302  -21.1408  -11.6063 C   0  0  0  0  0  0  0  0  0  0  0  0
   28.7832  -21.0616  -12.4265 C   0  0  2  0  0  0  0  0  0  0  0  0
   28.9342  -20.5343  -13.7299 N   0  0  0  0  0  0  0  0  0  0  0  0
   27.6462  -20.3883  -11.7553 C   0  0  0  0  0  0  0  0  0  0  0  0
   27.5004  -19.1353  -11.8368 O   0  0  0  0  0  0  0  0  0  0  0  0
   35.1276  -23.5779  -13.3603 C   0  0  0  0  0  0  0  0  0  0  0  0
   21.7909  -20.6505  -10.5337 C   0  0  0  0  0  0  0  0  0  0  0  0
   23.1581  -20.1388  -10.0554 C   0  0  2  0  0  0  0  0  0  0  0  0
   24.2576  -20.9016  -10.7418 C   0  0  0  0  0  0  0  0  0  0  0  0
   24.0744  -22.3654  -10.5080 C   0  0  2  0  0  0  0  0  0  0  0  0
   25.5895  -20.3498  -10.3331 N   0  0  0  0  0  0  0  0  0  0  0  0
   26.6735  -21.0824  -10.9997 C   0  0  0  0  0  0  0  0  0  0  0  0
   25.7830  -20.5096   -8.8807 O   0  0  0  0  0  0  0  0  0  0  0  0
   25.2549  -19.6748   -8.1023 O   0  0  0  0  0  0  0  0  0  0  0  0
  2  1  1  6
  2 10  1  0
  3  2  1  0
  3  4  1  0
  4  9  2  0
  4  5  1  0
  5  6  2  0
  6  7  1  0
  8  7  2  0
  9  8  1  0
 10 11  2  0
 13 15  1  0
 13 12  1  0
 14 13  2  0
 16 15  1  0
 16 17  1  0
 19 18  1  1
 18 17  1  0
 20 19  1  0
 20 10  1  0
 21 19  1  0
 21 22  2  0
 23 24  1  0
 24 25  1  0
 25 26  1  6
 27 28  1  1
 27 25  1  0
 28 21  1  0
 29 31  1  0
 29 27  1  0
 30 29  2  0
M  END
$$$$
