FRI.pdb
     RDKit          3D

 31 31  0  0  1  0  0  0  0  0999 V2000
   26.5710  -22.4740  -13.5596 N   0  0  0  0  0  0  0  0  0  0  0  0
   25.7904  -21.6808  -12.6678 C   0  0  1  0  0  0  0  0  0  0  0  0
   26.4386  -20.4034  -12.2191 C   0  0  0  0  0  0  0  0  0  0  0  0
   27.6912  -20.6883  -11.4525 C   0  0  0  0  0  0  0  0  0  0  0  0
   27.5386  -21.1451  -10.1609 C   0  0  0  0  0  0  0  0  0  0  0  0
   28.6513  -21.4289   -9.3904 C   0  0  0  0  0  0  0  0  0  0  0  0
   29.9048  -21.2470   -9.9364 C   0  0  0  0  0  0  0  0  0  0  0  0
   30.0507  -20.7904  -11.2272 C   0  0  0  0  0  0  0  0  0  0  0  0
   28.9521  -20.5040  -12.0053 C   0  0  0  0  0  0  0  0  0  0  0  0
   24.5138  -21.3094  -13.3652 C   0  0  0  0  0  0  0  0  0  0  0  0
   24.4944  -21.1680  -14.5950 O   0  0  0  0  0  0  0  0  0  0  0  0
   17.9917  -24.7843   -9.6344 N   0  0  0  0  0  0  0  0  0  0  0  0
   18.9055  -24.0553   -8.8286 C   0  0  0  0  0  0  0  0  0  0  0  0
   19.0053  -24.2885   -7.5670 N   0  0  0  0  0  0  0  0  0  0  0  0
   19.7432  -23.0488   -9.3810 N   0  0  0  0  0  0  0  0  0  0  0  0
   19.9106  -22.9561  -10.7870 C   0  0  0  0  0  0  0  0  0  0  0  0
   20.9369  -21.9450  -11.2484 C   0  0  0  0  0  0  0  0  0  0  0  0
   21.0068  -21.9896  -12.7551 C   0  0  0  0  0  0  0  0  0  0  0  0
   22.0569  -21.0995  -13.3370 C   0  0  2  0  0  0  0  0  0  0  0  0
   23.3082  -21.1087  -12.6782 N   0  0  0  0  0  0  0  0  0  0  0  0
   21.6269  -19.6972  -13.5502 C   0  0  0  0  0  0  0  0  0  0  0  0
   21.6931  -18.8533  -12.6114 O   0  0  0  0  0  0  0  0  0  0  0  0
   19.6764  -23.7659   -6.9968 C   0  0  0  0  0  0  0  0  0  0  0  0
   22.5110  -15.1061  -16.4518 C   0  0  0  0  0  0  0  0  0  0  0  0
   21.1790  -15.8703  -16.4908 C   0  0  2  0  0  0  0  0  0  0  0  0
   21.4288  -17.3419  -16.3057 C   0  0  0  0  0  0  0  0  0  0  0  0
   20.9151  -18.0910  -17.4914 C   0  0  2  0  0  0  0  0  0  0  0  0
   20.8841  -17.7864  -14.9825 N   0  0  0  0  0  0  0  0  0  0  0  0
   21.1279  -19.2207  -14.7843 C   0  0  0  0  0  0  0  0  0  0  0  0
   19.4252  -17.5810  -14.9373 O   0  0  0  0  0  0  0  0  0  0  0  0
   18.9777  -16.4058  -14.9242 O   0  0  0  0  0  0  0  0  0  0  0  0
  2  1  1  6
  2 10  1  0
  3  2  1  0
  3  4  1  0
  4  9  2  0
  4  5  1  0
  5  6  2  0
  6  7  1  0
  8  7  2  0
  9  8  1  0
 10 11  2  0
 13 15  1  0
 13 12  1  0
 14 13  2  0
 16 15  1  0
 16 17  1  0
 19 18  1  1
 18 17  1  0
 20 19  1  0
 20 10  1  0
 21 19  1  0
 21 22  2  0
 23 24  1  0
 24 25  1  0
 25 26  1  1
 27 28  1  1
 27 25  1  0
 28 21  1  0
 29 31  1  0
 29 27  1  0
 30 29  2  0
M  END
$$$$
