FRI.pdb
     RDKit          3D

 31 31  0  0  1  0  0  0  0  0999 V2000
   22.9580  -22.1606  -12.2399 N   0  0  0  0  0  0  0  0  0  0  0  0
   23.7433  -20.9749  -12.1340 C   0  0  1  0  0  0  0  0  0  0  0  0
   23.0216  -19.7811  -11.5798 C   0  0  0  0  0  0  0  0  0  0  0  0
   22.0997  -19.1994  -12.6042 C   0  0  0  0  0  0  0  0  0  0  0  0
   22.6856  -18.6175  -13.7080 C   0  0  0  0  0  0  0  0  0  0  0  0
   21.8971  -18.0578  -14.6967 C   0  0  0  0  0  0  0  0  0  0  0  0
   20.5255  -18.0939  -14.5563 C   0  0  0  0  0  0  0  0  0  0  0  0
   19.9462  -18.6767  -13.4514 C   0  0  0  0  0  0  0  0  0  0  0  0
   20.7188  -19.2374  -12.4599 C   0  0  0  0  0  0  0  0  0  0  0  0
   24.8998  -21.2582  -11.2195 C   0  0  0  0  0  0  0  0  0  0  0  0
   24.7468  -21.9847  -10.2288 O   0  0  0  0  0  0  0  0  0  0  0  0
   32.7251  -22.5018   -9.1260 N   0  0  0  0  0  0  0  0  0  0  0  0
   32.6272  -22.8550  -10.4976 C   0  0  0  0  0  0  0  0  0  0  0  0
   33.3441  -23.8046  -10.9879 N   0  0  0  0  0  0  0  0  0  0  0  0
   31.7364  -22.1808  -11.3762 N   0  0  0  0  0  0  0  0  0  0  0  0
   31.0645  -21.0078  -10.9446 C   0  0  0  0  0  0  0  0  0  0  0  0
   29.7491  -21.2428  -10.2355 C   0  0  0  0  0  0  0  0  0  0  0  0
   28.6278  -20.8726  -11.1750 C   0  0  0  0  0  0  0  0  0  0  0  0
   27.2665  -21.0092  -10.5733 C   0  0  2  0  0  0  0  0  0  0  0  0
   26.1802  -20.7289  -11.4342 N   0  0  0  0  0  0  0  0  0  0  0  0
   27.0807  -20.2780   -9.2976 C   0  0  0  0  0  0  0  0  0  0  0  0
   26.5502  -19.1307   -9.2841 O   0  0  0  0  0  0  0  0  0  0  0  0
   33.2673  -24.0505  -11.9790 C   0  0  0  0  0  0  0  0  0  0  0  0
   28.0381  -20.7387   -3.1521 C   0  0  0  0  0  0  0  0  0  0  0  0
   27.4125  -20.0358   -4.3662 C   0  0  2  0  0  0  0  0  0  0  0  0
   27.7780  -20.7710   -5.6264 C   0  0  0  0  0  0  0  0  0  0  0  0
   29.2413  -21.0704   -5.6262 C   0  0  2  0  0  0  0  0  0  0  0  0
   27.2799  -20.0126   -6.8189 N   0  0  0  0  0  0  0  0  0  0  0  0
   27.4725  -20.7997   -8.0433 C   0  0  0  0  0  0  0  0  0  0  0  0
   28.0409  -18.7606   -6.9803 O   0  0  0  0  0  0  0  0  0  0  0  0
   27.6220  -17.7182   -6.4150 O   0  0  0  0  0  0  0  0  0  0  0  0
  2  1  1  1
  2 10  1  0
  3  2  1  0
  3  4  1  0
  4  9  2  0
  4  5  1  0
  5  6  2  0
  6  7  1  0
  8  7  2  0
  9  8  1  0
 10 11  2  0
 13 15  1  0
 13 12  1  0
 14 13  2  0
 16 15  1  0
 16 17  1  0
 19 18  1  6
 18 17  1  0
 20 19  1  0
 20 10  1  0
 21 19  1  0
 21 22  2  0
 23 24  1  0
 24 25  1  0
 25 26  1  6
 27 28  1  6
 27 25  1  0
 28 21  1  0
 29 31  1  0
 29 27  1  0
 30 29  2  0
M  END
$$$$
