FRI.pdb
     RDKit          3D

 31 31  0  0  1  0  0  0  0  0999 V2000
   20.9598  -18.3265  -22.3508 N   0  0  0  0  0  0  0  0  0  0  0  0
   21.3144  -17.7659  -21.0884 C   0  0  1  0  0  0  0  0  0  0  0  0
   20.4079  -16.6735  -20.6002 C   0  0  0  0  0  0  0  0  0  0  0  0
   20.5024  -15.4734  -21.4880 C   0  0  0  0  0  0  0  0  0  0  0  0
   19.4647  -15.2719  -22.3727 C   0  0  0  0  0  0  0  0  0  0  0  0
   19.4831  -14.1839  -23.2261 C   0  0  0  0  0  0  0  0  0  0  0  0
   20.5514  -13.3130  -23.1738 C   0  0  0  0  0  0  0  0  0  0  0  0
   21.5851  -13.5197  -22.2879 C   0  0  0  0  0  0  0  0  0  0  0  0
   21.5797  -14.5983  -21.4329 C   0  0  0  0  0  0  0  0  0  0  0  0
   21.2813  -18.8616  -20.0625 C   0  0  0  0  0  0  0  0  0  0  0  0
   20.6341  -19.8951  -20.2759 O   0  0  0  0  0  0  0  0  0  0  0  0
   27.5137  -22.8246  -16.1702 N   0  0  0  0  0  0  0  0  0  0  0  0
   26.9396  -22.4143  -17.4022 C   0  0  0  0  0  0  0  0  0  0  0  0
   27.6367  -22.4010  -18.4838 N   0  0  0  0  0  0  0  0  0  0  0  0
   25.5802  -22.0086  -17.4892 N   0  0  0  0  0  0  0  0  0  0  0  0
   24.7951  -21.8969  -16.3126 C   0  0  0  0  0  0  0  0  0  0  0  0
   23.3682  -21.4444  -16.5307 C   0  0  0  0  0  0  0  0  0  0  0  0
   23.3742  -20.3099  -17.5256 C   0  0  0  0  0  0  0  0  0  0  0  0
   22.0092  -19.8488  -17.9232 C   0  0  2  0  0  0  0  0  0  0  0  0
   21.9639  -18.7738  -18.8410 N   0  0  0  0  0  0  0  0  0  0  0  0
   21.1012  -19.5610  -16.7878 C   0  0  0  0  0  0  0  0  0  0  0  0
   21.3379  -18.6002  -16.0012 O   0  0  0  0  0  0  0  0  0  0  0  0
   27.1961  -22.1718  -19.3792 C   0  0  0  0  0  0  0  0  0  0  0  0
   15.7374  -19.5873  -17.0211 C   0  0  0  0  0  0  0  0  0  0  0  0
   17.2057  -19.3023  -16.6712 C   0  0  2  0  0  0  0  0  0  0  0  0
   17.6759  -20.2660  -15.6166 C   0  0  0  0  0  0  0  0  0  0  0  0
   16.7688  -20.1954  -14.4321 C   0  0  2  0  0  0  0  0  0  0  0  0
   19.1272  -20.0322  -15.3264 N   0  0  0  0  0  0  0  0  0  0  0  0
   19.9398  -20.3198  -16.5150 C   0  0  0  0  0  0  0  0  0  0  0  0
   19.5844  -20.9360  -14.2556 O   0  0  0  0  0  0  0  0  0  0  0  0
   19.2079  -20.7186  -13.0755 O   0  0  0  0  0  0  0  0  0  0  0  0
  2  1  1  6
  2 10  1  0
  3  2  1  0
  3  4  1  0
  4  9  2  0
  4  5  1  0
  5  6  2  0
  6  7  1  0
  8  7  2  0
  9  8  1  0
 10 11  2  0
 13 15  1  0
 13 12  1  0
 14 13  2  0
 16 15  1  0
 16 17  1  0
 19 18  1  1
 18 17  1  0
 20 19  1  0
 20 10  1  0
 21 19  1  0
 21 22  2  0
 23 24  1  0
 24 25  1  0
 25 26  1  6
 27 28  1  1
 27 25  1  0
 28 21  1  0
 29 31  1  0
 29 27  1  0
 30 29  2  0
M  END
$$$$
