FRI.pdb
     RDKit          3D

 31 31  0  0  1  0  0  0  0  0999 V2000
   23.8730  -22.7292  -13.4293 N   0  0  0  0  0  0  0  0  0  0  0  0
   24.3941  -21.4469  -13.0855 C   0  0  1  0  0  0  0  0  0  0  0  0
   23.4111  -20.5119  -12.4434 C   0  0  0  0  0  0  0  0  0  0  0  0
   22.7713  -19.6323  -13.4704 C   0  0  0  0  0  0  0  0  0  0  0  0
   21.4677  -19.9226  -13.8117 C   0  0  0  0  0  0  0  0  0  0  0  0
   20.8108  -19.1535  -14.7548 C   0  0  0  0  0  0  0  0  0  0  0  0
   21.4812  -18.1002  -15.3410 C   0  0  0  0  0  0  0  0  0  0  0  0
   22.7833  -17.8153  -14.9958 C   0  0  0  0  0  0  0  0  0  0  0  0
   23.4492  -18.5723  -14.0588 C   0  0  0  0  0  0  0  0  0  0  0  0
   25.5203  -21.6437  -12.1123 C   0  0  0  0  0  0  0  0  0  0  0  0
   25.4637  -22.5486  -11.2692 O   0  0  0  0  0  0  0  0  0  0  0  0
   32.2719  -23.6636  -13.4182 N   0  0  0  0  0  0  0  0  0  0  0  0
   32.6983  -23.0606  -12.2056 C   0  0  0  0  0  0  0  0  0  0  0  0
   33.6997  -23.5329  -11.5495 N   0  0  0  0  0  0  0  0  0  0  0  0
   32.0427  -21.9170  -11.6744 N   0  0  0  0  0  0  0  0  0  0  0  0
   30.7895  -22.0545  -11.0233 C   0  0  0  0  0  0  0  0  0  0  0  0
   30.1444  -20.7577  -10.5868 C   0  0  0  0  0  0  0  0  0  0  0  0
   29.0328  -20.4288  -11.5527 C   0  0  0  0  0  0  0  0  0  0  0  0
   27.7101  -21.0111  -11.1714 C   0  0  2  0  0  0  0  0  0  0  0  0
   26.6649  -20.8342  -12.1075 N   0  0  0  0  0  0  0  0  0  0  0  0
   27.2310  -20.6216   -9.8241 C   0  0  0  0  0  0  0  0  0  0  0  0
   26.3485  -19.7268   -9.6880 O   0  0  0  0  0  0  0  0  0  0  0  0
   33.9590  -23.1316  -10.6439 C   0  0  0  0  0  0  0  0  0  0  0  0
   29.0658  -20.6902   -3.9256 C   0  0  0  0  0  0  0  0  0  0  0  0
   27.9490  -20.4635   -4.9557 C   0  0  2  0  0  0  0  0  0  0  0  0
   28.4031  -20.9281   -6.3121 C   0  0  0  0  0  0  0  0  0  0  0  0
   29.7399  -20.3388   -6.6227 C   0  0  2  0  0  0  0  0  0  0  0  0
   27.3331  -20.6574   -7.3256 N   0  0  0  0  0  0  0  0  0  0  0  0
   27.7142  -21.2086   -8.6321 C   0  0  0  0  0  0  0  0  0  0  0  0
   27.1527  -19.2050   -7.5001 O   0  0  0  0  0  0  0  0  0  0  0  0
   26.1352  -18.6557   -7.0053 O   0  0  0  0  0  0  0  0  0  0  0  0
  2  1  1  1
  2 10  1  0
  3  2  1  0
  3  4  1  0
  4  9  2  0
  4  5  1  0
  5  6  2  0
  6  7  1  0
  8  7  2  0
  9  8  1  0
 10 11  2  0
 13 15  1  0
 13 12  1  0
 14 13  2  0
 16 15  1  0
 16 17  1  0
 19 18  1  6
 18 17  1  0
 20 19  1  0
 20 10  1  0
 21 19  1  0
 21 22  2  0
 23 24  1  0
 24 25  1  0
 25 26  1  6
 27 28  1  6
 27 25  1  0
 28 21  1  0
 29 31  1  0
 29 27  1  0
 30 29  2  0
M  END
$$$$
