FRI.pdb
     RDKit          3D

 31 31  0  0  1  0  0  0  0  0999 V2000
   28.7228  -20.9039   -9.3397 N   0  0  0  0  0  0  0  0  0  0  0  0
   27.3212  -20.8455   -9.0830 C   0  0  1  0  0  0  0  0  0  0  0  0
   26.8683  -19.6521   -8.2932 C   0  0  0  0  0  0  0  0  0  0  0  0
   27.4180  -19.7001   -6.9028 C   0  0  0  0  0  0  0  0  0  0  0  0
   28.5224  -18.9167   -6.6441 C   0  0  0  0  0  0  0  0  0  0  0  0
   29.0867  -18.9101   -5.3816 C   0  0  0  0  0  0  0  0  0  0  0  0
   28.5267  -19.6963   -4.3964 C   0  0  0  0  0  0  0  0  0  0  0  0
   27.4236  -20.4767   -4.6611 C   0  0  0  0  0  0  0  0  0  0  0  0
   26.8517  -20.4930   -5.9129 C   0  0  0  0  0  0  0  0  0  0  0  0
   26.6041  -20.8033  -10.4014 C   0  0  0  0  0  0  0  0  0  0  0  0
   26.9492  -19.9939  -11.2723 O   0  0  0  0  0  0  0  0  0  0  0  0
   25.3430  -23.7051  -17.0970 N   0  0  0  0  0  0  0  0  0  0  0  0
   25.9727  -24.6270  -16.2198 C   0  0  0  0  0  0  0  0  0  0  0  0
   27.0718  -25.2087  -16.5511 N   0  0  0  0  0  0  0  0  0  0  0  0
   25.4194  -24.9386  -14.9483 N   0  0  0  0  0  0  0  0  0  0  0  0
   24.1707  -24.3865  -14.5619 C   0  0  0  0  0  0  0  0  0  0  0  0
   24.2296  -22.9737  -14.0243 C   0  0  0  0  0  0  0  0  0  0  0  0
   24.8636  -23.0101  -12.6554 C   0  0  0  0  0  0  0  0  0  0  0  0
   24.9266  -21.6763  -11.9840 C   0  0  2  0  0  0  0  0  0  0  0  0
   25.5342  -21.6561  -10.7071 N   0  0  0  0  0  0  0  0  0  0  0  0
   23.6325  -20.9565  -11.9212 C   0  0  0  0  0  0  0  0  0  0  0  0
   22.9503  -20.9496  -10.8570 O   0  0  0  0  0  0  0  0  0  0  0  0
   27.4754  -25.9315  -15.9485 C   0  0  0  0  0  0  0  0  0  0  0  0
   20.1389  -16.7681  -14.8698 C   0  0  0  0  0  0  0  0  0  0  0  0
   20.2837  -17.8727  -13.8122 C   0  0  2  0  0  0  0  0  0  0  0  0
   21.6121  -18.5601  -13.9702 C   0  0  0  0  0  0  0  0  0  0  0  0
   21.7567  -19.0563  -15.3715 C   0  0  2  0  0  0  0  0  0  0  0  0
   21.7756  -19.5993  -12.9031 N   0  0  0  0  0  0  0  0  0  0  0  0
   23.0882  -20.2475  -13.0166 C   0  0  0  0  0  0  0  0  0  0  0  0
   20.7544  -20.6512  -13.0558 O   0  0  0  0  0  0  0  0  0  0  0  0
   21.0089  -21.6431  -13.7858 O   0  0  0  0  0  0  0  0  0  0  0  0
  2  1  1  6
  2 10  1  0
  3  2  1  0
  3  4  1  0
  4  9  2  0
  4  5  1  0
  5  6  2  0
  6  7  1  0
  8  7  2  0
  9  8  1  0
 10 11  2  0
 13 15  1  0
 13 12  1  0
 14 13  2  0
 16 15  1  0
 16 17  1  0
 19 18  1  1
 18 17  1  0
 20 19  1  0
 20 10  1  0
 21 19  1  0
 21 22  2  0
 23 24  1  0
 24 25  1  0
 25 26  1  1
 27 28  1  6
 27 25  1  0
 28 21  1  0
 29 31  1  0
 29 27  1  0
 30 29  2  0
M  END
$$$$
