EHA.pdb
     RDKit          3D

 25 25  0  0  1  0  0  0  0  0999 V2000
   12.1810  -16.9694   20.0542 N   0  0  0  0  0  0  0  0  0  0  0  0
   11.8013  -17.4341   21.3944 C   0  0  1  0  0  0  0  0  0  0  0  0
   12.9815  -18.1325   21.9517 C   0  0  0  0  0  0  0  0  0  0  0  0
   13.2372  -19.5051   21.4036 C   0  0  0  0  0  0  0  0  0  0  0  0
   14.3522  -20.1664   22.1022 C   0  0  0  0  0  0  0  0  0  0  0  0
   14.2154  -20.6240   23.2611 O   0  0  0  0  0  0  0  0  0  0  0  0
   11.2619  -16.3236   22.2019 C   0  0  0  0  0  0  0  0  0  0  0  0
   11.8193  -15.2009   22.2672 O   0  0  0  0  0  0  0  0  0  0  0  0
   15.5997  -20.2987   21.4798 O   0  0  0  0  0  0  0  0  0  0  0  0
   10.0576  -16.4441   22.9746 N   0  0  0  0  0  0  0  0  0  0  0  0
    9.4936  -15.3697   23.7652 C   0  0  1  0  0  0  0  0  0  0  0  0
    8.0026  -15.2637   23.5460 C   0  0  0  0  0  0  0  0  0  0  0  0
    7.6538  -14.6417   22.2557 C   0  0  0  0  0  0  0  0  0  0  0  0
    8.5414  -14.1791   21.3182 C   0  0  0  0  0  0  0  0  0  0  0  0
    7.8105  -13.6880   20.2897 N   0  0  0  0  0  0  0  0  0  0  0  0
    6.5162  -13.8282   20.5535 C   0  0  0  0  0  0  0  0  0  0  0  0
    6.4297  -14.4136   21.7601 N   0  0  0  0  0  0  0  0  0  0  0  0
    9.9077  -15.5463   25.1542 C   0  0  0  0  0  0  0  0  0  0  0  0
   10.3450  -16.6683   25.5799 O   0  0  0  0  0  0  0  0  0  0  0  0
   10.0069  -13.4538   28.2816 C   0  0  0  0  0  0  0  0  0  0  0  0
   10.2922  -14.7549   27.5145 C   0  0  2  0  0  0  0  0  0  0  0  0
    9.8685  -14.5124   26.1516 N   0  0  0  0  0  0  0  0  0  0  0  0
    9.4666  -15.8340   28.0870 C   0  0  0  0  0  0  0  0  0  0  0  0
    8.3391  -16.1290   27.6003 O   0  0  0  0  0  0  0  0  0  0  0  0
    9.8999  -16.5618   29.1780 O   0  0  0  0  0  0  0  0  0  0  0  0
  2  1  1  6
  2  7  1  0
  3  2  1  0
  4  3  1  0
  4  5  1  0
  5  9  1  0
  5  6  2  0
  7  8  2  0
  7 10  1  0
 10 11  1  0
 11 18  1  0
 11 12  1  1
 13 12  1  0
 13 14  2  0
 15 14  1  0
 16 15  1  0
 17 16  2  0
 17 13  1  0
 18 19  2  0
 21 20  1  1
 22 21  1  0
 22 18  1  0
 23 21  1  0
 23 25  1  0
 24 23  2  0
M  END
$$$$
