EHA.pdb
     RDKit          3D

 25 25  0  0  1  0  0  0  0  0999 V2000
   11.1805  -17.4695   17.7553 N   0  0  0  0  0  0  0  0  0  0  0  0
   12.0384  -16.2785   17.7937 C   0  0  1  0  0  0  0  0  0  0  0  0
   12.0143  -15.6939   16.4340 C   0  0  0  0  0  0  0  0  0  0  0  0
   11.9051  -16.6805   15.3094 C   0  0  0  0  0  0  0  0  0  0  0  0
   11.9185  -16.0091   13.9989 C   0  0  0  0  0  0  0  0  0  0  0  0
   12.9851  -15.8461   13.3610 O   0  0  0  0  0  0  0  0  0  0  0  0
   11.6409  -15.3803   18.8944 C   0  0  0  0  0  0  0  0  0  0  0  0
   12.2681  -14.3288   19.1704 O   0  0  0  0  0  0  0  0  0  0  0  0
   10.7283  -15.5350   13.4333 O   0  0  0  0  0  0  0  0  0  0  0  0
   10.5053  -15.6421   19.7334 N   0  0  0  0  0  0  0  0  0  0  0  0
   10.0694  -14.7652   20.8005 C   0  0  1  0  0  0  0  0  0  0  0  0
    8.6162  -14.3891   20.6301 C   0  0  0  0  0  0  0  0  0  0  0  0
    8.3050  -13.8949   19.2764 C   0  0  0  0  0  0  0  0  0  0  0  0
    8.3101  -12.5830   18.8766 C   0  0  0  0  0  0  0  0  0  0  0  0
    7.9706  -12.5675   17.5660 N   0  0  0  0  0  0  0  0  0  0  0  0
    7.7577  -13.8088   17.1441 C   0  0  0  0  0  0  0  0  0  0  0  0
    7.9649  -14.6156   18.1988 N   0  0  0  0  0  0  0  0  0  0  0  0
   10.4065  -15.3842   22.0792 C   0  0  0  0  0  0  0  0  0  0  0  0
    9.5124  -15.9305   22.8095 O   0  0  0  0  0  0  0  0  0  0  0  0
   11.5504  -17.6353   23.5413 C   0  0  0  0  0  0  0  0  0  0  0  0
   12.0268  -16.2019   23.8260 C   0  0  2  0  0  0  0  0  0  0  0  0
   11.7329  -15.4418   22.6295 N   0  0  0  0  0  0  0  0  0  0  0  0
   13.4861  -16.2195   24.0350 C   0  0  0  0  0  0  0  0  0  0  0  0
   14.2795  -15.7350   23.1800 O   0  0  0  0  0  0  0  0  0  0  0  0
   14.0370  -16.7677   25.1768 O   0  0  0  0  0  0  0  0  0  0  0  0
  2  1  1  6
  2  7  1  0
  3  2  1  0
  4  3  1  0
  4  5  1  0
  5  9  1  0
  5  6  2  0
  7  8  2  0
  7 10  1  0
 10 11  1  0
 11 18  1  0
 11 12  1  1
 13 12  1  0
 13 14  2  0
 15 14  1  0
 16 15  1  0
 17 16  2  0
 17 13  1  0
 18 19  2  0
 21 20  1  6
 22 21  1  0
 22 18  1  0
 23 21  1  0
 23 25  1  0
 24 23  2  0
M  END
$$$$
