EHA.pdb
     RDKit          3D

 25 25  0  0  1  0  0  0  0  0999 V2000
   12.8866  -18.5649   15.2642 N   0  0  0  0  0  0  0  0  0  0  0  0
   13.2427  -18.7467   16.6770 C   0  0  1  0  0  0  0  0  0  0  0  0
   14.4963  -17.9916   16.8994 C   0  0  0  0  0  0  0  0  0  0  0  0
   15.6978  -18.5043   16.1621 C   0  0  0  0  0  0  0  0  0  0  0  0
   16.9118  -17.7505   16.5178 C   0  0  0  0  0  0  0  0  0  0  0  0
   17.5065  -17.0377   15.6755 O   0  0  0  0  0  0  0  0  0  0  0  0
   12.1089  -18.3967   17.5535 C   0  0  0  0  0  0  0  0  0  0  0  0
   11.2790  -17.5013   17.2621 O   0  0  0  0  0  0  0  0  0  0  0  0
   17.4312  -17.8154   17.8167 O   0  0  0  0  0  0  0  0  0  0  0  0
   11.8697  -19.0548   18.8071 N   0  0  0  0  0  0  0  0  0  0  0  0
   10.7944  -18.7043   19.7118 C   0  0  1  0  0  0  0  0  0  0  0  0
    9.9352  -19.9079   20.0207 C   0  0  0  0  0  0  0  0  0  0  0  0
    8.9998  -20.2417   18.9311 C   0  0  0  0  0  0  0  0  0  0  0  0
    8.4274  -19.3511   18.0595 C   0  0  0  0  0  0  0  0  0  0  0  0
    7.6397  -20.0670   17.2227 N   0  0  0  0  0  0  0  0  0  0  0  0
    7.7029  -21.3550   17.5412 C   0  0  0  0  0  0  0  0  0  0  0  0
    8.5387  -21.4527   18.5891 N   0  0  0  0  0  0  0  0  0  0  0  0
   11.3649  -18.0315   20.8753 C   0  0  0  0  0  0  0  0  0  0  0  0
   12.5265  -18.3316   21.3133 O   0  0  0  0  0  0  0  0  0  0  0  0
   10.3958  -15.2383   23.1992 C   0  0  0  0  0  0  0  0  0  0  0  0
   11.2872  -16.4315   22.8193 C   0  0  2  0  0  0  0  0  0  0  0  0
   10.7026  -16.9974   21.6219 N   0  0  0  0  0  0  0  0  0  0  0  0
   11.2265  -17.4323   23.9002 C   0  0  0  0  0  0  0  0  0  0  0  0
   10.4805  -18.4480   23.8157 O   0  0  0  0  0  0  0  0  0  0  0  0
   11.9862  -17.2931   25.0453 O   0  0  0  0  0  0  0  0  0  0  0  0
  2  1  1  6
  2  7  1  0
  3  2  1  0
  4  3  1  0
  4  5  1  0
  5  9  1  0
  5  6  2  0
  7  8  2  0
  7 10  1  0
 10 11  1  0
 11 18  1  0
 11 12  1  1
 13 12  1  0
 13 14  2  0
 15 14  1  0
 16 15  1  0
 17 16  2  0
 17 13  1  0
 18 19  2  0
 21 20  1  1
 22 21  1  0
 22 18  1  0
 23 21  1  0
 23 25  1  0
 24 23  2  0
M  END
$$$$
