EHA.pdb
     RDKit          3D

 25 25  0  0  1  0  0  0  0  0999 V2000
   10.3553  -19.3090   17.5635 N   0  0  0  0  0  0  0  0  0  0  0  0
   11.5425  -18.5680   18.0077 C   0  0  1  0  0  0  0  0  0  0  0  0
   12.1816  -18.0206   16.7898 C   0  0  0  0  0  0  0  0  0  0  0  0
   11.2563  -17.3365   15.8276 C   0  0  0  0  0  0  0  0  0  0  0  0
   11.6625  -17.5674   14.4312 C   0  0  0  0  0  0  0  0  0  0  0  0
   11.0162  -18.3384   13.6834 O   0  0  0  0  0  0  0  0  0  0  0  0
   11.1896  -17.5884   19.0527 C   0  0  0  0  0  0  0  0  0  0  0  0
   12.0375  -16.8320   19.5859 O   0  0  0  0  0  0  0  0  0  0  0  0
   12.7896  -16.9238   13.9053 O   0  0  0  0  0  0  0  0  0  0  0  0
    9.8482  -17.4267   19.5387 N   0  0  0  0  0  0  0  0  0  0  0  0
    9.4864  -16.5572   20.6391 C   0  0  1  0  0  0  0  0  0  0  0  0
    8.1470  -15.9034   20.3923 C   0  0  0  0  0  0  0  0  0  0  0  0
    8.2601  -14.4770   20.0372 C   0  0  0  0  0  0  0  0  0  0  0  0
    7.9767  -13.4170   20.8599 C   0  0  0  0  0  0  0  0  0  0  0  0
    8.2122  -12.2897   20.1479 N   0  0  0  0  0  0  0  0  0  0  0  0
    8.6268  -12.6097   18.9273 C   0  0  0  0  0  0  0  0  0  0  0  0
    8.6531  -13.9520   18.8684 N   0  0  0  0  0  0  0  0  0  0  0  0
    9.5902  -17.3133   21.8839 C   0  0  0  0  0  0  0  0  0  0  0  0
    8.9906  -18.4309   22.0349 O   0  0  0  0  0  0  0  0  0  0  0  0
   11.1597  -19.0018   23.7900 C   0  0  0  0  0  0  0  0  0  0  0  0
   10.4449  -17.7107   24.2199 C   0  0  2  0  0  0  0  0  0  0  0  0
   10.3518  -16.8939   23.0283 N   0  0  0  0  0  0  0  0  0  0  0  0
   11.2816  -17.0134   25.2135 C   0  0  0  0  0  0  0  0  0  0  0  0
   11.9075  -15.9560   24.9211 O   0  0  0  0  0  0  0  0  0  0  0  0
   11.4093  -17.4938   26.5022 O   0  0  0  0  0  0  0  0  0  0  0  0
  2  1  1  6
  2  7  1  0
  3  2  1  0
  4  3  1  0
  4  5  1  0
  5  9  1  0
  5  6  2  0
  7  8  2  0
  7 10  1  0
 10 11  1  0
 11 18  1  0
 11 12  1  6
 13 12  1  0
 13 14  2  0
 15 14  1  0
 16 15  1  0
 17 16  2  0
 17 13  1  0
 18 19  2  0
 21 20  1  6
 22 21  1  0
 22 18  1  0
 23 21  1  0
 23 25  1  0
 24 23  2  0
M  END
$$$$
