EHA.pdb
     RDKit          3D

 25 25  0  0  1  0  0  0  0  0999 V2000
    9.6641  -16.4058   20.6291 N   0  0  0  0  0  0  0  0  0  0  0  0
    8.3704  -15.7262   20.4867 C   0  0  1  0  0  0  0  0  0  0  0  0
    7.6786  -16.3653   19.3446 C   0  0  0  0  0  0  0  0  0  0  0  0
    8.4620  -17.4238   18.6263 C   0  0  0  0  0  0  0  0  0  0  0  0
    7.6748  -18.0363   17.5429 C   0  0  0  0  0  0  0  0  0  0  0  0
    7.0451  -19.1057   17.7193 O   0  0  0  0  0  0  0  0  0  0  0  0
    7.6382  -15.7170   21.7673 C   0  0  0  0  0  0  0  0  0  0  0  0
    6.4617  -15.2924   21.8717 O   0  0  0  0  0  0  0  0  0  0  0  0
    7.6130  -17.4304   16.2819 O   0  0  0  0  0  0  0  0  0  0  0  0
    8.2173  -16.1938   22.9918 N   0  0  0  0  0  0  0  0  0  0  0  0
    7.5543  -16.1308   24.2778 C   0  0  1  0  0  0  0  0  0  0  0  0
    7.7530  -17.4135   25.0508 C   0  0  0  0  0  0  0  0  0  0  0  0
    6.9786  -18.5416   24.5019 C   0  0  0  0  0  0  0  0  0  0  0  0
    6.0069  -18.4584   23.5377 C   0  0  0  0  0  0  0  0  0  0  0  0
    5.5524  -19.7158   23.3245 N   0  0  0  0  0  0  0  0  0  0  0  0
    6.2004  -20.5657   24.1133 C   0  0  0  0  0  0  0  0  0  0  0  0
    7.0723  -19.8373   24.8311 N   0  0  0  0  0  0  0  0  0  0  0  0
    7.9848  -14.9167   24.9651 C   0  0  0  0  0  0  0  0  0  0  0  0
    9.2172  -14.5861   25.0213 O   0  0  0  0  0  0  0  0  0  0  0  0
    6.3709  -11.9987   26.6968 C   0  0  0  0  0  0  0  0  0  0  0  0
    7.5978  -12.8687   26.3797 C   0  0  2  0  0  0  0  0  0  0  0  0
    7.0979  -13.9991   25.6260 N   0  0  0  0  0  0  0  0  0  0  0  0
    8.1744  -13.3556   27.6462 C   0  0  0  0  0  0  0  0  0  0  0  0
    8.0165  -14.5501   28.0251 O   0  0  0  0  0  0  0  0  0  0  0  0
    8.9097  -12.5197   28.4637 O   0  0  0  0  0  0  0  0  0  0  0  0
  2  1  1  1
  2  7  1  0
  3  2  1  0
  4  3  1  0
  4  5  1  0
  5  9  1  0
  5  6  2  0
  7  8  2  0
  7 10  1  0
 10 11  1  0
 11 18  1  0
 11 12  1  1
 13 12  1  0
 13 14  2  0
 15 14  1  0
 16 15  1  0
 17 16  2  0
 17 13  1  0
 18 19  2  0
 21 20  1  1
 22 21  1  0
 22 18  1  0
 23 21  1  0
 23 25  1  0
 24 23  2  0
M  END
$$$$
