EHA.pdb
     RDKit          3D

 25 25  0  0  1  0  0  0  0  0999 V2000
   11.6738  -18.3131   20.6312 N   0  0  0  0  0  0  0  0  0  0  0  0
   12.6591  -17.3174   21.0713 C   0  0  1  0  0  0  0  0  0  0  0  0
   13.3085  -16.7935   19.8485 C   0  0  0  0  0  0  0  0  0  0  0  0
   13.6836  -17.8241   18.8252 C   0  0  0  0  0  0  0  0  0  0  0  0
   14.3110  -17.2085   17.6438 C   0  0  0  0  0  0  0  0  0  0  0  0
   13.6448  -16.9441   16.6154 O   0  0  0  0  0  0  0  0  0  0  0  0
   12.0341  -16.3153   21.9554 C   0  0  0  0  0  0  0  0  0  0  0  0
   12.6434  -15.2952   22.3596 O   0  0  0  0  0  0  0  0  0  0  0  0
   15.6777  -16.9030   17.6454 O   0  0  0  0  0  0  0  0  0  0  0  0
   10.6806  -16.4323   22.4201 N   0  0  0  0  0  0  0  0  0  0  0  0
   10.0201  -15.4405   23.2434 C   0  0  1  0  0  0  0  0  0  0  0  0
    8.5681  -15.2949   22.8525 C   0  0  0  0  0  0  0  0  0  0  0  0
    8.3882  -14.6548   21.5366 C   0  0  0  0  0  0  0  0  0  0  0  0
    9.3874  -14.1609   20.7376 C   0  0  0  0  0  0  0  0  0  0  0  0
    8.7956  -13.6625   19.6265 N   0  0  0  0  0  0  0  0  0  0  0  0
    7.4802  -13.8280   19.7076 C   0  0  0  0  0  0  0  0  0  0  0  0
    7.2397  -14.4369   20.8813 N   0  0  0  0  0  0  0  0  0  0  0  0
   10.2573  -15.7670   24.6466 C   0  0  0  0  0  0  0  0  0  0  0  0
   10.5378  -16.9577   25.0139 O   0  0  0  0  0  0  0  0  0  0  0  0
   10.2204  -13.9389   27.9379 C   0  0  0  0  0  0  0  0  0  0  0  0
   10.4061  -15.2139   27.0996 C   0  0  2  0  0  0  0  0  0  0  0  0
   10.2026  -14.8159   25.7227 N   0  0  0  0  0  0  0  0  0  0  0  0
    9.3628  -16.1853   27.4758 C   0  0  0  0  0  0  0  0  0  0  0  0
    8.2972  -16.2988   26.8074 O   0  0  0  0  0  0  0  0  0  0  0  0
    9.5160  -17.0073   28.5752 O   0  0  0  0  0  0  0  0  0  0  0  0
  2  1  1  6
  2  7  1  0
  3  2  1  0
  4  3  1  0
  4  5  1  0
  5  9  1  0
  5  6  2  0
  7  8  2  0
  7 10  1  0
 10 11  1  0
 11 18  1  0
 11 12  1  1
 13 12  1  0
 13 14  2  0
 15 14  1  0
 16 15  1  0
 17 16  2  0
 17 13  1  0
 18 19  2  0
 21 20  1  1
 22 21  1  0
 22 18  1  0
 23 21  1  0
 23 25  1  0
 24 23  2  0
M  END
$$$$
