EHA.pdb
     RDKit          3D

 25 25  0  0  1  0  0  0  0  0999 V2000
   10.4159  -18.9659   20.0074 N   0  0  0  0  0  0  0  0  0  0  0  0
   11.5357  -18.0766   20.3407 C   0  0  1  0  0  0  0  0  0  0  0  0
   12.1996  -17.7328   19.0631 C   0  0  0  0  0  0  0  0  0  0  0  0
   11.8331  -18.5965   17.8928 C   0  0  0  0  0  0  0  0  0  0  0  0
   12.5716  -18.2048   16.6805 C   0  0  0  0  0  0  0  0  0  0  0  0
   13.6996  -17.6627   16.7511 O   0  0  0  0  0  0  0  0  0  0  0  0
   11.0771  -16.9397   21.1614 C   0  0  0  0  0  0  0  0  0  0  0  0
   11.8392  -16.0054   21.5101 O   0  0  0  0  0  0  0  0  0  0  0  0
   12.0233  -18.4324   15.4121 O   0  0  0  0  0  0  0  0  0  0  0  0
    9.7230  -16.8167   21.6230 N   0  0  0  0  0  0  0  0  0  0  0  0
    9.2391  -15.7105   22.4229 C   0  0  1  0  0  0  0  0  0  0  0  0
    7.9330  -15.1815   21.8782 C   0  0  0  0  0  0  0  0  0  0  0  0
    8.0853  -14.5004   20.5796 C   0  0  0  0  0  0  0  0  0  0  0  0
    9.2676  -14.2725   19.9230 C   0  0  0  0  0  0  0  0  0  0  0  0
    8.9635  -13.6240   18.7741 N   0  0  0  0  0  0  0  0  0  0  0  0
    7.6498  -13.4439   18.6961 C   0  0  0  0  0  0  0  0  0  0  0  0
    7.1199  -13.9841   19.8066 N   0  0  0  0  0  0  0  0  0  0  0  0
    9.2072  -16.1262   23.8222 C   0  0  0  0  0  0  0  0  0  0  0  0
    8.5338  -17.1443   24.1981 O   0  0  0  0  0  0  0  0  0  0  0  0
    8.1462  -15.8168   26.4496 C   0  0  0  0  0  0  0  0  0  0  0  0
    9.6730  -15.7885   26.2746 C   0  0  2  0  0  0  0  0  0  0  0  0
    9.9064  -15.4572   24.8848 N   0  0  0  0  0  0  0  0  0  0  0  0
   10.2063  -17.1369   26.5408 C   0  0  0  0  0  0  0  0  0  0  0  0
   10.6070  -17.8832   25.6040 O   0  0  0  0  0  0  0  0  0  0  0  0
   10.2866  -17.6313   27.8281 O   0  0  0  0  0  0  0  0  0  0  0  0
  2  1  1  6
  2  7  1  0
  3  2  1  0
  4  3  1  0
  4  5  1  0
  5  9  1  0
  5  6  2  0
  7  8  2  0
  7 10  1  0
 10 11  1  0
 11 18  1  0
 11 12  1  6
 13 12  1  0
 13 14  2  0
 15 14  1  0
 16 15  1  0
 17 16  2  0
 17 13  1  0
 18 19  2  0
 21 20  1  6
 22 21  1  0
 22 18  1  0
 23 21  1  0
 23 25  1  0
 24 23  2  0
M  END
$$$$
