EHA.pdb
     RDKit          3D

 25 25  0  0  1  0  0  0  0  0999 V2000
   12.3786  -19.4177   16.5936 N   0  0  0  0  0  0  0  0  0  0  0  0
   12.3608  -20.6913   17.3240 C   0  0  1  0  0  0  0  0  0  0  0  0
   13.7735  -21.0638   17.5622 C   0  0  0  0  0  0  0  0  0  0  0  0
   14.5241  -20.1753   18.5094 C   0  0  0  0  0  0  0  0  0  0  0  0
   15.9105  -20.6347   18.6968 C   0  0  0  0  0  0  0  0  0  0  0  0
   16.8422  -20.2061   17.9760 O   0  0  0  0  0  0  0  0  0  0  0  0
   11.5025  -20.5988   18.5202 C   0  0  0  0  0  0  0  0  0  0  0  0
   11.1488  -19.5016   19.0165 O   0  0  0  0  0  0  0  0  0  0  0  0
   16.2191  -21.5685   19.6938 O   0  0  0  0  0  0  0  0  0  0  0  0
   11.0069  -21.7583   19.2071 N   0  0  0  0  0  0  0  0  0  0  0  0
   10.0594  -21.7062   20.3012 C   0  0  1  0  0  0  0  0  0  0  0  0
    9.0725  -22.8468   20.2151 C   0  0  0  0  0  0  0  0  0  0  0  0
    8.0604  -22.6532   19.1606 C   0  0  0  0  0  0  0  0  0  0  0  0
    7.5609  -21.4492   18.7345 C   0  0  0  0  0  0  0  0  0  0  0  0
    6.6610  -21.7171   17.7590 N   0  0  0  0  0  0  0  0  0  0  0  0
    6.5859  -23.0294   17.5676 C   0  0  0  0  0  0  0  0  0  0  0  0
    7.4469  -23.5950   18.4307 N   0  0  0  0  0  0  0  0  0  0  0  0
   10.8008  -21.6178   21.5559 C   0  0  0  0  0  0  0  0  0  0  0  0
   11.8929  -22.2570   21.7291 O   0  0  0  0  0  0  0  0  0  0  0  0
   10.8048  -19.4970   24.6184 C   0  0  0  0  0  0  0  0  0  0  0  0
   11.1520  -20.8214   23.9197 C   0  0  2  0  0  0  0  0  0  0  0  0
   10.3937  -20.8295   22.6866 N   0  0  0  0  0  0  0  0  0  0  0  0
   10.6978  -21.9386   24.7677 C   0  0  0  0  0  0  0  0  0  0  0  0
   11.3325  -22.2775   25.8057 O   0  0  0  0  0  0  0  0  0  0  0  0
    9.5586  -22.6545   24.4553 O   0  0  0  0  0  0  0  0  0  0  0  0
  2  1  1  1
  2  7  1  0
  3  2  1  0
  4  3  1  0
  4  5  1  0
  5  9  1  0
  5  6  2  0
  7  8  2  0
  7 10  1  0
 10 11  1  0
 11 18  1  0
 11 12  1  1
 13 12  1  0
 13 14  2  0
 15 14  1  0
 16 15  1  0
 17 16  2  0
 17 13  1  0
 18 19  2  0
 21 20  1  1
 22 21  1  0
 22 18  1  0
 23 21  1  0
 23 25  1  0
 24 23  2  0
M  END
$$$$
