EHA.pdb
     RDKit          3D

 25 25  0  0  1  0  0  0  0  0999 V2000
   10.9980  -18.5634   21.6182 N   0  0  0  0  0  0  0  0  0  0  0  0
   11.9952  -17.5060   21.8263 C   0  0  1  0  0  0  0  0  0  0  0  0
   12.4557  -17.0865   20.4834 C   0  0  0  0  0  0  0  0  0  0  0  0
   12.8129  -18.2020   19.5463 C   0  0  0  0  0  0  0  0  0  0  0  0
   14.0410  -17.9008   18.7917 C   0  0  0  0  0  0  0  0  0  0  0  0
   13.9949  -17.3747   17.6549 O   0  0  0  0  0  0  0  0  0  0  0  0
   11.4567  -16.4392   22.6912 C   0  0  0  0  0  0  0  0  0  0  0  0
   12.1058  -15.4020   22.9709 O   0  0  0  0  0  0  0  0  0  0  0  0
   15.2972  -18.1987   19.3341 O   0  0  0  0  0  0  0  0  0  0  0  0
   10.1482  -16.5076   23.2786 N   0  0  0  0  0  0  0  0  0  0  0  0
    9.5696  -15.4554   24.0884 C   0  0  1  0  0  0  0  0  0  0  0  0
    8.0705  -15.4001   23.9104 C   0  0  0  0  0  0  0  0  0  0  0  0
    7.6671  -14.9195   22.5763 C   0  0  0  0  0  0  0  0  0  0  0  0
    8.3723  -14.0478   21.7867 C   0  0  0  0  0  0  0  0  0  0  0  0
    7.6547  -13.8725   20.6520 N   0  0  0  0  0  0  0  0  0  0  0  0
    6.5424  -14.5964   20.7097 C   0  0  0  0  0  0  0  0  0  0  0  0
    6.5585  -15.2346   21.8923 N   0  0  0  0  0  0  0  0  0  0  0  0
   10.0275  -15.6216   25.4648 C   0  0  0  0  0  0  0  0  0  0  0  0
   10.5200  -16.7272   25.8726 O   0  0  0  0  0  0  0  0  0  0  0  0
   10.2239  -13.5112   28.5759 C   0  0  0  0  0  0  0  0  0  0  0  0
   10.5656  -14.7792   27.7770 C   0  0  2  0  0  0  0  0  0  0  0  0
    9.9742  -14.5944   26.4686 N   0  0  0  0  0  0  0  0  0  0  0  0
    9.9290  -15.9375   28.4301 C   0  0  0  0  0  0  0  0  0  0  0  0
    8.8093  -16.3771   28.0453 O   0  0  0  0  0  0  0  0  0  0  0  0
   10.5379  -16.5839   29.4881 O   0  0  0  0  0  0  0  0  0  0  0  0
  2  1  1  6
  2  7  1  0
  3  2  1  0
  4  3  1  0
  4  5  1  0
  5  9  1  0
  5  6  2  0
  7  8  2  0
  7 10  1  0
 10 11  1  0
 11 18  1  0
 11 12  1  1
 13 12  1  0
 13 14  2  0
 15 14  1  0
 16 15  1  0
 17 16  2  0
 17 13  1  0
 18 19  2  0
 21 20  1  1
 22 21  1  0
 22 18  1  0
 23 21  1  0
 23 25  1  0
 24 23  2  0
M  END
$$$$
