EHA.pdb
     RDKit          3D

 25 25  0  0  1  0  0  0  0  0999 V2000
   12.1752  -16.6324   20.1091 N   0  0  0  0  0  0  0  0  0  0  0  0
   11.1785  -17.0714   21.0939 C   0  0  1  0  0  0  0  0  0  0  0  0
   11.8765  -17.9858   22.0255 C   0  0  0  0  0  0  0  0  0  0  0  0
   13.3367  -18.1938   21.7525 C   0  0  0  0  0  0  0  0  0  0  0  0
   13.9468  -19.1004   22.7395 C   0  0  0  0  0  0  0  0  0  0  0  0
   14.1407  -20.3113   22.4798 O   0  0  0  0  0  0  0  0  0  0  0  0
   10.4998  -15.9136   21.7062 C   0  0  0  0  0  0  0  0  0  0  0  0
   11.1261  -14.9357   22.1826 O   0  0  0  0  0  0  0  0  0  0  0  0
   14.3265  -18.6235   24.0002 O   0  0  0  0  0  0  0  0  0  0  0  0
    9.0704  -15.8184   21.8032 N   0  0  0  0  0  0  0  0  0  0  0  0
    8.3748  -14.7195   22.4406 C   0  0  1  0  0  0  0  0  0  0  0  0
    7.2347  -14.2301   21.5787 C   0  0  0  0  0  0  0  0  0  0  0  0
    7.6580  -13.8766   20.2115 C   0  0  0  0  0  0  0  0  0  0  0  0
    8.0750  -12.6394   19.7916 C   0  0  0  0  0  0  0  0  0  0  0  0
    8.3693  -12.7470   18.4744 N   0  0  0  0  0  0  0  0  0  0  0  0
    8.1520  -13.9926   18.0676 C   0  0  0  0  0  0  0  0  0  0  0  0
    7.7164  -14.6777   19.1386 N   0  0  0  0  0  0  0  0  0  0  0  0
    8.0031  -15.1252   23.7931 C   0  0  0  0  0  0  0  0  0  0  0  0
    7.2417  -14.4008   24.5188 O   0  0  0  0  0  0  0  0  0  0  0  0
    6.9035  -17.7039   25.6327 C   0  0  0  0  0  0  0  0  0  0  0  0
    8.0400  -16.6789   25.7755 C   0  0  2  0  0  0  0  0  0  0  0  0
    8.4394  -16.3395   24.4260 N   0  0  0  0  0  0  0  0  0  0  0  0
    9.1750  -17.3216   26.4628 C   0  0  0  0  0  0  0  0  0  0  0  0
    9.0848  -17.7092   27.6614 O   0  0  0  0  0  0  0  0  0  0  0  0
   10.3793  -17.5229   25.8169 O   0  0  0  0  0  0  0  0  0  0  0  0
  2  1  1  6
  2  7  1  0
  3  2  1  0
  4  3  1  0
  4  5  1  0
  5  9  1  0
  5  6  2  0
  7  8  2  0
  7 10  1  0
 10 11  1  0
 11 18  1  0
 11 12  1  6
 13 12  1  0
 13 14  2  0
 15 14  1  0
 16 15  1  0
 17 16  2  0
 17 13  1  0
 18 19  2  0
 21 20  1  6
 22 21  1  0
 22 18  1  0
 23 21  1  0
 23 25  1  0
 24 23  2  0
M  END
$$$$
