EHA.pdb
     RDKit          3D

 25 25  0  0  1  0  0  0  0  0999 V2000
    9.6497  -18.2753   20.5168 N   0  0  0  0  0  0  0  0  0  0  0  0
   10.7326  -17.3193   20.7801 C   0  0  1  0  0  0  0  0  0  0  0  0
   11.4693  -17.1512   19.5072 C   0  0  0  0  0  0  0  0  0  0  0  0
   10.6449  -17.2888   18.2616 C   0  0  0  0  0  0  0  0  0  0  0  0
   11.3961  -17.9616   17.1885 C   0  0  0  0  0  0  0  0  0  0  0  0
   12.6136  -18.2317   17.3157 O   0  0  0  0  0  0  0  0  0  0  0  0
   10.2061  -16.0855   21.3940 C   0  0  0  0  0  0  0  0  0  0  0  0
   10.9434  -15.1235   21.7201 O   0  0  0  0  0  0  0  0  0  0  0  0
   10.7594  -18.3169   15.9930 O   0  0  0  0  0  0  0  0  0  0  0  0
    8.8093  -15.8926   21.6648 N   0  0  0  0  0  0  0  0  0  0  0  0
    8.2591  -14.6907   22.2567 C   0  0  1  0  0  0  0  0  0  0  0  0
    7.1071  -14.1628   21.4343 C   0  0  0  0  0  0  0  0  0  0  0  0
    7.4791  -13.8855   20.0349 C   0  0  0  0  0  0  0  0  0  0  0  0
    8.0391  -12.7253   19.5648 C   0  0  0  0  0  0  0  0  0  0  0  0
    8.2208  -12.8851   18.2326 N   0  0  0  0  0  0  0  0  0  0  0  0
    7.7982  -14.0893   17.8646 C   0  0  0  0  0  0  0  0  0  0  0  0
    7.3454  -14.6953   18.9754 N   0  0  0  0  0  0  0  0  0  0  0  0
    7.9513  -14.9604   23.6583 C   0  0  0  0  0  0  0  0  0  0  0  0
    7.0252  -14.3276   24.2692 O   0  0  0  0  0  0  0  0  0  0  0  0
    6.8636  -17.0318   25.6226 C   0  0  0  0  0  0  0  0  0  0  0  0
    8.1815  -16.2615   25.8029 C   0  0  2  0  0  0  0  0  0  0  0  0
    8.6338  -15.9323   24.4677 N   0  0  0  0  0  0  0  0  0  0  0  0
    9.1697  -17.1536   26.4362 C   0  0  0  0  0  0  0  0  0  0  0  0
    9.0112  -17.5810   27.6141 O   0  0  0  0  0  0  0  0  0  0  0  0
   10.3059  -17.5541   25.7605 O   0  0  0  0  0  0  0  0  0  0  0  0
  2  1  1  6
  2  7  1  0
  3  2  1  0
  4  3  1  0
  4  5  1  0
  5  9  1  0
  5  6  2  0
  7  8  2  0
  7 10  1  0
 10 11  1  0
 11 18  1  0
 11 12  1  6
 13 12  1  0
 13 14  2  0
 15 14  1  0
 16 15  1  0
 17 16  2  0
 17 13  1  0
 18 19  2  0
 21 20  1  6
 22 21  1  0
 22 18  1  0
 23 21  1  0
 23 25  1  0
 24 23  2  0
M  END
$$$$
