EHA.pdb
     RDKit          3D

 25 25  0  0  1  0  0  0  0  0999 V2000
   11.5953  -17.2624   18.2819 N   0  0  0  0  0  0  0  0  0  0  0  0
   12.2534  -15.9501   18.3121 C   0  0  1  0  0  0  0  0  0  0  0  0
   12.2980  -15.4653   16.9142 C   0  0  0  0  0  0  0  0  0  0  0  0
   12.3355  -16.5334   15.8618 C   0  0  0  0  0  0  0  0  0  0  0  0
   12.5139  -15.9604   14.5170 C   0  0  0  0  0  0  0  0  0  0  0  0
   13.6467  -15.8852   13.9857 O   0  0  0  0  0  0  0  0  0  0  0  0
   11.6009  -15.0578   19.2890 C   0  0  0  0  0  0  0  0  0  0  0  0
   12.0605  -13.9286   19.5871 O   0  0  0  0  0  0  0  0  0  0  0  0
   11.4110  -15.4836   13.7978 O   0  0  0  0  0  0  0  0  0  0  0  0
   10.3896  -15.4148   19.9726 N   0  0  0  0  0  0  0  0  0  0  0  0
    9.7007  -14.5454   20.9038 C   0  0  1  0  0  0  0  0  0  0  0  0
    8.2614  -14.3447   20.4908 C   0  0  0  0  0  0  0  0  0  0  0  0
    8.1202  -13.9166   19.0871 C   0  0  0  0  0  0  0  0  0  0  0  0
    8.2030  -12.6278   18.6256 C   0  0  0  0  0  0  0  0  0  0  0  0
    8.0172  -12.6749   17.2853 N   0  0  0  0  0  0  0  0  0  0  0  0
    7.8245  -13.9326   16.9041 C   0  0  0  0  0  0  0  0  0  0  0  0
    7.8893  -14.6865   18.0147 N   0  0  0  0  0  0  0  0  0  0  0  0
    9.8942  -15.0631   22.2552 C   0  0  0  0  0  0  0  0  0  0  0  0
    9.3207  -14.5252   23.2617 O   0  0  0  0  0  0  0  0  0  0  0  0
   10.4520  -18.0179   24.0897 C   0  0  0  0  0  0  0  0  0  0  0  0
   10.9726  -16.5779   23.9545 C   0  0  2  0  0  0  0  0  0  0  0  0
   10.7205  -16.1928   22.5820 N   0  0  0  0  0  0  0  0  0  0  0  0
   12.4276  -16.5751   24.1924 C   0  0  0  0  0  0  0  0  0  0  0  0
   13.2485  -16.3936   23.2498 O   0  0  0  0  0  0  0  0  0  0  0  0
   12.9442  -16.7709   25.4583 O   0  0  0  0  0  0  0  0  0  0  0  0
  2  1  1  6
  2  7  1  0
  3  2  1  0
  4  3  1  0
  4  5  1  0
  5  9  1  0
  5  6  2  0
  7  8  2  0
  7 10  1  0
 10 11  1  0
 11 18  1  0
 11 12  1  6
 13 12  1  0
 13 14  2  0
 15 14  1  0
 16 15  1  0
 17 16  2  0
 17 13  1  0
 18 19  2  0
 21 20  1  6
 22 21  1  0
 22 18  1  0
 23 21  1  0
 23 25  1  0
 24 23  2  0
M  END
$$$$
