TGN.pdb
     RDKit          3D

 20 19  0  0  1  0  0  0  0  0999 V2000
   27.5005  -18.7549  -18.3262 C   0  0  0  0  0  0  0  0  0  0  0  0
   27.4975  -19.3012  -16.9350 C   0  0  1  0  0  0  0  0  0  0  0  0
   28.6992  -19.0989  -16.2679 O   0  0  0  0  0  0  0  0  0  0  0  0
   26.3248  -18.8247  -16.1068 C   0  0  2  0  0  0  0  0  0  0  0  0
   26.2676  -17.3957  -16.1018 N   0  0  0  0  0  0  0  0  0  0  0  0
   26.2803  -19.4363  -14.7767 C   0  0  0  0  0  0  0  0  0  0  0  0
   26.4387  -18.6907  -13.7757 O   0  0  0  0  0  0  0  0  0  0  0  0
   26.0706  -20.8197  -14.5162 N   0  0  0  0  0  0  0  0  0  0  0  0
   25.9323  -21.3667  -13.1952 C   0  0  0  0  0  0  0  0  0  0  0  0
   24.5284  -21.4370  -12.7447 C   0  0  0  0  0  0  0  0  0  0  0  0
   24.2284  -21.9570  -11.6543 O   0  0  0  0  0  0  0  0  0  0  0  0
   19.5229  -20.7550  -12.6082 N   0  0  0  0  0  0  0  0  0  0  0  0
   20.1850  -19.4962  -12.8489 C   0  0  0  0  0  0  0  0  0  0  0  0
   19.5122  -18.4452  -12.7450 O   0  0  0  0  0  0  0  0  0  0  0  0
   21.6088  -19.5277  -13.2010 C   0  0  0  0  0  0  0  0  0  0  0  0
   22.1128  -20.9539  -13.2650 C   0  0  2  0  0  0  0  0  0  0  0  0
   23.5208  -20.9006  -13.5766 N   0  0  0  0  0  0  0  0  0  0  0  0
   21.3948  -21.6104  -14.3853 C   0  0  0  0  0  0  0  0  0  0  0  0
   22.0292  -21.7845  -15.6038 O   0  0  0  0  0  0  0  0  0  0  0  0
   20.2064  -22.0222  -14.2638 O   0  0  0  0  0  0  0  0  0  0  0  0
  2  1  1  6
  2  4  1  0
  3  2  1  0
  4  5  1  1
  6  8  1  0
  6  4  1  0
  7  6  2  0
  9 10  1  0
  9  8  1  0
 10 17  1  0
 11 10  2  0
 13 12  1  0
 14 13  2  0
 16 15  1  6
 15 13  1  0
 16 18  1  0
 17 16  1  0
 18 20  2  0
 18 19  1  0
M  END
$$$$
