TGN.pdb
     RDKit          3D

 20 19  0  0  1  0  0  0  0  0999 V2000
   18.2342  -14.0180  -20.4026 C   0  0  0  0  0  0  0  0  0  0  0  0
   19.1436  -12.8605  -20.1439 C   0  0  1  0  0  0  0  0  0  0  0  0
   19.4239  -12.1219  -21.2867 O   0  0  0  0  0  0  0  0  0  0  0  0
   18.6715  -11.9678  -19.0176 C   0  0  2  0  0  0  0  0  0  0  0  0
   17.4238  -11.3567  -19.3571 N   0  0  0  0  0  0  0  0  0  0  0  0
   19.7008  -11.0296  -18.5641 C   0  0  0  0  0  0  0  0  0  0  0  0
   20.6762  -11.4881  -17.9149 O   0  0  0  0  0  0  0  0  0  0  0  0
   19.6919   -9.6258  -18.7979 N   0  0  0  0  0  0  0  0  0  0  0  0
   20.7878   -8.7588  -18.4655 C   0  0  0  0  0  0  0  0  0  0  0  0
   20.6496   -8.1405  -17.1323 C   0  0  0  0  0  0  0  0  0  0  0  0
   19.9471   -8.6666  -16.2494 O   0  0  0  0  0  0  0  0  0  0  0  0
   21.6193   -5.0058  -13.2461 N   0  0  0  0  0  0  0  0  0  0  0  0
   22.5570   -4.6158  -14.2705 C   0  0  0  0  0  0  0  0  0  0  0  0
   23.3987   -3.7305  -13.9952 O   0  0  0  0  0  0  0  0  0  0  0  0
   22.4645   -5.2834  -15.5736 C   0  0  0  0  0  0  0  0  0  0  0  0
   21.3064   -6.2584  -15.5943 C   0  0  2  0  0  0  0  0  0  0  0  0
   21.3322   -6.9321  -16.8702 N   0  0  0  0  0  0  0  0  0  0  0  0
   20.0659   -5.4498  -15.5002 C   0  0  0  0  0  0  0  0  0  0  0  0
   19.3372   -5.1684  -16.6435 O   0  0  0  0  0  0  0  0  0  0  0  0
   19.6454   -5.0022  -14.3959 O   0  0  0  0  0  0  0  0  0  0  0  0
  2  1  1  6
  2  4  1  0
  3  2  1  0
  4  5  1  6
  6  8  1  0
  6  4  1  0
  7  6  2  0
  9 10  1  0
  9  8  1  0
 10 17  1  0
 11 10  2  0
 13 12  1  0
 14 13  2  0
 16 15  1  6
 15 13  1  0
 16 18  1  0
 17 16  1  0
 18 20  2  0
 18 19  1  0
M  END
$$$$
