TGN.pdb
     RDKit          3D

 20 19  0  0  1  0  0  0  0  0999 V2000
   24.9233  -14.4206  -17.2549 C   0  0  0  0  0  0  0  0  0  0  0  0
   23.7607  -13.4952  -17.0944 C   0  0  1  0  0  0  0  0  0  0  0  0
   22.6998  -14.0680  -16.4040 O   0  0  0  0  0  0  0  0  0  0  0  0
   24.1386  -12.1552  -16.5030 C   0  0  2  0  0  0  0  0  0  0  0  0
   24.8391  -12.3360  -15.2693 N   0  0  0  0  0  0  0  0  0  0  0  0
   23.0085  -11.2267  -16.4263 C   0  0  0  0  0  0  0  0  0  0  0  0
   22.6278  -10.6673  -17.4870 O   0  0  0  0  0  0  0  0  0  0  0  0
   22.2950  -10.8989  -15.2393 N   0  0  0  0  0  0  0  0  0  0  0  0
   21.1700  -10.0062  -15.2103 C   0  0  0  0  0  0  0  0  0  0  0  0
   21.5624   -8.5886  -15.0874 C   0  0  0  0  0  0  0  0  0  0  0  0
   22.5314   -8.2484  -14.3839 O   0  0  0  0  0  0  0  0  0  0  0  0
   20.2956   -6.3941  -19.3479 N   0  0  0  0  0  0  0  0  0  0  0  0
   21.1333   -6.0455  -18.2265 C   0  0  0  0  0  0  0  0  0  0  0  0
   22.3739   -6.1500  -18.3605 O   0  0  0  0  0  0  0  0  0  0  0  0
   20.4764   -5.5892  -16.9967 C   0  0  0  0  0  0  0  0  0  0  0  0
   21.1316   -6.2064  -15.7793 C   0  0  2  0  0  0  0  0  0  0  0  0
   20.8156   -7.6144  -15.7862 N   0  0  0  0  0  0  0  0  0  0  0  0
   20.5041   -5.5765  -14.5914 C   0  0  0  0  0  0  0  0  0  0  0  0
   19.6955   -6.3298  -13.7572 O   0  0  0  0  0  0  0  0  0  0  0  0
   20.6849   -4.3577  -14.3108 O   0  0  0  0  0  0  0  0  0  0  0  0
  2  1  1  1
  2  4  1  0
  3  2  1  0
  4  5  1  1
  6  8  1  0
  6  4  1  0
  7  6  2  0
  9 10  1  0
  9  8  1  0
 10 17  1  0
 11 10  2  0
 13 12  1  0
 14 13  2  0
 16 15  1  6
 15 13  1  0
 16 18  1  0
 17 16  1  0
 18 20  2  0
 18 19  1  0
M  END
$$$$
