TGN.pdb
     RDKit          3D

 20 19  0  0  1  0  0  0  0  0999 V2000
   28.1665  -18.4486  -17.2358 C   0  0  0  0  0  0  0  0  0  0  0  0
   28.2040  -19.1930  -15.9403 C   0  0  1  0  0  0  0  0  0  0  0  0
   29.0375  -18.6042  -14.9977 O   0  0  0  0  0  0  0  0  0  0  0  0
   26.8315  -19.4629  -15.3645 C   0  0  2  0  0  0  0  0  0  0  0  0
   26.1145  -18.2374  -15.1928 N   0  0  0  0  0  0  0  0  0  0  0  0
   26.8704  -20.3130  -14.1724 C   0  0  0  0  0  0  0  0  0  0  0  0
   27.1034  -21.5397  -14.3264 O   0  0  0  0  0  0  0  0  0  0  0  0
   26.6646  -19.8642  -12.8376 N   0  0  0  0  0  0  0  0  0  0  0  0
   26.6101  -20.7444  -11.7037 C   0  0  0  0  0  0  0  0  0  0  0  0
   25.2332  -21.1364  -11.3442 C   0  0  0  0  0  0  0  0  0  0  0  0
   25.0082  -21.8627  -10.3585 O   0  0  0  0  0  0  0  0  0  0  0  0
   20.3391  -21.1157  -10.7785 N   0  0  0  0  0  0  0  0  0  0  0  0
   20.7095  -19.8117  -11.2719 C   0  0  0  0  0  0  0  0  0  0  0  0
   19.9063  -18.8660  -11.1036 O   0  0  0  0  0  0  0  0  0  0  0  0
   22.0079  -19.6764  -11.9413 C   0  0  0  0  0  0  0  0  0  0  0  0
   22.7787  -20.9782  -11.8823 C   0  0  2  0  0  0  0  0  0  0  0  0
   24.1646  -20.6713  -12.1421 N   0  0  0  0  0  0  0  0  0  0  0  0
   22.2593  -21.8318  -12.9791 C   0  0  0  0  0  0  0  0  0  0  0  0
   23.0417  -22.0721  -14.0961 O   0  0  0  0  0  0  0  0  0  0  0  0
   21.1102  -22.3549  -12.9282 O   0  0  0  0  0  0  0  0  0  0  0  0
  2  1  1  6
  2  4  1  0
  3  2  1  0
  4  5  1  1
  6  8  1  0
  6  4  1  0
  7  6  2  0
  9 10  1  0
  9  8  1  0
 10 17  1  0
 11 10  2  0
 13 12  1  0
 14 13  2  0
 16 15  1  6
 15 13  1  0
 16 18  1  0
 17 16  1  0
 18 20  2  0
 18 19  1  0
M  END
$$$$
