TGN.pdb
     RDKit          3D

 20 19  0  0  1  0  0  0  0  0999 V2000
   15.0057   -5.7648   -7.7326 C   0  0  0  0  0  0  0  0  0  0  0  0
   13.8610   -6.3859   -8.4660 C   0  0  1  0  0  0  0  0  0  0  0  0
   13.5287   -5.7074   -9.6319 O   0  0  0  0  0  0  0  0  0  0  0  0
   14.0483   -7.8640   -8.7275 C   0  0  2  0  0  0  0  0  0  0  0  0
   14.3241   -8.5541   -7.5055 N   0  0  0  0  0  0  0  0  0  0  0  0
   15.0030   -8.1360   -9.8044 C   0  0  0  0  0  0  0  0  0  0  0  0
   14.5799   -8.1225  -10.9892 O   0  0  0  0  0  0  0  0  0  0  0  0
   16.3862   -8.4178   -9.6229 N   0  0  0  0  0  0  0  0  0  0  0  0
   17.3038   -8.6223  -10.7090 C   0  0  0  0  0  0  0  0  0  0  0  0
   18.0133   -7.3896  -11.1036 C   0  0  0  0  0  0  0  0  0  0  0  0
   17.5875   -6.2681  -10.7709 O   0  0  0  0  0  0  0  0  0  0  0  0
   21.6298   -4.4765  -13.2336 N   0  0  0  0  0  0  0  0  0  0  0  0
   21.9803   -5.8241  -13.6101 C   0  0  0  0  0  0  0  0  0  0  0  0
   23.0401   -6.0015  -14.2531 O   0  0  0  0  0  0  0  0  0  0  0  0
   21.0701   -6.9044  -13.2144 C   0  0  0  0  0  0  0  0  0  0  0  0
   19.9460   -6.3685  -12.3533 C   0  0  2  0  0  0  0  0  0  0  0  0
   19.1936   -7.5018  -11.8714 N   0  0  0  0  0  0  0  0  0  0  0  0
   19.0787   -5.5554  -13.2410 C   0  0  0  0  0  0  0  0  0  0  0  0
   19.0868   -4.1746  -13.1376 O   0  0  0  0  0  0  0  0  0  0  0  0
   18.3214   -6.0877  -14.1012 O   0  0  0  0  0  0  0  0  0  0  0  0
  2  1  1  6
  2  4  1  0
  3  2  1  0
  4  5  1  1
  6  8  1  0
  6  4  1  0
  7  6  2  0
  9 10  1  0
  9  8  1  0
 10 17  1  0
 11 10  2  0
 13 12  1  0
 14 13  2  0
 16 15  1  6
 15 13  1  0
 16 18  1  0
 17 16  1  0
 18 20  2  0
 18 19  1  0
M  END
$$$$
