TGN.pdb
     RDKit          3D

 20 19  0  0  1  0  0  0  0  0999 V2000
   28.3873  -20.8443  -12.9364 C   0  0  0  0  0  0  0  0  0  0  0  0
   26.9610  -20.7566  -13.3745 C   0  0  1  0  0  0  0  0  0  0  0  0
   26.5436  -21.8680  -14.0961 O   0  0  0  0  0  0  0  0  0  0  0  0
   26.0049  -20.4476  -12.2438 C   0  0  2  0  0  0  0  0  0  0  0  0
   26.1187  -21.4327  -11.2132 N   0  0  0  0  0  0  0  0  0  0  0  0
   24.6350  -20.2099  -12.7044 C   0  0  0  0  0  0  0  0  0  0  0  0
   23.6982  -20.8023  -12.1090 O   0  0  0  0  0  0  0  0  0  0  0  0
   24.2682  -19.3550  -13.7815 N   0  0  0  0  0  0  0  0  0  0  0  0
   22.9074  -19.0978  -14.1628 C   0  0  0  0  0  0  0  0  0  0  0  0
   22.2622  -20.2557  -14.8122 C   0  0  0  0  0  0  0  0  0  0  0  0
   22.8667  -21.3354  -14.9488 O   0  0  0  0  0  0  0  0  0  0  0  0
   18.2981  -22.5325  -13.6757 N   0  0  0  0  0  0  0  0  0  0  0  0
   18.4898  -21.1806  -14.1411 C   0  0  0  0  0  0  0  0  0  0  0  0
   18.4397  -20.2535  -13.3009 O   0  0  0  0  0  0  0  0  0  0  0  0
   18.7321  -20.9775  -15.5737 C   0  0  0  0  0  0  0  0  0  0  0  0
   20.1944  -21.1888  -15.9043 C   0  0  2  0  0  0  0  0  0  0  0  0
   20.9367  -20.1198  -15.2807 N   0  0  0  0  0  0  0  0  0  0  0  0
   20.3206  -21.0686  -17.3778 C   0  0  0  0  0  0  0  0  0  0  0  0
   19.8094  -22.0607  -18.1974 O   0  0  0  0  0  0  0  0  0  0  0  0
   20.8871  -20.0770  -17.9186 O   0  0  0  0  0  0  0  0  0  0  0  0
  2  1  1  1
  2  4  1  0
  3  2  1  0
  4  5  1  1
  6  8  1  0
  6  4  1  0
  7  6  2  0
  9 10  1  0
  9  8  1  0
 10 17  1  0
 11 10  2  0
 13 12  1  0
 14 13  2  0
 16 15  1  6
 15 13  1  0
 16 18  1  0
 17 16  1  0
 18 20  2  0
 18 19  1  0
M  END
$$$$
