TGN.pdb
     RDKit          3D

 20 19  0  0  1  0  0  0  0  0999 V2000
   17.0267  -11.2540  -18.2847 C   0  0  0  0  0  0  0  0  0  0  0  0
   16.9583  -12.4743  -17.4245 C   0  0  1  0  0  0  0  0  0  0  0  0
   16.7985  -13.6462  -18.1533 O   0  0  0  0  0  0  0  0  0  0  0  0
   18.1117  -12.5875  -16.4523 C   0  0  2  0  0  0  0  0  0  0  0  0
   18.0703  -13.8472  -15.7762 N   0  0  0  0  0  0  0  0  0  0  0  0
   18.2249  -11.4281  -15.5645 C   0  0  0  0  0  0  0  0  0  0  0  0
   17.3217  -11.2473  -14.7075 O   0  0  0  0  0  0  0  0  0  0  0  0
   19.2828  -10.4764  -15.5885 N   0  0  0  0  0  0  0  0  0  0  0  0
   19.3981   -9.3939  -14.6514 C   0  0  0  0  0  0  0  0  0  0  0  0
   20.5866   -8.5511  -14.8881 C   0  0  0  0  0  0  0  0  0  0  0  0
   21.3805   -8.8043  -15.8129 O   0  0  0  0  0  0  0  0  0  0  0  0
   24.1362   -5.2911  -15.6812 N   0  0  0  0  0  0  0  0  0  0  0  0
   22.7810   -4.7971  -15.7020 C   0  0  0  0  0  0  0  0  0  0  0  0
   22.6005   -3.5752  -15.9075 O   0  0  0  0  0  0  0  0  0  0  0  0
   21.6974   -5.7609  -15.4807 C   0  0  0  0  0  0  0  0  0  0  0  0
   21.9198   -6.5305  -14.1960 C   0  0  2  0  0  0  0  0  0  0  0  0
   20.8123   -7.4428  -14.0421 N   0  0  0  0  0  0  0  0  0  0  0  0
   21.8853   -5.5387  -13.0929 C   0  0  0  0  0  0  0  0  0  0  0  0
   20.7706   -5.4539  -12.2758 O   0  0  0  0  0  0  0  0  0  0  0  0
   22.8528   -4.7570  -12.8703 O   0  0  0  0  0  0  0  0  0  0  0  0
  2  1  1  6
  2  4  1  0
  3  2  1  0
  4  5  1  1
  6  8  1  0
  6  4  1  0
  7  6  2  0
  9 10  1  0
  9  8  1  0
 10 17  1  0
 11 10  2  0
 13 12  1  0
 14 13  2  0
 16 15  1  6
 15 13  1  0
 16 18  1  0
 17 16  1  0
 18 20  2  0
 18 19  1  0
M  END
$$$$
