TGN.pdb
     RDKit          3D

 20 19  0  0  1  0  0  0  0  0999 V2000
   17.0097  -15.3015  -17.0053 C   0  0  0  0  0  0  0  0  0  0  0  0
   17.7765  -14.0342  -17.2050 C   0  0  1  0  0  0  0  0  0  0  0  0
   17.1255  -13.1285  -18.0333 O   0  0  0  0  0  0  0  0  0  0  0  0
   18.2032  -13.3815  -15.9088 C   0  0  2  0  0  0  0  0  0  0  0  0
   17.0571  -12.9818  -15.1525 N   0  0  0  0  0  0  0  0  0  0  0  0
   19.1981  -12.3244  -16.1033 C   0  0  0  0  0  0  0  0  0  0  0  0
   20.3835  -12.6646  -16.3529 O   0  0  0  0  0  0  0  0  0  0  0  0
   18.9355  -10.9274  -16.0332 N   0  0  0  0  0  0  0  0  0  0  0  0
   19.9107   -9.9197  -16.3446 C   0  0  0  0  0  0  0  0  0  0  0  0
   19.9718   -8.8454  -15.3342 C   0  0  0  0  0  0  0  0  0  0  0  0
   19.1672   -8.8090  -14.3850 O   0  0  0  0  0  0  0  0  0  0  0  0
   22.8147   -5.0407  -12.6484 N   0  0  0  0  0  0  0  0  0  0  0  0
   22.5680   -4.8358  -14.0548 C   0  0  0  0  0  0  0  0  0  0  0  0
   22.5197   -3.6594  -14.4811 O   0  0  0  0  0  0  0  0  0  0  0  0
   22.3890   -6.0224  -14.8986 C   0  0  0  0  0  0  0  0  0  0  0  0
   21.0865   -6.7210  -14.5702 C   0  0  2  0  0  0  0  0  0  0  0  0
   20.9656   -7.8498  -15.4611 N   0  0  0  0  0  0  0  0  0  0  0  0
   19.9986   -5.7556  -14.8637 C   0  0  0  0  0  0  0  0  0  0  0  0
   19.4422   -5.7072  -16.1307 O   0  0  0  0  0  0  0  0  0  0  0  0
   19.5559   -4.9641  -13.9838 O   0  0  0  0  0  0  0  0  0  0  0  0
  2  1  1  1
  2  4  1  0
  3  2  1  0
  4  5  1  6
  6  8  1  0
  6  4  1  0
  7  6  2  0
  9 10  1  0
  9  8  1  0
 10 17  1  0
 11 10  2  0
 13 12  1  0
 14 13  2  0
 16 15  1  6
 15 13  1  0
 16 18  1  0
 17 16  1  0
 18 20  2  0
 18 19  1  0
M  END
$$$$
