TGN.pdb
     RDKit          3D

 20 19  0  0  1  0  0  0  0  0999 V2000
   19.2476  -12.2043  -20.3688 C   0  0  0  0  0  0  0  0  0  0  0  0
   19.3295  -11.4982  -19.0541 C   0  0  1  0  0  0  0  0  0  0  0  0
   19.1192  -12.3404  -17.9694 O   0  0  0  0  0  0  0  0  0  0  0  0
   20.5993  -10.6938  -18.8841 C   0  0  2  0  0  0  0  0  0  0  0  0
   21.7383  -11.5586  -18.8757 N   0  0  0  0  0  0  0  0  0  0  0  0
   20.5380   -9.7635  -17.7545 C   0  0  0  0  0  0  0  0  0  0  0  0
   19.5946   -8.9316  -17.7222 O   0  0  0  0  0  0  0  0  0  0  0  0
   21.4660   -9.7196  -16.6764 N   0  0  0  0  0  0  0  0  0  0  0  0
   21.3470   -8.8201  -15.5627 C   0  0  0  0  0  0  0  0  0  0  0  0
   21.6836   -7.4255  -15.9099 C   0  0  0  0  0  0  0  0  0  0  0  0
   21.9994   -7.1106  -17.0721 O   0  0  0  0  0  0  0  0  0  0  0  0
   19.9919   -5.2634  -13.3147 N   0  0  0  0  0  0  0  0  0  0  0  0
   19.6659   -4.4904  -14.4882 C   0  0  0  0  0  0  0  0  0  0  0  0
   18.5237   -3.9827  -14.5629 O   0  0  0  0  0  0  0  0  0  0  0  0
   20.6966   -4.3479  -15.5223 C   0  0  0  0  0  0  0  0  0  0  0  0
   21.9700   -5.0555  -15.1099 C   0  0  2  0  0  0  0  0  0  0  0  0
   21.6418   -6.4442  -14.8949 N   0  0  0  0  0  0  0  0  0  0  0  0
   22.3941   -4.4544  -13.8213 C   0  0  0  0  0  0  0  0  0  0  0  0
   22.8712   -3.1549  -13.7898 O   0  0  0  0  0  0  0  0  0  0  0  0
   22.3339   -5.0976  -12.7352 O   0  0  0  0  0  0  0  0  0  0  0  0
  2  1  1  6
  2  4  1  0
  3  2  1  0
  4  5  1  1
  6  8  1  0
  6  4  1  0
  7  6  2  0
  9 10  1  0
  9  8  1  0
 10 17  1  0
 11 10  2  0
 13 12  1  0
 14 13  2  0
 16 15  1  1
 15 13  1  0
 16 18  1  0
 17 16  1  0
 18 20  2  0
 18 19  1  0
M  END
$$$$
