TGN.pdb
     RDKit          3D

 20 19  0  0  1  0  0  0  0  0999 V2000
   15.5435  -13.8983  -13.8200 C   0  0  0  0  0  0  0  0  0  0  0  0
   15.8034  -13.1104  -12.5768 C   0  0  1  0  0  0  0  0  0  0  0  0
   17.1130  -13.2202  -12.1262 O   0  0  0  0  0  0  0  0  0  0  0  0
   15.3821  -11.6617  -12.6865 C   0  0  2  0  0  0  0  0  0  0  0  0
   16.1341  -11.0013  -13.7083 N   0  0  0  0  0  0  0  0  0  0  0  0
   15.3782  -10.9697  -11.3957 C   0  0  0  0  0  0  0  0  0  0  0  0
   14.5976  -11.3874  -10.5016 O   0  0  0  0  0  0  0  0  0  0  0  0
   16.1921   -9.8511  -11.0618 N   0  0  0  0  0  0  0  0  0  0  0  0
   16.1094   -9.1552   -9.8079 C   0  0  0  0  0  0  0  0  0  0  0  0
   15.6606   -7.7566   -9.9536 C   0  0  0  0  0  0  0  0  0  0  0  0
   15.4566   -7.2606  -11.0769 O   0  0  0  0  0  0  0  0  0  0  0  0
   12.5355   -6.2901   -8.6027 N   0  0  0  0  0  0  0  0  0  0  0  0
   13.0901   -5.6735   -7.4224 C   0  0  0  0  0  0  0  0  0  0  0  0
   12.3462   -5.5302   -6.4254 O   0  0  0  0  0  0  0  0  0  0  0  0
   14.4948   -5.2526   -7.4655 C   0  0  0  0  0  0  0  0  0  0  0  0
   15.1115   -5.5827   -8.8083 C   0  0  2  0  0  0  0  0  0  0  0  0
   15.4640   -6.9819   -8.7890 N   0  0  0  0  0  0  0  0  0  0  0  0
   16.3506   -4.7740   -8.9193 C   0  0  0  0  0  0  0  0  0  0  0  0
   16.2976   -3.5011   -9.4616 O   0  0  0  0  0  0  0  0  0  0  0  0
   17.4694   -5.2139   -8.5300 O   0  0  0  0  0  0  0  0  0  0  0  0
  2  1  1  6
  2  4  1  0
  3  2  1  0
  4  5  1  6
  6  8  1  0
  6  4  1  0
  7  6  2  0
  9 10  1  0
  9  8  1  0
 10 17  1  0
 11 10  2  0
 13 12  1  0
 14 13  2  0
 16 15  1  1
 15 13  1  0
 16 18  1  0
 17 16  1  0
 18 20  2  0
 18 19  1  0
M  END
$$$$
