TGN.pdb
     RDKit          3D

 20 19  0  0  1  0  0  0  0  0999 V2000
   19.0859   -8.2072  -18.1731 C   0  0  0  0  0  0  0  0  0  0  0  0
   19.2027   -9.6948  -18.2574 C   0  0  1  0  0  0  0  0  0  0  0  0
   18.7803  -10.2060  -19.4782 O   0  0  0  0  0  0  0  0  0  0  0  0
   20.5784  -10.2092  -17.8952 C   0  0  2  0  0  0  0  0  0  0  0  0
   20.6749  -11.6089  -18.1730 N   0  0  0  0  0  0  0  0  0  0  0  0
   20.9900   -9.8316  -16.5413 C   0  0  0  0  0  0  0  0  0  0  0  0
   20.4997  -10.4686  -15.5733 O   0  0  0  0  0  0  0  0  0  0  0  0
   21.9089   -8.7926  -16.2228 N   0  0  0  0  0  0  0  0  0  0  0  0
   22.2303   -8.4016  -14.8784 C   0  0  0  0  0  0  0  0  0  0  0  0
   21.3015   -7.3916  -14.3345 C   0  0  0  0  0  0  0  0  0  0  0  0
   20.5557   -6.7343  -15.0838 O   0  0  0  0  0  0  0  0  0  0  0  0
   18.7762   -4.6663  -10.8374 N   0  0  0  0  0  0  0  0  0  0  0  0
   19.4465   -5.7017  -10.0895 C   0  0  0  0  0  0  0  0  0  0  0  0
   19.2028   -5.7984   -8.8651 O   0  0  0  0  0  0  0  0  0  0  0  0
   20.3738   -6.5782  -10.8134 C   0  0  0  0  0  0  0  0  0  0  0  0
   20.3837   -6.2439  -12.2900 C   0  0  2  0  0  0  0  0  0  0  0  0
   21.2708   -7.1795  -12.9384 N   0  0  0  0  0  0  0  0  0  0  0  0
   20.9484   -4.8775  -12.4145 C   0  0  0  0  0  0  0  0  0  0  0  0
   22.2790   -4.7094  -12.7590 O   0  0  0  0  0  0  0  0  0  0  0  0
   20.2461   -3.8463  -12.2138 O   0  0  0  0  0  0  0  0  0  0  0  0
  2  1  1  6
  2  4  1  0
  3  2  1  0
  4  5  1  1
  6  8  1  0
  6  4  1  0
  7  6  2  0
  9 10  1  0
  9  8  1  0
 10 17  1  0
 11 10  2  0
 13 12  1  0
 14 13  2  0
 16 15  1  1
 15 13  1  0
 16 18  1  0
 17 16  1  0
 18 20  2  0
 18 19  1  0
M  END
$$$$
