MVP.pdb
     RDKit          3D

 23 23  0  0  1  0  0  0  0  0999 V2000
   10.5735  -18.8714   27.3563 C   0  0  0  0  0  0  0  0  0  0  0  0
    9.3171  -19.6684   28.3727 S   0  0  0  0  0  0  0  0  0  0  0  0
    7.6553  -19.2915   27.8034 C   0  0  0  0  0  0  0  0  0  0  0  0
    7.6526  -18.7751   26.3714 C   0  0  0  0  0  0  0  0  0  0  0  0
    6.2342  -18.3521   26.0676 C   0  0  2  0  0  0  0  0  0  0  0  0
    5.5720  -19.4053   25.3269 N   0  0  0  0  0  0  0  0  0  0  0  0
    6.1940  -17.0951   25.2625 C   0  0  0  0  0  0  0  0  0  0  0  0
    5.8310  -17.0837   24.0601 O   0  0  0  0  0  0  0  0  0  0  0  0
    7.7706  -12.3272   25.4184 C   0  0  0  0  0  0  0  0  0  0  0  0
    7.1875  -13.5652   25.9632 C   0  0  1  0  0  0  0  0  0  0  0  0
    5.9113  -13.2021   26.7148 C   0  0  0  0  0  0  0  0  0  0  0  0
    6.8930  -14.6756   24.9758 C   0  0  2  0  0  0  0  0  0  0  0  0
    6.5715  -15.8553   25.8424 N   0  0  0  0  0  0  0  0  0  0  0  0
    8.0271  -15.0919   24.1620 C   0  0  0  0  0  0  0  0  0  0  0  0
    8.7707  -16.0397   24.6043 O   0  0  0  0  0  0  0  0  0  0  0  0
    8.3925  -14.5542   22.9179 N   0  0  0  0  0  0  0  0  0  0  0  0
    7.9842  -13.2880   22.3561 C   0  0  0  0  0  0  0  0  0  0  0  0
    7.8304  -13.5830   20.8678 C   0  0  0  0  0  0  0  0  0  0  0  0
    8.4623  -14.9198   20.6531 C   0  0  0  0  0  0  0  0  0  0  0  0
    9.2381  -15.1880   21.8947 C   0  0  1  0  0  0  0  0  0  0  0  0
   10.5680  -14.5721   21.9515 C   0  0  0  0  0  0  0  0  0  0  0  0
   10.9108  -13.5978   22.8956 O   0  0  0  0  0  0  0  0  0  0  0  0
   11.4530  -14.9072   21.1400 O   0  0  0  0  0  0  0  0  0  0  0  0
  1  2  1  0
  2  3  1  0
  3  4  1  0
  4  5  1  0
  5  6  1  6
  7 13  1  0
  7  5  1  0
  8  7  2  0
 10  9  1  6
 10 12  1  0
 10 11  1  0
 12 13  1  1
 12 14  1  0
 14 16  1  0
 14 15  2  0
 16 20  1  0
 17 18  1  0
 17 16  1  0
 18 19  1  0
 19 20  1  0
 20 21  1  6
 21 22  1  0
 23 21  2  0
M  END
$$$$
