MVP.pdb
     RDKit          3D

 23 23  0  0  1  0  0  0  0  0999 V2000
    9.7322  -12.9574   28.6462 C   0  0  0  0  0  0  0  0  0  0  0  0
   10.0098  -14.7117   28.9492 S   0  0  0  0  0  0  0  0  0  0  0  0
    8.7282  -15.7312   28.2102 C   0  0  0  0  0  0  0  0  0  0  0  0
    8.7213  -15.6170   26.6922 C   0  0  0  0  0  0  0  0  0  0  0  0
    7.3977  -16.1749   26.2232 C   0  0  2  0  0  0  0  0  0  0  0  0
    7.1261  -17.4106   26.9272 N   0  0  0  0  0  0  0  0  0  0  0  0
    7.4025  -16.4454   24.7546 C   0  0  0  0  0  0  0  0  0  0  0  0
    7.1096  -17.5718   24.2823 O   0  0  0  0  0  0  0  0  0  0  0  0
    6.5367  -13.4527   22.1148 C   0  0  0  0  0  0  0  0  0  0  0  0
    7.6770  -14.3057   21.7382 C   0  0  1  0  0  0  0  0  0  0  0  0
    8.9637  -13.5517   22.0571 C   0  0  0  0  0  0  0  0  0  0  0  0
    7.7340  -15.6861   22.3592 C   0  0  2  0  0  0  0  0  0  0  0  0
    7.7441  -15.4199   23.8340 N   0  0  0  0  0  0  0  0  0  0  0  0
    8.9574  -16.4305   22.0928 C   0  0  0  0  0  0  0  0  0  0  0  0
    9.8417  -16.4888   23.0209 O   0  0  0  0  0  0  0  0  0  0  0  0
    9.2702  -17.1066   20.9030 N   0  0  0  0  0  0  0  0  0  0  0  0
    8.5465  -17.0638   19.6540 C   0  0  0  0  0  0  0  0  0  0  0  0
    8.6627  -18.4866   19.1174 C   0  0  0  0  0  0  0  0  0  0  0  0
    9.7066  -19.1507   19.9549 C   0  0  0  0  0  0  0  0  0  0  0  0
   10.3827  -18.0438   20.6849 C   0  0  1  0  0  0  0  0  0  0  0  0
   11.4326  -17.3448   19.9363 C   0  0  0  0  0  0  0  0  0  0  0  0
   12.7537  -17.8028   19.8794 O   0  0  0  0  0  0  0  0  0  0  0  0
   11.1717  -16.2966   19.3140 O   0  0  0  0  0  0  0  0  0  0  0  0
  1  2  1  0
  2  3  1  0
  3  4  1  0
  4  5  1  0
  5  6  1  1
  7 13  1  0
  7  5  1  0
  8  7  2  0
 10  9  1  1
 10 12  1  0
 10 11  1  0
 12 13  1  1
 12 14  1  0
 14 16  1  0
 14 15  2  0
 16 20  1  0
 17 18  1  0
 17 16  1  0
 18 19  1  0
 19 20  1  0
 20 21  1  6
 21 22  1  0
 23 21  2  0
M  END
$$$$
