MVP.pdb
     RDKit          3D

 23 23  0  0  1  0  0  0  0  0999 V2000
    9.6697  -13.7875   28.9955 C   0  0  0  0  0  0  0  0  0  0  0  0
   10.2026  -15.1351   30.0662 S   0  0  0  0  0  0  0  0  0  0  0  0
   10.3354  -16.6888   29.1739 C   0  0  0  0  0  0  0  0  0  0  0  0
    8.9956  -17.4062   29.0870 C   0  0  0  0  0  0  0  0  0  0  0  0
    8.8283  -17.8357   27.6480 C   0  0  2  0  0  0  0  0  0  0  0  0
   10.0998  -17.7178   26.9655 N   0  0  0  0  0  0  0  0  0  0  0  0
    7.8174  -16.9980   26.9364 C   0  0  0  0  0  0  0  0  0  0  0  0
    6.5843  -17.1223   27.1408 O   0  0  0  0  0  0  0  0  0  0  0  0
    6.4602  -13.4834   26.1211 C   0  0  0  0  0  0  0  0  0  0  0  0
    7.2889  -14.0551   25.0459 C   0  0  1  0  0  0  0  0  0  0  0  0
    8.7188  -13.5576   25.2286 C   0  0  0  0  0  0  0  0  0  0  0  0
    7.2927  -15.5640   24.9133 C   0  0  2  0  0  0  0  0  0  0  0  0
    8.2276  -16.0202   25.9921 N   0  0  0  0  0  0  0  0  0  0  0  0
    7.8600  -16.0709   23.6710 C   0  0  0  0  0  0  0  0  0  0  0  0
    8.4525  -17.2088   23.6991 O   0  0  0  0  0  0  0  0  0  0  0  0
    7.8189  -15.4303   22.4226 N   0  0  0  0  0  0  0  0  0  0  0  0
    7.2952  -14.1172   22.1277 C   0  0  0  0  0  0  0  0  0  0  0  0
    6.6544  -14.2812   20.7536 C   0  0  0  0  0  0  0  0  0  0  0  0
    7.1339  -15.5992   20.2386 C   0  0  0  0  0  0  0  0  0  0  0  0
    8.2618  -15.9797   21.1320 C   0  0  1  0  0  0  0  0  0  0  0  0
    9.5587  -15.3813   20.7985 C   0  0  0  0  0  0  0  0  0  0  0  0
   10.3649  -15.8546   19.7572 O   0  0  0  0  0  0  0  0  0  0  0  0
    9.9908  -14.4098   21.4493 O   0  0  0  0  0  0  0  0  0  0  0  0
  1  2  1  0
  2  3  1  0
  3  4  1  0
  4  5  1  0
  5  6  1  6
  7 13  1  0
  7  5  1  0
  8  7  2  0
 10  9  1  1
 10 12  1  0
 10 11  1  0
 12 13  1  1
 12 14  1  0
 14 16  1  0
 14 15  2  0
 16 20  1  0
 17 18  1  0
 17 16  1  0
 18 19  1  0
 19 20  1  0
 20 21  1  6
 21 22  1  0
 23 21  2  0
M  END
$$$$
