MVP.pdb
     RDKit          3D

 23 23  0  0  1  0  0  0  0  0999 V2000
    7.8726  -11.8382   20.0183 C   0  0  0  0  0  0  0  0  0  0  0  0
    8.9353  -12.6675   18.8227 S   0  0  0  0  0  0  0  0  0  0  0  0
    8.6411  -14.4393   18.7791 C   0  0  0  0  0  0  0  0  0  0  0  0
    7.3852  -14.8222   19.5493 C   0  0  0  0  0  0  0  0  0  0  0  0
    7.7391  -16.0363   20.3763 C   0  0  2  0  0  0  0  0  0  0  0  0
    7.2107  -17.2207   19.7326 N   0  0  0  0  0  0  0  0  0  0  0  0
    7.1788  -15.9451   21.7575 C   0  0  0  0  0  0  0  0  0  0  0  0
    5.9542  -15.7644   21.9706 O   0  0  0  0  0  0  0  0  0  0  0  0
    7.3194  -17.6582   26.2002 C   0  0  0  0  0  0  0  0  0  0  0  0
    7.5111  -17.4333   24.7572 C   0  0  1  0  0  0  0  0  0  0  0  0
    6.4727  -18.2571   24.0030 C   0  0  0  0  0  0  0  0  0  0  0  0
    7.4632  -15.9979   24.2756 C   0  0  2  0  0  0  0  0  0  0  0  0
    8.0284  -16.0619   22.8891 N   0  0  0  0  0  0  0  0  0  0  0  0
    8.3260  -15.0763   25.0022 C   0  0  0  0  0  0  0  0  0  0  0  0
    9.5468  -14.9670   24.6223 O   0  0  0  0  0  0  0  0  0  0  0  0
    7.9483  -14.2775   26.0930 N   0  0  0  0  0  0  0  0  0  0  0  0
    6.6306  -14.1467   26.6693 C   0  0  0  0  0  0  0  0  0  0  0  0
    6.5511  -12.6762   27.0654 C   0  0  0  0  0  0  0  0  0  0  0  0
    7.9472  -12.1540   26.9639 C   0  0  0  0  0  0  0  0  0  0  0  0
    8.8089  -13.3631   26.8591 C   0  0  1  0  0  0  0  0  0  0  0  0
    9.1462  -14.0080   28.1325 C   0  0  0  0  0  0  0  0  0  0  0  0
   10.1781  -13.5530   28.9609 O   0  0  0  0  0  0  0  0  0  0  0  0
    8.5075  -15.0048   28.5229 O   0  0  0  0  0  0  0  0  0  0  0  0
  1  2  1  0
  2  3  1  0
  3  4  1  0
  4  5  1  0
  5  6  1  6
  7 13  1  0
  7  5  1  0
  8  7  2  0
 10  9  1  1
 10 12  1  0
 10 11  1  0
 12 13  1  6
 12 14  1  0
 14 16  1  0
 14 15  2  0
 16 20  1  0
 17 18  1  0
 17 16  1  0
 18 19  1  0
 19 20  1  0
 20 21  1  1
 21 22  1  0
 23 21  2  0
M  END
$$$$
