MVP.pdb
     RDKit          3D

 23 23  0  0  1  0  0  0  0  0999 V2000
   12.1565  -17.2081   28.2825 C   0  0  0  0  0  0  0  0  0  0  0  0
   11.3431  -17.1323   29.8884 S   0  0  0  0  0  0  0  0  0  0  0  0
    9.5531  -17.1430   29.7350 C   0  0  0  0  0  0  0  0  0  0  0  0
    9.1112  -17.1218   28.2784 C   0  0  0  0  0  0  0  0  0  0  0  0
    7.6002  -17.1221   28.2855 C   0  0  2  0  0  0  0  0  0  0  0  0
    7.1254  -18.4831   28.4230 N   0  0  0  0  0  0  0  0  0  0  0  0
    7.0427  -16.5395   27.0287 C   0  0  0  0  0  0  0  0  0  0  0  0
    6.4611  -17.2443   26.1668 O   0  0  0  0  0  0  0  0  0  0  0  0
    5.7221  -12.6104   26.5486 C   0  0  0  0  0  0  0  0  0  0  0  0
    6.7616  -13.1025   25.6283 C   0  0  1  0  0  0  0  0  0  0  0  0
    8.1139  -12.5982   26.1210 C   0  0  0  0  0  0  0  0  0  0  0  0
    6.8303  -14.6000   25.4108 C   0  0  2  0  0  0  0  0  0  0  0  0
    7.1557  -15.1486   26.7669 N   0  0  0  0  0  0  0  0  0  0  0  0
    7.9123  -15.0466   24.5438 C   0  0  0  0  0  0  0  0  0  0  0  0
    8.8816  -15.6977   25.0762 O   0  0  0  0  0  0  0  0  0  0  0  0
    8.0008  -14.8368   23.1587 N   0  0  0  0  0  0  0  0  0  0  0  0
    7.3245  -13.8259   22.3801 C   0  0  0  0  0  0  0  0  0  0  0  0
    6.9966  -14.5345   21.0701 C   0  0  0  0  0  0  0  0  0  0  0  0
    7.7859  -15.8029   21.0879 C   0  0  0  0  0  0  0  0  0  0  0  0
    8.7706  -15.6336   22.1911 C   0  0  1  0  0  0  0  0  0  0  0  0
    9.9841  -14.8872   21.8429 C   0  0  0  0  0  0  0  0  0  0  0  0
   11.0342  -15.4502   21.1090 O   0  0  0  0  0  0  0  0  0  0  0  0
   10.1183  -13.7002   22.1996 O   0  0  0  0  0  0  0  0  0  0  0  0
  1  2  1  0
  2  3  1  0
  3  4  1  0
  4  5  1  0
  5  6  1  6
  7 13  1  0
  7  5  1  0
  8  7  2  0
 10  9  1  1
 10 12  1  0
 10 11  1  0
 12 13  1  1
 12 14  1  0
 14 16  1  0
 14 15  2  0
 16 20  1  0
 17 18  1  0
 17 16  1  0
 18 19  1  0
 19 20  1  0
 20 21  1  6
 21 22  1  0
 23 21  2  0
M  END
$$$$
