MVP.pdb
     RDKit          3D

 23 23  0  0  1  0  0  0  0  0999 V2000
    7.4633  -11.5757   19.7064 C   0  0  0  0  0  0  0  0  0  0  0  0
    8.4360  -12.8057   18.8190 S   0  0  0  0  0  0  0  0  0  0  0  0
    8.9891  -14.1305   19.8993 C   0  0  0  0  0  0  0  0  0  0  0  0
    7.8181  -14.9035   20.4898 C   0  0  0  0  0  0  0  0  0  0  0  0
    8.4007  -15.8656   21.4988 C   0  0  2  0  0  0  0  0  0  0  0  0
    7.4120  -16.8729   21.8215 N   0  0  0  0  0  0  0  0  0  0  0  0
    8.8085  -15.1678   22.7545 C   0  0  0  0  0  0  0  0  0  0  0  0
    9.8692  -14.4995   22.8326 O   0  0  0  0  0  0  0  0  0  0  0  0
    6.1207  -13.2378   25.0493 C   0  0  0  0  0  0  0  0  0  0  0  0
    7.0131  -14.1512   25.7834 C   0  0  1  0  0  0  0  0  0  0  0  0
    6.2598  -15.4522   26.0394 C   0  0  0  0  0  0  0  0  0  0  0  0
    8.3516  -14.4604   25.1452 C   0  0  2  0  0  0  0  0  0  0  0  0
    7.9955  -15.2407   23.9163 N   0  0  0  0  0  0  0  0  0  0  0  0
    9.2157  -15.3381   25.9229 C   0  0  0  0  0  0  0  0  0  0  0  0
    9.6342  -16.4173   25.3690 O   0  0  0  0  0  0  0  0  0  0  0  0
    9.6485  -15.1158   27.2397 N   0  0  0  0  0  0  0  0  0  0  0  0
    9.0782  -14.2096   28.2088 C   0  0  0  0  0  0  0  0  0  0  0  0
   10.2905  -13.6736   28.9629 C   0  0  0  0  0  0  0  0  0  0  0  0
   11.4332  -14.5513   28.5678 C   0  0  0  0  0  0  0  0  0  0  0  0
   10.8090  -15.7283   27.9042 C   0  0  1  0  0  0  0  0  0  0  0  0
   10.3215  -16.7755   28.8081 C   0  0  0  0  0  0  0  0  0  0  0  0
   11.1799  -17.6297   29.5092 O   0  0  0  0  0  0  0  0  0  0  0  0
    9.0979  -16.9388   28.9818 O   0  0  0  0  0  0  0  0  0  0  0  0
  1  2  1  0
  2  3  1  0
  3  4  1  0
  4  5  1  0
  5  6  1  1
  7 13  1  0
  7  5  1  0
  8  7  2  0
 10  9  1  6
 10 12  1  0
 10 11  1  0
 12 13  1  6
 12 14  1  0
 14 16  1  0
 14 15  2  0
 16 20  1  0
 17 18  1  0
 17 16  1  0
 18 19  1  0
 19 20  1  0
 20 21  1  1
 21 22  1  0
 23 21  2  0
M  END
$$$$
