MVP.pdb
     RDKit          3D

 23 23  0  0  1  0  0  0  0  0999 V2000
    7.0670  -10.7034   26.6972 C   0  0  0  0  0  0  0  0  0  0  0  0
    6.7773  -12.1626   27.7136 S   0  0  0  0  0  0  0  0  0  0  0  0
    6.0255  -13.4966   26.7737 C   0  0  0  0  0  0  0  0  0  0  0  0
    7.0003  -14.1011   25.7730 C   0  0  0  0  0  0  0  0  0  0  0  0
    6.2252  -15.1294   24.9823 C   0  0  2  0  0  0  0  0  0  0  0  0
    5.8244  -16.2049   25.8649 N   0  0  0  0  0  0  0  0  0  0  0  0
    7.0403  -15.6966   23.8670 C   0  0  0  0  0  0  0  0  0  0  0  0
    7.4219  -16.8933   23.8606 O   0  0  0  0  0  0  0  0  0  0  0  0
    6.8501  -13.7687   20.1769 C   0  0  0  0  0  0  0  0  0  0  0  0
    8.1423  -14.3596   20.5649 C   0  0  1  0  0  0  0  0  0  0  0  0
    9.0421  -13.2429   21.0836 C   0  0  0  0  0  0  0  0  0  0  0  0
    8.1036  -15.4871   21.5757 C   0  0  2  0  0  0  0  0  0  0  0  0
    7.4139  -14.8860   22.7627 N   0  0  0  0  0  0  0  0  0  0  0  0
    9.4058  -15.9202   22.0642 C   0  0  0  0  0  0  0  0  0  0  0  0
    9.8181  -15.4459   23.1831 O   0  0  0  0  0  0  0  0  0  0  0  0
   10.2687  -16.8242   21.4250 N   0  0  0  0  0  0  0  0  0  0  0  0
   10.1097  -17.4112   20.1151 C   0  0  0  0  0  0  0  0  0  0  0  0
   10.6466  -18.8285   20.2839 C   0  0  0  0  0  0  0  0  0  0  0  0
   11.3546  -18.8387   21.5996 C   0  0  0  0  0  0  0  0  0  0  0  0
   11.5037  -17.4056   21.9729 C   0  0  1  0  0  0  0  0  0  0  0  0
   12.6459  -16.7129   21.3674 C   0  0  0  0  0  0  0  0  0  0  0  0
   13.9324  -16.7520   21.9167 O   0  0  0  0  0  0  0  0  0  0  0  0
   12.4999  -16.0529   20.3200 O   0  0  0  0  0  0  0  0  0  0  0  0
  1  2  1  0
  2  3  1  0
  3  4  1  0
  4  5  1  0
  5  6  1  1
  7 13  1  0
  7  5  1  0
  8  7  2  0
 10  9  1  1
 10 12  1  0
 10 11  1  0
 12 13  1  1
 12 14  1  0
 14 16  1  0
 14 15  2  0
 16 20  1  0
 17 18  1  0
 17 16  1  0
 18 19  1  0
 19 20  1  0
 20 21  1  6
 21 22  1  0
 23 21  2  0
M  END
$$$$
