MVP.pdb
     RDKit          3D

 23 23  0  0  1  0  0  0  0  0999 V2000
    9.8126  -14.3851   28.8080 C   0  0  0  0  0  0  0  0  0  0  0  0
   10.8932  -15.7932   29.1177 S   0  0  0  0  0  0  0  0  0  0  0  0
    9.9846  -17.3429   29.1455 C   0  0  0  0  0  0  0  0  0  0  0  0
    9.3924  -17.6746   27.7830 C   0  0  0  0  0  0  0  0  0  0  0  0
    7.8946  -17.5248   27.9151 C   0  0  2  0  0  0  0  0  0  0  0  0
    7.2892  -18.8384   27.9816 N   0  0  0  0  0  0  0  0  0  0  0  0
    7.3108  -16.7806   26.7595 C   0  0  0  0  0  0  0  0  0  0  0  0
    6.6654  -17.3591   25.8503 O   0  0  0  0  0  0  0  0  0  0  0  0
    7.2095  -12.2373   24.6115 C   0  0  0  0  0  0  0  0  0  0  0  0
    7.2402  -13.2001   25.7259 C   0  0  1  0  0  0  0  0  0  0  0  0
    6.0990  -12.8636   26.6799 C   0  0  0  0  0  0  0  0  0  0  0  0
    7.1779  -14.6695   25.3631 C   0  0  2  0  0  0  0  0  0  0  0  0
    7.4710  -15.3739   26.6531 N   0  0  0  0  0  0  0  0  0  0  0  0
    8.2075  -15.1182   24.4356 C   0  0  0  0  0  0  0  0  0  0  0  0
    9.2502  -15.6870   24.9215 O   0  0  0  0  0  0  0  0  0  0  0  0
    8.1711  -14.9932   23.0378 N   0  0  0  0  0  0  0  0  0  0  0  0
    7.3019  -14.1455   22.2558 C   0  0  0  0  0  0  0  0  0  0  0  0
    6.9958  -14.9819   21.0178 C   0  0  0  0  0  0  0  0  0  0  0  0
    7.9637  -16.1196   21.0489 C   0  0  0  0  0  0  0  0  0  0  0  0
    8.9840  -15.7356   22.0623 C   0  0  1  0  0  0  0  0  0  0  0  0
   10.0475  -14.8482   21.5800 C   0  0  0  0  0  0  0  0  0  0  0  0
   11.1557  -15.3149   20.8643 O   0  0  0  0  0  0  0  0  0  0  0  0
    9.9934  -13.6222   21.7994 O   0  0  0  0  0  0  0  0  0  0  0  0
  1  2  1  0
  2  3  1  0
  3  4  1  0
  4  5  1  0
  5  6  1  6
  7 13  1  0
  7  5  1  0
  8  7  2  0
 10  9  1  6
 10 12  1  0
 10 11  1  0
 12 13  1  1
 12 14  1  0
 14 16  1  0
 14 15  2  0
 16 20  1  0
 17 18  1  0
 17 16  1  0
 18 19  1  0
 19 20  1  0
 20 21  1  6
 21 22  1  0
 23 21  2  0
M  END
$$$$
