MVP.pdb
     RDKit          3D

 23 23  0  0  1  0  0  0  0  0999 V2000
    8.7644  -11.5730   19.4195 C   0  0  0  0  0  0  0  0  0  0  0  0
    9.0243  -12.8688   18.1947 S   0  0  0  0  0  0  0  0  0  0  0  0
    8.8236  -14.5089   18.9002 C   0  0  0  0  0  0  0  0  0  0  0  0
    7.7966  -14.5182   20.0239 C   0  0  0  0  0  0  0  0  0  0  0  0
    7.7754  -15.9239   20.5779 C   0  0  2  0  0  0  0  0  0  0  0  0
    7.0583  -16.7855   19.6615 N   0  0  0  0  0  0  0  0  0  0  0  0
    7.1122  -15.9799   21.9146 C   0  0  0  0  0  0  0  0  0  0  0  0
    5.8678  -15.8723   22.0474 O   0  0  0  0  0  0  0  0  0  0  0  0
    6.2270  -18.2574   24.2439 C   0  0  0  0  0  0  0  0  0  0  0  0
    7.1001  -17.3423   24.9989 C   0  0  1  0  0  0  0  0  0  0  0  0
    8.4689  -17.9989   25.1442 C   0  0  0  0  0  0  0  0  0  0  0  0
    7.2682  -15.9429   24.4442 C   0  0  2  0  0  0  0  0  0  0  0  0
    7.8818  -16.1594   23.0942 N   0  0  0  0  0  0  0  0  0  0  0  0
    8.2136  -15.1037   25.1679 C   0  0  0  0  0  0  0  0  0  0  0  0
    9.4350  -15.0940   24.7743 O   0  0  0  0  0  0  0  0  0  0  0  0
    7.9169  -14.2861   26.2698 N   0  0  0  0  0  0  0  0  0  0  0  0
    6.6343  -14.1080   26.9091 C   0  0  0  0  0  0  0  0  0  0  0  0
    6.6231  -12.6332   27.2973 C   0  0  0  0  0  0  0  0  0  0  0  0
    8.0290  -12.1585   27.1232 C   0  0  0  0  0  0  0  0  0  0  0  0
    8.8439  -13.3963   26.9856 C   0  0  1  0  0  0  0  0  0  0  0  0
    9.2222  -14.0444   28.2458 C   0  0  0  0  0  0  0  0  0  0  0  0
    8.6653  -15.2559   28.6705 O   0  0  0  0  0  0  0  0  0  0  0  0
   10.0718  -13.5215   28.9934 O   0  0  0  0  0  0  0  0  0  0  0  0
  1  2  1  0
  2  3  1  0
  3  4  1  0
  4  5  1  0
  5  6  1  6
  7 13  1  0
  7  5  1  0
  8  7  2  0
 10  9  1  6
 10 12  1  0
 10 11  1  0
 12 13  1  6
 12 14  1  0
 14 16  1  0
 14 15  2  0
 16 20  1  0
 17 18  1  0
 17 16  1  0
 18 19  1  0
 19 20  1  0
 20 21  1  1
 21 22  1  0
 23 21  2  0
M  END
$$$$
