MVP.pdb
     RDKit          3D

 23 23  0  0  1  0  0  0  0  0999 V2000
    9.9961  -20.5758   23.2900 C   0  0  0  0  0  0  0  0  0  0  0  0
    9.7036  -20.4389   21.5174 S   0  0  0  0  0  0  0  0  0  0  0  0
    9.1091  -18.8064   21.0597 C   0  0  0  0  0  0  0  0  0  0  0  0
    9.7552  -17.7141   21.9003 C   0  0  0  0  0  0  0  0  0  0  0  0
    9.0034  -16.4378   21.6017 C   0  0  2  0  0  0  0  0  0  0  0  0
    9.4909  -15.8784   20.3583 N   0  0  0  0  0  0  0  0  0  0  0  0
    9.1777  -15.4281   22.6880 C   0  0  0  0  0  0  0  0  0  0  0  0
   10.1732  -14.6637   22.7356 O   0  0  0  0  0  0  0  0  0  0  0  0
    6.1838  -14.9576   25.8984 C   0  0  0  0  0  0  0  0  0  0  0  0
    7.0940  -13.9525   25.3231 C   0  0  1  0  0  0  0  0  0  0  0  0
    7.2343  -12.8079   26.3210 C   0  0  0  0  0  0  0  0  0  0  0  0
    8.4697  -14.4321   24.9086 C   0  0  2  0  0  0  0  0  0  0  0  0
    8.2066  -15.3007   23.7160 N   0  0  0  0  0  0  0  0  0  0  0  0
    9.1374  -15.2942   25.8744 C   0  0  0  0  0  0  0  0  0  0  0  0
    9.3712  -16.5099   25.5367 O   0  0  0  0  0  0  0  0  0  0  0  0
    9.5628  -14.9210   27.1591 N   0  0  0  0  0  0  0  0  0  0  0  0
    9.0239  -13.8700   27.9902 C   0  0  0  0  0  0  0  0  0  0  0  0
   10.2505  -13.2958   28.6913 C   0  0  0  0  0  0  0  0  0  0  0  0
   11.3547  -14.2694   28.4366 C   0  0  0  0  0  0  0  0  0  0  0  0
   10.6835  -15.4935   27.9204 C   0  0  1  0  0  0  0  0  0  0  0  0
   10.1341  -16.3893   28.9436 C   0  0  0  0  0  0  0  0  0  0  0  0
   10.9291  -17.2754   29.6792 O   0  0  0  0  0  0  0  0  0  0  0  0
    8.9128  -16.3870   29.1935 O   0  0  0  0  0  0  0  0  0  0  0  0
  1  2  1  0
  2  3  1  0
  3  4  1  0
  4  5  1  0
  5  6  1  6
  7 13  1  0
  7  5  1  0
  8  7  2  0
 10  9  1  1
 10 12  1  0
 10 11  1  0
 12 13  1  6
 12 14  1  0
 14 16  1  0
 14 15  2  0
 16 20  1  0
 17 18  1  0
 17 16  1  0
 18 19  1  0
 19 20  1  0
 20 21  1  1
 21 22  1  0
 23 21  2  0
M  END
$$$$
