MVP.pdb
     RDKit          3D

 23 23  0  0  1  0  0  0  0  0999 V2000
    9.2658  -11.6321   19.5534 C   0  0  0  0  0  0  0  0  0  0  0  0
    8.0111  -12.4733   18.5711 S   0  0  0  0  0  0  0  0  0  0  0  0
    7.6119  -14.0933   19.2376 C   0  0  0  0  0  0  0  0  0  0  0  0
    8.8463  -14.8008   19.7788 C   0  0  0  0  0  0  0  0  0  0  0  0
    8.3762  -16.1252   20.3340 C   0  0  2  0  0  0  0  0  0  0  0  0
    7.5110  -16.7666   19.3663 N   0  0  0  0  0  0  0  0  0  0  0  0
    7.6265  -15.9518   21.6138 C   0  0  0  0  0  0  0  0  0  0  0  0
    6.4142  -15.6236   21.6381 O   0  0  0  0  0  0  0  0  0  0  0  0
    7.0005  -17.6044   26.0735 C   0  0  0  0  0  0  0  0  0  0  0  0
    7.4406  -17.4393   24.6776 C   0  0  1  0  0  0  0  0  0  0  0  0
    6.5259  -18.2727   23.7863 C   0  0  0  0  0  0  0  0  0  0  0  0
    7.5108  -16.0231   24.1448 C   0  0  2  0  0  0  0  0  0  0  0  0
    8.2729  -16.1562   22.8613 N   0  0  0  0  0  0  0  0  0  0  0  0
    8.2855  -15.0970   24.9596 C   0  0  0  0  0  0  0  0  0  0  0  0
    9.5373  -14.9728   24.7058 O   0  0  0  0  0  0  0  0  0  0  0  0
    7.7907  -14.3088   26.0106 N   0  0  0  0  0  0  0  0  0  0  0  0
    6.4105  -14.1247   26.3938 C   0  0  0  0  0  0  0  0  0  0  0  0
    6.3443  -12.6631   26.8240 C   0  0  0  0  0  0  0  0  0  0  0  0
    7.7637  -12.2122   26.9439 C   0  0  0  0  0  0  0  0  0  0  0  0
    8.5724  -13.4615   26.9241 C   0  0  1  0  0  0  0  0  0  0  0  0
    8.6881  -14.1569   28.2103 C   0  0  0  0  0  0  0  0  0  0  0  0
    7.9808  -15.3283   28.5034 O   0  0  0  0  0  0  0  0  0  0  0  0
    9.4385  -13.7134   29.1015 O   0  0  0  0  0  0  0  0  0  0  0  0
  1  2  1  0
  2  3  1  0
  3  4  1  0
  4  5  1  0
  5  6  1  6
  7 13  1  0
  7  5  1  0
  8  7  2  0
 10  9  1  1
 10 12  1  0
 10 11  1  0
 12 13  1  6
 12 14  1  0
 14 16  1  0
 14 15  2  0
 16 20  1  0
 17 18  1  0
 17 16  1  0
 18 19  1  0
 19 20  1  0
 20 21  1  1
 21 22  1  0
 23 21  2  0
M  END
$$$$
