MVP.pdb
     RDKit          3D

 23 23  0  0  1  0  0  0  0  0999 V2000
    6.6563  -20.0813   28.6391 C   0  0  0  0  0  0  0  0  0  0  0  0
    7.0524  -21.4868   27.5836 S   0  0  0  0  0  0  0  0  0  0  0  0
    7.2274  -21.0046   25.8618 C   0  0  0  0  0  0  0  0  0  0  0  0
    7.9734  -19.6855   25.7180 C   0  0  0  0  0  0  0  0  0  0  0  0
    7.9866  -19.3553   24.2436 C   0  0  2  0  0  0  0  0  0  0  0  0
    8.8886  -20.2597   23.5617 N   0  0  0  0  0  0  0  0  0  0  0  0
    8.4308  -17.9511   23.9968 C   0  0  0  0  0  0  0  0  0  0  0  0
    9.6323  -17.6019   24.1067 O   0  0  0  0  0  0  0  0  0  0  0  0
    7.3173  -13.5105   22.1653 C   0  0  0  0  0  0  0  0  0  0  0  0
    7.3823  -14.9742   22.3169 C   0  0  1  0  0  0  0  0  0  0  0  0
    8.2542  -15.5325   21.1972 C   0  0  0  0  0  0  0  0  0  0  0  0
    7.8717  -15.5035   23.6491 C   0  0  2  0  0  0  0  0  0  0  0  0
    7.4920  -16.9531   23.6246 N   0  0  0  0  0  0  0  0  0  0  0  0
    7.1996  -14.9481   24.8161 C   0  0  0  0  0  0  0  0  0  0  0  0
    6.1397  -15.5358   25.2379 O   0  0  0  0  0  0  0  0  0  0  0  0
    7.6047  -13.8167   25.5417 N   0  0  0  0  0  0  0  0  0  0  0  0
    8.7462  -12.9710   25.2820 C   0  0  0  0  0  0  0  0  0  0  0  0
    9.2444  -12.5951   26.6735 C   0  0  0  0  0  0  0  0  0  0  0  0
    8.1607  -13.0068   27.6160 C   0  0  0  0  0  0  0  0  0  0  0  0
    6.9760  -13.2729   26.7552 C   0  0  1  0  0  0  0  0  0  0  0  0
    6.1940  -12.0910   26.3776 C   0  0  0  0  0  0  0  0  0  0  0  0
    6.3817  -11.4148   25.1670 O   0  0  0  0  0  0  0  0  0  0  0  0
    5.3180  -11.6436   27.1435 O   0  0  0  0  0  0  0  0  0  0  0  0
  1  2  1  0
  2  3  1  0
  3  4  1  0
  4  5  1  0
  5  6  1  6
  7 13  1  0
  7  5  1  0
  8  7  2  0
 10  9  1  1
 10 12  1  0
 10 11  1  0
 12 13  1  6
 12 14  1  0
 14 16  1  0
 14 15  2  0
 16 20  1  0
 17 18  1  0
 17 16  1  0
 18 19  1  0
 19 20  1  0
 20 21  1  6
 21 22  1  0
 23 21  2  0
M  END
$$$$
