MVP.pdb
     RDKit          3D

 23 23  0  0  1  0  0  0  0  0999 V2000
   10.8426  -20.7811   23.2116 C   0  0  0  0  0  0  0  0  0  0  0  0
   12.1832  -19.7056   22.6707 S   0  0  0  0  0  0  0  0  0  0  0  0
   11.5816  -18.0964   22.1446 C   0  0  0  0  0  0  0  0  0  0  0  0
   10.0716  -17.9802   22.2986 C   0  0  0  0  0  0  0  0  0  0  0  0
    9.6993  -16.5825   21.8616 C   0  0  2  0  0  0  0  0  0  0  0  0
   10.6300  -16.1381   20.8454 N   0  0  0  0  0  0  0  0  0  0  0  0
    9.7330  -15.6204   23.0032 C   0  0  0  0  0  0  0  0  0  0  0  0
   10.7589  -14.9516   23.2825 O   0  0  0  0  0  0  0  0  0  0  0  0
    6.9156  -13.6126   26.6264 C   0  0  0  0  0  0  0  0  0  0  0  0
    7.2393  -14.1433   25.2910 C   0  0  1  0  0  0  0  0  0  0  0  0
    6.8666  -13.0887   24.2544 C   0  0  0  0  0  0  0  0  0  0  0  0
    8.6668  -14.5945   25.0611 C   0  0  2  0  0  0  0  0  0  0  0  0
    8.5872  -15.4304   23.8198 N   0  0  0  0  0  0  0  0  0  0  0  0
    9.2057  -15.4771   26.0870 C   0  0  0  0  0  0  0  0  0  0  0  0
    9.3243  -16.7240   25.8079 O   0  0  0  0  0  0  0  0  0  0  0  0
    9.6204  -15.0932   27.3721 N   0  0  0  0  0  0  0  0  0  0  0  0
    9.1489  -13.9688   28.1461 C   0  0  0  0  0  0  0  0  0  0  0  0
   10.3976  -13.4761   28.8697 C   0  0  0  0  0  0  0  0  0  0  0  0
   11.4202  -14.5502   28.6887 C   0  0  0  0  0  0  0  0  0  0  0  0
   10.6617  -15.7307   28.1923 C   0  0  1  0  0  0  0  0  0  0  0  0
   10.0034  -16.5362   29.2263 C   0  0  0  0  0  0  0  0  0  0  0  0
   10.7009  -17.4275   30.0493 O   0  0  0  0  0  0  0  0  0  0  0  0
    8.7730  -16.4478   29.4060 O   0  0  0  0  0  0  0  0  0  0  0  0
  1  2  1  0
  2  3  1  0
  3  4  1  0
  4  5  1  0
  5  6  1  6
  7 13  1  0
  7  5  1  0
  8  7  2  0
 10  9  1  1
 10 12  1  0
 10 11  1  0
 12 13  1  6
 12 14  1  0
 14 16  1  0
 14 15  2  0
 16 20  1  0
 17 18  1  0
 17 16  1  0
 18 19  1  0
 19 20  1  0
 20 21  1  1
 21 22  1  0
 23 21  2  0
M  END
$$$$
