EIT.pdb
     RDKit          3D

 25 24  0  0  1  0  0  0  0  0999 V2000
   21.8991  -10.9046  -19.9644 N   0  0  0  0  0  0  0  0  0  0  0  0
   21.0718  -10.9582  -18.8242 C   0  0  1  0  0  0  0  0  0  0  0  0
   20.4372  -12.2760  -18.5908 C   0  0  0  0  0  0  0  0  0  0  0  0
   21.2668  -13.4129  -19.0613 C   0  0  0  0  0  0  0  0  0  0  0  0
   20.7050  -14.7522  -18.8713 C   0  0  0  0  0  0  0  0  0  0  0  0
   21.2285  -15.8423  -19.1809 O   0  0  0  0  0  0  0  0  0  0  0  0
   21.7374  -10.4317  -17.5907 C   0  0  0  0  0  0  0  0  0  0  0  0
   21.1397  -10.4814  -16.4616 O   0  0  0  0  0  0  0  0  0  0  0  0
   19.4212  -14.9038  -18.2712 O   0  0  0  0  0  0  0  0  0  0  0  0
   26.8239  -11.4750  -15.9694 C   0  0  0  0  0  0  0  0  0  0  0  0
   25.3716  -11.1507  -16.2408 C   0  0  0  0  0  0  0  0  0  0  0  0
   25.0039   -9.7166  -16.0702 C   0  0  2  0  0  0  0  0  0  0  0  0
   25.5495   -9.1319  -14.7700 C   0  0  0  0  0  0  0  0  0  0  0  0
   23.6277   -9.3123  -16.3694 C   0  0  2  0  0  0  0  0  0  0  0  0
   23.0060   -9.8612  -17.5303 N   0  0  0  0  0  0  0  0  0  0  0  0
   23.4557   -7.8497  -16.2591 C   0  0  0  0  0  0  0  0  0  0  0  0
   24.2176   -7.0410  -16.9030 O   0  0  0  0  0  0  0  0  0  0  0  0
   21.0591   -5.5331  -17.5944 C   0  0  0  0  0  0  0  0  0  0  0  0
   21.0746   -5.2858  -16.1258 C   0  0  1  0  0  0  0  0  0  0  0  0
   20.0169   -5.9649  -15.5217 O   0  0  0  0  0  0  0  0  0  0  0  0
   22.3451   -5.7349  -15.4267 C   0  0  2  0  0  0  0  0  0  0  0  0
   22.4773   -7.1855  -15.4722 N   0  0  0  0  0  0  0  0  0  0  0  0
   22.3665   -5.3092  -14.0216 C   0  0  0  0  0  0  0  0  0  0  0  0
   22.4240   -4.0020  -13.5723 O   0  0  0  0  0  0  0  0  0  0  0  0
   22.3311   -6.2058  -13.1107 O   0  0  0  0  0  0  0  0  0  0  0  0
  2  1  1  6
  3  2  1  0
  4  3  1  0
  5  4  1  0
  6  5  2  0
  7  2  1  0
  7  8  2  0
  9  5  1  0
 10 11  1  0
 11 12  1  0
 12 14  1  0
 12 13  1  1
 14 15  1  6
 15  7  1  0
 16 14  1  0
 17 16  2  0
 19 20  1  0
 19 18  1  6
 21 22  1  1
 21 19  1  0
 22 16  1  0
 23 21  1  0
 24 23  1  0
 25 23  2  0
M  END
$$$$
