EIT.pdb
     RDKit          3D

 25 24  0  0  1  0  0  0  0  0999 V2000
   20.7626  -10.6644  -20.0325 N   0  0  0  0  0  0  0  0  0  0  0  0
   19.6682  -10.1527  -19.3060 C   0  0  1  0  0  0  0  0  0  0  0  0
   18.5048  -11.0662  -19.2288 C   0  0  0  0  0  0  0  0  0  0  0  0
   17.9672  -11.4376  -20.5611 C   0  0  0  0  0  0  0  0  0  0  0  0
   16.6756  -12.1283  -20.5731 C   0  0  0  0  0  0  0  0  0  0  0  0
   15.5555  -11.6409  -20.3160 O   0  0  0  0  0  0  0  0  0  0  0  0
   20.0536   -9.6229  -17.9596 C   0  0  0  0  0  0  0  0  0  0  0  0
   19.1556   -9.2465  -17.1312 O   0  0  0  0  0  0  0  0  0  0  0  0
   16.6149  -13.5124  -20.9074 O   0  0  0  0  0  0  0  0  0  0  0  0
   23.6939  -12.1291  -14.8785 C   0  0  0  0  0  0  0  0  0  0  0  0
   22.5483  -11.3540  -15.4908 C   0  0  0  0  0  0  0  0  0  0  0  0
   22.6843   -9.8715  -15.4247 C   0  0  2  0  0  0  0  0  0  0  0  0
   22.9382   -9.3782  -14.0026 C   0  0  0  0  0  0  0  0  0  0  0  0
   21.7273   -9.0524  -16.1732 C   0  0  2  0  0  0  0  0  0  0  0  0
   21.3535   -9.4856  -17.4801 N   0  0  0  0  0  0  0  0  0  0  0  0
   22.0804   -7.6194  -16.1188 C   0  0  0  0  0  0  0  0  0  0  0  0
   23.1611   -7.1809  -16.6563 O   0  0  0  0  0  0  0  0  0  0  0  0
   20.4422   -4.6535  -17.6858 C   0  0  0  0  0  0  0  0  0  0  0  0
   20.6013   -4.3691  -16.2326 C   0  0  1  0  0  0  0  0  0  0  0  0
   19.4052   -4.6334  -15.5662 O   0  0  0  0  0  0  0  0  0  0  0  0
   21.6798   -5.1881  -15.5467 C   0  0  2  0  0  0  0  0  0  0  0  0
   21.3111   -6.5974  -15.5015 N   0  0  0  0  0  0  0  0  0  0  0  0
   21.9177   -4.7247  -14.1740 C   0  0  0  0  0  0  0  0  0  0  0  0
   22.4679   -3.5074  -13.8142 O   0  0  0  0  0  0  0  0  0  0  0  0
   21.5984   -5.4951  -13.2048 O   0  0  0  0  0  0  0  0  0  0  0  0
  2  1  1  1
  3  2  1  0
  4  3  1  0
  5  4  1  0
  6  5  2  0
  7  2  1  0
  7  8  2  0
  9  5  1  0
 10 11  1  0
 11 12  1  0
 12 14  1  0
 12 13  1  1
 14 15  1  6
 15  7  1  0
 16 14  1  0
 17 16  2  0
 19 20  1  0
 19 18  1  6
 21 22  1  1
 21 19  1  0
 22 16  1  0
 23 21  1  0
 24 23  1  0
 25 23  2  0
M  END
$$$$
