EIT.pdb
     RDKit          3D

 25 24  0  0  1  0  0  0  0  0999 V2000
   17.3402  -11.4308  -16.7945 N   0  0  0  0  0  0  0  0  0  0  0  0
   18.0397  -10.2810  -17.2142 C   0  0  1  0  0  0  0  0  0  0  0  0
   17.1717   -9.1535  -17.6254 C   0  0  0  0  0  0  0  0  0  0  0  0
   16.5479   -9.3547  -18.9567 C   0  0  0  0  0  0  0  0  0  0  0  0
   15.8143  -10.6077  -19.1499 C   0  0  0  0  0  0  0  0  0  0  0  0
   16.1839  -11.6074  -19.7999 O   0  0  0  0  0  0  0  0  0  0  0  0
   19.0952   -9.8493  -16.2440 C   0  0  0  0  0  0  0  0  0  0  0  0
   18.9143   -9.9895  -14.9862 O   0  0  0  0  0  0  0  0  0  0  0  0
   14.5287  -10.7751  -18.5581 O   0  0  0  0  0  0  0  0  0  0  0  0
   24.7014  -10.6977  -14.6028 C   0  0  0  0  0  0  0  0  0  0  0  0
   23.6045   -9.6567  -14.6358 C   0  0  0  0  0  0  0  0  0  0  0  0
   22.5261   -9.9094  -15.6329 C   0  0  2  0  0  0  0  0  0  0  0  0
   23.0841  -10.2577  -17.0103 C   0  0  0  0  0  0  0  0  0  0  0  0
   21.3865   -8.9892  -15.6713 C   0  0  2  0  0  0  0  0  0  0  0  0
   20.3216   -9.2794  -16.5752 N   0  0  0  0  0  0  0  0  0  0  0  0
   21.8279   -7.5812  -15.7319 C   0  0  0  0  0  0  0  0  0  0  0  0
   22.5297   -7.1470  -16.7159 O   0  0  0  0  0  0  0  0  0  0  0  0
   20.1370   -4.4983  -16.4985 C   0  0  0  0  0  0  0  0  0  0  0  0
   20.7877   -4.2867  -15.1756 C   0  0  1  0  0  0  0  0  0  0  0  0
   19.8650   -4.5117  -14.1545 O   0  0  0  0  0  0  0  0  0  0  0  0
   21.9745   -5.1943  -14.9071 C   0  0  2  0  0  0  0  0  0  0  0  0
   21.5461   -6.5800  -14.7646 N   0  0  0  0  0  0  0  0  0  0  0  0
   22.6895   -4.8001  -13.6868 C   0  0  0  0  0  0  0  0  0  0  0  0
   23.3680   -3.6098  -13.4945 O   0  0  0  0  0  0  0  0  0  0  0  0
   22.7038   -5.6105  -12.6979 O   0  0  0  0  0  0  0  0  0  0  0  0
  2  1  1  1
  3  2  1  0
  4  3  1  0
  5  4  1  0
  6  5  2  0
  7  2  1  0
  7  8  2  0
  9  5  1  0
 10 11  1  0
 11 12  1  0
 12 14  1  0
 12 13  1  6
 14 15  1  6
 15  7  1  0
 16 14  1  0
 17 16  2  0
 19 20  1  0
 19 18  1  6
 21 22  1  1
 21 19  1  0
 22 16  1  0
 23 21  1  0
 24 23  1  0
 25 23  2  0
M  END
$$$$
