EIT.pdb
     RDKit          3D

 25 24  0  0  1  0  0  0  0  0999 V2000
   13.5943  -10.7267  -13.5724 N   0  0  0  0  0  0  0  0  0  0  0  0
   14.9669  -10.4837  -13.3622 C   0  0  1  0  0  0  0  0  0  0  0  0
   15.8185  -10.7186  -14.5511 C   0  0  0  0  0  0  0  0  0  0  0  0
   15.8541  -12.1419  -14.9693 C   0  0  0  0  0  0  0  0  0  0  0  0
   16.6066  -13.0559  -14.1068 C   0  0  0  0  0  0  0  0  0  0  0  0
   17.8202  -12.9975  -13.8203 O   0  0  0  0  0  0  0  0  0  0  0  0
   15.2378   -9.1516  -12.7346 C   0  0  0  0  0  0  0  0  0  0  0  0
   14.5377   -8.1310  -13.0550 O   0  0  0  0  0  0  0  0  0  0  0  0
   15.9436  -14.1572  -13.4915 O   0  0  0  0  0  0  0  0  0  0  0  0
   14.3173   -7.5806   -7.9333 C   0  0  0  0  0  0  0  0  0  0  0  0
   14.6474   -7.7488   -9.3998 C   0  0  0  0  0  0  0  0  0  0  0  0
   16.0634   -7.4599   -9.7640 C   0  0  2  0  0  0  0  0  0  0  0  0
   16.5731   -6.1725   -9.1215 C   0  0  0  0  0  0  0  0  0  0  0  0
   16.4679   -7.6239  -11.1626 C   0  0  2  0  0  0  0  0  0  0  0  0
   16.2223   -8.8827  -11.7876 N   0  0  0  0  0  0  0  0  0  0  0  0
   17.8375   -7.1218  -11.3937 C   0  0  0  0  0  0  0  0  0  0  0  0
   18.7841   -7.3674  -10.5614 O   0  0  0  0  0  0  0  0  0  0  0  0
   20.4359   -8.3253  -13.3295 C   0  0  0  0  0  0  0  0  0  0  0  0
   20.2793   -6.9133  -13.7765 C   0  0  1  0  0  0  0  0  0  0  0  0
   19.4660   -6.8640  -14.9082 O   0  0  0  0  0  0  0  0  0  0  0  0
   19.6551   -5.9930  -12.7431 C   0  0  2  0  0  0  0  0  0  0  0  0
   18.2615   -6.3479  -12.5067 N   0  0  0  0  0  0  0  0  0  0  0  0
   19.7125   -4.5885  -13.1673 C   0  0  0  0  0  0  0  0  0  0  0  0
   18.6368   -3.8225  -13.5797 O   0  0  0  0  0  0  0  0  0  0  0  0
   20.8453   -3.9955  -13.1663 O   0  0  0  0  0  0  0  0  0  0  0  0
  2  1  1  6
  3  2  1  0
  4  3  1  0
  5  4  1  0
  6  5  2  0
  7  2  1  0
  7  8  2  0
  9  5  1  0
 10 11  1  0
 11 12  1  0
 12 14  1  0
 12 13  1  6
 14 15  1  1
 15  7  1  0
 16 14  1  0
 17 16  2  0
 19 20  1  0
 19 18  1  1
 21 22  1  6
 21 19  1  0
 22 16  1  0
 23 21  1  0
 24 23  1  0
 25 23  2  0
M  END
$$$$
