EIT.pdb
     RDKit          3D

 25 24  0  0  1  0  0  0  0  0999 V2000
   20.1475  -12.9704  -17.9528 N   0  0  0  0  0  0  0  0  0  0  0  0
   20.4345  -11.6002  -18.1183 C   0  0  1  0  0  0  0  0  0  0  0  0
   19.2462  -10.7527  -18.3701 C   0  0  0  0  0  0  0  0  0  0  0  0
   18.4528  -11.1966  -19.5429 C   0  0  0  0  0  0  0  0  0  0  0  0
   17.3315  -10.3390  -19.9335 C   0  0  0  0  0  0  0  0  0  0  0  0
   16.1759  -10.3441  -19.4616 O   0  0  0  0  0  0  0  0  0  0  0  0
   21.2963  -11.0450  -17.0270 C   0  0  0  0  0  0  0  0  0  0  0  0
   21.0157  -11.2743  -15.8010 O   0  0  0  0  0  0  0  0  0  0  0  0
   17.5072   -9.3661  -20.9601 O   0  0  0  0  0  0  0  0  0  0  0  0
   26.8624  -10.4767  -14.8721 C   0  0  0  0  0  0  0  0  0  0  0  0
   25.5070   -9.8111  -14.9617 C   0  0  0  0  0  0  0  0  0  0  0  0
   24.6232  -10.3252  -16.0459 C   0  0  2  0  0  0  0  0  0  0  0  0
   25.3621  -10.4664  -17.3742 C   0  0  0  0  0  0  0  0  0  0  0  0
   23.2789   -9.7567  -16.1740 C   0  0  2  0  0  0  0  0  0  0  0  0
   22.4336  -10.2621  -17.2062 N   0  0  0  0  0  0  0  0  0  0  0  0
   23.3065   -8.2811  -16.1209 C   0  0  0  0  0  0  0  0  0  0  0  0
   24.1509   -7.6073  -16.8153 O   0  0  0  0  0  0  0  0  0  0  0  0
   21.0947   -5.8936  -17.5901 C   0  0  0  0  0  0  0  0  0  0  0  0
   21.1666   -5.5352  -16.1463 C   0  0  1  0  0  0  0  0  0  0  0  0
   20.0867   -6.0973  -15.4662 O   0  0  0  0  0  0  0  0  0  0  0  0
   22.4263   -6.0083  -15.4437 C   0  0  2  0  0  0  0  0  0  0  0  0
   22.4480   -7.4618  -15.3404 N   0  0  0  0  0  0  0  0  0  0  0  0
   22.5345   -5.4437  -14.0927 C   0  0  0  0  0  0  0  0  0  0  0  0
   22.6365   -4.0993  -13.7826 O   0  0  0  0  0  0  0  0  0  0  0  0
   22.5384   -6.2430  -13.0947 O   0  0  0  0  0  0  0  0  0  0  0  0
  2  1  1  1
  3  2  1  0
  4  3  1  0
  5  4  1  0
  6  5  2  0
  7  2  1  0
  7  8  2  0
  9  5  1  0
 10 11  1  0
 11 12  1  0
 12 14  1  0
 12 13  1  6
 14 15  1  6
 15  7  1  0
 16 14  1  0
 17 16  2  0
 19 20  1  0
 19 18  1  6
 21 22  1  1
 21 19  1  0
 22 16  1  0
 23 21  1  0
 24 23  1  0
 25 23  2  0
M  END
$$$$
