EIT.pdb
     RDKit          3D

 25 24  0  0  1  0  0  0  0  0999 V2000
   28.4110  -21.5761  -15.3040 N   0  0  0  0  0  0  0  0  0  0  0  0
   27.9811  -20.5935  -14.3892 C   0  0  1  0  0  0  0  0  0  0  0  0
   27.9483  -19.2187  -14.9392 C   0  0  0  0  0  0  0  0  0  0  0  0
   28.3027  -19.1593  -16.3790 C   0  0  0  0  0  0  0  0  0  0  0  0
   27.1901  -18.9986  -17.3179 C   0  0  0  0  0  0  0  0  0  0  0  0
   26.2419  -18.1909  -17.2349 O   0  0  0  0  0  0  0  0  0  0  0  0
   26.7000  -20.9517  -13.7020 C   0  0  0  0  0  0  0  0  0  0  0  0
   25.8726  -21.7552  -14.2535 O   0  0  0  0  0  0  0  0  0  0  0  0
   27.1175  -19.8219  -18.4789 O   0  0  0  0  0  0  0  0  0  0  0  0
   26.5833  -20.4269   -8.2720 C   0  0  0  0  0  0  0  0  0  0  0  0
   26.2905  -21.2072   -9.5343 C   0  0  0  0  0  0  0  0  0  0  0  0
   25.0976  -20.7445  -10.2985 C   0  0  2  0  0  0  0  0  0  0  0  0
   23.7890  -21.1839   -9.6469 C   0  0  0  0  0  0  0  0  0  0  0  0
   25.1095  -20.8862  -11.7568 C   0  0  2  0  0  0  0  0  0  0  0  0
   26.2835  -20.4819  -12.4593 N   0  0  0  0  0  0  0  0  0  0  0  0
   23.8665  -20.3673  -12.3624 C   0  0  0  0  0  0  0  0  0  0  0  0
   23.6117  -19.1088  -12.3805 O   0  0  0  0  0  0  0  0  0  0  0  0
   22.7236  -20.4601  -15.9352 C   0  0  0  0  0  0  0  0  0  0  0  0
   21.6223  -20.9947  -15.0869 C   0  0  1  0  0  0  0  0  0  0  0  0
   21.6479  -22.3889  -15.1036 O   0  0  0  0  0  0  0  0  0  0  0  0
   21.6874  -20.5687  -13.6313 C   0  0  2  0  0  0  0  0  0  0  0  0
   22.8501  -21.1499  -12.9722 N   0  0  0  0  0  0  0  0  0  0  0  0
   20.4834  -20.9756  -12.8960 C   0  0  0  0  0  0  0  0  0  0  0  0
   19.2105  -20.4666  -13.0817 O   0  0  0  0  0  0  0  0  0  0  0  0
   20.5921  -21.8785  -11.9972 O   0  0  0  0  0  0  0  0  0  0  0  0
  2  1  1  6
  3  2  1  0
  4  3  1  0
  5  4  1  0
  6  5  2  0
  7  2  1  0
  7  8  2  0
  9  5  1  0
 10 11  1  0
 11 12  1  0
 12 14  1  0
 12 13  1  1
 14 15  1  6
 15  7  1  0
 16 14  1  0
 17 16  2  0
 19 20  1  0
 19 18  1  6
 21 22  1  1
 21 19  1  0
 22 16  1  0
 23 21  1  0
 24 23  1  0
 25 23  2  0
M  END
$$$$
