EIT.pdb
     RDKit          3D

 25 24  0  0  1  0  0  0  0  0999 V2000
   17.9753  -11.9543  -17.2360 N   0  0  0  0  0  0  0  0  0  0  0  0
   18.5925  -10.7024  -17.4336 C   0  0  1  0  0  0  0  0  0  0  0  0
   17.6515   -9.5961  -17.7246 C   0  0  0  0  0  0  0  0  0  0  0  0
   16.9269   -9.7710  -19.0077 C   0  0  0  0  0  0  0  0  0  0  0  0
   15.9656   -8.7238  -19.3612 C   0  0  0  0  0  0  0  0  0  0  0  0
   16.1826   -7.6943  -20.0330 O   0  0  0  0  0  0  0  0  0  0  0  0
   19.5565  -10.3448  -16.3452 C   0  0  0  0  0  0  0  0  0  0  0  0
   19.1779  -10.3312  -15.1242 O   0  0  0  0  0  0  0  0  0  0  0  0
   14.6131   -8.8261  -18.9238 O   0  0  0  0  0  0  0  0  0  0  0  0
   22.4457  -12.5027  -14.1006 C   0  0  0  0  0  0  0  0  0  0  0  0
   22.9468  -11.8438  -15.3666 C   0  0  0  0  0  0  0  0  0  0  0  0
   23.0301  -10.3569  -15.3124 C   0  0  2  0  0  0  0  0  0  0  0  0
   23.8910   -9.8693  -14.1500 C   0  0  0  0  0  0  0  0  0  0  0  0
   21.7991   -9.5851  -15.5017 C   0  0  2  0  0  0  0  0  0  0  0  0
   20.8953  -10.0058  -16.5222 N   0  0  0  0  0  0  0  0  0  0  0  0
   22.0681   -8.1332  -15.5310 C   0  0  0  0  0  0  0  0  0  0  0  0
   22.9300   -7.6338  -16.3413 O   0  0  0  0  0  0  0  0  0  0  0  0
   19.9800   -5.3687  -16.7081 C   0  0  0  0  0  0  0  0  0  0  0  0
   20.4125   -5.0176  -15.3269 C   0  0  1  0  0  0  0  0  0  0  0  0
   19.4063   -5.3470  -14.4192 O   0  0  0  0  0  0  0  0  0  0  0  0
   21.6737   -5.7250  -14.8648 C   0  0  2  0  0  0  0  0  0  0  0  0
   21.4404   -7.1556  -14.7138 N   0  0  0  0  0  0  0  0  0  0  0  0
   22.1511   -5.1930  -13.5823 C   0  0  0  0  0  0  0  0  0  0  0  0
   22.5996   -3.9039  -13.3569 O   0  0  0  0  0  0  0  0  0  0  0  0
   22.1656   -5.9690  -12.5661 O   0  0  0  0  0  0  0  0  0  0  0  0
  2  1  1  1
  3  2  1  0
  4  3  1  0
  5  4  1  0
  6  5  2  0
  7  2  1  0
  7  8  2  0
  9  5  1  0
 10 11  1  0
 11 12  1  0
 12 14  1  0
 12 13  1  1
 14 15  1  6
 15  7  1  0
 16 14  1  0
 17 16  2  0
 19 20  1  0
 19 18  1  6
 21 22  1  1
 21 19  1  0
 22 16  1  0
 23 21  1  0
 24 23  1  0
 25 23  2  0
M  END
$$$$
