EIT.pdb
     RDKit          3D

 25 24  0  0  1  0  0  0  0  0999 V2000
   27.1255  -24.0420  -15.9978 N   0  0  0  0  0  0  0  0  0  0  0  0
   26.6100  -22.7356  -15.8769 C   0  0  1  0  0  0  0  0  0  0  0  0
   26.1185  -22.1523  -17.1467 C   0  0  0  0  0  0  0  0  0  0  0  0
   27.2023  -21.8972  -18.1277 C   0  0  0  0  0  0  0  0  0  0  0  0
   28.1974  -20.8902  -17.7522 C   0  0  0  0  0  0  0  0  0  0  0  0
   29.4375  -21.0294  -17.7174 O   0  0  0  0  0  0  0  0  0  0  0  0
   25.6065  -22.6002  -14.7740 C   0  0  0  0  0  0  0  0  0  0  0  0
   24.7194  -23.5027  -14.5920 O   0  0  0  0  0  0  0  0  0  0  0  0
   27.7751  -19.5829  -17.3733 O   0  0  0  0  0  0  0  0  0  0  0  0
   26.8667  -20.7171   -9.7560 C   0  0  0  0  0  0  0  0  0  0  0  0
   26.3325  -21.4433  -10.9706 C   0  0  0  0  0  0  0  0  0  0  0  0
   25.0629  -20.8940  -11.5251 C   0  0  2  0  0  0  0  0  0  0  0  0
   23.9736  -20.7741  -10.4626 C   0  0  0  0  0  0  0  0  0  0  0  0
   24.5835  -21.4139  -12.8083 C   0  0  2  0  0  0  0  0  0  0  0  0
   25.5248  -21.5423  -13.8726 N   0  0  0  0  0  0  0  0  0  0  0  0
   23.3274  -20.7578  -13.2243 C   0  0  0  0  0  0  0  0  0  0  0  0
   23.2761  -19.4911  -13.4292 O   0  0  0  0  0  0  0  0  0  0  0  0
   21.4819  -21.1623  -16.4034 C   0  0  0  0  0  0  0  0  0  0  0  0
   20.4921  -21.3343  -15.3039 C   0  0  1  0  0  0  0  0  0  0  0  0
   20.2725  -22.6923  -15.0749 O   0  0  0  0  0  0  0  0  0  0  0  0
   20.9132  -20.7250  -13.9788 C   0  0  2  0  0  0  0  0  0  0  0  0
   22.0835  -21.4080  -13.4423 N   0  0  0  0  0  0  0  0  0  0  0  0
   19.8350  -20.7981  -12.9849 C   0  0  0  0  0  0  0  0  0  0  0  0
   18.6348  -20.1122  -13.0401 O   0  0  0  0  0  0  0  0  0  0  0  0
   19.9928  -21.5548  -11.9664 O   0  0  0  0  0  0  0  0  0  0  0  0
  2  1  1  6
  3  2  1  0
  4  3  1  0
  5  4  1  0
  6  5  2  0
  7  2  1  0
  7  8  2  0
  9  5  1  0
 10 11  1  0
 11 12  1  0
 12 14  1  0
 12 13  1  1
 14 15  1  6
 15  7  1  0
 16 14  1  0
 17 16  2  0
 19 20  1  0
 19 18  1  6
 21 22  1  1
 21 19  1  0
 22 16  1  0
 23 21  1  0
 24 23  1  0
 25 23  2  0
M  END
$$$$
