EIT.pdb
     RDKit          3D

 25 24  0  0  1  0  0  0  0  0999 V2000
   17.6407  -11.9000  -16.7279 N   0  0  0  0  0  0  0  0  0  0  0  0
   18.4868  -10.8923  -17.2336 C   0  0  1  0  0  0  0  0  0  0  0  0
   17.7846   -9.8198  -17.9756 C   0  0  0  0  0  0  0  0  0  0  0  0
   17.0664  -10.3165  -19.1754 C   0  0  0  0  0  0  0  0  0  0  0  0
   17.8266  -10.3389  -20.4272 C   0  0  0  0  0  0  0  0  0  0  0  0
   19.0475  -10.1240  -20.5739 O   0  0  0  0  0  0  0  0  0  0  0  0
   19.4222  -10.3395  -16.2034 C   0  0  0  0  0  0  0  0  0  0  0  0
   19.0837  -10.3110  -14.9709 O   0  0  0  0  0  0  0  0  0  0  0  0
   17.1636  -10.6323  -21.6541 O   0  0  0  0  0  0  0  0  0  0  0  0
   24.0786  -12.4161  -15.3285 C   0  0  0  0  0  0  0  0  0  0  0  0
   22.7587  -11.6801  -15.3944 C   0  0  0  0  0  0  0  0  0  0  0  0
   22.8602  -10.1958  -15.3083 C   0  0  2  0  0  0  0  0  0  0  0  0
   23.7408   -9.7442  -14.1461 C   0  0  0  0  0  0  0  0  0  0  0  0
   21.6361   -9.4059  -15.4651 C   0  0  2  0  0  0  0  0  0  0  0  0
   20.6915   -9.8230  -16.4495 N   0  0  0  0  0  0  0  0  0  0  0  0
   21.9274   -7.9591  -15.5205 C   0  0  0  0  0  0  0  0  0  0  0  0
   22.6792   -7.4677  -16.4384 O   0  0  0  0  0  0  0  0  0  0  0  0
   19.6515   -5.1150  -16.2715 C   0  0  0  0  0  0  0  0  0  0  0  0
   20.3441   -4.8171  -14.9871 C   0  0  1  0  0  0  0  0  0  0  0  0
   19.5250   -5.1721  -13.9158 O   0  0  0  0  0  0  0  0  0  0  0  0
   21.6604   -5.5493  -14.7988 C   0  0  2  0  0  0  0  0  0  0  0  0
   21.4379   -6.9782  -14.6173 N   0  0  0  0  0  0  0  0  0  0  0  0
   22.3983   -5.0415  -13.6355 C   0  0  0  0  0  0  0  0  0  0  0  0
   22.9784   -3.7901  -13.5277 O   0  0  0  0  0  0  0  0  0  0  0  0
   22.5333   -5.8030  -12.6172 O   0  0  0  0  0  0  0  0  0  0  0  0
  2  1  1  1
  3  2  1  0
  4  3  1  0
  5  4  1  0
  6  5  2  0
  7  2  1  0
  7  8  2  0
  9  5  1  0
 10 11  1  0
 11 12  1  0
 12 14  1  0
 12 13  1  1
 14 15  1  6
 15  7  1  0
 16 14  1  0
 17 16  2  0
 19 20  1  0
 19 18  1  6
 21 22  1  1
 21 19  1  0
 22 16  1  0
 23 21  1  0
 24 23  1  0
 25 23  2  0
M  END
$$$$
