EIT.pdb
     RDKit          3D

 25 24  0  0  1  0  0  0  0  0999 V2000
   22.1854  -21.0904   -9.7319 N   0  0  0  0  0  0  0  0  0  0  0  0
   22.2625  -20.9252  -11.1297 C   0  0  1  0  0  0  0  0  0  0  0  0
   21.0982  -20.2326  -11.7286 C   0  0  0  0  0  0  0  0  0  0  0  0
   20.6912  -20.8033  -13.0365 C   0  0  0  0  0  0  0  0  0  0  0  0
   20.1507  -22.1645  -13.0136 C   0  0  0  0  0  0  0  0  0  0  0  0
   20.7414  -23.2177  -13.3299 O   0  0  0  0  0  0  0  0  0  0  0  0
   23.5601  -20.3289  -11.5796 C   0  0  0  0  0  0  0  0  0  0  0  0
   24.0235  -19.2826  -11.0095 O   0  0  0  0  0  0  0  0  0  0  0  0
   18.8071  -22.3868  -12.5935 O   0  0  0  0  0  0  0  0  0  0  0  0
   29.2277  -20.5424  -11.4291 C   0  0  0  0  0  0  0  0  0  0  0  0
   28.1425  -20.1912  -12.4226 C   0  0  0  0  0  0  0  0  0  0  0  0
   26.7827  -20.6908  -12.0729 C   0  0  2  0  0  0  0  0  0  0  0  0
   26.7974  -22.1589  -11.6550 C   0  0  0  0  0  0  0  0  0  0  0  0
   25.6656  -20.3369  -12.9525 C   0  0  2  0  0  0  0  0  0  0  0  0
   24.3653  -20.8120  -12.6076 N   0  0  0  0  0  0  0  0  0  0  0  0
   26.0029  -20.5573  -14.3733 C   0  0  0  0  0  0  0  0  0  0  0  0
   26.2454  -21.7353  -14.8233 O   0  0  0  0  0  0  0  0  0  0  0  0
   23.7612  -19.7748  -17.4714 C   0  0  0  0  0  0  0  0  0  0  0  0
   25.1042  -19.1391  -17.5741 C   0  0  1  0  0  0  0  0  0  0  0  0
   25.0454  -17.8315  -17.0931 O   0  0  0  0  0  0  0  0  0  0  0  0
   26.1962  -19.8486  -16.7939 C   0  0  2  0  0  0  0  0  0  0  0  0
   26.0944  -19.5504  -15.3710 N   0  0  0  0  0  0  0  0  0  0  0  0
   27.5326  -19.4553  -17.2577 C   0  0  0  0  0  0  0  0  0  0  0  0
   28.0610  -19.7064  -18.5114 O   0  0  0  0  0  0  0  0  0  0  0  0
   28.2982  -18.8241  -16.4513 O   0  0  0  0  0  0  0  0  0  0  0  0
  2  1  1  1
  3  2  1  0
  4  3  1  0
  5  4  1  0
  6  5  2  0
  7  2  1  0
  7  8  2  0
  9  5  1  0
 10 11  1  0
 11 12  1  0
 12 14  1  0
 12 13  1  6
 14 15  1  1
 15  7  1  0
 16 14  1  0
 17 16  2  0
 19 20  1  0
 19 18  1  1
 21 22  1  1
 21 19  1  0
 22 16  1  0
 23 21  1  0
 24 23  1  0
 25 23  2  0
M  END
$$$$
