EIT.pdb
     RDKit          3D

 25 24  0  0  1  0  0  0  0  0999 V2000
   20.3192  -20.3788  -12.7542 N   0  0  0  0  0  0  0  0  0  0  0  0
   21.3368  -21.1494  -13.3523 C   0  0  1  0  0  0  0  0  0  0  0  0
   21.1129  -21.4517  -14.7849 C   0  0  0  0  0  0  0  0  0  0  0  0
   19.8723  -22.2285  -15.0287 C   0  0  0  0  0  0  0  0  0  0  0  0
   18.6221  -21.4660  -15.0628 C   0  0  0  0  0  0  0  0  0  0  0  0
   18.3664  -20.4647  -15.7631 O   0  0  0  0  0  0  0  0  0  0  0  0
   22.7090  -20.6042  -13.1036 C   0  0  0  0  0  0  0  0  0  0  0  0
   22.9307  -19.3479  -13.1860 O   0  0  0  0  0  0  0  0  0  0  0  0
   17.5322  -21.8538  -14.2305 O   0  0  0  0  0  0  0  0  0  0  0  0
   25.3259  -20.8662   -8.6116 C   0  0  0  0  0  0  0  0  0  0  0  0
   24.7459  -20.6278   -9.9880 C   0  0  0  0  0  0  0  0  0  0  0  0
   25.6455  -20.9849  -11.1212 C   0  0  2  0  0  0  0  0  0  0  0  0
   27.0585  -20.4399  -10.9298 C   0  0  0  0  0  0  0  0  0  0  0  0
   25.1343  -20.8379  -12.4865 C   0  0  2  0  0  0  0  0  0  0  0  0
   23.8355  -21.3532  -12.7743 N   0  0  0  0  0  0  0  0  0  0  0  0
   26.1457  -21.2281  -13.4894 C   0  0  0  0  0  0  0  0  0  0  0  0
   27.1911  -21.8943  -13.1539 O   0  0  0  0  0  0  0  0  0  0  0  0
   26.4133  -23.8702  -15.8712 C   0  0  0  0  0  0  0  0  0  0  0  0
   26.5187  -22.5938  -16.6315 C   0  0  1  0  0  0  0  0  0  0  0  0
   25.2567  -22.2071  -17.0817 O   0  0  0  0  0  0  0  0  0  0  0  0
   27.0783  -21.4310  -15.8321 C   0  0  2  0  0  0  0  0  0  0  0  0
   26.0939  -20.9356  -14.8784 N   0  0  0  0  0  0  0  0  0  0  0  0
   27.4810  -20.3210  -16.7048 C   0  0  0  0  0  0  0  0  0  0  0  0
   28.5074  -20.3510  -17.6319 O   0  0  0  0  0  0  0  0  0  0  0  0
   26.8441  -19.2155  -16.6208 O   0  0  0  0  0  0  0  0  0  0  0  0
  2  1  1  6
  3  2  1  0
  4  3  1  0
  5  4  1  0
  6  5  2  0
  7  2  1  0
  7  8  2  0
  9  5  1  0
 10 11  1  0
 11 12  1  0
 12 14  1  0
 12 13  1  6
 14 15  1  1
 15  7  1  0
 16 14  1  0
 17 16  2  0
 19 20  1  0
 19 18  1  1
 21 22  1  1
 21 19  1  0
 22 16  1  0
 23 21  1  0
 24 23  1  0
 25 23  2  0
M  END
$$$$
