EIT.pdb
     RDKit          3D

 25 24  0  0  1  0  0  0  0  0999 V2000
   18.8970  -13.4541  -17.5779 N   0  0  0  0  0  0  0  0  0  0  0  0
   19.1584  -12.1411  -18.0192 C   0  0  1  0  0  0  0  0  0  0  0  0
   18.0998  -11.5629  -18.8788 C   0  0  0  0  0  0  0  0  0  0  0  0
   17.7866  -12.4033  -20.0610 C   0  0  0  0  0  0  0  0  0  0  0  0
   16.9620  -13.5892  -19.8174 C   0  0  0  0  0  0  0  0  0  0  0  0
   15.8829  -13.6439  -19.1923 O   0  0  0  0  0  0  0  0  0  0  0  0
   19.5449  -11.2145  -16.9083 C   0  0  0  0  0  0  0  0  0  0  0  0
   18.9050  -11.2288  -15.8016 O   0  0  0  0  0  0  0  0  0  0  0  0
   17.3759  -14.8562  -20.3217 O   0  0  0  0  0  0  0  0  0  0  0  0
   24.1531  -11.0118  -14.4684 C   0  0  0  0  0  0  0  0  0  0  0  0
   22.7422  -10.9258  -15.0068 C   0  0  0  0  0  0  0  0  0  0  0  0
   22.2525   -9.5436  -15.2725 C   0  0  2  0  0  0  0  0  0  0  0  0
   22.4873   -8.6106  -14.0874 C   0  0  0  0  0  0  0  0  0  0  0  0
   20.9396   -9.3812  -15.9026 C   0  0  2  0  0  0  0  0  0  0  0  0
   20.5813  -10.2856  -16.9461 N   0  0  0  0  0  0  0  0  0  0  0  0
   20.6730   -7.9695  -16.2448 C   0  0  0  0  0  0  0  0  0  0  0  0
   21.4488   -7.3200  -17.0356 O   0  0  0  0  0  0  0  0  0  0  0  0
   17.3538   -6.4037  -17.7181 C   0  0  0  0  0  0  0  0  0  0  0  0
   17.8417   -5.6448  -16.5331 C   0  0  1  0  0  0  0  0  0  0  0  0
   17.1390   -6.0424  -15.3960 O   0  0  0  0  0  0  0  0  0  0  0  0
   19.3170   -5.8341  -16.2298 C   0  0  2  0  0  0  0  0  0  0  0  0
   19.5824   -7.1920  -15.7720 N   0  0  0  0  0  0  0  0  0  0  0  0
   19.7803   -4.8963  -15.1994 C   0  0  0  0  0  0  0  0  0  0  0  0
   19.8766   -3.5232  -15.3385 O   0  0  0  0  0  0  0  0  0  0  0  0
   20.1337   -5.3630  -14.0627 O   0  0  0  0  0  0  0  0  0  0  0  0
  2  1  1  1
  3  2  1  0
  4  3  1  0
  5  4  1  0
  6  5  2  0
  7  2  1  0
  7  8  2  0
  9  5  1  0
 10 11  1  0
 11 12  1  0
 12 14  1  0
 12 13  1  1
 14 15  1  6
 15  7  1  0
 16 14  1  0
 17 16  2  0
 19 20  1  0
 19 18  1  6
 21 22  1  1
 21 19  1  0
 22 16  1  0
 23 21  1  0
 24 23  1  0
 25 23  2  0
M  END
$$$$
