EIT.pdb
     RDKit          3D

 25 24  0  0  1  0  0  0  0  0999 V2000
   22.8153  -15.4375  -17.6979 N   0  0  0  0  0  0  0  0  0  0  0  0
   22.6265  -14.1209  -18.1648 C   0  0  1  0  0  0  0  0  0  0  0  0
   21.3067  -13.8777  -18.7915 C   0  0  0  0  0  0  0  0  0  0  0  0
   21.0185  -14.8002  -19.9175 C   0  0  0  0  0  0  0  0  0  0  0  0
   20.2044  -15.9768  -19.6040 C   0  0  0  0  0  0  0  0  0  0  0  0
   19.8116  -16.3458  -18.4780 O   0  0  0  0  0  0  0  0  0  0  0  0
   22.9589  -13.0812  -17.1398 C   0  0  0  0  0  0  0  0  0  0  0  0
   22.5338  -13.1968  -15.9396 O   0  0  0  0  0  0  0  0  0  0  0  0
   19.7757  -16.8422  -20.6521 O   0  0  0  0  0  0  0  0  0  0  0  0
   27.9375  -11.5152  -16.0541 C   0  0  0  0  0  0  0  0  0  0  0  0
   26.4721  -11.8770  -16.1517 C   0  0  0  0  0  0  0  0  0  0  0  0
   25.5381  -10.7165  -16.1938 C   0  0  2  0  0  0  0  0  0  0  0  0
   25.8444   -9.6899  -15.1064 C   0  0  0  0  0  0  0  0  0  0  0  0
   24.1081  -10.9822  -16.3711 C   0  0  2  0  0  0  0  0  0  0  0  0
   23.7218  -11.9372  -17.3580 N   0  0  0  0  0  0  0  0  0  0  0  0
   23.3285   -9.7299  -16.4429 C   0  0  0  0  0  0  0  0  0  0  0  0
   23.5286   -8.8759  -17.3809 O   0  0  0  0  0  0  0  0  0  0  0  0
   19.4215   -9.3561  -15.0088 C   0  0  0  0  0  0  0  0  0  0  0  0
   20.0679   -8.4717  -16.0179 C   0  0  1  0  0  0  0  0  0  0  0  0
   19.3708   -7.2671  -16.1051 O   0  0  0  0  0  0  0  0  0  0  0  0
   21.5142   -8.1248  -15.7144 C   0  0  2  0  0  0  0  0  0  0  0  0
   22.3108   -9.3320  -15.5355 N   0  0  0  0  0  0  0  0  0  0  0  0
   21.6291   -7.3069  -14.5004 C   0  0  0  0  0  0  0  0  0  0  0  0
   21.1714   -6.0099  -14.3515 O   0  0  0  0  0  0  0  0  0  0  0  0
   22.1997   -7.8130  -13.4742 O   0  0  0  0  0  0  0  0  0  0  0  0
  2  1  1  1
  3  2  1  0
  4  3  1  0
  5  4  1  0
  6  5  2  0
  7  2  1  0
  7  8  2  0
  9  5  1  0
 10 11  1  0
 11 12  1  0
 12 14  1  0
 12 13  1  1
 14 15  1  6
 15  7  1  0
 16 14  1  0
 17 16  2  0
 19 20  1  0
 19 18  1  1
 21 22  1  1
 21 19  1  0
 22 16  1  0
 23 21  1  0
 24 23  1  0
 25 23  2  0
M  END
$$$$
