FLG.pdb
     RDKit          3D

 24 24  0  0  1  0  0  0  0  0999 V2000
   24.8750  -19.6066  -17.5178 N   0  0  0  0  0  0  0  0  0  0  0  0
   24.2657  -19.2062  -16.2675 C   0  0  1  0  0  0  0  0  0  0  0  0
   22.7803  -18.9844  -16.4497 C   0  0  0  0  0  0  0  0  0  0  0  0
   22.6029  -17.7483  -17.2381 C   0  0  0  0  0  0  0  0  0  0  0  0
   22.7639  -16.5077  -16.6470 C   0  0  0  0  0  0  0  0  0  0  0  0
   22.6043  -15.3398  -17.3592 C   0  0  0  0  0  0  0  0  0  0  0  0
   22.2771  -15.4652  -18.6863 C   0  0  0  0  0  0  0  0  0  0  0  0
   22.1120  -16.6876  -19.2948 C   0  0  0  0  0  0  0  0  0  0  0  0
   22.2750  -17.8326  -18.5701 C   0  0  0  0  0  0  0  0  0  0  0  0
   24.5576  -20.2428  -15.2550 C   0  0  0  0  0  0  0  0  0  0  0  0
   24.5596  -21.4533  -15.5869 O   0  0  0  0  0  0  0  0  0  0  0  0
   28.0294  -21.6037  -13.8548 C   0  0  0  0  0  0  0  0  0  0  0  0
   27.6857  -20.3986  -13.0163 C   0  0  2  0  0  0  0  0  0  0  0  0
   28.8356  -20.0770  -12.0456 C   0  0  0  0  0  0  0  0  0  0  0  0
   26.4650  -20.5725  -12.2170 C   0  0  0  0  0  0  0  0  0  0  0  0
   25.1622  -20.7370  -12.9030 C   0  0  2  0  0  0  0  0  0  0  0  0
   24.8279  -19.8176  -13.9281 N   0  0  0  0  0  0  0  0  0  0  0  0
   24.0187  -20.8811  -11.9714 C   0  0  0  0  0  0  0  0  0  0  0  0
   24.1409  -21.6455  -10.9851 O   0  0  0  0  0  0  0  0  0  0  0  0
   22.7923  -20.1927  -12.1463 N   0  0  0  0  0  0  0  0  0  0  0  0
   21.7049  -20.4595  -11.2280 C   0  0  0  0  0  0  0  0  0  0  0  0
   20.6842  -21.2491  -11.9252 C   0  0  0  0  0  0  0  0  0  0  0  0
   20.8358  -21.7318  -13.0881 O   0  0  0  0  0  0  0  0  0  0  0  0
   19.4670  -21.4996  -11.2976 O   0  0  0  0  0  0  0  0  0  0  0  0
  2  1  1  6
  2  3  1  0
  4  3  1  0
  5  4  2  0
  6  5  1  0
  7  8  1  0
  7  6  2  0
  8  9  2  0
  9  4  1  0
 10 17  1  0
 10  2  1  0
 11 10  2  0
 13 12  1  1
 13 14  1  0
 16 15  1  1
 15 13  1  0
 16 17  1  0
 18 16  1  0
 19 18  2  0
 20 18  1  0
 21 20  1  0
 22 21  1  0
 23 22  2  0
 24 22  1  0
M  END
$$$$
