FLG.pdb
     RDKit          3D

 24 24  0  0  1  0  0  0  0  0999 V2000
   27.9995  -19.6320  -15.7763 N   0  0  0  0  0  0  0  0  0  0  0  0
   26.8475  -18.9727  -15.1991 C   0  0  1  0  0  0  0  0  0  0  0  0
   26.0889  -18.2069  -16.2605 C   0  0  0  0  0  0  0  0  0  0  0  0
   26.8651  -16.9920  -16.5807 C   0  0  0  0  0  0  0  0  0  0  0  0
   26.8611  -15.9078  -15.7212 C   0  0  0  0  0  0  0  0  0  0  0  0
   27.5760  -14.7631  -15.9958 C   0  0  0  0  0  0  0  0  0  0  0  0
   28.2943  -14.7489  -17.1653 C   0  0  0  0  0  0  0  0  0  0  0  0
   28.3130  -15.8146  -18.0345 C   0  0  0  0  0  0  0  0  0  0  0  0
   27.5971  -16.9395  -17.7427 C   0  0  0  0  0  0  0  0  0  0  0  0
   26.0091  -19.9952  -14.5386 C   0  0  0  0  0  0  0  0  0  0  0  0
   25.9713  -21.1617  -15.0006 O   0  0  0  0  0  0  0  0  0  0  0  0
   26.6427  -22.1097  -10.9437 C   0  0  0  0  0  0  0  0  0  0  0  0
   26.0441  -20.7626  -10.6267 C   0  0  2  0  0  0  0  0  0  0  0  0
   25.9572  -20.5613   -9.1035 C   0  0  0  0  0  0  0  0  0  0  0  0
   24.6939  -20.5798  -11.1768 C   0  0  0  0  0  0  0  0  0  0  0  0
   24.5049  -20.5391  -12.6457 C   0  0  2  0  0  0  0  0  0  0  0  0
   25.2701  -19.6076  -13.3904 N   0  0  0  0  0  0  0  0  0  0  0  0
   23.0832  -20.4563  -13.0557 C   0  0  0  0  0  0  0  0  0  0  0  0
   22.4787  -19.3677  -12.9087 O   0  0  0  0  0  0  0  0  0  0  0  0
   22.3762  -21.5539  -13.6072 N   0  0  0  0  0  0  0  0  0  0  0  0
   21.0044  -21.3602  -14.0282 C   0  0  0  0  0  0  0  0  0  0  0  0
   20.1218  -21.6108  -12.8838 C   0  0  0  0  0  0  0  0  0  0  0  0
   20.5331  -21.9669  -11.7382 O   0  0  0  0  0  0  0  0  0  0  0  0
   18.7465  -21.4567  -13.0347 O   0  0  0  0  0  0  0  0  0  0  0  0
  2  1  1  6
  2  3  1  0
  4  3  1  0
  5  4  2  0
  6  5  1  0
  7  8  1  0
  7  6  2  0
  8  9  2  0
  9  4  1  0
 10 17  1  0
 10  2  1  0
 11 10  2  0
 13 12  1  1
 13 14  1  0
 16 15  1  1
 15 13  1  0
 16 17  1  0
 18 16  1  0
 19 18  2  0
 20 18  1  0
 21 20  1  0
 22 21  1  0
 23 22  2  0
 24 22  1  0
M  END
$$$$
