FLG.pdb
     RDKit          3D

 24 24  0  0  1  0  0  0  0  0999 V2000
   22.1465  -13.9679  -17.6834 N   0  0  0  0  0  0  0  0  0  0  0  0
   21.7996  -12.6124  -18.0537 C   0  0  1  0  0  0  0  0  0  0  0  0
   20.3062  -12.4857  -18.2596 C   0  0  0  0  0  0  0  0  0  0  0  0
   19.9505  -13.2605  -19.4656 C   0  0  0  0  0  0  0  0  0  0  0  0
   19.3364  -14.4951  -19.3527 C   0  0  0  0  0  0  0  0  0  0  0  0
   18.9942  -15.2379  -20.4609 C   0  0  0  0  0  0  0  0  0  0  0  0
   19.2922  -14.6940  -21.6854 C   0  0  0  0  0  0  0  0  0  0  0  0
   19.9022  -13.4689  -21.8215 C   0  0  0  0  0  0  0  0  0  0  0  0
   20.2327  -12.7494  -20.7098 C   0  0  0  0  0  0  0  0  0  0  0  0
   22.2999  -11.7009  -17.0031 C   0  0  0  0  0  0  0  0  0  0  0  0
   21.9251  -11.8557  -15.8152 O   0  0  0  0  0  0  0  0  0  0  0  0
   26.0177  -11.5557  -15.1580 C   0  0  0  0  0  0  0  0  0  0  0  0
   26.1043  -10.7556  -16.4330 C   0  0  2  0  0  0  0  0  0  0  0  0
   27.5436  -10.2591  -16.6561 C   0  0  0  0  0  0  0  0  0  0  0  0
   25.2220   -9.5805  -16.4458 C   0  0  0  0  0  0  0  0  0  0  0  0
   23.7529   -9.7723  -16.4454 C   0  0  2  0  0  0  0  0  0  0  0  0
   23.1981  -10.6719  -17.3892 N   0  0  0  0  0  0  0  0  0  0  0  0
   22.9917   -8.5010  -16.4623 C   0  0  0  0  0  0  0  0  0  0  0  0
   22.8726   -7.8873  -17.5491 O   0  0  0  0  0  0  0  0  0  0  0  0
   22.3920   -7.9478  -15.3034 N   0  0  0  0  0  0  0  0  0  0  0  0
   21.7262   -6.6660  -15.4062 C   0  0  0  0  0  0  0  0  0  0  0  0
   21.1556   -6.3267  -14.0983 C   0  0  0  0  0  0  0  0  0  0  0  0
   21.1780   -7.1015  -13.0945 O   0  0  0  0  0  0  0  0  0  0  0  0
   20.5469   -5.0876  -13.9187 O   0  0  0  0  0  0  0  0  0  0  0  0
  2  1  1  1
  2  3  1  0
  4  3  1  0
  5  4  2  0
  6  5  1  0
  7  8  1  0
  7  6  2  0
  8  9  2  0
  9  4  1  0
 10 17  1  0
 10  2  1  0
 11 10  2  0
 13 12  1  1
 13 14  1  0
 16 15  1  6
 15 13  1  0
 16 17  1  0
 18 16  1  0
 19 18  2  0
 20 18  1  0
 21 20  1  0
 22 21  1  0
 23 22  2  0
 24 22  1  0
M  END
$$$$
