FLG.pdb
     RDKit          3D

 24 24  0  0  1  0  0  0  0  0999 V2000
   22.0050  -20.4784  -10.0896 N   0  0  0  0  0  0  0  0  0  0  0  0
   23.2139  -20.8333  -10.8019 C   0  0  1  0  0  0  0  0  0  0  0  0
   23.1211  -20.4032  -12.2494 C   0  0  0  0  0  0  0  0  0  0  0  0
   22.0369  -21.1815  -12.8818 C   0  0  0  0  0  0  0  0  0  0  0  0
   22.1673  -22.5462  -13.0685 C   0  0  0  0  0  0  0  0  0  0  0  0
   21.1718  -23.2954  -13.6554 C   0  0  0  0  0  0  0  0  0  0  0  0
   20.0416  -22.6223  -14.0473 C   0  0  0  0  0  0  0  0  0  0  0  0
   19.8902  -21.2666  -13.8718 C   0  0  0  0  0  0  0  0  0  0  0  0
   20.8895  -20.5433  -13.2878 C   0  0  0  0  0  0  0  0  0  0  0  0
   24.3621  -20.2151  -10.1060 C   0  0  0  0  0  0  0  0  0  0  0  0
   24.3350  -18.9915   -9.8273 O   0  0  0  0  0  0  0  0  0  0  0  0
   26.9671  -18.7193   -6.9858 C   0  0  0  0  0  0  0  0  0  0  0  0
   26.8816  -20.2246   -6.9719 C   0  0  2  0  0  0  0  0  0  0  0  0
   27.6973  -20.7957   -5.7986 C   0  0  0  0  0  0  0  0  0  0  0  0
   27.3801  -20.8490   -8.2052 C   0  0  0  0  0  0  0  0  0  0  0  0
   26.7472  -20.5097   -9.5010 C   0  0  2  0  0  0  0  0  0  0  0  0
   25.4650  -21.0458   -9.7770 N   0  0  0  0  0  0  0  0  0  0  0  0
   27.6373  -20.7231  -10.6664 C   0  0  0  0  0  0  0  0  0  0  0  0
   28.8229  -20.3209  -10.5977 O   0  0  0  0  0  0  0  0  0  0  0  0
   27.2074  -21.3623  -11.8561 N   0  0  0  0  0  0  0  0  0  0  0  0
   28.1867  -21.6649  -12.8790 C   0  0  0  0  0  0  0  0  0  0  0  0
   28.1322  -20.6190  -13.9058 C   0  0  0  0  0  0  0  0  0  0  0  0
   27.3325  -19.6352  -13.8714 O   0  0  0  0  0  0  0  0  0  0  0  0
   28.9977  -20.6839  -14.9943 O   0  0  0  0  0  0  0  0  0  0  0  0
  2  1  1  1
  2  3  1  0
  4  3  1  0
  5  4  2  0
  6  5  1  0
  7  8  1  0
  7  6  2  0
  8  9  2  0
  9  4  1  0
 10 17  1  0
 10  2  1  0
 11 10  2  0
 13 12  1  6
 13 14  1  0
 16 15  1  1
 15 13  1  0
 16 17  1  0
 18 16  1  0
 19 18  2  0
 20 18  1  0
 21 20  1  0
 22 21  1  0
 23 22  2  0
 24 22  1  0
M  END
$$$$
