FLG.pdb
     RDKit          3D

 24 24  0  0  1  0  0  0  0  0999 V2000
   25.9595  -19.3569  -16.5820 N   0  0  0  0  0  0  0  0  0  0  0  0
   25.4202  -18.7737  -15.3722 C   0  0  1  0  0  0  0  0  0  0  0  0
   24.5033  -17.6173  -15.7051 C   0  0  0  0  0  0  0  0  0  0  0  0
   25.3444  -16.4217  -15.9150 C   0  0  0  0  0  0  0  0  0  0  0  0
   25.5282  -15.9051  -17.1854 C   0  0  0  0  0  0  0  0  0  0  0  0
   26.3072  -14.7916  -17.4087 C   0  0  0  0  0  0  0  0  0  0  0  0
   26.8940  -14.2172  -16.3089 C   0  0  0  0  0  0  0  0  0  0  0  0
   26.7253  -14.7133  -15.0372 C   0  0  0  0  0  0  0  0  0  0  0  0
   25.9489  -15.8181  -14.8384 C   0  0  0  0  0  0  0  0  0  0  0  0
   24.7290  -19.8363  -14.6119 C   0  0  0  0  0  0  0  0  0  0  0  0
   24.3359  -20.8702  -15.2051 O   0  0  0  0  0  0  0  0  0  0  0  0
   26.3635  -22.2721  -11.3622 C   0  0  0  0  0  0  0  0  0  0  0  0
   25.8299  -20.9857  -10.7843 C   0  0  2  0  0  0  0  0  0  0  0  0
   26.0592  -20.9472   -9.2632 C   0  0  0  0  0  0  0  0  0  0  0  0
   24.3930  -20.7908  -11.0221 C   0  0  0  0  0  0  0  0  0  0  0  0
   23.9015  -20.6115  -12.4082 C   0  0  2  0  0  0  0  0  0  0  0  0
   24.5361  -19.6384  -13.2196 N   0  0  0  0  0  0  0  0  0  0  0  0
   22.4310  -20.4513  -12.4970 C   0  0  0  0  0  0  0  0  0  0  0  0
   21.9078  -19.4264  -11.9990 O   0  0  0  0  0  0  0  0  0  0  0  0
   21.5892  -21.4060  -13.1204 N   0  0  0  0  0  0  0  0  0  0  0  0
   20.1574  -21.1900  -13.1048 C   0  0  0  0  0  0  0  0  0  0  0  0
   19.5085  -22.2901  -13.8260 C   0  0  0  0  0  0  0  0  0  0  0  0
   20.1396  -23.2163  -14.4194 O   0  0  0  0  0  0  0  0  0  0  0  0
   18.1184  -22.3467  -13.8790 O   0  0  0  0  0  0  0  0  0  0  0  0
  2  1  1  6
  2  3  1  0
  4  3  1  0
  5  4  2  0
  6  5  1  0
  7  8  1  0
  7  6  2  0
  8  9  2  0
  9  4  1  0
 10 17  1  0
 10  2  1  0
 11 10  2  0
 13 12  1  1
 13 14  1  0
 16 15  1  1
 15 13  1  0
 16 17  1  0
 18 16  1  0
 19 18  2  0
 20 18  1  0
 21 20  1  0
 22 21  1  0
 23 22  2  0
 24 22  1  0
M  END
$$$$
