FLG.pdb
     RDKit          3D

 24 24  0  0  1  0  0  0  0  0999 V2000
   21.1779  -19.8400  -12.5425 N   0  0  0  0  0  0  0  0  0  0  0  0
   22.1766  -20.8861  -12.5978 C   0  0  1  0  0  0  0  0  0  0  0  0
   22.1867  -21.5365  -13.9637 C   0  0  0  0  0  0  0  0  0  0  0  0
   20.8765  -22.1886  -14.1617 C   0  0  0  0  0  0  0  0  0  0  0  0
   20.4515  -23.1882  -13.3046 C   0  0  0  0  0  0  0  0  0  0  0  0
   19.2346  -23.8124  -13.4668 C   0  0  0  0  0  0  0  0  0  0  0  0
   18.4617  -23.3949  -14.5213 C   0  0  0  0  0  0  0  0  0  0  0  0
   18.8636  -22.4035  -15.3857 C   0  0  0  0  0  0  0  0  0  0  0  0
   20.0737  -21.7981  -15.2066 C   0  0  0  0  0  0  0  0  0  0  0  0
   23.4864  -20.2974  -12.2476 C   0  0  0  0  0  0  0  0  0  0  0  0
   23.7274  -19.1000  -12.5366 O   0  0  0  0  0  0  0  0  0  0  0  0
   25.5103  -19.0828   -8.4384 C   0  0  0  0  0  0  0  0  0  0  0  0
   25.4700  -20.5778   -8.6301 C   0  0  2  0  0  0  0  0  0  0  0  0
   26.0957  -21.2894   -7.4176 C   0  0  0  0  0  0  0  0  0  0  0  0
   26.1862  -21.0319   -9.8301 C   0  0  0  0  0  0  0  0  0  0  0  0
   25.6921  -20.6323  -11.1684 C   0  0  2  0  0  0  0  0  0  0  0  0
   24.4318  -21.1257  -11.5881 N   0  0  0  0  0  0  0  0  0  0  0  0
   26.6880  -20.8285  -12.2481 C   0  0  0  0  0  0  0  0  0  0  0  0
   27.8720  -20.4695  -12.0449 O   0  0  0  0  0  0  0  0  0  0  0  0
   26.3611  -21.4046  -13.5011 N   0  0  0  0  0  0  0  0  0  0  0  0
   27.4247  -21.6644  -14.4487 C   0  0  0  0  0  0  0  0  0  0  0  0
   26.8649  -22.3841  -15.5977 C   0  0  0  0  0  0  0  0  0  0  0  0
   25.6376  -22.6807  -15.7167 O   0  0  0  0  0  0  0  0  0  0  0  0
   27.7070  -22.7775  -16.6342 O   0  0  0  0  0  0  0  0  0  0  0  0
  2  1  1  6
  2  3  1  0
  4  3  1  0
  5  4  2  0
  6  5  1  0
  7  8  1  0
  7  6  2  0
  8  9  2  0
  9  4  1  0
 10 17  1  0
 10  2  1  0
 11 10  2  0
 13 12  1  1
 13 14  1  0
 16 15  1  1
 15 13  1  0
 16 17  1  0
 18 16  1  0
 19 18  2  0
 20 18  1  0
 21 20  1  0
 22 21  1  0
 23 22  2  0
 24 22  1  0
M  END
$$$$
