FLG.pdb
     RDKit          3D

 24 24  0  0  1  0  0  0  0  0999 V2000
   25.1811  -19.5673  -17.1348 N   0  0  0  0  0  0  0  0  0  0  0  0
   25.0749  -19.1244  -15.7610 C   0  0  1  0  0  0  0  0  0  0  0  0
   23.6228  -19.0168  -15.3504 C   0  0  0  0  0  0  0  0  0  0  0  0
   22.9396  -18.1518  -16.3333 C   0  0  0  0  0  0  0  0  0  0  0  0
   23.1456  -16.7836  -16.3293 C   0  0  0  0  0  0  0  0  0  0  0  0
   22.5212  -15.9545  -17.2346 C   0  0  0  0  0  0  0  0  0  0  0  0
   21.6831  -16.5513  -18.1431 C   0  0  0  0  0  0  0  0  0  0  0  0
   21.4633  -17.9088  -18.1656 C   0  0  0  0  0  0  0  0  0  0  0  0
   22.0925  -18.7121  -17.2592 C   0  0  0  0  0  0  0  0  0  0  0  0
   25.8301  -20.0668  -14.9088 C   0  0  0  0  0  0  0  0  0  0  0  0
   25.8066  -21.2949  -15.1674 O   0  0  0  0  0  0  0  0  0  0  0  0
   30.5532  -20.2454  -10.9399 C   0  0  0  0  0  0  0  0  0  0  0  0
   29.2943  -20.8643  -11.4926 C   0  0  2  0  0  0  0  0  0  0  0  0
   29.6267  -22.1531  -12.2650 C   0  0  0  0  0  0  0  0  0  0  0  0
   28.5592  -19.9769  -12.4044 C   0  0  0  0  0  0  0  0  0  0  0  0
   27.2093  -20.3692  -12.8722 C   0  0  2  0  0  0  0  0  0  0  0  0
   26.5621  -19.5336  -13.8160 N   0  0  0  0  0  0  0  0  0  0  0  0
   26.2735  -20.6928  -11.7696 C   0  0  0  0  0  0  0  0  0  0  0  0
   26.5459  -21.6559  -11.0145 O   0  0  0  0  0  0  0  0  0  0  0  0
   25.0834  -19.9611  -11.5309 N   0  0  0  0  0  0  0  0  0  0  0  0
   24.2950  -20.2744  -10.3574 C   0  0  0  0  0  0  0  0  0  0  0  0
   23.0151  -20.8456  -10.7900 C   0  0  0  0  0  0  0  0  0  0  0  0
   22.7890  -21.2647  -11.9654 O   0  0  0  0  0  0  0  0  0  0  0  0
   21.9683  -20.9462   -9.8777 O   0  0  0  0  0  0  0  0  0  0  0  0
  2  1  1  6
  2  3  1  0
  4  3  1  0
  5  4  2  0
  6  5  1  0
  7  8  1  0
  7  6  2  0
  8  9  2  0
  9  4  1  0
 10 17  1  0
 10  2  1  0
 11 10  2  0
 13 12  1  6
 13 14  1  0
 16 15  1  1
 15 13  1  0
 16 17  1  0
 18 16  1  0
 19 18  2  0
 20 18  1  0
 21 20  1  0
 22 21  1  0
 23 22  2  0
 24 22  1  0
M  END
$$$$
