FLG.pdb
     RDKit          3D

 24 24  0  0  1  0  0  0  0  0999 V2000
   20.6748  -12.8009  -17.3407 N   0  0  0  0  0  0  0  0  0  0  0  0
   21.3993  -11.7535  -18.0283 C   0  0  1  0  0  0  0  0  0  0  0  0
   20.4948  -11.0404  -19.0092 C   0  0  0  0  0  0  0  0  0  0  0  0
   20.0814  -12.0196  -20.0345 C   0  0  0  0  0  0  0  0  0  0  0  0
   20.9837  -12.4693  -20.9821 C   0  0  0  0  0  0  0  0  0  0  0  0
   20.6242  -13.3820  -21.9489 C   0  0  0  0  0  0  0  0  0  0  0  0
   19.3254  -13.8252  -21.9277 C   0  0  0  0  0  0  0  0  0  0  0  0
   18.4115  -13.3921  -20.9956 C   0  0  0  0  0  0  0  0  0  0  0  0
   18.7891  -12.4872  -20.0462 C   0  0  0  0  0  0  0  0  0  0  0  0
   21.9623  -10.8356  -17.0157 C   0  0  0  0  0  0  0  0  0  0  0  0
   21.3879  -10.7044  -15.9074 O   0  0  0  0  0  0  0  0  0  0  0  0
   25.4146  -10.8662  -14.3759 C   0  0  0  0  0  0  0  0  0  0  0  0
   25.8351  -10.4976  -15.7762 C   0  0  2  0  0  0  0  0  0  0  0  0
   27.3607  -10.3086  -15.8441 C   0  0  0  0  0  0  0  0  0  0  0  0
   25.2118   -9.2603  -16.2662 C   0  0  0  0  0  0  0  0  0  0  0  0
   23.7426   -9.2074  -16.4489 C   0  0  2  0  0  0  0  0  0  0  0  0
   23.1488  -10.1300  -17.3457 N   0  0  0  0  0  0  0  0  0  0  0  0
   23.2310   -7.8444  -16.7259 C   0  0  0  0  0  0  0  0  0  0  0  0
   23.7601   -7.1810  -17.6489 O   0  0  0  0  0  0  0  0  0  0  0  0
   22.1693   -7.2574  -15.9931 N   0  0  0  0  0  0  0  0  0  0  0  0
   21.7683   -5.9024  -16.3095 C   0  0  0  0  0  0  0  0  0  0  0  0
   20.5899   -5.5614  -15.5055 C   0  0  0  0  0  0  0  0  0  0  0  0
   19.9566   -6.3951  -14.7898 O   0  0  0  0  0  0  0  0  0  0  0  0
   20.1156   -4.2525  -15.5089 O   0  0  0  0  0  0  0  0  0  0  0  0
  2  1  1  1
  2  3  1  0
  4  3  1  0
  5  4  2  0
  6  5  1  0
  7  8  1  0
  7  6  2  0
  8  9  2  0
  9  4  1  0
 10 17  1  0
 10  2  1  0
 11 10  2  0
 13 12  1  1
 13 14  1  0
 16 15  1  6
 15 13  1  0
 16 17  1  0
 18 16  1  0
 19 18  2  0
 20 18  1  0
 21 20  1  0
 22 21  1  0
 23 22  2  0
 24 22  1  0
M  END
$$$$
