FLG.pdb
     RDKit          3D

 24 24  0  0  1  0  0  0  0  0999 V2000
   25.1451  -32.6673  -14.3904 N   0  0  0  0  0  0  0  0  0  0  0  0
   25.9110  -33.3748  -13.3865 C   0  0  1  0  0  0  0  0  0  0  0  0
   27.1758  -32.6149  -13.0528 C   0  0  0  0  0  0  0  0  0  0  0  0
   28.0307  -32.6123  -14.2571 C   0  0  0  0  0  0  0  0  0  0  0  0
   28.1485  -31.4733  -15.0336 C   0  0  0  0  0  0  0  0  0  0  0  0
   28.9387  -31.4439  -16.1612 C   0  0  0  0  0  0  0  0  0  0  0  0
   29.6054  -32.6009  -16.4788 C   0  0  0  0  0  0  0  0  0  0  0  0
   29.5033  -33.7447  -15.7218 C   0  0  0  0  0  0  0  0  0  0  0  0
   28.7144  -33.7517  -14.6080 C   0  0  0  0  0  0  0  0  0  0  0  0
   25.0500  -33.5777  -12.2024 C   0  0  0  0  0  0  0  0  0  0  0  0
   24.0924  -32.7950  -11.9881 O   0  0  0  0  0  0  0  0  0  0  0  0
   21.6013  -35.3181  -11.2209 C   0  0  0  0  0  0  0  0  0  0  0  0
   22.6661  -36.3787  -11.3415 C   0  0  2  0  0  0  0  0  0  0  0  0
   22.0447  -37.7791  -11.1979 C   0  0  0  0  0  0  0  0  0  0  0  0
   23.7273  -36.2578  -10.3323 C   0  0  0  0  0  0  0  0  0  0  0  0
   24.5141  -35.0052  -10.2487 C   0  0  2  0  0  0  0  0  0  0  0  0
   25.3480  -34.6677  -11.3435 N   0  0  0  0  0  0  0  0  0  0  0  0
   25.2739  -34.8688   -8.9837 C   0  0  0  0  0  0  0  0  0  0  0  0
   24.9367  -35.5725   -8.0023 O   0  0  0  0  0  0  0  0  0  0  0  0
   26.3657  -33.9775   -8.8341 N   0  0  0  0  0  0  0  0  0  0  0  0
   27.0850  -33.9595   -7.5776 C   0  0  0  0  0  0  0  0  0  0  0  0
   26.2933  -33.2137   -6.5936 C   0  0  0  0  0  0  0  0  0  0  0  0
   25.1708  -32.6804   -6.8468 O   0  0  0  0  0  0  0  0  0  0  0  0
   26.7777  -33.0662   -5.2967 O   0  0  0  0  0  0  0  0  0  0  0  0
  2  1  1  6
  2  3  1  0
  4  3  1  0
  5  4  2  0
  6  5  1  0
  7  8  1  0
  7  6  2  0
  8  9  2  0
  9  4  1  0
 10 17  1  0
 10  2  1  0
 11 10  2  0
 13 12  1  1
 13 14  1  0
 16 15  1  6
 15 13  1  0
 16 17  1  0
 18 16  1  0
 19 18  2  0
 20 18  1  0
 21 20  1  0
 22 21  1  0
 23 22  2  0
 24 22  1  0
M  END
$$$$
