FLG.pdb
     RDKit          3D

 24 24  0  0  1  0  0  0  0  0999 V2000
   20.8377  -20.7679  -13.0137 N   0  0  0  0  0  0  0  0  0  0  0  0
   22.0644  -21.3952  -13.4571 C   0  0  1  0  0  0  0  0  0  0  0  0
   22.1623  -21.3583  -14.9663 C   0  0  0  0  0  0  0  0  0  0  0  0
   21.1416  -22.2789  -15.5065 C   0  0  0  0  0  0  0  0  0  0  0  0
   21.3718  -23.6427  -15.5406 C   0  0  0  0  0  0  0  0  0  0  0  0
   20.4371  -24.5229  -16.0389 C   0  0  0  0  0  0  0  0  0  0  0  0
   19.2636  -23.9816  -16.5012 C   0  0  0  0  0  0  0  0  0  0  0  0
   19.0130  -22.6294  -16.4772 C   0  0  0  0  0  0  0  0  0  0  0  0
   19.9534  -21.7750  -15.9789 C   0  0  0  0  0  0  0  0  0  0  0  0
   23.1996  -20.7092  -12.8047 C   0  0  0  0  0  0  0  0  0  0  0  0
   23.1167  -19.4854  -12.5383 O   0  0  0  0  0  0  0  0  0  0  0  0
   24.9869  -19.4005   -9.2268 C   0  0  0  0  0  0  0  0  0  0  0  0
   25.0264  -20.9007   -9.3719 C   0  0  2  0  0  0  0  0  0  0  0  0
   25.6066  -21.5458   -8.1010 C   0  0  0  0  0  0  0  0  0  0  0  0
   25.8362  -21.3558  -10.5106 C   0  0  0  0  0  0  0  0  0  0  0  0
   25.4899  -20.9033  -11.8781 C   0  0  2  0  0  0  0  0  0  0  0  0
   24.3545  -21.4769  -12.5024 N   0  0  0  0  0  0  0  0  0  0  0  0
   26.6375  -20.9252  -12.8154 C   0  0  0  0  0  0  0  0  0  0  0  0
   27.7177  -20.4012  -12.4539 O   0  0  0  0  0  0  0  0  0  0  0  0
   26.5680  -21.5127  -14.1033 N   0  0  0  0  0  0  0  0  0  0  0  0
   27.7703  -21.5753  -14.9078 C   0  0  0  0  0  0  0  0  0  0  0  0
   27.6305  -20.6470  -16.0347 C   0  0  0  0  0  0  0  0  0  0  0  0
   26.6150  -19.9110  -16.2229 O   0  0  0  0  0  0  0  0  0  0  0  0
   28.6577  -20.5466  -16.9691 O   0  0  0  0  0  0  0  0  0  0  0  0
  2  1  1  6
  2  3  1  0
  4  3  1  0
  5  4  2  0
  6  5  1  0
  7  8  1  0
  7  6  2  0
  8  9  2  0
  9  4  1  0
 10 17  1  0
 10  2  1  0
 11 10  2  0
 13 12  1  1
 13 14  1  0
 16 15  1  1
 15 13  1  0
 16 17  1  0
 18 16  1  0
 19 18  2  0
 20 18  1  0
 21 20  1  0
 22 21  1  0
 23 22  2  0
 24 22  1  0
M  END
$$$$
