FLG.pdb
     RDKit          3D

 24 24  0  0  1  0  0  0  0  0999 V2000
   21.5369  -10.0657  -16.6951 N   0  0  0  0  0  0  0  0  0  0  0  0
   20.5619   -9.0854  -17.1232 C   0  0  1  0  0  0  0  0  0  0  0  0
   19.3951   -9.7631  -17.8073 C   0  0  0  0  0  0  0  0  0  0  0  0
   19.8973  -10.3737  -19.0548 C   0  0  0  0  0  0  0  0  0  0  0  0
   20.1851   -9.5877  -20.1565 C   0  0  0  0  0  0  0  0  0  0  0  0
   20.6545  -10.1316  -21.3315 C   0  0  0  0  0  0  0  0  0  0  0  0
   20.8237  -11.4934  -21.3579 C   0  0  0  0  0  0  0  0  0  0  0  0
   20.5441  -12.2942  -20.2752 C   0  0  0  0  0  0  0  0  0  0  0  0
   20.0798  -11.7343  -19.1203 C   0  0  0  0  0  0  0  0  0  0  0  0
   20.1412   -8.3018  -15.9426 C   0  0  0  0  0  0  0  0  0  0  0  0
   19.9960   -8.8748  -14.8353 O   0  0  0  0  0  0  0  0  0  0  0  0
   22.1086   -6.2681  -13.1786 C   0  0  0  0  0  0  0  0  0  0  0  0
   21.8922   -5.3742  -14.3734 C   0  0  2  0  0  0  0  0  0  0  0  0
   22.6739   -4.0593  -14.2061 C   0  0  0  0  0  0  0  0  0  0  0  0
   20.4816   -5.0274  -14.5950 C   0  0  0  0  0  0  0  0  0  0  0  0
   19.5333   -6.0775  -15.0343 C   0  0  2  0  0  0  0  0  0  0  0  0
   19.9157   -6.9110  -16.1146 N   0  0  0  0  0  0  0  0  0  0  0  0
   18.1572   -5.5747  -15.2566 C   0  0  0  0  0  0  0  0  0  0  0  0
   17.6472   -4.8207  -14.3943 O   0  0  0  0  0  0  0  0  0  0  0  0
   17.3915   -5.9085  -16.4015 N   0  0  0  0  0  0  0  0  0  0  0  0
   16.0495   -5.3782  -16.5228 C   0  0  0  0  0  0  0  0  0  0  0  0
   15.1075   -6.3495  -15.9566 C   0  0  0  0  0  0  0  0  0  0  0  0
   15.4294   -7.5250  -15.6057 O   0  0  0  0  0  0  0  0  0  0  0  0
   13.7745   -5.9875  -15.7825 O   0  0  0  0  0  0  0  0  0  0  0  0
  2  1  1  1
  2  3  1  0
  4  3  1  0
  5  4  2  0
  6  5  1  0
  7  8  1  0
  7  6  2  0
  8  9  2  0
  9  4  1  0
 10 17  1  0
 10  2  1  0
 11 10  2  0
 13 12  1  1
 13 14  1  0
 16 15  1  6
 15 13  1  0
 16 17  1  0
 18 16  1  0
 19 18  2  0
 20 18  1  0
 21 20  1  0
 22 21  1  0
 23 22  2  0
 24 22  1  0
M  END
$$$$
