FLG.pdb
     RDKit          3D

 24 24  0  0  1  0  0  0  0  0999 V2000
   27.6864  -19.9780  -17.7482 N   0  0  0  0  0  0  0  0  0  0  0  0
   27.0527  -19.0998  -16.7880 C   0  0  1  0  0  0  0  0  0  0  0  0
   26.1211  -18.1347  -17.4877 C   0  0  0  0  0  0  0  0  0  0  0  0
   26.9450  -17.2443  -18.3301 C   0  0  0  0  0  0  0  0  0  0  0  0
   27.7997  -16.3221  -17.7528 C   0  0  0  0  0  0  0  0  0  0  0  0
   28.5788  -15.4802  -18.5151 C   0  0  0  0  0  0  0  0  0  0  0  0
   28.4667  -15.5997  -19.8779 C   0  0  0  0  0  0  0  0  0  0  0  0
   27.6239  -16.5089  -20.4735 C   0  0  0  0  0  0  0  0  0  0  0  0
   26.8607  -17.3337  -19.6989 C   0  0  0  0  0  0  0  0  0  0  0  0
   26.3501  -19.9325  -15.7892 C   0  0  0  0  0  0  0  0  0  0  0  0
   25.8285  -21.0186  -16.1411 O   0  0  0  0  0  0  0  0  0  0  0  0
   25.8429  -20.3688   -9.5949 C   0  0  0  0  0  0  0  0  0  0  0  0
   25.4125  -20.7947  -10.9758 C   0  0  2  0  0  0  0  0  0  0  0  0
   25.6650  -22.2996  -11.1742 C   0  0  0  0  0  0  0  0  0  0  0  0
   26.1136  -20.0808  -12.0519 C   0  0  0  0  0  0  0  0  0  0  0  0
   25.5999  -20.1670  -13.4388 C   0  0  2  0  0  0  0  0  0  0  0  0
   26.2943  -19.4602  -14.4518 N   0  0  0  0  0  0  0  0  0  0  0  0
   24.1474  -19.8946  -13.5482 C   0  0  0  0  0  0  0  0  0  0  0  0
   23.7623  -18.7023  -13.5941 O   0  0  0  0  0  0  0  0  0  0  0  0
   23.1737  -20.9229  -13.6034 N   0  0  0  0  0  0  0  0  0  0  0  0
   21.7725  -20.5577  -13.6129 C   0  0  0  0  0  0  0  0  0  0  0  0
   20.9956  -21.6602  -13.0364 C   0  0  0  0  0  0  0  0  0  0  0  0
   21.4846  -22.7937  -12.7460 O   0  0  0  0  0  0  0  0  0  0  0  0
   19.6387  -21.4804  -12.7820 O   0  0  0  0  0  0  0  0  0  0  0  0
  2  1  1  6
  2  3  1  0
  4  3  1  0
  5  4  2  0
  6  5  1  0
  7  8  1  0
  7  6  2  0
  8  9  2  0
  9  4  1  0
 10 17  1  0
 10  2  1  0
 11 10  2  0
 13 12  1  1
 13 14  1  0
 16 15  1  1
 15 13  1  0
 16 17  1  0
 18 16  1  0
 19 18  2  0
 20 18  1  0
 21 20  1  0
 22 21  1  0
 23 22  2  0
 24 22  1  0
M  END
$$$$
