FLG.pdb
     RDKit          3D

 24 24  0  0  1  0  0  0  0  0999 V2000
   29.9675  -35.6574   -6.3707 N   0  0  0  0  0  0  0  0  0  0  0  0
   30.0804  -34.7059   -5.2860 C   0  0  1  0  0  0  0  0  0  0  0  0
   31.2925  -33.8219   -5.4814 C   0  0  0  0  0  0  0  0  0  0  0  0
   32.4950  -34.6599   -5.2999 C   0  0  0  0  0  0  0  0  0  0  0  0
   32.9591  -34.9590   -4.0313 C   0  0  0  0  0  0  0  0  0  0  0  0
   34.0777  -35.7379   -3.8342 C   0  0  0  0  0  0  0  0  0  0  0  0
   34.7117  -36.2044   -4.9586 C   0  0  0  0  0  0  0  0  0  0  0  0
   34.2684  -35.9199   -6.2292 C   0  0  0  0  0  0  0  0  0  0  0  0
   33.1576  -35.1459   -6.4016 C   0  0  0  0  0  0  0  0  0  0  0  0
   28.8251  -33.9286   -5.2166 C   0  0  0  0  0  0  0  0  0  0  0  0
   28.7358  -32.9610   -4.4221 O   0  0  0  0  0  0  0  0  0  0  0  0
   24.5761  -32.5797   -9.1530 C   0  0  0  0  0  0  0  0  0  0  0  0
   25.5152  -32.4596   -7.9795 C   0  0  2  0  0  0  0  0  0  0  0  0
   26.9268  -32.0806   -8.4609 C   0  0  0  0  0  0  0  0  0  0  0  0
   25.6304  -33.6968   -7.1951 C   0  0  0  0  0  0  0  0  0  0  0  0
   26.4771  -33.7126   -5.9794 C   0  0  2  0  0  0  0  0  0  0  0  0
   27.7561  -34.3164   -6.0659 N   0  0  0  0  0  0  0  0  0  0  0  0
   25.7717  -34.2111   -4.7753 C   0  0  0  0  0  0  0  0  0  0  0  0
   24.7390  -33.6114   -4.3935 O   0  0  0  0  0  0  0  0  0  0  0  0
   26.2132  -35.3367   -4.0358 N   0  0  0  0  0  0  0  0  0  0  0  0
   25.5125  -35.6910   -2.8191 C   0  0  0  0  0  0  0  0  0  0  0  0
   24.4436  -36.6388   -3.1515 C   0  0  0  0  0  0  0  0  0  0  0  0
   24.0990  -36.9287   -4.3371 O   0  0  0  0  0  0  0  0  0  0  0  0
   23.7488  -37.2730   -2.1252 O   0  0  0  0  0  0  0  0  0  0  0  0
  2  1  1  6
  2  3  1  0
  4  3  1  0
  5  4  2  0
  6  5  1  0
  7  8  1  0
  7  6  2  0
  8  9  2  0
  9  4  1  0
 10 17  1  0
 10  2  1  0
 11 10  2  0
 13 12  1  6
 13 14  1  0
 16 15  1  6
 15 13  1  0
 16 17  1  0
 18 16  1  0
 19 18  2  0
 20 18  1  0
 21 20  1  0
 22 21  1  0
 23 22  2  0
 24 22  1  0
M  END
$$$$
