FLG.pdb
     RDKit          3D

 24 24  0  0  1  0  0  0  0  0999 V2000
   25.6670  -18.3316  -18.8581 N   0  0  0  0  0  0  0  0  0  0  0  0
   24.6887  -18.3725  -17.7922 C   0  0  1  0  0  0  0  0  0  0  0  0
   23.2868  -18.3163  -18.3582 C   0  0  0  0  0  0  0  0  0  0  0  0
   23.0862  -16.9701  -18.9316 C   0  0  0  0  0  0  0  0  0  0  0  0
   22.9720  -15.8645  -18.1077 C   0  0  0  0  0  0  0  0  0  0  0  0
   22.7846  -14.5984  -18.6164 C   0  0  0  0  0  0  0  0  0  0  0  0
   22.7164  -14.4853  -19.9825 C   0  0  0  0  0  0  0  0  0  0  0  0
   22.8273  -15.5701  -20.8207 C   0  0  0  0  0  0  0  0  0  0  0  0
   23.0126  -16.8160  -20.2953 C   0  0  0  0  0  0  0  0  0  0  0  0
   24.9221  -19.5941  -16.9934 C   0  0  0  0  0  0  0  0  0  0  0  0
   25.3656  -20.6271  -17.5518 O   0  0  0  0  0  0  0  0  0  0  0  0
   27.9968  -21.3484  -14.9187 C   0  0  0  0  0  0  0  0  0  0  0  0
   27.4196  -20.1641  -14.1854 C   0  0  2  0  0  0  0  0  0  0  0  0
   28.2706  -19.8361  -12.9459 C   0  0  0  0  0  0  0  0  0  0  0  0
   26.0377  -20.3750  -13.7325 C   0  0  0  0  0  0  0  0  0  0  0  0
   24.9707  -20.6093  -14.7332 C   0  0  2  0  0  0  0  0  0  0  0  0
   24.6297  -19.5459  -15.6053 N   0  0  0  0  0  0  0  0  0  0  0  0
   23.7376  -21.1939  -14.1553 C   0  0  0  0  0  0  0  0  0  0  0  0
   23.8421  -22.1903  -13.4014 O   0  0  0  0  0  0  0  0  0  0  0  0
   22.4446  -20.6762  -14.4175 N   0  0  0  0  0  0  0  0  0  0  0  0
   21.2947  -21.3513  -13.8527 C   0  0  0  0  0  0  0  0  0  0  0  0
   20.7486  -20.5242  -12.7715 C   0  0  0  0  0  0  0  0  0  0  0  0
   21.2658  -19.4323  -12.3861 O   0  0  0  0  0  0  0  0  0  0  0  0
   19.5948  -20.9374  -12.1110 O   0  0  0  0  0  0  0  0  0  0  0  0
  2  1  1  6
  2  3  1  0
  4  3  1  0
  5  4  2  0
  6  5  1  0
  7  8  1  0
  7  6  2  0
  8  9  2  0
  9  4  1  0
 10 17  1  0
 10  2  1  0
 11 10  2  0
 13 12  1  1
 13 14  1  0
 16 15  1  1
 15 13  1  0
 16 17  1  0
 18 16  1  0
 19 18  2  0
 20 18  1  0
 21 20  1  0
 22 21  1  0
 23 22  2  0
 24 22  1  0
M  END
$$$$
