FLG.pdb
     RDKit          3D

 24 24  0  0  1  0  0  0  0  0999 V2000
   26.4851  -19.8125  -16.1366 N   0  0  0  0  0  0  0  0  0  0  0  0
   25.7620  -19.1060  -15.1008 C   0  0  1  0  0  0  0  0  0  0  0  0
   24.8007  -18.1102  -15.7116 C   0  0  0  0  0  0  0  0  0  0  0  0
   25.5872  -16.9459  -16.1667 C   0  0  0  0  0  0  0  0  0  0  0  0
   26.2341  -16.1333  -15.2526 C   0  0  0  0  0  0  0  0  0  0  0  0
   26.9738  -15.0417  -15.6501 C   0  0  0  0  0  0  0  0  0  0  0  0
   27.0389  -14.7976  -16.9992 C   0  0  0  0  0  0  0  0  0  0  0  0
   26.4041  -15.5916  -17.9257 C   0  0  0  0  0  0  0  0  0  0  0  0
   25.6762  -16.6686  -17.5098 C   0  0  0  0  0  0  0  0  0  0  0  0
   25.0737  -20.1017  -14.2525 C   0  0  0  0  0  0  0  0  0  0  0  0
   24.8506  -21.2527  -14.7008 O   0  0  0  0  0  0  0  0  0  0  0  0
   26.2196  -21.0393   -8.9362 C   0  0  0  0  0  0  0  0  0  0  0  0
   25.5230  -21.5019  -10.1908 C   0  0  2  0  0  0  0  0  0  0  0  0
   26.5321  -21.6338  -11.3450 C   0  0  0  0  0  0  0  0  0  0  0  0
   24.4563  -20.5940  -10.6348 C   0  0  0  0  0  0  0  0  0  0  0  0
   24.0391  -20.5999  -12.0563 C   0  0  2  0  0  0  0  0  0  0  0  0
   24.6878  -19.7069  -12.9449 N   0  0  0  0  0  0  0  0  0  0  0  0
   22.5717  -20.5076  -12.2412 C   0  0  0  0  0  0  0  0  0  0  0  0
   21.8288  -21.1875  -11.4942 O   0  0  0  0  0  0  0  0  0  0  0  0
   21.9704  -19.6843  -13.2258 N   0  0  0  0  0  0  0  0  0  0  0  0
   20.5255  -19.6131  -13.2887 C   0  0  0  0  0  0  0  0  0  0  0  0
   20.0439  -20.6475  -14.2104 C   0  0  0  0  0  0  0  0  0  0  0  0
   20.8019  -21.4669  -14.8123 O   0  0  0  0  0  0  0  0  0  0  0  0
   18.6786  -20.7600  -14.4583 O   0  0  0  0  0  0  0  0  0  0  0  0
  2  1  1  6
  2  3  1  0
  4  3  1  0
  5  4  2  0
  6  5  1  0
  7  8  1  0
  7  6  2  0
  8  9  2  0
  9  4  1  0
 10 17  1  0
 10  2  1  0
 11 10  2  0
 13 12  1  1
 13 14  1  0
 16 15  1  1
 15 13  1  0
 16 17  1  0
 18 16  1  0
 19 18  2  0
 20 18  1  0
 21 20  1  0
 22 21  1  0
 23 22  2  0
 24 22  1  0
M  END
$$$$
