HVV.pdb
     RDKit          3D

 25 25  0  0  1  0  0  0  0  0999 V2000
    8.8875  -15.4647   20.7714 N   0  0  0  0  0  0  0  0  0  0  0  0
    8.0982  -15.9006   21.9017 C   0  0  1  0  0  0  0  0  0  0  0  0
    8.0720  -17.3853   22.0163 C   0  0  0  0  0  0  0  0  0  0  0  0
    7.3184  -17.9269   20.8580 C   0  0  0  0  0  0  0  0  0  0  0  0
    6.7802  -17.2867   19.7728 C   0  0  0  0  0  0  0  0  0  0  0  0
    6.1771  -18.1935   18.9648 N   0  0  0  0  0  0  0  0  0  0  0  0
    6.3360  -19.3962   19.5398 C   0  0  0  0  0  0  0  0  0  0  0  0
    7.0318  -19.2285   20.6926 N   0  0  0  0  0  0  0  0  0  0  0  0
    8.5277  -15.1858   23.1072 C   0  0  0  0  0  0  0  0  0  0  0  0
    9.7594  -15.1640   23.3653 O   0  0  0  0  0  0  0  0  0  0  0  0
    7.5178  -12.5027   27.1222 C   0  0  0  0  0  0  0  0  0  0  0  0
    7.1399  -13.0463   25.7686 C   0  0  1  0  0  0  0  0  0  0  0  0
    6.6752  -12.0296   24.7907 C   0  0  0  0  0  0  0  0  0  0  0  0
    8.2009  -13.9970   25.2468 C   0  0  2  0  0  0  0  0  0  0  0  0
    7.6639  -14.5208   23.9995 N   0  0  0  0  0  0  0  0  0  0  0  0
    8.5496  -15.0646   26.1866 C   0  0  0  0  0  0  0  0  0  0  0  0
    7.6500  -15.8919   26.5699 O   0  0  0  0  0  0  0  0  0  0  0  0
   11.6026  -17.3566   25.7415 C   0  0  0  0  0  0  0  0  0  0  0  0
   11.5183  -16.9549   27.1975 C   0  0  1  0  0  0  0  0  0  0  0  0
   12.5528  -15.8860   27.4468 C   0  0  0  0  0  0  0  0  0  0  0  0
   10.1462  -16.4400   27.5601 C   0  0  2  0  0  0  0  0  0  0  0  0
    9.8427  -15.2647   26.7232 N   0  0  0  0  0  0  0  0  0  0  0  0
   10.1684  -16.0381   28.9839 C   0  0  0  0  0  0  0  0  0  0  0  0
   10.2914  -16.9603   30.0017 O   0  0  0  0  0  0  0  0  0  0  0  0
   10.0732  -14.8263   29.2847 O   0  0  0  0  0  0  0  0  0  0  0  0
  2  1  1  6
  3  2  1  0
  3  4  1  0
  4  8  1  0
  5  4  2  0
  5  6  1  0
  6  7  1  0
  8  7  2  0
  9 10  2  0
  9  2  1  0
 12 11  1  1
 12 14  1  0
 13 12  1  0
 14 16  1  0
 14 15  1  6
 15  9  1  0
 16 22  1  0
 17 16  2  0
 19 18  1  6
 19 21  1  0
 20 19  1  0
 21 23  1  0
 21 22  1  6
 23 25  2  0
 23 24  1  0
M  END
$$$$
