HVV.pdb
     RDKit          3D

 25 25  0  0  1  0  0  0  0  0999 V2000
   10.0752  -16.2137   19.9567 N   0  0  0  0  0  0  0  0  0  0  0  0
    9.5946  -16.9456   21.1072 C   0  0  1  0  0  0  0  0  0  0  0  0
   10.2203  -18.2937   21.2041 C   0  0  0  0  0  0  0  0  0  0  0  0
    9.5883  -19.1726   20.1887 C   0  0  0  0  0  0  0  0  0  0  0  0
    8.6554  -18.8876   19.2267 C   0  0  0  0  0  0  0  0  0  0  0  0
    8.3717  -20.0117   18.5234 N   0  0  0  0  0  0  0  0  0  0  0  0
    9.1225  -20.9968   19.0412 C   0  0  0  0  0  0  0  0  0  0  0  0
    9.8618  -20.4807   20.0553 N   0  0  0  0  0  0  0  0  0  0  0  0
    9.7134  -16.1112   22.3065 C   0  0  0  0  0  0  0  0  0  0  0  0
   10.7799  -15.4611   22.4621 O   0  0  0  0  0  0  0  0  0  0  0  0
    7.0434  -13.6391   23.5677 C   0  0  0  0  0  0  0  0  0  0  0  0
    7.5566  -14.4843   24.7048 C   0  0  1  0  0  0  0  0  0  0  0  0
    6.5861  -15.4728   25.2406 C   0  0  0  0  0  0  0  0  0  0  0  0
    8.9316  -15.0437   24.3916 C   0  0  2  0  0  0  0  0  0  0  0  0
    8.7220  -15.9823   23.2991 N   0  0  0  0  0  0  0  0  0  0  0  0
    9.5874  -15.6737   25.5394 C   0  0  0  0  0  0  0  0  0  0  0  0
    9.9701  -16.8936   25.4612 O   0  0  0  0  0  0  0  0  0  0  0  0
   11.4609  -13.3768   28.4040 C   0  0  0  0  0  0  0  0  0  0  0  0
   10.8923  -14.6764   28.9294 C   0  0  1  0  0  0  0  0  0  0  0  0
    9.5984  -14.3659   29.6394 C   0  0  0  0  0  0  0  0  0  0  0  0
   10.6469  -15.6716   27.8208 C   0  0  2  0  0  0  0  0  0  0  0  0
    9.8425  -15.0231   26.7690 N   0  0  0  0  0  0  0  0  0  0  0  0
    9.8914  -16.8113   28.3862 C   0  0  0  0  0  0  0  0  0  0  0  0
    8.5624  -17.0268   28.0883 O   0  0  0  0  0  0  0  0  0  0  0  0
   10.4669  -17.6103   29.1598 O   0  0  0  0  0  0  0  0  0  0  0  0
  2  1  1  6
  3  2  1  0
  3  4  1  0
  4  8  1  0
  5  4  2  0
  5  6  1  0
  6  7  1  0
  8  7  2  0
  9 10  2  0
  9  2  1  0
 12 11  1  6
 12 14  1  0
 13 12  1  0
 14 16  1  0
 14 15  1  6
 15  9  1  0
 16 22  1  0
 17 16  2  0
 19 18  1  6
 19 21  1  0
 20 19  1  0
 21 23  1  0
 21 22  1  6
 23 25  2  0
 23 24  1  0
M  END
$$$$
