HVV.pdb
     RDKit          3D

 25 25  0  0  1  0  0  0  0  0999 V2000
    8.8488  -15.2883   20.6246 N   0  0  0  0  0  0  0  0  0  0  0  0
    8.0660  -15.8646   21.6948 C   0  0  1  0  0  0  0  0  0  0  0  0
    8.0319  -17.3514   21.6144 C   0  0  0  0  0  0  0  0  0  0  0  0
    7.3556  -17.7322   20.3492 C   0  0  0  0  0  0  0  0  0  0  0  0
    6.0333  -17.6676   19.9964 C   0  0  0  0  0  0  0  0  0  0  0  0
    5.8791  -18.1274   18.7302 N   0  0  0  0  0  0  0  0  0  0  0  0
    7.0980  -18.4787   18.2906 C   0  0  0  0  0  0  0  0  0  0  0  0
    7.9939  -18.2361   19.2804 N   0  0  0  0  0  0  0  0  0  0  0  0
    8.5093  -15.3159   22.9798 C   0  0  0  0  0  0  0  0  0  0  0  0
    9.7445  -15.3201   23.2214 O   0  0  0  0  0  0  0  0  0  0  0  0
    7.4862  -13.0262   27.2259 C   0  0  0  0  0  0  0  0  0  0  0  0
    7.1775  -13.3613   25.7896 C   0  0  1  0  0  0  0  0  0  0  0  0
    6.8228  -12.1989   24.9356 C   0  0  0  0  0  0  0  0  0  0  0  0
    8.2300  -14.2852   25.2064 C   0  0  2  0  0  0  0  0  0  0  0  0
    7.6552  -14.7836   23.9656 N   0  0  0  0  0  0  0  0  0  0  0  0
    8.6239  -15.3721   26.1054 C   0  0  0  0  0  0  0  0  0  0  0  0
    7.7640  -16.2591   26.4439 O   0  0  0  0  0  0  0  0  0  0  0  0
   12.6862  -16.0466   27.1947 C   0  0  0  0  0  0  0  0  0  0  0  0
   11.6829  -17.1608   26.9938 C   0  0  1  0  0  0  0  0  0  0  0  0
   12.1271  -18.3425   27.8192 C   0  0  0  0  0  0  0  0  0  0  0  0
   10.2898  -16.7427   27.3989 C   0  0  2  0  0  0  0  0  0  0  0  0
    9.9204  -15.5287   26.6481 N   0  0  0  0  0  0  0  0  0  0  0  0
   10.3043  -16.4407   28.8473 C   0  0  0  0  0  0  0  0  0  0  0  0
   10.3530  -17.4356   29.8008 O   0  0  0  0  0  0  0  0  0  0  0  0
   10.2716  -15.2486   29.2295 O   0  0  0  0  0  0  0  0  0  0  0  0
  2  1  1  6
  3  2  1  0
  3  4  1  0
  4  8  1  0
  5  4  2  0
  5  6  1  0
  6  7  1  0
  8  7  2  0
  9 10  2  0
  9  2  1  0
 12 11  1  1
 12 14  1  0
 13 12  1  0
 14 16  1  0
 14 15  1  6
 15  9  1  0
 16 22  1  0
 17 16  2  0
 19 18  1  1
 19 21  1  0
 20 19  1  0
 21 23  1  0
 21 22  1  6
 23 25  2  0
 23 24  1  0
M  END
$$$$
