HVV.pdb
     RDKit          3D

 25 25  0  0  1  0  0  0  0  0999 V2000
    9.4716  -15.7946   20.3230 N   0  0  0  0  0  0  0  0  0  0  0  0
    9.0367  -16.4931   21.5118 C   0  0  1  0  0  0  0  0  0  0  0  0
    9.6324  -17.8554   21.6000 C   0  0  0  0  0  0  0  0  0  0  0  0
    9.0199  -18.6988   20.5434 C   0  0  0  0  0  0  0  0  0  0  0  0
    7.7072  -18.8547   20.1833 C   0  0  0  0  0  0  0  0  0  0  0  0
    7.6206  -19.7354   19.1559 N   0  0  0  0  0  0  0  0  0  0  0  0
    8.8722  -20.1301   18.8727 C   0  0  0  0  0  0  0  0  0  0  0  0
    9.7209  -19.4959   19.7205 N   0  0  0  0  0  0  0  0  0  0  0  0
    9.2428  -15.6411   22.6867 C   0  0  0  0  0  0  0  0  0  0  0  0
   10.3799  -15.1239   22.8406 O   0  0  0  0  0  0  0  0  0  0  0  0
    6.8621  -12.8997   24.1980 C   0  0  0  0  0  0  0  0  0  0  0  0
    7.3369  -13.8737   25.2451 C   0  0  1  0  0  0  0  0  0  0  0  0
    6.2921  -14.7887   25.7716 C   0  0  0  0  0  0  0  0  0  0  0  0
    8.6236  -14.5529   24.8152 C   0  0  2  0  0  0  0  0  0  0  0  0
    8.2622  -15.3577   23.6576 N   0  0  0  0  0  0  0  0  0  0  0  0
    9.2476  -15.3552   25.8694 C   0  0  0  0  0  0  0  0  0  0  0  0
    9.3256  -16.6269   25.7373 O   0  0  0  0  0  0  0  0  0  0  0  0
   11.6781  -13.4312   28.5948 C   0  0  0  0  0  0  0  0  0  0  0  0
   11.1569  -14.7705   29.0669 C   0  0  1  0  0  0  0  0  0  0  0  0
   10.0190  -14.5171   30.0237 C   0  0  0  0  0  0  0  0  0  0  0  0
   10.6834  -15.6265   27.9168 C   0  0  2  0  0  0  0  0  0  0  0  0
    9.7908  -14.8229   27.0617 N   0  0  0  0  0  0  0  0  0  0  0  0
    9.9307  -16.7710   28.4762 C   0  0  0  0  0  0  0  0  0  0  0  0
   10.5626  -17.8284   29.0961 O   0  0  0  0  0  0  0  0  0  0  0  0
    8.6816  -16.7898   28.3893 O   0  0  0  0  0  0  0  0  0  0  0  0
  2  1  1  6
  3  2  1  0
  3  4  1  0
  4  8  1  0
  5  4  2  0
  5  6  1  0
  6  7  1  0
  8  7  2  0
  9 10  2  0
  9  2  1  0
 12 11  1  6
 12 14  1  0
 13 12  1  0
 14 16  1  0
 14 15  1  6
 15  9  1  0
 16 22  1  0
 17 16  2  0
 19 18  1  6
 19 21  1  0
 20 19  1  0
 21 23  1  0
 21 22  1  6
 23 25  2  0
 23 24  1  0
M  END
$$$$
