HVV.pdb
     RDKit          3D

 25 25  0  0  1  0  0  0  0  0999 V2000
    8.6333  -17.5174   16.3335 N   0  0  0  0  0  0  0  0  0  0  0  0
    7.8666  -17.5217   17.5592 C   0  0  1  0  0  0  0  0  0  0  0  0
    7.4750  -18.9018   17.9599 C   0  0  0  0  0  0  0  0  0  0  0  0
    6.4887  -19.4089   16.9735 C   0  0  0  0  0  0  0  0  0  0  0  0
    5.3944  -18.7983   16.4197 C   0  0  0  0  0  0  0  0  0  0  0  0
    4.7849  -19.6526   15.5609 N   0  0  0  0  0  0  0  0  0  0  0  0
    5.4929  -20.7932   15.5758 C   0  0  0  0  0  0  0  0  0  0  0  0
    6.5296  -20.6398   16.4377 N   0  0  0  0  0  0  0  0  0  0  0  0
    8.5724  -16.7474   18.5844 C   0  0  0  0  0  0  0  0  0  0  0  0
    9.8114  -16.9325   18.7059 O   0  0  0  0  0  0  0  0  0  0  0  0
    7.8009  -12.9683   19.6064 C   0  0  0  0  0  0  0  0  0  0  0  0
    7.9933  -13.8734   20.7957 C   0  0  1  0  0  0  0  0  0  0  0  0
    6.7654  -14.1387   21.5882 C   0  0  0  0  0  0  0  0  0  0  0  0
    8.7898  -15.1083   20.4185 C   0  0  2  0  0  0  0  0  0  0  0  0
    7.9669  -15.8106   19.4448 N   0  0  0  0  0  0  0  0  0  0  0  0
    9.1365  -15.9577   21.5599 C   0  0  0  0  0  0  0  0  0  0  0  0
    8.2881  -16.8125   21.9960 O   0  0  0  0  0  0  0  0  0  0  0  0
   12.1712  -18.1827   21.7920 C   0  0  0  0  0  0  0  0  0  0  0  0
   12.0731  -17.4199   23.0947 C   0  0  1  0  0  0  0  0  0  0  0  0
   13.0754  -16.2937   23.0522 C   0  0  0  0  0  0  0  0  0  0  0  0
   10.6859  -16.8682   23.3199 C   0  0  2  0  0  0  0  0  0  0  0  0
   10.3740  -15.9108   22.2428 N   0  0  0  0  0  0  0  0  0  0  0  0
   10.6776  -16.1648   24.6216 C   0  0  0  0  0  0  0  0  0  0  0  0
   10.7719  -16.8423   25.8190 O   0  0  0  0  0  0  0  0  0  0  0  0
   10.5824  -14.9165   24.6480 O   0  0  0  0  0  0  0  0  0  0  0  0
  2  1  1  6
  3  2  1  0
  3  4  1  0
  4  8  1  0
  5  4  2  0
  5  6  1  0
  6  7  1  0
  8  7  2  0
  9 10  2  0
  9  2  1  0
 12 11  1  6
 12 14  1  0
 13 12  1  0
 14 16  1  0
 14 15  1  6
 15  9  1  0
 16 22  1  0
 17 16  2  0
 19 18  1  6
 19 21  1  0
 20 19  1  0
 21 23  1  0
 21 22  1  6
 23 25  2  0
 23 24  1  0
M  END
$$$$
