HVV.pdb
     RDKit          3D

 25 25  0  0  1  0  0  0  0  0999 V2000
    9.8796  -18.1668   19.6411 N   0  0  0  0  0  0  0  0  0  0  0  0
   10.4261  -17.7986   20.9280 C   0  0  1  0  0  0  0  0  0  0  0  0
   11.7525  -17.1344   20.7943 C   0  0  0  0  0  0  0  0  0  0  0  0
   12.7474  -18.1611   20.3954 C   0  0  0  0  0  0  0  0  0  0  0  0
   13.2127  -19.2559   21.0749 C   0  0  0  0  0  0  0  0  0  0  0  0
   14.1218  -19.9108   20.3111 N   0  0  0  0  0  0  0  0  0  0  0  0
   14.2264  -19.2306   19.1583 C   0  0  0  0  0  0  0  0  0  0  0  0
   13.3873  -18.1657   19.2146 N   0  0  0  0  0  0  0  0  0  0  0  0
    9.4242  -17.0504   21.6929 C   0  0  0  0  0  0  0  0  0  0  0  0
    8.9473  -16.0100   21.1691 O   0  0  0  0  0  0  0  0  0  0  0  0
    6.1733  -18.3023   22.9577 C   0  0  0  0  0  0  0  0  0  0  0  0
    6.8903  -17.6273   24.0982 C   0  0  1  0  0  0  0  0  0  0  0  0
    7.4001  -18.5437   25.1501 C   0  0  0  0  0  0  0  0  0  0  0  0
    7.8998  -16.6170   23.5866 C   0  0  2  0  0  0  0  0  0  0  0  0
    8.9546  -17.4092   22.9716 N   0  0  0  0  0  0  0  0  0  0  0  0
    8.4177  -15.7233   24.6247 C   0  0  0  0  0  0  0  0  0  0  0  0
    9.5460  -15.9766   25.1755 O   0  0  0  0  0  0  0  0  0  0  0  0
    6.8213  -12.1128   25.0025 C   0  0  0  0  0  0  0  0  0  0  0  0
    7.4987  -12.4806   26.3041 C   0  0  1  0  0  0  0  0  0  0  0  0
    6.4291  -12.6580   27.3526 C   0  0  0  0  0  0  0  0  0  0  0  0
    8.3116  -13.7466   26.1767 C   0  0  2  0  0  0  0  0  0  0  0  0
    7.7520  -14.5631   25.0840 N   0  0  0  0  0  0  0  0  0  0  0  0
    8.2055  -14.4903   27.4513 C   0  0  0  0  0  0  0  0  0  0  0  0
    8.9223  -14.1262   28.5717 O   0  0  0  0  0  0  0  0  0  0  0  0
    7.4445  -15.4821   27.5257 O   0  0  0  0  0  0  0  0  0  0  0  0
  2  1  1  6
  3  2  1  0
  3  4  1  0
  4  8  1  0
  5  4  2  0
  5  6  1  0
  6  7  1  0
  8  7  2  0
  9 10  2  0
  9  2  1  0
 12 11  1  6
 12 14  1  0
 13 12  1  0
 14 16  1  0
 14 15  1  1
 15  9  1  0
 16 22  1  0
 17 16  2  0
 19 18  1  6
 19 21  1  0
 20 19  1  0
 21 23  1  0
 21 22  1  6
 23 25  2  0
 23 24  1  0
M  END
$$$$
