HVV.pdb
     RDKit          3D

 25 25  0  0  1  0  0  0  0  0999 V2000
   10.3140  -16.2944   19.0395 N   0  0  0  0  0  0  0  0  0  0  0  0
   10.6943  -15.5168   20.1975 C   0  0  1  0  0  0  0  0  0  0  0  0
   11.3900  -14.2575   19.8120 C   0  0  0  0  0  0  0  0  0  0  0  0
   12.8208  -14.5722   19.5738 C   0  0  0  0  0  0  0  0  0  0  0  0
   13.6986  -15.3217   20.3119 C   0  0  0  0  0  0  0  0  0  0  0  0
   14.9099  -15.3316   19.7026 N   0  0  0  0  0  0  0  0  0  0  0  0
   14.7930  -14.5922   18.5881 C   0  0  0  0  0  0  0  0  0  0  0  0
   13.5187  -14.1318   18.5142 N   0  0  0  0  0  0  0  0  0  0  0  0
    9.5359  -15.3486   21.0799 C   0  0  0  0  0  0  0  0  0  0  0  0
    8.6787  -14.4846   20.7596 O   0  0  0  0  0  0  0  0  0  0  0  0
    6.8506  -17.5730   21.9846 C   0  0  0  0  0  0  0  0  0  0  0  0
    7.4257  -17.0723   23.2843 C   0  0  1  0  0  0  0  0  0  0  0  0
    8.1664  -18.0876   24.0760 C   0  0  0  0  0  0  0  0  0  0  0  0
    8.1569  -15.7578   23.0871 C   0  0  2  0  0  0  0  0  0  0  0  0
    9.3103  -16.0827   22.2609 N   0  0  0  0  0  0  0  0  0  0  0  0
    8.5441  -15.1047   24.3394 C   0  0  0  0  0  0  0  0  0  0  0  0
    9.7421  -15.2279   24.7756 O   0  0  0  0  0  0  0  0  0  0  0  0
    7.2258  -11.4946   25.8389 C   0  0  0  0  0  0  0  0  0  0  0  0
    7.1787  -12.6467   26.8181 C   0  0  1  0  0  0  0  0  0  0  0  0
    5.7615  -13.1607   26.8654 C   0  0  0  0  0  0  0  0  0  0  0  0
    8.1186  -13.7599   26.4221 C   0  0  2  0  0  0  0  0  0  0  0  0
    7.6743  -14.3216   25.1332 N   0  0  0  0  0  0  0  0  0  0  0  0
    8.0538  -14.8079   27.4645 C   0  0  0  0  0  0  0  0  0  0  0  0
    8.6241  -14.6375   28.7084 O   0  0  0  0  0  0  0  0  0  0  0  0
    7.4656  -15.8860   27.2201 O   0  0  0  0  0  0  0  0  0  0  0  0
  2  1  1  6
  3  2  1  0
  3  4  1  0
  4  8  1  0
  5  4  2  0
  5  6  1  0
  6  7  1  0
  8  7  2  0
  9 10  2  0
  9  2  1  0
 12 11  1  6
 12 14  1  0
 13 12  1  0
 14 16  1  0
 14 15  1  6
 15  9  1  0
 16 22  1  0
 17 16  2  0
 19 18  1  6
 19 21  1  0
 20 19  1  0
 21 23  1  0
 21 22  1  6
 23 25  2  0
 23 24  1  0
M  END
$$$$
