HVV.pdb
     RDKit          3D

 25 25  0  0  1  0  0  0  0  0999 V2000
    9.7502  -15.7371   20.5844 N   0  0  0  0  0  0  0  0  0  0  0  0
    9.1982  -16.4769   21.6972 C   0  0  1  0  0  0  0  0  0  0  0  0
    9.7569  -17.8554   21.7744 C   0  0  0  0  0  0  0  0  0  0  0  0
    9.2172  -18.6392   20.6354 C   0  0  0  0  0  0  0  0  0  0  0  0
    8.0091  -19.2677   20.4849 C   0  0  0  0  0  0  0  0  0  0  0  0
    7.9565  -19.8632   19.2678 N   0  0  0  0  0  0  0  0  0  0  0  0
    9.1252  -19.6098   18.6577 C   0  0  0  0  0  0  0  0  0  0  0  0
    9.8897  -18.8640   19.4947 N   0  0  0  0  0  0  0  0  0  0  0  0
    9.3161  -15.6827   22.9236 C   0  0  0  0  0  0  0  0  0  0  0  0
   10.4742  -15.3926   23.3221 O   0  0  0  0  0  0  0  0  0  0  0  0
    7.1916  -13.3446   26.7156 C   0  0  0  0  0  0  0  0  0  0  0  0
    7.1677  -13.8513   25.2967 C   0  0  1  0  0  0  0  0  0  0  0  0
    6.6335  -12.8923   24.2961 C   0  0  0  0  0  0  0  0  0  0  0  0
    8.4910  -14.4930   24.9240 C   0  0  2  0  0  0  0  0  0  0  0  0
    8.2289  -15.2195   23.6903 N   0  0  0  0  0  0  0  0  0  0  0  0
    9.0397  -15.3615   25.9676 C   0  0  0  0  0  0  0  0  0  0  0  0
    8.6081  -16.5616   26.0866 O   0  0  0  0  0  0  0  0  0  0  0  0
   12.6902  -14.4944   27.7669 C   0  0  0  0  0  0  0  0  0  0  0  0
   11.7034  -15.2452   28.6334 C   0  0  1  0  0  0  0  0  0  0  0  0
   11.0526  -14.2538   29.5652 C   0  0  0  0  0  0  0  0  0  0  0  0
   10.6508  -15.9463   27.8087 C   0  0  2  0  0  0  0  0  0  0  0  0
   10.0423  -14.9711   26.8854 N   0  0  0  0  0  0  0  0  0  0  0  0
    9.6156  -16.4644   28.7302 C   0  0  0  0  0  0  0  0  0  0  0  0
    9.8145  -17.5982   29.4895 O   0  0  0  0  0  0  0  0  0  0  0  0
    8.5222  -15.8626   28.8311 O   0  0  0  0  0  0  0  0  0  0  0  0
  2  1  1  6
  3  2  1  0
  3  4  1  0
  4  8  1  0
  5  4  2  0
  5  6  1  0
  6  7  1  0
  8  7  2  0
  9 10  2  0
  9  2  1  0
 12 11  1  1
 12 14  1  0
 13 12  1  0
 14 16  1  0
 14 15  1  6
 15  9  1  0
 16 22  1  0
 17 16  2  0
 19 18  1  6
 19 21  1  0
 20 19  1  0
 21 23  1  0
 21 22  1  6
 23 25  2  0
 23 24  1  0
M  END
$$$$
