HVV.pdb
     RDKit          3D

 25 25  0  0  1  0  0  0  0  0999 V2000
    8.0715  -17.5098   19.0836 N   0  0  0  0  0  0  0  0  0  0  0  0
    8.9492  -16.9200   20.0695 C   0  0  1  0  0  0  0  0  0  0  0  0
    9.7370  -15.7908   19.5013 C   0  0  0  0  0  0  0  0  0  0  0  0
   10.8209  -16.3579   18.6609 C   0  0  0  0  0  0  0  0  0  0  0  0
   11.0779  -16.2058   17.3238 C   0  0  0  0  0  0  0  0  0  0  0  0
   12.1837  -16.9165   16.9910 N   0  0  0  0  0  0  0  0  0  0  0  0
   12.6185  -17.5114   18.1132 C   0  0  0  0  0  0  0  0  0  0  0  0
   11.7851  -17.1681   19.1276 N   0  0  0  0  0  0  0  0  0  0  0  0
    8.1876  -16.6059   21.2819 C   0  0  0  0  0  0  0  0  0  0  0  0
    7.1187  -15.9551   21.1477 O   0  0  0  0  0  0  0  0  0  0  0  0
    6.7497  -17.8560   25.6899 C   0  0  0  0  0  0  0  0  0  0  0  0
    7.3214  -18.0205   24.3054 C   0  0  1  0  0  0  0  0  0  0  0  0
    6.5593  -18.9334   23.4155 C   0  0  0  0  0  0  0  0  0  0  0  0
    7.6687  -16.6756   23.6952 C   0  0  2  0  0  0  0  0  0  0  0  0
    8.5630  -16.9786   22.5875 N   0  0  0  0  0  0  0  0  0  0  0  0
    8.2678  -15.7346   24.6439 C   0  0  0  0  0  0  0  0  0  0  0  0
    9.5259  -15.7845   24.8789 O   0  0  0  0  0  0  0  0  0  0  0  0
    6.8068  -11.9486   25.4946 C   0  0  0  0  0  0  0  0  0  0  0  0
    7.2661  -12.7442   26.6964 C   0  0  1  0  0  0  0  0  0  0  0  0
    6.0456  -13.3266   27.3642 C   0  0  0  0  0  0  0  0  0  0  0  0
    8.2189  -13.8492   26.3083 C   0  0  2  0  0  0  0  0  0  0  0  0
    7.5466  -14.7406   25.3453 N   0  0  0  0  0  0  0  0  0  0  0  0
    8.5597  -14.6114   27.5299 C   0  0  0  0  0  0  0  0  0  0  0  0
    9.4060  -14.1061   28.4942 O   0  0  0  0  0  0  0  0  0  0  0  0
    8.0700  -15.7509   27.7030 O   0  0  0  0  0  0  0  0  0  0  0  0
  2  1  1  6
  3  2  1  0
  3  4  1  0
  4  8  1  0
  5  4  2  0
  5  6  1  0
  6  7  1  0
  8  7  2  0
  9 10  2  0
  9  2  1  0
 12 11  1  1
 12 14  1  0
 13 12  1  0
 14 16  1  0
 14 15  1  6
 15  9  1  0
 16 22  1  0
 17 16  2  0
 19 18  1  6
 19 21  1  0
 20 19  1  0
 21 23  1  0
 21 22  1  6
 23 25  2  0
 23 24  1  0
M  END
$$$$
