HVV.pdb
     RDKit          3D

 25 25  0  0  1  0  0  0  0  0999 V2000
    8.4514  -15.5819   20.7300 N   0  0  0  0  0  0  0  0  0  0  0  0
    7.6590  -15.8255   21.9145 C   0  0  1  0  0  0  0  0  0  0  0  0
    7.3505  -17.2728   22.0836 C   0  0  0  0  0  0  0  0  0  0  0  0
    6.4217  -17.6789   20.9995 C   0  0  0  0  0  0  0  0  0  0  0  0
    6.6784  -18.0642   19.7100 C   0  0  0  0  0  0  0  0  0  0  0  0
    5.5110  -18.3453   19.0801 N   0  0  0  0  0  0  0  0  0  0  0  0
    4.5269  -18.1375   19.9694 C   0  0  0  0  0  0  0  0  0  0  0  0
    5.0867  -17.7317   21.1369 N   0  0  0  0  0  0  0  0  0  0  0  0
    8.2886  -15.1792   23.0698 C   0  0  0  0  0  0  0  0  0  0  0  0
    9.5262  -15.3448   23.2287 O   0  0  0  0  0  0  0  0  0  0  0  0
    6.0723  -13.3547   26.1063 C   0  0  0  0  0  0  0  0  0  0  0  0
    7.4573  -12.8458   25.8006 C   0  0  1  0  0  0  0  0  0  0  0  0
    8.0958  -12.0675   26.8926 C   0  0  0  0  0  0  0  0  0  0  0  0
    8.3223  -13.9412   25.2062 C   0  0  2  0  0  0  0  0  0  0  0  0
    7.6114  -14.3859   24.0165 N   0  0  0  0  0  0  0  0  0  0  0  0
    8.5931  -15.0451   26.1296 C   0  0  0  0  0  0  0  0  0  0  0  0
    7.6351  -15.8077   26.5056 O   0  0  0  0  0  0  0  0  0  0  0  0
   11.0156  -17.7987   25.5864 C   0  0  0  0  0  0  0  0  0  0  0  0
   11.2475  -17.3171   27.0015 C   0  0  1  0  0  0  0  0  0  0  0  0
   12.4904  -16.4626   27.0054 C   0  0  0  0  0  0  0  0  0  0  0  0
   10.0742  -16.5239   27.5248 C   0  0  2  0  0  0  0  0  0  0  0  0
    9.8694  -15.3493   26.6575 N   0  0  0  0  0  0  0  0  0  0  0  0
   10.4001  -16.0728   28.8958 C   0  0  0  0  0  0  0  0  0  0  0  0
   10.5769  -14.7404   29.2040 O   0  0  0  0  0  0  0  0  0  0  0  0
   10.5211  -16.9185   29.8113 O   0  0  0  0  0  0  0  0  0  0  0  0
  2  1  1  6
  3  2  1  0
  3  4  1  0
  4  8  1  0
  5  4  2  0
  5  6  1  0
  6  7  1  0
  8  7  2  0
  9 10  2  0
  9  2  1  0
 12 11  1  1
 12 14  1  0
 13 12  1  0
 14 16  1  0
 14 15  1  6
 15  9  1  0
 16 22  1  0
 17 16  2  0
 19 18  1  6
 19 21  1  0
 20 19  1  0
 21 23  1  0
 21 22  1  6
 23 25  2  0
 23 24  1  0
M  END
$$$$
