HVV.pdb
     RDKit          3D

 25 25  0  0  1  0  0  0  0  0999 V2000
   11.7521  -16.9464   19.6979 N   0  0  0  0  0  0  0  0  0  0  0  0
   11.1662  -17.6000   20.8467 C   0  0  1  0  0  0  0  0  0  0  0  0
   12.0253  -18.7084   21.3484 C   0  0  0  0  0  0  0  0  0  0  0  0
   11.7421  -19.9186   20.5372 C   0  0  0  0  0  0  0  0  0  0  0  0
   10.8613  -20.1079   19.5050 C   0  0  0  0  0  0  0  0  0  0  0  0
   10.9475  -21.3875   19.0646 N   0  0  0  0  0  0  0  0  0  0  0  0
   11.8775  -21.9979   19.8163 C   0  0  0  0  0  0  0  0  0  0  0  0
   12.3584  -21.0990   20.7118 N   0  0  0  0  0  0  0  0  0  0  0  0
   10.7905  -16.5957   21.8463 C   0  0  0  0  0  0  0  0  0  0  0  0
   11.5813  -15.6347   22.0339 O   0  0  0  0  0  0  0  0  0  0  0  0
    7.5490  -14.6061   22.1506 C   0  0  0  0  0  0  0  0  0  0  0  0
    7.8766  -15.2658   23.4652 C   0  0  1  0  0  0  0  0  0  0  0  0
    6.9860  -16.3934   23.8413 C   0  0  0  0  0  0  0  0  0  0  0  0
    9.3609  -15.5603   23.5731 C   0  0  2  0  0  0  0  0  0  0  0  0
    9.6094  -16.6259   22.6134 N   0  0  0  0  0  0  0  0  0  0  0  0
    9.7930  -15.9252   24.9239 C   0  0  0  0  0  0  0  0  0  0  0  0
   10.1667  -17.1257   25.1683 O   0  0  0  0  0  0  0  0  0  0  0  0
   11.0828  -13.0686   27.5929 C   0  0  0  0  0  0  0  0  0  0  0  0
   10.4057  -14.2537   28.2451 C   0  0  1  0  0  0  0  0  0  0  0  0
    9.0041  -13.8416   28.6201 C   0  0  0  0  0  0  0  0  0  0  0  0
   10.3634  -15.4520   27.3277 C   0  0  2  0  0  0  0  0  0  0  0  0
    9.8341  -15.0299   26.0179 N   0  0  0  0  0  0  0  0  0  0  0  0
    9.4554  -16.4558   27.9254 C   0  0  0  0  0  0  0  0  0  0  0  0
    9.8326  -17.2349   28.9989 O   0  0  0  0  0  0  0  0  0  0  0  0
    8.3075  -16.6105   27.4497 O   0  0  0  0  0  0  0  0  0  0  0  0
  2  1  1  6
  3  2  1  0
  3  4  1  0
  4  8  1  0
  5  4  2  0
  5  6  1  0
  6  7  1  0
  8  7  2  0
  9 10  2  0
  9  2  1  0
 12 11  1  6
 12 14  1  0
 13 12  1  0
 14 16  1  0
 14 15  1  6
 15  9  1  0
 16 22  1  0
 17 16  2  0
 19 18  1  6
 19 21  1  0
 20 19  1  0
 21 23  1  0
 21 22  1  6
 23 25  2  0
 23 24  1  0
M  END
$$$$
