HGC.pdb
     RDKit          3D

 21 21  0  0  1  0  0  0  0  0999 V2000
    9.7004  -16.0809   20.5258 N   0  0  0  0  0  0  0  0  0  0  0  0
    8.8849  -15.5457   21.5819 C   0  0  1  0  0  0  0  0  0  0  0  0
    7.5041  -15.1760   21.0743 C   0  0  0  0  0  0  0  0  0  0  0  0
    7.5860  -14.4339   19.8112 C   0  0  0  0  0  0  0  0  0  0  0  0
    7.7708  -13.0893   19.6638 C   0  0  0  0  0  0  0  0  0  0  0  0
    7.7885  -12.8023   18.3513 N   0  0  0  0  0  0  0  0  0  0  0  0
    7.6174  -13.9475   17.6667 C   0  0  0  0  0  0  0  0  0  0  0  0
    7.4939  -14.9443   18.5692 N   0  0  0  0  0  0  0  0  0  0  0  0
    8.7366  -16.4824   22.7168 C   0  0  0  0  0  0  0  0  0  0  0  0
    9.1345  -17.6674   22.5774 O   0  0  0  0  0  0  0  0  0  0  0  0
    8.1658  -16.1170   23.9659 N   0  0  0  0  0  0  0  0  0  0  0  0
    8.2700  -17.0176   25.1105 C   0  0  0  0  0  0  0  0  0  0  0  0
    9.3699  -16.6403   26.0062 C   0  0  0  0  0  0  0  0  0  0  0  0
   10.4808  -17.2134   25.8787 O   0  0  0  0  0  0  0  0  0  0  0  0
    9.2168  -15.6634   26.9951 N   0  0  0  0  0  0  0  0  0  0  0  0
   10.2551  -15.1895   27.8689 C   0  0  1  0  0  0  0  0  0  0  0  0
    9.9117  -13.9011   28.5672 C   0  0  0  0  0  0  0  0  0  0  0  0
    8.9179  -12.8070   27.5176 S   0  0  0  0  0  0  0  0  0  0  0  0
   10.6232  -16.2029   28.8958 C   0  0  0  0  0  0  0  0  0  0  0  0
    9.9691  -17.2443   29.0353 O   0  0  0  0  0  0  0  0  0  0  0  0
   11.7249  -15.9618   29.7066 O   0  0  0  0  0  0  0  0  0  0  0  0
  2  1  1  6
  3  2  1  0
  3  4  1  0
  4  5  2  0
  5  6  1  0
  7  6  1  0
  8  4  1  0
  8  7  2  0
  9  2  1  0
  9 10  2  0
 11  9  1  0
 12 11  1  0
 12 13  1  0
 13 15  1  0
 14 13  2  0
 15 16  1  0
 16 17  1  1
 17 18  1  0
 19 16  1  0
 19 21  1  0
 20 19  2  0
M  END
$$$$
