HGC.pdb
     RDKit          3D

 21 21  0  0  1  0  0  0  0  0999 V2000
   11.5038  -18.7801   21.0869 N   0  0  0  0  0  0  0  0  0  0  0  0
   10.8518  -17.5189   20.8606 C   0  0  1  0  0  0  0  0  0  0  0  0
    9.8887  -17.6018   19.6916 C   0  0  0  0  0  0  0  0  0  0  0  0
   10.5803  -18.0132   18.4647 C   0  0  0  0  0  0  0  0  0  0  0  0
   10.2162  -19.0226   17.6206 C   0  0  0  0  0  0  0  0  0  0  0  0
   11.1060  -19.0801   16.6154 N   0  0  0  0  0  0  0  0  0  0  0  0
   12.0279  -18.1207   16.8126 C   0  0  0  0  0  0  0  0  0  0  0  0
   11.6987  -17.4702   17.9492 N   0  0  0  0  0  0  0  0  0  0  0  0
   10.1135  -17.0387   22.0488 C   0  0  0  0  0  0  0  0  0  0  0  0
    9.5690  -15.9058   22.0041 O   0  0  0  0  0  0  0  0  0  0  0  0
    9.9831  -17.7904   23.2477 N   0  0  0  0  0  0  0  0  0  0  0  0
    9.2033  -17.2612   24.3630 C   0  0  0  0  0  0  0  0  0  0  0  0
   10.0605  -16.6908   25.4091 C   0  0  0  0  0  0  0  0  0  0  0  0
   11.3059  -16.6931   25.2421 O   0  0  0  0  0  0  0  0  0  0  0  0
    9.5317  -16.1462   26.5837 N   0  0  0  0  0  0  0  0  0  0  0  0
   10.2940  -15.5353   27.6381 C   0  0  1  0  0  0  0  0  0  0  0  0
    9.5965  -14.3700   28.2869 C   0  0  0  0  0  0  0  0  0  0  0  0
   10.7191  -12.9710   28.5501 S   0  0  0  0  0  0  0  0  0  0  0  0
   10.6651  -16.5155   28.6957 C   0  0  0  0  0  0  0  0  0  0  0  0
   10.0004  -17.5427   28.8826 O   0  0  0  0  0  0  0  0  0  0  0  0
   11.7818  -16.2594   29.4810 O   0  0  0  0  0  0  0  0  0  0  0  0
  2  1  1  1
  3  2  1  0
  3  4  1  0
  4  5  2  0
  5  6  1  0
  7  6  1  0
  8  4  1  0
  8  7  2  0
  9  2  1  0
  9 10  2  0
 11  9  1  0
 12 11  1  0
 12 13  1  0
 13 15  1  0
 14 13  2  0
 15 16  1  0
 16 17  1  1
 17 18  1  0
 19 16  1  0
 19 21  1  0
 20 19  2  0
M  END
$$$$
