HGC.pdb
     RDKit          3D

 21 21  0  0  1  0  0  0  0  0999 V2000
    7.3928  -15.3333   20.9028 N   0  0  0  0  0  0  0  0  0  0  0  0
    8.5051  -16.2115   20.6607 C   0  0  1  0  0  0  0  0  0  0  0  0
    9.1745  -15.8957   19.3366 C   0  0  0  0  0  0  0  0  0  0  0  0
    8.4075  -14.8993   18.5805 C   0  0  0  0  0  0  0  0  0  0  0  0
    7.6632  -13.8775   19.0962 C   0  0  0  0  0  0  0  0  0  0  0  0
    7.1182  -13.1906   18.0782 N   0  0  0  0  0  0  0  0  0  0  0  0
    7.5078  -13.7642   16.9256 C   0  0  0  0  0  0  0  0  0  0  0  0
    8.2987  -14.8120   17.2419 N   0  0  0  0  0  0  0  0  0  0  0  0
    9.5228  -16.1495   21.7320 C   0  0  0  0  0  0  0  0  0  0  0  0
   10.6732  -16.6012   21.4987 O   0  0  0  0  0  0  0  0  0  0  0  0
    9.2730  -15.6043   23.0204 N   0  0  0  0  0  0  0  0  0  0  0  0
   10.3143  -15.6352   24.0435 C   0  0  0  0  0  0  0  0  0  0  0  0
    9.9166  -14.9040   25.2524 C   0  0  0  0  0  0  0  0  0  0  0  0
   10.7753  -14.6942   26.1454 O   0  0  0  0  0  0  0  0  0  0  0  0
    8.6121  -14.4354   25.4381 N   0  0  0  0  0  0  0  0  0  0  0  0
    7.8891  -14.4478   26.6804 C   0  0  1  0  0  0  0  0  0  0  0  0
    6.6431  -13.6036   26.6593 C   0  0  0  0  0  0  0  0  0  0  0  0
    6.9042  -12.0343   25.7900 S   0  0  0  0  0  0  0  0  0  0  0  0
    7.5198  -15.8294   27.0950 C   0  0  0  0  0  0  0  0  0  0  0  0
    7.6542  -16.7895   26.3256 O   0  0  0  0  0  0  0  0  0  0  0  0
    7.0156  -16.0303   28.3736 O   0  0  0  0  0  0  0  0  0  0  0  0
  2  1  1  1
  3  2  1  0
  3  4  1  0
  4  5  2  0
  5  6  1  0
  7  6  1  0
  8  4  1  0
  8  7  2  0
  9  2  1  0
  9 10  2  0
 11  9  1  0
 12 11  1  0
 12 13  1  0
 13 15  1  0
 14 13  2  0
 15 16  1  0
 16 17  1  6
 17 18  1  0
 19 16  1  0
 19 21  1  0
 20 19  2  0
M  END
$$$$
