HGC.pdb
     RDKit          3D

 21 21  0  0  1  0  0  0  0  0999 V2000
    8.9683  -12.7036   17.9848 N   0  0  0  0  0  0  0  0  0  0  0  0
    9.4325  -14.0614   18.0742 C   0  0  1  0  0  0  0  0  0  0  0  0
    9.9766  -14.5432   16.7427 C   0  0  0  0  0  0  0  0  0  0  0  0
    8.9323  -14.5401   15.7122 C   0  0  0  0  0  0  0  0  0  0  0  0
    7.7038  -13.9502   15.7953 C   0  0  0  0  0  0  0  0  0  0  0  0
    7.0444  -14.1739   14.6461 N   0  0  0  0  0  0  0  0  0  0  0  0
    7.8394  -14.8973   13.8375 C   0  0  0  0  0  0  0  0  0  0  0  0
    8.9960  -15.1181   14.4984 N   0  0  0  0  0  0  0  0  0  0  0  0
   10.4783  -14.2386   19.1048 C   0  0  0  0  0  0  0  0  0  0  0  0
   11.1670  -13.2422   19.4436 O   0  0  0  0  0  0  0  0  0  0  0  0
   10.7517  -15.4805   19.7392 N   0  0  0  0  0  0  0  0  0  0  0  0
   11.7587  -15.5585   20.7937 C   0  0  0  0  0  0  0  0  0  0  0  0
   11.1567  -15.5048   22.1313 C   0  0  0  0  0  0  0  0  0  0  0  0
   11.8808  -15.7315   23.1328 O   0  0  0  0  0  0  0  0  0  0  0  0
    9.8031  -15.2092   22.3222 N   0  0  0  0  0  0  0  0  0  0  0  0
    9.0996  -15.2870   23.5732 C   0  0  1  0  0  0  0  0  0  0  0  0
    7.7233  -14.6793   23.5278 C   0  0  0  0  0  0  0  0  0  0  0  0
    7.7604  -12.9640   22.9422 S   0  0  0  0  0  0  0  0  0  0  0  0
    8.9837  -16.6895   24.0597 C   0  0  0  0  0  0  0  0  0  0  0  0
    9.2857  -17.6480   23.3373 O   0  0  0  0  0  0  0  0  0  0  0  0
    8.5263  -16.9120   25.3522 O   0  0  0  0  0  0  0  0  0  0  0  0
  2  1  1  6
  3  2  1  0
  3  4  1  0
  4  5  2  0
  5  6  1  0
  7  6  1  0
  8  4  1  0
  8  7  2  0
  9  2  1  0
  9 10  2  0
 11  9  1  0
 12 11  1  0
 12 13  1  0
 13 15  1  0
 14 13  2  0
 15 16  1  0
 16 17  1  6
 17 18  1  0
 19 16  1  0
 19 21  1  0
 20 19  2  0
M  END
$$$$
