HGC.pdb
     RDKit          3D

 21 21  0  0  1  0  0  0  0  0999 V2000
    6.0625  -17.5171   23.0757 N   0  0  0  0  0  0  0  0  0  0  0  0
    6.8010  -16.5825   22.2706 C   0  0  1  0  0  0  0  0  0  0  0  0
    5.9819  -16.1164   21.0819 C   0  0  0  0  0  0  0  0  0  0  0  0
    6.7801  -15.2683   20.1895 C   0  0  0  0  0  0  0  0  0  0  0  0
    6.7793  -13.9039   20.1418 C   0  0  0  0  0  0  0  0  0  0  0  0
    7.6449  -13.5096   19.1927 N   0  0  0  0  0  0  0  0  0  0  0  0
    8.1929  -14.6064   18.6395 C   0  0  0  0  0  0  0  0  0  0  0  0
    7.6574  -15.6817   19.2563 N   0  0  0  0  0  0  0  0  0  0  0  0
    7.2418  -15.3961   23.0359 C   0  0  0  0  0  0  0  0  0  0  0  0
    6.4137  -14.8210   23.7879 O   0  0  0  0  0  0  0  0  0  0  0  0
    8.5581  -14.8647   22.9695 N   0  0  0  0  0  0  0  0  0  0  0  0
    8.9023  -13.6640   23.7258 C   0  0  0  0  0  0  0  0  0  0  0  0
    9.4976  -13.9883   25.0277 C   0  0  0  0  0  0  0  0  0  0  0  0
   10.4357  -13.2738   25.4615 O   0  0  0  0  0  0  0  0  0  0  0  0
    9.0512  -15.0674   25.7971 N   0  0  0  0  0  0  0  0  0  0  0  0
    9.6596  -15.5347   27.0127 C   0  0  1  0  0  0  0  0  0  0  0  0
    8.9313  -15.0989   28.2557 C   0  0  0  0  0  0  0  0  0  0  0  0
    8.4341  -13.3575   28.1726 S   0  0  0  0  0  0  0  0  0  0  0  0
    9.7908  -17.0178   27.0344 C   0  0  0  0  0  0  0  0  0  0  0  0
    9.2589  -17.7234   26.1678 O   0  0  0  0  0  0  0  0  0  0  0  0
   10.5276  -17.6078   28.0534 O   0  0  0  0  0  0  0  0  0  0  0  0
  2  1  1  1
  3  2  1  0
  3  4  1  0
  4  5  2  0
  5  6  1  0
  7  6  1  0
  8  4  1  0
  8  7  2  0
  9  2  1  0
  9 10  2  0
 11  9  1  0
 12 11  1  0
 12 13  1  0
 13 15  1  0
 14 13  2  0
 15 16  1  0
 16 17  1  1
 17 18  1  0
 19 16  1  0
 19 21  1  0
 20 19  2  0
M  END
$$$$
