HGC.pdb
     RDKit          3D

 21 21  0  0  1  0  0  0  0  0999 V2000
    8.5019  -16.2478   15.4612 N   0  0  0  0  0  0  0  0  0  0  0  0
    7.9426  -16.0261   16.7670 C   0  0  1  0  0  0  0  0  0  0  0  0
    8.2685  -17.1732   17.7046 C   0  0  0  0  0  0  0  0  0  0  0  0
    7.5705  -18.3995   17.3026 C   0  0  0  0  0  0  0  0  0  0  0  0
    6.7169  -18.5455   16.2471 C   0  0  0  0  0  0  0  0  0  0  0  0
    6.2888  -19.8188   16.2176 N   0  0  0  0  0  0  0  0  0  0  0  0
    6.8601  -20.4799   17.2401 C   0  0  0  0  0  0  0  0  0  0  0  0
    7.6452  -19.6026   17.9014 N   0  0  0  0  0  0  0  0  0  0  0  0
    8.4125  -14.7652   17.3807 C   0  0  0  0  0  0  0  0  0  0  0  0
    9.6060  -14.4130   17.1981 O   0  0  0  0  0  0  0  0  0  0  0  0
    7.5857  -13.9221   18.1714 N   0  0  0  0  0  0  0  0  0  0  0  0
    8.1034  -12.6539   18.6772 C   0  0  0  0  0  0  0  0  0  0  0  0
    8.6695  -12.7914   20.0244 C   0  0  0  0  0  0  0  0  0  0  0  0
    9.1455  -11.7753   20.5898 O   0  0  0  0  0  0  0  0  0  0  0  0
    8.6941  -14.0185   20.6949 N   0  0  0  0  0  0  0  0  0  0  0  0
    9.2570  -14.2472   21.9976 C   0  0  1  0  0  0  0  0  0  0  0  0
    8.2841  -14.8494   22.9756 C   0  0  0  0  0  0  0  0  0  0  0  0
    6.8204  -13.8044   23.2038 S   0  0  0  0  0  0  0  0  0  0  0  0
   10.4665  -15.1135   21.9364 C   0  0  0  0  0  0  0  0  0  0  0  0
   10.8487  -15.6102   20.8692 O   0  0  0  0  0  0  0  0  0  0  0  0
   11.1703  -15.3608   23.1081 O   0  0  0  0  0  0  0  0  0  0  0  0
  2  1  1  6
  3  2  1  0
  3  4  1  0
  4  5  2  0
  5  6  1  0
  7  6  1  0
  8  4  1  0
  8  7  2  0
  9  2  1  0
  9 10  2  0
 11  9  1  0
 12 11  1  0
 12 13  1  0
 13 15  1  0
 14 13  2  0
 15 16  1  0
 16 17  1  1
 17 18  1  0
 19 16  1  0
 19 21  1  0
 20 19  2  0
M  END
$$$$
