HGC.pdb
     RDKit          3D

 21 21  0  0  1  0  0  0  0  0999 V2000
    9.2954  -18.2814   20.4174 N   0  0  0  0  0  0  0  0  0  0  0  0
    9.4673  -16.8903   20.0976 C   0  0  1  0  0  0  0  0  0  0  0  0
    9.0312  -16.5972   18.6746 C   0  0  0  0  0  0  0  0  0  0  0  0
    9.8434  -17.3445   17.7079 C   0  0  0  0  0  0  0  0  0  0  0  0
   11.1848  -17.2111   17.4915 C   0  0  0  0  0  0  0  0  0  0  0  0
   11.5492  -18.0725   16.5268 N   0  0  0  0  0  0  0  0  0  0  0  0
   10.4562  -18.7488   16.1302 C   0  0  0  0  0  0  0  0  0  0  0  0
    9.4135  -18.2967   16.8594 N   0  0  0  0  0  0  0  0  0  0  0  0
    8.7226  -15.9995   21.0137 C   0  0  0  0  0  0  0  0  0  0  0  0
    8.8767  -14.7560   20.9045 O   0  0  0  0  0  0  0  0  0  0  0  0
    7.8357  -16.4722   22.0184 N   0  0  0  0  0  0  0  0  0  0  0  0
    7.2294  -15.5355   22.9602 C   0  0  0  0  0  0  0  0  0  0  0  0
    8.1217  -15.2363   24.0866 C   0  0  0  0  0  0  0  0  0  0  0  0
    9.2482  -15.7910   24.1331 O   0  0  0  0  0  0  0  0  0  0  0  0
    7.7545  -14.3534   25.1071 N   0  0  0  0  0  0  0  0  0  0  0  0
    8.6046  -13.9189   26.1817 C   0  0  1  0  0  0  0  0  0  0  0  0
    7.9563  -12.9092   27.0905 C   0  0  0  0  0  0  0  0  0  0  0  0
    7.1682  -11.5686   26.1588 S   0  0  0  0  0  0  0  0  0  0  0  0
    9.0853  -15.0612   27.0070 C   0  0  0  0  0  0  0  0  0  0  0  0
    8.6010  -16.1934   26.8827 O   0  0  0  0  0  0  0  0  0  0  0  0
   10.0980  -14.8375   27.9309 O   0  0  0  0  0  0  0  0  0  0  0  0
  2  1  1  1
  3  2  1  0
  3  4  1  0
  4  5  2  0
  5  6  1  0
  7  6  1  0
  8  4  1  0
  8  7  2  0
  9  2  1  0
  9 10  2  0
 11  9  1  0
 12 11  1  0
 12 13  1  0
 13 15  1  0
 14 13  2  0
 15 16  1  0
 16 17  1  1
 17 18  1  0
 19 16  1  0
 19 21  1  0
 20 19  2  0
M  END
$$$$
