HGC.pdb
     RDKit          3D

 21 21  0  0  1  0  0  0  0  0999 V2000
   10.1523  -15.3880   20.3197 N   0  0  0  0  0  0  0  0  0  0  0  0
    9.1082  -15.8974   21.1667 C   0  0  1  0  0  0  0  0  0  0  0  0
    7.8550  -16.2025   20.3684 C   0  0  0  0  0  0  0  0  0  0  0  0
    7.5618  -15.1282   19.4131 C   0  0  0  0  0  0  0  0  0  0  0  0
    7.4025  -13.8025   19.6976 C   0  0  0  0  0  0  0  0  0  0  0  0
    7.1459  -13.1481   18.5525 N   0  0  0  0  0  0  0  0  0  0  0  0
    7.1409  -14.0422   17.5476 C   0  0  0  0  0  0  0  0  0  0  0  0
    7.3968  -15.2550   18.0834 N   0  0  0  0  0  0  0  0  0  0  0  0
    9.5128  -17.1181   21.8973 C   0  0  0  0  0  0  0  0  0  0  0  0
    8.6680  -17.6886   22.6339 O   0  0  0  0  0  0  0  0  0  0  0  0
   10.8120  -17.6877   21.8137 N   0  0  0  0  0  0  0  0  0  0  0  0
   11.1321  -18.8961   22.5683 C   0  0  0  0  0  0  0  0  0  0  0  0
   12.4881  -18.8494   23.1282 C   0  0  0  0  0  0  0  0  0  0  0  0
   12.9288  -19.8562   23.7372 O   0  0  0  0  0  0  0  0  0  0  0  0
   13.3016  -17.7187   23.0033 N   0  0  0  0  0  0  0  0  0  0  0  0
   14.7032  -17.6594   23.3167 C   0  0  1  0  0  0  0  0  0  0  0  0
   15.3344  -16.3301   23.0001 C   0  0  0  0  0  0  0  0  0  0  0  0
   14.4390  -14.9555   23.7715 S   0  0  0  0  0  0  0  0  0  0  0  0
   14.9674  -17.9822   24.7460 C   0  0  0  0  0  0  0  0  0  0  0  0
   14.0629  -17.9523   25.5902 O   0  0  0  0  0  0  0  0  0  0  0  0
   16.2596  -18.3221   25.1257 O   0  0  0  0  0  0  0  0  0  0  0  0
  2  1  1  6
  3  2  1  0
  3  4  1  0
  4  5  2  0
  5  6  1  0
  7  6  1  0
  8  4  1  0
  8  7  2  0
  9  2  1  0
  9 10  2  0
 11  9  1  0
 12 11  1  0
 12 13  1  0
 13 15  1  0
 14 13  2  0
 15 16  1  0
 16 17  1  1
 17 18  1  0
 19 16  1  0
 19 21  1  0
 20 19  2  0
M  END
$$$$
