HGC.pdb
     RDKit          3D

 21 21  0  0  1  0  0  0  0  0999 V2000
    8.0337  -16.9456   20.7672 N   0  0  0  0  0  0  0  0  0  0  0  0
    7.5668  -15.6569   21.2011 C   0  0  1  0  0  0  0  0  0  0  0  0
    6.6117  -15.0513   20.1901 C   0  0  0  0  0  0  0  0  0  0  0  0
    7.3356  -14.5264   19.0269 C   0  0  0  0  0  0  0  0  0  0  0  0
    8.1798  -13.4536   19.0056 C   0  0  0  0  0  0  0  0  0  0  0  0
    8.6398  -13.2974   17.7529 N   0  0  0  0  0  0  0  0  0  0  0  0
    8.0979  -14.2571   16.9817 C   0  0  0  0  0  0  0  0  0  0  0  0
    7.2988  -15.0073   17.7704 N   0  0  0  0  0  0  0  0  0  0  0  0
    6.8927  -15.7092   22.5166 C   0  0  0  0  0  0  0  0  0  0  0  0
    5.7123  -16.1396   22.5734 O   0  0  0  0  0  0  0  0  0  0  0  0
    7.5077  -15.2974   23.7297 N   0  0  0  0  0  0  0  0  0  0  0  0
    8.6601  -14.4012   23.6995 C   0  0  0  0  0  0  0  0  0  0  0  0
    9.2407  -14.2100   25.0340 C   0  0  0  0  0  0  0  0  0  0  0  0
   10.4215  -13.7911   25.1283 O   0  0  0  0  0  0  0  0  0  0  0  0
    8.5185  -14.4802   26.2007 N   0  0  0  0  0  0  0  0  0  0  0  0
    8.8391  -13.9907   27.5136 C   0  0  1  0  0  0  0  0  0  0  0  0
    7.6608  -13.3972   28.2383 C   0  0  0  0  0  0  0  0  0  0  0  0
    6.5400  -12.5284   27.1089 S   0  0  0  0  0  0  0  0  0  0  0  0
    9.4394  -15.0500   28.3707 C   0  0  0  0  0  0  0  0  0  0  0  0
    9.5087  -16.2248   27.9877 O   0  0  0  0  0  0  0  0  0  0  0  0
    9.9275  -14.6986   29.6227 O   0  0  0  0  0  0  0  0  0  0  0  0
  2  1  1  6
  3  2  1  0
  3  4  1  0
  4  5  2  0
  5  6  1  0
  7  6  1  0
  8  4  1  0
  8  7  2  0
  9  2  1  0
  9 10  2  0
 11  9  1  0
 12 11  1  0
 12 13  1  0
 13 15  1  0
 14 13  2  0
 15 16  1  0
 16 17  1  1
 17 18  1  0
 19 16  1  0
 19 21  1  0
 20 19  2  0
M  END
$$$$
