HGC.pdb
     RDKit          3D

 21 21  0  0  1  0  0  0  0  0999 V2000
    8.5066  -16.2187   21.1831 N   0  0  0  0  0  0  0  0  0  0  0  0
    7.5096  -15.4814   21.9106 C   0  0  1  0  0  0  0  0  0  0  0  0
    6.5538  -14.7752   20.9678 C   0  0  0  0  0  0  0  0  0  0  0  0
    7.2832  -14.0072   19.9526 C   0  0  0  0  0  0  0  0  0  0  0  0
    8.4485  -13.3183   20.1299 C   0  0  0  0  0  0  0  0  0  0  0  0
    8.7908  -12.7508   18.9610 N   0  0  0  0  0  0  0  0  0  0  0  0
    7.8576  -13.0716   18.0470 C   0  0  0  0  0  0  0  0  0  0  0  0
    6.9358  -13.8426   18.6628 N   0  0  0  0  0  0  0  0  0  0  0  0
    6.7247  -16.3370   22.8267 C   0  0  0  0  0  0  0  0  0  0  0  0
    5.4860  -16.4463   22.6381 O   0  0  0  0  0  0  0  0  0  0  0  0
    7.2949  -17.0485   23.9168 N   0  0  0  0  0  0  0  0  0  0  0  0
    6.4507  -17.8774   24.7725 C   0  0  0  0  0  0  0  0  0  0  0  0
    7.1955  -18.4238   25.9131 C   0  0  0  0  0  0  0  0  0  0  0  0
    6.5777  -19.0970   26.7756 O   0  0  0  0  0  0  0  0  0  0  0  0
    8.5701  -18.2168   26.0667 N   0  0  0  0  0  0  0  0  0  0  0  0
    9.4626  -19.0578   26.8166 C   0  0  1  0  0  0  0  0  0  0  0  0
   10.8699  -19.0677   26.2828 C   0  0  0  0  0  0  0  0  0  0  0  0
   10.9607  -18.3928   24.6027 S   0  0  0  0  0  0  0  0  0  0  0  0
    9.5034  -18.6809   28.2565 C   0  0  0  0  0  0  0  0  0  0  0  0
    8.9440  -17.6571   28.6696 O   0  0  0  0  0  0  0  0  0  0  0  0
   10.1866  -19.5038   29.1428 O   0  0  0  0  0  0  0  0  0  0  0  0
  2  1  1  6
  3  2  1  0
  3  4  1  0
  4  5  2  0
  5  6  1  0
  7  6  1  0
  8  4  1  0
  8  7  2  0
  9  2  1  0
  9 10  2  0
 11  9  1  0
 12 11  1  0
 12 13  1  0
 13 15  1  0
 14 13  2  0
 15 16  1  0
 16 17  1  6
 17 18  1  0
 19 16  1  0
 19 21  1  0
 20 19  2  0
M  END
$$$$
