HGC.pdb
     RDKit          3D

 21 21  0  0  1  0  0  0  0  0999 V2000
    9.3230  -18.1945   20.8735 N   0  0  0  0  0  0  0  0  0  0  0  0
    8.6931  -17.0159   20.3431 C   0  0  1  0  0  0  0  0  0  0  0  0
    7.2779  -17.3108   19.8832 C   0  0  0  0  0  0  0  0  0  0  0  0
    7.2700  -18.2906   18.7911 C   0  0  0  0  0  0  0  0  0  0  0  0
    8.0903  -18.3047   17.6999 C   0  0  0  0  0  0  0  0  0  0  0  0
    7.7661  -19.3614   16.9359 N   0  0  0  0  0  0  0  0  0  0  0  0
    6.7517  -20.0157   17.5294 C   0  0  0  0  0  0  0  0  0  0  0  0
    6.4528  -19.3528   18.6672 N   0  0  0  0  0  0  0  0  0  0  0  0
    8.6518  -15.9048   21.3184 C   0  0  0  0  0  0  0  0  0  0  0  0
    7.9534  -14.8934   21.0520 O   0  0  0  0  0  0  0  0  0  0  0  0
    9.3620  -15.9150   22.5493 N   0  0  0  0  0  0  0  0  0  0  0  0
    9.2494  -14.7869   23.4694 C   0  0  0  0  0  0  0  0  0  0  0  0
   10.0661  -14.9784   24.6739 C   0  0  0  0  0  0  0  0  0  0  0  0
   11.3144  -15.0584   24.5548 O   0  0  0  0  0  0  0  0  0  0  0  0
    9.4957  -15.0743   25.9471 N   0  0  0  0  0  0  0  0  0  0  0  0
   10.1954  -14.9025   27.1909 C   0  0  1  0  0  0  0  0  0  0  0  0
    9.5005  -13.9718   28.1482 C   0  0  0  0  0  0  0  0  0  0  0  0
    8.8466  -12.5037   27.3094 S   0  0  0  0  0  0  0  0  0  0  0  0
   10.4329  -16.2013   27.8792 C   0  0  0  0  0  0  0  0  0  0  0  0
    9.9198  -17.2501   27.4688 O   0  0  0  0  0  0  0  0  0  0  0  0
   11.2488  -16.2217   29.0032 O   0  0  0  0  0  0  0  0  0  0  0  0
  2  1  1  1
  3  2  1  0
  3  4  1  0
  4  5  2  0
  5  6  1  0
  7  6  1  0
  8  4  1  0
  8  7  2  0
  9  2  1  0
  9 10  2  0
 11  9  1  0
 12 11  1  0
 12 13  1  0
 13 15  1  0
 14 13  2  0
 15 16  1  0
 16 17  1  1
 17 18  1  0
 19 16  1  0
 19 21  1  0
 20 19  2  0
M  END
$$$$
