HGC.pdb
     RDKit          3D

 21 21  0  0  1  0  0  0  0  0999 V2000
    7.7755  -16.6968   19.6009 N   0  0  0  0  0  0  0  0  0  0  0  0
    8.5799  -15.7244   20.2896 C   0  0  1  0  0  0  0  0  0  0  0  0
    8.2646  -14.3182   19.8162 C   0  0  0  0  0  0  0  0  0  0  0  0
    8.2943  -14.2340   18.3517 C   0  0  0  0  0  0  0  0  0  0  0  0
    7.2844  -13.8093   17.5369 C   0  0  0  0  0  0  0  0  0  0  0  0
    7.7052  -13.8814   16.2629 N   0  0  0  0  0  0  0  0  0  0  0  0
    8.9675  -14.3459   16.2611 C   0  0  0  0  0  0  0  0  0  0  0  0
    9.3221  -14.5600   17.5463 N   0  0  0  0  0  0  0  0  0  0  0  0
    8.4070  -15.7795   21.7574 C   0  0  0  0  0  0  0  0  0  0  0  0
    9.1745  -15.0955   22.4818 O   0  0  0  0  0  0  0  0  0  0  0  0
    7.4150  -16.5677   22.4011 N   0  0  0  0  0  0  0  0  0  0  0  0
    7.3433  -16.6077   23.8590 C   0  0  0  0  0  0  0  0  0  0  0  0
    7.1801  -15.2682   24.4365 C   0  0  0  0  0  0  0  0  0  0  0  0
    6.6675  -14.3618   23.7333 O   0  0  0  0  0  0  0  0  0  0  0  0
    7.5779  -14.9729   25.7443 N   0  0  0  0  0  0  0  0  0  0  0  0
    7.5644  -13.6679   26.3469 C   0  0  1  0  0  0  0  0  0  0  0  0
    6.1808  -13.1031   26.5270 C   0  0  0  0  0  0  0  0  0  0  0  0
    6.2164  -11.4528   27.2765 S   0  0  0  0  0  0  0  0  0  0  0  0
    8.2572  -13.6568   27.6648 C   0  0  0  0  0  0  0  0  0  0  0  0
    8.4268  -14.6984   28.3112 O   0  0  0  0  0  0  0  0  0  0  0  0
    8.7174  -12.4462   28.1667 O   0  0  0  0  0  0  0  0  0  0  0  0
  2  1  1  6
  3  2  1  0
  3  4  1  0
  4  5  2  0
  5  6  1  0
  7  6  1  0
  8  4  1  0
  8  7  2  0
  9  2  1  0
  9 10  2  0
 11  9  1  0
 12 11  1  0
 12 13  1  0
 13 15  1  0
 14 13  2  0
 15 16  1  0
 16 17  1  1
 17 18  1  0
 19 16  1  0
 19 21  1  0
 20 19  2  0
M  END
$$$$
