HGC.pdb
     RDKit          3D

 21 21  0  0  1  0  0  0  0  0999 V2000
    8.9532  -18.3994   20.4189 N   0  0  0  0  0  0  0  0  0  0  0  0
    8.7149  -16.9819   20.3916 C   0  0  1  0  0  0  0  0  0  0  0  0
    8.1394  -16.5486   19.0567 C   0  0  0  0  0  0  0  0  0  0  0  0
    8.0723  -15.0861   18.9592 C   0  0  0  0  0  0  0  0  0  0  0  0
    8.2778  -14.1896   19.9681 C   0  0  0  0  0  0  0  0  0  0  0  0
    8.1260  -12.9492   19.4742 N   0  0  0  0  0  0  0  0  0  0  0  0
    7.8272  -13.0495   18.1666 C   0  0  0  0  0  0  0  0  0  0  0  0
    7.7960  -14.3637   17.8578 N   0  0  0  0  0  0  0  0  0  0  0  0
    7.8020  -16.5375   21.4671 C   0  0  0  0  0  0  0  0  0  0  0  0
    6.5802  -16.8219   21.3777 O   0  0  0  0  0  0  0  0  0  0  0  0
    8.2302  -15.8015   22.6049 N   0  0  0  0  0  0  0  0  0  0  0  0
    7.2782  -15.4623   23.6587 C   0  0  0  0  0  0  0  0  0  0  0  0
    7.9185  -14.7384   24.7634 C   0  0  0  0  0  0  0  0  0  0  0  0
    9.1732  -14.7046   24.8211 O   0  0  0  0  0  0  0  0  0  0  0  0
    7.1734  -14.0867   25.7514 N   0  0  0  0  0  0  0  0  0  0  0  0
    7.7185  -13.3507   26.8592 C   0  0  1  0  0  0  0  0  0  0  0  0
    6.6868  -12.5689   27.6274 C   0  0  0  0  0  0  0  0  0  0  0  0
    5.3772  -11.9334   26.5468 S   0  0  0  0  0  0  0  0  0  0  0  0
    8.4485  -14.2351   27.8090 C   0  0  0  0  0  0  0  0  0  0  0  0
    9.1987  -13.7683   28.6755 O   0  0  0  0  0  0  0  0  0  0  0  0
    8.2747  -15.6096   27.7091 O   0  0  0  0  0  0  0  0  0  0  0  0
  2  1  1  6
  3  2  1  0
  3  4  1  0
  4  5  2  0
  5  6  1  0
  7  6  1  0
  8  4  1  0
  8  7  2  0
  9  2  1  0
  9 10  2  0
 11  9  1  0
 12 11  1  0
 12 13  1  0
 13 15  1  0
 14 13  2  0
 15 16  1  0
 16 17  1  1
 17 18  1  0
 19 16  1  0
 19 21  1  0
 20 19  2  0
M  END
$$$$
