FDY.pdb
     RDKit          3D

 32 33  0  0  1  0  0  0  0  0999 V2000
   23.0483  -14.9724  -18.5598 N   0  0  0  0  0  0  0  0  0  0  0  0
   21.8733  -15.7977  -18.7121 C   0  0  1  0  0  0  0  0  0  0  0  0
   22.3030  -17.2436  -18.5076 C   0  0  0  0  0  0  0  0  0  0  0  0
   23.1164  -17.7530  -19.6276 C   0  0  0  0  0  0  0  0  0  0  0  0
   24.4607  -17.9955  -19.5483 C   0  0  0  0  0  0  0  0  0  0  0  0
   25.2017  -18.4694  -20.5993 C   0  0  0  0  0  0  0  0  0  0  0  0
   24.5681  -18.7194  -21.8087 C   0  0  0  0  0  0  0  0  0  0  0  0
   23.2154  -18.4844  -21.9174 C   0  0  0  0  0  0  0  0  0  0  0  0
   22.4957  -18.0068  -20.8408 C   0  0  0  0  0  0  0  0  0  0  0  0
   20.8678  -15.4949  -17.6652 C   0  0  0  0  0  0  0  0  0  0  0  0
   21.2775  -15.1397  -16.5369 O   0  0  0  0  0  0  0  0  0  0  0  0
   19.4646  -15.5851  -17.8708 N   0  0  0  0  0  0  0  0  0  0  0  0
   18.4983  -15.1769  -16.8918 C   0  0  1  0  0  0  0  0  0  0  0  0
   17.5711  -14.1238  -17.4023 C   0  0  0  0  0  0  0  0  0  0  0  0
   16.5705  -13.6874  -16.3987 C   0  0  0  0  0  0  0  0  0  0  0  0
   16.8963  -13.3838  -15.2242 O   0  0  0  0  0  0  0  0  0  0  0  0
   17.7433  -16.3667  -16.3612 C   0  0  0  0  0  0  0  0  0  0  0  0
   17.3676  -17.2714  -17.1686 O   0  0  0  0  0  0  0  0  0  0  0  0
   15.2228  -13.5947  -16.7148 O   0  0  0  0  0  0  0  0  0  0  0  0
   14.0457  -21.9404  -10.4339 O   0  0  0  0  0  0  0  0  0  0  0  0
   14.7561  -20.9164  -11.0602 C   0  0  0  0  0  0  0  0  0  0  0  0
   14.4215  -19.5887  -10.8980 C   0  0  0  0  0  0  0  0  0  0  0  0
   15.1068  -18.5627  -11.5048 C   0  0  0  0  0  0  0  0  0  0  0  0
   16.1852  -18.8284  -12.3220 C   0  0  0  0  0  0  0  0  0  0  0  0
   16.9303  -17.7450  -12.9964 C   0  0  0  0  0  0  0  0  0  0  0  0
   16.6228  -17.6125  -14.4679 C   0  0  2  0  0  0  0  0  0  0  0  0
   17.4359  -16.5185  -15.0037 N   0  0  0  0  0  0  0  0  0  0  0  0
   15.2053  -17.2368  -14.6265 C   0  0  0  0  0  0  0  0  0  0  0  0
   14.1659  -18.1450  -14.7718 O   0  0  0  0  0  0  0  0  0  0  0  0
   16.5367  -20.1576  -12.4977 C   0  0  0  0  0  0  0  0  0  0  0  0
   15.8356  -21.1693  -11.8794 C   0  0  0  0  0  0  0  0  0  0  0  0
   14.8832  -16.0245  -14.6363 O   0  0  0  0  0  0  0  0  0  0  0  0
  2  1  1  1
  3  2  1  0
  4  3  1  0
  4  9  1  0
  5  4  2  0
  6  5  1  0
  6  7  2  0
  7  8  1  0
  8  9  2  0
 10  2  1  0
 10 11  2  0
 12 10  1  0
 13 12  1  0
 13 14  1  6
 15 14  1  0
 15 19  1  0
 16 15  2  0
 17 13  1  0
 18 17  2  0
 20 21  1  0
 21 22  2  0
 22 23  1  0
 24 23  2  0
 24 25  1  0
 26 25  1  1
 26 28  1  0
 26 27  1  0
 27 17  1  0
 28 29  1  0
 30 24  1  0
 31 21  1  0
 31 30  2  0
 32 28  2  0
M  END
$$$$
