FDY.pdb
     RDKit          3D

 32 33  0  0  1  0  0  0  0  0999 V2000
   23.7405  -14.4077  -18.5473 N   0  0  0  0  0  0  0  0  0  0  0  0
   23.3677  -13.7181  -17.3347 C   0  0  1  0  0  0  0  0  0  0  0  0
   24.6363  -13.1205  -16.7425 C   0  0  0  0  0  0  0  0  0  0  0  0
   25.6209  -14.1514  -16.3640 C   0  0  0  0  0  0  0  0  0  0  0  0
   26.7605  -14.4175  -17.0732 C   0  0  0  0  0  0  0  0  0  0  0  0
   27.6655  -15.3794  -16.7070 C   0  0  0  0  0  0  0  0  0  0  0  0
   27.4247  -16.1267  -15.5625 C   0  0  0  0  0  0  0  0  0  0  0  0
   26.2853  -15.8804  -14.8290 C   0  0  0  0  0  0  0  0  0  0  0  0
   25.3923  -14.9047  -15.2231 C   0  0  0  0  0  0  0  0  0  0  0  0
   22.4522  -12.5876  -17.6222 C   0  0  0  0  0  0  0  0  0  0  0  0
   22.6533  -11.9125  -18.6570 O   0  0  0  0  0  0  0  0  0  0  0  0
   21.3591  -12.2272  -16.7888 N   0  0  0  0  0  0  0  0  0  0  0  0
   20.4043  -11.2147  -17.1378 C   0  0  1  0  0  0  0  0  0  0  0  0
   18.9992  -11.7196  -17.1252 C   0  0  0  0  0  0  0  0  0  0  0  0
   18.0016  -10.6855  -17.4918 C   0  0  0  0  0  0  0  0  0  0  0  0
   17.9273  -10.2168  -18.6548 O   0  0  0  0  0  0  0  0  0  0  0  0
   20.5642  -10.0058  -16.2547 C   0  0  0  0  0  0  0  0  0  0  0  0
   20.6267  -10.1625  -14.9965 O   0  0  0  0  0  0  0  0  0  0  0  0
   17.1014  -10.1876  -16.5609 O   0  0  0  0  0  0  0  0  0  0  0  0
   21.6271   -1.3189  -14.3271 O   0  0  0  0  0  0  0  0  0  0  0  0
   21.6550   -2.6029  -14.8713 C   0  0  0  0  0  0  0  0  0  0  0  0
   21.1306   -2.8816  -16.1155 C   0  0  0  0  0  0  0  0  0  0  0  0
   21.1469   -4.1388  -16.6721 C   0  0  0  0  0  0  0  0  0  0  0  0
   21.7036   -5.1994  -15.9892 C   0  0  0  0  0  0  0  0  0  0  0  0
   21.7221   -6.5626  -16.5593 C   0  0  0  0  0  0  0  0  0  0  0  0
   20.7205   -7.5028  -15.9343 C   0  0  2  0  0  0  0  0  0  0  0  0
   20.6475   -8.7054  -16.7670 N   0  0  0  0  0  0  0  0  0  0  0  0
   19.3914   -6.8636  -15.9525 C   0  0  0  0  0  0  0  0  0  0  0  0
   18.8944   -6.0611  -14.9350 O   0  0  0  0  0  0  0  0  0  0  0  0
   22.2360   -4.9389  -14.7362 C   0  0  0  0  0  0  0  0  0  0  0  0
   22.2087   -3.6711  -14.1983 C   0  0  0  0  0  0  0  0  0  0  0  0
   18.6340   -7.0371  -16.9371 O   0  0  0  0  0  0  0  0  0  0  0  0
  2  1  1  6
  3  2  1  0
  4  3  1  0
  4  9  1  0
  5  4  2  0
  6  5  1  0
  6  7  2  0
  7  8  1  0
  8  9  2  0
 10  2  1  0
 10 11  2  0
 12 10  1  0
 13 12  1  0
 13 14  1  1
 15 14  1  0
 15 19  1  0
 16 15  2  0
 17 13  1  0
 18 17  2  0
 20 21  1  0
 21 22  2  0
 22 23  1  0
 24 23  2  0
 24 25  1  0
 26 25  1  6
 26 28  1  0
 26 27  1  0
 27 17  1  0
 28 29  1  0
 30 24  1  0
 31 21  1  0
 31 30  2  0
 32 28  2  0
M  END
$$$$
