FDY.pdb
     RDKit          3D

 32 33  0  0  1  0  0  0  0  0999 V2000
   29.2298  -21.1806  -15.1176 N   0  0  0  0  0  0  0  0  0  0  0  0
   28.0948  -21.6207  -14.3412 C   0  0  1  0  0  0  0  0  0  0  0  0
   28.0059  -20.7225  -13.1154 C   0  0  0  0  0  0  0  0  0  0  0  0
   29.0927  -20.9766  -12.1512 C   0  0  0  0  0  0  0  0  0  0  0  0
   29.0538  -21.9547  -11.1950 C   0  0  0  0  0  0  0  0  0  0  0  0
   30.0732  -22.1775  -10.3066 C   0  0  0  0  0  0  0  0  0  0  0  0
   31.2059  -21.3780  -10.3703 C   0  0  0  0  0  0  0  0  0  0  0  0
   31.2726  -20.3854  -11.3229 C   0  0  0  0  0  0  0  0  0  0  0  0
   30.2295  -20.1851  -12.2041 C   0  0  0  0  0  0  0  0  0  0  0  0
   26.8305  -21.4461  -15.0960 C   0  0  0  0  0  0  0  0  0  0  0  0
   26.6724  -20.3893  -15.7481 O   0  0  0  0  0  0  0  0  0  0  0  0
   25.7878  -22.4112  -15.1207 N   0  0  0  0  0  0  0  0  0  0  0  0
   24.5909  -22.2564  -15.8967 C   0  0  1  0  0  0  0  0  0  0  0  0
   24.1048  -23.5470  -16.4690 C   0  0  0  0  0  0  0  0  0  0  0  0
   22.8935  -23.3955  -17.3109 C   0  0  0  0  0  0  0  0  0  0  0  0
   21.8509  -24.0640  -17.1014 O   0  0  0  0  0  0  0  0  0  0  0  0
   23.5192  -21.5718  -15.0907 C   0  0  0  0  0  0  0  0  0  0  0  0
   23.3187  -21.9367  -13.8914 O   0  0  0  0  0  0  0  0  0  0  0  0
   22.8585  -22.5035  -18.3729 O   0  0  0  0  0  0  0  0  0  0  0  0
   17.2733  -15.5695  -12.8814 O   0  0  0  0  0  0  0  0  0  0  0  0
   18.3467  -16.2751  -13.4249 C   0  0  0  0  0  0  0  0  0  0  0  0
   19.3859  -16.7394  -12.6470 C   0  0  0  0  0  0  0  0  0  0  0  0
   20.4538  -17.4370  -13.1602 C   0  0  0  0  0  0  0  0  0  0  0  0
   20.5298  -17.7069  -14.5103 C   0  0  0  0  0  0  0  0  0  0  0  0
   21.6729  -18.4430  -15.0890 C   0  0  0  0  0  0  0  0  0  0  0  0
   21.5986  -19.9385  -14.9009 C   0  0  2  0  0  0  0  0  0  0  0  0
   22.7280  -20.5411  -15.6125 N   0  0  0  0  0  0  0  0  0  0  0  0
   20.3584  -20.4361  -15.5252 C   0  0  0  0  0  0  0  0  0  0  0  0
   19.1575  -20.6099  -14.8514 O   0  0  0  0  0  0  0  0  0  0  0  0
   19.4941  -17.2478  -15.3090 C   0  0  0  0  0  0  0  0  0  0  0  0
   18.4338  -16.5510  -14.7728 C   0  0  0  0  0  0  0  0  0  0  0  0
   20.3543  -20.7326  -16.7440 O   0  0  0  0  0  0  0  0  0  0  0  0
  2  1  1  6
  3  2  1  0
  4  3  1  0
  4  9  1  0
  5  4  2  0
  6  5  1  0
  6  7  2  0
  7  8  1  0
  8  9  2  0
 10  2  1  0
 10 11  2  0
 12 10  1  0
 13 12  1  0
 13 14  1  1
 15 14  1  0
 15 19  1  0
 16 15  2  0
 17 13  1  0
 18 17  2  0
 20 21  1  0
 21 22  2  0
 22 23  1  0
 24 23  2  0
 24 25  1  0
 26 25  1  6
 26 28  1  0
 26 27  1  0
 27 17  1  0
 28 29  1  0
 30 24  1  0
 31 21  1  0
 31 30  2  0
 32 28  2  0
M  END
$$$$
