FDY.pdb
     RDKit          3D

 32 33  0  0  1  0  0  0  0  0999 V2000
   29.1929  -22.1437  -19.7151 N   0  0  0  0  0  0  0  0  0  0  0  0
   29.7933  -22.5738  -18.4744 C   0  0  1  0  0  0  0  0  0  0  0  0
   28.7109  -22.5287  -17.4051 C   0  0  0  0  0  0  0  0  0  0  0  0
   28.1067  -21.1899  -17.2716 C   0  0  0  0  0  0  0  0  0  0  0  0
   26.7604  -20.9499  -17.3208 C   0  0  0  0  0  0  0  0  0  0  0  0
   26.2154  -19.6988  -17.1946 C   0  0  0  0  0  0  0  0  0  0  0  0
   27.0609  -18.6141  -17.0072 C   0  0  0  0  0  0  0  0  0  0  0  0
   28.4207  -18.8260  -16.9536 C   0  0  0  0  0  0  0  0  0  0  0  0
   28.9400  -20.0981  -17.0840 C   0  0  0  0  0  0  0  0  0  0  0  0
   30.2538  -23.9805  -18.5625 C   0  0  0  0  0  0  0  0  0  0  0  0
   29.6454  -24.7544  -19.3357 O   0  0  0  0  0  0  0  0  0  0  0  0
   31.3473  -24.4998  -17.8182 N   0  0  0  0  0  0  0  0  0  0  0  0
   31.8233  -25.8464  -17.9553 C   0  0  1  0  0  0  0  0  0  0  0  0
   33.2307  -26.0103  -17.4843 C   0  0  0  0  0  0  0  0  0  0  0  0
   34.2262  -25.3727  -18.3793 C   0  0  0  0  0  0  0  0  0  0  0  0
   35.2432  -24.7870  -17.9316 O   0  0  0  0  0  0  0  0  0  0  0  0
   30.8950  -26.8114  -17.2667 C   0  0  0  0  0  0  0  0  0  0  0  0
   30.5371  -26.5794  -16.0711 O   0  0  0  0  0  0  0  0  0  0  0  0
   34.0773  -25.3954  -19.7585 O   0  0  0  0  0  0  0  0  0  0  0  0
   24.1800  -32.4302  -16.1648 O   0  0  0  0  0  0  0  0  0  0  0  0
   25.1380  -31.5074  -16.5843 C   0  0  0  0  0  0  0  0  0  0  0  0
   25.9044  -31.7101  -17.7124 C   0  0  0  0  0  0  0  0  0  0  0  0
   26.8540  -30.8149  -18.1451 C   0  0  0  0  0  0  0  0  0  0  0  0
   27.0838  -29.6471  -17.4490 C   0  0  0  0  0  0  0  0  0  0  0  0
   28.1076  -28.6749  -17.8853 C   0  0  0  0  0  0  0  0  0  0  0  0
   29.4675  -28.8981  -17.2702 C   0  0  2  0  0  0  0  0  0  0  0  0
   30.4060  -27.9632  -17.8949 N   0  0  0  0  0  0  0  0  0  0  0  0
   29.9168  -30.2658  -17.5911 C   0  0  0  0  0  0  0  0  0  0  0  0
   29.8824  -31.3304  -16.7013 O   0  0  0  0  0  0  0  0  0  0  0  0
   26.3231  -29.4256  -16.3116 C   0  0  0  0  0  0  0  0  0  0  0  0
   25.3769  -30.3366  -15.8968 C   0  0  0  0  0  0  0  0  0  0  0  0
   30.3667  -30.5178  -18.7346 O   0  0  0  0  0  0  0  0  0  0  0  0
  2  1  1  6
  3  2  1  0
  4  3  1  0
  4  9  1  0
  5  4  2  0
  6  5  1  0
  6  7  2  0
  7  8  1  0
  8  9  2  0
 10  2  1  0
 10 11  2  0
 12 10  1  0
 13 12  1  0
 13 14  1  1
 15 14  1  0
 15 19  1  0
 16 15  2  0
 17 13  1  0
 18 17  2  0
 20 21  1  0
 21 22  2  0
 22 23  1  0
 24 23  2  0
 24 25  1  0
 26 25  1  6
 26 28  1  0
 26 27  1  0
 27 17  1  0
 28 29  1  0
 30 24  1  0
 31 21  1  0
 31 30  2  0
 32 28  2  0
M  END
$$$$
