FDY.pdb
     RDKit          3D

 32 33  0  0  1  0  0  0  0  0999 V2000
   28.3993  -21.2989   -9.0174 N   0  0  0  0  0  0  0  0  0  0  0  0
   27.0301  -21.0366   -8.6415 C   0  0  1  0  0  0  0  0  0  0  0  0
   27.0245  -19.7696   -7.7976 C   0  0  0  0  0  0  0  0  0  0  0  0
   28.0106  -19.8185   -6.7020 C   0  0  0  0  0  0  0  0  0  0  0  0
   28.1111  -18.8703   -5.7205 C   0  0  0  0  0  0  0  0  0  0  0  0
   29.0336  -18.9313   -4.7089 C   0  0  0  0  0  0  0  0  0  0  0  0
   29.9147  -20.0029   -4.6676 C   0  0  0  0  0  0  0  0  0  0  0  0
   29.8366  -20.9724   -5.6428 C   0  0  0  0  0  0  0  0  0  0  0  0
   28.8963  -20.8834   -6.6492 C   0  0  0  0  0  0  0  0  0  0  0  0
   26.1911  -20.7642   -9.8333 C   0  0  0  0  0  0  0  0  0  0  0  0
   25.1049  -20.1646   -9.6672 O   0  0  0  0  0  0  0  0  0  0  0  0
   26.5508  -21.1458  -11.1541 N   0  0  0  0  0  0  0  0  0  0  0  0
   25.7763  -20.7997  -12.3113 C   0  0  1  0  0  0  0  0  0  0  0  0
   26.5043  -21.0567  -13.5893 C   0  0  0  0  0  0  0  0  0  0  0  0
   25.7482  -20.6285  -14.7909 C   0  0  0  0  0  0  0  0  0  0  0  0
   25.0800  -19.5650  -14.8113 O   0  0  0  0  0  0  0  0  0  0  0  0
   24.4421  -21.4971  -12.2865 C   0  0  0  0  0  0  0  0  0  0  0  0
   24.4069  -22.7620  -12.1854 O   0  0  0  0  0  0  0  0  0  0  0  0
   25.7458  -21.3880  -15.9519 O   0  0  0  0  0  0  0  0  0  0  0  0
   15.6786  -22.7162  -11.3171 O   0  0  0  0  0  0  0  0  0  0  0  0
   16.9700  -22.1937  -11.3861 C   0  0  0  0  0  0  0  0  0  0  0  0
   17.2972  -21.1626  -12.2409 C   0  0  0  0  0  0  0  0  0  0  0  0
   18.5626  -20.6316  -12.3261 C   0  0  0  0  0  0  0  0  0  0  0  0
   19.5823  -21.1227  -11.5385 C   0  0  0  0  0  0  0  0  0  0  0  0
   20.9538  -20.5787  -11.6202 C   0  0  0  0  0  0  0  0  0  0  0  0
   21.9162  -21.4530  -12.3864 C   0  0  2  0  0  0  0  0  0  0  0  0
   23.2288  -20.8034  -12.3707 N   0  0  0  0  0  0  0  0  0  0  0  0
   21.4724  -21.5331  -13.7907 C   0  0  0  0  0  0  0  0  0  0  0  0
   20.6295  -22.5158  -14.2908 O   0  0  0  0  0  0  0  0  0  0  0  0
   19.2727  -22.1600  -10.6727 C   0  0  0  0  0  0  0  0  0  0  0  0
   17.9976  -22.6763  -10.6041 C   0  0  0  0  0  0  0  0  0  0  0  0
   21.8652  -20.6727  -14.6145 O   0  0  0  0  0  0  0  0  0  0  0  0
  2  1  1  6
  3  2  1  0
  4  3  1  0
  4  9  1  0
  5  4  2  0
  6  5  1  0
  6  7  2  0
  7  8  1  0
  8  9  2  0
 10  2  1  0
 10 11  2  0
 12 10  1  0
 13 12  1  0
 13 14  1  6
 15 14  1  0
 15 19  1  0
 16 15  2  0
 17 13  1  0
 18 17  2  0
 20 21  1  0
 21 22  2  0
 22 23  1  0
 24 23  2  0
 24 25  1  0
 26 25  1  1
 26 28  1  0
 26 27  1  0
 27 17  1  0
 28 29  1  0
 30 24  1  0
 31 21  1  0
 31 30  2  0
 32 28  2  0
M  END
$$$$
