FDY.pdb
     RDKit          3D

 32 33  0  0  1  0  0  0  0  0999 V2000
   22.2455  -11.7848  -20.6365 N   0  0  0  0  0  0  0  0  0  0  0  0
   21.7834  -11.5527  -19.2884 C   0  0  1  0  0  0  0  0  0  0  0  0
   22.9303  -11.8966  -18.3485 C   0  0  0  0  0  0  0  0  0  0  0  0
   23.3101  -13.3200  -18.4208 C   0  0  0  0  0  0  0  0  0  0  0  0
   24.4304  -13.7813  -19.0567 C   0  0  0  0  0  0  0  0  0  0  0  0
   24.7688  -15.1081  -19.1142 C   0  0  0  0  0  0  0  0  0  0  0  0
   23.9419  -16.0389  -18.5008 C   0  0  0  0  0  0  0  0  0  0  0  0
   22.8072  -15.6031  -17.8533 C   0  0  0  0  0  0  0  0  0  0  0  0
   22.4928  -14.2598  -17.8124 C   0  0  0  0  0  0  0  0  0  0  0  0
   21.4632  -10.1212  -19.0718 C   0  0  0  0  0  0  0  0  0  0  0  0
   22.0836   -9.2680  -19.7458 O   0  0  0  0  0  0  0  0  0  0  0  0
   20.4913   -9.6630  -18.1418 N   0  0  0  0  0  0  0  0  0  0  0  0
   20.1317   -8.2816  -17.9961 C   0  0  1  0  0  0  0  0  0  0  0  0
   18.7400   -7.9973  -18.4562 C   0  0  0  0  0  0  0  0  0  0  0  0
   18.3664   -6.5667  -18.3438 C   0  0  0  0  0  0  0  0  0  0  0  0
   19.1852   -5.6453  -18.5852 O   0  0  0  0  0  0  0  0  0  0  0  0
   20.3492   -7.8220  -16.5789 C   0  0  0  0  0  0  0  0  0  0  0  0
   19.8477   -8.4948  -15.6264 O   0  0  0  0  0  0  0  0  0  0  0  0
   17.0887   -6.1811  -17.9651 O   0  0  0  0  0  0  0  0  0  0  0  0
   25.5626  -11.1115  -15.6201 O   0  0  0  0  0  0  0  0  0  0  0  0
   24.9111   -9.8966  -15.4082 C   0  0  0  0  0  0  0  0  0  0  0  0
   24.0110   -9.7189  -14.3791 C   0  0  0  0  0  0  0  0  0  0  0  0
   23.3572   -8.5310  -14.1508 C   0  0  0  0  0  0  0  0  0  0  0  0
   23.5821   -7.4407  -14.9644 C   0  0  0  0  0  0  0  0  0  0  0  0
   22.8826   -6.1570  -14.7488 C   0  0  0  0  0  0  0  0  0  0  0  0
   21.3832   -6.2427  -14.8970 C   0  0  2  0  0  0  0  0  0  0  0  0
   21.0874   -6.6744  -16.2650 N   0  0  0  0  0  0  0  0  0  0  0  0
   20.8091   -4.8958  -14.7181 C   0  0  0  0  0  0  0  0  0  0  0  0
   20.2015   -4.1630  -15.7281 O   0  0  0  0  0  0  0  0  0  0  0  0
   24.4838   -7.6001  -16.0050 C   0  0  0  0  0  0  0  0  0  0  0  0
   25.1275   -8.7996  -16.2147 C   0  0  0  0  0  0  0  0  0  0  0  0
   20.8575   -4.3466  -13.5914 O   0  0  0  0  0  0  0  0  0  0  0  0
  2  1  1  6
  3  2  1  0
  4  3  1  0
  4  9  1  0
  5  4  2  0
  6  5  1  0
  6  7  2  0
  7  8  1  0
  8  9  2  0
 10  2  1  0
 10 11  2  0
 12 10  1  0
 13 12  1  0
 13 14  1  1
 15 14  1  0
 15 19  1  0
 16 15  2  0
 17 13  1  0
 18 17  2  0
 20 21  1  0
 21 22  2  0
 22 23  1  0
 24 23  2  0
 24 25  1  0
 26 25  1  6
 26 28  1  0
 26 27  1  0
 27 17  1  0
 28 29  1  0
 30 24  1  0
 31 21  1  0
 31 30  2  0
 32 28  2  0
M  END
$$$$
