FDY.pdb
     RDKit          3D

 32 33  0  0  1  0  0  0  0  0999 V2000
   18.1137  -16.3178  -20.7125 N   0  0  0  0  0  0  0  0  0  0  0  0
   18.2763  -16.2620  -19.2789 C   0  0  1  0  0  0  0  0  0  0  0  0
   17.7067  -14.9313  -18.8076 C   0  0  0  0  0  0  0  0  0  0  0  0
   18.5116  -13.7818  -19.2616 C   0  0  0  0  0  0  0  0  0  0  0  0
   18.1759  -12.9838  -20.3212 C   0  0  0  0  0  0  0  0  0  0  0  0
   18.9355  -11.9188  -20.7298 C   0  0  0  0  0  0  0  0  0  0  0  0
   20.1053  -11.6257  -20.0425 C   0  0  0  0  0  0  0  0  0  0  0  0
   20.4681  -12.4122  -18.9717 C   0  0  0  0  0  0  0  0  0  0  0  0
   19.6821  -13.4784  -18.5839 C   0  0  0  0  0  0  0  0  0  0  0  0
   17.4919  -17.3277  -18.6098 C   0  0  0  0  0  0  0  0  0  0  0  0
   16.3536  -17.5936  -19.0576 O   0  0  0  0  0  0  0  0  0  0  0  0
   17.9599  -18.0645  -17.4884 N   0  0  0  0  0  0  0  0  0  0  0  0
   17.1905  -19.0902  -16.8445 C   0  0  1  0  0  0  0  0  0  0  0  0
   18.0316  -20.0112  -16.0236 C   0  0  0  0  0  0  0  0  0  0  0  0
   17.2891  -21.1928  -15.5225 C   0  0  0  0  0  0  0  0  0  0  0  0
   16.9304  -21.2923  -14.3228 O   0  0  0  0  0  0  0  0  0  0  0  0
   16.0763  -18.4877  -16.0306 C   0  0  0  0  0  0  0  0  0  0  0  0
   16.3489  -17.5840  -15.1818 O   0  0  0  0  0  0  0  0  0  0  0  0
   16.9561  -22.2463  -16.3615 O   0  0  0  0  0  0  0  0  0  0  0  0
   13.0092  -14.1582  -20.3791 O   0  0  0  0  0  0  0  0  0  0  0  0
   12.8744  -15.1377  -19.3953 C   0  0  0  0  0  0  0  0  0  0  0  0
   13.1660  -16.4632  -19.6379 C   0  0  0  0  0  0  0  0  0  0  0  0
   13.0409  -17.4456  -18.6842 C   0  0  0  0  0  0  0  0  0  0  0  0
   12.6071  -17.1356  -17.4126 C   0  0  0  0  0  0  0  0  0  0  0  0
   12.4514  -18.1745  -16.3734 C   0  0  0  0  0  0  0  0  0  0  0  0
   13.6278  -18.2843  -15.4344 C   0  0  2  0  0  0  0  0  0  0  0  0
   14.7412  -18.8855  -16.1718 N   0  0  0  0  0  0  0  0  0  0  0  0
   13.2741  -19.1990  -14.3326 C   0  0  0  0  0  0  0  0  0  0  0  0
   13.9598  -20.3683  -14.0349 O   0  0  0  0  0  0  0  0  0  0  0  0
   12.3087  -15.8078  -17.1495 C   0  0  0  0  0  0  0  0  0  0  0  0
   12.4416  -14.8401  -18.1207 C   0  0  0  0  0  0  0  0  0  0  0  0
   12.2932  -18.9330  -13.5974 O   0  0  0  0  0  0  0  0  0  0  0  0
  2  1  1  6
  3  2  1  0
  4  3  1  0
  4  9  1  0
  5  4  2  0
  6  5  1  0
  6  7  2  0
  7  8  1  0
  8  9  2  0
 10  2  1  0
 10 11  2  0
 12 10  1  0
 13 12  1  0
 13 14  1  1
 15 14  1  0
 15 19  1  0
 16 15  2  0
 17 13  1  0
 18 17  2  0
 20 21  1  0
 21 22  2  0
 22 23  1  0
 24 23  2  0
 24 25  1  0
 26 25  1  6
 26 28  1  0
 26 27  1  0
 27 17  1  0
 28 29  1  0
 30 24  1  0
 31 21  1  0
 31 30  2  0
 32 28  2  0
M  END
$$$$
