FDY.pdb
     RDKit          3D

 32 33  0  0  1  0  0  0  0  0999 V2000
   28.0428  -20.8133  -15.2461 N   0  0  0  0  0  0  0  0  0  0  0  0
   26.9977  -21.3046  -14.3794 C   0  0  1  0  0  0  0  0  0  0  0  0
   26.9356  -20.3801  -13.1716 C   0  0  0  0  0  0  0  0  0  0  0  0
   28.0932  -20.5488  -12.2734 C   0  0  0  0  0  0  0  0  0  0  0  0
   28.1331  -21.4408  -11.2364 C   0  0  0  0  0  0  0  0  0  0  0  0
   29.2176  -21.5850  -10.4111 C   0  0  0  0  0  0  0  0  0  0  0  0
   30.3364  -20.7927  -10.6281 C   0  0  0  0  0  0  0  0  0  0  0  0
   30.3243  -19.8860  -11.6648 C   0  0  0  0  0  0  0  0  0  0  0  0
   29.2169  -19.7637  -12.4793 C   0  0  0  0  0  0  0  0  0  0  0  0
   25.6742  -21.2342  -15.0444 C   0  0  0  0  0  0  0  0  0  0  0  0
   25.4191  -20.2313  -15.7486 O   0  0  0  0  0  0  0  0  0  0  0  0
   24.6788  -22.2416  -14.9272 N   0  0  0  0  0  0  0  0  0  0  0  0
   23.3573  -22.1085  -15.4698 C   0  0  1  0  0  0  0  0  0  0  0  0
   22.9695  -23.2646  -16.3315 C   0  0  0  0  0  0  0  0  0  0  0  0
   23.7898  -23.3799  -17.5614 C   0  0  0  0  0  0  0  0  0  0  0  0
   23.8014  -22.4813  -18.4390 O   0  0  0  0  0  0  0  0  0  0  0  0
   22.3526  -21.8767  -14.3726 C   0  0  0  0  0  0  0  0  0  0  0  0
   22.2589  -22.7225  -13.4306 O   0  0  0  0  0  0  0  0  0  0  0  0
   24.5851  -24.4919  -17.7980 O   0  0  0  0  0  0  0  0  0  0  0  0
   25.1341  -21.1221   -8.7279 O   0  0  0  0  0  0  0  0  0  0  0  0
   24.1563  -20.6970   -9.6273 C   0  0  0  0  0  0  0  0  0  0  0  0
   24.4295  -20.4955  -10.9635 C   0  0  0  0  0  0  0  0  0  0  0  0
   23.4823  -20.0771  -11.8682 C   0  0  0  0  0  0  0  0  0  0  0  0
   22.1865  -19.8358  -11.4636 C   0  0  0  0  0  0  0  0  0  0  0  0
   21.1530  -19.3728  -12.4130 C   0  0  0  0  0  0  0  0  0  0  0  0
   20.5662  -20.4714  -13.2652 C   0  0  2  0  0  0  0  0  0  0  0  0
   21.5105  -20.7583  -14.3474 N   0  0  0  0  0  0  0  0  0  0  0  0
   19.3168  -19.9829  -13.8783 C   0  0  0  0  0  0  0  0  0  0  0  0
   19.1797  -19.6521  -15.2192 O   0  0  0  0  0  0  0  0  0  0  0  0
   21.8924  -20.0326  -10.1234 C   0  0  0  0  0  0  0  0  0  0  0  0
   22.8576  -20.4524   -9.2348 C   0  0  0  0  0  0  0  0  0  0  0  0
   18.2916  -19.8444  -13.1690 O   0  0  0  0  0  0  0  0  0  0  0  0
  2  1  1  6
  3  2  1  0
  4  3  1  0
  4  9  1  0
  5  4  2  0
  6  5  1  0
  6  7  2  0
  7  8  1  0
  8  9  2  0
 10  2  1  0
 10 11  2  0
 12 10  1  0
 13 12  1  0
 13 14  1  1
 15 14  1  0
 15 19  1  0
 16 15  2  0
 17 13  1  0
 18 17  2  0
 20 21  1  0
 21 22  2  0
 22 23  1  0
 24 23  2  0
 24 25  1  0
 26 25  1  1
 26 28  1  0
 26 27  1  0
 27 17  1  0
 28 29  1  0
 30 24  1  0
 31 21  1  0
 31 30  2  0
 32 28  2  0
M  END
$$$$
