FDY.pdb
     RDKit          3D

 32 33  0  0  1  0  0  0  0  0999 V2000
   28.3928  -21.4884  -16.5396 N   0  0  0  0  0  0  0  0  0  0  0  0
   27.7983  -20.4205  -15.7710 C   0  0  1  0  0  0  0  0  0  0  0  0
   27.0122  -19.5465  -16.7382 C   0  0  0  0  0  0  0  0  0  0  0  0
   27.8888  -18.7450  -17.6127 C   0  0  0  0  0  0  0  0  0  0  0  0
   28.7060  -17.7429  -17.1650 C   0  0  0  0  0  0  0  0  0  0  0  0
   29.5149  -17.0078  -17.9917 C   0  0  0  0  0  0  0  0  0  0  0  0
   29.5136  -17.2844  -19.3518 C   0  0  0  0  0  0  0  0  0  0  0  0
   28.7008  -18.2879  -19.8306 C   0  0  0  0  0  0  0  0  0  0  0  0
   27.8969  -19.0112  -18.9730 C   0  0  0  0  0  0  0  0  0  0  0  0
   26.8281  -20.9492  -14.7821 C   0  0  0  0  0  0  0  0  0  0  0  0
   26.1368  -21.9418  -15.1046 O   0  0  0  0  0  0  0  0  0  0  0  0
   26.6388  -20.3924  -13.4885 N   0  0  0  0  0  0  0  0  0  0  0  0
   25.7022  -20.9162  -12.5360 C   0  0  1  0  0  0  0  0  0  0  0  0
   25.9767  -20.4523  -11.1436 C   0  0  0  0  0  0  0  0  0  0  0  0
   25.1040  -21.0921  -10.1299 C   0  0  0  0  0  0  0  0  0  0  0  0
   24.2226  -21.9296  -10.4455 O   0  0  0  0  0  0  0  0  0  0  0  0
   24.2893  -20.6050  -12.9529 C   0  0  0  0  0  0  0  0  0  0  0  0
   23.8973  -19.3976  -12.9579 O   0  0  0  0  0  0  0  0  0  0  0  0
   25.2234  -20.7921   -8.7806 O   0  0  0  0  0  0  0  0  0  0  0  0
   15.8475  -22.2508  -15.5263 O   0  0  0  0  0  0  0  0  0  0  0  0
   17.1979  -22.3421  -15.1893 C   0  0  0  0  0  0  0  0  0  0  0  0
   18.1839  -21.7554  -15.9538 C   0  0  0  0  0  0  0  0  0  0  0  0
   19.5207  -21.8318  -15.6416 C   0  0  0  0  0  0  0  0  0  0  0  0
   19.9396  -22.5171  -14.5208 C   0  0  0  0  0  0  0  0  0  0  0  0
   21.3710  -22.6255  -14.1701 C   0  0  0  0  0  0  0  0  0  0  0  0
   21.9734  -21.3445  -13.6471 C   0  0  2  0  0  0  0  0  0  0  0  0
   23.3822  -21.5995  -13.3385 N   0  0  0  0  0  0  0  0  0  0  0  0
   21.2976  -20.9796  -12.3878 C   0  0  0  0  0  0  0  0  0  0  0  0
   21.4911  -21.6315  -11.1778 O   0  0  0  0  0  0  0  0  0  0  0  0
   18.9627  -23.1142  -13.7394 C   0  0  0  0  0  0  0  0  0  0  0  0
   17.6289  -23.0243  -14.0716 C   0  0  0  0  0  0  0  0  0  0  0  0
   20.4871  -20.0224  -12.3745 O   0  0  0  0  0  0  0  0  0  0  0  0
  2  1  1  6
  3  2  1  0
  4  3  1  0
  4  9  1  0
  5  4  2  0
  6  5  1  0
  6  7  2  0
  7  8  1  0
  8  9  2  0
 10  2  1  0
 10 11  2  0
 12 10  1  0
 13 12  1  0
 13 14  1  1
 15 14  1  0
 15 19  1  0
 16 15  2  0
 17 13  1  0
 18 17  2  0
 20 21  1  0
 21 22  2  0
 22 23  1  0
 24 23  2  0
 24 25  1  0
 26 25  1  1
 26 28  1  0
 26 27  1  0
 27 17  1  0
 28 29  1  0
 30 24  1  0
 31 21  1  0
 31 30  2  0
 32 28  2  0
M  END
$$$$
