FDY.pdb
     RDKit          3D

 32 33  0  0  1  0  0  0  0  0999 V2000
   24.9418  -19.2425  -18.5188 N   0  0  0  0  0  0  0  0  0  0  0  0
   25.5039  -19.8862  -17.3550 C   0  0  1  0  0  0  0  0  0  0  0  0
   26.8699  -19.2626  -17.1050 C   0  0  0  0  0  0  0  0  0  0  0  0
   27.5098  -19.7806  -15.8813 C   0  0  0  0  0  0  0  0  0  0  0  0
   28.0397  -21.0372  -15.7683 C   0  0  0  0  0  0  0  0  0  0  0  0
   28.6313  -21.5027  -14.6232 C   0  0  0  0  0  0  0  0  0  0  0  0
   28.7024  -20.6673  -13.5170 C   0  0  0  0  0  0  0  0  0  0  0  0
   28.1772  -19.3969  -13.6020 C   0  0  0  0  0  0  0  0  0  0  0  0
   27.5873  -18.9564  -14.7694 C   0  0  0  0  0  0  0  0  0  0  0  0
   24.6826  -19.6224  -16.1490 C   0  0  0  0  0  0  0  0  0  0  0  0
   24.3118  -18.4467  -15.9318 O   0  0  0  0  0  0  0  0  0  0  0  0
   24.2925  -20.6296  -15.2255 N   0  0  0  0  0  0  0  0  0  0  0  0
   23.5886  -20.3496  -14.0070 C   0  0  1  0  0  0  0  0  0  0  0  0
   22.1779  -20.8381  -14.0317 C   0  0  0  0  0  0  0  0  0  0  0  0
   22.0703  -22.3133  -14.1369 C   0  0  0  0  0  0  0  0  0  0  0  0
   22.6379  -22.9571  -15.0541 O   0  0  0  0  0  0  0  0  0  0  0  0
   24.3403  -20.8937  -12.8213 C   0  0  0  0  0  0  0  0  0  0  0  0
   24.5616  -22.1416  -12.7485 O   0  0  0  0  0  0  0  0  0  0  0  0
   21.3337  -23.0513  -13.2218 O   0  0  0  0  0  0  0  0  0  0  0  0
   29.0472  -20.6978   -5.1864 O   0  0  0  0  0  0  0  0  0  0  0  0
   28.4019  -20.4035   -6.3875 C   0  0  0  0  0  0  0  0  0  0  0  0
   28.7966  -20.9603   -7.5854 C   0  0  0  0  0  0  0  0  0  0  0  0
   28.1760  -20.6854   -8.7812 C   0  0  0  0  0  0  0  0  0  0  0  0
   27.1051  -19.8183   -8.8308 C   0  0  0  0  0  0  0  0  0  0  0  0
   26.4291  -19.4958  -10.1047 C   0  0  0  0  0  0  0  0  0  0  0  0
   25.4975  -20.5767  -10.5958 C   0  0  2  0  0  0  0  0  0  0  0  0
   24.8094  -20.0745  -11.7872 N   0  0  0  0  0  0  0  0  0  0  0  0
   24.4764  -20.8314   -9.5624 C   0  0  0  0  0  0  0  0  0  0  0  0
   23.1963  -20.2954   -9.5774 O   0  0  0  0  0  0  0  0  0  0  0  0
   26.6937  -19.2481   -7.6363 C   0  0  0  0  0  0  0  0  0  0  0  0
   27.3305  -19.5383   -6.4499 C   0  0  0  0  0  0  0  0  0  0  0  0
   24.7506  -21.5761   -8.5910 O   0  0  0  0  0  0  0  0  0  0  0  0
  2  1  1  6
  3  2  1  0
  4  3  1  0
  4  9  1  0
  5  4  2  0
  6  5  1  0
  6  7  2  0
  7  8  1  0
  8  9  2  0
 10  2  1  0
 10 11  2  0
 12 10  1  0
 13 12  1  0
 13 14  1  6
 15 14  1  0
 15 19  1  0
 16 15  2  0
 17 13  1  0
 18 17  2  0
 20 21  1  0
 21 22  2  0
 22 23  1  0
 24 23  2  0
 24 25  1  0
 26 25  1  1
 26 28  1  0
 26 27  1  0
 27 17  1  0
 28 29  1  0
 30 24  1  0
 31 21  1  0
 31 30  2  0
 32 28  2  0
M  END
$$$$
