FDY.pdb
     RDKit          3D

 32 33  0  0  1  0  0  0  0  0999 V2000
   22.7559  -10.9488  -16.1796 N   0  0  0  0  0  0  0  0  0  0  0  0
   21.9335  -10.4883  -15.0857 C   0  0  1  0  0  0  0  0  0  0  0  0
   22.8571   -9.8429  -14.0621 C   0  0  0  0  0  0  0  0  0  0  0  0
   23.6525   -8.7418  -14.6368 C   0  0  0  0  0  0  0  0  0  0  0  0
   23.3423   -7.4171  -14.4910 C   0  0  0  0  0  0  0  0  0  0  0  0
   24.0929   -6.4059  -15.0317 C   0  0  0  0  0  0  0  0  0  0  0  0
   25.2259   -6.7294  -15.7653 C   0  0  0  0  0  0  0  0  0  0  0  0
   25.5624   -8.0550  -15.9284 C   0  0  0  0  0  0  0  0  0  0  0  0
   24.7864   -9.0513  -15.3716 C   0  0  0  0  0  0  0  0  0  0  0  0
   20.9864   -9.4389  -15.5336 C   0  0  0  0  0  0  0  0  0  0  0  0
   21.1955   -8.8856  -16.6368 O   0  0  0  0  0  0  0  0  0  0  0  0
   19.8543   -9.0257  -14.7805 N   0  0  0  0  0  0  0  0  0  0  0  0
   18.8816   -8.0919  -15.2708 C   0  0  1  0  0  0  0  0  0  0  0  0
   17.4985   -8.4012  -14.8008 C   0  0  0  0  0  0  0  0  0  0  0  0
   17.0495   -9.7681  -15.1597 C   0  0  0  0  0  0  0  0  0  0  0  0
   17.2044  -10.2364  -16.3150 O   0  0  0  0  0  0  0  0  0  0  0  0
   19.2785   -6.6807  -14.9273 C   0  0  0  0  0  0  0  0  0  0  0  0
   19.8369   -6.4494  -13.8110 O   0  0  0  0  0  0  0  0  0  0  0  0
   16.4350  -10.5944  -14.2300 O   0  0  0  0  0  0  0  0  0  0  0  0
   22.9700    1.1985  -15.4926 O   0  0  0  0  0  0  0  0  0  0  0  0
   22.4766   -0.1032  -15.5802 C   0  0  0  0  0  0  0  0  0  0  0  0
   22.4379   -0.7920  -16.7739 C   0  0  0  0  0  0  0  0  0  0  0  0
   21.9564   -2.0752  -16.8844 C   0  0  0  0  0  0  0  0  0  0  0  0
   21.4801   -2.7420  -15.7755 C   0  0  0  0  0  0  0  0  0  0  0  0
   20.9451   -4.1162  -15.8696 C   0  0  0  0  0  0  0  0  0  0  0  0
   19.4822   -4.2307  -15.5172 C   0  0  2  0  0  0  0  0  0  0  0  0
   19.0558   -5.6042  -15.7944 N   0  0  0  0  0  0  0  0  0  0  0  0
   18.7086   -3.3350  -16.3975 C   0  0  0  0  0  0  0  0  0  0  0  0
   18.4368   -2.0034  -16.1158 O   0  0  0  0  0  0  0  0  0  0  0  0
   21.5105   -2.0655  -14.5660 C   0  0  0  0  0  0  0  0  0  0  0  0
   21.9977   -0.7801  -14.4789 C   0  0  0  0  0  0  0  0  0  0  0  0
   18.2504   -3.7739  -17.4795 O   0  0  0  0  0  0  0  0  0  0  0  0
  2  1  1  6
  3  2  1  0
  4  3  1  0
  4  9  1  0
  5  4  2  0
  6  5  1  0
  6  7  2  0
  7  8  1  0
  8  9  2  0
 10  2  1  0
 10 11  2  0
 12 10  1  0
 13 12  1  0
 13 14  1  1
 15 14  1  0
 15 19  1  0
 16 15  2  0
 17 13  1  0
 18 17  2  0
 20 21  1  0
 21 22  2  0
 22 23  1  0
 24 23  2  0
 24 25  1  0
 26 25  1  6
 26 28  1  0
 26 27  1  0
 27 17  1  0
 28 29  1  0
 30 24  1  0
 31 21  1  0
 31 30  2  0
 32 28  2  0
M  END
$$$$
