FDY.pdb
     RDKit          3D

 32 33  0  0  1  0  0  0  0  0999 V2000
   25.5656  -16.0543  -18.7867 N   0  0  0  0  0  0  0  0  0  0  0  0
   25.4607  -17.1306  -17.8300 C   0  0  1  0  0  0  0  0  0  0  0  0
   26.3390  -16.7694  -16.6403 C   0  0  0  0  0  0  0  0  0  0  0  0
   27.7769  -16.8979  -16.9423 C   0  0  0  0  0  0  0  0  0  0  0  0
   28.6000  -15.8380  -17.2094 C   0  0  0  0  0  0  0  0  0  0  0  0
   29.9348  -15.9752  -17.4880 C   0  0  0  0  0  0  0  0  0  0  0  0
   30.4902  -17.2471  -17.5028 C   0  0  0  0  0  0  0  0  0  0  0  0
   29.6852  -18.3327  -17.2375 C   0  0  0  0  0  0  0  0  0  0  0  0
   28.3439  -18.1626  -16.9602 C   0  0  0  0  0  0  0  0  0  0  0  0
   24.0746  -17.2589  -17.3192 C   0  0  0  0  0  0  0  0  0  0  0  0
   23.4502  -16.2120  -17.0345 O   0  0  0  0  0  0  0  0  0  0  0  0
   23.4149  -18.5040  -17.1346 N   0  0  0  0  0  0  0  0  0  0  0  0
   22.0934  -18.6205  -16.5880 C   0  0  1  0  0  0  0  0  0  0  0  0
   21.0795  -19.0123  -17.6116 C   0  0  0  0  0  0  0  0  0  0  0  0
   19.7058  -19.1219  -17.0639 C   0  0  0  0  0  0  0  0  0  0  0  0
   18.9106  -20.0189  -17.4391 O   0  0  0  0  0  0  0  0  0  0  0  0
   22.0846  -19.5628  -15.4137 C   0  0  0  0  0  0  0  0  0  0  0  0
   22.5979  -20.7167  -15.5424 O   0  0  0  0  0  0  0  0  0  0  0  0
   19.2361  -18.2334  -16.1076 O   0  0  0  0  0  0  0  0  0  0  0  0
   21.1214  -22.2119   -6.9069 O   0  0  0  0  0  0  0  0  0  0  0  0
   21.1500  -21.4949   -8.1029 C   0  0  0  0  0  0  0  0  0  0  0  0
   22.3138  -20.9481   -8.6004 C   0  0  0  0  0  0  0  0  0  0  0  0
   22.3663  -20.2379   -9.7765 C   0  0  0  0  0  0  0  0  0  0  0  0
   21.2259  -20.0388  -10.5255 C   0  0  0  0  0  0  0  0  0  0  0  0
   21.2527  -19.2682  -11.7860 C   0  0  0  0  0  0  0  0  0  0  0  0
   21.5060  -20.1084  -13.0137 C   0  0  2  0  0  0  0  0  0  0  0  0
   21.5297  -19.2169  -14.1755 N   0  0  0  0  0  0  0  0  0  0  0  0
   20.3805  -21.0452  -13.1904 C   0  0  0  0  0  0  0  0  0  0  0  0
   20.3901  -22.3686  -12.7722 O   0  0  0  0  0  0  0  0  0  0  0  0
   20.0455  -20.5809  -10.0413 C   0  0  0  0  0  0  0  0  0  0  0  0
   20.0166  -21.2892   -8.8603 C   0  0  0  0  0  0  0  0  0  0  0  0
   19.3305  -20.6528  -13.7533 O   0  0  0  0  0  0  0  0  0  0  0  0
  2  1  1  6
  3  2  1  0
  4  3  1  0
  4  9  1  0
  5  4  2  0
  6  5  1  0
  6  7  2  0
  7  8  1  0
  8  9  2  0
 10  2  1  0
 10 11  2  0
 12 10  1  0
 13 12  1  0
 13 14  1  6
 15 14  1  0
 15 19  1  0
 16 15  2  0
 17 13  1  0
 18 17  2  0
 20 21  1  0
 21 22  2  0
 22 23  1  0
 24 23  2  0
 24 25  1  0
 26 25  1  1
 26 28  1  0
 26 27  1  0
 27 17  1  0
 28 29  1  0
 30 24  1  0
 31 21  1  0
 31 30  2  0
 32 28  2  0
M  END
$$$$
