FDY.pdb
     RDKit          3D

 32 33  0  0  1  0  0  0  0  0999 V2000
   17.1518  -11.9664  -15.8510 N   0  0  0  0  0  0  0  0  0  0  0  0
   18.1207  -11.2679  -16.6622 C   0  0  1  0  0  0  0  0  0  0  0  0
   17.4333  -10.8876  -17.9661 C   0  0  0  0  0  0  0  0  0  0  0  0
   17.1553  -12.0587  -18.8185 C   0  0  0  0  0  0  0  0  0  0  0  0
   18.1215  -12.7816  -19.4637 C   0  0  0  0  0  0  0  0  0  0  0  0
   17.8457  -13.8681  -20.2522 C   0  0  0  0  0  0  0  0  0  0  0  0
   16.5249  -14.2640  -20.4115 C   0  0  0  0  0  0  0  0  0  0  0  0
   15.5314  -13.5547  -19.7737 C   0  0  0  0  0  0  0  0  0  0  0  0
   15.8405  -12.4644  -18.9859 C   0  0  0  0  0  0  0  0  0  0  0  0
   18.5478  -10.0037  -16.0156 C   0  0  0  0  0  0  0  0  0  0  0  0
   17.6863   -9.3318  -15.4045 O   0  0  0  0  0  0  0  0  0  0  0  0
   19.8805   -9.5117  -16.0506 N   0  0  0  0  0  0  0  0  0  0  0  0
   20.2974   -8.3204  -15.3683 C   0  0  1  0  0  0  0  0  0  0  0  0
   21.6760   -8.4314  -14.8059 C   0  0  0  0  0  0  0  0  0  0  0  0
   22.7011   -8.7564  -15.8270 C   0  0  0  0  0  0  0  0  0  0  0  0
   23.3875   -7.8654  -16.3863 O   0  0  0  0  0  0  0  0  0  0  0  0
   20.1624   -7.1187  -16.2654 C   0  0  0  0  0  0  0  0  0  0  0  0
   20.4459   -7.2316  -17.4977 O   0  0  0  0  0  0  0  0  0  0  0  0
   22.9483  -10.0663  -16.2114 O   0  0  0  0  0  0  0  0  0  0  0  0
   16.7234   -0.2222  -20.3736 O   0  0  0  0  0  0  0  0  0  0  0  0
   17.0675   -1.3175  -19.5815 C   0  0  0  0  0  0  0  0  0  0  0  0
   17.5634   -2.4846  -20.1227 C   0  0  0  0  0  0  0  0  0  0  0  0
   17.9093   -3.5766  -19.3622 C   0  0  0  0  0  0  0  0  0  0  0  0
   17.7701   -3.5469  -17.9908 C   0  0  0  0  0  0  0  0  0  0  0  0
   18.1220   -4.7114  -17.1519 C   0  0  0  0  0  0  0  0  0  0  0  0
   19.5443   -4.6971  -16.6477 C   0  0  2  0  0  0  0  0  0  0  0  0
   19.7339   -5.8719  -15.7939 N   0  0  0  0  0  0  0  0  0  0  0  0
   19.7412   -3.4985  -15.8110 C   0  0  0  0  0  0  0  0  0  0  0  0
   20.2344   -2.2887  -16.2796 O   0  0  0  0  0  0  0  0  0  0  0  0
   17.2727   -2.3819  -17.4280 C   0  0  0  0  0  0  0  0  0  0  0  0
   16.9328   -1.2999  -18.2097 C   0  0  0  0  0  0  0  0  0  0  0  0
   19.4551   -3.5412  -14.5905 O   0  0  0  0  0  0  0  0  0  0  0  0
  2  1  1  1
  3  2  1  0
  4  3  1  0
  4  9  1  0
  5  4  2  0
  6  5  1  0
  6  7  2  0
  7  8  1  0
  8  9  2  0
 10  2  1  0
 10 11  2  0
 12 10  1  0
 13 12  1  0
 13 14  1  6
 15 14  1  0
 15 19  1  0
 16 15  2  0
 17 13  1  0
 18 17  2  0
 20 21  1  0
 21 22  2  0
 22 23  1  0
 24 23  2  0
 24 25  1  0
 26 25  1  1
 26 28  1  0
 26 27  1  0
 27 17  1  0
 28 29  1  0
 30 24  1  0
 31 21  1  0
 31 30  2  0
 32 28  2  0
M  END
$$$$
