FDY.pdb
     RDKit          3D

 32 33  0  0  1  0  0  0  0  0999 V2000
   19.7002   -6.8906  -16.4703 N   0  0  0  0  0  0  0  0  0  0  0  0
   19.3354   -7.6579  -15.3028 C   0  0  1  0  0  0  0  0  0  0  0  0
   19.1575   -6.6783  -14.1514 C   0  0  0  0  0  0  0  0  0  0  0  0
   20.4296   -6.0545  -13.7413 C   0  0  0  0  0  0  0  0  0  0  0  0
   21.3571   -6.6638  -12.9406 C   0  0  0  0  0  0  0  0  0  0  0  0
   22.5348   -6.0696  -12.5691 C   0  0  0  0  0  0  0  0  0  0  0  0
   22.8113   -4.7867  -13.0212 C   0  0  0  0  0  0  0  0  0  0  0  0
   21.8957   -4.1491  -13.8287 C   0  0  0  0  0  0  0  0  0  0  0  0
   20.7178   -4.7736  -14.1859 C   0  0  0  0  0  0  0  0  0  0  0  0
   18.0317   -8.3377  -15.4955 C   0  0  0  0  0  0  0  0  0  0  0  0
   17.2022   -7.8156  -16.2741 O   0  0  0  0  0  0  0  0  0  0  0  0
   17.6709   -9.5489  -14.8459 N   0  0  0  0  0  0  0  0  0  0  0  0
   16.4568  -10.2603  -15.1259 C   0  0  1  0  0  0  0  0  0  0  0  0
   16.6707  -11.4326  -16.0255 C   0  0  0  0  0  0  0  0  0  0  0  0
   15.4235  -12.1764  -16.3256 C   0  0  0  0  0  0  0  0  0  0  0  0
   14.4647  -11.6455  -16.9394 O   0  0  0  0  0  0  0  0  0  0  0  0
   15.7696  -10.6633  -13.8483 C   0  0  0  0  0  0  0  0  0  0  0  0
   16.4621  -11.1392  -12.8967 O   0  0  0  0  0  0  0  0  0  0  0  0
   15.2600  -13.4989  -15.9394 O   0  0  0  0  0  0  0  0  0  0  0  0
    9.4959  -11.1261   -7.5409 O   0  0  0  0  0  0  0  0  0  0  0  0
   10.2688  -10.8211   -8.6612 C   0  0  0  0  0  0  0  0  0  0  0  0
    9.8464  -11.1088   -9.9417 C   0  0  0  0  0  0  0  0  0  0  0  0
   10.5907  -10.8175  -11.0605 C   0  0  0  0  0  0  0  0  0  0  0  0
   11.8227  -10.2096  -10.9428 C   0  0  0  0  0  0  0  0  0  0  0  0
   12.6481   -9.8980  -12.1282 C   0  0  0  0  0  0  0  0  0  0  0  0
   13.6837  -10.9480  -12.4483 C   0  0  2  0  0  0  0  0  0  0  0  0
   14.3876  -10.5341  -13.6641 N   0  0  0  0  0  0  0  0  0  0  0  0
   12.9974  -12.2209  -12.7390 C   0  0  0  0  0  0  0  0  0  0  0  0
   12.8024  -13.2350  -11.8118 O   0  0  0  0  0  0  0  0  0  0  0  0
   12.2648   -9.9128   -9.6631 C   0  0  0  0  0  0  0  0  0  0  0  0
   11.5019  -10.2137   -8.5563 C   0  0  0  0  0  0  0  0  0  0  0  0
   12.5493  -12.4339  -13.8911 O   0  0  0  0  0  0  0  0  0  0  0  0
  2  1  1  6
  3  2  1  0
  4  3  1  0
  4  9  1  0
  5  4  2  0
  6  5  1  0
  6  7  2  0
  7  8  1  0
  8  9  2  0
 10  2  1  0
 10 11  2  0
 12 10  1  0
 13 12  1  0
 13 14  1  6
 15 14  1  0
 15 19  1  0
 16 15  2  0
 17 13  1  0
 18 17  2  0
 20 21  1  0
 21 22  2  0
 22 23  1  0
 24 23  2  0
 24 25  1  0
 26 25  1  6
 26 28  1  0
 26 27  1  0
 27 17  1  0
 28 29  1  0
 30 24  1  0
 31 21  1  0
 31 30  2  0
 32 28  2  0
M  END
$$$$
