FDY.pdb
     RDKit          3D

 32 33  0  0  1  0  0  0  0  0999 V2000
   29.1570  -12.8058  -18.5207 N   0  0  0  0  0  0  0  0  0  0  0  0
   29.1115  -11.3861  -18.2620 C   0  0  1  0  0  0  0  0  0  0  0  0
   28.4152  -11.1894  -16.9227 C   0  0  0  0  0  0  0  0  0  0  0  0
   27.0300  -11.6960  -16.9285 C   0  0  0  0  0  0  0  0  0  0  0  0
   26.1058  -11.3847  -17.8883 C   0  0  0  0  0  0  0  0  0  0  0  0
   24.8222  -11.8646  -17.8786 C   0  0  0  0  0  0  0  0  0  0  0  0
   24.4289  -12.7090  -16.8496 C   0  0  0  0  0  0  0  0  0  0  0  0
   25.3385  -13.0395  -15.8696 C   0  0  0  0  0  0  0  0  0  0  0  0
   26.6246  -12.5401  -15.9064 C   0  0  0  0  0  0  0  0  0  0  0  0
   30.4765  -10.8234  -18.1248 C   0  0  0  0  0  0  0  0  0  0  0  0
   31.4511  -11.5714  -18.3644 O   0  0  0  0  0  0  0  0  0  0  0  0
   30.7406   -9.4822  -17.7364 N   0  0  0  0  0  0  0  0  0  0  0  0
   32.0331   -8.8699  -17.8518 C   0  0  1  0  0  0  0  0  0  0  0  0
   32.5828   -8.9422  -19.2381 C   0  0  0  0  0  0  0  0  0  0  0  0
   33.9634   -8.4128  -19.3495 C   0  0  0  0  0  0  0  0  0  0  0  0
   34.2914   -7.5954  -20.2451 O   0  0  0  0  0  0  0  0  0  0  0  0
   31.9972   -7.4523  -17.3456 C   0  0  0  0  0  0  0  0  0  0  0  0
   31.3034   -6.5904  -17.9680 O   0  0  0  0  0  0  0  0  0  0  0  0
   34.9592   -8.7994  -18.4642 O   0  0  0  0  0  0  0  0  0  0  0  0
   34.0147   -0.4365  -12.1568 O   0  0  0  0  0  0  0  0  0  0  0  0
   33.8528   -1.7140  -12.6927 C   0  0  0  0  0  0  0  0  0  0  0  0
   34.9283   -2.5197  -13.0008 C   0  0  0  0  0  0  0  0  0  0  0  0
   34.7932   -3.7818  -13.5294 C   0  0  0  0  0  0  0  0  0  0  0  0
   33.5425   -4.3058  -13.7791 C   0  0  0  0  0  0  0  0  0  0  0  0
   33.3701   -5.6540  -14.3590 C   0  0  0  0  0  0  0  0  0  0  0  0
   32.7596   -5.6551  -15.7391 C   0  0  2  0  0  0  0  0  0  0  0  0
   32.7025   -7.0414  -16.2080 N   0  0  0  0  0  0  0  0  0  0  0  0
   33.6455   -4.9090  -16.6525 C   0  0  0  0  0  0  0  0  0  0  0  0
   34.7027   -5.4734  -17.3526 O   0  0  0  0  0  0  0  0  0  0  0  0
   32.4485   -3.5104  -13.4760 C   0  0  0  0  0  0  0  0  0  0  0  0
   32.6078   -2.2487  -12.9467 C   0  0  0  0  0  0  0  0  0  0  0  0
   33.4598   -3.6813  -16.8301 O   0  0  0  0  0  0  0  0  0  0  0  0
  2  1  1  1
  3  2  1  0
  4  3  1  0
  4  9  1  0
  5  4  2  0
  6  5  1  0
  6  7  2  0
  7  8  1  0
  8  9  2  0
 10  2  1  0
 10 11  2  0
 12 10  1  0
 13 12  1  0
 13 14  1  6
 15 14  1  0
 15 19  1  0
 16 15  2  0
 17 13  1  0
 18 17  2  0
 20 21  1  0
 21 22  2  0
 22 23  1  0
 24 23  2  0
 24 25  1  0
 26 25  1  1
 26 28  1  0
 26 27  1  0
 27 17  1  0
 28 29  1  0
 30 24  1  0
 31 21  1  0
 31 30  2  0
 32 28  2  0
M  END
$$$$
