FDY.pdb
     RDKit          3D

 32 33  0  0  1  0  0  0  0  0999 V2000
   18.8144   -9.7550  -18.8782 N   0  0  0  0  0  0  0  0  0  0  0  0
   20.1963   -9.4942  -18.5513 C   0  0  1  0  0  0  0  0  0  0  0  0
   20.9496   -9.3210  -19.8627 C   0  0  0  0  0  0  0  0  0  0  0  0
   21.0072  -10.5683  -20.6479 C   0  0  0  0  0  0  0  0  0  0  0  0
   20.2607  -10.8003  -21.7709 C   0  0  0  0  0  0  0  0  0  0  0  0
   20.3267  -11.9656  -22.4892 C   0  0  0  0  0  0  0  0  0  0  0  0
   21.1897  -12.9669  -22.0661 C   0  0  0  0  0  0  0  0  0  0  0  0
   21.9535  -12.7609  -20.9387 C   0  0  0  0  0  0  0  0  0  0  0  0
   21.8650  -11.5762  -20.2360 C   0  0  0  0  0  0  0  0  0  0  0  0
   20.3378   -8.2225  -17.8019 C   0  0  0  0  0  0  0  0  0  0  0  0
   19.6616   -7.2376  -18.1758 O   0  0  0  0  0  0  0  0  0  0  0  0
   21.1981   -8.0587  -16.6828 N   0  0  0  0  0  0  0  0  0  0  0  0
   21.2302   -6.8681  -15.8828 C   0  0  1  0  0  0  0  0  0  0  0  0
   21.7878   -7.1061  -14.5184 C   0  0  0  0  0  0  0  0  0  0  0  0
   20.9024   -7.9281  -13.6586 C   0  0  0  0  0  0  0  0  0  0  0  0
   19.6781   -8.0648  -13.9042 O   0  0  0  0  0  0  0  0  0  0  0  0
   21.9691   -5.7674  -16.5966 C   0  0  0  0  0  0  0  0  0  0  0  0
   23.1191   -6.0055  -17.0786 O   0  0  0  0  0  0  0  0  0  0  0  0
   21.3903   -8.5860  -12.5388 O   0  0  0  0  0  0  0  0  0  0  0  0
   23.4503    0.8439  -22.1701 O   0  0  0  0  0  0  0  0  0  0  0  0
   22.9516   -0.1793  -21.3640 C   0  0  0  0  0  0  0  0  0  0  0  0
   21.8280   -0.0132  -20.5824 C   0  0  0  0  0  0  0  0  0  0  0  0
   21.3182   -1.0069  -19.7805 C   0  0  0  0  0  0  0  0  0  0  0  0
   21.9273   -2.2427  -19.7246 C   0  0  0  0  0  0  0  0  0  0  0  0
   21.4074   -3.3232  -18.8610 C   0  0  0  0  0  0  0  0  0  0  0  0
   22.0876   -3.4156  -17.5170 C   0  0  2  0  0  0  0  0  0  0  0  0
   21.4367   -4.4818  -16.7524 N   0  0  0  0  0  0  0  0  0  0  0  0
   21.8782   -2.1500  -16.7891 C   0  0  0  0  0  0  0  0  0  0  0  0
   22.7073   -1.0416  -16.8907 O   0  0  0  0  0  0  0  0  0  0  0  0
   23.0588   -2.4288  -20.5034 C   0  0  0  0  0  0  0  0  0  0  0  0
   23.5516   -1.4187  -21.2997 C   0  0  0  0  0  0  0  0  0  0  0  0
   20.8959   -2.0343  -16.0176 O   0  0  0  0  0  0  0  0  0  0  0  0
  2  1  1  6
  3  2  1  0
  4  3  1  0
  4  9  1  0
  5  4  2  0
  6  5  1  0
  6  7  2  0
  7  8  1  0
  8  9  2  0
 10  2  1  0
 10 11  2  0
 12 10  1  0
 13 12  1  0
 13 14  1  1
 15 14  1  0
 15 19  1  0
 16 15  2  0
 17 13  1  0
 18 17  2  0
 20 21  1  0
 21 22  2  0
 22 23  1  0
 24 23  2  0
 24 25  1  0
 26 25  1  6
 26 28  1  0
 26 27  1  0
 27 17  1  0
 28 29  1  0
 30 24  1  0
 31 21  1  0
 31 30  2  0
 32 28  2  0
M  END
$$$$
