VAH.pdb
     RDKit          3D

 23 23  0  0  1  0  0  0  0  0999 V2000
    9.4828  -18.9328    0.7658 C   0  0  0  0  0  0  0  0  0  0  0  0
   10.6048  -18.8532    1.7764 C   0  0  2  0  0  0  0  0  0  0  0  0
   10.5589  -19.9912    2.7519 C   0  0  0  0  0  0  0  0  0  0  0  0
   10.5925  -17.5081    2.5017 C   0  0  2  0  0  0  0  0  0  0  0  0
   10.6086  -16.4085    1.5906 N   0  0  0  0  0  0  0  0  0  0  0  0
   11.7975  -17.4990    3.4055 C   0  0  0  0  0  0  0  0  0  0  0  0
   12.9665  -17.5109    2.9447 O   0  0  0  0  0  0  0  0  0  0  0  0
   12.3357  -17.0566    7.1447 C   0  0  0  0  0  0  0  0  0  0  0  0
   12.7625  -17.4430    5.7413 C   0  0  2  0  0  0  0  0  0  0  0  0
   11.6708  -17.4764    4.8194 N   0  0  0  0  0  0  0  0  0  0  0  0
   13.5497  -18.6816    5.7898 C   0  0  0  0  0  0  0  0  0  0  0  0
   12.9360  -19.7840    5.7919 O   0  0  0  0  0  0  0  0  0  0  0  0
   14.9648  -18.7467    5.8352 N   0  0  0  0  0  0  0  0  0  0  0  0
   15.7710  -19.9045    5.9703 C   0  0  1  0  0  0  0  0  0  0  0  0
   16.7911  -20.1404    4.9099 C   0  0  0  0  0  0  0  0  0  0  0  0
   16.2783  -20.6886    3.6401 C   0  0  0  0  0  0  0  0  0  0  0  0
   15.0556  -21.1544    3.2913 C   0  0  0  0  0  0  0  0  0  0  0  0
   15.1015  -21.5641    1.9878 N   0  0  0  0  0  0  0  0  0  0  0  0
   16.3545  -21.3417    1.5609 C   0  0  0  0  0  0  0  0  0  0  0  0
   17.0795  -20.8097    2.5563 N   0  0  0  0  0  0  0  0  0  0  0  0
   16.5070  -19.9445    7.2758 C   0  0  0  0  0  0  0  0  0  0  0  0
   16.6998  -18.8802    8.1028 O   0  0  0  0  0  0  0  0  0  0  0  0
   16.9732  -21.0629    7.6093 O   0  0  0  0  0  0  0  0  0  0  0  0
  2  4  1  0
  2  1  1  6
  2  3  1  0
  4  5  1  6
  6  4  1  0
  6  7  2  0
  9  8  1  1
  9 10  1  0
  9 11  1  0
 10  6  1  0
 11 13  1  0
 12 11  2  0
 13 14  1  0
 14 21  1  0
 14 15  1  6
 16 15  1  0
 17 16  2  0
 18 17  1  0
 19 18  1  0
 19 20  2  0
 20 16  1  0
 21 23  2  0
 21 22  1  0
M  END
$$$$
