VAH.pdb
     RDKit          3D

 23 23  0  0  1  0  0  0  0  0999 V2000
   19.5850  -12.8140  -15.0845 C   0  0  0  0  0  0  0  0  0  0  0  0
   18.2814  -12.4464  -15.7566 C   0  0  2  0  0  0  0  0  0  0  0  0
   17.5634  -13.6544  -16.2802 C   0  0  0  0  0  0  0  0  0  0  0  0
   18.5088  -11.4199  -16.8657 C   0  0  2  0  0  0  0  0  0  0  0  0
   19.2970  -11.9500  -17.9322 N   0  0  0  0  0  0  0  0  0  0  0  0
   19.1740  -10.2329  -16.2195 C   0  0  0  0  0  0  0  0  0  0  0  0
   18.6317   -9.6081  -15.2738 O   0  0  0  0  0  0  0  0  0  0  0  0
   22.5582   -8.5258  -16.4966 C   0  0  0  0  0  0  0  0  0  0  0  0
   21.0733   -8.5650  -16.1890 C   0  0  2  0  0  0  0  0  0  0  0  0
   20.4438   -9.7636  -16.6473 N   0  0  0  0  0  0  0  0  0  0  0  0
   20.4391   -7.3296  -16.6662 C   0  0  0  0  0  0  0  0  0  0  0  0
   20.0653   -7.2721  -17.8699 O   0  0  0  0  0  0  0  0  0  0  0  0
   20.2065   -6.1754  -15.8771 N   0  0  0  0  0  0  0  0  0  0  0  0
   19.6088   -4.9572  -16.2860 C   0  0  1  0  0  0  0  0  0  0  0  0
   18.1308   -4.9647  -16.4767 C   0  0  0  0  0  0  0  0  0  0  0  0
   17.5385   -3.6929  -16.9320 C   0  0  0  0  0  0  0  0  0  0  0  0
   17.8506   -2.8756  -17.9657 C   0  0  0  0  0  0  0  0  0  0  0  0
   16.9982   -1.8067  -17.9479 N   0  0  0  0  0  0  0  0  0  0  0  0
   16.1779   -1.9890  -16.9013 C   0  0  0  0  0  0  0  0  0  0  0  0
   16.4963   -3.1321  -16.2757 N   0  0  0  0  0  0  0  0  0  0  0  0
   19.9041   -3.8270  -15.3463 C   0  0  0  0  0  0  0  0  0  0  0  0
   19.6744   -2.5099  -15.6035 O   0  0  0  0  0  0  0  0  0  0  0  0
   20.4035   -4.1498  -14.2391 O   0  0  0  0  0  0  0  0  0  0  0  0
  2  4  1  0
  2  1  1  6
  2  3  1  0
  4  5  1  6
  6  4  1  0
  6  7  2  0
  9  8  1  6
  9 10  1  0
  9 11  1  0
 10  6  1  0
 11 13  1  0
 12 11  2  0
 13 14  1  0
 14 21  1  0
 14 15  1  1
 16 15  1  0
 17 16  2  0
 18 17  1  0
 19 18  1  0
 19 20  2  0
 20 16  1  0
 21 23  2  0
 21 22  1  0
M  END
$$$$
