VAH.pdb
     RDKit          3D

 23 23  0  0  1  0  0  0  0  0999 V2000
   16.5701  -15.3143  -17.8944 C   0  0  0  0  0  0  0  0  0  0  0  0
   17.7793  -15.7780  -17.1140 C   0  0  2  0  0  0  0  0  0  0  0  0
   17.6537  -17.2110  -16.6899 C   0  0  0  0  0  0  0  0  0  0  0  0
   18.0346  -14.8705  -15.9113 C   0  0  2  0  0  0  0  0  0  0  0  0
   16.9556  -14.9049  -14.9762 N   0  0  0  0  0  0  0  0  0  0  0  0
   18.2507  -13.4844  -16.4600 C   0  0  0  0  0  0  0  0  0  0  0  0
   19.2243  -13.2166  -17.2079 O   0  0  0  0  0  0  0  0  0  0  0  0
   16.1020  -10.5108  -17.0535 C   0  0  0  0  0  0  0  0  0  0  0  0
   17.4565  -11.0969  -16.7031 C   0  0  2  0  0  0  0  0  0  0  0  0
   17.3660  -12.4155  -16.1593 N   0  0  0  0  0  0  0  0  0  0  0  0
   18.2015  -10.1483  -15.8656 C   0  0  0  0  0  0  0  0  0  0  0  0
   18.1137  -10.2562  -14.6116 O   0  0  0  0  0  0  0  0  0  0  0  0
   19.0254   -9.1032  -16.3532 N   0  0  0  0  0  0  0  0  0  0  0  0
   19.6971   -8.1103  -15.5971 C   0  0  1  0  0  0  0  0  0  0  0  0
   20.7169   -7.2946  -16.3149 C   0  0  0  0  0  0  0  0  0  0  0  0
   21.3894   -6.2582  -15.5090 C   0  0  0  0  0  0  0  0  0  0  0  0
   21.4953   -6.0898  -14.1696 C   0  0  0  0  0  0  0  0  0  0  0  0
   22.2186   -4.9547  -13.9296 N   0  0  0  0  0  0  0  0  0  0  0  0
   22.5432   -4.4472  -15.1290 C   0  0  0  0  0  0  0  0  0  0  0  0
   22.0448   -5.2306  -16.0971 N   0  0  0  0  0  0  0  0  0  0  0  0
   18.7533   -7.1350  -14.9601 C   0  0  0  0  0  0  0  0  0  0  0  0
   18.7600   -6.7778  -13.6463 O   0  0  0  0  0  0  0  0  0  0  0  0
   17.8973   -6.6209  -15.7233 O   0  0  0  0  0  0  0  0  0  0  0  0
  2  4  1  0
  2  1  1  1
  2  3  1  0
  4  5  1  1
  6  4  1  0
  6  7  2  0
  9  8  1  1
  9 10  1  0
  9 11  1  0
 10  6  1  0
 11 13  1  0
 12 11  2  0
 13 14  1  0
 14 21  1  0
 14 15  1  6
 16 15  1  0
 17 16  2  0
 18 17  1  0
 19 18  1  0
 19 20  2  0
 20 16  1  0
 21 23  2  0
 21 22  1  0
M  END
$$$$
