VAH.pdb
     RDKit          3D

 23 23  0  0  1  0  0  0  0  0999 V2000
   27.0909  -13.4660  -14.9552 C   0  0  0  0  0  0  0  0  0  0  0  0
   25.8116  -14.0259  -15.5352 C   0  0  2  0  0  0  0  0  0  0  0  0
   25.9314  -15.4890  -15.8415 C   0  0  0  0  0  0  0  0  0  0  0  0
   25.3830  -13.2397  -16.7736 C   0  0  2  0  0  0  0  0  0  0  0  0
   26.3472  -13.3274  -17.8235 N   0  0  0  0  0  0  0  0  0  0  0  0
   25.1765  -11.8163  -16.3259 C   0  0  0  0  0  0  0  0  0  0  0  0
   24.3516  -11.5225  -15.4247 O   0  0  0  0  0  0  0  0  0  0  0  0
   26.8063   -8.4717  -17.1544 C   0  0  0  0  0  0  0  0  0  0  0  0
   25.7262   -9.3609  -16.5680 C   0  0  2  0  0  0  0  0  0  0  0  0
   25.9029  -10.7398  -16.8997 N   0  0  0  0  0  0  0  0  0  0  0  0
   24.4044   -8.8218  -16.9122 C   0  0  0  0  0  0  0  0  0  0  0  0
   23.9235   -9.0889  -18.0476 O   0  0  0  0  0  0  0  0  0  0  0  0
   23.6079   -8.0127  -16.0637 N   0  0  0  0  0  0  0  0  0  0  0  0
   22.3157   -7.4950  -16.3296 C   0  0  1  0  0  0  0  0  0  0  0  0
   21.1688   -8.4313  -16.1603 C   0  0  0  0  0  0  0  0  0  0  0  0
   19.8352   -7.8656  -16.4380 C   0  0  0  0  0  0  0  0  0  0  0  0
   19.4483   -6.6299  -16.8345 C   0  0  0  0  0  0  0  0  0  0  0  0
   18.0852   -6.6136  -16.9395 N   0  0  0  0  0  0  0  0  0  0  0  0
   17.6610   -7.8422  -16.6045 C   0  0  0  0  0  0  0  0  0  0  0  0
   18.7155   -8.6124  -16.2975 N   0  0  0  0  0  0  0  0  0  0  0  0
   21.9970   -6.2878  -15.4996 C   0  0  0  0  0  0  0  0  0  0  0  0
   21.2044   -5.2519  -15.8901 O   0  0  0  0  0  0  0  0  0  0  0  0
   22.5165   -6.2553  -14.3557 O   0  0  0  0  0  0  0  0  0  0  0  0
  2  4  1  0
  2  1  1  6
  2  3  1  0
  4  5  1  6
  6  4  1  0
  6  7  2  0
  9  8  1  6
  9 10  1  0
  9 11  1  0
 10  6  1  0
 11 13  1  0
 12 11  2  0
 13 14  1  0
 14 21  1  0
 14 15  1  1
 16 15  1  0
 17 16  2  0
 18 17  1  0
 19 18  1  0
 19 20  2  0
 20 16  1  0
 21 23  2  0
 21 22  1  0
M  END
$$$$
