VAH.pdb
     RDKit          3D

 23 23  0  0  1  0  0  0  0  0999 V2000
   25.9086  -18.1248  -15.9363 C   0  0  0  0  0  0  0  0  0  0  0  0
   27.1816  -18.3869  -15.1636 C   0  0  2  0  0  0  0  0  0  0  0  0
   28.3288  -17.5749  -15.6866 C   0  0  0  0  0  0  0  0  0  0  0  0
   27.5213  -19.8768  -15.1591 C   0  0  2  0  0  0  0  0  0  0  0  0
   27.7355  -20.3810  -16.4781 N   0  0  0  0  0  0  0  0  0  0  0  0
   26.3739  -20.5747  -14.4767 C   0  0  0  0  0  0  0  0  0  0  0  0
   25.4512  -21.1203  -15.1323 O   0  0  0  0  0  0  0  0  0  0  0  0
   25.3940  -21.1974  -10.8394 C   0  0  0  0  0  0  0  0  0  0  0  0
   25.1735  -21.1946  -12.3402 C   0  0  2  0  0  0  0  0  0  0  0  0
   26.2801  -20.6495  -13.0620 N   0  0  0  0  0  0  0  0  0  0  0  0
   23.8832  -20.5642  -12.6469 C   0  0  0  0  0  0  0  0  0  0  0  0
   23.7910  -19.3091  -12.5563 O   0  0  0  0  0  0  0  0  0  0  0  0
   22.7115  -21.2563  -13.0429 N   0  0  0  0  0  0  0  0  0  0  0  0
   21.4325  -20.7060  -13.3073 C   0  0  1  0  0  0  0  0  0  0  0  0
   21.0594  -20.5309  -14.7394 C   0  0  0  0  0  0  0  0  0  0  0  0
   21.8900  -19.5825  -15.5051 C   0  0  0  0  0  0  0  0  0  0  0  0
   22.8642  -19.7806  -16.4245 C   0  0  0  0  0  0  0  0  0  0  0  0
   23.3343  -18.5625  -16.8298 N   0  0  0  0  0  0  0  0  0  0  0  0
   22.6382  -17.6382  -16.1496 C   0  0  0  0  0  0  0  0  0  0  0  0
   21.7571  -18.2458  -15.3409 N   0  0  0  0  0  0  0  0  0  0  0  0
   20.3244  -21.4968  -12.6794 C   0  0  0  0  0  0  0  0  0  0  0  0
   19.0179  -21.1169  -12.6290 O   0  0  0  0  0  0  0  0  0  0  0  0
   20.6562  -22.5948  -12.1658 O   0  0  0  0  0  0  0  0  0  0  0  0
  2  4  1  0
  2  1  1  6
  2  3  1  0
  4  5  1  6
  6  4  1  0
  6  7  2  0
  9  8  1  1
  9 10  1  0
  9 11  1  0
 10  6  1  0
 11 13  1  0
 12 11  2  0
 13 14  1  0
 14 21  1  0
 14 15  1  6
 16 15  1  0
 17 16  2  0
 18 17  1  0
 19 18  1  0
 19 20  2  0
 20 16  1  0
 21 23  2  0
 21 22  1  0
M  END
$$$$
