VAH.pdb
     RDKit          3D

 23 23  0  0  1  0  0  0  0  0999 V2000
   17.3342  -13.9516  -18.8853 C   0  0  0  0  0  0  0  0  0  0  0  0
   18.0810  -12.7345  -18.3879 C   0  0  2  0  0  0  0  0  0  0  0  0
   17.6729  -11.4915  -19.1208 C   0  0  0  0  0  0  0  0  0  0  0  0
   19.5918  -12.9489  -18.4705 C   0  0  2  0  0  0  0  0  0  0  0  0
   20.0089  -14.1055  -17.7440 N   0  0  0  0  0  0  0  0  0  0  0  0
   20.2313  -11.6949  -17.9342 C   0  0  0  0  0  0  0  0  0  0  0  0
   20.0502  -11.3183  -16.7491 O   0  0  0  0  0  0  0  0  0  0  0  0
   22.6298   -9.0861  -19.3497 C   0  0  0  0  0  0  0  0  0  0  0  0
   21.6680   -9.6515  -18.3218 C   0  0  2  0  0  0  0  0  0  0  0  0
   21.0682  -10.8793  -18.7405 N   0  0  0  0  0  0  0  0  0  0  0  0
   20.7070   -8.6148  -17.9245 C   0  0  0  0  0  0  0  0  0  0  0  0
   19.6304   -8.5124  -18.5744 O   0  0  0  0  0  0  0  0  0  0  0  0
   20.8877   -7.7028  -16.8546 N   0  0  0  0  0  0  0  0  0  0  0  0
   19.9941   -6.6907  -16.4239 C   0  0  1  0  0  0  0  0  0  0  0  0
   18.7914   -7.1351  -15.6644 C   0  0  0  0  0  0  0  0  0  0  0  0
   19.0602   -7.8857  -14.4234 C   0  0  0  0  0  0  0  0  0  0  0  0
   20.0562   -8.7395  -14.0877 C   0  0  0  0  0  0  0  0  0  0  0  0
   19.8399   -9.1803  -12.8118 N   0  0  0  0  0  0  0  0  0  0  0  0
   18.7127   -8.5874  -12.3881 C   0  0  0  0  0  0  0  0  0  0  0  0
   18.2292   -7.7979  -13.3589 N   0  0  0  0  0  0  0  0  0  0  0  0
   20.6654   -5.6528  -15.5754 C   0  0  0  0  0  0  0  0  0  0  0  0
   20.0952   -4.4888  -15.1587 O   0  0  0  0  0  0  0  0  0  0  0  0
   21.8493   -5.9029  -15.2360 O   0  0  0  0  0  0  0  0  0  0  0  0
  2  4  1  0
  2  1  1  6
  2  3  1  0
  4  5  1  1
  6  4  1  0
  6  7  2  0
  9  8  1  6
  9 10  1  0
  9 11  1  0
 10  6  1  0
 11 13  1  0
 12 11  2  0
 13 14  1  0
 14 21  1  0
 14 15  1  1
 16 15  1  0
 17 16  2  0
 18 17  1  0
 19 18  1  0
 19 20  2  0
 20 16  1  0
 21 23  2  0
 21 22  1  0
M  END
$$$$
