VAH.pdb
     RDKit          3D

 23 23  0  0  1  0  0  0  0  0999 V2000
   15.4078  -13.2970  -15.1083 C   0  0  0  0  0  0  0  0  0  0  0  0
   14.6157  -12.7132  -16.2564 C   0  0  2  0  0  0  0  0  0  0  0  0
   13.7297  -13.7372  -16.9007 C   0  0  0  0  0  0  0  0  0  0  0  0
   15.5412  -12.0638  -17.2845 C   0  0  2  0  0  0  0  0  0  0  0  0
   16.4072  -13.0166  -17.9024 N   0  0  0  0  0  0  0  0  0  0  0  0
   16.3169  -11.0015  -16.5505 C   0  0  0  0  0  0  0  0  0  0  0  0
   15.7389  -10.0721  -15.9332 O   0  0  0  0  0  0  0  0  0  0  0  0
   19.9899  -10.4012  -15.7530 C   0  0  0  0  0  0  0  0  0  0  0  0
   18.5436   -9.9788  -15.9292 C   0  0  2  0  0  0  0  0  0  0  0  0
   17.7364  -10.9992  -16.5207 N   0  0  0  0  0  0  0  0  0  0  0  0
   18.4895   -8.6870  -16.6253 C   0  0  0  0  0  0  0  0  0  0  0  0
   18.3704   -8.6857  -17.8813 O   0  0  0  0  0  0  0  0  0  0  0  0
   18.5609   -7.4188  -15.9965 N   0  0  0  0  0  0  0  0  0  0  0  0
   18.4625   -6.1451  -16.6103 C   0  0  1  0  0  0  0  0  0  0  0  0
   17.1724   -5.8209  -17.2822 C   0  0  0  0  0  0  0  0  0  0  0  0
   15.9751   -5.8635  -16.4218 C   0  0  0  0  0  0  0  0  0  0  0  0
   15.8194   -6.1776  -15.1138 C   0  0  0  0  0  0  0  0  0  0  0  0
   14.4937   -6.0739  -14.7962 N   0  0  0  0  0  0  0  0  0  0  0  0
   13.8599   -5.6976  -15.9180 C   0  0  0  0  0  0  0  0  0  0  0  0
   14.7497   -5.5664  -16.9132 N   0  0  0  0  0  0  0  0  0  0  0  0
   18.7300   -5.0225  -15.6533 C   0  0  0  0  0  0  0  0  0  0  0  0
   18.8395   -3.7086  -15.9931 O   0  0  0  0  0  0  0  0  0  0  0  0
   18.8593   -5.3488  -14.4465 O   0  0  0  0  0  0  0  0  0  0  0  0
  2  4  1  0
  2  1  1  1
  2  3  1  0
  4  5  1  1
  6  4  1  0
  6  7  2  0
  9  8  1  6
  9 10  1  0
  9 11  1  0
 10  6  1  0
 11 13  1  0
 12 11  2  0
 13 14  1  0
 14 21  1  0
 14 15  1  1
 16 15  1  0
 17 16  2  0
 18 17  1  0
 19 18  1  0
 19 20  2  0
 20 16  1  0
 21 23  2  0
 21 22  1  0
M  END
$$$$
