VAH.pdb
     RDKit          3D

 23 23  0  0  1  0  0  0  0  0999 V2000
   19.5677  -13.6693  -16.9961 C   0  0  0  0  0  0  0  0  0  0  0  0
   19.5326  -12.9853  -18.3442 C   0  0  2  0  0  0  0  0  0  0  0  0
   19.1945  -13.9433  -19.4473 C   0  0  0  0  0  0  0  0  0  0  0  0
   20.8513  -12.2667  -18.6269 C   0  0  2  0  0  0  0  0  0  0  0  0
   21.9430  -13.1795  -18.7484 N   0  0  0  0  0  0  0  0  0  0  0  0
   21.0610  -11.2969  -17.4935 C   0  0  0  0  0  0  0  0  0  0  0  0
   20.2063  -10.4205  -17.2101 O   0  0  0  0  0  0  0  0  0  0  0  0
   23.7859  -10.7821  -14.8711 C   0  0  0  0  0  0  0  0  0  0  0  0
   22.5210  -10.4193  -15.6259 C   0  0  2  0  0  0  0  0  0  0  0  0
   22.2326  -11.3263  -16.6921 N   0  0  0  0  0  0  0  0  0  0  0  0
   22.5772   -9.0092  -16.0314 C   0  0  0  0  0  0  0  0  0  0  0  0
   23.0658   -8.7274  -17.1600 O   0  0  0  0  0  0  0  0  0  0  0  0
   22.1217   -7.9177  -15.2504 N   0  0  0  0  0  0  0  0  0  0  0  0
   22.2284   -6.5371  -15.5523 C   0  0  1  0  0  0  0  0  0  0  0  0
   21.3773   -6.0245  -16.6630 C   0  0  0  0  0  0  0  0  0  0  0  0
   19.9297   -6.2718  -16.5256 C   0  0  0  0  0  0  0  0  0  0  0  0
   19.2110   -6.8845  -15.5551 C   0  0  0  0  0  0  0  0  0  0  0  0
   17.8913   -6.8628  -15.9115 N   0  0  0  0  0  0  0  0  0  0  0  0
   17.8253   -6.2360  -17.0965 C   0  0  0  0  0  0  0  0  0  0  0  0
   19.0580   -5.8720  -17.4805 N   0  0  0  0  0  0  0  0  0  0  0  0
   21.9411   -5.6647  -14.3675 C   0  0  0  0  0  0  0  0  0  0  0  0
   22.1354   -4.3180  -14.3168 O   0  0  0  0  0  0  0  0  0  0  0  0
   21.4848   -6.2493  -13.3528 O   0  0  0  0  0  0  0  0  0  0  0  0
  2  4  1  0
  2  1  1  1
  2  3  1  0
  4  5  1  1
  6  4  1  0
  6  7  2  0
  9  8  1  6
  9 10  1  0
  9 11  1  0
 10  6  1  0
 11 13  1  0
 12 11  2  0
 13 14  1  0
 14 21  1  0
 14 15  1  6
 16 15  1  0
 17 16  2  0
 18 17  1  0
 19 18  1  0
 19 20  2  0
 20 16  1  0
 21 23  2  0
 21 22  1  0
M  END
$$$$
