VAH.pdb
     RDKit          3D

 23 23  0  0  1  0  0  0  0  0999 V2000
   16.7580  -21.7516    4.0718 C   0  0  0  0  0  0  0  0  0  0  0  0
   15.4329  -21.2154    3.5791 C   0  0  2  0  0  0  0  0  0  0  0  0
   14.9763  -21.9147    2.3336 C   0  0  0  0  0  0  0  0  0  0  0  0
   15.5004  -19.7036    3.3658 C   0  0  2  0  0  0  0  0  0  0  0  0
   16.3462  -19.3550    2.2691 N   0  0  0  0  0  0  0  0  0  0  0  0
   15.9948  -19.1112    4.6595 C   0  0  0  0  0  0  0  0  0  0  0  0
   17.1963  -18.7774    4.8142 O   0  0  0  0  0  0  0  0  0  0  0  0
   14.3326  -17.9525    7.8838 C   0  0  0  0  0  0  0  0  0  0  0  0
   15.5177  -18.3336    7.0169 C   0  0  2  0  0  0  0  0  0  0  0  0
   15.1284  -18.9015    5.7645 N   0  0  0  0  0  0  0  0  0  0  0  0
   16.4483  -19.1631    7.7928 C   0  0  0  0  0  0  0  0  0  0  0  0
   16.4111  -20.4146    7.6368 O   0  0  0  0  0  0  0  0  0  0  0  0
   17.4020  -18.6704    8.7184 N   0  0  0  0  0  0  0  0  0  0  0  0
   18.3021  -19.4237    9.5127 C   0  0  1  0  0  0  0  0  0  0  0  0
   19.7445  -19.0610    9.4208 C   0  0  0  0  0  0  0  0  0  0  0  0
   20.3985  -19.3612    8.1333 C   0  0  0  0  0  0  0  0  0  0  0  0
   19.9809  -20.0689    7.0569 C   0  0  0  0  0  0  0  0  0  0  0  0
   20.9741  -20.0587    6.1174 N   0  0  0  0  0  0  0  0  0  0  0  0
   21.9844  -19.3435    6.6365 C   0  0  0  0  0  0  0  0  0  0  0  0
   21.6466  -18.9141    7.8617 N   0  0  0  0  0  0  0  0  0  0  0  0
   17.9530  -19.3872   10.9702 C   0  0  0  0  0  0  0  0  0  0  0  0
   18.5590  -20.1228   11.9427 O   0  0  0  0  0  0  0  0  0  0  0  0
   17.0225  -18.6063   11.2926 O   0  0  0  0  0  0  0  0  0  0  0  0
  2  4  1  0
  2  1  1  6
  2  3  1  0
  4  5  1  6
  6  4  1  0
  6  7  2  0
  9  8  1  1
  9 10  1  0
  9 11  1  0
 10  6  1  0
 11 13  1  0
 12 11  2  0
 13 14  1  0
 14 21  1  0
 14 15  1  1
 16 15  1  0
 17 16  2  0
 18 17  1  0
 19 18  1  0
 19 20  2  0
 20 16  1  0
 21 23  2  0
 21 22  1  0
M  END
$$$$
