VAH.pdb
     RDKit          3D

 23 23  0  0  1  0  0  0  0  0999 V2000
   20.3026  -14.2809  -14.9838 C   0  0  0  0  0  0  0  0  0  0  0  0
   19.2411  -14.5410  -16.0288 C   0  0  2  0  0  0  0  0  0  0  0  0
   18.5023  -15.8195  -15.7674 C   0  0  0  0  0  0  0  0  0  0  0  0
   19.8433  -14.5328  -17.4333 C   0  0  2  0  0  0  0  0  0  0  0  0
   20.7235  -15.6374  -17.6447 N   0  0  0  0  0  0  0  0  0  0  0  0
   20.5582  -13.2155  -17.5841 C   0  0  0  0  0  0  0  0  0  0  0  0
   21.7819  -13.0968  -17.3247 O   0  0  0  0  0  0  0  0  0  0  0  0
   19.6097   -9.7925  -18.9587 C   0  0  0  0  0  0  0  0  0  0  0  0
   20.4927  -10.7645  -18.1992 C   0  0  2  0  0  0  0  0  0  0  0  0
   19.8847  -12.0463  -18.0260 N   0  0  0  0  0  0  0  0  0  0  0  0
   20.9520  -10.1407  -16.9518 C   0  0  0  0  0  0  0  0  0  0  0  0
   20.3127  -10.3780  -15.8903 O   0  0  0  0  0  0  0  0  0  0  0  0
   22.0716   -9.2794  -16.8354 N   0  0  0  0  0  0  0  0  0  0  0  0
   22.5599   -8.6536  -15.6612 C   0  0  1  0  0  0  0  0  0  0  0  0
   24.0370   -8.4891  -15.5522 C   0  0  0  0  0  0  0  0  0  0  0  0
   24.8194   -9.7392  -15.5273 C   0  0  0  0  0  0  0  0  0  0  0  0
   24.4381  -11.0364  -15.4524 C   0  0  0  0  0  0  0  0  0  0  0  0
   25.5585  -11.8199  -15.4502 N   0  0  0  0  0  0  0  0  0  0  0  0
   26.6081  -10.9866  -15.5238 C   0  0  0  0  0  0  0  0  0  0  0  0
   26.1718   -9.7190  -15.5711 N   0  0  0  0  0  0  0  0  0  0  0  0
   21.9698   -7.2922  -15.4465 C   0  0  0  0  0  0  0  0  0  0  0  0
   22.0113   -6.5924  -14.2793 O   0  0  0  0  0  0  0  0  0  0  0  0
   21.3967   -6.7792  -16.4403 O   0  0  0  0  0  0  0  0  0  0  0  0
  2  4  1  0
  2  1  1  1
  2  3  1  0
  4  5  1  1
  6  4  1  0
  6  7  2  0
  9  8  1  1
  9 10  1  0
  9 11  1  0
 10  6  1  0
 11 13  1  0
 12 11  2  0
 13 14  1  0
 14 21  1  0
 14 15  1  6
 16 15  1  0
 17 16  2  0
 18 17  1  0
 19 18  1  0
 19 20  2  0
 20 16  1  0
 21 23  2  0
 21 22  1  0
M  END
$$$$
