NIH.pdb
     RDKit          3D

 27 27  0  0  1  0  0  0  0  0999 V2000
   22.1489  -13.8031  -20.9723 N   0  0  0  0  0  0  0  0  0  0  0  0
   20.9259  -13.4905  -20.3076 C   0  0  0  0  0  0  0  0  0  0  0  0
   19.8763  -13.3605  -20.9596 O   0  0  0  0  0  0  0  0  0  0  0  0
   20.9383  -13.3289  -18.8588 C   0  0  0  0  0  0  0  0  0  0  0  0
   22.3304  -13.5414  -18.3170 C   0  0  2  0  0  0  0  0  0  0  0  0
   22.4485  -14.9268  -17.8640 N   0  0  0  0  0  0  0  0  0  0  0  0
   22.5566  -12.6133  -17.1972 C   0  0  0  0  0  0  0  0  0  0  0  0
   22.0242  -12.8610  -16.0638 O   0  0  0  0  0  0  0  0  0  0  0  0
   27.1924  -11.5360  -15.5668 C   0  0  0  0  0  0  0  0  0  0  0  0
   25.7001  -11.7088  -15.6538 C   0  0  0  0  0  0  0  0  0  0  0  0
   25.1028  -10.3999  -16.1520 C   0  0  2  0  0  0  0  0  0  0  0  0
   25.4855   -9.3433  -15.1656 C   0  0  0  0  0  0  0  0  0  0  0  0
   23.5849  -10.5647  -16.3090 C   0  0  2  0  0  0  0  0  0  0  0  0
   23.3563  -11.4748  -17.4105 N   0  0  0  0  0  0  0  0  0  0  0  0
   22.9551   -9.2693  -16.7596 C   0  0  0  0  0  0  0  0  0  0  0  0
   23.4207   -8.6264  -17.7630 O   0  0  0  0  0  0  0  0  0  0  0  0
   21.8369   -8.6965  -16.1217 N   0  0  0  0  0  0  0  0  0  0  0  0
   21.2579   -7.4813  -16.7014 C   0  0  1  0  0  0  0  0  0  0  0  0
   19.8320   -7.3069  -16.2647 C   0  0  0  0  0  0  0  0  0  0  0  0
   19.2625   -6.1299  -16.9518 C   0  0  0  0  0  0  0  0  0  0  0  0
   19.9156   -5.4018  -17.9465 C   0  0  0  0  0  0  0  0  0  0  0  0
   19.1259   -4.4001  -18.3594 N   0  0  0  0  0  0  0  0  0  0  0  0
   17.9872   -4.4651  -17.6591 C   0  0  0  0  0  0  0  0  0  0  0  0
   18.0691   -5.5130  -16.8058 N   0  0  0  0  0  0  0  0  0  0  0  0
   22.1564   -6.3759  -16.2905 C   0  0  0  0  0  0  0  0  0  0  0  0
   22.5855   -6.2091  -15.1201 O   0  0  0  0  0  0  0  0  0  0  0  0
   22.5571   -5.4622  -17.2474 O   0  0  0  0  0  0  0  0  0  0  0  0
  2  1  1  0
  2  3  2  0
  4  5  1  0
  4  2  1  0
  5  7  1  0
  5  6  1  1
  7  8  2  0
  9 10  1  0
 10 11  1  0
 11 13  1  0
 11 12  1  1
 13 14  1  6
 14  7  1  0
 15 16  2  0
 15 13  1  0
 17 15  1  0
 18 25  1  0
 18 17  1  0
 18 19  1  1
 20 19  1  0
 21 20  2  0
 22 21  1  0
 23 22  1  0
 23 24  2  0
 24 20  1  0
 25 27  1  0
 26 25  2  0
M  END
$$$$
