NIH.pdb
     RDKit          3D

 27 27  0  0  1  0  0  0  0  0999 V2000
   20.7420  -18.1574  -16.4196 N   0  0  0  0  0  0  0  0  0  0  0  0
   21.6918  -17.1868  -16.8571 C   0  0  0  0  0  0  0  0  0  0  0  0
   22.2070  -17.2809  -17.9838 O   0  0  0  0  0  0  0  0  0  0  0  0
   22.0395  -16.0931  -15.9582 C   0  0  0  0  0  0  0  0  0  0  0  0
   23.5238  -15.8257  -16.0033 C   0  0  2  0  0  0  0  0  0  0  0  0
   24.2210  -16.9592  -15.3972 N   0  0  0  0  0  0  0  0  0  0  0  0
   23.8113  -14.5881  -15.2602 C   0  0  0  0  0  0  0  0  0  0  0  0
   23.6081  -14.5548  -14.0004 O   0  0  0  0  0  0  0  0  0  0  0  0
   28.3249  -12.2873  -16.0612 C   0  0  0  0  0  0  0  0  0  0  0  0
   27.0592  -12.7200  -15.3720 C   0  0  0  0  0  0  0  0  0  0  0  0
   25.9580  -11.7389  -15.7503 C   0  0  2  0  0  0  0  0  0  0  0  0
   26.3392  -10.4130  -15.1735 C   0  0  0  0  0  0  0  0  0  0  0  0
   24.6128  -12.2644  -15.2306 C   0  0  2  0  0  0  0  0  0  0  0  0
   24.3037  -13.4729  -15.9638 N   0  0  0  0  0  0  0  0  0  0  0  0
   23.4974  -11.3141  -15.5921 C   0  0  0  0  0  0  0  0  0  0  0  0
   23.2230  -11.0579  -16.8152 O   0  0  0  0  0  0  0  0  0  0  0  0
   22.7009  -10.6631  -14.6292 N   0  0  0  0  0  0  0  0  0  0  0  0
   21.6399   -9.7685  -15.1004 C   0  0  1  0  0  0  0  0  0  0  0  0
   20.2911  -10.2598  -14.6604 C   0  0  0  0  0  0  0  0  0  0  0  0
   19.2664   -9.2818  -15.0792 C   0  0  0  0  0  0  0  0  0  0  0  0
   19.5220   -8.1528  -15.8578 C   0  0  0  0  0  0  0  0  0  0  0  0
   18.3801   -7.4792  -16.0575 N   0  0  0  0  0  0  0  0  0  0  0  0
   17.4016   -8.1428  -15.4303 C   0  0  0  0  0  0  0  0  0  0  0  0
   17.9378   -9.2354  -14.8371 N   0  0  0  0  0  0  0  0  0  0  0  0
   21.9927   -8.4243  -14.5839 C   0  0  0  0  0  0  0  0  0  0  0  0
   22.7182   -8.2198  -13.5772 O   0  0  0  0  0  0  0  0  0  0  0  0
   21.4988   -7.3146  -15.2438 O   0  0  0  0  0  0  0  0  0  0  0  0
  2  1  1  0
  2  3  2  0
  4  5  1  0
  4  2  1  0
  5  7  1  0
  5  6  1  1
  7  8  2  0
  9 10  1  0
 10 11  1  0
 11 13  1  0
 11 12  1  1
 13 14  1  6
 14  7  1  0
 15 16  2  0
 15 13  1  0
 17 15  1  0
 18 25  1  0
 18 17  1  0
 18 19  1  1
 20 19  1  0
 21 20  2  0
 22 21  1  0
 23 22  1  0
 23 24  2  0
 24 20  1  0
 25 27  1  0
 26 25  2  0
M  END
$$$$
