NIH.pdb
     RDKit          3D

 27 27  0  0  1  0  0  0  0  0999 V2000
   44.5162  -14.9051  -12.5656 N   0  0  0  0  0  0  0  0  0  0  0  0
   43.1141  -14.8689  -12.3046 C   0  0  0  0  0  0  0  0  0  0  0  0
   42.3021  -14.9696  -13.2397 O   0  0  0  0  0  0  0  0  0  0  0  0
   42.6624  -14.7124  -10.9275 C   0  0  0  0  0  0  0  0  0  0  0  0
   43.8410  -14.6937   -9.9855 C   0  0  2  0  0  0  0  0  0  0  0  0
   44.2699  -16.0712   -9.7471 N   0  0  0  0  0  0  0  0  0  0  0  0
   43.4358  -14.0555   -8.7225 C   0  0  0  0  0  0  0  0  0  0  0  0
   42.7559  -14.7251   -7.8746 O   0  0  0  0  0  0  0  0  0  0  0  0
   47.1089  -11.7117   -6.0316 C   0  0  0  0  0  0  0  0  0  0  0  0
   45.8391  -12.4434   -6.3732 C   0  0  0  0  0  0  0  0  0  0  0  0
   44.7764  -11.4079   -6.7149 C   0  0  2  0  0  0  0  0  0  0  0  0
   44.5567  -10.5871   -5.4845 C   0  0  0  0  0  0  0  0  0  0  0  0
   43.5099  -12.1255   -7.2017 C   0  0  2  0  0  0  0  0  0  0  0  0
   43.8115  -12.7197   -8.4861 N   0  0  0  0  0  0  0  0  0  0  0  0
   42.4174  -11.1280   -7.5003 C   0  0  0  0  0  0  0  0  0  0  0  0
   42.5089  -10.3322   -8.4979 O   0  0  0  0  0  0  0  0  0  0  0  0
   41.2499  -11.0114   -6.7200 N   0  0  0  0  0  0  0  0  0  0  0  0
   40.2909   -9.9580   -7.0645 C   0  0  1  0  0  0  0  0  0  0  0  0
   38.9710  -10.1941   -6.3888 C   0  0  0  0  0  0  0  0  0  0  0  0
   38.0938   -9.0314   -6.6345 C   0  0  0  0  0  0  0  0  0  0  0  0
   38.4196   -7.9551   -7.4602 C   0  0  0  0  0  0  0  0  0  0  0  0
   37.4094   -7.0736   -7.4658 N   0  0  0  0  0  0  0  0  0  0  0  0
   36.4471   -7.5531   -6.6688 C   0  0  0  0  0  0  0  0  0  0  0  0
   36.8610   -8.7395   -6.1645 N   0  0  0  0  0  0  0  0  0  0  0  0
   40.9455   -8.6829   -6.6855 C   0  0  0  0  0  0  0  0  0  0  0  0
   41.6589   -8.5295   -5.6611 O   0  0  0  0  0  0  0  0  0  0  0  0
   40.7689   -7.5829   -7.5039 O   0  0  0  0  0  0  0  0  0  0  0  0
  2  1  1  0
  2  3  2  0
  4  5  1  0
  4  2  1  0
  5  7  1  0
  5  6  1  1
  7  8  2  0
  9 10  1  0
 10 11  1  0
 11 13  1  0
 11 12  1  1
 13 14  1  6
 14  7  1  0
 15 16  2  0
 15 13  1  0
 17 15  1  0
 18 25  1  0
 18 17  1  0
 18 19  1  1
 20 19  1  0
 21 20  2  0
 22 21  1  0
 23 22  1  0
 23 24  2  0
 24 20  1  0
 25 27  1  0
 26 25  2  0
M  END
$$$$
