NIH.pdb
     RDKit          3D

 27 27  0  0  1  0  0  0  0  0999 V2000
   20.2512  -13.0179  -21.7035 N   0  0  0  0  0  0  0  0  0  0  0  0
   19.0941  -12.9988  -20.8690 C   0  0  0  0  0  0  0  0  0  0  0  0
   17.9598  -13.0529  -21.3730 O   0  0  0  0  0  0  0  0  0  0  0  0
   19.2742  -12.9149  -19.4248 C   0  0  0  0  0  0  0  0  0  0  0  0
   20.7424  -12.8944  -19.0773 C   0  0  2  0  0  0  0  0  0  0  0  0
   21.2073  -14.2733  -18.9332 N   0  0  0  0  0  0  0  0  0  0  0  0
   20.9273  -12.1552  -17.8180 C   0  0  0  0  0  0  0  0  0  0  0  0
   20.3113  -12.5440  -16.7696 O   0  0  0  0  0  0  0  0  0  0  0  0
   25.2457   -9.8376  -14.6244 C   0  0  0  0  0  0  0  0  0  0  0  0
   23.7902   -9.6572  -14.9613 C   0  0  0  0  0  0  0  0  0  0  0  0
   23.4895  -10.4803  -16.2064 C   0  0  2  0  0  0  0  0  0  0  0  0
   24.4037   -9.9905  -17.2834 C   0  0  0  0  0  0  0  0  0  0  0  0
   22.0025  -10.3380  -16.5591 C   0  0  2  0  0  0  0  0  0  0  0  0
   21.7813  -11.0363  -17.8070 N   0  0  0  0  0  0  0  0  0  0  0  0
   21.6677   -8.9002  -16.8727 C   0  0  0  0  0  0  0  0  0  0  0  0
   22.3748   -8.2259  -17.6987 O   0  0  0  0  0  0  0  0  0  0  0  0
   20.5778   -8.2214  -16.2923 N   0  0  0  0  0  0  0  0  0  0  0  0
   20.3784   -6.8112  -16.6383 C   0  0  1  0  0  0  0  0  0  0  0  0
   18.9163   -6.4904  -16.7548 C   0  0  0  0  0  0  0  0  0  0  0  0
   18.7630   -5.0413  -16.9962 C   0  0  0  0  0  0  0  0  0  0  0  0
   19.2838   -4.3635  -18.0987 C   0  0  0  0  0  0  0  0  0  0  0  0
   18.9662   -3.0636  -18.0158 N   0  0  0  0  0  0  0  0  0  0  0  0
   18.2579   -2.8889  -16.8938 C   0  0  0  0  0  0  0  0  0  0  0  0
   18.1343   -4.0869  -16.2751 N   0  0  0  0  0  0  0  0  0  0  0  0
   21.0859   -6.0390  -15.5889 C   0  0  0  0  0  0  0  0  0  0  0  0
   21.1439   -6.3761  -14.3786 O   0  0  0  0  0  0  0  0  0  0  0  0
   21.7289   -4.8703  -15.9517 O   0  0  0  0  0  0  0  0  0  0  0  0
  2  1  1  0
  2  3  2  0
  4  5  1  0
  4  2  1  0
  5  7  1  0
  5  6  1  1
  7  8  2  0
  9 10  1  0
 10 11  1  0
 11 13  1  0
 11 12  1  6
 13 14  1  6
 14  7  1  0
 15 16  2  0
 15 13  1  0
 17 15  1  0
 18 25  1  0
 18 17  1  0
 18 19  1  1
 20 19  1  0
 21 20  2  0
 22 21  1  0
 23 22  1  0
 23 24  2  0
 24 20  1  0
 25 27  1  0
 26 25  2  0
M  END
$$$$
