NIH.pdb
     RDKit          3D

 27 27  0  0  1  0  0  0  0  0999 V2000
   18.9328  -12.2958  -17.8703 N   0  0  0  0  0  0  0  0  0  0  0  0
   19.1697  -11.7460  -16.5752 C   0  0  0  0  0  0  0  0  0  0  0  0
   18.5195  -12.1504  -15.5968 O   0  0  0  0  0  0  0  0  0  0  0  0
   20.1832  -10.7084  -16.4302 C   0  0  0  0  0  0  0  0  0  0  0  0
   20.8089  -10.3926  -17.7664 C   0  0  2  0  0  0  0  0  0  0  0  0
   21.6641  -11.5124  -18.1577 N   0  0  0  0  0  0  0  0  0  0  0  0
   21.6014   -9.1581  -17.6457 C   0  0  0  0  0  0  0  0  0  0  0  0
   22.8658   -9.2406  -17.4908 O   0  0  0  0  0  0  0  0  0  0  0  0
   21.9123   -3.8714  -20.2016 C   0  0  0  0  0  0  0  0  0  0  0  0
   22.1342   -4.5737  -18.8894 C   0  0  0  0  0  0  0  0  0  0  0  0
   21.4747   -5.9436  -18.9711 C   0  0  2  0  0  0  0  0  0  0  0  0
   20.0251   -5.7127  -19.2563 C   0  0  0  0  0  0  0  0  0  0  0  0
   21.7234   -6.7030  -17.6605 C   0  0  2  0  0  0  0  0  0  0  0  0
   20.9386   -7.9178  -17.7044 N   0  0  0  0  0  0  0  0  0  0  0  0
   21.1588   -5.9370  -16.4891 C   0  0  0  0  0  0  0  0  0  0  0  0
   19.8954   -5.8007  -16.3406 O   0  0  0  0  0  0  0  0  0  0  0  0
   21.9666   -5.3374  -15.5025 N   0  0  0  0  0  0  0  0  0  0  0  0
   21.3048   -4.7053  -14.3578 C   0  0  1  0  0  0  0  0  0  0  0  0
   21.7479   -5.3350  -13.0688 C   0  0  0  0  0  0  0  0  0  0  0  0
   20.9947   -6.5893  -12.8662 C   0  0  0  0  0  0  0  0  0  0  0  0
   19.9998   -7.0618  -13.7226 C   0  0  0  0  0  0  0  0  0  0  0  0
   19.5192   -8.2220  -13.2531 N   0  0  0  0  0  0  0  0  0  0  0  0
   20.1762   -8.5064  -12.1224 C   0  0  0  0  0  0  0  0  0  0  0  0
   21.0706   -7.5175  -11.8871 N   0  0  0  0  0  0  0  0  0  0  0  0
   21.6174   -3.2599  -14.4644 C   0  0  0  0  0  0  0  0  0  0  0  0
   20.8803   -2.3410  -14.0239 O   0  0  0  0  0  0  0  0  0  0  0  0
   22.7938   -2.8844  -15.0856 O   0  0  0  0  0  0  0  0  0  0  0  0
  2  1  1  0
  2  3  2  0
  4  5  1  0
  4  2  1  0
  5  7  1  0
  5  6  1  1
  7  8  2  0
  9 10  1  0
 10 11  1  0
 11 13  1  0
 11 12  1  1
 13 14  1  6
 14  7  1  0
 15 16  2  0
 15 13  1  0
 17 15  1  0
 18 25  1  0
 18 17  1  0
 18 19  1  1
 20 19  1  0
 21 20  2  0
 22 21  1  0
 23 22  1  0
 23 24  2  0
 24 20  1  0
 25 27  1  0
 26 25  2  0
M  END
$$$$
