NIH.pdb
     RDKit          3D

 27 27  0  0  1  0  0  0  0  0999 V2000
   28.5119  -16.3846  -16.6468 N   0  0  0  0  0  0  0  0  0  0  0  0
   27.0890  -16.4343  -16.5558 C   0  0  0  0  0  0  0  0  0  0  0  0
   26.4100  -15.4322  -16.8360 O   0  0  0  0  0  0  0  0  0  0  0  0
   26.4579  -17.6775  -16.1301 C   0  0  0  0  0  0  0  0  0  0  0  0
   27.5032  -18.7260  -15.8388 C   0  0  2  0  0  0  0  0  0  0  0  0
   28.0463  -19.2089  -17.1077 N   0  0  0  0  0  0  0  0  0  0  0  0
   26.8797  -19.8310  -15.0926 C   0  0  0  0  0  0  0  0  0  0  0  0
   26.6205  -20.9248  -15.6975 O   0  0  0  0  0  0  0  0  0  0  0  0
   28.8936  -21.0330  -10.5415 C   0  0  0  0  0  0  0  0  0  0  0  0
   28.1581  -21.2294  -11.8395 C   0  0  0  0  0  0  0  0  0  0  0  0
   26.7088  -20.8139  -11.6271 C   0  0  2  0  0  0  0  0  0  0  0  0
   26.1022  -21.8118  -10.6933 C   0  0  0  0  0  0  0  0  0  0  0  0
   25.9993  -20.7429  -12.9864 C   0  0  2  0  0  0  0  0  0  0  0  0
   26.5862  -19.6479  -13.7282 N   0  0  0  0  0  0  0  0  0  0  0  0
   24.5552  -20.3412  -12.8098 C   0  0  0  0  0  0  0  0  0  0  0  0
   24.2439  -19.1637  -12.4181 O   0  0  0  0  0  0  0  0  0  0  0  0
   23.4789  -21.2151  -13.0614 N   0  0  0  0  0  0  0  0  0  0  0  0
   22.1768  -20.6299  -13.3934 C   0  0  1  0  0  0  0  0  0  0  0  0
   22.1440  -20.1743  -14.8237 C   0  0  0  0  0  0  0  0  0  0  0  0
   20.8093  -19.6128  -15.1156 C   0  0  0  0  0  0  0  0  0  0  0  0
   19.7905  -19.4639  -14.1743 C   0  0  0  0  0  0  0  0  0  0  0  0
   18.7129  -18.9252  -14.7626 N   0  0  0  0  0  0  0  0  0  0  0  0
   19.0111  -18.7249  -16.0518 C   0  0  0  0  0  0  0  0  0  0  0  0
   20.2814  -19.1413  -16.2668 N   0  0  0  0  0  0  0  0  0  0  0  0
   21.1755  -21.6736  -13.0674 C   0  0  0  0  0  0  0  0  0  0  0  0
   20.1052  -21.4586  -12.4430 O   0  0  0  0  0  0  0  0  0  0  0  0
   21.4223  -22.9724  -13.4716 O   0  0  0  0  0  0  0  0  0  0  0  0
  2  1  1  0
  2  3  2  0
  4  5  1  0
  4  2  1  0
  5  7  1  0
  5  6  1  6
  7  8  2  0
  9 10  1  0
 10 11  1  0
 11 13  1  0
 11 12  1  1
 13 14  1  6
 14  7  1  0
 15 16  2  0
 15 13  1  0
 17 15  1  0
 18 25  1  0
 18 17  1  0
 18 19  1  6
 20 19  1  0
 21 20  2  0
 22 21  1  0
 23 22  1  0
 23 24  2  0
 24 20  1  0
 25 27  1  0
 26 25  2  0
M  END
$$$$
