NIH.pdb
     RDKit          3D

 27 27  0  0  1  0  0  0  0  0999 V2000
   31.6307   -6.8416  -17.0592 N   0  0  0  0  0  0  0  0  0  0  0  0
   30.5325   -6.5937  -17.9356 C   0  0  0  0  0  0  0  0  0  0  0  0
   30.1460   -5.4305  -18.1387 O   0  0  0  0  0  0  0  0  0  0  0  0
   29.8817   -7.7277  -18.5802 C   0  0  0  0  0  0  0  0  0  0  0  0
   30.4678   -9.0252  -18.0804 C   0  0  2  0  0  0  0  0  0  0  0  0
   31.7960   -9.1946  -18.6683 N   0  0  0  0  0  0  0  0  0  0  0  0
   29.5851  -10.1346  -18.4762 C   0  0  0  0  0  0  0  0  0  0  0  0
   29.8236  -10.7661  -19.5597 O   0  0  0  0  0  0  0  0  0  0  0  0
   27.9877  -13.4191  -14.7377 C   0  0  0  0  0  0  0  0  0  0  0  0
   28.3780  -12.9809  -16.1233 C   0  0  0  0  0  0  0  0  0  0  0  0
   27.1839  -12.2708  -16.7465 C   0  0  2  0  0  0  0  0  0  0  0  0
   26.1331  -13.3088  -16.9796 C   0  0  0  0  0  0  0  0  0  0  0  0
   27.6326  -11.5601  -18.0308 C   0  0  2  0  0  0  0  0  0  0  0  0
   28.4992  -10.4675  -17.6449 N   0  0  0  0  0  0  0  0  0  0  0  0
   26.4600  -10.8864  -18.7007 C   0  0  0  0  0  0  0  0  0  0  0  0
   25.7940   -9.9748  -18.0987 O   0  0  0  0  0  0  0  0  0  0  0  0
   26.0323  -11.2071  -20.0045 N   0  0  0  0  0  0  0  0  0  0  0  0
   24.8085  -10.5750  -20.5054 C   0  0  1  0  0  0  0  0  0  0  0  0
   24.7398  -10.6543  -22.0031 C   0  0  0  0  0  0  0  0  0  0  0  0
   23.5402   -9.9270  -22.4654 C   0  0  0  0  0  0  0  0  0  0  0  0
   23.3025   -8.5705  -22.2422 C   0  0  0  0  0  0  0  0  0  0  0  0
   22.1286   -8.2258  -22.7906 N   0  0  0  0  0  0  0  0  0  0  0  0
   21.6079   -9.3204  -23.3580 C   0  0  0  0  0  0  0  0  0  0  0  0
   22.4626  -10.3519  -23.1614 N   0  0  0  0  0  0  0  0  0  0  0  0
   23.6923  -11.2606  -19.8110 C   0  0  0  0  0  0  0  0  0  0  0  0
   22.6706  -10.6783  -19.3652 O   0  0  0  0  0  0  0  0  0  0  0  0
   23.7668  -12.6299  -19.6366 O   0  0  0  0  0  0  0  0  0  0  0  0
  2  1  1  0
  2  3  2  0
  4  5  1  0
  4  2  1  0
  5  7  1  0
  5  6  1  6
  7  8  2  0
  9 10  1  0
 10 11  1  0
 11 13  1  0
 11 12  1  6
 13 14  1  1
 14  7  1  0
 15 16  2  0
 15 13  1  0
 17 15  1  0
 18 25  1  0
 18 17  1  0
 18 19  1  6
 20 19  1  0
 21 20  2  0
 22 21  1  0
 23 22  1  0
 23 24  2  0
 24 20  1  0
 25 27  1  0
 26 25  2  0
M  END
$$$$
