NIH.pdb
     RDKit          3D

 27 27  0  0  1  0  0  0  0  0999 V2000
   23.4922  -22.5539  -18.7248 N   0  0  0  0  0  0  0  0  0  0  0  0
   23.8578  -21.1784  -18.8246 C   0  0  0  0  0  0  0  0  0  0  0  0
   24.4024  -20.7504  -19.8560 O   0  0  0  0  0  0  0  0  0  0  0  0
   23.5794  -20.2968  -17.6976 C   0  0  0  0  0  0  0  0  0  0  0  0
   24.8479  -19.6315  -17.2232 C   0  0  2  0  0  0  0  0  0  0  0  0
   25.6993  -20.6424  -16.5973 N   0  0  0  0  0  0  0  0  0  0  0  0
   24.5041  -18.5778  -16.2548 C   0  0  0  0  0  0  0  0  0  0  0  0
   24.2561  -18.8990  -15.0445 O   0  0  0  0  0  0  0  0  0  0  0  0
   27.7224  -15.0045  -16.3314 C   0  0  0  0  0  0  0  0  0  0  0  0
   26.6626  -15.7190  -15.5372 C   0  0  0  0  0  0  0  0  0  0  0  0
   25.3113  -15.1295  -15.9179 C   0  0  2  0  0  0  0  0  0  0  0  0
   25.1112  -13.9152  -15.0687 C   0  0  0  0  0  0  0  0  0  0  0  0
   24.2229  -16.1942  -15.7234 C   0  0  2  0  0  0  0  0  0  0  0  0
   24.4584  -17.2413  -16.6939 N   0  0  0  0  0  0  0  0  0  0  0  0
   22.8685  -15.6409  -16.0938 C   0  0  0  0  0  0  0  0  0  0  0  0
   22.6002  -15.3135  -17.3011 O   0  0  0  0  0  0  0  0  0  0  0  0
   21.8326  -15.4551  -15.1568 N   0  0  0  0  0  0  0  0  0  0  0  0
   20.5357  -14.9787  -15.6459 C   0  0  1  0  0  0  0  0  0  0  0  0
   19.4147  -15.5270  -14.8111 C   0  0  0  0  0  0  0  0  0  0  0  0
   19.3043  -16.9797  -15.0545 C   0  0  0  0  0  0  0  0  0  0  0  0
   19.4393  -17.5850  -16.3042 C   0  0  0  0  0  0  0  0  0  0  0  0
   19.2843  -18.9108  -16.1783 N   0  0  0  0  0  0  0  0  0  0  0  0
   19.0543  -19.1723  -14.8861 C   0  0  0  0  0  0  0  0  0  0  0  0
   19.0662  -18.0027  -14.2042 N   0  0  0  0  0  0  0  0  0  0  0  0
   20.6265  -13.4988  -15.6407 C   0  0  0  0  0  0  0  0  0  0  0  0
   21.2252  -12.8285  -14.7609 O   0  0  0  0  0  0  0  0  0  0  0  0
   20.0183  -12.7979  -16.6652 O   0  0  0  0  0  0  0  0  0  0  0  0
  2  1  1  0
  2  3  2  0
  4  5  1  0
  4  2  1  0
  5  7  1  0
  5  6  1  1
  7  8  2  0
  9 10  1  0
 10 11  1  0
 11 13  1  0
 11 12  1  1
 13 14  1  6
 14  7  1  0
 15 16  2  0
 15 13  1  0
 17 15  1  0
 18 25  1  0
 18 17  1  0
 18 19  1  1
 20 19  1  0
 21 20  2  0
 22 21  1  0
 23 22  1  0
 23 24  2  0
 24 20  1  0
 25 27  1  0
 26 25  2  0
M  END
$$$$
