NIH.pdb
     RDKit          3D

 27 27  0  0  1  0  0  0  0  0999 V2000
   28.9516  -17.8933  -15.8857 N   0  0  0  0  0  0  0  0  0  0  0  0
   28.1272  -18.7574  -16.6662 C   0  0  0  0  0  0  0  0  0  0  0  0
   28.3019  -18.8469  -17.8930 O   0  0  0  0  0  0  0  0  0  0  0  0
   27.0853  -19.5250  -15.9951 C   0  0  0  0  0  0  0  0  0  0  0  0
   27.6911  -20.4515  -14.9698 C   0  0  2  0  0  0  0  0  0  0  0  0
   28.4476  -21.4899  -15.6683 N   0  0  0  0  0  0  0  0  0  0  0  0
   26.6122  -21.0523  -14.1688 C   0  0  0  0  0  0  0  0  0  0  0  0
   26.0665  -22.1349  -14.5685 O   0  0  0  0  0  0  0  0  0  0  0  0
   26.9476  -20.4310   -8.8405 C   0  0  0  0  0  0  0  0  0  0  0  0
   26.7116  -21.0559  -10.1888 C   0  0  0  0  0  0  0  0  0  0  0  0
   25.3855  -20.5333  -10.7244 C   0  0  2  0  0  0  0  0  0  0  0  0
   24.3211  -21.0036   -9.7855 C   0  0  0  0  0  0  0  0  0  0  0  0
   25.1907  -21.0305  -12.1634 C   0  0  2  0  0  0  0  0  0  0  0  0
   26.2122  -20.4122  -12.9808 N   0  0  0  0  0  0  0  0  0  0  0  0
   23.8932  -20.5105  -12.7325 C   0  0  0  0  0  0  0  0  0  0  0  0
   23.7027  -19.2557  -12.8943 O   0  0  0  0  0  0  0  0  0  0  0  0
   22.8311  -21.3528  -13.1171 N   0  0  0  0  0  0  0  0  0  0  0  0
   21.6095  -20.7314  -13.6363 C   0  0  1  0  0  0  0  0  0  0  0  0
   21.2531  -21.2943  -14.9818 C   0  0  0  0  0  0  0  0  0  0  0  0
   22.0584  -20.6106  -16.0142 C   0  0  0  0  0  0  0  0  0  0  0  0
   23.0739  -21.2160  -16.7548 C   0  0  0  0  0  0  0  0  0  0  0  0
   23.6023  -20.3226  -17.6034 N   0  0  0  0  0  0  0  0  0  0  0  0
   22.9559  -19.1639  -17.4283 C   0  0  0  0  0  0  0  0  0  0  0  0
   22.0200  -19.3374  -16.4654 N   0  0  0  0  0  0  0  0  0  0  0  0
   20.5768  -20.9507  -12.5954 C   0  0  0  0  0  0  0  0  0  0  0  0
   20.6909  -21.7659  -11.6445 O   0  0  0  0  0  0  0  0  0  0  0  0
   19.4074  -20.2167  -12.6626 O   0  0  0  0  0  0  0  0  0  0  0  0
  2  1  1  0
  2  3  2  0
  4  5  1  0
  4  2  1  0
  5  7  1  0
  5  6  1  6
  7  8  2  0
  9 10  1  0
 10 11  1  0
 11 13  1  0
 11 12  1  1
 13 14  1  6
 14  7  1  0
 15 16  2  0
 15 13  1  0
 17 15  1  0
 18 25  1  0
 18 17  1  0
 18 19  1  6
 20 19  1  0
 21 20  2  0
 22 21  1  0
 23 22  1  0
 23 24  2  0
 24 20  1  0
 25 27  1  0
 26 25  2  0
M  END
$$$$
