NIH.pdb
     RDKit          3D

 27 27  0  0  1  0  0  0  0  0999 V2000
   29.3313  -20.3430  -16.8832 N   0  0  0  0  0  0  0  0  0  0  0  0
   28.0218  -19.8996  -17.2355 C   0  0  0  0  0  0  0  0  0  0  0  0
   27.8682  -19.0665  -18.1444 O   0  0  0  0  0  0  0  0  0  0  0  0
   26.8802  -20.4427  -16.5097 C   0  0  0  0  0  0  0  0  0  0  0  0
   27.3441  -21.3915  -15.4320 C   0  0  2  0  0  0  0  0  0  0  0  0
   27.7627  -22.6435  -16.0609 N   0  0  0  0  0  0  0  0  0  0  0  0
   26.2350  -21.6326  -14.4948 C   0  0  0  0  0  0  0  0  0  0  0  0
   25.3777  -22.5398  -14.7622 O   0  0  0  0  0  0  0  0  0  0  0  0
   27.1966  -20.7033   -9.2562 C   0  0  0  0  0  0  0  0  0  0  0  0
   26.7011  -21.3554  -10.5186 C   0  0  0  0  0  0  0  0  0  0  0  0
   25.5106  -20.5536  -11.0268 C   0  0  2  0  0  0  0  0  0  0  0  0
   24.4442  -20.6484   -9.9830 C   0  0  0  0  0  0  0  0  0  0  0  0
   25.0764  -21.1044  -12.3921 C   0  0  2  0  0  0  0  0  0  0  0  0
   26.1519  -20.8519  -13.3266 N   0  0  0  0  0  0  0  0  0  0  0  0
   23.9146  -20.3108  -12.9383 C   0  0  0  0  0  0  0  0  0  0  0  0
   23.9383  -19.0317  -12.9458 O   0  0  0  0  0  0  0  0  0  0  0  0
   22.7548  -20.9120  -13.4665 N   0  0  0  0  0  0  0  0  0  0  0  0
   21.6850  -20.0379  -13.9558 C   0  0  1  0  0  0  0  0  0  0  0  0
   21.5317  -20.1614  -15.4442 C   0  0  0  0  0  0  0  0  0  0  0  0
   20.3830  -19.3393  -15.8760 C   0  0  0  0  0  0  0  0  0  0  0  0
   20.4310  -17.9609  -16.0852 C   0  0  0  0  0  0  0  0  0  0  0  0
   19.2233  -17.5245  -16.4710 N   0  0  0  0  0  0  0  0  0  0  0  0
   18.4041  -18.5819  -16.5151 C   0  0  0  0  0  0  0  0  0  0  0  0
   19.1059  -19.6822  -16.1547 N   0  0  0  0  0  0  0  0  0  0  0  0
   20.4752  -20.4202  -13.1888 C   0  0  0  0  0  0  0  0  0  0  0  0
   20.2161  -21.5917  -12.8115 O   0  0  0  0  0  0  0  0  0  0  0  0
   19.5648  -19.4335  -12.8595 O   0  0  0  0  0  0  0  0  0  0  0  0
  2  1  1  0
  2  3  2  0
  4  5  1  0
  4  2  1  0
  5  7  1  0
  5  6  1  6
  7  8  2  0
  9 10  1  0
 10 11  1  0
 11 13  1  0
 11 12  1  1
 13 14  1  6
 14  7  1  0
 15 16  2  0
 15 13  1  0
 17 15  1  0
 18 25  1  0
 18 17  1  0
 18 19  1  6
 20 19  1  0
 21 20  2  0
 22 21  1  0
 23 22  1  0
 23 24  2  0
 24 20  1  0
 25 27  1  0
 26 25  2  0
M  END
$$$$
