NIH.pdb
     RDKit          3D

 27 27  0  0  1  0  0  0  0  0999 V2000
   18.4643  -14.9537  -19.1031 N   0  0  0  0  0  0  0  0  0  0  0  0
   19.6907  -14.2324  -18.9967 C   0  0  0  0  0  0  0  0  0  0  0  0
   20.4909  -14.2177  -19.9471 O   0  0  0  0  0  0  0  0  0  0  0  0
   19.9785  -13.5203  -17.7577 C   0  0  0  0  0  0  0  0  0  0  0  0
   21.4412  -13.6421  -17.4078 C   0  0  2  0  0  0  0  0  0  0  0  0
   21.6808  -14.9769  -16.8607 N   0  0  0  0  0  0  0  0  0  0  0  0
   21.7849  -12.6105  -16.4156 C   0  0  0  0  0  0  0  0  0  0  0  0
   21.2736  -12.6727  -15.2476 O   0  0  0  0  0  0  0  0  0  0  0  0
   26.6888  -11.5085  -15.4270 C   0  0  0  0  0  0  0  0  0  0  0  0
   25.1977  -11.6675  -15.3015 C   0  0  0  0  0  0  0  0  0  0  0  0
   24.5424  -10.4026  -15.8390 C   0  0  2  0  0  0  0  0  0  0  0  0
   25.0297   -9.2678  -14.9960 C   0  0  0  0  0  0  0  0  0  0  0  0
   23.0172  -10.5718  -15.8088 C   0  0  2  0  0  0  0  0  0  0  0  0
   22.6707  -11.5812  -16.7859 N   0  0  0  0  0  0  0  0  0  0  0  0
   22.3354   -9.3212  -16.3076 C   0  0  0  0  0  0  0  0  0  0  0  0
   22.6599   -8.7988  -17.4295 O   0  0  0  0  0  0  0  0  0  0  0  0
   21.3179   -8.6626  -15.5890 N   0  0  0  0  0  0  0  0  0  0  0  0
   20.7639   -7.4273  -16.1505 C   0  0  1  0  0  0  0  0  0  0  0  0
   19.3073   -7.2920  -15.8124 C   0  0  0  0  0  0  0  0  0  0  0  0
   18.8028   -6.0221  -16.3731 C   0  0  0  0  0  0  0  0  0  0  0  0
   18.8204   -5.6935  -17.7288 C   0  0  0  0  0  0  0  0  0  0  0  0
   18.2904   -4.4740  -17.9006 N   0  0  0  0  0  0  0  0  0  0  0  0
   17.9340   -4.0123  -16.6961 C   0  0  0  0  0  0  0  0  0  0  0  0
   18.2442   -4.9497  -15.7697 N   0  0  0  0  0  0  0  0  0  0  0  0
   21.6125   -6.3328  -15.6212 C   0  0  0  0  0  0  0  0  0  0  0  0
   22.0403   -6.2756  -14.4399 O   0  0  0  0  0  0  0  0  0  0  0  0
   21.9645   -5.3018  -16.4721 O   0  0  0  0  0  0  0  0  0  0  0  0
  2  1  1  0
  2  3  2  0
  4  5  1  0
  4  2  1  0
  5  7  1  0
  5  6  1  1
  7  8  2  0
  9 10  1  0
 10 11  1  0
 11 13  1  0
 11 12  1  1
 13 14  1  6
 14  7  1  0
 15 16  2  0
 15 13  1  0
 17 15  1  0
 18 25  1  0
 18 17  1  0
 18 19  1  1
 20 19  1  0
 21 20  2  0
 22 21  1  0
 23 22  1  0
 23 24  2  0
 24 20  1  0
 25 27  1  0
 26 25  2  0
M  END
$$$$
