NIH.pdb
     RDKit          3D

 27 27  0  0  1  0  0  0  0  0999 V2000
   21.9808  -15.9308  -20.1590 N   0  0  0  0  0  0  0  0  0  0  0  0
   21.3393  -14.6565  -20.1455 C   0  0  0  0  0  0  0  0  0  0  0  0
   20.7131  -14.2620  -21.1434 O   0  0  0  0  0  0  0  0  0  0  0  0
   21.4360  -13.8371  -18.9437 C   0  0  0  0  0  0  0  0  0  0  0  0
   22.3076  -14.5131  -17.9140 C   0  0  2  0  0  0  0  0  0  0  0  0
   21.6094  -15.6979  -17.4169 N   0  0  0  0  0  0  0  0  0  0  0  0
   22.5691  -13.5711  -16.8136 C   0  0  0  0  0  0  0  0  0  0  0  0
   21.7530  -13.5134  -15.8338 O   0  0  0  0  0  0  0  0  0  0  0  0
   27.4952  -13.4156  -15.2585 C   0  0  0  0  0  0  0  0  0  0  0  0
   25.9924  -13.3608  -15.2036 C   0  0  0  0  0  0  0  0  0  0  0  0
   25.5596  -11.9450  -15.5592 C   0  0  2  0  0  0  0  0  0  0  0  0
   26.0418  -11.0533  -14.4600 C   0  0  0  0  0  0  0  0  0  0  0  0
   24.0361  -11.9138  -15.7439 C   0  0  2  0  0  0  0  0  0  0  0  0
   23.7164  -12.7579  -16.8749 N   0  0  0  0  0  0  0  0  0  0  0  0
   23.5817  -10.5379  -16.1659 C   0  0  0  0  0  0  0  0  0  0  0  0
   23.8663  -10.0789  -17.3257 O   0  0  0  0  0  0  0  0  0  0  0  0
   22.8290   -9.6882  -15.3311 N   0  0  0  0  0  0  0  0  0  0  0  0
   22.3130   -8.4401  -15.9003 C   0  0  1  0  0  0  0  0  0  0  0  0
   21.1046   -8.7002  -16.7527 C   0  0  0  0  0  0  0  0  0  0  0  0
   20.5539   -7.4074  -17.2078 C   0  0  0  0  0  0  0  0  0  0  0  0
   19.3057   -6.9054  -16.8387 C   0  0  0  0  0  0  0  0  0  0  0  0
   19.1119   -5.7142  -17.4227 N   0  0  0  0  0  0  0  0  0  0  0  0
   20.1982   -5.4387  -18.1544 C   0  0  0  0  0  0  0  0  0  0  0  0
   21.0726   -6.4642  -18.0248 N   0  0  0  0  0  0  0  0  0  0  0  0
   22.0572   -7.5495  -14.7430 C   0  0  0  0  0  0  0  0  0  0  0  0
   21.9640   -7.9436  -13.5523 O   0  0  0  0  0  0  0  0  0  0  0  0
   21.9105   -6.1945  -14.9742 O   0  0  0  0  0  0  0  0  0  0  0  0
  2  1  1  0
  2  3  2  0
  4  5  1  0
  4  2  1  0
  5  7  1  0
  5  6  1  1
  7  8  2  0
  9 10  1  0
 10 11  1  0
 11 13  1  0
 11 12  1  1
 13 14  1  6
 14  7  1  0
 15 16  2  0
 15 13  1  0
 17 15  1  0
 18 25  1  0
 18 17  1  0
 18 19  1  1
 20 19  1  0
 21 20  2  0
 22 21  1  0
 23 22  1  0
 23 24  2  0
 24 20  1  0
 25 27  1  0
 26 25  2  0
M  END
$$$$
