NIH.pdb
     RDKit          3D

 27 27  0  0  1  0  0  0  0  0999 V2000
   44.1790  -10.7250   -1.3212 N   0  0  0  0  0  0  0  0  0  0  0  0
   43.1218   -9.8831   -1.7785 C   0  0  0  0  0  0  0  0  0  0  0  0
   42.2279   -9.5218   -0.9949 O   0  0  0  0  0  0  0  0  0  0  0  0
   43.1166   -9.4619   -3.1741 C   0  0  0  0  0  0  0  0  0  0  0  0
   44.1643  -10.2155   -3.9558 C   0  0  2  0  0  0  0  0  0  0  0  0
   45.4669   -9.6005   -3.7038 N   0  0  0  0  0  0  0  0  0  0  0  0
   43.8335  -10.1503   -5.3885 C   0  0  0  0  0  0  0  0  0  0  0  0
   44.2536   -9.1644   -6.0821 O   0  0  0  0  0  0  0  0  0  0  0  0
   44.8354  -12.4307   -8.4475 C   0  0  0  0  0  0  0  0  0  0  0  0
   43.7762  -13.3134   -7.8447 C   0  0  0  0  0  0  0  0  0  0  0  0
   42.4634  -12.5422   -7.8465 C   0  0  2  0  0  0  0  0  0  0  0  0
   41.9226  -12.6063   -9.2391 C   0  0  0  0  0  0  0  0  0  0  0  0
   42.7185  -11.1095   -7.3582 C   0  0  2  0  0  0  0  0  0  0  0  0
   43.0601  -11.1815   -5.9539 N   0  0  0  0  0  0  0  0  0  0  0  0
   41.4426  -10.3039   -7.3902 C   0  0  0  0  0  0  0  0  0  0  0  0
   40.3900  -10.7162   -6.7912 O   0  0  0  0  0  0  0  0  0  0  0  0
   41.3294   -9.0715   -8.0639 N   0  0  0  0  0  0  0  0  0  0  0  0
   40.0446   -8.3686   -8.0073 C   0  0  1  0  0  0  0  0  0  0  0  0
   39.8203   -7.7724   -6.6477 C   0  0  0  0  0  0  0  0  0  0  0  0
   38.5820   -6.9677   -6.6773 C   0  0  0  0  0  0  0  0  0  0  0  0
   37.6963   -6.9181   -7.7541 C   0  0  0  0  0  0  0  0  0  0  0  0
   36.6779   -6.0977   -7.4584 N   0  0  0  0  0  0  0  0  0  0  0  0
   36.8850   -5.6208   -6.2252 C   0  0  0  0  0  0  0  0  0  0  0  0
   38.0386   -6.1474   -5.7510 N   0  0  0  0  0  0  0  0  0  0  0  0
   40.0856   -7.3733   -9.1055 C   0  0  0  0  0  0  0  0  0  0  0  0
   41.0798   -6.6497   -9.3694 O   0  0  0  0  0  0  0  0  0  0  0  0
   38.9642   -7.2217   -9.8994 O   0  0  0  0  0  0  0  0  0  0  0  0
  2  1  1  0
  2  3  2  0
  4  5  1  0
  4  2  1  0
  5  7  1  0
  5  6  1  6
  7  8  2  0
  9 10  1  0
 10 11  1  0
 11 13  1  0
 11 12  1  6
 13 14  1  1
 14  7  1  0
 15 16  2  0
 15 13  1  0
 17 15  1  0
 18 25  1  0
 18 17  1  0
 18 19  1  1
 20 19  1  0
 21 20  2  0
 22 21  1  0
 23 22  1  0
 23 24  2  0
 24 20  1  0
 25 27  1  0
 26 25  2  0
M  END
$$$$
