MAH.pdb
     RDKit          3D

 24 24  0  0  1  0  0  0  0  0999 V2000
    6.2888  -10.7835   27.3436 C   0  0  0  0  0  0  0  0  0  0  0  0
    7.1831  -12.3107   27.0649 S   0  0  0  0  0  0  0  0  0  0  0  0
    6.1618  -13.7609   26.8765 C   0  0  0  0  0  0  0  0  0  0  0  0
    6.8062  -14.9261   26.2143 C   0  0  0  0  0  0  0  0  0  0  0  0
    7.7302  -14.6102   25.0916 C   0  0  2  0  0  0  0  0  0  0  0  0
    7.4163  -13.3706   24.4216 N   0  0  0  0  0  0  0  0  0  0  0  0
    7.7260  -15.7617   24.1473 C   0  0  0  0  0  0  0  0  0  0  0  0
    8.0162  -16.8936   24.6140 O   0  0  0  0  0  0  0  0  0  0  0  0
    6.3415  -16.8149   21.0124 C   0  0  0  0  0  0  0  0  0  0  0  0
    7.5458  -16.7928   21.8996 C   0  0  2  0  0  0  0  0  0  0  0  0
    7.4170  -15.6465   22.7752 N   0  0  0  0  0  0  0  0  0  0  0  0
    8.8294  -16.8047   21.1820 C   0  0  0  0  0  0  0  0  0  0  0  0
    9.0278  -17.7250   20.3494 O   0  0  0  0  0  0  0  0  0  0  0  0
    9.8518  -15.8375   21.3776 N   0  0  0  0  0  0  0  0  0  0  0  0
   11.1094  -15.8612   20.6299 C   0  0  1  0  0  0  0  0  0  0  0  0
   11.3406  -14.4491   20.1232 C   0  0  0  0  0  0  0  0  0  0  0  0
   10.1530  -13.9624   19.3788 C   0  0  0  0  0  0  0  0  0  0  0  0
    9.0067  -14.6415   19.0511 C   0  0  0  0  0  0  0  0  0  0  0  0
    8.1995  -13.8336   18.3725 N   0  0  0  0  0  0  0  0  0  0  0  0
    8.8241  -12.6435   18.2654 C   0  0  0  0  0  0  0  0  0  0  0  0
   10.0250  -12.7101   18.8796 N   0  0  0  0  0  0  0  0  0  0  0  0
   12.2155  -16.3755   21.4394 C   0  0  0  0  0  0  0  0  0  0  0  0
   13.3720  -16.4819   20.9166 O   0  0  0  0  0  0  0  0  0  0  0  0
   12.1082  -16.7652   22.7583 O   0  0  0  0  0  0  0  0  0  0  0  0
  2  3  1  0
  2  1  1  0
  4  5  1  0
  4  3  1  0
  5  6  1  6
  7  5  1  0
  7  8  2  0
 10  9  1  6
 10 12  1  0
 10 11  1  0
 11  7  1  0
 12 14  1  0
 13 12  2  0
 14 15  1  0
 15 22  1  0
 15 16  1  1
 17 16  1  0
 18 17  2  0
 19 18  1  0
 20 19  1  0
 20 21  2  0
 21 17  1  0
 22 23  2  0
 22 24  1  0
M  END
$$$$
