MAH.pdb
     RDKit          3D

 24 24  0  0  1  0  0  0  0  0999 V2000
    7.9229  -13.3128   16.8140 C   0  0  0  0  0  0  0  0  0  0  0  0
    7.4959  -12.6870   18.4376 S   0  0  0  0  0  0  0  0  0  0  0  0
    7.6007  -13.8806   19.7590 C   0  0  0  0  0  0  0  0  0  0  0  0
    8.7719  -14.7958   19.7146 C   0  0  0  0  0  0  0  0  0  0  0  0
    8.7977  -15.8734   20.7403 C   0  0  2  0  0  0  0  0  0  0  0  0
    7.6639  -16.7640   20.6654 N   0  0  0  0  0  0  0  0  0  0  0  0
    8.9086  -15.2366   22.0818 C   0  0  0  0  0  0  0  0  0  0  0  0
    9.9022  -14.4926   22.2887 O   0  0  0  0  0  0  0  0  0  0  0  0
    6.7100  -14.7268   25.0037 C   0  0  0  0  0  0  0  0  0  0  0  0
    8.0360  -14.6205   24.3194 C   0  0  2  0  0  0  0  0  0  0  0  0
    7.9677  -15.4242   23.1166 N   0  0  0  0  0  0  0  0  0  0  0  0
    9.1860  -14.9776   25.1639 C   0  0  0  0  0  0  0  0  0  0  0  0
    9.3831  -14.3001   26.2038 O   0  0  0  0  0  0  0  0  0  0  0  0
   10.0810  -16.0413   24.8696 N   0  0  0  0  0  0  0  0  0  0  0  0
   11.1969  -16.3948   25.7476 C   0  0  1  0  0  0  0  0  0  0  0  0
   10.5886  -16.8530   27.0608 C   0  0  0  0  0  0  0  0  0  0  0  0
   10.4162  -15.7038   27.9833 C   0  0  0  0  0  0  0  0  0  0  0  0
   10.4978  -14.3619   27.7088 C   0  0  0  0  0  0  0  0  0  0  0  0
   10.2856  -13.6741   28.8254 N   0  0  0  0  0  0  0  0  0  0  0  0
   10.0692  -14.5692   29.8103 C   0  0  0  0  0  0  0  0  0  0  0  0
   10.1468  -15.8194   29.3053 N   0  0  0  0  0  0  0  0  0  0  0  0
   12.0767  -17.3927   25.1364 C   0  0  0  0  0  0  0  0  0  0  0  0
   13.1354  -17.7473   25.7492 O   0  0  0  0  0  0  0  0  0  0  0  0
   11.8491  -17.9992   23.9185 O   0  0  0  0  0  0  0  0  0  0  0  0
  2  3  1  0
  2  1  1  0
  4  5  1  0
  4  3  1  0
  5  6  1  1
  7  5  1  0
  7  8  2  0
 10  9  1  1
 10 12  1  0
 10 11  1  0
 11  7  1  0
 12 14  1  0
 13 12  2  0
 14 15  1  0
 15 22  1  0
 15 16  1  1
 17 16  1  0
 18 17  2  0
 19 18  1  0
 20 19  1  0
 20 21  2  0
 21 17  1  0
 22 23  2  0
 22 24  1  0
M  END
$$$$
