MAH.pdb
     RDKit          3D

 24 24  0  0  1  0  0  0  0  0999 V2000
    8.5842  -11.6712   19.6265 C   0  0  0  0  0  0  0  0  0  0  0  0
    7.4021  -12.8037   18.8986 S   0  0  0  0  0  0  0  0  0  0  0  0
    7.6956  -14.5285   19.2457 C   0  0  0  0  0  0  0  0  0  0  0  0
    8.3365  -14.8266   20.5540 C   0  0  0  0  0  0  0  0  0  0  0  0
    7.6145  -15.7879   21.4308 C   0  0  2  0  0  0  0  0  0  0  0  0
    6.2078  -15.8981   21.1252 N   0  0  0  0  0  0  0  0  0  0  0  0
    7.8395  -15.3858   22.8468 C   0  0  0  0  0  0  0  0  0  0  0  0
    8.3274  -14.2445   23.0536 O   0  0  0  0  0  0  0  0  0  0  0  0
    7.2281  -15.4549   26.1792 C   0  0  0  0  0  0  0  0  0  0  0  0
    8.2210  -16.0199   25.2133 C   0  0  2  0  0  0  0  0  0  0  0  0
    7.5366  -16.2103   23.9512 N   0  0  0  0  0  0  0  0  0  0  0  0
    8.8889  -17.2458   25.6758 C   0  0  0  0  0  0  0  0  0  0  0  0
    8.2563  -18.3281   25.5862 O   0  0  0  0  0  0  0  0  0  0  0  0
   10.2032  -17.2730   26.2152 N   0  0  0  0  0  0  0  0  0  0  0  0
   10.8219  -18.5009   26.7157 C   0  0  1  0  0  0  0  0  0  0  0  0
   12.2490  -18.5109   26.1982 C   0  0  0  0  0  0  0  0  0  0  0  0
   12.2647  -18.5896   24.7167 C   0  0  0  0  0  0  0  0  0  0  0  0
   11.2139  -18.7812   23.8553 C   0  0  0  0  0  0  0  0  0  0  0  0
   11.6696  -18.7956   22.6074 N   0  0  0  0  0  0  0  0  0  0  0  0
   13.0043  -18.6144   22.6679 C   0  0  0  0  0  0  0  0  0  0  0  0
   13.3818  -18.4866   23.9582 N   0  0  0  0  0  0  0  0  0  0  0  0
   10.7327  -18.6016   28.1735 C   0  0  0  0  0  0  0  0  0  0  0  0
   11.1950  -19.6360   28.7551 O   0  0  0  0  0  0  0  0  0  0  0  0
   10.1749  -17.6431   28.9939 O   0  0  0  0  0  0  0  0  0  0  0  0
  2  3  1  0
  2  1  1  0
  4  5  1  0
  4  3  1  0
  5  6  1  6
  7  5  1  0
  7  8  2  0
 10  9  1  1
 10 12  1  0
 10 11  1  0
 11  7  1  0
 12 14  1  0
 13 12  2  0
 14 15  1  0
 15 22  1  0
 15 16  1  1
 17 16  1  0
 18 17  2  0
 19 18  1  0
 20 19  1  0
 20 21  2  0
 21 17  1  0
 22 23  2  0
 22 24  1  0
M  END
$$$$
