MAH.pdb
     RDKit          3D

 24 24  0  0  1  0  0  0  0  0999 V2000
    9.3508  -11.4815   19.7545 C   0  0  0  0  0  0  0  0  0  0  0  0
    7.7136  -12.1775   19.9665 S   0  0  0  0  0  0  0  0  0  0  0  0
    7.5991  -13.9365   19.6937 C   0  0  0  0  0  0  0  0  0  0  0  0
    8.8519  -14.6076   19.2563 C   0  0  0  0  0  0  0  0  0  0  0  0
    8.7459  -16.0631   18.9660 C   0  0  2  0  0  0  0  0  0  0  0  0
    7.5872  -16.4077   18.1768 N   0  0  0  0  0  0  0  0  0  0  0  0
    8.7677  -16.7988   20.2606 C   0  0  0  0  0  0  0  0  0  0  0  0
    7.6589  -17.0982   20.7745 O   0  0  0  0  0  0  0  0  0  0  0  0
   10.9281  -19.0454   22.0081 C   0  0  0  0  0  0  0  0  0  0  0  0
    9.8920  -17.9735   22.1323 C   0  0  2  0  0  0  0  0  0  0  0  0
    9.9538  -17.1707   20.9286 N   0  0  0  0  0  0  0  0  0  0  0  0
   10.0035  -17.1591   23.3519 C   0  0  0  0  0  0  0  0  0  0  0  0
   10.8046  -16.1909   23.3397 O   0  0  0  0  0  0  0  0  0  0  0  0
    9.2585  -17.4060   24.5365 N   0  0  0  0  0  0  0  0  0  0  0  0
    9.5073  -16.6856   25.7855 C   0  0  1  0  0  0  0  0  0  0  0  0
    8.1491  -16.2978   26.3417 C   0  0  0  0  0  0  0  0  0  0  0  0
    7.6291  -15.0919   25.6512 C   0  0  0  0  0  0  0  0  0  0  0  0
    8.2555  -14.2935   24.7276 C   0  0  0  0  0  0  0  0  0  0  0  0
    7.4340  -13.3127   24.3697 N   0  0  0  0  0  0  0  0  0  0  0  0
    6.2877  -13.4807   25.0595 C   0  0  0  0  0  0  0  0  0  0  0  0
    6.3954  -14.5703   25.8501 N   0  0  0  0  0  0  0  0  0  0  0  0
   10.3126  -17.4749   26.7192 C   0  0  0  0  0  0  0  0  0  0  0  0
   10.6134  -16.9801   27.8535 O   0  0  0  0  0  0  0  0  0  0  0  0
   10.7862  -18.7458   26.4673 O   0  0  0  0  0  0  0  0  0  0  0  0
  2  3  1  0
  2  1  1  0
  4  5  1  0
  4  3  1  0
  5  6  1  1
  7  5  1  0
  7  8  2  0
 10  9  1  6
 10 12  1  0
 10 11  1  0
 11  7  1  0
 12 14  1  0
 13 12  2  0
 14 15  1  0
 15 22  1  0
 15 16  1  1
 17 16  1  0
 18 17  2  0
 19 18  1  0
 20 19  1  0
 20 21  2  0
 21 17  1  0
 22 23  2  0
 22 24  1  0
M  END
$$$$
