MAH.pdb
     RDKit          3D

 24 24  0  0  1  0  0  0  0  0999 V2000
    3.3124  -21.8663   23.3593 C   0  0  0  0  0  0  0  0  0  0  0  0
    4.4862  -22.3564   22.0976 S   0  0  0  0  0  0  0  0  0  0  0  0
    5.5193  -21.0422   21.4754 C   0  0  0  0  0  0  0  0  0  0  0  0
    6.0398  -20.0900   22.4921 C   0  0  0  0  0  0  0  0  0  0  0  0
    6.8406  -18.9500   21.9695 C   0  0  2  0  0  0  0  0  0  0  0  0
    7.7572  -19.3265   20.9195 N   0  0  0  0  0  0  0  0  0  0  0  0
    7.5485  -18.3145   23.1152 C   0  0  0  0  0  0  0  0  0  0  0  0
    8.6652  -18.7931   23.4426 O   0  0  0  0  0  0  0  0  0  0  0  0
    7.0708  -15.4387   25.4093 C   0  0  0  0  0  0  0  0  0  0  0  0
    7.7541  -16.7003   24.9860 C   0  0  2  0  0  0  0  0  0  0  0  0
    7.0352  -17.2181   23.8403 N   0  0  0  0  0  0  0  0  0  0  0  0
    7.8969  -17.7017   26.0536 C   0  0  0  0  0  0  0  0  0  0  0  0
    7.2095  -18.7504   25.9702 O   0  0  0  0  0  0  0  0  0  0  0  0
    8.7653  -17.5488   27.1679 N   0  0  0  0  0  0  0  0  0  0  0  0
    9.5324  -18.6634   27.7249 C   0  0  1  0  0  0  0  0  0  0  0  0
    9.3826  -19.8218   26.7554 C   0  0  0  0  0  0  0  0  0  0  0  0
    8.1225  -20.5599   27.0174 C   0  0  0  0  0  0  0  0  0  0  0  0
    7.5407  -20.8663   28.2218 C   0  0  0  0  0  0  0  0  0  0  0  0
    6.4207  -21.5469   28.0049 N   0  0  0  0  0  0  0  0  0  0  0  0
    6.2846  -21.6765   26.6697 C   0  0  0  0  0  0  0  0  0  0  0  0
    7.3239  -21.0742   26.0523 N   0  0  0  0  0  0  0  0  0  0  0  0
   10.9266  -18.2940   27.9764 C   0  0  0  0  0  0  0  0  0  0  0  0
   11.7249  -19.1651   28.4518 O   0  0  0  0  0  0  0  0  0  0  0  0
   11.4642  -17.0468   27.7346 O   0  0  0  0  0  0  0  0  0  0  0  0
  2  3  1  0
  2  1  1  0
  4  5  1  0
  4  3  1  0
  5  6  1  6
  7  5  1  0
  7  8  2  0
 10  9  1  1
 10 12  1  0
 10 11  1  0
 11  7  1  0
 12 14  1  0
 13 12  2  0
 14 15  1  0
 15 22  1  0
 15 16  1  6
 17 16  1  0
 18 17  2  0
 19 18  1  0
 20 19  1  0
 20 21  2  0
 21 17  1  0
 22 23  2  0
 22 24  1  0
M  END
$$$$
