MAH.pdb
     RDKit          3D

 24 24  0  0  1  0  0  0  0  0999 V2000
    7.4952  -11.6562   27.1564 C   0  0  0  0  0  0  0  0  0  0  0  0
    7.6456  -12.0922   25.4252 S   0  0  0  0  0  0  0  0  0  0  0  0
    7.1408  -13.7538   25.0178 C   0  0  0  0  0  0  0  0  0  0  0  0
    6.7550  -13.9850   23.6004 C   0  0  0  0  0  0  0  0  0  0  0  0
    7.8572  -14.3706   22.6782 C   0  0  2  0  0  0  0  0  0  0  0  0
    7.4226  -14.5686   21.3158 N   0  0  0  0  0  0  0  0  0  0  0  0
    8.5186  -15.5870   23.2264 C   0  0  0  0  0  0  0  0  0  0  0  0
    7.8946  -16.2395   24.1029 O   0  0  0  0  0  0  0  0  0  0  0  0
   11.1180  -17.9132   22.2257 C   0  0  0  0  0  0  0  0  0  0  0  0
   10.3243  -17.2832   23.3263 C   0  0  2  0  0  0  0  0  0  0  0  0
    9.7918  -16.0366   22.8165 N   0  0  0  0  0  0  0  0  0  0  0  0
   11.0665  -17.1001   24.5827 C   0  0  0  0  0  0  0  0  0  0  0  0
   11.8389  -16.1124   24.6693 O   0  0  0  0  0  0  0  0  0  0  0  0
   10.9582  -17.9740   25.6978 N   0  0  0  0  0  0  0  0  0  0  0  0
   11.7897  -17.8294   26.8931 C   0  0  1  0  0  0  0  0  0  0  0  0
   10.8415  -17.6134   28.0587 C   0  0  0  0  0  0  0  0  0  0  0  0
   10.4992  -16.1758   28.1915 C   0  0  0  0  0  0  0  0  0  0  0  0
   10.8244  -15.1347   27.3589 C   0  0  0  0  0  0  0  0  0  0  0  0
   10.3253  -14.0075   27.8540 N   0  0  0  0  0  0  0  0  0  0  0  0
    9.6840  -14.3234   28.9972 C   0  0  0  0  0  0  0  0  0  0  0  0
    9.7838  -15.6524   29.2152 N   0  0  0  0  0  0  0  0  0  0  0  0
   12.6839  -18.9739   27.0771 C   0  0  0  0  0  0  0  0  0  0  0  0
   13.5293  -18.9560   28.0295 O   0  0  0  0  0  0  0  0  0  0  0  0
   12.6879  -20.1025   26.2840 O   0  0  0  0  0  0  0  0  0  0  0  0
  2  3  1  0
  2  1  1  0
  4  5  1  0
  4  3  1  0
  5  6  1  6
  7  5  1  0
  7  8  2  0
 10  9  1  6
 10 12  1  0
 10 11  1  0
 11  7  1  0
 12 14  1  0
 13 12  2  0
 14 15  1  0
 15 22  1  0
 15 16  1  1
 17 16  1  0
 18 17  2  0
 19 18  1  0
 20 19  1  0
 20 21  2  0
 21 17  1  0
 22 23  2  0
 22 24  1  0
M  END
$$$$
