MAH.pdb
     RDKit          3D

 24 24  0  0  1  0  0  0  0  0999 V2000
    5.9459  -11.5694   27.3193 C   0  0  0  0  0  0  0  0  0  0  0  0
    7.5288  -11.6552   26.4846 S   0  0  0  0  0  0  0  0  0  0  0  0
    7.9668  -13.2672   25.8590 C   0  0  0  0  0  0  0  0  0  0  0  0
    7.1508  -14.4027   26.3652 C   0  0  0  0  0  0  0  0  0  0  0  0
    7.5842  -15.7601   25.9367 C   0  0  2  0  0  0  0  0  0  0  0  0
    9.0163  -15.9402   25.9636 N   0  0  0  0  0  0  0  0  0  0  0  0
    7.0226  -16.0223   24.5827 C   0  0  0  0  0  0  0  0  0  0  0  0
    5.7755  -15.9261   24.4452 O   0  0  0  0  0  0  0  0  0  0  0  0
    6.1684  -15.3709   22.0697 C   0  0  0  0  0  0  0  0  0  0  0  0
    7.2121  -16.4400   22.1461 C   0  0  2  0  0  0  0  0  0  0  0  0
    7.8093  -16.3681   23.4635 N   0  0  0  0  0  0  0  0  0  0  0  0
    8.2178  -16.3850   21.0744 C   0  0  0  0  0  0  0  0  0  0  0  0
    7.8588  -16.7131   19.9155 O   0  0  0  0  0  0  0  0  0  0  0  0
    9.5656  -15.9832   21.2769 N   0  0  0  0  0  0  0  0  0  0  0  0
   10.5697  -16.0371   20.2139 C   0  0  1  0  0  0  0  0  0  0  0  0
   10.9061  -14.5996   19.8602 C   0  0  0  0  0  0  0  0  0  0  0  0
    9.6966  -13.8843   19.3840 C   0  0  0  0  0  0  0  0  0  0  0  0
    9.1768  -13.8255   18.1155 C   0  0  0  0  0  0  0  0  0  0  0  0
    8.0862  -13.0669   18.1254 N   0  0  0  0  0  0  0  0  0  0  0  0
    7.9074  -12.6416   19.3923 C   0  0  0  0  0  0  0  0  0  0  0  0
    8.8903  -13.1371   20.1748 N   0  0  0  0  0  0  0  0  0  0  0  0
   11.7383  -16.8264   20.6071 C   0  0  0  0  0  0  0  0  0  0  0  0
   11.7889  -17.3211   21.7796 O   0  0  0  0  0  0  0  0  0  0  0  0
   12.8198  -17.0877   19.7916 O   0  0  0  0  0  0  0  0  0  0  0  0
  2  3  1  0
  2  1  1  0
  4  5  1  0
  4  3  1  0
  5  6  1  6
  7  5  1  0
  7  8  2  0
 10  9  1  6
 10 12  1  0
 10 11  1  0
 11  7  1  0
 12 14  1  0
 13 12  2  0
 14 15  1  0
 15 22  1  0
 15 16  1  1
 17 16  1  0
 18 17  2  0
 19 18  1  0
 20 19  1  0
 20 21  2  0
 21 17  1  0
 22 23  2  0
 22 24  1  0
M  END
$$$$
