MAH.pdb
     RDKit          3D

 24 24  0  0  1  0  0  0  0  0999 V2000
    8.8496  -11.3072   20.8028 C   0  0  0  0  0  0  0  0  0  0  0  0
    7.7277  -11.8676   19.5234 S   0  0  0  0  0  0  0  0  0  0  0  0
    7.7017  -13.6318   19.2609 C   0  0  0  0  0  0  0  0  0  0  0  0
    7.9025  -14.4705   20.4723 C   0  0  0  0  0  0  0  0  0  0  0  0
    7.9006  -15.9425   20.2549 C   0  0  2  0  0  0  0  0  0  0  0  0
    6.6980  -16.4271   19.6201 N   0  0  0  0  0  0  0  0  0  0  0  0
    8.1358  -16.6071   21.5665 C   0  0  0  0  0  0  0  0  0  0  0  0
    7.1586  -16.6940   22.3545 O   0  0  0  0  0  0  0  0  0  0  0  0
   10.4730  -19.0100   22.9264 C   0  0  0  0  0  0  0  0  0  0  0  0
    9.4930  -17.9090   23.1823 C   0  0  2  0  0  0  0  0  0  0  0  0
    9.3827  -17.1360   21.9626 N   0  0  0  0  0  0  0  0  0  0  0  0
    9.8123  -17.0699   24.3472 C   0  0  0  0  0  0  0  0  0  0  0  0
   10.6284  -16.1279   24.1857 O   0  0  0  0  0  0  0  0  0  0  0  0
    9.2511  -17.2651   25.6379 N   0  0  0  0  0  0  0  0  0  0  0  0
    9.6779  -16.4929   26.8052 C   0  0  1  0  0  0  0  0  0  0  0  0
    8.4251  -15.8751   27.3995 C   0  0  0  0  0  0  0  0  0  0  0  0
    7.9209  -14.7832   26.5306 C   0  0  0  0  0  0  0  0  0  0  0  0
    8.6351  -13.8626   25.8059 C   0  0  0  0  0  0  0  0  0  0  0  0
    7.7909  -13.0561   25.1721 N   0  0  0  0  0  0  0  0  0  0  0  0
    6.5428  -13.4567   25.4882 C   0  0  0  0  0  0  0  0  0  0  0  0
    6.6097  -14.5169   26.3221 N   0  0  0  0  0  0  0  0  0  0  0  0
   10.4279  -17.3137   27.7577 C   0  0  0  0  0  0  0  0  0  0  0  0
   10.4809  -18.5745   27.5856 O   0  0  0  0  0  0  0  0  0  0  0  0
   11.1018  -16.8230   28.8568 O   0  0  0  0  0  0  0  0  0  0  0  0
  2  3  1  0
  2  1  1  0
  4  5  1  0
  4  3  1  0
  5  6  1  1
  7  5  1  0
  7  8  2  0
 10  9  1  6
 10 12  1  0
 10 11  1  0
 11  7  1  0
 12 14  1  0
 13 12  2  0
 14 15  1  0
 15 22  1  0
 15 16  1  1
 17 16  1  0
 18 17  2  0
 19 18  1  0
 20 19  1  0
 20 21  2  0
 21 17  1  0
 22 23  2  0
 22 24  1  0
M  END
$$$$
