MAH.pdb
     RDKit          3D

 24 24  0  0  1  0  0  0  0  0999 V2000
    5.4922  -10.8534   27.2957 C   0  0  0  0  0  0  0  0  0  0  0  0
    6.4335  -12.3775   27.2691 S   0  0  0  0  0  0  0  0  0  0  0  0
    7.6636  -12.4835   25.9817 C   0  0  0  0  0  0  0  0  0  0  0  0
    7.2566  -13.2190   24.7551 C   0  0  0  0  0  0  0  0  0  0  0  0
    7.6072  -14.6644   24.7138 C   0  0  2  0  0  0  0  0  0  0  0  0
    8.6589  -15.0261   25.6344 N   0  0  0  0  0  0  0  0  0  0  0  0
    7.9592  -15.0182   23.3108 C   0  0  0  0  0  0  0  0  0  0  0  0
    8.6861  -14.2110   22.6756 O   0  0  0  0  0  0  0  0  0  0  0  0
    7.8800  -15.4071   20.4602 C   0  0  0  0  0  0  0  0  0  0  0  0
    8.0699  -16.5708   21.3809 C   0  0  2  0  0  0  0  0  0  0  0  0
    7.5236  -16.1970   22.6690 N   0  0  0  0  0  0  0  0  0  0  0  0
    9.4580  -17.0463   21.4809 C   0  0  0  0  0  0  0  0  0  0  0  0
    9.7887  -18.0415   20.7882 O   0  0  0  0  0  0  0  0  0  0  0  0
   10.4402  -16.4449   22.3132 N   0  0  0  0  0  0  0  0  0  0  0  0
   11.7934  -16.9849   22.4479 C   0  0  1  0  0  0  0  0  0  0  0  0
   12.7463  -15.8132   22.2944 C   0  0  0  0  0  0  0  0  0  0  0  0
   12.8567  -15.4156   20.8692 C   0  0  0  0  0  0  0  0  0  0  0  0
   12.3446  -16.0413   19.7606 C   0  0  0  0  0  0  0  0  0  0  0  0
   12.6849  -15.3544   18.6755 N   0  0  0  0  0  0  0  0  0  0  0  0
   13.4108  -14.2947   19.0855 C   0  0  0  0  0  0  0  0  0  0  0  0
   13.5232  -14.3214   20.4310 N   0  0  0  0  0  0  0  0  0  0  0  0
   11.9673  -17.7130   23.7061 C   0  0  0  0  0  0  0  0  0  0  0  0
   13.0709  -18.3063   23.9342 O   0  0  0  0  0  0  0  0  0  0  0  0
   11.0097  -17.8131   24.6940 O   0  0  0  0  0  0  0  0  0  0  0  0
  2  3  1  0
  2  1  1  0
  4  5  1  0
  4  3  1  0
  5  6  1  1
  7  5  1  0
  7  8  2  0
 10  9  1  6
 10 12  1  0
 10 11  1  0
 11  7  1  0
 12 14  1  0
 13 12  2  0
 14 15  1  0
 15 22  1  0
 15 16  1  1
 17 16  1  0
 18 17  2  0
 19 18  1  0
 20 19  1  0
 20 21  2  0
 21 17  1  0
 22 23  2  0
 22 24  1  0
M  END
$$$$
