MAH.pdb
     RDKit          3D

 24 24  0  0  1  0  0  0  0  0999 V2000
    6.9276  -11.9456   20.5371 C   0  0  0  0  0  0  0  0  0  0  0  0
    6.9117  -12.6637   18.8959 S   0  0  0  0  0  0  0  0  0  0  0  0
    8.2104  -13.8436   18.5748 C   0  0  0  0  0  0  0  0  0  0  0  0
    9.3858  -13.7772   19.4832 C   0  0  0  0  0  0  0  0  0  0  0  0
   10.3699  -14.8864   19.3598 C   0  0  2  0  0  0  0  0  0  0  0  0
    9.9737  -15.9021   18.4135 N   0  0  0  0  0  0  0  0  0  0  0  0
   10.5995  -15.4580   20.7156 C   0  0  0  0  0  0  0  0  0  0  0  0
   10.8184  -14.6496   21.6547 O   0  0  0  0  0  0  0  0  0  0  0  0
   10.3456  -18.7207   22.4223 C   0  0  0  0  0  0  0  0  0  0  0  0
   10.8617  -17.3195   22.3323 C   0  0  2  0  0  0  0  0  0  0  0  0
   10.5837  -16.8413   20.9938 N   0  0  0  0  0  0  0  0  0  0  0  0
   12.2791  -17.1695   22.6946 C   0  0  0  0  0  0  0  0  0  0  0  0
   12.6322  -17.5320   23.8450 O   0  0  0  0  0  0  0  0  0  0  0  0
   13.2656  -16.6404   21.8195 N   0  0  0  0  0  0  0  0  0  0  0  0
   14.6806  -16.5650   22.1844 C   0  0  1  0  0  0  0  0  0  0  0  0
   15.1741  -15.2023   21.7326 C   0  0  0  0  0  0  0  0  0  0  0  0
   15.0245  -15.0555   20.2638 C   0  0  0  0  0  0  0  0  0  0  0  0
   14.4724  -15.9324   19.3645 C   0  0  0  0  0  0  0  0  0  0  0  0
   14.5480  -15.4118   18.1445 N   0  0  0  0  0  0  0  0  0  0  0  0
   15.1450  -14.2085   18.2605 C   0  0  0  0  0  0  0  0  0  0  0  0
   15.4424  -13.9783   19.5576 N   0  0  0  0  0  0  0  0  0  0  0  0
   14.8897  -16.8138   23.6119 C   0  0  0  0  0  0  0  0  0  0  0  0
   15.5328  -17.8514   23.9749 O   0  0  0  0  0  0  0  0  0  0  0  0
   14.4366  -15.9957   24.6259 O   0  0  0  0  0  0  0  0  0  0  0  0
  2  3  1  0
  2  1  1  0
  4  5  1  0
  4  3  1  0
  5  6  1  6
  7  5  1  0
  7  8  2  0
 10  9  1  6
 10 12  1  0
 10 11  1  0
 11  7  1  0
 12 14  1  0
 13 12  2  0
 14 15  1  0
 15 22  1  0
 15 16  1  1
 17 16  1  0
 18 17  2  0
 19 18  1  0
 20 19  1  0
 20 21  2  0
 21 17  1  0
 22 23  2  0
 22 24  1  0
M  END
$$$$
