MAH.pdb
     RDKit          3D

 24 24  0  0  1  0  0  0  0  0999 V2000
    9.6337  -11.7801   20.6446 C   0  0  0  0  0  0  0  0  0  0  0  0
    8.8901  -12.3337   19.1116 S   0  0  0  0  0  0  0  0  0  0  0  0
    7.5834  -13.5339   19.2958 C   0  0  0  0  0  0  0  0  0  0  0  0
    7.4628  -14.5340   18.2019 C   0  0  0  0  0  0  0  0  0  0  0  0
    8.5284  -15.5709   18.1448 C   0  0  2  0  0  0  0  0  0  0  0  0
    8.4108  -16.4524   17.0076 N   0  0  0  0  0  0  0  0  0  0  0  0
    8.5133  -16.3251   19.4288 C   0  0  0  0  0  0  0  0  0  0  0  0
    7.4449  -16.9111   19.7428 O   0  0  0  0  0  0  0  0  0  0  0  0
   10.5838  -18.4472   21.0500 C   0  0  0  0  0  0  0  0  0  0  0  0
    9.6168  -17.3588   21.3938 C   0  0  2  0  0  0  0  0  0  0  0  0
    9.6222  -16.4131   20.2970 N   0  0  0  0  0  0  0  0  0  0  0  0
    9.8671  -16.7105   22.6900 C   0  0  0  0  0  0  0  0  0  0  0  0
   10.7386  -15.8062   22.7352 O   0  0  0  0  0  0  0  0  0  0  0  0
    9.1808  -17.0491   23.8873 N   0  0  0  0  0  0  0  0  0  0  0  0
    9.5077  -16.4433   25.1785 C   0  0  1  0  0  0  0  0  0  0  0  0
    8.1994  -16.2993   25.9348 C   0  0  0  0  0  0  0  0  0  0  0  0
    7.4737  -15.0832   25.4923 C   0  0  0  0  0  0  0  0  0  0  0  0
    7.8536  -14.1456   24.5653 C   0  0  0  0  0  0  0  0  0  0  0  0
    6.9124  -13.2122   24.4776 N   0  0  0  0  0  0  0  0  0  0  0  0
    5.9346  -13.5489   25.3429 C   0  0  0  0  0  0  0  0  0  0  0  0
    6.2680  -14.6964   25.9721 N   0  0  0  0  0  0  0  0  0  0  0  0
   10.5155  -17.2181   25.9048 C   0  0  0  0  0  0  0  0  0  0  0  0
   10.9090  -16.8119   27.0460 O   0  0  0  0  0  0  0  0  0  0  0  0
   11.0908  -18.3844   25.4449 O   0  0  0  0  0  0  0  0  0  0  0  0
  2  3  1  0
  2  1  1  0
  4  5  1  0
  4  3  1  0
  5  6  1  6
  7  5  1  0
  7  8  2  0
 10  9  1  6
 10 12  1  0
 10 11  1  0
 11  7  1  0
 12 14  1  0
 13 12  2  0
 14 15  1  0
 15 22  1  0
 15 16  1  1
 17 16  1  0
 18 17  2  0
 19 18  1  0
 20 19  1  0
 20 21  2  0
 21 17  1  0
 22 23  2  0
 22 24  1  0
M  END
$$$$
