MAH.pdb
     RDKit          3D

 24 24  0  0  1  0  0  0  0  0999 V2000
    9.3991  -12.0459   19.5510 C   0  0  0  0  0  0  0  0  0  0  0  0
    7.6218  -12.2009   19.3866 S   0  0  0  0  0  0  0  0  0  0  0  0
    7.0168  -13.8749   19.2708 C   0  0  0  0  0  0  0  0  0  0  0  0
    7.8341  -14.9087   19.9599 C   0  0  0  0  0  0  0  0  0  0  0  0
    7.3579  -16.3122   19.8280 C   0  0  2  0  0  0  0  0  0  0  0  0
    6.1697  -16.4412   19.0183 N   0  0  0  0  0  0  0  0  0  0  0  0
    7.1536  -16.8649   21.1957 C   0  0  0  0  0  0  0  0  0  0  0  0
    6.3200  -16.2822   21.9365 O   0  0  0  0  0  0  0  0  0  0  0  0
    7.7006  -19.9196   23.0716 C   0  0  0  0  0  0  0  0  0  0  0  0
    7.6375  -18.4250   23.0610 C   0  0  2  0  0  0  0  0  0  0  0  0
    7.8393  -17.9933   21.6934 N   0  0  0  0  0  0  0  0  0  0  0  0
    8.5665  -17.7710   23.9949 C   0  0  0  0  0  0  0  0  0  0  0  0
    9.2081  -16.7725   23.5814 O   0  0  0  0  0  0  0  0  0  0  0  0
    8.7768  -18.2041   25.3318 N   0  0  0  0  0  0  0  0  0  0  0  0
    9.3930  -17.3492   26.3469 C   0  0  1  0  0  0  0  0  0  0  0  0
    8.4989  -16.1308   26.4904 C   0  0  0  0  0  0  0  0  0  0  0  0
    9.0553  -15.1927   27.4962 C   0  0  0  0  0  0  0  0  0  0  0  0
   10.2046  -15.3093   28.2367 C   0  0  0  0  0  0  0  0  0  0  0  0
   10.3251  -14.2474   29.0257 N   0  0  0  0  0  0  0  0  0  0  0  0
    9.2598  -13.4544   28.7931 C   0  0  0  0  0  0  0  0  0  0  0  0
    8.4725  -14.0244   27.8554 N   0  0  0  0  0  0  0  0  0  0  0  0
    9.6054  -18.0645   27.6065 C   0  0  0  0  0  0  0  0  0  0  0  0
    8.7825  -18.9729   27.9524 O   0  0  0  0  0  0  0  0  0  0  0  0
   10.6517  -17.8317   28.4748 O   0  0  0  0  0  0  0  0  0  0  0  0
  2  3  1  0
  2  1  1  0
  4  5  1  0
  4  3  1  0
  5  6  1  6
  7  5  1  0
  7  8  2  0
 10  9  1  6
 10 12  1  0
 10 11  1  0
 11  7  1  0
 12 14  1  0
 13 12  2  0
 14 15  1  0
 15 22  1  0
 15 16  1  1
 17 16  1  0
 18 17  2  0
 19 18  1  0
 20 19  1  0
 20 21  2  0
 21 17  1  0
 22 23  2  0
 22 24  1  0
M  END
$$$$
