MAH.pdb
     RDKit          3D

 24 24  0  0  1  0  0  0  0  0999 V2000
    8.3429  -11.8585   19.2821 C   0  0  0  0  0  0  0  0  0  0  0  0
    7.4308  -13.3406   18.8564 S   0  0  0  0  0  0  0  0  0  0  0  0
    7.5879  -14.6845   20.0186 C   0  0  0  0  0  0  0  0  0  0  0  0
    8.9745  -15.0198   20.4385 C   0  0  0  0  0  0  0  0  0  0  0  0
    9.1068  -16.1065   21.4463 C   0  0  2  0  0  0  0  0  0  0  0  0
    8.1655  -17.1842   21.2548 N   0  0  0  0  0  0  0  0  0  0  0  0
    8.9822  -15.5022   22.8016 C   0  0  0  0  0  0  0  0  0  0  0  0
    9.8323  -14.6338   23.1282 O   0  0  0  0  0  0  0  0  0  0  0  0
    6.5555  -14.8315   25.3304 C   0  0  0  0  0  0  0  0  0  0  0  0
    7.9591  -15.2650   25.0476 C   0  0  2  0  0  0  0  0  0  0  0  0
    7.9722  -15.8510   23.7233 N   0  0  0  0  0  0  0  0  0  0  0  0
    8.5333  -16.1635   26.0605 C   0  0  0  0  0  0  0  0  0  0  0  0
    7.8136  -16.4778   27.0417 O   0  0  0  0  0  0  0  0  0  0  0  0
    9.8500  -16.6930   25.9902 N   0  0  0  0  0  0  0  0  0  0  0  0
   10.1615  -18.0755   26.3544 C   0  0  1  0  0  0  0  0  0  0  0  0
    9.2442  -18.9597   25.5290 C   0  0  0  0  0  0  0  0  0  0  0  0
    8.2284  -19.6074   26.3950 C   0  0  0  0  0  0  0  0  0  0  0  0
    8.0450  -19.4782   27.7486 C   0  0  0  0  0  0  0  0  0  0  0  0
    7.0250  -20.2413   28.1258 N   0  0  0  0  0  0  0  0  0  0  0  0
    6.5569  -20.8562   27.0209 C   0  0  0  0  0  0  0  0  0  0  0  0
    7.2879  -20.4749   25.9514 N   0  0  0  0  0  0  0  0  0  0  0  0
   11.5814  -18.3811   26.1707 C   0  0  0  0  0  0  0  0  0  0  0  0
   12.2473  -17.7406   25.2941 O   0  0  0  0  0  0  0  0  0  0  0  0
   12.2792  -19.3309   26.8876 O   0  0  0  0  0  0  0  0  0  0  0  0
  2  3  1  0
  2  1  1  0
  4  5  1  0
  4  3  1  0
  5  6  1  6
  7  5  1  0
  7  8  2  0
 10  9  1  1
 10 12  1  0
 10 11  1  0
 11  7  1  0
 12 14  1  0
 13 12  2  0
 14 15  1  0
 15 22  1  0
 15 16  1  6
 17 16  1  0
 18 17  2  0
 19 18  1  0
 20 19  1  0
 20 21  2  0
 21 17  1  0
 22 23  2  0
 22 24  1  0
M  END
$$$$
