MAH.pdb
     RDKit          3D

 24 24  0  0  1  0  0  0  0  0999 V2000
    8.4592  -12.7091   18.3248 C   0  0  0  0  0  0  0  0  0  0  0  0
    9.1171  -12.8978   19.9805 S   0  0  0  0  0  0  0  0  0  0  0  0
    8.2899  -14.1152   20.9881 C   0  0  0  0  0  0  0  0  0  0  0  0
    7.5873  -15.1984   20.2503 C   0  0  0  0  0  0  0  0  0  0  0  0
    6.9533  -16.2531   21.0866 C   0  0  2  0  0  0  0  0  0  0  0  0
    6.0418  -15.7297   22.0763 N   0  0  0  0  0  0  0  0  0  0  0  0
    8.0345  -17.0654   21.7102 C   0  0  0  0  0  0  0  0  0  0  0  0
    8.4334  -16.7182   22.8520 O   0  0  0  0  0  0  0  0  0  0  0  0
    9.6478  -20.3150   21.3349 C   0  0  0  0  0  0  0  0  0  0  0  0
    9.7306  -18.8738   21.7273 C   0  0  2  0  0  0  0  0  0  0  0  0
    8.6243  -18.1883   21.0919 N   0  0  0  0  0  0  0  0  0  0  0  0
   11.0235  -18.2373   21.4334 C   0  0  0  0  0  0  0  0  0  0  0  0
   11.3562  -18.1140   20.2278 O   0  0  0  0  0  0  0  0  0  0  0  0
   11.9117  -17.7566   22.4330 N   0  0  0  0  0  0  0  0  0  0  0  0
   13.2207  -17.1865   22.1126 C   0  0  1  0  0  0  0  0  0  0  0  0
   13.0529  -15.6778   22.1263 C   0  0  0  0  0  0  0  0  0  0  0  0
   12.4984  -15.2043   20.8342 C   0  0  0  0  0  0  0  0  0  0  0  0
   12.0541  -15.9438   19.7672 C   0  0  0  0  0  0  0  0  0  0  0  0
   11.6458  -15.1222   18.8064 N   0  0  0  0  0  0  0  0  0  0  0  0
   11.8270  -13.8633   19.2542 C   0  0  0  0  0  0  0  0  0  0  0  0
   12.3502  -13.9007   20.4987 N   0  0  0  0  0  0  0  0  0  0  0  0
   14.2612  -17.6628   23.0257 C   0  0  0  0  0  0  0  0  0  0  0  0
   14.6073  -18.8880   22.9897 O   0  0  0  0  0  0  0  0  0  0  0  0
   14.9177  -16.8742   23.9477 O   0  0  0  0  0  0  0  0  0  0  0  0
  2  3  1  0
  2  1  1  0
  4  5  1  0
  4  3  1  0
  5  6  1  1
  7  5  1  0
  7  8  2  0
 10  9  1  6
 10 12  1  0
 10 11  1  0
 11  7  1  0
 12 14  1  0
 13 12  2  0
 14 15  1  0
 15 22  1  0
 15 16  1  1
 17 16  1  0
 18 17  2  0
 19 18  1  0
 20 19  1  0
 20 21  2  0
 21 17  1  0
 22 23  2  0
 22 24  1  0
M  END
$$$$
