TIF.pdb
     RDKit          3D

 27 27  0  0  1  0  0  0  0  0999 V2000
   24.3103  -18.1389  -16.1412 C   0  0  0  0  0  0  0  0  0  0  0  0
   24.8289  -18.7476  -17.4078 C   0  0  1  0  0  0  0  0  0  0  0  0
   24.8392  -17.7315  -18.3831 O   0  0  0  0  0  0  0  0  0  0  0  0
   26.2431  -19.2477  -17.2932 C   0  0  2  0  0  0  0  0  0  0  0  0
   26.5643  -19.9275  -18.5316 N   0  0  0  0  0  0  0  0  0  0  0  0
   26.4694  -20.1514  -16.1750 C   0  0  0  0  0  0  0  0  0  0  0  0
   26.0475  -21.3363  -16.1260 O   0  0  0  0  0  0  0  0  0  0  0  0
   30.3788  -21.3021  -11.5100 C   0  0  0  0  0  0  0  0  0  0  0  0
   28.9892  -21.2606  -12.0357 C   0  0  0  0  0  0  0  0  0  0  0  0
   28.7735  -20.5190  -13.3005 C   0  0  2  0  0  0  0  0  0  0  0  0
   29.2635  -19.0844  -13.2401 C   0  0  0  0  0  0  0  0  0  0  0  0
   27.3762  -20.5008  -13.8452 C   0  0  2  0  0  0  0  0  0  0  0  0
   27.2108  -19.7078  -15.0425 N   0  0  0  0  0  0  0  0  0  0  0  0
   26.3583  -20.1185  -12.8089 C   0  0  0  0  0  0  0  0  0  0  0  0
   26.1050  -18.9015  -12.5742 O   0  0  0  0  0  0  0  0  0  0  0  0
   25.6520  -21.0910  -12.0644 N   0  0  0  0  0  0  0  0  0  0  0  0
   24.7082  -20.7568  -10.9902 C   0  0  1  0  0  0  0  0  0  0  0  0
   23.3700  -21.3422  -11.2391 C   0  0  0  0  0  0  0  0  0  0  0  0
   22.3519  -20.3089  -11.4311 C   0  0  0  0  0  0  0  0  0  0  0  0
   22.0701  -19.7805  -12.6654 C   0  0  0  0  0  0  0  0  0  0  0  0
   21.0907  -18.7937  -12.8284 C   0  0  0  0  0  0  0  0  0  0  0  0
   20.4001  -18.3468  -11.7345 C   0  0  0  0  0  0  0  0  0  0  0  0
   20.6628  -18.8583  -10.4916 C   0  0  0  0  0  0  0  0  0  0  0  0
   21.6416  -19.8404  -10.3486 C   0  0  0  0  0  0  0  0  0  0  0  0
   25.2460  -21.1373   -9.6769 C   0  0  0  0  0  0  0  0  0  0  0  0
   24.8201  -20.4662   -8.5462 O   0  0  0  0  0  0  0  0  0  0  0  0
   26.0777  -22.0528   -9.5599 O   0  0  0  0  0  0  0  0  0  0  0  0
  2  3  1  0
  2  1  1  1
  4  5  1  6
  4  2  1  0
  6  4  1  0
  7  6  2  0
  9  8  1  0
 10  9  1  0
 10 11  1  1
 12 10  1  0
 12 13  1  6
 13  6  1  0
 14 12  1  0
 15 14  2  0
 16 14  1  0
 17 16  1  0
 17 18  1  6
 18 19  1  0
 19 20  2  0
 20 21  1  0
 22 21  2  0
 23 22  1  0
 24 19  1  0
 24 23  2  0
 25 17  1  0
 25 26  1  0
 27 25  2  0
M  END
$$$$
