TIF.pdb
     RDKit          3D

 27 27  0  0  1  0  0  0  0  0999 V2000
   19.2074  -17.9110  -13.1179 C   0  0  0  0  0  0  0  0  0  0  0  0
   20.2857  -18.8228  -12.6181 C   0  0  1  0  0  0  0  0  0  0  0  0
   19.9229  -19.2209  -11.3169 O   0  0  0  0  0  0  0  0  0  0  0  0
   20.4250  -20.0818  -13.4296 C   0  0  2  0  0  0  0  0  0  0  0  0
   19.2073  -20.8469  -13.2555 N   0  0  0  0  0  0  0  0  0  0  0  0
   21.5679  -20.9058  -13.0642 C   0  0  0  0  0  0  0  0  0  0  0  0
   21.5123  -21.8811  -12.2705 O   0  0  0  0  0  0  0  0  0  0  0  0
   23.8771  -24.2061  -14.9879 C   0  0  0  0  0  0  0  0  0  0  0  0
   24.0603  -22.8109  -15.4663 C   0  0  0  0  0  0  0  0  0  0  0  0
   24.7687  -21.8788  -14.5577 C   0  0  2  0  0  0  0  0  0  0  0  0
   26.1191  -22.4010  -14.1044 C   0  0  0  0  0  0  0  0  0  0  0  0
   24.0232  -21.4239  -13.3383 C   0  0  2  0  0  0  0  0  0  0  0  0
   22.8505  -20.6258  -13.6168 N   0  0  0  0  0  0  0  0  0  0  0  0
   24.9120  -20.7345  -12.3429 C   0  0  0  0  0  0  0  0  0  0  0  0
   25.2501  -19.5270  -12.5103 O   0  0  0  0  0  0  0  0  0  0  0  0
   25.3996  -21.3990  -11.1941 N   0  0  0  0  0  0  0  0  0  0  0  0
   26.4082  -20.8233  -10.2956 C   0  0  1  0  0  0  0  0  0  0  0  0
   26.2606  -21.3338   -8.9125 C   0  0  0  0  0  0  0  0  0  0  0  0
   27.1825  -20.6732   -7.9880 C   0  0  0  0  0  0  0  0  0  0  0  0
   26.8990  -19.4590   -7.4155 C   0  0  0  0  0  0  0  0  0  0  0  0
   27.7937  -18.8442   -6.5317 C   0  0  0  0  0  0  0  0  0  0  0  0
   28.9752  -19.4667   -6.2324 C   0  0  0  0  0  0  0  0  0  0  0  0
   29.2816  -20.6791   -6.7907 C   0  0  0  0  0  0  0  0  0  0  0  0
   28.3784  -21.2761   -7.6687 C   0  0  0  0  0  0  0  0  0  0  0  0
   27.7642  -21.0289  -10.8224 C   0  0  0  0  0  0  0  0  0  0  0  0
   28.6103  -19.9455  -10.9668 O   0  0  0  0  0  0  0  0  0  0  0  0
   28.1690  -22.1594  -11.1414 O   0  0  0  0  0  0  0  0  0  0  0  0
  2  3  1  0
  2  1  1  6
  4  5  1  1
  4  2  1  0
  6  4  1  0
  7  6  2  0
  9  8  1  0
 10  9  1  0
 10 11  1  1
 12 10  1  0
 12 13  1  6
 13  6  1  0
 14 12  1  0
 15 14  2  0
 16 14  1  0
 17 16  1  0
 17 18  1  1
 18 19  1  0
 19 20  2  0
 20 21  1  0
 22 21  2  0
 23 22  1  0
 24 19  1  0
 24 23  2  0
 25 17  1  0
 25 26  1  0
 27 25  2  0
M  END
$$$$
