TIF.pdb
     RDKit          3D

 27 27  0  0  1  0  0  0  0  0999 V2000
   24.5677  -14.0435  -15.9167 C   0  0  0  0  0  0  0  0  0  0  0  0
   24.0303  -12.6466  -15.9802 C   0  0  1  0  0  0  0  0  0  0  0  0
   25.0590  -11.7859  -15.5506 O   0  0  0  0  0  0  0  0  0  0  0  0
   23.6606  -12.2131  -17.3725 C   0  0  2  0  0  0  0  0  0  0  0  0
   24.8786  -12.1870  -18.1563 N   0  0  0  0  0  0  0  0  0  0  0  0
   23.0151  -10.9104  -17.4420 C   0  0  0  0  0  0  0  0  0  0  0  0
   23.6286   -9.8249  -17.6147 O   0  0  0  0  0  0  0  0  0  0  0  0
   18.8925  -11.1022  -19.9774 C   0  0  0  0  0  0  0  0  0  0  0  0
   19.6400   -9.9021  -19.5190 C   0  0  0  0  0  0  0  0  0  0  0  0
   19.5836   -9.5905  -18.0712 C   0  0  2  0  0  0  0  0  0  0  0  0
   18.8461   -8.2997  -17.7687 C   0  0  0  0  0  0  0  0  0  0  0  0
   20.8899   -9.5525  -17.3352 C   0  0  2  0  0  0  0  0  0  0  0  0
   21.6003  -10.8113  -17.3110 N   0  0  0  0  0  0  0  0  0  0  0  0
   20.7541   -8.9915  -15.9485 C   0  0  0  0  0  0  0  0  0  0  0  0
   20.1210   -9.6269  -15.0564 O   0  0  0  0  0  0  0  0  0  0  0  0
   21.3213   -7.7471  -15.5896 N   0  0  0  0  0  0  0  0  0  0  0  0
   21.2282   -7.1766  -14.2397 C   0  0  1  0  0  0  0  0  0  0  0  0
   22.5141   -6.5778  -13.8114 C   0  0  0  0  0  0  0  0  0  0  0  0
   22.7914   -5.3252  -14.5150 C   0  0  0  0  0  0  0  0  0  0  0  0
   22.2838   -4.1222  -14.0939 C   0  0  0  0  0  0  0  0  0  0  0  0
   22.5626   -2.9343  -14.7799 C   0  0  0  0  0  0  0  0  0  0  0  0
   23.3576   -2.9734  -15.8933 C   0  0  0  0  0  0  0  0  0  0  0  0
   23.8764   -4.1617  -16.3340 C   0  0  0  0  0  0  0  0  0  0  0  0
   23.5879   -5.3345  -15.6380 C   0  0  0  0  0  0  0  0  0  0  0  0
   20.1126   -6.2253  -14.1438 C   0  0  0  0  0  0  0  0  0  0  0  0
   19.5462   -5.7213  -15.2995 O   0  0  0  0  0  0  0  0  0  0  0  0
   19.6650   -5.8632  -13.0428 O   0  0  0  0  0  0  0  0  0  0  0  0
  2  3  1  0
  2  1  1  6
  4  5  1  6
  4  2  1  0
  6  4  1  0
  7  6  2  0
  9  8  1  0
 10  9  1  0
 10 11  1  6
 12 10  1  0
 12 13  1  1
 13  6  1  0
 14 12  1  0
 15 14  2  0
 16 14  1  0
 17 16  1  0
 17 18  1  6
 18 19  1  0
 19 20  2  0
 20 21  1  0
 22 21  2  0
 23 22  1  0
 24 19  1  0
 24 23  2  0
 25 17  1  0
 25 26  1  0
 27 25  2  0
M  END
$$$$
