TIF.pdb
     RDKit          3D

 27 27  0  0  1  0  0  0  0  0999 V2000
   21.6178  -16.6383  -13.9380 C   0  0  0  0  0  0  0  0  0  0  0  0
   22.4346  -17.7396  -13.3346 C   0  0  1  0  0  0  0  0  0  0  0  0
   21.5450  -18.7759  -12.9907 O   0  0  0  0  0  0  0  0  0  0  0  0
   23.4351  -18.3312  -14.2895 C   0  0  2  0  0  0  0  0  0  0  0  0
   22.6985  -18.8441  -15.4267 N   0  0  0  0  0  0  0  0  0  0  0  0
   24.2469  -19.3973  -13.7211 C   0  0  0  0  0  0  0  0  0  0  0  0
   23.9351  -20.6164  -13.7500 O   0  0  0  0  0  0  0  0  0  0  0  0
   28.9240  -20.5492  -15.4040 C   0  0  0  0  0  0  0  0  0  0  0  0
   27.6230  -20.3926  -14.7026 C   0  0  0  0  0  0  0  0  0  0  0  0
   27.6709  -20.2333  -13.2300 C   0  0  2  0  0  0  0  0  0  0  0  0
   28.4506  -21.3352  -12.5375 C   0  0  0  0  0  0  0  0  0  0  0  0
   26.3570  -20.0899  -12.5211 C   0  0  2  0  0  0  0  0  0  0  0  0
   25.4809  -19.0858  -13.0816 N   0  0  0  0  0  0  0  0  0  0  0  0
   26.5191  -19.8886  -11.0415 C   0  0  0  0  0  0  0  0  0  0  0  0
   27.0747  -18.8451  -10.5912 O   0  0  0  0  0  0  0  0  0  0  0  0
   26.0631  -20.8450  -10.1053 N   0  0  0  0  0  0  0  0  0  0  0  0
   26.4062  -20.8051   -8.6781 C   0  0  1  0  0  0  0  0  0  0  0  0
   26.1919  -19.4562   -8.1037 C   0  0  0  0  0  0  0  0  0  0  0  0
   26.9170  -19.2799   -6.8451 C   0  0  0  0  0  0  0  0  0  0  0  0
   26.4564  -19.7908   -5.6581 C   0  0  0  0  0  0  0  0  0  0  0  0
   27.1662  -19.6128   -4.4647 C   0  0  0  0  0  0  0  0  0  0  0  0
   28.3435  -18.9150   -4.4822 C   0  0  0  0  0  0  0  0  0  0  0  0
   28.8245  -18.3950   -5.6542 C   0  0  0  0  0  0  0  0  0  0  0  0
   28.1040  -18.5823   -6.8327 C   0  0  0  0  0  0  0  0  0  0  0  0
   25.6877  -21.8475   -7.9325 C   0  0  0  0  0  0  0  0  0  0  0  0
   24.3394  -22.0442   -8.1648 O   0  0  0  0  0  0  0  0  0  0  0  0
   26.2676  -22.5591   -7.0953 O   0  0  0  0  0  0  0  0  0  0  0  0
  2  3  1  0
  2  1  1  6
  4  5  1  6
  4  2  1  0
  6  4  1  0
  7  6  2  0
  9  8  1  0
 10  9  1  0
 10 11  1  1
 12 10  1  0
 12 13  1  6
 13  6  1  0
 14 12  1  0
 15 14  2  0
 16 14  1  0
 17 16  1  0
 17 18  1  1
 18 19  1  0
 19 20  2  0
 20 21  1  0
 22 21  2  0
 23 22  1  0
 24 19  1  0
 24 23  2  0
 25 17  1  0
 25 26  1  0
 27 25  2  0
M  END
$$$$
