TIF.pdb
     RDKit          3D

 27 27  0  0  1  0  0  0  0  0999 V2000
   16.8540  -28.3502   -4.0549 C   0  0  0  0  0  0  0  0  0  0  0  0
   16.4736  -27.0787   -3.3603 C   0  0  1  0  0  0  0  0  0  0  0  0
   17.4474  -26.8382   -2.3717 O   0  0  0  0  0  0  0  0  0  0  0  0
   16.4776  -25.8794   -4.2683 C   0  0  2  0  0  0  0  0  0  0  0  0
   17.8087  -25.7639   -4.8283 N   0  0  0  0  0  0  0  0  0  0  0  0
   16.1215  -24.6303   -3.6114 C   0  0  0  0  0  0  0  0  0  0  0  0
   16.9569  -23.7796   -3.2079 O   0  0  0  0  0  0  0  0  0  0  0  0
   11.6770  -22.5768   -5.4323 C   0  0  0  0  0  0  0  0  0  0  0  0
   12.8806  -22.1469   -4.6737 C   0  0  0  0  0  0  0  0  0  0  0  0
   12.9754  -22.5879   -3.2621 C   0  0  2  0  0  0  0  0  0  0  0  0
   12.4891  -21.5410   -2.2777 C   0  0  0  0  0  0  0  0  0  0  0  0
   14.3159  -23.0685   -2.7911 C   0  0  2  0  0  0  0  0  0  0  0  0
   14.7513  -24.3097   -3.3909 N   0  0  0  0  0  0  0  0  0  0  0  0
   14.4095  -23.1395   -1.2937 C   0  0  0  0  0  0  0  0  0  0  0  0
   14.1155  -24.2062   -0.6805 O   0  0  0  0  0  0  0  0  0  0  0  0
   14.8247  -22.0313   -0.5201 N   0  0  0  0  0  0  0  0  0  0  0  0
   14.8681  -22.0422    0.9477 C   0  0  1  0  0  0  0  0  0  0  0  0
   16.0887  -21.3779    1.4616 C   0  0  0  0  0  0  0  0  0  0  0  0
   16.0786  -21.2759    2.9212 C   0  0  0  0  0  0  0  0  0  0  0  0
   16.4181  -22.3307    3.7302 C   0  0  0  0  0  0  0  0  0  0  0  0
   16.4039  -22.2122    5.1250 C   0  0  0  0  0  0  0  0  0  0  0  0
   16.0440  -21.0203    5.6933 C   0  0  0  0  0  0  0  0  0  0  0  0
   15.7008  -19.9525    4.9076 C   0  0  0  0  0  0  0  0  0  0  0  0
   15.7207  -20.0892    3.5205 C   0  0  0  0  0  0  0  0  0  0  0  0
   13.6412  -21.4682    1.5169 C   0  0  0  0  0  0  0  0  0  0  0  0
   13.1274  -21.9871    2.6904 O   0  0  0  0  0  0  0  0  0  0  0  0
   13.0536  -20.5228    0.9650 O   0  0  0  0  0  0  0  0  0  0  0  0
  2  3  1  0
  2  1  1  6
  4  5  1  1
  4  2  1  0
  6  4  1  0
  7  6  2  0
  9  8  1  0
 10  9  1  0
 10 11  1  1
 12 10  1  0
 12 13  1  6
 13  6  1  0
 14 12  1  0
 15 14  2  0
 16 14  1  0
 17 16  1  0
 17 18  1  6
 18 19  1  0
 19 20  2  0
 20 21  1  0
 22 21  2  0
 23 22  1  0
 24 19  1  0
 24 23  2  0
 25 17  1  0
 25 26  1  0
 27 25  2  0
M  END
$$$$
