TIF.pdb
     RDKit          3D

 27 27  0  0  1  0  0  0  0  0999 V2000
   24.0165  -18.0195  -12.4949 C   0  0  0  0  0  0  0  0  0  0  0  0
   24.2787  -18.2417  -13.9529 C   0  0  1  0  0  0  0  0  0  0  0  0
   23.9054  -17.0625  -14.6265 O   0  0  0  0  0  0  0  0  0  0  0  0
   25.7309  -18.4754  -14.2683 C   0  0  2  0  0  0  0  0  0  0  0  0
   25.8508  -18.5783  -15.7084 N   0  0  0  0  0  0  0  0  0  0  0  0
   26.2927  -19.6683  -13.6519 C   0  0  0  0  0  0  0  0  0  0  0  0
   25.9947  -20.8447  -13.9858 O   0  0  0  0  0  0  0  0  0  0  0  0
   29.3569  -22.1629  -14.2814 C   0  0  0  0  0  0  0  0  0  0  0  0
   29.7131  -20.9598  -13.4848 C   0  0  0  0  0  0  0  0  0  0  0  0
   29.2365  -20.9201  -12.0821 C   0  0  2  0  0  0  0  0  0  0  0  0
   29.6151  -22.1573  -11.2899 C   0  0  0  0  0  0  0  0  0  0  0  0
   27.7721  -20.6740  -11.8709 C   0  0  2  0  0  0  0  0  0  0  0  0
   27.2442  -19.5425  -12.5994 N   0  0  0  0  0  0  0  0  0  0  0  0
   27.4057  -20.5885  -10.4168 C   0  0  0  0  0  0  0  0  0  0  0  0
   28.2233  -20.1181   -9.5738 O   0  0  0  0  0  0  0  0  0  0  0  0
   26.1487  -21.0246   -9.9386 N   0  0  0  0  0  0  0  0  0  0  0  0
   25.7225  -20.8809   -8.5407 C   0  0  1  0  0  0  0  0  0  0  0  0
   25.9028  -19.4923   -8.0562 C   0  0  0  0  0  0  0  0  0  0  0  0
   26.8483  -19.4241   -6.9416 C   0  0  0  0  0  0  0  0  0  0  0  0
   26.7321  -20.2256   -5.8341 C   0  0  0  0  0  0  0  0  0  0  0  0
   27.6485  -20.1464   -4.7789 C   0  0  0  0  0  0  0  0  0  0  0  0
   28.6812  -19.2513   -4.8531 C   0  0  0  0  0  0  0  0  0  0  0  0
   28.8189  -18.4400   -5.9477 C   0  0  0  0  0  0  0  0  0  0  0  0
   27.8968  -18.5330   -6.9889 C   0  0  0  0  0  0  0  0  0  0  0  0
   24.3459  -21.3599   -8.3561 C   0  0  0  0  0  0  0  0  0  0  0  0
   23.9015  -21.6828   -7.0877 O   0  0  0  0  0  0  0  0  0  0  0  0
   23.5692  -21.4809   -9.3183 O   0  0  0  0  0  0  0  0  0  0  0  0
  2  3  1  0
  2  1  1  1
  4  5  1  6
  4  2  1  0
  6  4  1  0
  7  6  2  0
  9  8  1  0
 10  9  1  0
 10 11  1  6
 12 10  1  0
 12 13  1  6
 13  6  1  0
 14 12  1  0
 15 14  2  0
 16 14  1  0
 17 16  1  0
 17 18  1  6
 18 19  1  0
 19 20  2  0
 20 21  1  0
 22 21  2  0
 23 22  1  0
 24 19  1  0
 24 23  2  0
 25 17  1  0
 25 26  1  0
 27 25  2  0
M  END
$$$$
