TIF.pdb
     RDKit          3D

 27 27  0  0  1  0  0  0  0  0999 V2000
   28.9528  -17.3541  -16.1907 C   0  0  0  0  0  0  0  0  0  0  0  0
   28.2192  -17.7485  -14.9457 C   0  0  1  0  0  0  0  0  0  0  0  0
   28.1220  -16.5983  -14.1389 O   0  0  0  0  0  0  0  0  0  0  0  0
   26.8116  -18.2118  -15.2049 C   0  0  2  0  0  0  0  0  0  0  0  0
   26.1223  -17.1400  -15.8940 N   0  0  0  0  0  0  0  0  0  0  0  0
   26.0688  -18.5691  -14.0052 C   0  0  0  0  0  0  0  0  0  0  0  0
   25.1917  -17.8402  -13.4725 O   0  0  0  0  0  0  0  0  0  0  0  0
   22.9334  -22.6386  -13.9330 C   0  0  0  0  0  0  0  0  0  0  0  0
   23.7465  -21.4275  -13.6477 C   0  0  0  0  0  0  0  0  0  0  0  0
   24.7253  -21.5238  -12.5392 C   0  0  2  0  0  0  0  0  0  0  0  0
   24.1044  -21.9903  -11.2359 C   0  0  0  0  0  0  0  0  0  0  0  0
   25.5373  -20.2977  -12.2441 C   0  0  2  0  0  0  0  0  0  0  0  0
   26.3186  -19.8143  -13.3602 N   0  0  0  0  0  0  0  0  0  0  0  0
   26.3961  -20.4553  -11.0220 C   0  0  0  0  0  0  0  0  0  0  0  0
   27.4732  -21.1166  -11.0734 O   0  0  0  0  0  0  0  0  0  0  0  0
   26.0395  -19.8780   -9.7816 N   0  0  0  0  0  0  0  0  0  0  0  0
   26.7157  -20.1980   -8.5180 C   0  0  1  0  0  0  0  0  0  0  0  0
   27.1786  -18.9742   -7.8227 C   0  0  0  0  0  0  0  0  0  0  0  0
   27.8394  -19.2862   -6.5551 C   0  0  0  0  0  0  0  0  0  0  0  0
   27.1753  -19.2468   -5.3552 C   0  0  0  0  0  0  0  0  0  0  0  0
   27.8252  -19.5509   -4.1532 C   0  0  0  0  0  0  0  0  0  0  0  0
   29.1498  -19.8944   -4.1751 C   0  0  0  0  0  0  0  0  0  0  0  0
   29.8351  -19.9409   -5.3598 C   0  0  0  0  0  0  0  0  0  0  0  0
   29.1713  -19.6349   -6.5468 C   0  0  0  0  0  0  0  0  0  0  0  0
   25.8660  -21.0364   -7.6614 C   0  0  0  0  0  0  0  0  0  0  0  0
   26.4514  -21.9647   -6.8212 O   0  0  0  0  0  0  0  0  0  0  0  0
   24.6283  -20.9284   -7.6751 O   0  0  0  0  0  0  0  0  0  0  0  0
  2  3  1  0
  2  1  1  6
  4  5  1  1
  4  2  1  0
  6  4  1  0
  7  6  2  0
  9  8  1  0
 10  9  1  0
 10 11  1  1
 12 10  1  0
 12 13  1  6
 13  6  1  0
 14 12  1  0
 15 14  2  0
 16 14  1  0
 17 16  1  0
 17 18  1  1
 18 19  1  0
 19 20  2  0
 20 21  1  0
 22 21  2  0
 23 22  1  0
 24 19  1  0
 24 23  2  0
 25 17  1  0
 25 26  1  0
 27 25  2  0
M  END
$$$$
