TIF.pdb
     RDKit          3D

 27 27  0  0  1  0  0  0  0  0999 V2000
   14.9603  -11.2900  -17.5954 C   0  0  0  0  0  0  0  0  0  0  0  0
   16.2126  -10.8272  -16.9160 C   0  0  1  0  0  0  0  0  0  0  0  0
   15.8308   -9.8957  -15.9311 O   0  0  0  0  0  0  0  0  0  0  0  0
   16.9463  -11.9301  -16.2031 C   0  0  2  0  0  0  0  0  0  0  0  0
   16.0398  -12.4901  -15.2216 N   0  0  0  0  0  0  0  0  0  0  0  0
   18.1701  -11.5038  -15.5404 C   0  0  0  0  0  0  0  0  0  0  0  0
   18.2527  -11.2301  -14.3145 O   0  0  0  0  0  0  0  0  0  0  0  0
   22.2711  -13.9271  -17.0386 C   0  0  0  0  0  0  0  0  0  0  0  0
   21.9050  -13.0423  -15.9019 C   0  0  0  0  0  0  0  0  0  0  0  0
   21.8400  -11.5880  -16.1791 C   0  0  2  0  0  0  0  0  0  0  0  0
   23.0400  -10.8268  -15.6479 C   0  0  0  0  0  0  0  0  0  0  0  0
   20.6055  -10.8666  -15.7261 C   0  0  2  0  0  0  0  0  0  0  0  0
   19.3748  -11.3745  -16.2892 N   0  0  0  0  0  0  0  0  0  0  0  0
   20.7040   -9.3799  -15.9164 C   0  0  0  0  0  0  0  0  0  0  0  0
   20.5682   -8.8679  -17.0652 O   0  0  0  0  0  0  0  0  0  0  0  0
   20.9491   -8.5050  -14.8331 N   0  0  0  0  0  0  0  0  0  0  0  0
   21.0172   -7.0449  -14.9740 C   0  0  1  0  0  0  0  0  0  0  0  0
   21.0256   -6.3701  -13.6550 C   0  0  0  0  0  0  0  0  0  0  0  0
   20.9627   -4.9144  -13.7888 C   0  0  0  0  0  0  0  0  0  0  0  0
   19.7761   -4.2269  -13.7469 C   0  0  0  0  0  0  0  0  0  0  0  0
   19.7373   -2.8334  -13.8749 C   0  0  0  0  0  0  0  0  0  0  0  0
   20.9065   -2.1427  -14.0454 C   0  0  0  0  0  0  0  0  0  0  0  0
   22.1039   -2.8057  -14.0906 C   0  0  0  0  0  0  0  0  0  0  0  0
   22.1229   -4.1935  -13.9613 C   0  0  0  0  0  0  0  0  0  0  0  0
   22.1586   -6.6473  -15.8093 C   0  0  0  0  0  0  0  0  0  0  0  0
   21.9583   -5.7842  -16.8702 O   0  0  0  0  0  0  0  0  0  0  0  0
   23.3043   -7.0707  -15.5818 O   0  0  0  0  0  0  0  0  0  0  0  0
  2  3  1  0
  2  1  1  1
  4  5  1  1
  4  2  1  0
  6  4  1  0
  7  6  2  0
  9  8  1  0
 10  9  1  0
 10 11  1  1
 12 10  1  0
 12 13  1  6
 13  6  1  0
 14 12  1  0
 15 14  2  0
 16 14  1  0
 17 16  1  0
 17 18  1  1
 18 19  1  0
 19 20  2  0
 20 21  1  0
 22 21  2  0
 23 22  1  0
 24 19  1  0
 24 23  2  0
 25 17  1  0
 25 26  1  0
 27 25  2  0
M  END
$$$$
