TIF.pdb
     RDKit          3D

 27 27  0  0  1  0  0  0  0  0999 V2000
   31.6253  -13.7032   12.8703 C   0  0  0  0  0  0  0  0  0  0  0  0
   31.7673  -12.6340   11.8308 C   0  0  1  0  0  0  0  0  0  0  0  0
   32.7236  -11.7162   12.3069 O   0  0  0  0  0  0  0  0  0  0  0  0
   32.2827  -13.1476   10.5141 C   0  0  2  0  0  0  0  0  0  0  0  0
   32.3903  -12.0140    9.6186 N   0  0  0  0  0  0  0  0  0  0  0  0
   31.4455  -14.1681    9.9008 C   0  0  0  0  0  0  0  0  0  0  0  0
   30.3313  -13.9394    9.3617 O   0  0  0  0  0  0  0  0  0  0  0  0
   33.7262  -18.3385    7.0651 C   0  0  0  0  0  0  0  0  0  0  0  0
   32.8082  -17.2929    7.5875 C   0  0  0  0  0  0  0  0  0  0  0  0
   31.8949  -17.6909    8.6846 C   0  0  2  0  0  0  0  0  0  0  0  0
   30.9378  -18.7998    8.2894 C   0  0  0  0  0  0  0  0  0  0  0  0
   31.0889  -16.5997    9.3245 C   0  0  2  0  0  0  0  0  0  0  0  0
   31.8760  -15.5258    9.8875 N   0  0  0  0  0  0  0  0  0  0  0  0
   30.1062  -17.1240   10.3322 C   0  0  0  0  0  0  0  0  0  0  0  0
   30.4827  -17.4250   11.5018 O   0  0  0  0  0  0  0  0  0  0  0  0
   28.7390  -17.2996   10.0177 N   0  0  0  0  0  0  0  0  0  0  0  0
   27.7380  -17.7521   10.9922 C   0  0  1  0  0  0  0  0  0  0  0  0
   26.3912  -17.2217   10.6759 C   0  0  0  0  0  0  0  0  0  0  0  0
   25.4106  -17.5824   11.7003 C   0  0  0  0  0  0  0  0  0  0  0  0
   24.7381  -18.7781   11.6800 C   0  0  0  0  0  0  0  0  0  0  0  0
   23.8049  -19.1053   12.6708 C   0  0  0  0  0  0  0  0  0  0  0  0
   23.5583  -18.2147   13.6803 C   0  0  0  0  0  0  0  0  0  0  0  0
   24.2165  -17.0146   13.7230 C   0  0  0  0  0  0  0  0  0  0  0  0
   25.1423  -16.7060   12.7277 C   0  0  0  0  0  0  0  0  0  0  0  0
   27.7443  -19.2161   11.1152 C   0  0  0  0  0  0  0  0  0  0  0  0
   27.6231  -19.7952   12.3644 O   0  0  0  0  0  0  0  0  0  0  0  0
   27.8558  -19.9480   10.1173 O   0  0  0  0  0  0  0  0  0  0  0  0
  2  3  1  0
  2  1  1  1
  4  5  1  6
  4  2  1  0
  6  4  1  0
  7  6  2  0
  9  8  1  0
 10  9  1  0
 10 11  1  6
 12 10  1  0
 12 13  1  1
 13  6  1  0
 14 12  1  0
 15 14  2  0
 16 14  1  0
 17 16  1  0
 17 18  1  6
 18 19  1  0
 19 20  2  0
 20 21  1  0
 22 21  2  0
 23 22  1  0
 24 19  1  0
 24 23  2  0
 25 17  1  0
 25 26  1  0
 27 25  2  0
M  END
$$$$
