TIF.pdb
     RDKit          3D

 27 27  0  0  1  0  0  0  0  0999 V2000
   18.8687   -8.3069  -19.2760 C   0  0  0  0  0  0  0  0  0  0  0  0
   18.2497   -9.6568  -19.0799 C   0  0  1  0  0  0  0  0  0  0  0  0
   17.7854  -10.0875  -20.3378 O   0  0  0  0  0  0  0  0  0  0  0  0
   19.2266  -10.6968  -18.6032 C   0  0  2  0  0  0  0  0  0  0  0  0
   18.5165  -11.9573  -18.5296 N   0  0  0  0  0  0  0  0  0  0  0  0
   19.8265  -10.4057  -17.3094 C   0  0  0  0  0  0  0  0  0  0  0  0
   19.2047  -10.4467  -16.2157 O   0  0  0  0  0  0  0  0  0  0  0  0
   24.2231  -12.5592  -15.2546 C   0  0  0  0  0  0  0  0  0  0  0  0
   22.9627  -11.8043  -15.4792 C   0  0  0  0  0  0  0  0  0  0  0  0
   23.0812  -10.3360  -15.6411 C   0  0  2  0  0  0  0  0  0  0  0  0
   23.6850   -9.6506  -14.4298 C   0  0  0  0  0  0  0  0  0  0  0  0
   21.8321   -9.5922  -16.0103 C   0  0  2  0  0  0  0  0  0  0  0  0
   21.2027  -10.0473  -17.2295 N   0  0  0  0  0  0  0  0  0  0  0  0
   22.0344   -8.1042  -16.0392 C   0  0  0  0  0  0  0  0  0  0  0  0
   22.8073   -7.5764  -16.8904 O   0  0  0  0  0  0  0  0  0  0  0  0
   21.3774   -7.2453  -15.1284 N   0  0  0  0  0  0  0  0  0  0  0  0
   21.5838   -5.7918  -15.0969 C   0  0  1  0  0  0  0  0  0  0  0  0
   20.3077   -5.0567  -15.2602 C   0  0  0  0  0  0  0  0  0  0  0  0
   20.5046   -3.6078  -15.2088 C   0  0  0  0  0  0  0  0  0  0  0  0
   20.2807   -2.8794  -14.0679 C   0  0  0  0  0  0  0  0  0  0  0  0
   20.4769   -1.4937  -14.0387 C   0  0  0  0  0  0  0  0  0  0  0  0
   20.9007   -0.8522  -15.1709 C   0  0  0  0  0  0  0  0  0  0  0  0
   21.1312   -1.5567  -16.3225 C   0  0  0  0  0  0  0  0  0  0  0  0
   20.9304   -2.9360  -16.3327 C   0  0  0  0  0  0  0  0  0  0  0  0
   22.3074   -5.3869  -13.8840 C   0  0  0  0  0  0  0  0  0  0  0  0
   23.2601   -4.3885  -13.9608 O   0  0  0  0  0  0  0  0  0  0  0  0
   22.0804   -5.9236  -12.7867 O   0  0  0  0  0  0  0  0  0  0  0  0
  2  3  1  0
  2  1  1  6
  4  5  1  1
  4  2  1  0
  6  4  1  0
  7  6  2  0
  9  8  1  0
 10  9  1  0
 10 11  1  1
 12 10  1  0
 12 13  1  6
 13  6  1  0
 14 12  1  0
 15 14  2  0
 16 14  1  0
 17 16  1  0
 17 18  1  1
 18 19  1  0
 19 20  2  0
 20 21  1  0
 22 21  2  0
 23 22  1  0
 24 19  1  0
 24 23  2  0
 25 17  1  0
 25 26  1  0
 27 25  2  0
M  END
$$$$
