TIF.pdb
     RDKit          3D

 27 27  0  0  1  0  0  0  0  0999 V2000
   28.9071  -21.8683  -16.4298 C   0  0  0  0  0  0  0  0  0  0  0  0
   28.1390  -21.6184  -15.1682 C   0  0  1  0  0  0  0  0  0  0  0  0
   29.0797  -21.3425  -14.1570 O   0  0  0  0  0  0  0  0  0  0  0  0
   27.2322  -20.4209  -15.2499 C   0  0  2  0  0  0  0  0  0  0  0  0
   28.0045  -19.3293  -15.8073 N   0  0  0  0  0  0  0  0  0  0  0  0
   26.6684  -20.0090  -13.9728 C   0  0  0  0  0  0  0  0  0  0  0  0
   26.6617  -18.8228  -13.5517 O   0  0  0  0  0  0  0  0  0  0  0  0
   22.7373  -19.2387  -13.4483 C   0  0  0  0  0  0  0  0  0  0  0  0
   23.0283  -20.6935  -13.3603 C   0  0  0  0  0  0  0  0  0  0  0  0
   23.7902  -21.1536  -12.1754 C   0  0  2  0  0  0  0  0  0  0  0  0
   23.0628  -20.9059  -10.8672 C   0  0  0  0  0  0  0  0  0  0  0  0
   25.1887  -20.6326  -12.0251 C   0  0  2  0  0  0  0  0  0  0  0  0
   26.0761  -20.9778  -13.1128 N   0  0  0  0  0  0  0  0  0  0  0  0
   25.8008  -20.9973  -10.7028 C   0  0  0  0  0  0  0  0  0  0  0  0
   25.9747  -22.2098  -10.3868 O   0  0  0  0  0  0  0  0  0  0  0  0
   26.2018  -20.0126   -9.7708 N   0  0  0  0  0  0  0  0  0  0  0  0
   26.7302  -20.3300   -8.4380 C   0  0  1  0  0  0  0  0  0  0  0  0
   27.6206  -19.2576   -7.9354 C   0  0  0  0  0  0  0  0  0  0  0  0
   28.0176  -19.4875   -6.5460 C   0  0  0  0  0  0  0  0  0  0  0  0
   27.4251  -18.8298   -5.4978 C   0  0  0  0  0  0  0  0  0  0  0  0
   27.8180  -19.0653   -4.1751 C   0  0  0  0  0  0  0  0  0  0  0  0
   28.8134  -19.9700   -3.9220 C   0  0  0  0  0  0  0  0  0  0  0  0
   29.4206  -20.6394   -4.9508 C   0  0  0  0  0  0  0  0  0  0  0  0
   29.0160  -20.3918   -6.2616 C   0  0  0  0  0  0  0  0  0  0  0  0
   25.6435  -20.6365   -7.4980 C   0  0  0  0  0  0  0  0  0  0  0  0
   25.8499  -21.5692   -6.4991 O   0  0  0  0  0  0  0  0  0  0  0  0
   24.5391  -20.0732   -7.5810 O   0  0  0  0  0  0  0  0  0  0  0  0
  2  3  1  0
  2  1  1  6
  4  5  1  1
  4  2  1  0
  6  4  1  0
  7  6  2  0
  9  8  1  0
 10  9  1  0
 10 11  1  1
 12 10  1  0
 12 13  1  6
 13  6  1  0
 14 12  1  0
 15 14  2  0
 16 14  1  0
 17 16  1  0
 17 18  1  1
 18 19  1  0
 19 20  2  0
 20 21  1  0
 22 21  2  0
 23 22  1  0
 24 19  1  0
 24 23  2  0
 25 17  1  0
 25 26  1  0
 27 25  2  0
M  END
$$$$
