TIF.pdb
     RDKit          3D

 27 27  0  0  1  0  0  0  0  0999 V2000
   20.0240  -17.6510  -13.1482 C   0  0  0  0  0  0  0  0  0  0  0  0
   21.0402  -18.5184  -12.4708 C   0  0  1  0  0  0  0  0  0  0  0  0
   20.4584  -18.9842  -11.2759 O   0  0  0  0  0  0  0  0  0  0  0  0
   21.4123  -19.7366  -13.2712 C   0  0  2  0  0  0  0  0  0  0  0  0
   20.2272  -20.5628  -13.3795 N   0  0  0  0  0  0  0  0  0  0  0  0
   22.4956  -20.5214  -12.6977 C   0  0  0  0  0  0  0  0  0  0  0  0
   22.3275  -21.5142  -11.9424 O   0  0  0  0  0  0  0  0  0  0  0  0
   26.5863  -22.5099  -15.6430 C   0  0  0  0  0  0  0  0  0  0  0  0
   25.5635  -22.1483  -14.6271 C   0  0  0  0  0  0  0  0  0  0  0  0
   26.0049  -21.2763  -13.5131 C   0  0  2  0  0  0  0  0  0  0  0  0
   27.2269  -21.8091  -12.7887 C   0  0  0  0  0  0  0  0  0  0  0  0
   24.9773  -20.9274  -12.4778 C   0  0  2  0  0  0  0  0  0  0  0  0
   23.8484  -20.1792  -12.9833 N   0  0  0  0  0  0  0  0  0  0  0  0
   25.5742  -20.2458  -11.2798 C   0  0  0  0  0  0  0  0  0  0  0  0
   25.8231  -19.0057  -11.3028 O   0  0  0  0  0  0  0  0  0  0  0  0
   25.8774  -20.9537  -10.0942 N   0  0  0  0  0  0  0  0  0  0  0  0
   26.7668  -20.4332   -9.0480 C   0  0  1  0  0  0  0  0  0  0  0  0
   26.1990  -20.6439   -7.6958 C   0  0  0  0  0  0  0  0  0  0  0  0
   27.0849  -20.1341   -6.6488 C   0  0  0  0  0  0  0  0  0  0  0  0
   27.2499  -18.7913   -6.4204 C   0  0  0  0  0  0  0  0  0  0  0  0
   28.1009  -18.3236   -5.4122 C   0  0  0  0  0  0  0  0  0  0  0  0
   28.7824  -19.2238   -4.6385 C   0  0  0  0  0  0  0  0  0  0  0  0
   28.6349  -20.5693   -4.8466 C   0  0  0  0  0  0  0  0  0  0  0  0
   27.7830  -21.0165   -5.8552 C   0  0  0  0  0  0  0  0  0  0  0  0
   28.1188  -20.9935   -9.1769 C   0  0  0  0  0  0  0  0  0  0  0  0
   29.2153  -20.1935   -8.9159 O   0  0  0  0  0  0  0  0  0  0  0  0
   28.2990  -22.1752   -9.5159 O   0  0  0  0  0  0  0  0  0  0  0  0
  2  3  1  0
  2  1  1  6
  4  5  1  1
  4  2  1  0
  6  4  1  0
  7  6  2  0
  9  8  1  0
 10  9  1  0
 10 11  1  1
 12 10  1  0
 12 13  1  6
 13  6  1  0
 14 12  1  0
 15 14  2  0
 16 14  1  0
 17 16  1  0
 17 18  1  1
 18 19  1  0
 19 20  2  0
 20 21  1  0
 22 21  2  0
 23 22  1  0
 24 19  1  0
 24 23  2  0
 25 17  1  0
 25 26  1  0
 27 25  2  0
M  END
$$$$
