GIR.pdb
     RDKit          3D

 24 23  0  0  1  0  0  0  0  0999 V2000
   23.0990  -15.4586  -18.3694 N   0  0  0  0  0  0  0  0  0  0  0  0
   23.0036  -14.0574  -18.6542 C   0  0  0  0  0  0  0  0  0  0  0  0
   23.2563  -13.2374  -17.4409 C   0  0  0  0  0  0  0  0  0  0  0  0
   22.8289  -13.5942  -16.3301 O   0  0  0  0  0  0  0  0  0  0  0  0
   27.8688  -11.3710  -15.8136 C   0  0  0  0  0  0  0  0  0  0  0  0
   26.4335  -11.8331  -15.9393 C   0  0  0  0  0  0  0  0  0  0  0  0
   25.5008  -10.6552  -16.1421 C   0  0  2  0  0  0  0  0  0  0  0  0
   25.5998   -9.7358  -14.9439 C   0  0  0  0  0  0  0  0  0  0  0  0
   24.0830  -11.0965  -16.3844 C   0  0  2  0  0  0  0  0  0  0  0  0
   24.0011  -12.0070  -17.5080 N   0  0  0  0  0  0  0  0  0  0  0  0
   23.1708   -9.9290  -16.5907 C   0  0  0  0  0  0  0  0  0  0  0  0
   23.3619   -9.1944  -17.5828 O   0  0  0  0  0  0  0  0  0  0  0  0
   15.2028  -10.2689  -17.0736 N   0  0  0  0  0  0  0  0  0  0  0  0
   15.3941   -8.8606  -17.0453 C   0  0  0  0  0  0  0  0  0  0  0  0
   14.4850   -8.0834  -17.5496 N   0  0  0  0  0  0  0  0  0  0  0  0
   16.5523   -8.2786  -16.4807 N   0  0  0  0  0  0  0  0  0  0  0  0
   17.7670   -9.1219  -16.2060 C   0  0  0  0  0  0  0  0  0  0  0  0
   18.6996   -8.2394  -15.4921 C   0  0  0  0  0  0  0  0  0  0  0  0
   20.0269   -8.6531  -15.0319 C   0  0  0  0  0  0  0  0  0  0  0  0
   21.2268   -8.4545  -15.8324 C   0  0  2  0  0  0  0  0  0  0  0  0
   22.1222   -9.6471  -15.7069 N   0  0  0  0  0  0  0  0  0  0  0  0
   22.0667   -7.3018  -15.3574 C   0  0  0  0  0  0  0  0  0  0  0  0
   22.0152   -6.0873  -16.1122 O   0  0  0  0  0  0  0  0  0  0  0  0
   22.8099   -7.2590  -14.3819 O   0  0  0  0  0  0  0  0  0  0  0  0
  2  1  1  0
  3  2  1  0
  4  3  2  0
  5  6  1  0
  6  7  1  0
  7  9  1  0
  7  8  1  1
  9 10  1  6
 10  3  1  0
 11 21  1  0
 11  9  1  0
 12 11  2  0
 13 14  1  0
 14 15  2  0
 16 14  1  0
 17 16  1  0
 18 17  1  0
 19 18  1  0
 20 19  1  1
 20 21  1  0
 22 20  1  0
 22 23  1  0
 24 22  2  0
M  END
$$$$
