GIR.pdb
     RDKit          3D

 24 23  0  0  1  0  0  0  0  0999 V2000
   29.1980  -21.0478  -16.4873 N   0  0  0  0  0  0  0  0  0  0  0  0
   28.6847  -20.3059  -15.3740 C   0  0  0  0  0  0  0  0  0  0  0  0
   27.8317  -21.1543  -14.5017 C   0  0  0  0  0  0  0  0  0  0  0  0
   28.2117  -22.2805  -14.1397 O   0  0  0  0  0  0  0  0  0  0  0  0
   29.0079  -21.0935  -10.5268 C   0  0  0  0  0  0  0  0  0  0  0  0
   28.1806  -21.4432  -11.7445 C   0  0  0  0  0  0  0  0  0  0  0  0
   26.7784  -20.8788  -11.6272 C   0  0  2  0  0  0  0  0  0  0  0  0
   26.1463  -21.3899  -10.3505 C   0  0  0  0  0  0  0  0  0  0  0  0
   25.9377  -21.2085  -12.8306 C   0  0  2  0  0  0  0  0  0  0  0  0
   26.5416  -20.7049  -14.0471 N   0  0  0  0  0  0  0  0  0  0  0  0
   24.5424  -20.6888  -12.6862 C   0  0  0  0  0  0  0  0  0  0  0  0
   24.3849  -19.4900  -12.3727 O   0  0  0  0  0  0  0  0  0  0  0  0
   19.8713  -25.2946  -15.7426 N   0  0  0  0  0  0  0  0  0  0  0  0
   19.3468  -25.1030  -14.4354 C   0  0  0  0  0  0  0  0  0  0  0  0
   19.2492  -26.1182  -13.6324 N   0  0  0  0  0  0  0  0  0  0  0  0
   18.9259  -23.8317  -13.9818 N   0  0  0  0  0  0  0  0  0  0  0  0
   18.9910  -22.6408  -14.8981 C   0  0  0  0  0  0  0  0  0  0  0  0
   19.8548  -21.6699  -14.2131 C   0  0  0  0  0  0  0  0  0  0  0  0
   21.2256  -21.9552  -13.7838 C   0  0  0  0  0  0  0  0  0  0  0  0
   22.0314  -20.9871  -13.0535 C   0  0  2  0  0  0  0  0  0  0  0  0
   23.4254  -21.5074  -12.8926 N   0  0  0  0  0  0  0  0  0  0  0  0
   21.5494  -20.7617  -11.6475 C   0  0  0  0  0  0  0  0  0  0  0  0
   20.4866  -19.8237  -11.4523 O   0  0  0  0  0  0  0  0  0  0  0  0
   21.9535  -21.2890  -10.6158 O   0  0  0  0  0  0  0  0  0  0  0  0
  2  1  1  0
  3  2  1  0
  4  3  2  0
  5  6  1  0
  6  7  1  0
  7  9  1  0
  7  8  1  1
  9 10  1  6
 10  3  1  0
 11 21  1  0
 11  9  1  0
 12 11  2  0
 13 14  1  0
 14 15  2  0
 16 14  1  0
 17 16  1  0
 18 17  1  0
 19 18  1  0
 20 19  1  1
 20 21  1  0
 22 20  1  0
 22 23  1  0
 24 22  2  0
M  END
$$$$
