GIR.pdb
     RDKit          3D

 24 23  0  0  1  0  0  0  0  0999 V2000
   29.1674  -20.2856  -15.1604 N   0  0  0  0  0  0  0  0  0  0  0  0
   28.5423  -19.5964  -14.0707 C   0  0  0  0  0  0  0  0  0  0  0  0
   27.4177  -20.3842  -13.5024 C   0  0  0  0  0  0  0  0  0  0  0  0
   27.1096  -21.4898  -13.9782 O   0  0  0  0  0  0  0  0  0  0  0  0
   26.5734  -20.0620   -8.1684 C   0  0  0  0  0  0  0  0  0  0  0  0
   26.6640  -20.6352   -9.5659 C   0  0  0  0  0  0  0  0  0  0  0  0
   25.3947  -20.3599  -10.3478 C   0  0  2  0  0  0  0  0  0  0  0  0
   24.2592  -21.1557   -9.7410 C   0  0  0  0  0  0  0  0  0  0  0  0
   25.5604  -20.6621  -11.8123 C   0  0  2  0  0  0  0  0  0  0  0  0
   26.6488  -19.8979  -12.3864 N   0  0  0  0  0  0  0  0  0  0  0  0
   24.2944  -20.4189  -12.5712 C   0  0  0  0  0  0  0  0  0  0  0  0
   23.8375  -19.2569  -12.6068 O   0  0  0  0  0  0  0  0  0  0  0  0
   26.3228  -24.8128  -16.8133 N   0  0  0  0  0  0  0  0  0  0  0  0
   25.0005  -25.1684  -16.4315 C   0  0  0  0  0  0  0  0  0  0  0  0
   24.7995  -26.2759  -15.7851 N   0  0  0  0  0  0  0  0  0  0  0  0
   23.8916  -24.3462  -16.7371 N   0  0  0  0  0  0  0  0  0  0  0  0
   24.1016  -22.9848  -17.3411 C   0  0  0  0  0  0  0  0  0  0  0  0
   23.8353  -22.0323  -16.2548 C   0  0  0  0  0  0  0  0  0  0  0  0
   22.6819  -22.1182  -15.3563 C   0  0  0  0  0  0  0  0  0  0  0  0
   22.5144  -21.2292  -14.2154 C   0  0  2  0  0  0  0  0  0  0  0  0
   23.6209  -21.4528  -13.2328 N   0  0  0  0  0  0  0  0  0  0  0  0
   21.2583  -21.5026  -13.4361 C   0  0  0  0  0  0  0  0  0  0  0  0
   21.3072  -22.5230  -12.4344 O   0  0  0  0  0  0  0  0  0  0  0  0
   20.1665  -20.9527  -13.5442 O   0  0  0  0  0  0  0  0  0  0  0  0
  2  1  1  0
  3  2  1  0
  4  3  2  0
  5  6  1  0
  6  7  1  0
  7  9  1  0
  7  8  1  1
  9 10  1  6
 10  3  1  0
 11 21  1  0
 11  9  1  0
 12 11  2  0
 13 14  1  0
 14 15  2  0
 16 14  1  0
 17 16  1  0
 18 17  1  0
 19 18  1  0
 20 19  1  6
 20 21  1  0
 22 20  1  0
 22 23  1  0
 24 22  2  0
M  END
$$$$
