GIR.pdb
     RDKit          3D

 24 23  0  0  1  0  0  0  0  0999 V2000
   23.5985  -20.7628   -8.1703 N   0  0  0  0  0  0  0  0  0  0  0  0
   24.4647  -21.6025   -8.9437 C   0  0  0  0  0  0  0  0  0  0  0  0
   25.3093  -20.8055   -9.8709 C   0  0  0  0  0  0  0  0  0  0  0  0
   25.1996  -19.5693   -9.9296 O   0  0  0  0  0  0  0  0  0  0  0  0
   30.5237  -21.8237  -10.4812 C   0  0  0  0  0  0  0  0  0  0  0  0
   29.1714  -21.1481  -10.4147 C   0  0  0  0  0  0  0  0  0  0  0  0
   28.4756  -21.1948  -11.7609 C   0  0  2  0  0  0  0  0  0  0  0  0
   29.2978  -20.4200  -12.7681 C   0  0  0  0  0  0  0  0  0  0  0  0
   27.0654  -20.6763  -11.6826 C   0  0  2  0  0  0  0  0  0  0  0  0
   26.2797  -21.4331  -10.7298 N   0  0  0  0  0  0  0  0  0  0  0  0
   26.4032  -20.6779  -13.0240 C   0  0  0  0  0  0  0  0  0  0  0  0
   26.1253  -21.7775  -13.5474 O   0  0  0  0  0  0  0  0  0  0  0  0
   20.8653  -14.4985  -16.7534 N   0  0  0  0  0  0  0  0  0  0  0  0
   20.9064  -15.7036  -17.5062 C   0  0  0  0  0  0  0  0  0  0  0  0
   20.1357  -15.8346  -18.5424 N   0  0  0  0  0  0  0  0  0  0  0  0
   21.7671  -16.7696  -17.1571 N   0  0  0  0  0  0  0  0  0  0  0  0
   22.5347  -16.7313  -15.8643 C   0  0  0  0  0  0  0  0  0  0  0  0
   23.4057  -17.9139  -15.8941 C   0  0  0  0  0  0  0  0  0  0  0  0
   24.3522  -18.2594  -14.8313 C   0  0  0  0  0  0  0  0  0  0  0  0
   25.2241  -19.4227  -14.9115 C   0  0  2  0  0  0  0  0  0  0  0  0
   26.0932  -19.4888  -13.6949 N   0  0  0  0  0  0  0  0  0  0  0  0
   26.1905  -19.3554  -16.0610 C   0  0  0  0  0  0  0  0  0  0  0  0
   25.8323  -20.0317  -17.2700 O   0  0  0  0  0  0  0  0  0  0  0  0
   27.2743  -18.7817  -16.1052 O   0  0  0  0  0  0  0  0  0  0  0  0
  2  1  1  0
  3  2  1  0
  4  3  2  0
  5  6  1  0
  6  7  1  0
  7  9  1  0
  7  8  1  6
  9 10  1  1
 10  3  1  0
 11 21  1  0
 11  9  1  0
 12 11  2  0
 13 14  1  0
 14 15  2  0
 16 14  1  0
 17 16  1  0
 18 17  1  0
 19 18  1  0
 20 19  1  1
 20 21  1  0
 22 20  1  0
 22 23  1  0
 24 22  2  0
M  END
$$$$
