GIR.pdb
     RDKit          3D

 24 23  0  0  1  0  0  0  0  0999 V2000
   27.8709  -22.2742  -16.1021 N   0  0  0  0  0  0  0  0  0  0  0  0
   27.5061  -21.1067  -15.3556 C   0  0  0  0  0  0  0  0  0  0  0  0
   26.4786  -21.4172  -14.3279 C   0  0  0  0  0  0  0  0  0  0  0  0
   25.6443  -22.3192  -14.5130 O   0  0  0  0  0  0  0  0  0  0  0  0
   27.9683  -20.9708   -9.2892 C   0  0  0  0  0  0  0  0  0  0  0  0
   27.2443  -21.4914  -10.5117 C   0  0  0  0  0  0  0  0  0  0  0  0
   25.9202  -20.7779  -10.7021 C   0  0  2  0  0  0  0  0  0  0  0  0
   24.9366  -21.2791   -9.6667 C   0  0  0  0  0  0  0  0  0  0  0  0
   25.3867  -20.9471  -12.0986 C   0  0  2  0  0  0  0  0  0  0  0  0
   26.4128  -20.6887  -13.0878 N   0  0  0  0  0  0  0  0  0  0  0  0
   24.1954  -20.0757  -12.3420 C   0  0  0  0  0  0  0  0  0  0  0  0
   24.3871  -18.8969  -12.7080 O   0  0  0  0  0  0  0  0  0  0  0  0
   21.0549  -16.5471  -18.0367 N   0  0  0  0  0  0  0  0  0  0  0  0
   22.1661  -17.3925  -17.7697 C   0  0  0  0  0  0  0  0  0  0  0  0
   23.2053  -17.3438  -18.5460 N   0  0  0  0  0  0  0  0  0  0  0  0
   22.1724  -18.2898  -16.6771 N   0  0  0  0  0  0  0  0  0  0  0  0
   20.8962  -18.5999  -15.9441 C   0  0  0  0  0  0  0  0  0  0  0  0
   21.0504  -19.9787  -15.4613 C   0  0  0  0  0  0  0  0  0  0  0  0
   21.9802  -20.3750  -14.4015 C   0  0  0  0  0  0  0  0  0  0  0  0
   21.7254  -20.0948  -12.9956 C   0  0  2  0  0  0  0  0  0  0  0  0
   22.8887  -20.5480  -12.1702 N   0  0  0  0  0  0  0  0  0  0  0  0
   20.5536  -20.8597  -12.4463 C   0  0  0  0  0  0  0  0  0  0  0  0
   19.3567  -20.1283  -12.1640 O   0  0  0  0  0  0  0  0  0  0  0  0
   20.4815  -22.0601  -12.2021 O   0  0  0  0  0  0  0  0  0  0  0  0
  2  1  1  0
  3  2  1  0
  4  3  2  0
  5  6  1  0
  6  7  1  0
  7  9  1  0
  7  8  1  1
  9 10  1  6
 10  3  1  0
 11 21  1  0
 11  9  1  0
 12 11  2  0
 13 14  1  0
 14 15  2  0
 16 14  1  0
 17 16  1  0
 18 17  1  0
 19 18  1  0
 20 19  1  6
 20 21  1  0
 22 20  1  0
 22 23  1  0
 24 22  2  0
M  END
$$$$
