GIR.pdb
     RDKit          3D

 24 23  0  0  1  0  0  0  0  0999 V2000
   29.7713  -20.5389  -10.9148 N   0  0  0  0  0  0  0  0  0  0  0  0
   29.1559  -21.0139  -12.1185 C   0  0  0  0  0  0  0  0  0  0  0  0
   28.0061  -20.1601  -12.5150 C   0  0  0  0  0  0  0  0  0  0  0  0
   27.5787  -19.2740  -11.7562 O   0  0  0  0  0  0  0  0  0  0  0  0
   28.3313  -17.7292  -16.8882 C   0  0  0  0  0  0  0  0  0  0  0  0
   27.8358  -18.0211  -15.4886 C   0  0  0  0  0  0  0  0  0  0  0  0
   26.5480  -18.8203  -15.5254 C   0  0  2  0  0  0  0  0  0  0  0  0
   25.4168  -17.9132  -15.9591 C   0  0  0  0  0  0  0  0  0  0  0  0
   26.2553  -19.4751  -14.2028 C   0  0  2  0  0  0  0  0  0  0  0  0
   27.3493  -20.3277  -13.7854 N   0  0  0  0  0  0  0  0  0  0  0  0
   24.9759  -20.2492  -14.2432 C   0  0  0  0  0  0  0  0  0  0  0  0
   24.9348  -21.2927  -14.9286 O   0  0  0  0  0  0  0  0  0  0  0  0
   19.5125  -23.4709   -8.1017 N   0  0  0  0  0  0  0  0  0  0  0  0
   18.9669  -23.6837   -9.3970 C   0  0  0  0  0  0  0  0  0  0  0  0
   17.8680  -24.3630   -9.5222 N   0  0  0  0  0  0  0  0  0  0  0  0
   19.5899  -23.1741  -10.5594 N   0  0  0  0  0  0  0  0  0  0  0  0
   20.9182  -22.4752  -10.4626 C   0  0  0  0  0  0  0  0  0  0  0  0
   21.1769  -21.9439  -11.8075 C   0  0  0  0  0  0  0  0  0  0  0  0
   22.3567  -21.1514  -12.1607 C   0  0  0  0  0  0  0  0  0  0  0  0
   22.5588  -20.6062  -13.4956 C   0  0  2  0  0  0  0  0  0  0  0  0
   23.8399  -19.8336  -13.5382 N   0  0  0  0  0  0  0  0  0  0  0  0
   21.5049  -19.6093  -13.8897 C   0  0  0  0  0  0  0  0  0  0  0  0
   20.3184  -20.1092  -14.5139 O   0  0  0  0  0  0  0  0  0  0  0  0
   21.5236  -18.3911  -13.7430 O   0  0  0  0  0  0  0  0  0  0  0  0
  2  1  1  0
  3  2  1  0
  4  3  2  0
  5  6  1  0
  6  7  1  0
  7  9  1  0
  7  8  1  1
  9 10  1  6
 10  3  1  0
 11 21  1  0
 11  9  1  0
 12 11  2  0
 13 14  1  0
 14 15  2  0
 16 14  1  0
 17 16  1  0
 18 17  1  0
 19 18  1  0
 20 19  1  1
 20 21  1  0
 22 20  1  0
 22 23  1  0
 24 22  2  0
M  END
$$$$
