GIR.pdb
     RDKit          3D

 24 23  0  0  1  0  0  0  0  0999 V2000
   18.3470  -24.2328   -8.3279 N   0  0  0  0  0  0  0  0  0  0  0  0
   18.7110  -24.4427   -6.9579 C   0  0  0  0  0  0  0  0  0  0  0  0
   17.5783  -24.9993   -6.1733 C   0  0  0  0  0  0  0  0  0  0  0  0
   16.4373  -25.0659   -6.6606 O   0  0  0  0  0  0  0  0  0  0  0  0
   18.4818  -28.8918   -2.5607 C   0  0  0  0  0  0  0  0  0  0  0  0
   17.6239  -28.1420   -3.5564 C   0  0  0  0  0  0  0  0  0  0  0  0
   17.0737  -26.8677   -2.9463 C   0  0  2  0  0  0  0  0  0  0  0  0
   15.9338  -27.2191   -2.0147 C   0  0  0  0  0  0  0  0  0  0  0  0
   16.6441  -25.8814   -3.9980 C   0  0  2  0  0  0  0  0  0  0  0  0
   17.7608  -25.4788   -4.8280 N   0  0  0  0  0  0  0  0  0  0  0  0
   15.9850  -24.6830   -3.3920 C   0  0  0  0  0  0  0  0  0  0  0  0
   16.6876  -23.8901   -2.7303 O   0  0  0  0  0  0  0  0  0  0  0  0
   11.5992  -19.2647   -7.4510 N   0  0  0  0  0  0  0  0  0  0  0  0
   10.8630  -20.4204   -7.0725 C   0  0  0  0  0  0  0  0  0  0  0  0
    9.9075  -20.8473   -7.8403 N   0  0  0  0  0  0  0  0  0  0  0  0
   11.1429  -21.1221   -5.8774 N   0  0  0  0  0  0  0  0  0  0  0  0
   12.0583  -20.5244   -4.8446 C   0  0  0  0  0  0  0  0  0  0  0  0
   12.1610  -21.5358   -3.7841 C   0  0  0  0  0  0  0  0  0  0  0  0
   12.8746  -22.8061   -3.9319 C   0  0  0  0  0  0  0  0  0  0  0  0
   13.9226  -23.2235   -3.0112 C   0  0  2  0  0  0  0  0  0  0  0  0
   14.6159  -24.4357   -3.5495 N   0  0  0  0  0  0  0  0  0  0  0  0
   13.3918  -23.6567   -1.6732 C   0  0  0  0  0  0  0  0  0  0  0  0
   13.3616  -22.6840   -0.6243 O   0  0  0  0  0  0  0  0  0  0  0  0
   12.9673  -24.7617   -1.3496 O   0  0  0  0  0  0  0  0  0  0  0  0
  2  1  1  0
  3  2  1  0
  4  3  2  0
  5  6  1  0
  6  7  1  0
  7  9  1  0
  7  8  1  1
  9 10  1  1
 10  3  1  0
 11 21  1  0
 11  9  1  0
 12 11  2  0
 13 14  1  0
 14 15  2  0
 16 14  1  0
 17 16  1  0
 18 17  1  0
 19 18  1  0
 20 19  1  6
 20 21  1  0
 22 20  1  0
 22 23  1  0
 24 22  2  0
M  END
$$$$
