GIR.pdb
     RDKit          3D

 24 23  0  0  1  0  0  0  0  0999 V2000
   31.2475  -22.2660  -11.0376 N   0  0  0  0  0  0  0  0  0  0  0  0
   30.5968  -21.0689  -10.5938 C   0  0  0  0  0  0  0  0  0  0  0  0
   29.4141  -21.3744   -9.7476 C   0  0  0  0  0  0  0  0  0  0  0  0
   28.6855  -22.3491   -9.9986 O   0  0  0  0  0  0  0  0  0  0  0  0
   27.0044  -20.1694   -4.1632 C   0  0  0  0  0  0  0  0  0  0  0  0
   26.7824  -20.5817   -5.6021 C   0  0  0  0  0  0  0  0  0  0  0  0
   27.9785  -20.2194   -6.4603 C   0  0  2  0  0  0  0  0  0  0  0  0
   28.1463  -18.7152   -6.4627 C   0  0  0  0  0  0  0  0  0  0  0  0
   27.8530  -20.7637   -7.8573 C   0  0  2  0  0  0  0  0  0  0  0  0
   29.0714  -20.5570   -8.6129 N   0  0  0  0  0  0  0  0  0  0  0  0
   26.6847  -20.1683   -8.5771 C   0  0  0  0  0  0  0  0  0  0  0  0
   26.6385  -18.9270   -8.7089 O   0  0  0  0  0  0  0  0  0  0  0  0
   26.7182  -23.1909  -14.9705 N   0  0  0  0  0  0  0  0  0  0  0  0
   25.5576  -23.5391  -14.2271 C   0  0  0  0  0  0  0  0  0  0  0  0
   25.2648  -24.7915  -14.0518 N   0  0  0  0  0  0  0  0  0  0  0  0
   24.7083  -22.5556  -13.6701 N   0  0  0  0  0  0  0  0  0  0  0  0
   25.0537  -21.0972  -13.7957 C   0  0  0  0  0  0  0  0  0  0  0  0
   25.2935  -20.6347  -12.4222 C   0  0  0  0  0  0  0  0  0  0  0  0
   24.5760  -21.1432  -11.2511 C   0  0  0  0  0  0  0  0  0  0  0  0
   24.5644  -20.4384   -9.9771 C   0  0  2  0  0  0  0  0  0  0  0  0
   25.6566  -20.9629   -9.0985 N   0  0  0  0  0  0  0  0  0  0  0  0
   23.3048  -20.6681   -9.1893 C   0  0  0  0  0  0  0  0  0  0  0  0
   22.1402  -19.9286   -9.5688 O   0  0  0  0  0  0  0  0  0  0  0  0
   23.1345  -21.4262   -8.2395 O   0  0  0  0  0  0  0  0  0  0  0  0
  2  1  1  0
  3  2  1  0
  4  3  2  0
  5  6  1  0
  6  7  1  0
  7  9  1  0
  7  8  1  6
  9 10  1  6
 10  3  1  0
 11 21  1  0
 11  9  1  0
 12 11  2  0
 13 14  1  0
 14 15  2  0
 16 14  1  0
 17 16  1  0
 18 17  1  0
 19 18  1  0
 20 19  1  6
 20 21  1  0
 22 20  1  0
 22 23  1  0
 24 22  2  0
M  END
$$$$
