GIR.pdb
     RDKit          3D

 24 23  0  0  1  0  0  0  0  0999 V2000
   23.7485  -20.3847   -8.2841 N   0  0  0  0  0  0  0  0  0  0  0  0
   24.7778  -21.2185   -8.8306 C   0  0  0  0  0  0  0  0  0  0  0  0
   25.3107  -20.6625  -10.1015 C   0  0  0  0  0  0  0  0  0  0  0  0
   24.9705  -19.5344  -10.4958 O   0  0  0  0  0  0  0  0  0  0  0  0
   30.3818  -21.5554  -11.0522 C   0  0  0  0  0  0  0  0  0  0  0  0
   29.0145  -20.9083  -11.0151 C   0  0  0  0  0  0  0  0  0  0  0  0
   28.2417  -21.2012  -12.2861 C   0  0  2  0  0  0  0  0  0  0  0  0
   28.8767  -20.4469  -13.4343 C   0  0  0  0  0  0  0  0  0  0  0  0
   26.7816  -20.8668  -12.1455 C   0  0  2  0  0  0  0  0  0  0  0  0
   26.2352  -21.4062  -10.9172 N   0  0  0  0  0  0  0  0  0  0  0  0
   25.9917  -21.3445  -13.3226 C   0  0  0  0  0  0  0  0  0  0  0  0
   25.6835  -22.5537  -13.3794 O   0  0  0  0  0  0  0  0  0  0  0  0
   17.9754  -21.1102  -12.5330 N   0  0  0  0  0  0  0  0  0  0  0  0
   18.3122  -21.8226  -13.7162 C   0  0  0  0  0  0  0  0  0  0  0  0
   17.4205  -22.5778  -14.2812 N   0  0  0  0  0  0  0  0  0  0  0  0
   19.5974  -21.7319  -14.2986 N   0  0  0  0  0  0  0  0  0  0  0  0
   20.7199  -21.0603  -13.5562 C   0  0  0  0  0  0  0  0  0  0  0  0
   21.8674  -21.0943  -14.4728 C   0  0  0  0  0  0  0  0  0  0  0  0
   23.1911  -20.5596  -14.1462 C   0  0  0  0  0  0  0  0  0  0  0  0
   24.3014  -20.5978  -15.0872 C   0  0  2  0  0  0  0  0  0  0  0  0
   25.5966  -20.4760  -14.3472 N   0  0  0  0  0  0  0  0  0  0  0  0
   24.3033  -19.4369  -16.0423 C   0  0  0  0  0  0  0  0  0  0  0  0
   24.9378  -18.2274  -15.6160 O   0  0  0  0  0  0  0  0  0  0  0  0
   23.8228  -19.3848  -17.1703 O   0  0  0  0  0  0  0  0  0  0  0  0
  2  1  1  0
  3  2  1  0
  4  3  2  0
  5  6  1  0
  6  7  1  0
  7  9  1  0
  7  8  1  6
  9 10  1  1
 10  3  1  0
 11 21  1  0
 11  9  1  0
 12 11  2  0
 13 14  1  0
 14 15  2  0
 16 14  1  0
 17 16  1  0
 18 17  1  0
 19 18  1  0
 20 19  1  1
 20 21  1  0
 22 20  1  0
 22 23  1  0
 24 22  2  0
M  END
$$$$
