GIR.pdb
     RDKit          3D

 24 23  0  0  1  0  0  0  0  0999 V2000
   28.9212  -20.7045  -11.7178 N   0  0  0  0  0  0  0  0  0  0  0  0
   28.5587  -20.4583  -13.0821 C   0  0  0  0  0  0  0  0  0  0  0  0
   27.2397  -19.7809  -13.1807 C   0  0  0  0  0  0  0  0  0  0  0  0
   26.5081  -19.6623  -12.1835 O   0  0  0  0  0  0  0  0  0  0  0  0
   27.2512  -15.5528  -16.0164 C   0  0  0  0  0  0  0  0  0  0  0  0
   26.6242  -16.3394  -14.8860 C   0  0  0  0  0  0  0  0  0  0  0  0
   25.6102  -17.3343  -15.4153 C   0  0  2  0  0  0  0  0  0  0  0  0
   24.2757  -16.6389  -15.5784 C   0  0  0  0  0  0  0  0  0  0  0  0
   25.4975  -18.5461  -14.5308 C   0  0  2  0  0  0  0  0  0  0  0  0
   26.7644  -19.2408  -14.4278 N   0  0  0  0  0  0  0  0  0  0  0  0
   24.4283  -19.4776  -15.0071 C   0  0  0  0  0  0  0  0  0  0  0  0
   24.5643  -20.0146  -16.1267 O   0  0  0  0  0  0  0  0  0  0  0  0
   21.2014  -26.1205  -12.4868 N   0  0  0  0  0  0  0  0  0  0  0  0
   19.9268  -25.5601  -12.2004 C   0  0  0  0  0  0  0  0  0  0  0  0
   19.1410  -26.1599  -11.3592 N   0  0  0  0  0  0  0  0  0  0  0  0
   19.4877  -24.3616  -12.8086 N   0  0  0  0  0  0  0  0  0  0  0  0
   20.0330  -23.0363  -12.3521 C   0  0  0  0  0  0  0  0  0  0  0  0
   20.7865  -22.5104  -13.4982 C   0  0  0  0  0  0  0  0  0  0  0  0
   21.6172  -21.3053  -13.4472 C   0  0  0  0  0  0  0  0  0  0  0  0
   22.2338  -20.7325  -14.6353 C   0  0  2  0  0  0  0  0  0  0  0  0
   23.2944  -19.7557  -14.2343 N   0  0  0  0  0  0  0  0  0  0  0  0
   21.2743  -19.9262  -15.4654 C   0  0  0  0  0  0  0  0  0  0  0  0
   20.7232  -20.5450  -16.6319 O   0  0  0  0  0  0  0  0  0  0  0  0
   20.8871  -18.7779  -15.2722 O   0  0  0  0  0  0  0  0  0  0  0  0
  2  1  1  0
  3  2  1  0
  4  3  2  0
  5  6  1  0
  6  7  1  0
  7  9  1  0
  7  8  1  1
  9 10  1  6
 10  3  1  0
 11 21  1  0
 11  9  1  0
 12 11  2  0
 13 14  1  0
 14 15  2  0
 16 14  1  0
 17 16  1  0
 18 17  1  0
 19 18  1  0
 20 19  1  1
 20 21  1  0
 22 20  1  0
 22 23  1  0
 24 22  2  0
M  END
$$$$
