GIR.pdb
     RDKit          3D

 24 23  0  0  1  0  0  0  0  0999 V2000
   27.3597  -22.8176  -16.0477 N   0  0  0  0  0  0  0  0  0  0  0  0
   26.8746  -21.6209  -15.4262 C   0  0  0  0  0  0  0  0  0  0  0  0
   26.0021  -21.9274  -14.2630 C   0  0  0  0  0  0  0  0  0  0  0  0
   25.4669  -23.0424  -14.1440 O   0  0  0  0  0  0  0  0  0  0  0  0
   27.3521  -19.8860   -9.5048 C   0  0  0  0  0  0  0  0  0  0  0  0
   26.7831  -20.8675  -10.5060 C   0  0  0  0  0  0  0  0  0  0  0  0
   25.3582  -20.5024  -10.8731 C   0  0  2  0  0  0  0  0  0  0  0  0
   24.4577  -20.7779   -9.6881 C   0  0  0  0  0  0  0  0  0  0  0  0
   24.8908  -21.2311  -12.1036 C   0  0  2  0  0  0  0  0  0  0  0  0
   25.7468  -20.9494  -13.2376 N   0  0  0  0  0  0  0  0  0  0  0  0
   23.4678  -20.9044  -12.4294 C   0  0  0  0  0  0  0  0  0  0  0  0
   23.1957  -19.7438  -12.8027 O   0  0  0  0  0  0  0  0  0  0  0  0
   16.9034  -25.1837   -9.9482 N   0  0  0  0  0  0  0  0  0  0  0  0
   17.8754  -24.6681   -9.0481 C   0  0  0  0  0  0  0  0  0  0  0  0
   18.1946  -25.3537   -7.9931 N   0  0  0  0  0  0  0  0  0  0  0  0
   18.5082  -23.4233   -9.2698 N   0  0  0  0  0  0  0  0  0  0  0  0
   17.9322  -22.4459  -10.2572 C   0  0  0  0  0  0  0  0  0  0  0  0
   18.8352  -22.4854  -11.4153 C   0  0  0  0  0  0  0  0  0  0  0  0
   20.2716  -22.2098  -11.3420 C   0  0  0  0  0  0  0  0  0  0  0  0
   20.9914  -21.5334  -12.4117 C   0  0  2  0  0  0  0  0  0  0  0  0
   22.4495  -21.8597  -12.3259 N   0  0  0  0  0  0  0  0  0  0  0  0
   20.9342  -20.0351  -12.3034 C   0  0  0  0  0  0  0  0  0  0  0  0
   20.3642  -19.3116  -13.3984 O   0  0  0  0  0  0  0  0  0  0  0  0
   21.3190  -19.3285  -11.3769 O   0  0  0  0  0  0  0  0  0  0  0  0
  2  1  1  0
  3  2  1  0
  4  3  2  0
  5  6  1  0
  6  7  1  0
  7  9  1  0
  7  8  1  1
  9 10  1  6
 10  3  1  0
 11 21  1  0
 11  9  1  0
 12 11  2  0
 13 14  1  0
 14 15  2  0
 16 14  1  0
 17 16  1  0
 18 17  1  0
 19 18  1  0
 20 19  1  1
 20 21  1  0
 22 20  1  0
 22 23  1  0
 24 22  2  0
M  END
$$$$
