GIR.pdb
     RDKit          3D

 24 23  0  0  1  0  0  0  0  0999 V2000
   21.3068  -21.9125   -6.7689 N   0  0  0  0  0  0  0  0  0  0  0  0
   22.7082  -22.0274   -6.4928 C   0  0  0  0  0  0  0  0  0  0  0  0
   23.5148  -21.1840   -7.4129 C   0  0  0  0  0  0  0  0  0  0  0  0
   22.9682  -20.4996   -8.2941 O   0  0  0  0  0  0  0  0  0  0  0  0
   27.9142  -18.6643   -5.4356 C   0  0  0  0  0  0  0  0  0  0  0  0
   26.6527  -19.0757   -6.1630 C   0  0  0  0  0  0  0  0  0  0  0  0
   26.9828  -19.7912   -7.4582 C   0  0  2  0  0  0  0  0  0  0  0  0
   27.8065  -18.8715   -8.3336 C   0  0  0  0  0  0  0  0  0  0  0  0
   25.7448  -20.2676   -8.1681 C   0  0  2  0  0  0  0  0  0  0  0  0
   24.9504  -21.1297   -7.3173 N   0  0  0  0  0  0  0  0  0  0  0  0
   26.0785  -20.9626   -9.4500 C   0  0  0  0  0  0  0  0  0  0  0  0
   26.9429  -21.8640   -9.4290 O   0  0  0  0  0  0  0  0  0  0  0  0
   24.4622  -25.6416  -14.5437 N   0  0  0  0  0  0  0  0  0  0  0  0
   23.8890  -24.7849  -15.5225 C   0  0  0  0  0  0  0  0  0  0  0  0
   22.9052  -25.2171  -16.2505 N   0  0  0  0  0  0  0  0  0  0  0  0
   24.3620  -23.4683  -15.7272 N   0  0  0  0  0  0  0  0  0  0  0  0
   25.2116  -22.7976  -14.6829 C   0  0  0  0  0  0  0  0  0  0  0  0
   24.3100  -21.8719  -13.9840 C   0  0  0  0  0  0  0  0  0  0  0  0
   24.7442  -20.9358  -12.9448 C   0  0  0  0  0  0  0  0  0  0  0  0
   25.7674  -21.2764  -11.9666 C   0  0  2  0  0  0  0  0  0  0  0  0
   25.4503  -20.6278  -10.6556 N   0  0  0  0  0  0  0  0  0  0  0  0
   27.1270  -20.7473  -12.3290 C   0  0  0  0  0  0  0  0  0  0  0  0
   28.0800  -21.6732  -12.8598 O   0  0  0  0  0  0  0  0  0  0  0  0
   27.5417  -19.5965  -12.2304 O   0  0  0  0  0  0  0  0  0  0  0  0
  2  1  1  0
  3  2  1  0
  4  3  2  0
  5  6  1  0
  6  7  1  0
  7  9  1  0
  7  8  1  6
  9 10  1  1
 10  3  1  0
 11 21  1  0
 11  9  1  0
 12 11  2  0
 13 14  1  0
 14 15  2  0
 16 14  1  0
 17 16  1  0
 18 17  1  0
 19 18  1  0
 20 19  1  6
 20 21  1  0
 22 20  1  0
 22 23  1  0
 24 22  2  0
M  END
$$$$
