GIR.pdb
     RDKit          3D

 24 23  0  0  1  0  0  0  0  0999 V2000
   24.3332  -20.0005  -15.3658 N   0  0  0  0  0  0  0  0  0  0  0  0
   24.3836  -19.1098  -16.4871 C   0  0  0  0  0  0  0  0  0  0  0  0
   23.9788  -17.7318  -16.1057 C   0  0  0  0  0  0  0  0  0  0  0  0
   22.9861  -17.5357  -15.3847 O   0  0  0  0  0  0  0  0  0  0  0  0
   27.8507  -14.0085  -15.3724 C   0  0  0  0  0  0  0  0  0  0  0  0
   26.5792  -14.8160  -15.2273 C   0  0  0  0  0  0  0  0  0  0  0  0
   25.5033  -14.3061  -16.1658 C   0  0  2  0  0  0  0  0  0  0  0  0
   25.1020  -12.9092  -15.7435 C   0  0  0  0  0  0  0  0  0  0  0  0
   24.3174  -15.2305  -16.2159 C   0  0  2  0  0  0  0  0  0  0  0  0
   24.7177  -16.5806  -16.5551 N   0  0  0  0  0  0  0  0  0  0  0  0
   23.2763  -14.7389  -17.1710 C   0  0  0  0  0  0  0  0  0  0  0  0
   23.5317  -14.7669  -18.3935 O   0  0  0  0  0  0  0  0  0  0  0  0
   15.7073  -15.6517  -20.7444 N   0  0  0  0  0  0  0  0  0  0  0  0
   15.6221  -14.3232  -20.2460 C   0  0  0  0  0  0  0  0  0  0  0  0
   14.6560  -13.5534  -20.6447 N   0  0  0  0  0  0  0  0  0  0  0  0
   16.5643  -13.8131  -19.3235 N   0  0  0  0  0  0  0  0  0  0  0  0
   17.6996  -14.6757  -18.8450 C   0  0  0  0  0  0  0  0  0  0  0  0
   18.4216  -13.8577  -17.8614 C   0  0  0  0  0  0  0  0  0  0  0  0
   19.6748  -14.2643  -17.2217 C   0  0  0  0  0  0  0  0  0  0  0  0
   20.9691  -13.7482  -17.6441 C   0  0  2  0  0  0  0  0  0  0  0  0
   22.0392  -14.2549  -16.7287 N   0  0  0  0  0  0  0  0  0  0  0  0
   21.0665  -12.2513  -17.5444 C   0  0  0  0  0  0  0  0  0  0  0  0
   20.6225  -11.4810  -18.6654 O   0  0  0  0  0  0  0  0  0  0  0  0
   21.4851  -11.5816  -16.6053 O   0  0  0  0  0  0  0  0  0  0  0  0
  2  1  1  0
  3  2  1  0
  4  3  2  0
  5  6  1  0
  6  7  1  0
  7  9  1  0
  7  8  1  1
  9 10  1  6
 10  3  1  0
 11 21  1  0
 11  9  1  0
 12 11  2  0
 13 14  1  0
 14 15  2  0
 16 14  1  0
 17 16  1  0
 18 17  1  0
 19 18  1  0
 20 19  1  1
 20 21  1  0
 22 20  1  0
 22 23  1  0
 24 22  2  0
M  END
$$$$
