GIR.pdb
     RDKit          3D

 24 23  0  0  1  0  0  0  0  0999 V2000
   18.9181  -15.4713  -17.1334 N   0  0  0  0  0  0  0  0  0  0  0  0
   19.7517  -14.4433  -17.6826 C   0  0  0  0  0  0  0  0  0  0  0  0
   20.3742  -13.6191  -16.6142 C   0  0  0  0  0  0  0  0  0  0  0  0
   19.7237  -13.2773  -15.6123 O   0  0  0  0  0  0  0  0  0  0  0  0
   25.5295  -14.2904  -15.0185 C   0  0  0  0  0  0  0  0  0  0  0  0
   24.0465  -14.0036  -15.1087 C   0  0  0  0  0  0  0  0  0  0  0  0
   23.7967  -12.5710  -15.5374 C   0  0  2  0  0  0  0  0  0  0  0  0
   24.4144  -11.6368  -14.5193 C   0  0  0  0  0  0  0  0  0  0  0  0
   22.3312  -12.2892  -15.7284 C   0  0  2  0  0  0  0  0  0  0  0  0
   21.7457  -13.1893  -16.7006 N   0  0  0  0  0  0  0  0  0  0  0  0
   22.0912  -10.8664  -16.1230 C   0  0  0  0  0  0  0  0  0  0  0  0
   22.5510  -10.4672  -17.2137 O   0  0  0  0  0  0  0  0  0  0  0  0
   14.9740   -5.6944  -16.8526 N   0  0  0  0  0  0  0  0  0  0  0  0
   16.1304   -4.8719  -16.7688 C   0  0  0  0  0  0  0  0  0  0  0  0
   16.0187   -3.5933  -16.9626 N   0  0  0  0  0  0  0  0  0  0  0  0
   17.4057   -5.4090  -16.4789 N   0  0  0  0  0  0  0  0  0  0  0  0
   17.5712   -6.8862  -16.2493 C   0  0  0  0  0  0  0  0  0  0  0  0
   19.0159   -7.0943  -16.0834 C   0  0  0  0  0  0  0  0  0  0  0  0
   19.6334   -8.4036  -15.8611 C   0  0  0  0  0  0  0  0  0  0  0  0
   21.0682   -8.5679  -15.6768 C   0  0  2  0  0  0  0  0  0  0  0  0
   21.3719   -9.9858  -15.3061 N   0  0  0  0  0  0  0  0  0  0  0  0
   21.6114   -7.7558  -14.5343 C   0  0  0  0  0  0  0  0  0  0  0  0
   21.9670   -6.3950  -14.7971 O   0  0  0  0  0  0  0  0  0  0  0  0
   21.7946   -8.1107  -13.3740 O   0  0  0  0  0  0  0  0  0  0  0  0
  2  1  1  0
  3  2  1  0
  4  3  2  0
  5  6  1  0
  6  7  1  0
  7  9  1  0
  7  8  1  1
  9 10  1  6
 10  3  1  0
 11 21  1  0
 11  9  1  0
 12 11  2  0
 13 14  1  0
 14 15  2  0
 16 14  1  0
 17 16  1  0
 18 17  1  0
 19 18  1  0
 20 19  1  1
 20 21  1  0
 22 20  1  0
 22 23  1  0
 24 22  2  0
M  END
$$$$
