DFK.pdb
     RDKit          3D

 29 29  0  0  1  0  0  0  0  0999 V2000
   28.6307  -22.8217  -16.9500 N   0  0  0  0  0  0  0  0  0  0  0  0
   27.4352  -21.9447  -17.1991 C   0  0  1  0  0  0  0  0  0  0  0  0
   26.8176  -22.5559  -18.4171 C   0  0  0  0  0  0  0  0  0  0  0  0
   27.4468  -22.3202  -19.6994 C   0  0  0  0  0  0  0  0  0  0  0  0
   27.8623  -21.2683  -20.2002 O   0  0  0  0  0  0  0  0  0  0  0  0
   26.6317  -22.0924  -15.9623 C   0  0  0  0  0  0  0  0  0  0  0  0
   26.0011  -23.1850  -15.7418 O   0  0  0  0  0  0  0  0  0  0  0  0
   27.6119  -23.4825  -20.5084 O   0  0  0  0  0  0  0  0  0  0  0  0
   26.5502  -21.0525  -15.0186 N   0  0  0  0  0  0  0  0  0  0  0  0
   25.7596  -21.1728  -13.8039 C   0  0  1  0  0  0  0  0  0  0  0  0
   26.2296  -20.2161  -12.7433 C   0  0  0  0  0  0  0  0  0  0  0  0
   25.4914  -20.3466  -11.4816 C   0  0  0  0  0  0  0  0  0  0  0  0
   24.2829  -19.7218  -11.2870 C   0  0  0  0  0  0  0  0  0  0  0  0
   23.5831  -19.8505  -10.0812 C   0  0  0  0  0  0  0  0  0  0  0  0
   24.1149  -20.6191   -9.0665 C   0  0  0  0  0  0  0  0  0  0  0  0
   25.3234  -21.2460   -9.2565 C   0  0  0  0  0  0  0  0  0  0  0  0
   26.0063  -21.1094  -10.4577 C   0  0  0  0  0  0  0  0  0  0  0  0
   24.3225  -20.9320  -14.0951 C   0  0  0  0  0  0  0  0  0  0  0  0
   23.9977  -19.8549  -14.6560 O   0  0  0  0  0  0  0  0  0  0  0  0
   23.3014  -21.8495  -13.7749 N   0  0  0  0  0  0  0  0  0  0  0  0
   21.8730  -21.5913  -13.9550 C   0  0  1  0  0  0  0  0  0  0  0  0
   21.1550  -22.8129  -14.4023 C   0  0  0  0  0  0  0  0  0  0  0  0
   19.7334  -22.5004  -14.7667 C   0  0  0  0  0  0  0  0  0  0  0  0
   18.9797  -23.6947  -15.2794 C   0  0  0  0  0  0  0  0  0  0  0  0
   17.5920  -23.3025  -15.7026 C   0  0  0  0  0  0  0  0  0  0  0  0
   16.9105  -24.5004  -16.1930 N   0  0  0  0  0  0  0  0  0  0  0  0
   21.2907  -20.9847  -12.7542 C   0  0  0  0  0  0  0  0  0  0  0  0
   20.3159  -20.1644  -12.9356 O   0  0  0  0  0  0  0  0  0  0  0  0
   21.6457  -21.1765  -11.4519 O   0  0  0  0  0  0  0  0  0  0  0  0
  2  1  1  1
  3  2  1  0
  4  3  1  0
  5  4  2  0
  6  2  1  0
  6  7  2  0
  8  4  1  0
  9  6  1  0
 10  9  1  0
 11 12  1  0
 10 11  1  1
 12 13  2  0
 12 17  1  0
 13 14  1  0
 14 15  2  0
 16 15  1  0
 17 16  2  0
 18 19  2  0
 18 10  1  0
 20 18  1  0
 21 20  1  0
 21 22  1  1
 23 22  1  0
 24 23  1  0
 25 24  1  0
 25 26  1  0
 27 21  1  0
 28 27  2  0
 29 27  1  0
M  END
$$$$
