DFK.pdb
     RDKit          3D

 29 29  0  0  1  0  0  0  0  0999 V2000
   28.3889  -21.8569  -18.2350 N   0  0  0  0  0  0  0  0  0  0  0  0
   27.8011  -20.5995  -17.6573 C   0  0  1  0  0  0  0  0  0  0  0  0
   26.8291  -20.1682  -18.7098 C   0  0  0  0  0  0  0  0  0  0  0  0
   27.3439  -19.5185  -19.8968 C   0  0  0  0  0  0  0  0  0  0  0  0
   27.6261  -19.9923  -21.0039 O   0  0  0  0  0  0  0  0  0  0  0  0
   27.1760  -21.0566  -16.3934 C   0  0  0  0  0  0  0  0  0  0  0  0
   26.7752  -22.2680  -16.2854 O   0  0  0  0  0  0  0  0  0  0  0  0
   27.5577  -18.1149  -19.7665 O   0  0  0  0  0  0  0  0  0  0  0  0
   27.0162  -20.1829  -15.3027 N   0  0  0  0  0  0  0  0  0  0  0  0
   26.3943  -20.6072  -14.0585 C   0  0  1  0  0  0  0  0  0  0  0  0
   26.9285  -19.8350  -12.8838 C   0  0  0  0  0  0  0  0  0  0  0  0
   26.3609  -20.2701  -11.6023 C   0  0  0  0  0  0  0  0  0  0  0  0
   25.2544  -19.6603  -11.0612 C   0  0  0  0  0  0  0  0  0  0  0  0
   24.7172  -20.0801   -9.8384 C   0  0  0  0  0  0  0  0  0  0  0  0
   25.3083  -21.1264   -9.1608 C   0  0  0  0  0  0  0  0  0  0  0  0
   26.4153  -21.7394   -9.6980 C   0  0  0  0  0  0  0  0  0  0  0  0
   26.9372  -21.3124  -10.9117 C   0  0  0  0  0  0  0  0  0  0  0  0
   24.9191  -20.4461  -14.1352 C   0  0  0  0  0  0  0  0  0  0  0  0
   24.4569  -19.3483  -14.5368 O   0  0  0  0  0  0  0  0  0  0  0  0
   24.0081  -21.4617  -13.7809 N   0  0  0  0  0  0  0  0  0  0  0  0
   22.5537  -21.3067  -13.7914 C   0  0  1  0  0  0  0  0  0  0  0  0
   21.8743  -22.5988  -14.0686 C   0  0  0  0  0  0  0  0  0  0  0  0
   20.3891  -22.4151  -14.1779 C   0  0  0  0  0  0  0  0  0  0  0  0
   19.6571  -23.6931  -14.4749 C   0  0  0  0  0  0  0  0  0  0  0  0
   18.2058  -23.4187  -14.7528 C   0  0  0  0  0  0  0  0  0  0  0  0
   17.5386  -24.6986  -14.9907 N   0  0  0  0  0  0  0  0  0  0  0  0
   22.0832  -20.6569  -12.5644 C   0  0  0  0  0  0  0  0  0  0  0  0
   21.2254  -19.7080  -12.7052 O   0  0  0  0  0  0  0  0  0  0  0  0
   22.4347  -20.9274  -11.2751 O   0  0  0  0  0  0  0  0  0  0  0  0
  2  1  1  6
  3  2  1  0
  4  3  1  0
  5  4  2  0
  6  2  1  0
  6  7  2  0
  8  4  1  0
  9  6  1  0
 10  9  1  0
 11 12  1  0
 10 11  1  1
 12 13  2  0
 12 17  1  0
 13 14  1  0
 14 15  2  0
 16 15  1  0
 17 16  2  0
 18 19  2  0
 18 10  1  0
 20 18  1  0
 21 20  1  0
 21 22  1  1
 23 22  1  0
 24 23  1  0
 25 24  1  0
 25 26  1  0
 27 21  1  0
 28 27  2  0
 29 27  1  0
M  END
$$$$
