DFK.pdb
     RDKit          3D

 29 29  0  0  1  0  0  0  0  0999 V2000
   16.5950  -19.9044    2.2236 N   0  0  0  0  0  0  0  0  0  0  0  0
   15.7638  -19.4209    3.3792 C   0  0  1  0  0  0  0  0  0  0  0  0
   15.5787  -20.6573    4.2010 C   0  0  0  0  0  0  0  0  0  0  0  0
   14.5775  -21.6165    3.7847 C   0  0  0  0  0  0  0  0  0  0  0  0
   13.7981  -21.5869    2.8247 O   0  0  0  0  0  0  0  0  0  0  0  0
   16.6151  -18.3846    4.0106 C   0  0  0  0  0  0  0  0  0  0  0  0
   17.8750  -18.5827    4.1267 O   0  0  0  0  0  0  0  0  0  0  0  0
   14.4762  -22.7738    4.6113 O   0  0  0  0  0  0  0  0  0  0  0  0
   16.0649  -17.1799    4.4843 N   0  0  0  0  0  0  0  0  0  0  0  0
   16.8851  -16.1413    5.0873 C   0  0  1  0  0  0  0  0  0  0  0  0
   16.4181  -14.7688    4.6878 C   0  0  0  0  0  0  0  0  0  0  0  0
   17.4846  -13.7616    4.7330 C   0  0  0  0  0  0  0  0  0  0  0  0
   18.5596  -13.8130    3.8783 C   0  0  0  0  0  0  0  0  0  0  0  0
   19.5737  -12.8490    3.9259 C   0  0  0  0  0  0  0  0  0  0  0  0
   19.4950  -11.8259    4.8481 C   0  0  0  0  0  0  0  0  0  0  0  0
   18.4216  -11.7704    5.7052 C   0  0  0  0  0  0  0  0  0  0  0  0
   17.4232  -12.7335    5.6465 C   0  0  0  0  0  0  0  0  0  0  0  0
   16.8712  -16.2644    6.5680 C   0  0  0  0  0  0  0  0  0  0  0  0
   15.7939  -16.5826    7.1321 O   0  0  0  0  0  0  0  0  0  0  0  0
   18.0050  -16.0428    7.3759 N   0  0  0  0  0  0  0  0  0  0  0  0
   18.0110  -16.1414    8.8352 C   0  0  1  0  0  0  0  0  0  0  0  0
   19.3041  -16.6755    9.3356 C   0  0  0  0  0  0  0  0  0  0  0  0
   19.2858  -16.8222   10.8288 C   0  0  0  0  0  0  0  0  0  0  0  0
   20.5621  -17.3909   11.3811 C   0  0  0  0  0  0  0  0  0  0  0  0
   20.4433  -17.6153   12.8624 C   0  0  0  0  0  0  0  0  0  0  0  0
   21.7113  -18.1648   13.3422 N   0  0  0  0  0  0  0  0  0  0  0  0
   17.6339  -14.8660    9.4520 C   0  0  0  0  0  0  0  0  0  0  0  0
   17.9326  -13.7978    8.7995 O   0  0  0  0  0  0  0  0  0  0  0  0
   16.9982  -14.6554   10.6395 O   0  0  0  0  0  0  0  0  0  0  0  0
  2  1  1  6
  3  2  1  0
  4  3  1  0
  5  4  2  0
  6  2  1  0
  6  7  2  0
  8  4  1  0
  9  6  1  0
 10  9  1  0
 11 12  1  0
 10 11  1  1
 12 13  2  0
 12 17  1  0
 13 14  1  0
 14 15  2  0
 16 15  1  0
 17 16  2  0
 18 19  2  0
 18 10  1  0
 20 18  1  0
 21 20  1  0
 21 22  1  1
 23 22  1  0
 24 23  1  0
 25 24  1  0
 25 26  1  0
 27 21  1  0
 28 27  2  0
 29 27  1  0
M  END
$$$$
