DFK.pdb
     RDKit          3D

 29 29  0  0  1  0  0  0  0  0999 V2000
   28.2750  -23.2351  -17.4464 N   0  0  0  0  0  0  0  0  0  0  0  0
   27.4891  -21.9576  -17.3428 C   0  0  1  0  0  0  0  0  0  0  0  0
   26.6747  -21.9609  -18.5978 C   0  0  0  0  0  0  0  0  0  0  0  0
   25.8742  -20.7935  -18.9015 C   0  0  0  0  0  0  0  0  0  0  0  0
   26.2236  -19.6459  -19.2030 O   0  0  0  0  0  0  0  0  0  0  0  0
   26.7024  -22.1332  -16.0988 C   0  0  0  0  0  0  0  0  0  0  0  0
   26.3323  -23.3061  -15.7422 O   0  0  0  0  0  0  0  0  0  0  0  0
   24.4650  -21.0017  -18.8432 O   0  0  0  0  0  0  0  0  0  0  0  0
   26.3550  -21.0320  -15.2957 N   0  0  0  0  0  0  0  0  0  0  0  0
   25.6111  -21.1853  -14.0555 C   0  0  1  0  0  0  0  0  0  0  0  0
   26.0177  -20.1555  -13.0378 C   0  0  0  0  0  0  0  0  0  0  0  0
   25.3634  -20.3411  -11.7374 C   0  0  0  0  0  0  0  0  0  0  0  0
   24.1424  -19.7749  -11.4588 C   0  0  0  0  0  0  0  0  0  0  0  0
   23.5229  -19.9557  -10.2165 C   0  0  0  0  0  0  0  0  0  0  0  0
   24.1481  -20.7170   -9.2506 C   0  0  0  0  0  0  0  0  0  0  0  0
   25.3695  -21.2854   -9.5246 C   0  0  0  0  0  0  0  0  0  0  0  0
   25.9720  -21.0974  -10.7613 C   0  0  0  0  0  0  0  0  0  0  0  0
   24.1507  -21.0874  -14.3117 C   0  0  0  0  0  0  0  0  0  0  0  0
   23.7257  -20.1187  -14.9908 O   0  0  0  0  0  0  0  0  0  0  0  0
   23.2141  -22.0257  -13.8327 N   0  0  0  0  0  0  0  0  0  0  0  0
   21.7704  -21.9358  -14.0495 C   0  0  1  0  0  0  0  0  0  0  0  0
   21.1357  -23.2791  -14.0274 C   0  0  0  0  0  0  0  0  0  0  0  0
   19.7196  -23.2151  -14.5194 C   0  0  0  0  0  0  0  0  0  0  0  0
   19.0751  -24.5670  -14.6388 C   0  0  0  0  0  0  0  0  0  0  0  0
   17.6414  -24.4330  -15.0690 C   0  0  0  0  0  0  0  0  0  0  0  0
   17.0159  -25.7527  -14.9840 N   0  0  0  0  0  0  0  0  0  0  0  0
   21.1543  -20.9890  -13.1152 C   0  0  0  0  0  0  0  0  0  0  0  0
   21.2001  -21.2965  -11.8664 O   0  0  0  0  0  0  0  0  0  0  0  0
   20.5323  -19.8081  -13.3939 O   0  0  0  0  0  0  0  0  0  0  0  0
  2  1  1  6
  3  2  1  0
  4  3  1  0
  5  4  2  0
  6  2  1  0
  6  7  2  0
  8  4  1  0
  9  6  1  0
 10  9  1  0
 11 12  1  0
 10 11  1  1
 12 13  2  0
 12 17  1  0
 13 14  1  0
 14 15  2  0
 16 15  1  0
 17 16  2  0
 18 19  2  0
 18 10  1  0
 20 18  1  0
 21 20  1  0
 21 22  1  1
 23 22  1  0
 24 23  1  0
 25 24  1  0
 25 26  1  0
 27 21  1  0
 28 27  2  0
 29 27  1  0
M  END
$$$$
