DFK.pdb
     RDKit          3D

 29 29  0  0  1  0  0  0  0  0999 V2000
   20.2539  -20.1318  -11.9081 N   0  0  0  0  0  0  0  0  0  0  0  0
   21.1719  -20.8609  -12.8493 C   0  0  1  0  0  0  0  0  0  0  0  0
   20.7169  -20.3908  -14.1948 C   0  0  0  0  0  0  0  0  0  0  0  0
   19.4435  -20.8646  -14.6946 C   0  0  0  0  0  0  0  0  0  0  0  0
   18.4756  -20.2313  -15.1331 O   0  0  0  0  0  0  0  0  0  0  0  0
   22.5205  -20.3876  -12.4563 C   0  0  0  0  0  0  0  0  0  0  0  0
   22.7965  -19.1385  -12.5143 O   0  0  0  0  0  0  0  0  0  0  0  0
   19.2828  -22.2811  -14.6778 O   0  0  0  0  0  0  0  0  0  0  0  0
   23.5078  -21.2871  -12.0151 N   0  0  0  0  0  0  0  0  0  0  0  0
   24.8597  -20.8548  -11.6982 C   0  0  1  0  0  0  0  0  0  0  0  0
   25.4480  -21.6632  -10.5750 C   0  0  0  0  0  0  0  0  0  0  0  0
   26.6918  -21.0929  -10.0447 C   0  0  0  0  0  0  0  0  0  0  0  0
   26.6834  -20.1689   -9.0272 C   0  0  0  0  0  0  0  0  0  0  0  0
   27.8735  -19.6287   -8.5252 C   0  0  0  0  0  0  0  0  0  0  0  0
   29.0800  -20.0299   -9.0605 C   0  0  0  0  0  0  0  0  0  0  0  0
   29.0934  -20.9538  -10.0783 C   0  0  0  0  0  0  0  0  0  0  0  0
   27.9053  -21.4811  -10.5662 C   0  0  0  0  0  0  0  0  0  0  0  0
   25.7306  -20.9555  -12.8980 C   0  0  0  0  0  0  0  0  0  0  0  0
   25.7603  -22.0438  -13.5263 O   0  0  0  0  0  0  0  0  0  0  0  0
   26.5271  -19.8927  -13.3702 N   0  0  0  0  0  0  0  0  0  0  0  0
   27.2510  -19.9049  -14.6411 C   0  0  1  0  0  0  0  0  0  0  0  0
   27.7995  -18.5621  -14.9637 C   0  0  0  0  0  0  0  0  0  0  0  0
   28.4515  -18.5559  -16.3151 C   0  0  0  0  0  0  0  0  0  0  0  0
   29.0547  -17.2271  -16.6727 C   0  0  0  0  0  0  0  0  0  0  0  0
   29.7790  -17.3118  -17.9868 C   0  0  0  0  0  0  0  0  0  0  0  0
   30.3695  -16.0028  -18.2658 N   0  0  0  0  0  0  0  0  0  0  0  0
   28.2642  -20.9641  -14.6614 C   0  0  0  0  0  0  0  0  0  0  0  0
   28.9369  -21.1414  -13.5787 O   0  0  0  0  0  0  0  0  0  0  0  0
   28.5936  -21.8009  -15.6861 O   0  0  0  0  0  0  0  0  0  0  0  0
  2  1  1  1
  3  2  1  0
  4  3  1  0
  5  4  2  0
  6  2  1  0
  6  7  2  0
  8  4  1  0
  9  6  1  0
 10  9  1  0
 11 12  1  0
 10 11  1  1
 12 13  2  0
 12 17  1  0
 13 14  1  0
 14 15  2  0
 16 15  1  0
 17 16  2  0
 18 19  2  0
 18 10  1  0
 20 18  1  0
 21 20  1  0
 21 22  1  1
 23 22  1  0
 24 23  1  0
 25 24  1  0
 25 26  1  0
 27 21  1  0
 28 27  2  0
 29 27  1  0
M  END
$$$$
