DFK.pdb
     RDKit          3D

 29 29  0  0  1  0  0  0  0  0999 V2000
   27.4736  -21.7025  -18.2937 N   0  0  0  0  0  0  0  0  0  0  0  0
   27.2244  -20.4450  -17.5083 C   0  0  1  0  0  0  0  0  0  0  0  0
   26.2818  -19.6822  -18.3848 C   0  0  0  0  0  0  0  0  0  0  0  0
   26.8060  -19.0622  -19.5834 C   0  0  0  0  0  0  0  0  0  0  0  0
   27.6544  -18.1713  -19.7122 O   0  0  0  0  0  0  0  0  0  0  0  0
   26.6268  -20.9370  -16.2442 C   0  0  0  0  0  0  0  0  0  0  0  0
   25.8264  -21.9363  -16.2674 O   0  0  0  0  0  0  0  0  0  0  0  0
   26.2578  -19.5571  -20.8028 O   0  0  0  0  0  0  0  0  0  0  0  0
   26.9253  -20.3275  -15.0122 N   0  0  0  0  0  0  0  0  0  0  0  0
   26.2415  -20.6962  -13.7829 C   0  0  1  0  0  0  0  0  0  0  0  0
   26.9696  -20.1824  -12.5716 C   0  0  0  0  0  0  0  0  0  0  0  0
   26.2526  -20.4383  -11.3169 C   0  0  0  0  0  0  0  0  0  0  0  0
   26.0470  -21.7156  -10.8531 C   0  0  0  0  0  0  0  0  0  0  0  0
   25.3626  -21.9534   -9.6552 C   0  0  0  0  0  0  0  0  0  0  0  0
   24.8839  -20.8862   -8.9236 C   0  0  0  0  0  0  0  0  0  0  0  0
   25.0871  -19.6067   -9.3834 C   0  0  0  0  0  0  0  0  0  0  0  0
   25.7677  -19.3860  -10.5733 C   0  0  0  0  0  0  0  0  0  0  0  0
   24.8492  -20.1770  -13.7886 C   0  0  0  0  0  0  0  0  0  0  0  0
   24.6685  -18.9508  -13.9983 O   0  0  0  0  0  0  0  0  0  0  0  0
   23.7174  -20.9885  -13.5711 N   0  0  0  0  0  0  0  0  0  0  0  0
   22.3460  -20.4871  -13.4853 C   0  0  1  0  0  0  0  0  0  0  0  0
   21.5110  -21.0032  -14.6008 C   0  0  0  0  0  0  0  0  0  0  0  0
   20.1528  -20.3653  -14.5981 C   0  0  0  0  0  0  0  0  0  0  0  0
   19.2650  -20.8639  -15.7029 C   0  0  0  0  0  0  0  0  0  0  0  0
   17.9421  -20.1510  -15.6805 C   0  0  0  0  0  0  0  0  0  0  0  0
   17.1746  -20.5799  -16.8496 N   0  0  0  0  0  0  0  0  0  0  0  0
   21.7703  -20.7479  -12.1626 C   0  0  0  0  0  0  0  0  0  0  0  0
   21.3569  -21.9457  -11.9381 O   0  0  0  0  0  0  0  0  0  0  0  0
   21.6134  -19.8812  -11.1219 O   0  0  0  0  0  0  0  0  0  0  0  0
  2  1  1  6
  3  2  1  0
  4  3  1  0
  5  4  2  0
  6  2  1  0
  6  7  2  0
  8  4  1  0
  9  6  1  0
 10  9  1  0
 11 12  1  0
 10 11  1  1
 12 13  2  0
 12 17  1  0
 13 14  1  0
 14 15  2  0
 16 15  1  0
 17 16  2  0
 18 19  2  0
 18 10  1  0
 20 18  1  0
 21 20  1  0
 21 22  1  6
 23 22  1  0
 24 23  1  0
 25 24  1  0
 25 26  1  0
 27 21  1  0
 28 27  2  0
 29 27  1  0
M  END
$$$$
