DFK.pdb
     RDKit          3D

 29 29  0  0  1  0  0  0  0  0999 V2000
   29.6060  -36.8236   -0.8698 N   0  0  0  0  0  0  0  0  0  0  0  0
   28.1351  -36.5131   -0.8630 C   0  0  1  0  0  0  0  0  0  0  0  0
   27.5049  -37.8700   -0.8418 C   0  0  0  0  0  0  0  0  0  0  0  0
   27.3326  -38.5681   -2.0983 C   0  0  0  0  0  0  0  0  0  0  0  0
   27.6388  -38.2259   -3.2469 O   0  0  0  0  0  0  0  0  0  0  0  0
   27.9506  -35.7300    0.3819 C   0  0  0  0  0  0  0  0  0  0  0  0
   28.4136  -36.1788    1.4884 O   0  0  0  0  0  0  0  0  0  0  0  0
   26.7138  -39.8481   -1.9925 O   0  0  0  0  0  0  0  0  0  0  0  0
   27.2767  -34.4954    0.3723 N   0  0  0  0  0  0  0  0  0  0  0  0
   27.0793  -33.7144    1.5831 C   0  0  1  0  0  0  0  0  0  0  0  0
   26.9296  -32.2499    1.2761 C   0  0  0  0  0  0  0  0  0  0  0  0
   26.6517  -31.4373    2.4661 C   0  0  0  0  0  0  0  0  0  0  0  0
   27.5389  -31.3681    3.5135 C   0  0  0  0  0  0  0  0  0  0  0  0
   27.2683  -30.5908    4.6461 C   0  0  0  0  0  0  0  0  0  0  0  0
   26.0885  -29.8791    4.7149 C   0  0  0  0  0  0  0  0  0  0  0  0
   25.1979  -29.9453    3.6697 C   0  0  0  0  0  0  0  0  0  0  0  0
   25.4796  -30.7204    2.5527 C   0  0  0  0  0  0  0  0  0  0  0  0
   25.8834  -34.1966    2.3215 C   0  0  0  0  0  0  0  0  0  0  0  0
   24.7937  -34.2880    1.7015 O   0  0  0  0  0  0  0  0  0  0  0  0
   25.9060  -34.5580    3.6838 N   0  0  0  0  0  0  0  0  0  0  0  0
   24.7375  -35.0132    4.4367 C   0  0  1  0  0  0  0  0  0  0  0  0
   24.9798  -36.3396    5.0610 C   0  0  0  0  0  0  0  0  0  0  0  0
   23.7674  -36.8149    5.8064 C   0  0  0  0  0  0  0  0  0  0  0  0
   23.9869  -38.1192    6.5191 C   0  0  0  0  0  0  0  0  0  0  0  0
   22.7008  -38.6193    7.1145 C   0  0  0  0  0  0  0  0  0  0  0  0
   23.0009  -39.8090    7.9111 N   0  0  0  0  0  0  0  0  0  0  0  0
   24.2971  -33.9945    5.3945 C   0  0  0  0  0  0  0  0  0  0  0  0
   23.0861  -33.5752    5.2765 O   0  0  0  0  0  0  0  0  0  0  0  0
   25.0063  -33.4244    6.4098 O   0  0  0  0  0  0  0  0  0  0  0  0
  2  1  1  1
  3  2  1  0
  4  3  1  0
  5  4  2  0
  6  2  1  0
  6  7  2  0
  8  4  1  0
  9  6  1  0
 10  9  1  0
 11 12  1  0
 10 11  1  6
 12 13  2  0
 12 17  1  0
 13 14  1  0
 14 15  2  0
 16 15  1  0
 17 16  2  0
 18 19  2  0
 18 10  1  0
 20 18  1  0
 21 20  1  0
 21 22  1  1
 23 22  1  0
 24 23  1  0
 25 24  1  0
 25 26  1  0
 27 21  1  0
 28 27  2  0
 29 27  1  0
M  END
$$$$
