DFK.pdb
     RDKit          3D

 29 29  0  0  1  0  0  0  0  0999 V2000
   27.8916  -22.1899  -14.0756 N   0  0  0  0  0  0  0  0  0  0  0  0
   28.0866  -20.8653  -13.3919 C   0  0  1  0  0  0  0  0  0  0  0  0
   27.1613  -19.9601  -14.1421 C   0  0  0  0  0  0  0  0  0  0  0  0
   27.5881  -19.4537  -15.4295 C   0  0  0  0  0  0  0  0  0  0  0  0
   27.3452  -19.8705  -16.5685 O   0  0  0  0  0  0  0  0  0  0  0  0
   27.6824  -21.1339  -11.9913 C   0  0  0  0  0  0  0  0  0  0  0  0
   26.6695  -21.8810  -11.7552 O   0  0  0  0  0  0  0  0  0  0  0  0
   28.4167  -18.2949  -15.3726 O   0  0  0  0  0  0  0  0  0  0  0  0
   28.3949  -20.5847  -10.9100 N   0  0  0  0  0  0  0  0  0  0  0  0
   27.9436  -20.7297   -9.5351 C   0  0  1  0  0  0  0  0  0  0  0  0
   28.9351  -20.1484   -8.5653 C   0  0  0  0  0  0  0  0  0  0  0  0
   28.4413  -20.1212   -7.1835 C   0  0  0  0  0  0  0  0  0  0  0  0
   28.5399  -21.2189   -6.3624 C   0  0  0  0  0  0  0  0  0  0  0  0
   28.0674  -21.1868   -5.0449 C   0  0  0  0  0  0  0  0  0  0  0  0
   27.4909  -20.0316   -4.5585 C   0  0  0  0  0  0  0  0  0  0  0  0
   27.3900  -18.9311   -5.3762 C   0  0  0  0  0  0  0  0  0  0  0  0
   27.8630  -18.9775   -6.6807 C   0  0  0  0  0  0  0  0  0  0  0  0
   26.6215  -20.0766   -9.3521 C   0  0  0  0  0  0  0  0  0  0  0  0
   26.5320  -18.8391   -9.5541 O   0  0  0  0  0  0  0  0  0  0  0  0
   25.4591  -20.7729   -8.9632 N   0  0  0  0  0  0  0  0  0  0  0  0
   24.0974  -20.2673   -9.1352 C   0  0  1  0  0  0  0  0  0  0  0  0
   23.5134  -20.7158  -10.4258 C   0  0  0  0  0  0  0  0  0  0  0  0
   22.1131  -20.2027  -10.5918 C   0  0  0  0  0  0  0  0  0  0  0  0
   21.4536  -20.6855  -11.8524 C   0  0  0  0  0  0  0  0  0  0  0  0
   20.0584  -20.1379  -11.9623 C   0  0  0  0  0  0  0  0  0  0  0  0
   19.4656  -20.6484  -13.1984 N   0  0  0  0  0  0  0  0  0  0  0  0
   23.2620  -20.5962   -7.9764 C   0  0  0  0  0  0  0  0  0  0  0  0
   23.6602  -21.5691   -7.2341 O   0  0  0  0  0  0  0  0  0  0  0  0
   22.1044  -20.0007   -7.5712 O   0  0  0  0  0  0  0  0  0  0  0  0
  2  1  1  6
  3  2  1  0
  4  3  1  0
  5  4  2  0
  6  2  1  0
  6  7  2  0
  8  4  1  0
  9  6  1  0
 10  9  1  0
 11 12  1  0
 10 11  1  1
 12 13  2  0
 12 17  1  0
 13 14  1  0
 14 15  2  0
 16 15  1  0
 17 16  2  0
 18 19  2  0
 18 10  1  0
 20 18  1  0
 21 20  1  0
 21 22  1  6
 23 22  1  0
 24 23  1  0
 25 24  1  0
 25 26  1  0
 27 21  1  0
 28 27  2  0
 29 27  1  0
M  END
$$$$
