DFK.pdb
     RDKit          3D

 29 29  0  0  1  0  0  0  0  0999 V2000
   27.4432  -19.7059  -19.0612 N   0  0  0  0  0  0  0  0  0  0  0  0
   26.7804  -18.7317  -18.1275 C   0  0  1  0  0  0  0  0  0  0  0  0
   25.6007  -18.2587  -18.9169 C   0  0  0  0  0  0  0  0  0  0  0  0
   25.8071  -17.2260  -19.9103 C   0  0  0  0  0  0  0  0  0  0  0  0
   24.9864  -16.6188  -20.6088 O   0  0  0  0  0  0  0  0  0  0  0  0
   26.4381  -19.5596  -16.9466 C   0  0  0  0  0  0  0  0  0  0  0  0
   26.0660  -20.7741  -17.1093 O   0  0  0  0  0  0  0  0  0  0  0  0
   27.1681  -16.8530  -20.1129 O   0  0  0  0  0  0  0  0  0  0  0  0
   26.5173  -19.0366  -15.6433 N   0  0  0  0  0  0  0  0  0  0  0  0
   26.1041  -19.8023  -14.4779 C   0  0  1  0  0  0  0  0  0  0  0  0
   26.7589  -19.2936  -13.2235 C   0  0  0  0  0  0  0  0  0  0  0  0
   26.3221  -20.0048  -12.0164 C   0  0  0  0  0  0  0  0  0  0  0  0
   25.5462  -19.3925  -11.0615 C   0  0  0  0  0  0  0  0  0  0  0  0
   25.1322  -20.0764   -9.9122 C   0  0  0  0  0  0  0  0  0  0  0  0
   25.5090  -21.3912   -9.7319 C   0  0  0  0  0  0  0  0  0  0  0  0
   26.2851  -22.0079  -10.6844 C   0  0  0  0  0  0  0  0  0  0  0  0
   26.6883  -21.3172  -11.8193 C   0  0  0  0  0  0  0  0  0  0  0  0
   24.6266  -19.7576  -14.3258 C   0  0  0  0  0  0  0  0  0  0  0  0
   24.0743  -18.6390  -14.1717 O   0  0  0  0  0  0  0  0  0  0  0  0
   23.8094  -20.9060  -14.3452 N   0  0  0  0  0  0  0  0  0  0  0  0
   22.3685  -20.8982  -14.0938 C   0  0  1  0  0  0  0  0  0  0  0  0
   21.7429  -22.1850  -14.4947 C   0  0  0  0  0  0  0  0  0  0  0  0
   20.2659  -22.1724  -14.2309 C   0  0  0  0  0  0  0  0  0  0  0  0
   19.4537  -21.8079  -15.4412 C   0  0  0  0  0  0  0  0  0  0  0  0
   17.9855  -21.8392  -15.1217 C   0  0  0  0  0  0  0  0  0  0  0  0
   17.2465  -21.5494  -16.3505 N   0  0  0  0  0  0  0  0  0  0  0  0
   22.0764  -20.5195  -12.7081 C   0  0  0  0  0  0  0  0  0  0  0  0
   21.3201  -19.4926  -12.5366 O   0  0  0  0  0  0  0  0  0  0  0  0
   22.5018  -21.1183  -11.5594 O   0  0  0  0  0  0  0  0  0  0  0  0
  2  1  1  6
  3  2  1  0
  4  3  1  0
  5  4  2  0
  6  2  1  0
  6  7  2  0
  8  4  1  0
  9  6  1  0
 10  9  1  0
 11 12  1  0
 10 11  1  1
 12 13  2  0
 12 17  1  0
 13 14  1  0
 14 15  2  0
 16 15  1  0
 17 16  2  0
 18 19  2  0
 18 10  1  0
 20 18  1  0
 21 20  1  0
 21 22  1  1
 23 22  1  0
 24 23  1  0
 25 24  1  0
 25 26  1  0
 27 21  1  0
 28 27  2  0
 29 27  1  0
M  END
$$$$
