DFK.pdb
     RDKit          3D

 29 29  0  0  1  0  0  0  0  0999 V2000
   27.3162  -23.4577  -17.8700 N   0  0  0  0  0  0  0  0  0  0  0  0
   27.1382  -22.0322  -17.4268 C   0  0  1  0  0  0  0  0  0  0  0  0
   26.3290  -21.4342  -18.5340 C   0  0  0  0  0  0  0  0  0  0  0  0
   26.7360  -20.1518  -19.0684 C   0  0  0  0  0  0  0  0  0  0  0  0
   27.7778  -19.8271  -19.6509 O   0  0  0  0  0  0  0  0  0  0  0  0
   26.4184  -22.1562  -16.1369 C   0  0  0  0  0  0  0  0  0  0  0  0
   25.8295  -23.2544  -15.8418 O   0  0  0  0  0  0  0  0  0  0  0  0
   25.7869  -19.1021  -18.8950 O   0  0  0  0  0  0  0  0  0  0  0  0
   26.3717  -21.0875  -15.2236 N   0  0  0  0  0  0  0  0  0  0  0  0
   25.7159  -21.2050  -13.9309 C   0  0  1  0  0  0  0  0  0  0  0  0
   26.3189  -20.2694  -12.9198 C   0  0  0  0  0  0  0  0  0  0  0  0
   25.7567  -20.4351  -11.5744 C   0  0  0  0  0  0  0  0  0  0  0  0
   24.6858  -19.6882  -11.1450 C   0  0  0  0  0  0  0  0  0  0  0  0
   24.1535  -19.8511   -9.8604 C   0  0  0  0  0  0  0  0  0  0  0  0
   24.7130  -20.7790   -9.0064 C   0  0  0  0  0  0  0  0  0  0  0  0
   25.7843  -21.5284   -9.4315 C   0  0  0  0  0  0  0  0  0  0  0  0
   26.3017  -21.3560  -10.7083 C   0  0  0  0  0  0  0  0  0  0  0  0
   24.2611  -20.9324  -14.0612 C   0  0  0  0  0  0  0  0  0  0  0  0
   23.8991  -19.8846  -14.6540 O   0  0  0  0  0  0  0  0  0  0  0  0
   23.2626  -21.7885  -13.5541 N   0  0  0  0  0  0  0  0  0  0  0  0
   21.8285  -21.5052  -13.6043 C   0  0  1  0  0  0  0  0  0  0  0  0
   21.0264  -22.7260  -13.3320 C   0  0  0  0  0  0  0  0  0  0  0  0
   19.5647  -22.4726  -13.5568 C   0  0  0  0  0  0  0  0  0  0  0  0
   18.7011  -23.6510  -13.2062 C   0  0  0  0  0  0  0  0  0  0  0  0
   17.2504  -23.3287  -13.4305 C   0  0  0  0  0  0  0  0  0  0  0  0
   16.4522  -24.4377  -12.9081 N   0  0  0  0  0  0  0  0  0  0  0  0
   21.4822  -20.3787  -12.7324 C   0  0  0  0  0  0  0  0  0  0  0  0
   20.7855  -19.4333  -13.2586 O   0  0  0  0  0  0  0  0  0  0  0  0
   21.8010  -20.1954  -11.4195 O   0  0  0  0  0  0  0  0  0  0  0  0
  2  1  1  6
  3  2  1  0
  4  3  1  0
  5  4  2  0
  6  2  1  0
  6  7  2  0
  8  4  1  0
  9  6  1  0
 10  9  1  0
 11 12  1  0
 10 11  1  1
 12 13  2  0
 12 17  1  0
 13 14  1  0
 14 15  2  0
 16 15  1  0
 17 16  2  0
 18 19  2  0
 18 10  1  0
 20 18  1  0
 21 20  1  0
 21 22  1  1
 23 22  1  0
 24 23  1  0
 25 24  1  0
 25 26  1  0
 27 21  1  0
 28 27  2  0
 29 27  1  0
M  END
$$$$
