DFK.pdb
     RDKit          3D

 29 29  0  0  1  0  0  0  0  0999 V2000
   28.7587  -20.5776  -15.7402 N   0  0  0  0  0  0  0  0  0  0  0  0
   28.2061  -19.8125  -14.5700 C   0  0  1  0  0  0  0  0  0  0  0  0
   27.5101  -18.6590  -15.2206 C   0  0  0  0  0  0  0  0  0  0  0  0
   28.3130  -17.6716  -15.9109 C   0  0  0  0  0  0  0  0  0  0  0  0
   27.9839  -16.5931  -16.4194 O   0  0  0  0  0  0  0  0  0  0  0  0
   27.3011  -20.7861  -13.9140 C   0  0  0  0  0  0  0  0  0  0  0  0
   26.7260  -21.6902  -14.6153 O   0  0  0  0  0  0  0  0  0  0  0  0
   29.6972  -17.9951  -16.0199 O   0  0  0  0  0  0  0  0  0  0  0  0
   27.0623  -20.7391  -12.5286 N   0  0  0  0  0  0  0  0  0  0  0  0
   26.1762  -21.6827  -11.8657 C   0  0  1  0  0  0  0  0  0  0  0  0
   26.7760  -22.1964  -10.5859 C   0  0  0  0  0  0  0  0  0  0  0  0
   26.9219  -21.1570   -9.5602 C   0  0  0  0  0  0  0  0  0  0  0  0
   25.9101  -20.2676   -9.2879 C   0  0  0  0  0  0  0  0  0  0  0  0
   26.0551  -19.2784   -8.3078 C   0  0  0  0  0  0  0  0  0  0  0  0
   27.2359  -19.1924   -7.5997 C   0  0  0  0  0  0  0  0  0  0  0  0
   28.2508  -20.0798   -7.8686 C   0  0  0  0  0  0  0  0  0  0  0  0
   28.0929  -21.0557   -8.8435 C   0  0  0  0  0  0  0  0  0  0  0  0
   24.8618  -21.0493  -11.5845 C   0  0  0  0  0  0  0  0  0  0  0  0
   24.8435  -19.8508  -11.2059 O   0  0  0  0  0  0  0  0  0  0  0  0
   23.6309  -21.7229  -11.7201 N   0  0  0  0  0  0  0  0  0  0  0  0
   22.4297  -21.1362  -12.3137 C   0  0  1  0  0  0  0  0  0  0  0  0
   21.5979  -22.1693  -12.9835 C   0  0  0  0  0  0  0  0  0  0  0  0
   20.3162  -21.5812  -13.4963 C   0  0  0  0  0  0  0  0  0  0  0  0
   19.3713  -22.6130  -14.0437 C   0  0  0  0  0  0  0  0  0  0  0  0
   18.1086  -21.9645  -14.5374 C   0  0  0  0  0  0  0  0  0  0  0  0
   17.2223  -23.0161  -15.0360 N   0  0  0  0  0  0  0  0  0  0  0  0
   21.6870  -20.3443  -11.3287 C   0  0  0  0  0  0  0  0  0  0  0  0
   21.7976  -20.7019  -10.0975 O   0  0  0  0  0  0  0  0  0  0  0  0
   20.8851  -19.2627  -11.5433 O   0  0  0  0  0  0  0  0  0  0  0  0
  2  1  1  6
  3  2  1  0
  4  3  1  0
  5  4  2  0
  6  2  1  0
  6  7  2  0
  8  4  1  0
  9  6  1  0
 10  9  1  0
 11 12  1  0
 10 11  1  1
 12 13  2  0
 12 17  1  0
 13 14  1  0
 14 15  2  0
 16 15  1  0
 17 16  2  0
 18 19  2  0
 18 10  1  0
 20 18  1  0
 21 20  1  0
 21 22  1  1
 23 22  1  0
 24 23  1  0
 25 24  1  0
 25 26  1  0
 27 21  1  0
 28 27  2  0
 29 27  1  0
M  END
$$$$
