DFK.pdb
     RDKit          3D

 29 29  0  0  1  0  0  0  0  0999 V2000
   29.2860  -20.4632  -15.4727 N   0  0  0  0  0  0  0  0  0  0  0  0
   28.4019  -20.4288  -16.6882 C   0  0  1  0  0  0  0  0  0  0  0  0
   28.2227  -21.8778  -17.0149 C   0  0  0  0  0  0  0  0  0  0  0  0
   29.3795  -22.6338  -17.4464 C   0  0  0  0  0  0  0  0  0  0  0  0
   29.8427  -23.6957  -17.0130 O   0  0  0  0  0  0  0  0  0  0  0  0
   27.1748  -19.7508  -16.2066 C   0  0  0  0  0  0  0  0  0  0  0  0
   27.0182  -19.5365  -14.9538 O   0  0  0  0  0  0  0  0  0  0  0  0
   30.0937  -22.0637  -18.5408 O   0  0  0  0  0  0  0  0  0  0  0  0
   26.1748  -19.3324  -17.1030 N   0  0  0  0  0  0  0  0  0  0  0  0
   25.0374  -18.5347  -16.6729 C   0  0  1  0  0  0  0  0  0  0  0  0
   24.9906  -17.2118  -17.3864 C   0  0  0  0  0  0  0  0  0  0  0  0
   26.0156  -16.2700  -16.9215 C   0  0  0  0  0  0  0  0  0  0  0  0
   27.1124  -15.9627  -17.6905 C   0  0  0  0  0  0  0  0  0  0  0  0
   28.0867  -15.0631  -17.2418 C   0  0  0  0  0  0  0  0  0  0  0  0
   27.9457  -14.4717  -16.0034 C   0  0  0  0  0  0  0  0  0  0  0  0
   26.8503  -14.7760  -15.2305 C   0  0  0  0  0  0  0  0  0  0  0  0
   25.8918  -15.6701  -15.6886 C   0  0  0  0  0  0  0  0  0  0  0  0
   23.7692  -19.2739  -16.9037 C   0  0  0  0  0  0  0  0  0  0  0  0
   23.6059  -19.8522  -18.0078 O   0  0  0  0  0  0  0  0  0  0  0  0
   22.7369  -19.3614  -15.9478 N   0  0  0  0  0  0  0  0  0  0  0  0
   21.5012  -20.1213  -16.1343 C   0  0  1  0  0  0  0  0  0  0  0  0
   21.0448  -20.7326  -14.8591 C   0  0  0  0  0  0  0  0  0  0  0  0
   19.7630  -21.4886  -15.0514 C   0  0  0  0  0  0  0  0  0  0  0  0
   19.2013  -22.0329  -13.7686 C   0  0  0  0  0  0  0  0  0  0  0  0
   17.9109  -22.7600  -14.0229 C   0  0  0  0  0  0  0  0  0  0  0  0
   17.2933  -23.0560  -12.7303 N   0  0  0  0  0  0  0  0  0  0  0  0
   20.4725  -19.3048  -16.7855 C   0  0  0  0  0  0  0  0  0  0  0  0
   19.5493  -19.9370  -17.4211 O   0  0  0  0  0  0  0  0  0  0  0  0
   20.3585  -17.9463  -16.8073 O   0  0  0  0  0  0  0  0  0  0  0  0
  2  1  1  1
  3  2  1  0
  4  3  1  0
  5  4  2  0
  6  2  1  0
  6  7  2  0
  8  4  1  0
  9  6  1  0
 10  9  1  0
 11 12  1  0
 10 11  1  6
 12 13  2  0
 12 17  1  0
 13 14  1  0
 14 15  2  0
 16 15  1  0
 17 16  2  0
 18 19  2  0
 18 10  1  0
 20 18  1  0
 21 20  1  0
 21 22  1  1
 23 22  1  0
 24 23  1  0
 25 24  1  0
 25 26  1  0
 27 21  1  0
 28 27  2  0
 29 27  1  0
M  END
$$$$
