DFK.pdb
     RDKit          3D

 29 29  0  0  1  0  0  0  0  0999 V2000
   28.7014  -20.3280  -18.9079 N   0  0  0  0  0  0  0  0  0  0  0  0
   27.7102  -19.3675  -18.3121 C   0  0  1  0  0  0  0  0  0  0  0  0
   26.6593  -19.2678  -19.3724 C   0  0  0  0  0  0  0  0  0  0  0  0
   26.5022  -18.0084  -20.0689 C   0  0  0  0  0  0  0  0  0  0  0  0
   27.3574  -17.2340  -20.5148 O   0  0  0  0  0  0  0  0  0  0  0  0
   27.2691  -20.0479  -17.0712 C   0  0  0  0  0  0  0  0  0  0  0  0
   27.1220  -21.3200  -17.0630 O   0  0  0  0  0  0  0  0  0  0  0  0
   25.1513  -17.6000  -20.2708 O   0  0  0  0  0  0  0  0  0  0  0  0
   27.0107  -19.3213  -15.8950 N   0  0  0  0  0  0  0  0  0  0  0  0
   26.5819  -19.9695  -14.6658 C   0  0  1  0  0  0  0  0  0  0  0  0
   27.1037  -19.2506  -13.4524 C   0  0  0  0  0  0  0  0  0  0  0  0
   26.6606  -19.8543  -12.1903 C   0  0  0  0  0  0  0  0  0  0  0  0
   27.2478  -20.9925  -11.6918 C   0  0  0  0  0  0  0  0  0  0  0  0
   26.8210  -21.5635  -10.4869 C   0  0  0  0  0  0  0  0  0  0  0  0
   25.7908  -20.9741   -9.7838 C   0  0  0  0  0  0  0  0  0  0  0  0
   25.2003  -19.8355  -10.2784 C   0  0  0  0  0  0  0  0  0  0  0  0
   25.6340  -19.2802  -11.4748 C   0  0  0  0  0  0  0  0  0  0  0  0
   25.0988  -20.0401  -14.6074 C   0  0  0  0  0  0  0  0  0  0  0  0
   24.4408  -18.9893  -14.8145 O   0  0  0  0  0  0  0  0  0  0  0  0
   24.3886  -21.2261  -14.3314 N   0  0  0  0  0  0  0  0  0  0  0  0
   22.9304  -21.3187  -14.2646 C   0  0  1  0  0  0  0  0  0  0  0  0
   22.4696  -22.7215  -14.4314 C   0  0  0  0  0  0  0  0  0  0  0  0
   20.9720  -22.7943  -14.4896 C   0  0  0  0  0  0  0  0  0  0  0  0
   20.4540  -24.1999  -14.6052 C   0  0  0  0  0  0  0  0  0  0  0  0
   18.9532  -24.2054  -14.6849 C   0  0  0  0  0  0  0  0  0  0  0  0
   18.5038  -25.5974  -14.7006 N   0  0  0  0  0  0  0  0  0  0  0  0
   22.4161  -20.6812  -13.0489 C   0  0  0  0  0  0  0  0  0  0  0  0
   21.4487  -19.8459  -13.1991 O   0  0  0  0  0  0  0  0  0  0  0  0
   22.8283  -20.8577  -11.7613 O   0  0  0  0  0  0  0  0  0  0  0  0
  2  1  1  6
  3  2  1  0
  4  3  1  0
  5  4  2  0
  6  2  1  0
  6  7  2  0
  8  4  1  0
  9  6  1  0
 10  9  1  0
 11 12  1  0
 10 11  1  1
 12 13  2  0
 12 17  1  0
 13 14  1  0
 14 15  2  0
 16 15  1  0
 17 16  2  0
 18 19  2  0
 18 10  1  0
 20 18  1  0
 21 20  1  0
 21 22  1  1
 23 22  1  0
 24 23  1  0
 25 24  1  0
 25 26  1  0
 27 21  1  0
 28 27  2  0
 29 27  1  0
M  END
$$$$
