GWM.pdb
     RDKit          3D

 27 28  0  0  1  0  0  0  0  0999 V2000
   17.4018  -10.7641  -19.2557 N   0  0  0  0  0  0  0  0  0  0  0  0
   17.9063   -9.4307  -19.1525 C   0  0  0  0  0  0  0  0  0  0  0  0
   18.8468   -9.2570  -18.0157 C   0  0  0  0  0  0  0  0  0  0  0  0
   18.3879   -9.1795  -16.8340 O   0  0  0  0  0  0  0  0  0  0  0  0
   20.2469   -9.1720  -18.1777 N   0  0  0  0  0  0  0  0  0  0  0  0
   21.1689   -9.0655  -17.0803 C   0  0  1  0  0  0  0  0  0  0  0  0
   22.4063   -9.9000  -17.2774 C   0  0  0  0  0  0  0  0  0  0  0  0
   22.1550  -11.3415  -17.1570 C   0  0  0  0  0  0  0  0  0  0  0  0
   21.6328  -12.1310  -18.1531 C   0  0  0  0  0  0  0  0  0  0  0  0
   21.5425  -13.3800  -17.6991 N   0  0  0  0  0  0  0  0  0  0  0  0
   21.9918  -13.4396  -16.4258 C   0  0  0  0  0  0  0  0  0  0  0  0
   22.1196  -14.4559  -15.4988 C   0  0  0  0  0  0  0  0  0  0  0  0
   22.6256  -14.2096  -14.2396 C   0  0  0  0  0  0  0  0  0  0  0  0
   23.0101  -12.9252  -13.9020 C   0  0  0  0  0  0  0  0  0  0  0  0
   22.8988  -11.8857  -14.7968 C   0  0  0  0  0  0  0  0  0  0  0  0
   22.3841  -12.1501  -16.0699 C   0  0  0  0  0  0  0  0  0  0  0  0
   21.5822   -7.6742  -16.8106 C   0  0  0  0  0  0  0  0  0  0  0  0
   21.9159   -6.9232  -17.7511 O   0  0  0  0  0  0  0  0  0  0  0  0
   20.0152   -0.7594  -16.1941 C   0  0  0  0  0  0  0  0  0  0  0  0
   19.9517   -2.5229  -16.5167 S   0  0  0  0  0  0  0  0  0  0  0  0
   21.2034   -3.4265  -15.5229 C   0  0  0  0  0  0  0  0  0  0  0  0
   21.0526   -4.8704  -15.8544 C   0  0  0  0  0  0  0  0  0  0  0  0
   22.0133   -5.7954  -15.1820 C   0  0  2  0  0  0  0  0  0  0  0  0
   21.6058   -7.1742  -15.4889 N   0  0  0  0  0  0  0  0  0  0  0  0
   21.8722   -5.6531  -13.7018 C   0  0  0  0  0  0  0  0  0  0  0  0
   21.2741   -6.5121  -12.9951 O   0  0  0  0  0  0  0  0  0  0  0  0
   22.3890   -4.5666  -13.0018 O   0  0  0  0  0  0  0  0  0  0  0  0
  2  3  1  0
  2  1  1  0
  3  4  2  0
  5  6  1  0
  5  3  1  0
  6  7  1  6
  8  7  1  0
  8 16  1  0
  9  8  2  0
 10  9  1  0
 10 11  1  0
 11 12  1  0
 11 16  2  0
 12 13  2  0
 13 14  1  0
 15 14  2  0
 16 15  1  0
 17  6  1  0
 17 18  2  0
 19 20  1  0
 21 20  1  0
 22 21  1  0
 23 24  1  0
 23 22  1  6
 24 17  1  0
 25 23  1  0
 26 25  2  0
 27 25  1  0
M  END
$$$$
