GWM.pdb
     RDKit          3D

 27 28  0  0  1  0  0  0  0  0999 V2000
   28.4749  -21.5431  -15.4768 N   0  0  0  0  0  0  0  0  0  0  0  0
   27.9773  -20.5608  -14.5653 C   0  0  0  0  0  0  0  0  0  0  0  0
   26.9654  -21.1076  -13.6251 C   0  0  0  0  0  0  0  0  0  0  0  0
   26.4433  -22.2408  -13.8620 O   0  0  0  0  0  0  0  0  0  0  0  0
   26.5440  -20.4264  -12.4622 N   0  0  0  0  0  0  0  0  0  0  0  0
   25.5494  -20.9366  -11.5588 C   0  0  1  0  0  0  0  0  0  0  0  0
   25.7201  -20.4211  -10.1547 C   0  0  0  0  0  0  0  0  0  0  0  0
   27.0426  -20.7155   -9.5891 C   0  0  0  0  0  0  0  0  0  0  0  0
   27.9997  -21.4909  -10.1983 C   0  0  0  0  0  0  0  0  0  0  0  0
   29.0690  -21.5430   -9.4058 N   0  0  0  0  0  0  0  0  0  0  0  0
   28.8458  -20.8214   -8.2850 C   0  0  0  0  0  0  0  0  0  0  0  0
   29.5936  -20.5420   -7.1575 C   0  0  0  0  0  0  0  0  0  0  0  0
   29.0872  -19.7522   -6.1465 C   0  0  0  0  0  0  0  0  0  0  0  0
   27.8113  -19.2331   -6.2655 C   0  0  0  0  0  0  0  0  0  0  0  0
   27.0346  -19.4879   -7.3726 C   0  0  0  0  0  0  0  0  0  0  0  0
   27.5611  -20.2904   -8.3896 C   0  0  0  0  0  0  0  0  0  0  0  0
   24.1707  -20.6451  -11.9987 C   0  0  0  0  0  0  0  0  0  0  0  0
   23.7584  -19.4668  -12.0376 O   0  0  0  0  0  0  0  0  0  0  0  0
   18.3767  -23.2431  -16.2802 C   0  0  0  0  0  0  0  0  0  0  0  0
   19.9736  -23.4030  -15.4786 S   0  0  0  0  0  0  0  0  0  0  0  0
   19.9446  -22.6859  -13.7887 C   0  0  0  0  0  0  0  0  0  0  0  0
   21.3410  -22.7430  -13.2750 C   0  0  0  0  0  0  0  0  0  0  0  0
   21.9347  -21.4370  -12.8595 C   0  0  2  0  0  0  0  0  0  0  0  0
   23.3011  -21.6916  -12.3807 N   0  0  0  0  0  0  0  0  0  0  0  0
   21.1843  -20.9140  -11.6786 C   0  0  0  0  0  0  0  0  0  0  0  0
   20.3099  -20.0086  -11.7815 O   0  0  0  0  0  0  0  0  0  0  0  0
   21.3973  -21.3875  -10.3871 O   0  0  0  0  0  0  0  0  0  0  0  0
  2  3  1  0
  2  1  1  0
  3  4  2  0
  5  6  1  0
  5  3  1  0
  6  7  1  1
  8  7  1  0
  8 16  1  0
  9  8  2  0
 10  9  1  0
 10 11  1  0
 11 12  1  0
 11 16  2  0
 12 13  2  0
 13 14  1  0
 15 14  2  0
 16 15  1  0
 17  6  1  0
 17 18  2  0
 19 20  1  0
 21 20  1  0
 22 21  1  0
 23 24  1  0
 23 22  1  1
 24 17  1  0
 25 23  1  0
 26 25  2  0
 27 25  1  0
M  END
$$$$
