GWM.pdb
     RDKit          3D

 27 28  0  0  1  0  0  0  0  0999 V2000
   27.8488  -18.5417  -14.4001 N   0  0  0  0  0  0  0  0  0  0  0  0
   27.6306  -19.2461  -15.6246 C   0  0  0  0  0  0  0  0  0  0  0  0
   27.0469  -20.5963  -15.4162 C   0  0  0  0  0  0  0  0  0  0  0  0
   27.2980  -21.2242  -14.3412 O   0  0  0  0  0  0  0  0  0  0  0  0
   26.2139  -21.2320  -16.3627 N   0  0  0  0  0  0  0  0  0  0  0  0
   25.6459  -22.5383  -16.1709 C   0  0  1  0  0  0  0  0  0  0  0  0
   24.1526  -22.5566  -16.3615 C   0  0  0  0  0  0  0  0  0  0  0  0
   23.4276  -21.8383  -15.3061 C   0  0  0  0  0  0  0  0  0  0  0  0
   23.6073  -20.5116  -14.9967 C   0  0  0  0  0  0  0  0  0  0  0  0
   22.7887  -20.1965  -13.9943 N   0  0  0  0  0  0  0  0  0  0  0  0
   22.0696  -21.2814  -13.6301 C   0  0  0  0  0  0  0  0  0  0  0  0
   21.1012  -21.5150  -12.6730 C   0  0  0  0  0  0  0  0  0  0  0  0
   20.5303  -22.7624  -12.5293 C   0  0  0  0  0  0  0  0  0  0  0  0
   20.9351  -23.7933  -13.3568 C   0  0  0  0  0  0  0  0  0  0  0  0
   21.8967  -23.6013  -14.3224 C   0  0  0  0  0  0  0  0  0  0  0  0
   22.4666  -22.3314  -14.4567 C   0  0  0  0  0  0  0  0  0  0  0  0
   26.2420  -23.5590  -17.0553 C   0  0  0  0  0  0  0  0  0  0  0  0
   26.5044  -23.2850  -18.2452 O   0  0  0  0  0  0  0  0  0  0  0  0
   31.5393  -24.9643  -16.3733 C   0  0  0  0  0  0  0  0  0  0  0  0
   30.0345  -25.6285  -17.0894 S   0  0  0  0  0  0  0  0  0  0  0  0
   29.0469  -26.5381  -15.8373 C   0  0  0  0  0  0  0  0  0  0  0  0
   27.7613  -26.9074  -16.4914 C   0  0  0  0  0  0  0  0  0  0  0  0
   27.1755  -25.8778  -17.4011 C   0  0  2  0  0  0  0  0  0  0  0  0
   26.5232  -24.8560  -16.5695 N   0  0  0  0  0  0  0  0  0  0  0  0
   26.0821  -26.5024  -18.2045 C   0  0  0  0  0  0  0  0  0  0  0  0
   24.8871  -26.5469  -17.7984 O   0  0  0  0  0  0  0  0  0  0  0  0
   26.3052  -27.0770  -19.4526 O   0  0  0  0  0  0  0  0  0  0  0  0
  2  3  1  0
  2  1  1  0
  3  4  2  0
  5  6  1  0
  5  3  1  0
  6  7  1  6
  8  7  1  0
  8 16  1  0
  9  8  2  0
 10  9  1  0
 10 11  1  0
 11 12  1  0
 11 16  2  0
 12 13  2  0
 13 14  1  0
 15 14  2  0
 16 15  1  0
 17  6  1  0
 17 18  2  0
 19 20  1  0
 21 20  1  0
 22 21  1  0
 23 24  1  0
 23 22  1  1
 24 17  1  0
 25 23  1  0
 26 25  2  0
 27 25  1  0
M  END
$$$$
