GWM.pdb
     RDKit          3D

 27 28  0  0  1  0  0  0  0  0999 V2000
   28.4549  -19.5712  -14.9297 N   0  0  0  0  0  0  0  0  0  0  0  0
   27.7392  -19.0082  -13.8279 C   0  0  0  0  0  0  0  0  0  0  0  0
   26.8526  -19.9915  -13.1541 C   0  0  0  0  0  0  0  0  0  0  0  0
   26.4999  -21.0408  -13.7764 O   0  0  0  0  0  0  0  0  0  0  0  0
   26.3715  -19.8222  -11.8374 N   0  0  0  0  0  0  0  0  0  0  0  0
   25.4344  -20.7151  -11.2128 C   0  0  1  0  0  0  0  0  0  0  0  0
   25.6100  -20.7908   -9.7195 C   0  0  0  0  0  0  0  0  0  0  0  0
   27.0107  -20.9543   -9.3111 C   0  0  0  0  0  0  0  0  0  0  0  0
   27.9645  -21.6260  -10.0372 C   0  0  0  0  0  0  0  0  0  0  0  0
   29.1167  -21.5753   -9.3708 N   0  0  0  0  0  0  0  0  0  0  0  0
   28.9517  -20.8865   -8.2197 C   0  0  0  0  0  0  0  0  0  0  0  0
   29.7912  -20.5402   -7.1786 C   0  0  0  0  0  0  0  0  0  0  0  0
   29.3270  -19.8113   -6.1036 C   0  0  0  0  0  0  0  0  0  0  0  0
   28.0007  -19.4223   -6.0696 C   0  0  0  0  0  0  0  0  0  0  0  0
   27.1326  -19.7471   -7.0868 C   0  0  0  0  0  0  0  0  0  0  0  0
   27.6172  -20.4865   -8.1702 C   0  0  0  0  0  0  0  0  0  0  0  0
   24.0292  -20.3657  -11.5005 C   0  0  0  0  0  0  0  0  0  0  0  0
   23.5654  -19.2669  -11.1300 O   0  0  0  0  0  0  0  0  0  0  0  0
   22.4966  -21.0386  -17.1295 C   0  0  0  0  0  0  0  0  0  0  0  0
   21.1618  -19.9528  -16.6218 S   0  0  0  0  0  0  0  0  0  0  0  0
   20.7327  -20.2074  -14.8549 C   0  0  0  0  0  0  0  0  0  0  0  0
   21.9909  -20.5966  -14.1602 C   0  0  0  0  0  0  0  0  0  0  0  0
   21.8669  -20.8742  -12.6980 C   0  0  2  0  0  0  0  0  0  0  0  0
   23.1921  -21.2667  -12.1968 N   0  0  0  0  0  0  0  0  0  0  0  0
   20.9912  -22.0681  -12.5009 C   0  0  0  0  0  0  0  0  0  0  0  0
   21.4431  -23.2472  -12.5206 O   0  0  0  0  0  0  0  0  0  0  0  0
   19.6205  -21.9629  -12.2829 O   0  0  0  0  0  0  0  0  0  0  0  0
  2  3  1  0
  2  1  1  0
  3  4  2  0
  5  6  1  0
  5  3  1  0
  6  7  1  1
  8  7  1  0
  8 16  1  0
  9  8  2  0
 10  9  1  0
 10 11  1  0
 11 12  1  0
 11 16  2  0
 12 13  2  0
 13 14  1  0
 15 14  2  0
 16 15  1  0
 17  6  1  0
 17 18  2  0
 19 20  1  0
 21 20  1  0
 22 21  1  0
 23 24  1  0
 23 22  1  6
 24 17  1  0
 25 23  1  0
 26 25  2  0
 27 25  1  0
M  END
$$$$
