GWM.pdb
     RDKit          3D

 27 28  0  0  1  0  0  0  0  0999 V2000
   24.1194  -25.0802  -14.9526 N   0  0  0  0  0  0  0  0  0  0  0  0
   24.0445  -23.6605  -14.8045 C   0  0  0  0  0  0  0  0  0  0  0  0
   24.7340  -23.1716  -13.5828 C   0  0  0  0  0  0  0  0  0  0  0  0
   25.2502  -24.0105  -12.7811 O   0  0  0  0  0  0  0  0  0  0  0  0
   24.8502  -21.8026  -13.2570 N   0  0  0  0  0  0  0  0  0  0  0  0
   25.5943  -21.3146  -12.1284 C   0  0  1  0  0  0  0  0  0  0  0  0
   26.1889  -19.9526  -12.3690 C   0  0  0  0  0  0  0  0  0  0  0  0
   27.6210  -19.9969  -12.6894 C   0  0  0  0  0  0  0  0  0  0  0  0
   28.1963  -19.4035  -13.7873 C   0  0  0  0  0  0  0  0  0  0  0  0
   29.5059  -19.6447  -13.7607 N   0  0  0  0  0  0  0  0  0  0  0  0
   29.8149  -20.3840  -12.6721 C   0  0  0  0  0  0  0  0  0  0  0  0
   30.9903  -20.9049  -12.1668 C   0  0  0  0  0  0  0  0  0  0  0  0
   30.9977  -21.6420  -11.0010 C   0  0  0  0  0  0  0  0  0  0  0  0
   29.8092  -21.8615  -10.3295 C   0  0  0  0  0  0  0  0  0  0  0  0
   28.6174  -21.3596  -10.8000 C   0  0  0  0  0  0  0  0  0  0  0  0
   28.6251  -20.6142  -11.9831 C   0  0  0  0  0  0  0  0  0  0  0  0
   24.7914  -21.2615  -10.8908 C   0  0  0  0  0  0  0  0  0  0  0  0
   23.5494  -21.3839  -10.9406 O   0  0  0  0  0  0  0  0  0  0  0  0
   27.0207  -18.4374   -5.5547 C   0  0  0  0  0  0  0  0  0  0  0  0
   26.2314  -19.8653   -4.8087 S   0  0  0  0  0  0  0  0  0  0  0  0
   24.9600  -20.5807   -5.9234 C   0  0  0  0  0  0  0  0  0  0  0  0
   25.5447  -20.5856   -7.2928 C   0  0  0  0  0  0  0  0  0  0  0  0
   24.6608  -21.1128   -8.3751 C   0  0  2  0  0  0  0  0  0  0  0  0
   25.4146  -21.0721   -9.6366 N   0  0  0  0  0  0  0  0  0  0  0  0
   23.5098  -20.1794   -8.5626 C   0  0  0  0  0  0  0  0  0  0  0  0
   23.5735  -19.1737   -9.3238 O   0  0  0  0  0  0  0  0  0  0  0  0
   22.2914  -20.3537   -7.9125 O   0  0  0  0  0  0  0  0  0  0  0  0
  2  3  1  0
  2  1  1  0
  3  4  2  0
  5  6  1  0
  5  3  1  0
  6  7  1  6
  8  7  1  0
  8 16  1  0
  9  8  2  0
 10  9  1  0
 10 11  1  0
 11 12  1  0
 11 16  2  0
 12 13  2  0
 13 14  1  0
 15 14  2  0
 16 15  1  0
 17  6  1  0
 17 18  2  0
 19 20  1  0
 21 20  1  0
 22 21  1  0
 23 24  1  0
 23 22  1  1
 24 17  1  0
 25 23  1  0
 26 25  2  0
 27 25  1  0
M  END
$$$$
