GWM.pdb
     RDKit          3D

 27 28  0  0  1  0  0  0  0  0999 V2000
   28.4838  -21.0459  -15.6249 N   0  0  0  0  0  0  0  0  0  0  0  0
   28.0561  -20.2222  -14.5378 C   0  0  0  0  0  0  0  0  0  0  0  0
   27.0741  -20.9002  -13.6530 C   0  0  0  0  0  0  0  0  0  0  0  0
   26.7339  -22.0980  -13.9027 O   0  0  0  0  0  0  0  0  0  0  0  0
   26.4873  -20.2770  -12.5299 N   0  0  0  0  0  0  0  0  0  0  0  0
   25.4959  -20.9049  -11.7003 C   0  0  1  0  0  0  0  0  0  0  0  0
   25.5575  -20.4419  -10.2691 C   0  0  0  0  0  0  0  0  0  0  0  0
   26.8552  -20.7027   -9.6339 C   0  0  0  0  0  0  0  0  0  0  0  0
   27.8873  -21.3967  -10.2181 C   0  0  0  0  0  0  0  0  0  0  0  0
   28.9060  -21.4403   -9.3610 N   0  0  0  0  0  0  0  0  0  0  0  0
   28.5760  -20.7924   -8.2217 C   0  0  0  0  0  0  0  0  0  0  0  0
   29.2361  -20.5391   -7.0348 C   0  0  0  0  0  0  0  0  0  0  0  0
   28.6271  -19.8308   -6.0201 C   0  0  0  0  0  0  0  0  0  0  0  0
   27.3361  -19.3681   -6.1956 C   0  0  0  0  0  0  0  0  0  0  0  0
   26.6447  -19.5994   -7.3627 C   0  0  0  0  0  0  0  0  0  0  0  0
   27.2747  -20.3189   -8.3829 C   0  0  0  0  0  0  0  0  0  0  0  0
   24.1204  -20.7038  -12.1972 C   0  0  0  0  0  0  0  0  0  0  0  0
   23.7016  -19.5529  -12.4418 O   0  0  0  0  0  0  0  0  0  0  0  0
   21.3467  -25.8468  -14.3184 C   0  0  0  0  0  0  0  0  0  0  0  0
   20.1032  -24.7520  -15.0064 S   0  0  0  0  0  0  0  0  0  0  0  0
   20.2705  -23.0508  -14.3366 C   0  0  0  0  0  0  0  0  0  0  0  0
   21.6050  -22.9782  -13.6800 C   0  0  0  0  0  0  0  0  0  0  0  0
   21.9512  -21.6669  -13.0546 C   0  0  2  0  0  0  0  0  0  0  0  0
   23.2613  -21.8071  -12.4024 N   0  0  0  0  0  0  0  0  0  0  0  0
   20.9818  -21.3801  -11.9549 C   0  0  0  0  0  0  0  0  0  0  0  0
   19.9709  -20.6418  -12.1217 O   0  0  0  0  0  0  0  0  0  0  0  0
   21.1263  -21.9057  -10.6741 O   0  0  0  0  0  0  0  0  0  0  0  0
  2  3  1  0
  2  1  1  0
  3  4  2  0
  5  6  1  0
  5  3  1  0
  6  7  1  1
  8  7  1  0
  8 16  1  0
  9  8  2  0
 10  9  1  0
 10 11  1  0
 11 12  1  0
 11 16  2  0
 12 13  2  0
 13 14  1  0
 15 14  2  0
 16 15  1  0
 17  6  1  0
 17 18  2  0
 19 20  1  0
 21 20  1  0
 22 21  1  0
 23 24  1  0
 23 22  1  1
 24 17  1  0
 25 23  1  0
 26 25  2  0
 27 25  1  0
M  END
$$$$
