GWM.pdb
     RDKit          3D

 27 28  0  0  1  0  0  0  0  0999 V2000
   29.0044  -21.2644  -14.9255 N   0  0  0  0  0  0  0  0  0  0  0  0
   28.4128  -20.3096  -14.0414 C   0  0  0  0  0  0  0  0  0  0  0  0
   27.3724  -20.9047  -13.1636 C   0  0  0  0  0  0  0  0  0  0  0  0
   26.8167  -21.9939  -13.5066 O   0  0  0  0  0  0  0  0  0  0  0  0
   26.9594  -20.3173  -11.9478 N   0  0  0  0  0  0  0  0  0  0  0  0
   25.8991  -20.8418  -11.1316 C   0  0  1  0  0  0  0  0  0  0  0  0
   25.9581  -20.3449   -9.7117 C   0  0  0  0  0  0  0  0  0  0  0  0
   27.2166  -20.6818   -9.0347 C   0  0  0  0  0  0  0  0  0  0  0  0
   28.2015  -21.4798   -9.5650 C   0  0  0  0  0  0  0  0  0  0  0  0
   29.1947  -21.5690   -8.6819 N   0  0  0  0  0  0  0  0  0  0  0  0
   28.8936  -20.8499   -7.5778 C   0  0  0  0  0  0  0  0  0  0  0  0
   29.5464  -20.6010   -6.3860 C   0  0  0  0  0  0  0  0  0  0  0  0
   28.9749  -19.8046   -5.4156 C   0  0  0  0  0  0  0  0  0  0  0  0
   27.7297  -19.2480   -5.6413 C   0  0  0  0  0  0  0  0  0  0  0  0
   27.0471  -19.4716   -6.8151 C   0  0  0  0  0  0  0  0  0  0  0  0
   27.6387  -20.2811   -7.7899 C   0  0  0  0  0  0  0  0  0  0  0  0
   24.5579  -20.5473  -11.6738 C   0  0  0  0  0  0  0  0  0  0  0  0
   24.2645  -19.3872  -12.0316 O   0  0  0  0  0  0  0  0  0  0  0  0
   18.5036  -24.4923  -14.9164 C   0  0  0  0  0  0  0  0  0  0  0  0
   20.0415  -24.3977  -13.9976 S   0  0  0  0  0  0  0  0  0  0  0  0
   20.4011  -22.6739  -13.4779 C   0  0  0  0  0  0  0  0  0  0  0  0
   21.7670  -22.6813  -12.8851 C   0  0  0  0  0  0  0  0  0  0  0  0
   22.3005  -21.3510  -12.4651 C   0  0  2  0  0  0  0  0  0  0  0  0
   23.5906  -21.5705  -11.7953 N   0  0  0  0  0  0  0  0  0  0  0  0
   21.3994  -20.7706  -11.4247 C   0  0  0  0  0  0  0  0  0  0  0  0
   21.5303  -21.0325  -10.1963 O   0  0  0  0  0  0  0  0  0  0  0  0
   20.3562  -19.9038  -11.7375 O   0  0  0  0  0  0  0  0  0  0  0  0
  2  3  1  0
  2  1  1  0
  3  4  2  0
  5  6  1  0
  5  3  1  0
  6  7  1  1
  8  7  1  0
  8 16  1  0
  9  8  2  0
 10  9  1  0
 10 11  1  0
 11 12  1  0
 11 16  2  0
 12 13  2  0
 13 14  1  0
 15 14  2  0
 16 15  1  0
 17  6  1  0
 17 18  2  0
 19 20  1  0
 21 20  1  0
 22 21  1  0
 23 24  1  0
 23 22  1  1
 24 17  1  0
 25 23  1  0
 26 25  2  0
 27 25  1  0
M  END
$$$$
