GWM.pdb
     RDKit          3D

 27 28  0  0  1  0  0  0  0  0999 V2000
   28.6567  -17.9942  -14.3109 N   0  0  0  0  0  0  0  0  0  0  0  0
   27.4697  -17.9258  -13.5175 C   0  0  0  0  0  0  0  0  0  0  0  0
   26.8414  -19.2551  -13.3052 C   0  0  0  0  0  0  0  0  0  0  0  0
   27.1332  -20.2137  -14.0854 O   0  0  0  0  0  0  0  0  0  0  0  0
   25.9219  -19.5177  -12.2661 N   0  0  0  0  0  0  0  0  0  0  0  0
   25.2156  -20.7614  -12.1255 C   0  0  1  0  0  0  0  0  0  0  0  0
   25.1379  -21.2275  -10.6961 C   0  0  0  0  0  0  0  0  0  0  0  0
   26.2992  -20.8234   -9.8938 C   0  0  0  0  0  0  0  0  0  0  0  0
   26.2297  -20.1255   -8.7121 C   0  0  0  0  0  0  0  0  0  0  0  0
   27.4682  -19.9331   -8.2612 N   0  0  0  0  0  0  0  0  0  0  0  0
   28.3588  -20.4861   -9.1144 C   0  0  0  0  0  0  0  0  0  0  0  0
   29.7369  -20.5792   -9.1373 C   0  0  0  0  0  0  0  0  0  0  0  0
   30.3888  -21.2221  -10.1688 C   0  0  0  0  0  0  0  0  0  0  0  0
   29.6495  -21.7813  -11.1947 C   0  0  0  0  0  0  0  0  0  0  0  0
   28.2753  -21.7101  -11.2086 C   0  0  0  0  0  0  0  0  0  0  0  0
   27.6280  -21.0552  -10.1562 C   0  0  0  0  0  0  0  0  0  0  0  0
   23.8463  -20.7093  -12.6746 C   0  0  0  0  0  0  0  0  0  0  0  0
   23.0642  -19.7986  -12.3300 O   0  0  0  0  0  0  0  0  0  0  0  0
   24.1047  -24.0109  -17.2735 C   0  0  0  0  0  0  0  0  0  0  0  0
   23.5208  -22.4744  -17.9922 S   0  0  0  0  0  0  0  0  0  0  0  0
   22.8621  -21.3450  -16.7032 C   0  0  0  0  0  0  0  0  0  0  0  0
   22.2690  -22.2052  -15.6424 C   0  0  0  0  0  0  0  0  0  0  0  0
   22.1176  -21.5697  -14.2993 C   0  0  2  0  0  0  0  0  0  0  0  0
   23.4027  -21.6860  -13.5949 N   0  0  0  0  0  0  0  0  0  0  0  0
   21.1419  -22.3620  -13.4921 C   0  0  0  0  0  0  0  0  0  0  0  0
   21.4391  -23.4766  -12.9781 O   0  0  0  0  0  0  0  0  0  0  0  0
   19.8416  -21.9271  -13.2522 O   0  0  0  0  0  0  0  0  0  0  0  0
  2  3  1  0
  2  1  1  0
  3  4  2  0
  5  6  1  0
  5  3  1  0
  6  7  1  1
  8  7  1  0
  8 16  1  0
  9  8  2  0
 10  9  1  0
 10 11  1  0
 11 12  1  0
 11 16  2  0
 12 13  2  0
 13 14  1  0
 15 14  2  0
 16 15  1  0
 17  6  1  0
 17 18  2  0
 19 20  1  0
 21 20  1  0
 22 21  1  0
 23 24  1  0
 23 22  1  6
 24 17  1  0
 25 23  1  0
 26 25  2  0
 27 25  1  0
M  END
$$$$
