GWM.pdb
     RDKit          3D

 27 28  0  0  1  0  0  0  0  0999 V2000
   21.0027  -20.8627  -11.9245 N   0  0  0  0  0  0  0  0  0  0  0  0
   22.1302  -21.7413  -11.9199 C   0  0  0  0  0  0  0  0  0  0  0  0
   23.4246  -21.0177  -12.0091 C   0  0  0  0  0  0  0  0  0  0  0  0
   23.4329  -19.7971  -12.3598 O   0  0  0  0  0  0  0  0  0  0  0  0
   24.6682  -21.6211  -11.7205 N   0  0  0  0  0  0  0  0  0  0  0  0
   25.9284  -20.9403  -11.8393 C   0  0  1  0  0  0  0  0  0  0  0  0
   26.9613  -21.4564  -10.8732 C   0  0  0  0  0  0  0  0  0  0  0  0
   26.8607  -20.8469   -9.5413 C   0  0  0  0  0  0  0  0  0  0  0  0
   25.7405  -20.2212   -9.0493 C   0  0  0  0  0  0  0  0  0  0  0  0
   26.0040  -19.7900   -7.8169 N   0  0  0  0  0  0  0  0  0  0  0  0
   27.2717  -20.1138   -7.4781 C   0  0  0  0  0  0  0  0  0  0  0  0
   28.0452  -19.9155   -6.3508 C   0  0  0  0  0  0  0  0  0  0  0  0
   29.3459  -20.3708   -6.2922 C   0  0  0  0  0  0  0  0  0  0  0  0
   29.8816  -21.0357   -7.3797 C   0  0  0  0  0  0  0  0  0  0  0  0
   29.1440  -21.2532   -8.5208 C   0  0  0  0  0  0  0  0  0  0  0  0
   27.8267  -20.7860   -8.5660 C   0  0  0  0  0  0  0  0  0  0  0  0
   26.4903  -21.0062  -13.2028 C   0  0  0  0  0  0  0  0  0  0  0  0
   26.3953  -22.0561  -13.8726 O   0  0  0  0  0  0  0  0  0  0  0  0
   27.2328  -15.3739  -16.1275 C   0  0  0  0  0  0  0  0  0  0  0  0
   28.5048  -16.2758  -17.0144 S   0  0  0  0  0  0  0  0  0  0  0  0
   28.2406  -18.0888  -16.8955 C   0  0  0  0  0  0  0  0  0  0  0  0
   27.8451  -18.3726  -15.4883 C   0  0  0  0  0  0  0  0  0  0  0  0
   27.3686  -19.7614  -15.2145 C   0  0  2  0  0  0  0  0  0  0  0  0
   27.1414  -19.8861  -13.7675 N   0  0  0  0  0  0  0  0  0  0  0  0
   28.4641  -20.7249  -15.5354 C   0  0  0  0  0  0  0  0  0  0  0  0
   28.6383  -21.1859  -16.6981 O   0  0  0  0  0  0  0  0  0  0  0  0
   29.3653  -21.1795  -14.5769 O   0  0  0  0  0  0  0  0  0  0  0  0
  2  3  1  0
  2  1  1  0
  3  4  2  0
  5  6  1  0
  5  3  1  0
  6  7  1  1
  8  7  1  0
  8 16  1  0
  9  8  2  0
 10  9  1  0
 10 11  1  0
 11 12  1  0
 11 16  2  0
 12 13  2  0
 13 14  1  0
 15 14  2  0
 16 15  1  0
 17  6  1  0
 17 18  2  0
 19 20  1  0
 21 20  1  0
 22 21  1  0
 23 24  1  0
 23 22  1  1
 24 17  1  0
 25 23  1  0
 26 25  2  0
 27 25  1  0
M  END
$$$$
