GWM.pdb
     RDKit          3D

 27 28  0  0  1  0  0  0  0  0999 V2000
   26.1936  -25.1164  -15.9127 N   0  0  0  0  0  0  0  0  0  0  0  0
   25.7346  -23.8307  -16.3366 C   0  0  0  0  0  0  0  0  0  0  0  0
   25.4890  -22.9038  -15.2020 C   0  0  0  0  0  0  0  0  0  0  0  0
   25.5220  -23.3513  -14.0139 O   0  0  0  0  0  0  0  0  0  0  0  0
   25.2164  -21.5289  -15.3730 N   0  0  0  0  0  0  0  0  0  0  0  0
   24.8770  -20.6455  -14.2913 C   0  0  1  0  0  0  0  0  0  0  0  0
   25.3326  -19.2308  -14.5312 C   0  0  0  0  0  0  0  0  0  0  0  0
   26.6920  -19.1478  -15.0796 C   0  0  0  0  0  0  0  0  0  0  0  0
   27.6149  -20.1652  -15.0415 C   0  0  0  0  0  0  0  0  0  0  0  0
   28.7337  -19.7434  -15.6287 N   0  0  0  0  0  0  0  0  0  0  0  0
   28.5766  -18.4708  -16.0559 C   0  0  0  0  0  0  0  0  0  0  0  0
   29.3935  -17.5696  -16.7109 C   0  0  0  0  0  0  0  0  0  0  0  0
   28.9466  -16.3030  -17.0247 C   0  0  0  0  0  0  0  0  0  0  0  0
   27.6608  -15.9318  -16.6775 C   0  0  0  0  0  0  0  0  0  0  0  0
   26.8162  -16.8002  -16.0246 C   0  0  0  0  0  0  0  0  0  0  0  0
   27.2829  -18.0810  -15.7128 C   0  0  0  0  0  0  0  0  0  0  0  0
   23.4304  -20.6266  -13.9977 C   0  0  0  0  0  0  0  0  0  0  0  0
   22.6039  -20.9208  -14.8867 O   0  0  0  0  0  0  0  0  0  0  0  0
   18.0241  -23.0673  -10.3846 C   0  0  0  0  0  0  0  0  0  0  0  0
   19.6886  -22.6605  -10.9159 S   0  0  0  0  0  0  0  0  0  0  0  0
   20.2334  -21.0502  -10.2226 C   0  0  0  0  0  0  0  0  0  0  0  0
   21.5631  -20.7530  -10.8234 C   0  0  0  0  0  0  0  0  0  0  0  0
   21.5705  -20.5067  -12.2964 C   0  0  2  0  0  0  0  0  0  0  0  0
   22.9621  -20.2767  -12.7110 N   0  0  0  0  0  0  0  0  0  0  0  0
   20.8486  -19.2303  -12.5810 C   0  0  0  0  0  0  0  0  0  0  0  0
   19.5926  -19.1315  -12.4943 O   0  0  0  0  0  0  0  0  0  0  0  0
   21.5094  -18.0654  -12.9604 O   0  0  0  0  0  0  0  0  0  0  0  0
  2  3  1  0
  2  1  1  0
  3  4  2  0
  5  6  1  0
  5  3  1  0
  6  7  1  6
  8  7  1  0
  8 16  1  0
  9  8  2  0
 10  9  1  0
 10 11  1  0
 11 12  1  0
 11 16  2  0
 12 13  2  0
 13 14  1  0
 15 14  2  0
 16 15  1  0
 17  6  1  0
 17 18  2  0
 19 20  1  0
 21 20  1  0
 22 21  1  0
 23 24  1  0
 23 22  1  1
 24 17  1  0
 25 23  1  0
 26 25  2  0
 27 25  1  0
M  END
$$$$
