DIR.pdb
     RDKit          3D

 28 27  0  0  1  0  0  0  0  0999 V2000
   20.8186  -20.8361  -13.4276 N   0  0  0  0  0  0  0  0  0  0  0  0
   21.9606  -21.7123  -13.3572 C   0  0  1  0  0  0  0  0  0  0  0  0
   22.0530  -22.6014  -14.5885 C   0  0  0  0  0  0  0  0  0  0  0  0
   20.9466  -23.5634  -14.5640 C   0  0  0  0  0  0  0  0  0  0  0  0
   20.1502  -23.5811  -13.6161 O   0  0  0  0  0  0  0  0  0  0  0  0
   23.1969  -20.8682  -13.3656 C   0  0  0  0  0  0  0  0  0  0  0  0
   23.1083  -19.6272  -13.5954 O   0  0  0  0  0  0  0  0  0  0  0  0
   20.8161  -24.4538  -15.6320 O   0  0  0  0  0  0  0  0  0  0  0  0
   26.5421  -21.5083   -9.3879 C   0  0  0  0  0  0  0  0  0  0  0  0
   25.7752  -20.9226  -10.5422 C   0  0  0  0  0  0  0  0  0  0  0  0
   26.4582  -21.0942  -11.8490 C   0  0  2  0  0  0  0  0  0  0  0  0
   27.7964  -20.3707  -11.8108 C   0  0  0  0  0  0  0  0  0  0  0  0
   25.6392  -20.5998  -13.0423 C   0  0  2  0  0  0  0  0  0  0  0  0
   24.4480  -21.4526  -13.1193 N   0  0  0  0  0  0  0  0  0  0  0  0
   26.4082  -20.7317  -14.3106 C   0  0  0  0  0  0  0  0  0  0  0  0
   27.2986  -19.8319  -14.5449 O   0  0  0  0  0  0  0  0  0  0  0  0
   29.3365  -27.3201  -15.8047 N   0  0  0  0  0  0  0  0  0  0  0  0
   28.3038  -26.7966  -16.6272 C   0  0  0  0  0  0  0  0  0  0  0  0
   27.2577  -27.5224  -16.8350 N   0  0  0  0  0  0  0  0  0  0  0  0
   28.3501  -25.5166  -17.2394 N   0  0  0  0  0  0  0  0  0  0  0  0
   29.4033  -24.5503  -16.9143 C   0  0  0  0  0  0  0  0  0  0  0  0
   28.7928  -23.2767  -16.3529 C   0  0  0  0  0  0  0  0  0  0  0  0
   27.4934  -22.9462  -17.0204 C   0  0  0  0  0  0  0  0  0  0  0  0
   26.9493  -21.6020  -16.5849 C   0  0  2  0  0  0  0  0  0  0  0  0
   26.2798  -21.7229  -15.2786 N   0  0  0  0  0  0  0  0  0  0  0  0
   25.9725  -21.1826  -17.6174 C   0  0  0  0  0  0  0  0  0  0  0  0
   24.7599  -21.4307  -17.4219 O   0  0  0  0  0  0  0  0  0  0  0  0
   26.3200  -20.5320  -18.7870 O   0  0  0  0  0  0  0  0  0  0  0  0
  2  1  1  6
  2  3  1  0
  4  3  1  0
  5  4  2  0
  6  2  1  0
  7  6  2  0
  8  4  1  0
  9 10  1  0
 10 11  1  0
 11 12  1  1
 13 11  1  0
 13 14  1  6
 14  6  1  0
 15 13  1  0
 16 15  2  0
 18 19  2  0
 18 17  1  0
 20 18  1  0
 21 20  1  0
 22 21  1  0
 22 23  1  0
 24 23  1  6
 24 25  1  0
 25 15  1  0
 26 24  1  0
 26 28  1  0
 27 26  2  0
M  END
$$$$
