DIR.pdb
     RDKit          3D

 28 27  0  0  1  0  0  0  0  0999 V2000
   28.4564  -21.4630  -17.7583 N   0  0  0  0  0  0  0  0  0  0  0  0
   27.7694  -20.5266  -16.9049 C   0  0  1  0  0  0  0  0  0  0  0  0
   26.5691  -19.9125  -17.6101 C   0  0  0  0  0  0  0  0  0  0  0  0
   27.0469  -19.0009  -18.6546 C   0  0  0  0  0  0  0  0  0  0  0  0
   26.7093  -19.1650  -19.8344 O   0  0  0  0  0  0  0  0  0  0  0  0
   27.2180  -21.2802  -15.7348 C   0  0  0  0  0  0  0  0  0  0  0  0
   26.9301  -22.5062  -15.8568 O   0  0  0  0  0  0  0  0  0  0  0  0
   27.8880  -17.9490  -18.2849 O   0  0  0  0  0  0  0  0  0  0  0  0
   29.3736  -20.3459  -10.9816 C   0  0  0  0  0  0  0  0  0  0  0  0
   28.6746  -21.0457  -12.1153 C   0  0  0  0  0  0  0  0  0  0  0  0
   27.2052  -20.8342  -12.1197 C   0  0  2  0  0  0  0  0  0  0  0  0
   26.6067  -21.4673  -10.8721 C   0  0  0  0  0  0  0  0  0  0  0  0
   26.5067  -21.3863  -13.3632 C   0  0  2  0  0  0  0  0  0  0  0  0
   27.0218  -20.6279  -14.5087 N   0  0  0  0  0  0  0  0  0  0  0  0
   25.0329  -21.1907  -13.2803 C   0  0  0  0  0  0  0  0  0  0  0  0
   24.5885  -20.0125  -13.5480 O   0  0  0  0  0  0  0  0  0  0  0  0
   17.6188  -18.8443  -12.1802 N   0  0  0  0  0  0  0  0  0  0  0  0
   18.0825  -19.2133  -10.8894 C   0  0  0  0  0  0  0  0  0  0  0  0
   17.2102  -19.4903   -9.9803 N   0  0  0  0  0  0  0  0  0  0  0  0
   19.4544  -19.2972  -10.5340 N   0  0  0  0  0  0  0  0  0  0  0  0
   20.5154  -19.0184  -11.5062 C   0  0  0  0  0  0  0  0  0  0  0  0
   20.8356  -20.2694  -12.3077 C   0  0  0  0  0  0  0  0  0  0  0  0
   22.2922  -20.6112  -12.2397 C   0  0  0  0  0  0  0  0  0  0  0  0
   22.6337  -21.8372  -13.0599 C   0  0  2  0  0  0  0  0  0  0  0  0
   24.0709  -22.1398  -12.9489 N   0  0  0  0  0  0  0  0  0  0  0  0
   22.2907  -21.5187  -14.4659 C   0  0  0  0  0  0  0  0  0  0  0  0
   21.0852  -21.3375  -14.7557 O   0  0  0  0  0  0  0  0  0  0  0  0
   23.2241  -21.4091  -15.4803 O   0  0  0  0  0  0  0  0  0  0  0  0
  2  1  1  6
  2  3  1  0
  4  3  1  0
  5  4  2  0
  6  2  1  0
  7  6  2  0
  8  4  1  0
  9 10  1  0
 10 11  1  0
 11 12  1  1
 13 11  1  0
 13 14  1  6
 14  6  1  0
 15 13  1  0
 16 15  2  0
 18 19  2  0
 18 17  1  0
 20 18  1  0
 21 20  1  0
 22 21  1  0
 22 23  1  0
 24 23  1  1
 24 25  1  0
 25 15  1  0
 26 24  1  0
 26 28  1  0
 27 26  2  0
M  END
$$$$
