DIR.pdb
     RDKit          3D

 28 27  0  0  1  0  0  0  0  0999 V2000
   28.8863  -20.6998  -15.1687 N   0  0  0  0  0  0  0  0  0  0  0  0
   28.1473  -19.7751  -14.3465 C   0  0  1  0  0  0  0  0  0  0  0  0
   27.3329  -18.8093  -15.1944 C   0  0  0  0  0  0  0  0  0  0  0  0
   28.2461  -17.8737  -15.8586 C   0  0  0  0  0  0  0  0  0  0  0  0
   29.4697  -18.0601  -15.8258 O   0  0  0  0  0  0  0  0  0  0  0  0
   27.1540  -20.5563  -13.5439 C   0  0  0  0  0  0  0  0  0  0  0  0
   26.7137  -21.6561  -13.9881 O   0  0  0  0  0  0  0  0  0  0  0  0
   27.7019  -16.7737  -16.5250 O   0  0  0  0  0  0  0  0  0  0  0  0
   27.2907  -20.1112   -8.0948 C   0  0  0  0  0  0  0  0  0  0  0  0
   27.0859  -20.7637   -9.4350 C   0  0  0  0  0  0  0  0  0  0  0  0
   25.8159  -20.3674  -10.0936 C   0  0  2  0  0  0  0  0  0  0  0  0
   24.6457  -20.9220   -9.2943 C   0  0  0  0  0  0  0  0  0  0  0  0
   25.7078  -20.8238  -11.5493 C   0  0  2  0  0  0  0  0  0  0  0  0
   26.7141  -20.0691  -12.3043 N   0  0  0  0  0  0  0  0  0  0  0  0
   24.3607  -20.5205  -12.1066 C   0  0  0  0  0  0  0  0  0  0  0  0
   23.9839  -19.2899  -12.0751 O   0  0  0  0  0  0  0  0  0  0  0  0
   19.7114  -23.5575  -19.1592 N   0  0  0  0  0  0  0  0  0  0  0  0
   19.1149  -22.3756  -18.6450 C   0  0  0  0  0  0  0  0  0  0  0  0
   18.1374  -21.8468  -19.3000 N   0  0  0  0  0  0  0  0  0  0  0  0
   19.5291  -21.7349  -17.4477 N   0  0  0  0  0  0  0  0  0  0  0  0
   20.6474  -22.2492  -16.6518 C   0  0  0  0  0  0  0  0  0  0  0  0
   20.8208  -21.4183  -15.3910 C   0  0  0  0  0  0  0  0  0  0  0  0
   22.0652  -21.7954  -14.6478 C   0  0  0  0  0  0  0  0  0  0  0  0
   22.2793  -20.9423  -13.4153 C   0  0  2  0  0  0  0  0  0  0  0  0
   23.4552  -21.4167  -12.6658 N   0  0  0  0  0  0  0  0  0  0  0  0
   21.0601  -21.0802  -12.5843 C   0  0  0  0  0  0  0  0  0  0  0  0
   21.0257  -21.9955  -11.7293 O   0  0  0  0  0  0  0  0  0  0  0  0
   19.9548  -20.2567  -12.6964 O   0  0  0  0  0  0  0  0  0  0  0  0
  2  1  1  6
  2  3  1  0
  4  3  1  0
  5  4  2  0
  6  2  1  0
  7  6  2  0
  8  4  1  0
  9 10  1  0
 10 11  1  0
 11 12  1  1
 13 11  1  0
 13 14  1  6
 14  6  1  0
 15 13  1  0
 16 15  2  0
 18 19  2  0
 18 17  1  0
 20 18  1  0
 21 20  1  0
 22 21  1  0
 22 23  1  0
 24 23  1  6
 24 25  1  0
 25 15  1  0
 26 24  1  0
 26 28  1  0
 27 26  2  0
M  END
$$$$
