DIR.pdb
     RDKit          3D

 28 27  0  0  1  0  0  0  0  0999 V2000
   17.3019  -15.4151  -15.9784 N   0  0  0  0  0  0  0  0  0  0  0  0
   16.5403  -14.1982  -16.1049 C   0  0  1  0  0  0  0  0  0  0  0  0
   15.2296  -14.2831  -15.3368 C   0  0  0  0  0  0  0  0  0  0  0  0
   14.3528  -15.2542  -15.9990 C   0  0  0  0  0  0  0  0  0  0  0  0
   14.1696  -16.3746  -15.5049 O   0  0  0  0  0  0  0  0  0  0  0  0
   17.3204  -13.0915  -15.4664 C   0  0  0  0  0  0  0  0  0  0  0  0
   17.8532  -13.2717  -14.3330 O   0  0  0  0  0  0  0  0  0  0  0  0
   13.7338  -14.8836  -17.1948 O   0  0  0  0  0  0  0  0  0  0  0  0
   19.8233  -12.0471  -18.3265 C   0  0  0  0  0  0  0  0  0  0  0  0
   20.2394  -11.1605  -17.1843 C   0  0  0  0  0  0  0  0  0  0  0  0
   19.1560  -10.2614  -16.7135 C   0  0  2  0  0  0  0  0  0  0  0  0
   19.7593   -8.9255  -16.3048 C   0  0  0  0  0  0  0  0  0  0  0  0
   18.3399  -10.8344  -15.5539 C   0  0  2  0  0  0  0  0  0  0  0  0
   17.4591  -11.8602  -16.1236 N   0  0  0  0  0  0  0  0  0  0  0  0
   17.5022   -9.7808  -14.9170 C   0  0  0  0  0  0  0  0  0  0  0  0
   16.5318   -9.3087  -15.6190 O   0  0  0  0  0  0  0  0  0  0  0  0
   15.1978   -6.5339   -6.7664 N   0  0  0  0  0  0  0  0  0  0  0  0
   14.5196   -5.8348   -7.8000 C   0  0  0  0  0  0  0  0  0  0  0  0
   13.6830   -4.9103   -7.4687 N   0  0  0  0  0  0  0  0  0  0  0  0
   14.7051   -6.0906   -9.1840 N   0  0  0  0  0  0  0  0  0  0  0  0
   15.5897   -7.1613   -9.6527 C   0  0  0  0  0  0  0  0  0  0  0  0
   15.7123   -7.1165  -11.1669 C   0  0  0  0  0  0  0  0  0  0  0  0
   16.5889   -8.2159  -11.6828 C   0  0  0  0  0  0  0  0  0  0  0  0
   16.7868   -8.1375  -13.1819 C   0  0  2  0  0  0  0  0  0  0  0  0
   17.6431   -9.2446  -13.6409 N   0  0  0  0  0  0  0  0  0  0  0  0
   17.4467   -6.8395  -13.4575 C   0  0  0  0  0  0  0  0  0  0  0  0
   18.6937   -6.7746  -13.3541 O   0  0  0  0  0  0  0  0  0  0  0  0
   16.7666   -5.6923  -13.8230 O   0  0  0  0  0  0  0  0  0  0  0  0
  2  1  1  1
  2  3  1  0
  4  3  1  0
  5  4  2  0
  6  2  1  0
  7  6  2  0
  8  4  1  0
  9 10  1  0
 10 11  1  0
 11 12  1  1
 13 11  1  0
 13 14  1  6
 14  6  1  0
 15 13  1  0
 16 15  2  0
 18 19  2  0
 18 17  1  0
 20 18  1  0
 21 20  1  0
 22 21  1  0
 22 23  1  0
 24 23  1  1
 24 25  1  0
 25 15  1  0
 26 24  1  0
 26 28  1  0
 27 26  2  0
M  END
$$$$
