DIR.pdb
     RDKit          3D

 28 27  0  0  1  0  0  0  0  0999 V2000
   29.4709  -22.1701  -17.5042 N   0  0  0  0  0  0  0  0  0  0  0  0
   28.5307  -21.1947  -17.9957 C   0  0  1  0  0  0  0  0  0  0  0  0
   27.5512  -21.8169  -18.9798 C   0  0  0  0  0  0  0  0  0  0  0  0
   28.1991  -21.9252  -20.2908 C   0  0  0  0  0  0  0  0  0  0  0  0
   29.3714  -21.5577  -20.4446 O   0  0  0  0  0  0  0  0  0  0  0  0
   27.7065  -20.7183  -16.8403 C   0  0  0  0  0  0  0  0  0  0  0  0
   27.7027  -21.3749  -15.7588 O   0  0  0  0  0  0  0  0  0  0  0  0
   27.4628  -22.4509  -21.3547 O   0  0  0  0  0  0  0  0  0  0  0  0
   27.7176  -15.5022  -16.1826 C   0  0  0  0  0  0  0  0  0  0  0  0
   27.6297  -16.9403  -15.7494 C   0  0  0  0  0  0  0  0  0  0  0  0
   26.2648  -17.5100  -15.8766 C   0  0  2  0  0  0  0  0  0  0  0  0
   25.3714  -16.9084  -14.8016 C   0  0  0  0  0  0  0  0  0  0  0  0
   26.2229  -19.0362  -15.7865 C   0  0  2  0  0  0  0  0  0  0  0  0
   26.9420  -19.5483  -16.9582 N   0  0  0  0  0  0  0  0  0  0  0  0
   24.8209  -19.5363  -15.8260 C   0  0  0  0  0  0  0  0  0  0  0  0
   24.0973  -19.1555  -16.8204 O   0  0  0  0  0  0  0  0  0  0  0  0
   18.4884  -22.5622  -12.3510 N   0  0  0  0  0  0  0  0  0  0  0  0
   18.3206  -23.5671  -13.3407 C   0  0  0  0  0  0  0  0  0  0  0  0
   17.1224  -23.9425  -13.6368 N   0  0  0  0  0  0  0  0  0  0  0  0
   19.3952  -24.1888  -14.0293 N   0  0  0  0  0  0  0  0  0  0  0  0
   20.7852  -23.7793  -13.8079 C   0  0  0  0  0  0  0  0  0  0  0  0
   21.0349  -22.4130  -14.4249 C   0  0  0  0  0  0  0  0  0  0  0  0
   22.4688  -22.0009  -14.2924 C   0  0  0  0  0  0  0  0  0  0  0  0
   22.7699  -20.7196  -15.0409 C   0  0  2  0  0  0  0  0  0  0  0  0
   24.1964  -20.3767  -14.9097 N   0  0  0  0  0  0  0  0  0  0  0  0
   21.9361  -19.6603  -14.4256 C   0  0  0  0  0  0  0  0  0  0  0  0
   22.3971  -19.0415  -13.4383 O   0  0  0  0  0  0  0  0  0  0  0  0
   20.6762  -19.3127  -14.8771 O   0  0  0  0  0  0  0  0  0  0  0  0
  2  1  1  1
  2  3  1  0
  4  3  1  0
  5  4  2  0
  6  2  1  0
  7  6  2  0
  8  4  1  0
  9 10  1  0
 10 11  1  0
 11 12  1  1
 13 11  1  0
 13 14  1  6
 14  6  1  0
 15 13  1  0
 16 15  2  0
 18 19  2  0
 18 17  1  0
 20 18  1  0
 21 20  1  0
 22 21  1  0
 22 23  1  0
 24 23  1  1
 24 25  1  0
 25 15  1  0
 26 24  1  0
 26 28  1  0
 27 26  2  0
M  END
$$$$
