DIR.pdb
     RDKit          3D

 28 27  0  0  1  0  0  0  0  0999 V2000
   28.9025  -21.2414  -15.1551 N   0  0  0  0  0  0  0  0  0  0  0  0
   27.9611  -20.2689  -14.6600 C   0  0  1  0  0  0  0  0  0  0  0  0
   27.2620  -19.5444  -15.8008 C   0  0  0  0  0  0  0  0  0  0  0  0
   28.2298  -18.6720  -16.4735 C   0  0  0  0  0  0  0  0  0  0  0  0
   28.3259  -17.4787  -16.1574 O   0  0  0  0  0  0  0  0  0  0  0  0
   26.8862  -20.9978  -13.9154 C   0  0  0  0  0  0  0  0  0  0  0  0
   26.4511  -22.0996  -14.3597 O   0  0  0  0  0  0  0  0  0  0  0  0
   29.0353  -19.2198  -17.4743 O   0  0  0  0  0  0  0  0  0  0  0  0
   26.5793  -20.1137   -8.5337 C   0  0  0  0  0  0  0  0  0  0  0  0
   26.5105  -20.8784   -9.8276 C   0  0  0  0  0  0  0  0  0  0  0  0
   25.2668  -20.6218  -10.5964 C   0  0  2  0  0  0  0  0  0  0  0  0
   24.0841  -21.2124   -9.8426 C   0  0  0  0  0  0  0  0  0  0  0  0
   25.2977  -21.1755  -12.0216 C   0  0  2  0  0  0  0  0  0  0  0  0
   26.3646  -20.4596  -12.7298 N   0  0  0  0  0  0  0  0  0  0  0  0
   24.0062  -20.9278  -12.7202 C   0  0  0  0  0  0  0  0  0  0  0  0
   23.6429  -19.6994  -12.8485 O   0  0  0  0  0  0  0  0  0  0  0  0
   20.7071  -26.6846  -17.7827 N   0  0  0  0  0  0  0  0  0  0  0  0
   21.4631  -26.5893  -16.5841 C   0  0  0  0  0  0  0  0  0  0  0  0
   21.8120  -27.6802  -15.9906 N   0  0  0  0  0  0  0  0  0  0  0  0
   21.8616  -25.3613  -15.9938 N   0  0  0  0  0  0  0  0  0  0  0  0
   21.6860  -24.0841  -16.6914 C   0  0  0  0  0  0  0  0  0  0  0  0
   22.2357  -22.9451  -15.8485 C   0  0  0  0  0  0  0  0  0  0  0  0
   21.3125  -22.5960  -14.7221 C   0  0  0  0  0  0  0  0  0  0  0  0
   21.8559  -21.4765  -13.8596 C   0  0  2  0  0  0  0  0  0  0  0  0
   23.1405  -21.8746  -13.2587 N   0  0  0  0  0  0  0  0  0  0  0  0
   20.8535  -21.2328  -12.7957 C   0  0  0  0  0  0  0  0  0  0  0  0
   20.9793  -21.8468  -11.7107 O   0  0  0  0  0  0  0  0  0  0  0  0
   19.7845  -20.3659  -12.9291 O   0  0  0  0  0  0  0  0  0  0  0  0
  2  1  1  6
  2  3  1  0
  4  3  1  0
  5  4  2  0
  6  2  1  0
  7  6  2  0
  8  4  1  0
  9 10  1  0
 10 11  1  0
 11 12  1  1
 13 11  1  0
 13 14  1  6
 14  6  1  0
 15 13  1  0
 16 15  2  0
 18 19  2  0
 18 17  1  0
 20 18  1  0
 21 20  1  0
 22 21  1  0
 22 23  1  0
 24 23  1  6
 24 25  1  0
 25 15  1  0
 26 24  1  0
 26 28  1  0
 27 26  2  0
M  END
$$$$
