DIR.pdb
     RDKit          3D

 28 27  0  0  1  0  0  0  0  0999 V2000
   19.0294  -11.7216  -17.5961 N   0  0  0  0  0  0  0  0  0  0  0  0
   18.3520  -11.1449  -16.4623 C   0  0  1  0  0  0  0  0  0  0  0  0
   17.6344  -12.2096  -15.6458 C   0  0  0  0  0  0  0  0  0  0  0  0
   16.5426  -12.7689  -16.4493 C   0  0  0  0  0  0  0  0  0  0  0  0
   16.3717  -12.4018  -17.6194 O   0  0  0  0  0  0  0  0  0  0  0  0
   19.3846  -10.5554  -15.5528 C   0  0  0  0  0  0  0  0  0  0  0  0
   19.0706  -10.2370  -14.3692 O   0  0  0  0  0  0  0  0  0  0  0  0
   15.7058  -13.7208  -15.8628 O   0  0  0  0  0  0  0  0  0  0  0  0
   24.4542  -12.2934  -15.7165 C   0  0  0  0  0  0  0  0  0  0  0  0
   23.1579  -11.7045  -15.2301 C   0  0  0  0  0  0  0  0  0  0  0  0
   23.0398  -10.2478  -15.4909 C   0  0  2  0  0  0  0  0  0  0  0  0
   24.1130   -9.5116  -14.7023 C   0  0  0  0  0  0  0  0  0  0  0  0
   21.6646   -9.6706  -15.1525 C   0  0  2  0  0  0  0  0  0  0  0  0
   20.6948  -10.3575  -16.0128 N   0  0  0  0  0  0  0  0  0  0  0  0
   21.6120   -8.2102  -15.4389 C   0  0  0  0  0  0  0  0  0  0  0  0
   21.9028   -7.8438  -16.6383 O   0  0  0  0  0  0  0  0  0  0  0  0
   16.1378   -1.4984  -15.9306 N   0  0  0  0  0  0  0  0  0  0  0  0
   17.4495   -0.9897  -16.1245 C   0  0  0  0  0  0  0  0  0  0  0  0
   17.5839    0.2485  -16.4606 N   0  0  0  0  0  0  0  0  0  0  0  0
   18.6303   -1.7627  -15.9708 N   0  0  0  0  0  0  0  0  0  0  0  0
   18.5815   -3.1485  -15.4954 C   0  0  0  0  0  0  0  0  0  0  0  0
   19.9825   -3.7352  -15.4417 C   0  0  0  0  0  0  0  0  0  0  0  0
   19.9616   -5.1797  -15.0466 C   0  0  0  0  0  0  0  0  0  0  0  0
   21.3519   -5.7742  -14.9685 C   0  0  2  0  0  0  0  0  0  0  0  0
   21.2791   -7.1867  -14.5571 N   0  0  0  0  0  0  0  0  0  0  0  0
   22.0948   -4.9895  -13.9544 C   0  0  0  0  0  0  0  0  0  0  0  0
   22.1041   -5.4058  -12.7726 O   0  0  0  0  0  0  0  0  0  0  0  0
   22.7803   -3.8218  -14.2352 O   0  0  0  0  0  0  0  0  0  0  0  0
  2  1  1  6
  2  3  1  0
  4  3  1  0
  5  4  2  0
  6  2  1  0
  7  6  2  0
  8  4  1  0
  9 10  1  0
 10 11  1  0
 11 12  1  1
 13 11  1  0
 13 14  1  6
 14  6  1  0
 15 13  1  0
 16 15  2  0
 18 19  2  0
 18 17  1  0
 20 18  1  0
 21 20  1  0
 22 21  1  0
 22 23  1  0
 24 23  1  1
 24 25  1  0
 25 15  1  0
 26 24  1  0
 26 28  1  0
 27 26  2  0
M  END
$$$$
