DIR.pdb
     RDKit          3D

 28 27  0  0  1  0  0  0  0  0999 V2000
   27.5258  -15.4801  -18.8043 N   0  0  0  0  0  0  0  0  0  0  0  0
   26.7036  -16.6612  -18.7263 C   0  0  1  0  0  0  0  0  0  0  0  0
   27.5284  -17.8868  -18.3618 C   0  0  0  0  0  0  0  0  0  0  0  0
   28.0126  -18.5173  -19.5939 C   0  0  0  0  0  0  0  0  0  0  0  0
   27.7459  -18.0252  -20.6983 O   0  0  0  0  0  0  0  0  0  0  0  0
   25.7260  -16.4756  -17.6079 C   0  0  0  0  0  0  0  0  0  0  0  0
   25.9090  -15.5541  -16.7605 O   0  0  0  0  0  0  0  0  0  0  0  0
   28.7781  -19.6807  -19.4888 O   0  0  0  0  0  0  0  0  0  0  0  0
   20.0056  -15.7980  -16.8124 C   0  0  0  0  0  0  0  0  0  0  0  0
   21.2338  -16.3662  -16.1547 C   0  0  0  0  0  0  0  0  0  0  0  0
   22.3546  -16.5948  -17.1009 C   0  0  2  0  0  0  0  0  0  0  0  0
   21.9128  -17.5874  -18.1664 C   0  0  0  0  0  0  0  0  0  0  0  0
   23.6351  -17.0946  -16.4305 C   0  0  2  0  0  0  0  0  0  0  0  0
   24.6119  -17.3210  -17.5015 N   0  0  0  0  0  0  0  0  0  0  0  0
   23.3985  -18.3793  -15.7157 C   0  0  0  0  0  0  0  0  0  0  0  0
   23.3425  -19.4432  -16.4385 O   0  0  0  0  0  0  0  0  0  0  0  0
   27.3310  -19.7239  -12.3675 N   0  0  0  0  0  0  0  0  0  0  0  0
   27.6130  -20.7854  -11.4669 C   0  0  0  0  0  0  0  0  0  0  0  0
   28.7904  -21.3122  -11.4890 N   0  0  0  0  0  0  0  0  0  0  0  0
   26.6749  -21.3069  -10.5376 N   0  0  0  0  0  0  0  0  0  0  0  0
   25.3162  -20.7663  -10.4365 C   0  0  0  0  0  0  0  0  0  0  0  0
   24.5678  -20.9785  -11.7422 C   0  0  0  0  0  0  0  0  0  0  0  0
   24.2846  -19.6805  -12.4337 C   0  0  0  0  0  0  0  0  0  0  0  0
   23.5090  -19.8719  -13.7199 C   0  0  2  0  0  0  0  0  0  0  0  0
   23.2334  -18.5679  -14.3470 N   0  0  0  0  0  0  0  0  0  0  0  0
   22.2360  -20.5371  -13.3552 C   0  0  0  0  0  0  0  0  0  0  0  0
   21.2214  -19.8221  -13.1835 O   0  0  0  0  0  0  0  0  0  0  0  0
   22.1003  -21.9036  -13.1925 O   0  0  0  0  0  0  0  0  0  0  0  0
  2  1  1  1
  2  3  1  0
  4  3  1  0
  5  4  2  0
  6  2  1  0
  7  6  2  0
  8  4  1  0
  9 10  1  0
 10 11  1  0
 11 12  1  6
 13 11  1  0
 13 14  1  6
 14  6  1  0
 15 13  1  0
 16 15  2  0
 18 19  2  0
 18 17  1  0
 20 18  1  0
 21 20  1  0
 22 21  1  0
 22 23  1  0
 24 23  1  1
 24 25  1  0
 25 15  1  0
 26 24  1  0
 26 28  1  0
 27 26  2  0
M  END
$$$$
