DIR.pdb
     RDKit          3D

 28 27  0  0  1  0  0  0  0  0999 V2000
   28.5663  -20.1917  -17.4617 N   0  0  0  0  0  0  0  0  0  0  0  0
   27.9167  -19.4183  -16.4337 C   0  0  1  0  0  0  0  0  0  0  0  0
   26.7157  -18.6636  -16.9843 C   0  0  0  0  0  0  0  0  0  0  0  0
   27.1752  -17.3976  -17.5643 C   0  0  0  0  0  0  0  0  0  0  0  0
   26.3596  -16.5348  -17.9157 O   0  0  0  0  0  0  0  0  0  0  0  0
   27.3732  -20.3663  -15.4105 C   0  0  0  0  0  0  0  0  0  0  0  0
   26.9868  -21.5180  -15.7642 O   0  0  0  0  0  0  0  0  0  0  0  0
   28.5490  -17.1925  -17.7089 O   0  0  0  0  0  0  0  0  0  0  0  0
   30.0995  -20.9940  -10.9988 C   0  0  0  0  0  0  0  0  0  0  0  0
   29.1675  -21.1966  -12.1624 C   0  0  0  0  0  0  0  0  0  0  0  0
   27.7629  -20.8210  -11.8626 C   0  0  2  0  0  0  0  0  0  0  0  0
   27.2485  -21.6858  -10.7210 C   0  0  0  0  0  0  0  0  0  0  0  0
   26.8232  -20.9405  -13.0633 C   0  0  2  0  0  0  0  0  0  0  0  0
   27.2934  -19.9774  -14.0652 N   0  0  0  0  0  0  0  0  0  0  0  0
   25.4247  -20.5968  -12.6846 C   0  0  0  0  0  0  0  0  0  0  0  0
   25.2362  -19.4404  -12.1510 O   0  0  0  0  0  0  0  0  0  0  0  0
   17.5350  -24.3626  -13.9833 N   0  0  0  0  0  0  0  0  0  0  0  0
   18.5032  -23.6290  -14.7192 C   0  0  0  0  0  0  0  0  0  0  0  0
   18.5275  -23.7604  -16.0023 N   0  0  0  0  0  0  0  0  0  0  0  0
   19.4525  -22.7543  -14.1281 N   0  0  0  0  0  0  0  0  0  0  0  0
   19.4754  -22.5139  -12.6824 C   0  0  0  0  0  0  0  0  0  0  0  0
   20.5308  -21.4754  -12.3391 C   0  0  0  0  0  0  0  0  0  0  0  0
   21.8951  -21.9076  -12.7807 C   0  0  0  0  0  0  0  0  0  0  0  0
   22.9666  -20.9091  -12.3965 C   0  0  2  0  0  0  0  0  0  0  0  0
   24.2876  -21.3825  -12.8443 N   0  0  0  0  0  0  0  0  0  0  0  0
   22.9411  -20.8039  -10.9186 C   0  0  0  0  0  0  0  0  0  0  0  0
   23.6677  -21.5807  -10.2562 O   0  0  0  0  0  0  0  0  0  0  0  0
   22.1611  -19.8971  -10.2246 O   0  0  0  0  0  0  0  0  0  0  0  0
  2  1  1  6
  2  3  1  0
  4  3  1  0
  5  4  2  0
  6  2  1  0
  7  6  2  0
  8  4  1  0
  9 10  1  0
 10 11  1  0
 11 12  1  1
 13 11  1  0
 13 14  1  6
 14  6  1  0
 15 13  1  0
 16 15  2  0
 18 19  2  0
 18 17  1  0
 20 18  1  0
 21 20  1  0
 22 21  1  0
 22 23  1  0
 24 23  1  1
 24 25  1  0
 25 15  1  0
 26 24  1  0
 26 28  1  0
 27 26  2  0
M  END
$$$$
