DIR.pdb
     RDKit          3D

 28 27  0  0  1  0  0  0  0  0999 V2000
   21.5213  -14.7700  -17.5851 N   0  0  0  0  0  0  0  0  0  0  0  0
   22.0229  -13.5396  -18.1433 C   0  0  1  0  0  0  0  0  0  0  0  0
   20.9277  -12.7758  -18.8729 C   0  0  0  0  0  0  0  0  0  0  0  0
   20.5613  -13.5136  -20.0861 C   0  0  0  0  0  0  0  0  0  0  0  0
   19.5509  -14.2289  -20.1053 O   0  0  0  0  0  0  0  0  0  0  0  0
   22.4568  -12.6582  -17.0137 C   0  0  0  0  0  0  0  0  0  0  0  0
   21.8117  -12.6688  -15.9254 O   0  0  0  0  0  0  0  0  0  0  0  0
   21.3777  -13.3884  -21.2122 O   0  0  0  0  0  0  0  0  0  0  0  0
   27.5685  -12.4581  -15.8367 C   0  0  0  0  0  0  0  0  0  0  0  0
   26.0663  -12.3975  -15.7779 C   0  0  0  0  0  0  0  0  0  0  0  0
   25.5242  -11.0332  -15.9986 C   0  0  2  0  0  0  0  0  0  0  0  0
   26.0400  -10.1090  -14.9051 C   0  0  0  0  0  0  0  0  0  0  0  0
   23.9965  -10.9766  -16.0426 C   0  0  2  0  0  0  0  0  0  0  0  0
   23.5746  -11.8242  -17.1633 N   0  0  0  0  0  0  0  0  0  0  0  0
   23.5192   -9.5869  -16.2841 C   0  0  0  0  0  0  0  0  0  0  0  0
   24.1677   -8.8942  -17.1541 O   0  0  0  0  0  0  0  0  0  0  0  0
   15.7406   -8.2354  -18.0912 N   0  0  0  0  0  0  0  0  0  0  0  0
   16.7386   -9.2076  -17.8156 C   0  0  0  0  0  0  0  0  0  0  0  0
   16.5270  -10.4256  -18.1843 N   0  0  0  0  0  0  0  0  0  0  0  0
   17.9626   -8.9220  -17.1554 N   0  0  0  0  0  0  0  0  0  0  0  0
   18.2289   -7.6032  -16.5736 C   0  0  0  0  0  0  0  0  0  0  0  0
   19.5596   -7.6119  -15.8393 C   0  0  0  0  0  0  0  0  0  0  0  0
   20.7158   -7.6108  -16.7914 C   0  0  0  0  0  0  0  0  0  0  0  0
   22.0496   -7.5820  -16.0754 C   0  0  2  0  0  0  0  0  0  0  0  0
   22.4437   -8.9446  -15.6785 N   0  0  0  0  0  0  0  0  0  0  0  0
   21.8693   -6.7365  -14.8718 C   0  0  0  0  0  0  0  0  0  0  0  0
   21.8442   -5.4925  -15.0195 O   0  0  0  0  0  0  0  0  0  0  0  0
   21.7268   -7.2397  -13.5917 O   0  0  0  0  0  0  0  0  0  0  0  0
  2  1  1  1
  2  3  1  0
  4  3  1  0
  5  4  2  0
  6  2  1  0
  7  6  2  0
  8  4  1  0
  9 10  1  0
 10 11  1  0
 11 12  1  1
 13 11  1  0
 13 14  1  6
 14  6  1  0
 15 13  1  0
 16 15  2  0
 18 19  2  0
 18 17  1  0
 20 18  1  0
 21 20  1  0
 22 21  1  0
 22 23  1  0
 24 23  1  1
 24 25  1  0
 25 15  1  0
 26 24  1  0
 26 28  1  0
 27 26  2  0
M  END
$$$$
