DIR.pdb
     RDKit          3D

 28 27  0  0  1  0  0  0  0  0999 V2000
   26.5111  -20.9144  -11.6240 N   0  0  0  0  0  0  0  0  0  0  0  0
   25.1329  -20.8059  -12.0311 C   0  0  1  0  0  0  0  0  0  0  0  0
   24.2516  -20.3378  -10.8825 C   0  0  0  0  0  0  0  0  0  0  0  0
   24.0960  -21.4370   -9.9244 C   0  0  0  0  0  0  0  0  0  0  0  0
   24.7281  -22.4916  -10.0701 O   0  0  0  0  0  0  0  0  0  0  0  0
   25.0393  -19.7430  -13.0811 C   0  0  0  0  0  0  0  0  0  0  0  0
   24.5364  -18.6184  -12.7930 O   0  0  0  0  0  0  0  0  0  0  0  0
   23.2211  -21.2634   -8.8498 O   0  0  0  0  0  0  0  0  0  0  0  0
   28.2198  -17.7751  -14.6844 C   0  0  0  0  0  0  0  0  0  0  0  0
   28.0269  -19.0581  -15.4462 C   0  0  0  0  0  0  0  0  0  0  0  0
   26.7624  -19.0958  -16.2231 C   0  0  2  0  0  0  0  0  0  0  0  0
   26.8088  -18.0245  -17.3029 C   0  0  0  0  0  0  0  0  0  0  0  0
   25.5079  -18.9113  -15.3681 C   0  0  2  0  0  0  0  0  0  0  0  0
   25.5079  -19.9949  -14.3790 N   0  0  0  0  0  0  0  0  0  0  0  0
   24.2752  -19.0164  -16.1968 C   0  0  0  0  0  0  0  0  0  0  0  0
   24.2581  -19.9374  -17.0962 O   0  0  0  0  0  0  0  0  0  0  0  0
   18.4515  -19.5866  -12.5390 N   0  0  0  0  0  0  0  0  0  0  0  0
   19.2051  -20.7845  -12.6583 C   0  0  0  0  0  0  0  0  0  0  0  0
   19.3984  -21.4957  -11.5995 N   0  0  0  0  0  0  0  0  0  0  0  0
   19.7631  -21.2519  -13.8772 N   0  0  0  0  0  0  0  0  0  0  0  0
   19.4951  -20.5767  -15.1503 C   0  0  0  0  0  0  0  0  0  0  0  0
   20.8007  -20.1832  -15.8215 C   0  0  0  0  0  0  0  0  0  0  0  0
   20.7519  -18.7808  -16.3450 C   0  0  0  0  0  0  0  0  0  0  0  0
   22.0232  -18.3939  -17.0708 C   0  0  2  0  0  0  0  0  0  0  0  0
   23.1286  -18.2330  -16.1107 N   0  0  0  0  0  0  0  0  0  0  0  0
   21.7511  -17.1051  -17.7499 C   0  0  0  0  0  0  0  0  0  0  0  0
   22.2384  -16.0611  -17.2574 O   0  0  0  0  0  0  0  0  0  0  0  0
   20.9894  -16.9855  -18.8978 O   0  0  0  0  0  0  0  0  0  0  0  0
  2  1  1  1
  2  3  1  0
  4  3  1  0
  5  4  2  0
  6  2  1  0
  7  6  2  0
  8  4  1  0
  9 10  1  0
 10 11  1  0
 11 12  1  6
 13 11  1  0
 13 14  1  1
 14  6  1  0
 15 13  1  0
 16 15  2  0
 18 19  2  0
 18 17  1  0
 20 18  1  0
 21 20  1  0
 22 21  1  0
 22 23  1  0
 24 23  1  1
 24 25  1  0
 25 15  1  0
 26 24  1  0
 26 28  1  0
 27 26  2  0
M  END
$$$$
