DIR.pdb
     RDKit          3D

 28 27  0  0  1  0  0  0  0  0999 V2000
   22.4096  -20.2565  -14.5210 N   0  0  0  0  0  0  0  0  0  0  0  0
   21.6519  -19.8043  -13.3815 C   0  0  1  0  0  0  0  0  0  0  0  0
   20.1631  -19.7539  -13.6913 C   0  0  0  0  0  0  0  0  0  0  0  0
   19.9123  -18.6666  -14.6429 C   0  0  0  0  0  0  0  0  0  0  0  0
   19.2851  -18.8794  -15.6890 O   0  0  0  0  0  0  0  0  0  0  0  0
   21.8104  -20.8126  -12.2865 C   0  0  0  0  0  0  0  0  0  0  0  0
   21.7328  -22.0469  -12.5535 O   0  0  0  0  0  0  0  0  0  0  0  0
   20.3970  -17.3926  -14.3392 O   0  0  0  0  0  0  0  0  0  0  0  0
   25.4004  -19.4241   -8.7563 C   0  0  0  0  0  0  0  0  0  0  0  0
   24.6515  -20.5282   -9.4520 C   0  0  0  0  0  0  0  0  0  0  0  0
   23.2750  -20.7234   -8.9314 C   0  0  2  0  0  0  0  0  0  0  0  0
   23.3372  -21.5528   -7.6570 C   0  0  0  0  0  0  0  0  0  0  0  0
   22.3260  -21.3857   -9.9313 C   0  0  2  0  0  0  0  0  0  0  0  0
   22.0440  -20.3888  -10.9700 N   0  0  0  0  0  0  0  0  0  0  0  0
   21.0459  -21.7745   -9.2773 C   0  0  0  0  0  0  0  0  0  0  0  0
   20.2938  -20.8165   -8.8601 O   0  0  0  0  0  0  0  0  0  0  0  0
   15.9895  -26.1771   -5.2280 N   0  0  0  0  0  0  0  0  0  0  0  0
   15.1219  -26.2723   -6.3485 C   0  0  0  0  0  0  0  0  0  0  0  0
   13.8488  -26.2702   -6.1405 N   0  0  0  0  0  0  0  0  0  0  0  0
   15.5701  -26.3704   -7.6920 N   0  0  0  0  0  0  0  0  0  0  0  0
   16.9963  -26.3296   -8.0281 C   0  0  0  0  0  0  0  0  0  0  0  0
   17.5724  -24.9600   -7.7085 C   0  0  0  0  0  0  0  0  0  0  0  0
   18.8003  -24.6748   -8.5173 C   0  0  0  0  0  0  0  0  0  0  0  0
   19.3634  -23.2968   -8.2407 C   0  0  2  0  0  0  0  0  0  0  0  0
   20.5607  -23.0612   -9.0657 N   0  0  0  0  0  0  0  0  0  0  0  0
   19.7244  -23.2642   -6.8038 C   0  0  0  0  0  0  0  0  0  0  0  0
   18.8442  -22.9255   -5.9789 O   0  0  0  0  0  0  0  0  0  0  0  0
   20.9781  -23.5863   -6.3175 O   0  0  0  0  0  0  0  0  0  0  0  0
  2  1  1  6
  2  3  1  0
  4  3  1  0
  5  4  2  0
  6  2  1  0
  7  6  2  0
  8  4  1  0
  9 10  1  0
 10 11  1  0
 11 12  1  1
 13 11  1  0
 13 14  1  6
 14  6  1  0
 15 13  1  0
 16 15  2  0
 18 19  2  0
 18 17  1  0
 20 18  1  0
 21 20  1  0
 22 21  1  0
 22 23  1  0
 24 23  1  6
 24 25  1  0
 25 15  1  0
 26 24  1  0
 26 28  1  0
 27 26  2  0
M  END
$$$$
