DIR.pdb
     RDKit          3D

 28 27  0  0  1  0  0  0  0  0999 V2000
   24.5467  -22.7507  -18.3783 N   0  0  0  0  0  0  0  0  0  0  0  0
   23.8619  -21.7797  -17.5627 C   0  0  1  0  0  0  0  0  0  0  0  0
   22.4215  -21.5930  -18.0161 C   0  0  0  0  0  0  0  0  0  0  0  0
   22.3916  -20.6248  -19.1170 C   0  0  0  0  0  0  0  0  0  0  0  0
   23.4341  -20.0789  -19.5021 O   0  0  0  0  0  0  0  0  0  0  0  0
   23.7877  -22.3134  -16.1660 C   0  0  0  0  0  0  0  0  0  0  0  0
   23.5368  -23.5386  -15.9746 O   0  0  0  0  0  0  0  0  0  0  0  0
   21.1633  -20.3369  -19.7159 O   0  0  0  0  0  0  0  0  0  0  0  0
   26.4255  -21.2991  -10.8224 C   0  0  0  0  0  0  0  0  0  0  0  0
   25.2255  -21.8506  -11.5432 C   0  0  0  0  0  0  0  0  0  0  0  0
   25.1392  -21.4148  -12.9597 C   0  0  2  0  0  0  0  0  0  0  0  0
   25.0843  -19.8949  -13.0111 C   0  0  0  0  0  0  0  0  0  0  0  0
   23.9432  -21.9992  -13.7127 C   0  0  2  0  0  0  0  0  0  0  0  0
   23.9959  -21.4569  -15.0749 N   0  0  0  0  0  0  0  0  0  0  0  0
   22.6595  -21.5875  -13.0803 C   0  0  0  0  0  0  0  0  0  0  0  0
   22.1956  -20.4324  -13.4090 O   0  0  0  0  0  0  0  0  0  0  0  0
   17.4877  -25.1792   -6.8995 N   0  0  0  0  0  0  0  0  0  0  0  0
   17.6661  -25.3563   -8.2974 C   0  0  0  0  0  0  0  0  0  0  0  0
   17.4327  -26.5199   -8.8031 N   0  0  0  0  0  0  0  0  0  0  0  0
   18.0879  -24.3269   -9.1794 N   0  0  0  0  0  0  0  0  0  0  0  0
   18.4569  -22.9977   -8.6837 C   0  0  0  0  0  0  0  0  0  0  0  0
   18.9181  -22.1175   -9.8336 C   0  0  0  0  0  0  0  0  0  0  0  0
   20.2157  -22.5953  -10.4090 C   0  0  0  0  0  0  0  0  0  0  0  0
   20.6909  -21.7267  -11.5546 C   0  0  2  0  0  0  0  0  0  0  0  0
   21.8938  -22.3113  -12.1717 N   0  0  0  0  0  0  0  0  0  0  0  0
   21.0117  -20.3995  -10.9786 C   0  0  0  0  0  0  0  0  0  0  0  0
   22.0982  -20.2646  -10.3692 O   0  0  0  0  0  0  0  0  0  0  0  0
   20.1814  -19.2978  -11.0737 O   0  0  0  0  0  0  0  0  0  0  0  0
  2  1  1  6
  2  3  1  0
  4  3  1  0
  5  4  2  0
  6  2  1  0
  7  6  2  0
  8  4  1  0
  9 10  1  0
 10 11  1  0
 11 12  1  1
 13 11  1  0
 13 14  1  6
 14  6  1  0
 15 13  1  0
 16 15  2  0
 18 19  2  0
 18 17  1  0
 20 18  1  0
 21 20  1  0
 22 21  1  0
 22 23  1  0
 24 23  1  1
 24 25  1  0
 25 15  1  0
 26 24  1  0
 26 28  1  0
 27 26  2  0
M  END
$$$$
