DIR.pdb
     RDKit          3D

 28 27  0  0  1  0  0  0  0  0999 V2000
   29.0077  -21.1078  -15.0264 N   0  0  0  0  0  0  0  0  0  0  0  0
   27.9130  -20.2373  -14.6785 C   0  0  1  0  0  0  0  0  0  0  0  0
   27.1883  -19.7363  -15.9191 C   0  0  0  0  0  0  0  0  0  0  0  0
   27.7565  -18.4426  -16.3112 C   0  0  0  0  0  0  0  0  0  0  0  0
   28.7324  -17.9763  -15.7086 O   0  0  0  0  0  0  0  0  0  0  0  0
   26.9078  -21.0370  -13.9096 C   0  0  0  0  0  0  0  0  0  0  0  0
   26.5632  -22.1805  -14.3271 O   0  0  0  0  0  0  0  0  0  0  0  0
   27.1707  -17.7548  -17.3762 O   0  0  0  0  0  0  0  0  0  0  0  0
   26.6027  -20.1420   -8.4926 C   0  0  0  0  0  0  0  0  0  0  0  0
   26.5996  -20.8921   -9.7969 C   0  0  0  0  0  0  0  0  0  0  0  0
   25.3367  -20.7359  -10.5615 C   0  0  2  0  0  0  0  0  0  0  0  0
   24.1987  -21.3771   -9.7807 C   0  0  0  0  0  0  0  0  0  0  0  0
   25.3921  -21.3277  -11.9707 C   0  0  2  0  0  0  0  0  0  0  0  0
   26.3513  -20.5188  -12.7310 N   0  0  0  0  0  0  0  0  0  0  0  0
   24.0625  -21.2496  -12.6366 C   0  0  0  0  0  0  0  0  0  0  0  0
   23.6163  -20.0719  -12.9038 O   0  0  0  0  0  0  0  0  0  0  0  0
   16.9937  -24.0240  -13.4314 N   0  0  0  0  0  0  0  0  0  0  0  0
   16.9056  -24.0797  -14.8478 C   0  0  0  0  0  0  0  0  0  0  0  0
   15.7473  -23.9336  -15.3966 N   0  0  0  0  0  0  0  0  0  0  0  0
   18.0190  -24.2872  -15.7038 N   0  0  0  0  0  0  0  0  0  0  0  0
   19.3671  -24.4987  -15.1685 C   0  0  0  0  0  0  0  0  0  0  0  0
   19.9386  -23.1888  -14.6515 C   0  0  0  0  0  0  0  0  0  0  0  0
   21.3291  -23.3632  -14.1229 C   0  0  0  0  0  0  0  0  0  0  0  0
   21.9105  -22.0678  -13.5969 C   0  0  2  0  0  0  0  0  0  0  0  0
   23.2404  -22.3079  -13.0108 N   0  0  0  0  0  0  0  0  0  0  0  0
   20.9796  -21.5748  -12.5547 C   0  0  0  0  0  0  0  0  0  0  0  0
   21.1646  -21.9442  -11.3718 O   0  0  0  0  0  0  0  0  0  0  0  0
   19.9159  -20.7289  -12.8102 O   0  0  0  0  0  0  0  0  0  0  0  0
  2  1  1  6
  2  3  1  0
  4  3  1  0
  5  4  2  0
  6  2  1  0
  7  6  2  0
  8  4  1  0
  9 10  1  0
 10 11  1  0
 11 12  1  1
 13 11  1  0
 13 14  1  6
 14  6  1  0
 15 13  1  0
 16 15  2  0
 18 19  2  0
 18 17  1  0
 20 18  1  0
 21 20  1  0
 22 21  1  0
 22 23  1  0
 24 23  1  1
 24 25  1  0
 25 15  1  0
 26 24  1  0
 26 28  1  0
 27 26  2  0
M  END
$$$$
