DIR.pdb
     RDKit          3D

 28 27  0  0  1  0  0  0  0  0999 V2000
   28.5294  -21.9327  -15.5719 N   0  0  0  0  0  0  0  0  0  0  0  0
   27.7775  -20.8014  -15.0903 C   0  0  1  0  0  0  0  0  0  0  0  0
   27.0326  -20.1094  -16.2223 C   0  0  0  0  0  0  0  0  0  0  0  0
   28.0033  -19.4192  -17.0777 C   0  0  0  0  0  0  0  0  0  0  0  0
   28.4162  -19.9521  -18.1163 O   0  0  0  0  0  0  0  0  0  0  0  0
   26.7249  -21.3062  -14.1532 C   0  0  0  0  0  0  0  0  0  0  0  0
   26.0888  -22.3632  -14.4341 O   0  0  0  0  0  0  0  0  0  0  0  0
   28.4469  -18.1524  -16.6918 O   0  0  0  0  0  0  0  0  0  0  0  0
   27.3536  -20.0333   -8.8631 C   0  0  0  0  0  0  0  0  0  0  0  0
   26.9897  -20.8717  -10.0582 C   0  0  0  0  0  0  0  0  0  0  0  0
   25.7040  -20.4744  -10.6852 C   0  0  2  0  0  0  0  0  0  0  0  0
   24.5636  -20.7944   -9.7297 C   0  0  0  0  0  0  0  0  0  0  0  0
   25.4456  -21.1410  -12.0372 C   0  0  2  0  0  0  0  0  0  0  0  0
   26.4462  -20.6086  -12.9687 N   0  0  0  0  0  0  0  0  0  0  0  0
   24.0872  -20.8069  -12.5476 C   0  0  0  0  0  0  0  0  0  0  0  0
   23.8755  -19.5790  -12.8715 O   0  0  0  0  0  0  0  0  0  0  0  0
   18.2576  -25.5860  -16.7496 N   0  0  0  0  0  0  0  0  0  0  0  0
   19.5944  -25.3009  -16.3639 C   0  0  0  0  0  0  0  0  0  0  0  0
   20.5287  -26.1018  -16.7511 N   0  0  0  0  0  0  0  0  0  0  0  0
   19.9703  -24.1828  -15.5739 N   0  0  0  0  0  0  0  0  0  0  0  0
   19.0182  -23.1139  -15.2582 C   0  0  0  0  0  0  0  0  0  0  0  0
   19.7400  -21.9394  -14.6185 C   0  0  0  0  0  0  0  0  0  0  0  0
   21.0362  -22.3598  -13.9969 C   0  0  0  0  0  0  0  0  0  0  0  0
   21.7498  -21.2079  -13.3212 C   0  0  2  0  0  0  0  0  0  0  0  0
   23.0120  -21.6728  -12.7212 N   0  0  0  0  0  0  0  0  0  0  0  0
   20.8416  -20.7052  -12.2636 C   0  0  0  0  0  0  0  0  0  0  0  0
   21.0706  -21.0386  -11.0777 O   0  0  0  0  0  0  0  0  0  0  0  0
   19.7534  -19.8877  -12.5079 O   0  0  0  0  0  0  0  0  0  0  0  0
  2  1  1  6
  2  3  1  0
  4  3  1  0
  5  4  2  0
  6  2  1  0
  7  6  2  0
  8  4  1  0
  9 10  1  0
 10 11  1  0
 11 12  1  1
 13 11  1  0
 13 14  1  6
 14  6  1  0
 15 13  1  0
 16 15  2  0
 18 19  2  0
 18 17  1  0
 20 18  1  0
 21 20  1  0
 22 21  1  0
 22 23  1  0
 24 23  1  1
 24 25  1  0
 25 15  1  0
 26 24  1  0
 26 28  1  0
 27 26  2  0
M  END
$$$$
