NTA.pdb
     RDKit          3D

 21 20  0  0  1  0  0  0  0  0999 V2000
   17.2753  -13.7756  -14.6645 N   0  0  0  0  0  0  0  0  0  0  0  0
   18.5661  -13.5964  -15.1995 C   0  0  0  0  0  0  0  0  0  0  0  0
   19.4288  -14.5075  -15.1528 O   0  0  0  0  0  0  0  0  0  0  0  0
   18.9044  -12.2905  -15.8334 C   0  0  0  0  0  0  0  0  0  0  0  0
   17.7181  -11.3344  -15.7254 C   0  0  2  0  0  0  0  0  0  0  0  0
   16.6624  -11.8588  -16.5679 N   0  0  0  0  0  0  0  0  0  0  0  0
   18.1744  -10.0046  -16.1554 C   0  0  0  0  0  0  0  0  0  0  0  0
   18.3516   -9.6842  -17.3585 O   0  0  0  0  0  0  0  0  0  0  0  0
   16.9841   -6.8573  -14.0304 C   0  0  0  0  0  0  0  0  0  0  0  0
   17.6443   -6.7812  -15.3688 C   0  0  1  0  0  0  0  0  0  0  0  0
   17.8968   -5.4623  -15.7183 O   0  0  0  0  0  0  0  0  0  0  0  0
   18.8401   -7.6709  -15.5183 C   0  0  2  0  0  0  0  0  0  0  0  0
   18.4341   -9.0144  -15.1681 N   0  0  0  0  0  0  0  0  0  0  0  0
   20.0220   -7.2605  -14.7849 C   0  0  0  0  0  0  0  0  0  0  0  0
   20.0998   -7.5828  -13.5697 O   0  0  0  0  0  0  0  0  0  0  0  0
   23.3924   -5.6413  -15.3662 C   0  0  0  0  0  0  0  0  0  0  0  0
   22.2515   -6.1737  -14.5084 C   0  0  2  0  0  0  0  0  0  0  0  0
   21.1093   -6.5251  -15.3057 N   0  0  0  0  0  0  0  0  0  0  0  0
   21.9665   -5.2469  -13.4237 C   0  0  0  0  0  0  0  0  0  0  0  0
   22.7150   -5.2606  -12.2659 O   0  0  0  0  0  0  0  0  0  0  0  0
   21.0342   -4.4228  -13.5296 O   0  0  0  0  0  0  0  0  0  0  0  0
  1  2  1  0
  2  3  2  0
  4  2  1  0
  4  5  1  0
  5  6  1  6
  7  5  1  0
  7 13  1  0
  8  7  2  0
 10  9  1  1
 10 12  1  0
 10 11  1  0
 12 13  1  1
 12 14  1  0
 14 15  2  0
 17 16  1  6
 17 19  1  0
 18 14  1  0
 18 17  1  0
 19 20  1  0
 21 19  2  0
M  END
$$$$
