NTA.pdb
     RDKit          3D

 21 20  0  0  1  0  0  0  0  0999 V2000
   12.1068  -12.5264  -14.1873 N   0  0  0  0  0  0  0  0  0  0  0  0
   13.0716  -11.8742  -14.9799 C   0  0  0  0  0  0  0  0  0  0  0  0
   13.0307  -11.9189  -16.2339 O   0  0  0  0  0  0  0  0  0  0  0  0
   14.1621  -11.1162  -14.3028 C   0  0  0  0  0  0  0  0  0  0  0  0
   15.4859  -11.3433  -15.0303 C   0  0  2  0  0  0  0  0  0  0  0  0
   15.9018  -12.7038  -14.7558 N   0  0  0  0  0  0  0  0  0  0  0  0
   16.4468  -10.3486  -14.5318 C   0  0  0  0  0  0  0  0  0  0  0  0
   17.3013  -10.5905  -13.6414 O   0  0  0  0  0  0  0  0  0  0  0  0
   19.1720   -9.8592  -14.6651 C   0  0  0  0  0  0  0  0  0  0  0  0
   18.7431   -8.5564  -15.2580 C   0  0  1  0  0  0  0  0  0  0  0  0
   18.8127   -8.5997  -16.6432 O   0  0  0  0  0  0  0  0  0  0  0  0
   17.4285   -8.0499  -14.7486 C   0  0  2  0  0  0  0  0  0  0  0  0
   16.4215   -9.0351  -15.0767 N   0  0  0  0  0  0  0  0  0  0  0  0
   17.0493   -6.7254  -15.2017 C   0  0  0  0  0  0  0  0  0  0  0  0
   16.6662   -6.6010  -16.3952 O   0  0  0  0  0  0  0  0  0  0  0  0
   15.9447   -3.4174  -13.9692 C   0  0  0  0  0  0  0  0  0  0  0  0
   16.7204   -4.2623  -14.9718 C   0  0  2  0  0  0  0  0  0  0  0  0
   17.0673   -5.5453  -14.4264 N   0  0  0  0  0  0  0  0  0  0  0  0
   17.8474   -3.5066  -15.4968 C   0  0  0  0  0  0  0  0  0  0  0  0
   17.6475   -2.3743  -16.2577 O   0  0  0  0  0  0  0  0  0  0  0  0
   19.0167   -3.8775  -15.2628 O   0  0  0  0  0  0  0  0  0  0  0  0
  1  2  1  0
  2  3  2  0
  4  2  1  0
  4  5  1  0
  5  6  1  1
  7  5  1  0
  7 13  1  0
  8  7  2  0
 10  9  1  1
 10 12  1  0
 10 11  1  0
 12 13  1  6
 12 14  1  0
 14 15  2  0
 17 16  1  1
 17 19  1  0
 18 14  1  0
 18 17  1  0
 19 20  1  0
 21 19  2  0
M  END
$$$$
