NTA.pdb
     RDKit          3D

 21 20  0  0  1  0  0  0  0  0999 V2000
   18.4690  -12.9850  -19.1044 N   0  0  0  0  0  0  0  0  0  0  0  0
   18.9087  -13.6358  -17.9349 C   0  0  0  0  0  0  0  0  0  0  0  0
   18.8069  -14.8796  -17.7976 O   0  0  0  0  0  0  0  0  0  0  0  0
   19.5073  -12.8183  -16.8417 C   0  0  0  0  0  0  0  0  0  0  0  0
   19.4156  -11.3337  -17.1891 C   0  0  2  0  0  0  0  0  0  0  0  0
   20.2645  -11.1063  -18.3410 N   0  0  0  0  0  0  0  0  0  0  0  0
   19.8492  -10.5704  -16.0098 C   0  0  0  0  0  0  0  0  0  0  0  0
   19.3511  -10.7154  -14.8642 O   0  0  0  0  0  0  0  0  0  0  0  0
   22.9361  -10.7440  -14.3361 C   0  0  0  0  0  0  0  0  0  0  0  0
   22.8184   -9.3274  -14.7967 C   0  0  1  0  0  0  0  0  0  0  0  0
   23.6564   -9.0902  -15.8770 O   0  0  0  0  0  0  0  0  0  0  0  0
   21.4112   -8.8693  -15.0294 C   0  0  2  0  0  0  0  0  0  0  0  0
   20.8888   -9.6110  -16.1561 N   0  0  0  0  0  0  0  0  0  0  0  0
   21.2383   -7.4398  -15.2029 C   0  0  0  0  0  0  0  0  0  0  0  0
   21.4315   -6.9606  -16.3516 O   0  0  0  0  0  0  0  0  0  0  0  0
   19.6001   -4.4488  -13.8844 C   0  0  0  0  0  0  0  0  0  0  0  0
   20.8701   -5.0998  -14.4174 C   0  0  2  0  0  0  0  0  0  0  0  0
   20.8696   -6.5195  -14.1973 N   0  0  0  0  0  0  0  0  0  0  0  0
   22.0415   -4.4105  -13.8983 C   0  0  0  0  0  0  0  0  0  0  0  0
   22.4672   -3.2222  -14.4531 O   0  0  0  0  0  0  0  0  0  0  0  0
   22.6792   -4.8905  -12.9379 O   0  0  0  0  0  0  0  0  0  0  0  0
  1  2  1  0
  2  3  2  0
  4  2  1  0
  4  5  1  0
  5  6  1  6
  7  5  1  0
  7 13  1  0
  8  7  2  0
 10  9  1  6
 10 12  1  0
 10 11  1  0
 12 13  1  6
 12 14  1  0
 14 15  2  0
 17 16  1  1
 17 19  1  0
 18 14  1  0
 18 17  1  0
 19 20  1  0
 21 19  2  0
M  END
$$$$
