NTA.pdb
     RDKit          3D

 21 20  0  0  1  0  0  0  0  0999 V2000
   17.2538  -16.3923  -14.5809 N   0  0  0  0  0  0  0  0  0  0  0  0
   17.3167  -16.3912  -15.9882 C   0  0  0  0  0  0  0  0  0  0  0  0
   16.9919  -17.4003  -16.6610 O   0  0  0  0  0  0  0  0  0  0  0  0
   17.7814  -15.1576  -16.6840 C   0  0  0  0  0  0  0  0  0  0  0  0
   18.0343  -14.0473  -15.6659 C   0  0  2  0  0  0  0  0  0  0  0  0
   16.7440  -13.6157  -15.1678 N   0  0  0  0  0  0  0  0  0  0  0  0
   18.7632  -12.9698  -16.3506 C   0  0  0  0  0  0  0  0  0  0  0  0
   19.8157  -13.1528  -17.0141 O   0  0  0  0  0  0  0  0  0  0  0  0
   17.2568  -10.5987  -18.8866 C   0  0  0  0  0  0  0  0  0  0  0  0
   17.8145   -9.8257  -17.7358 C   0  0  1  0  0  0  0  0  0  0  0  0
   16.7953   -9.3450  -16.9262 O   0  0  0  0  0  0  0  0  0  0  0  0
   18.8863  -10.5423  -16.9729 C   0  0  2  0  0  0  0  0  0  0  0  0
   18.2633  -11.6409  -16.2677 N   0  0  0  0  0  0  0  0  0  0  0  0
   19.6807   -9.7169  -16.0835 C   0  0  0  0  0  0  0  0  0  0  0  0
   19.3215   -9.6384  -14.8788 O   0  0  0  0  0  0  0  0  0  0  0  0
   22.8989   -7.7274  -16.0468 C   0  0  0  0  0  0  0  0  0  0  0  0
   21.5510   -8.1733  -15.4944 C   0  0  2  0  0  0  0  0  0  0  0  0
   20.8331   -8.9825  -16.4396 N   0  0  0  0  0  0  0  0  0  0  0  0
   20.8085   -7.0243  -14.9991 C   0  0  0  0  0  0  0  0  0  0  0  0
   21.1743   -6.3967  -13.8273 O   0  0  0  0  0  0  0  0  0  0  0  0
   19.8246   -6.5904  -15.6341 O   0  0  0  0  0  0  0  0  0  0  0  0
  1  2  1  0
  2  3  2  0
  4  2  1  0
  4  5  1  0
  5  6  1  6
  7  5  1  0
  7 13  1  0
  8  7  2  0
 10  9  1  6
 10 12  1  0
 10 11  1  0
 12 13  1  1
 12 14  1  0
 14 15  2  0
 17 16  1  6
 17 19  1  0
 18 14  1  0
 18 17  1  0
 19 20  1  0
 21 19  2  0
M  END
$$$$
