NTA.pdb
     RDKit          3D

 21 20  0  0  1  0  0  0  0  0999 V2000
   15.2693  -15.8956  -15.2025 N   0  0  0  0  0  0  0  0  0  0  0  0
   15.7335  -16.0261  -16.5261 C   0  0  0  0  0  0  0  0  0  0  0  0
   15.3785  -16.9845  -17.2552 O   0  0  0  0  0  0  0  0  0  0  0  0
   16.6677  -14.9960  -17.0628 C   0  0  0  0  0  0  0  0  0  0  0  0
   16.9587  -13.9459  -15.9923 C   0  0  2  0  0  0  0  0  0  0  0  0
   15.7296  -13.2151  -15.7588 N   0  0  0  0  0  0  0  0  0  0  0  0
   18.0402  -13.0848  -16.4924 C   0  0  0  0  0  0  0  0  0  0  0  0
   19.0696  -13.5221  -17.0674 O   0  0  0  0  0  0  0  0  0  0  0  0
   17.7233  -10.3736  -18.9981 C   0  0  0  0  0  0  0  0  0  0  0  0
   18.2445   -9.7839  -17.7279 C   0  0  1  0  0  0  0  0  0  0  0  0
   17.2568   -9.0528  -17.0834 O   0  0  0  0  0  0  0  0  0  0  0  0
   18.9339  -10.7648  -16.8297 C   0  0  2  0  0  0  0  0  0  0  0  0
   17.9314  -11.6768  -16.3241 N   0  0  0  0  0  0  0  0  0  0  0  0
   19.7211  -10.1866  -15.7575 C   0  0  0  0  0  0  0  0  0  0  0  0
   19.1248   -9.8808  -14.6910 O   0  0  0  0  0  0  0  0  0  0  0  0
   23.3038   -9.5250  -14.7831 C   0  0  0  0  0  0  0  0  0  0  0  0
   21.8000   -9.2952  -14.7033 C   0  0  2  0  0  0  0  0  0  0  0  0
   21.1091   -9.9292  -15.7916 N   0  0  0  0  0  0  0  0  0  0  0  0
   21.5180   -7.8754  -14.5567 C   0  0  0  0  0  0  0  0  0  0  0  0
   21.7894   -7.2181  -13.3755 O   0  0  0  0  0  0  0  0  0  0  0  0
   21.0234   -7.2315  -15.5056 O   0  0  0  0  0  0  0  0  0  0  0  0
  1  2  1  0
  2  3  2  0
  4  2  1  0
  4  5  1  0
  5  6  1  6
  7  5  1  0
  7 13  1  0
  8  7  2  0
 10  9  1  6
 10 12  1  0
 10 11  1  0
 12 13  1  1
 12 14  1  0
 14 15  2  0
 17 16  1  6
 17 19  1  0
 18 14  1  0
 18 17  1  0
 19 20  1  0
 21 19  2  0
M  END
$$$$
