NTA.pdb
     RDKit          3D

 21 20  0  0  1  0  0  0  0  0999 V2000
   14.9010  -13.8630  -14.9779 N   0  0  0  0  0  0  0  0  0  0  0  0
   15.0142  -12.4648  -14.8484 C   0  0  0  0  0  0  0  0  0  0  0  0
   14.2616  -11.6836  -15.4806 O   0  0  0  0  0  0  0  0  0  0  0  0
   16.0554  -11.9113  -13.9367 C   0  0  0  0  0  0  0  0  0  0  0  0
   16.6560  -10.6424  -14.5387 C   0  0  2  0  0  0  0  0  0  0  0  0
   17.6665  -11.0530  -15.4924 N   0  0  0  0  0  0  0  0  0  0  0  0
   17.2123   -9.8441  -13.4366 C   0  0  0  0  0  0  0  0  0  0  0  0
   18.1785  -10.2182  -12.7239 O   0  0  0  0  0  0  0  0  0  0  0  0
   19.0300   -6.9061  -13.6047 C   0  0  0  0  0  0  0  0  0  0  0  0
   17.8252   -6.5470  -12.7970 C   0  0  1  0  0  0  0  0  0  0  0  0
   16.9425   -5.7804  -13.5445 O   0  0  0  0  0  0  0  0  0  0  0  0
   17.1685   -7.7098  -12.1182 C   0  0  2  0  0  0  0  0  0  0  0  0
   16.6370   -8.5759  -13.1477 N   0  0  0  0  0  0  0  0  0  0  0  0
   16.1618   -7.3719  -11.1305 C   0  0  0  0  0  0  0  0  0  0  0  0
   15.0023   -7.1033  -11.5427 O   0  0  0  0  0  0  0  0  0  0  0  0
   15.6925   -7.1829   -7.3792 C   0  0  0  0  0  0  0  0  0  0  0  0
   15.3158   -6.9067   -8.8292 C   0  0  2  0  0  0  0  0  0  0  0  0
   16.3558   -7.3135   -9.7330 N   0  0  0  0  0  0  0  0  0  0  0  0
   14.8931   -5.5228   -8.9814 C   0  0  0  0  0  0  0  0  0  0  0  0
   15.6763   -4.6142   -9.6611 O   0  0  0  0  0  0  0  0  0  0  0  0
   13.8088   -5.1396   -8.4948 O   0  0  0  0  0  0  0  0  0  0  0  0
  1  2  1  0
  2  3  2  0
  4  2  1  0
  4  5  1  0
  5  6  1  6
  7  5  1  0
  7 13  1  0
  8  7  2  0
 10  9  1  6
 10 12  1  0
 10 11  1  0
 12 13  1  6
 12 14  1  0
 14 15  2  0
 17 16  1  1
 17 19  1  0
 18 14  1  0
 18 17  1  0
 19 20  1  0
 21 19  2  0
M  END
$$$$
