NTA.pdb
     RDKit          3D

 21 20  0  0  1  0  0  0  0  0999 V2000
   29.2544  -34.0906   -5.7223 N   0  0  0  0  0  0  0  0  0  0  0  0
   29.9095  -34.9092   -4.7814 C   0  0  0  0  0  0  0  0  0  0  0  0
   30.5247  -35.9469   -5.1291 O   0  0  0  0  0  0  0  0  0  0  0  0
   29.8645  -34.5242   -3.3420 C   0  0  0  0  0  0  0  0  0  0  0  0
   28.9888  -35.5060   -2.5657 C   0  0  2  0  0  0  0  0  0  0  0  0
   27.6198  -35.2913   -2.9885 N   0  0  0  0  0  0  0  0  0  0  0  0
   29.1840  -35.2431   -1.1325 C   0  0  0  0  0  0  0  0  0  0  0  0
   28.8149  -34.1852   -0.5616 O   0  0  0  0  0  0  0  0  0  0  0  0
   27.5354  -36.5037    1.5803 C   0  0  0  0  0  0  0  0  0  0  0  0
   28.9464  -36.9655    1.7498 C   0  0  1  0  0  0  0  0  0  0  0  0
   29.0727  -38.3011    1.3955 O   0  0  0  0  0  0  0  0  0  0  0  0
   29.9667  -36.0829    1.0984 C   0  0  2  0  0  0  0  0  0  0  0  0
   29.8244  -36.2302   -0.3335 N   0  0  0  0  0  0  0  0  0  0  0  0
   31.3375  -36.2900    1.5242 C   0  0  0  0  0  0  0  0  0  0  0  0
   32.0098  -37.1732    0.9288 O   0  0  0  0  0  0  0  0  0  0  0  0
   33.9171  -34.8398    3.8844 C   0  0  0  0  0  0  0  0  0  0  0  0
   33.3473  -35.9010    2.9517 C   0  0  2  0  0  0  0  0  0  0  0  0
   32.0022  -35.5896    2.5547 N   0  0  0  0  0  0  0  0  0  0  0  0
   33.5114  -37.2225    3.5378 C   0  0  0  0  0  0  0  0  0  0  0  0
   34.7434  -37.8411    3.5552 O   0  0  0  0  0  0  0  0  0  0  0  0
   32.5314  -37.8156    4.0352 O   0  0  0  0  0  0  0  0  0  0  0  0
  1  2  1  0
  2  3  2  0
  4  2  1  0
  4  5  1  0
  5  6  1  6
  7  5  1  0
  7 13  1  0
  8  7  2  0
 10  9  1  6
 10 12  1  0
 10 11  1  0
 12 13  1  6
 12 14  1  0
 14 15  2  0
 17 16  1  1
 17 19  1  0
 18 14  1  0
 18 17  1  0
 19 20  1  0
 21 19  2  0
M  END
$$$$
