NTA.pdb
     RDKit          3D

 21 20  0  0  1  0  0  0  0  0999 V2000
   21.3958  -22.2467  -10.2333 N   0  0  0  0  0  0  0  0  0  0  0  0
   21.2326  -20.8813  -10.5393 C   0  0  0  0  0  0  0  0  0  0  0  0
   20.0938  -20.3642  -10.6484 O   0  0  0  0  0  0  0  0  0  0  0  0
   22.4477  -20.0406  -10.7360 C   0  0  0  0  0  0  0  0  0  0  0  0
   23.7042  -20.8693  -10.4757 C   0  0  2  0  0  0  0  0  0  0  0  0
   23.8042  -21.0642   -9.0435 N   0  0  0  0  0  0  0  0  0  0  0  0
   24.8498  -20.1299  -11.0254 C   0  0  0  0  0  0  0  0  0  0  0  0
   25.4600  -19.2253  -10.4002 O   0  0  0  0  0  0  0  0  0  0  0  0
   28.0221  -21.5372  -12.0199 C   0  0  0  0  0  0  0  0  0  0  0  0
   27.4719  -20.8488  -13.2266 C   0  0  1  0  0  0  0  0  0  0  0  0
   27.0357  -21.7738  -14.1645 O   0  0  0  0  0  0  0  0  0  0  0  0
   26.4551  -19.7912  -12.9236 C   0  0  2  0  0  0  0  0  0  0  0  0
   25.3055  -20.4432  -12.3357 N   0  0  0  0  0  0  0  0  0  0  0  0
   26.0784  -18.9460  -14.0403 C   0  0  0  0  0  0  0  0  0  0  0  0
   25.0359  -19.2482  -14.6794 O   0  0  0  0  0  0  0  0  0  0  0  0
   26.9341  -15.6095  -15.5677 C   0  0  0  0  0  0  0  0  0  0  0  0
   26.3072  -16.9978  -15.5831 C   0  0  2  0  0  0  0  0  0  0  0  0
   26.7744  -17.8018  -14.4881 N   0  0  0  0  0  0  0  0  0  0  0  0
   26.4757  -17.6082  -16.8930 C   0  0  0  0  0  0  0  0  0  0  0  0
   25.7697  -17.1483  -17.9844 O   0  0  0  0  0  0  0  0  0  0  0  0
   27.2669  -18.5623  -17.0448 O   0  0  0  0  0  0  0  0  0  0  0  0
  1  2  1  0
  2  3  2  0
  4  2  1  0
  4  5  1  0
  5  6  1  1
  7  5  1  0
  7 13  1  0
  8  7  2  0
 10  9  1  1
 10 12  1  0
 10 11  1  0
 12 13  1  6
 12 14  1  0
 14 15  2  0
 17 16  1  6
 17 19  1  0
 18 14  1  0
 18 17  1  0
 19 20  1  0
 21 19  2  0
M  END
$$$$
