NTA.pdb
     RDKit          3D

 21 20  0  0  1  0  0  0  0  0999 V2000
   14.5723   -4.6367   -7.5216 N   0  0  0  0  0  0  0  0  0  0  0  0
   14.6080   -6.0026   -7.1786 C   0  0  0  0  0  0  0  0  0  0  0  0
   14.0248   -6.4385   -6.1558 O   0  0  0  0  0  0  0  0  0  0  0  0
   15.3589   -6.9431   -8.0581 C   0  0  0  0  0  0  0  0  0  0  0  0
   14.7610   -6.9342   -9.4637 C   0  0  2  0  0  0  0  0  0  0  0  0
   13.5288   -7.6949   -9.4138 N   0  0  0  0  0  0  0  0  0  0  0  0
   15.7516   -7.5249  -10.3752 C   0  0  0  0  0  0  0  0  0  0  0  0
   15.9233   -8.7634  -10.5098 O   0  0  0  0  0  0  0  0  0  0  0  0
   15.5321   -7.3677  -13.8731 C   0  0  0  0  0  0  0  0  0  0  0  0
   16.8233   -6.7046  -13.5184 C   0  0  1  0  0  0  0  0  0  0  0  0
   16.7105   -5.3249  -13.6149 O   0  0  0  0  0  0  0  0  0  0  0  0
   17.4137   -7.1591  -12.2188 C   0  0  2  0  0  0  0  0  0  0  0  0
   16.5692   -6.6612  -11.1551 N   0  0  0  0  0  0  0  0  0  0  0  0
   18.8049   -6.8090  -12.0062 C   0  0  0  0  0  0  0  0  0  0  0  0
   19.0531   -5.7743  -11.3322 O   0  0  0  0  0  0  0  0  0  0  0  0
   22.2885   -8.0244  -12.8821 C   0  0  0  0  0  0  0  0  0  0  0  0
   21.2634   -7.0142  -12.3826 C   0  0  2  0  0  0  0  0  0  0  0  0
   19.9242   -7.5235  -12.4867 N   0  0  0  0  0  0  0  0  0  0  0  0
   21.4707   -5.7285  -13.0314 C   0  0  0  0  0  0  0  0  0  0  0  0
   22.4319   -4.8519  -12.5746 O   0  0  0  0  0  0  0  0  0  0  0  0
   20.7757   -5.4021  -14.0162 O   0  0  0  0  0  0  0  0  0  0  0  0
  1  2  1  0
  2  3  2  0
  4  2  1  0
  4  5  1  0
  5  6  1  1
  7  5  1  0
  7 13  1  0
  8  7  2  0
 10  9  1  1
 10 12  1  0
 10 11  1  0
 12 13  1  1
 12 14  1  0
 14 15  2  0
 17 16  1  6
 17 19  1  0
 18 14  1  0
 18 17  1  0
 19 20  1  0
 21 19  2  0
M  END
$$$$
