NTA.pdb
     RDKit          3D

 21 20  0  0  1  0  0  0  0  0999 V2000
   13.6574   -8.7134   -9.8442 N   0  0  0  0  0  0  0  0  0  0  0  0
   14.3658   -9.8969  -10.1307 C   0  0  0  0  0  0  0  0  0  0  0  0
   13.9602  -11.0172   -9.7349 O   0  0  0  0  0  0  0  0  0  0  0  0
   15.6248   -9.8046  -10.9232 C   0  0  0  0  0  0  0  0  0  0  0  0
   15.2981   -9.6673  -12.4090 C   0  0  2  0  0  0  0  0  0  0  0  0
   14.6826  -10.9086  -12.8326 N   0  0  0  0  0  0  0  0  0  0  0  0
   16.5548   -9.3899  -13.1198 C   0  0  0  0  0  0  0  0  0  0  0  0
   17.3890  -10.2776  -13.4325 O   0  0  0  0  0  0  0  0  0  0  0  0
   16.8766   -8.3876  -16.4746 C   0  0  0  0  0  0  0  0  0  0  0  0
   17.4539   -7.2822  -15.6512 C   0  0  1  0  0  0  0  0  0  0  0  0
   16.5656   -6.2200  -15.5619 O   0  0  0  0  0  0  0  0  0  0  0  0
   17.9887   -7.7181  -14.3215 C   0  0  2  0  0  0  0  0  0  0  0  0
   16.8587   -8.0483  -13.4809 N   0  0  0  0  0  0  0  0  0  0  0  0
   18.8855   -6.7830  -13.6699 C   0  0  0  0  0  0  0  0  0  0  0  0
   18.3739   -5.8774  -12.9594 O   0  0  0  0  0  0  0  0  0  0  0  0
   22.5403   -6.2435  -12.9416 C   0  0  0  0  0  0  0  0  0  0  0  0
   21.1050   -5.7727  -13.1396 C   0  0  2  0  0  0  0  0  0  0  0  0
   20.2951   -6.7876  -13.7543 N   0  0  0  0  0  0  0  0  0  0  0  0
   21.0893   -4.4910  -13.8280 C   0  0  0  0  0  0  0  0  0  0  0  0
   21.4401   -3.3306  -13.1714 O   0  0  0  0  0  0  0  0  0  0  0  0
   20.7557   -4.4270  -15.0297 O   0  0  0  0  0  0  0  0  0  0  0  0
  1  2  1  0
  2  3  2  0
  4  2  1  0
  4  5  1  0
  5  6  1  6
  7  5  1  0
  7 13  1  0
  8  7  2  0
 10  9  1  1
 10 12  1  0
 10 11  1  0
 12 13  1  1
 12 14  1  0
 14 15  2  0
 17 16  1  6
 17 19  1  0
 18 14  1  0
 18 17  1  0
 19 20  1  0
 21 19  2  0
M  END
$$$$
