NTA.pdb
     RDKit          3D

 21 20  0  0  1  0  0  0  0  0999 V2000
   24.7590  -10.7528  -14.4247 N   0  0  0  0  0  0  0  0  0  0  0  0
   23.7584  -11.3471  -15.2186 C   0  0  0  0  0  0  0  0  0  0  0  0
   23.5917  -12.5913  -15.2424 O   0  0  0  0  0  0  0  0  0  0  0  0
   22.8831  -10.4684  -16.0453 C   0  0  0  0  0  0  0  0  0  0  0  0
   23.3110   -9.0102  -15.8905 C   0  0  2  0  0  0  0  0  0  0  0  0
   23.0744   -8.6347  -14.5113 N   0  0  0  0  0  0  0  0  0  0  0  0
   22.5205   -8.2091  -16.8363 C   0  0  0  0  0  0  0  0  0  0  0  0
   22.5574   -8.3664  -18.0834 O   0  0  0  0  0  0  0  0  0  0  0  0
   19.0803   -8.1521  -17.6521 C   0  0  0  0  0  0  0  0  0  0  0  0
   19.4071   -6.8487  -16.9984 C   0  0  1  0  0  0  0  0  0  0  0  0
   19.0147   -6.8540  -15.6674 O   0  0  0  0  0  0  0  0  0  0  0  0
   20.8220   -6.3976  -17.1950 C   0  0  2  0  0  0  0  0  0  0  0  0
   21.6615   -7.1957  -16.3285 N   0  0  0  0  0  0  0  0  0  0  0  0
   21.0585   -4.9786  -17.0108 C   0  0  0  0  0  0  0  0  0  0  0  0
   21.3661   -4.5800  -15.8563 O   0  0  0  0  0  0  0  0  0  0  0  0
   21.3430   -1.7810  -19.0126 C   0  0  0  0  0  0  0  0  0  0  0  0
   21.1930   -2.5935  -17.7327 C   0  0  2  0  0  0  0  0  0  0  0  0
   20.9769   -3.9860  -18.0120 N   0  0  0  0  0  0  0  0  0  0  0  0
   20.1881   -1.9891  -16.8714 C   0  0  0  0  0  0  0  0  0  0  0  0
   20.4081   -0.7639  -16.2787 O   0  0  0  0  0  0  0  0  0  0  0  0
   19.1075   -2.5774  -16.6575 O   0  0  0  0  0  0  0  0  0  0  0  0
  1  2  1  0
  2  3  2  0
  4  2  1  0
  4  5  1  0
  5  6  1  1
  7  5  1  0
  7 13  1  0
  8  7  2  0
 10  9  1  1
 10 12  1  0
 10 11  1  0
 12 13  1  1
 12 14  1  0
 14 15  2  0
 17 16  1  6
 17 19  1  0
 18 14  1  0
 18 17  1  0
 19 20  1  0
 21 19  2  0
M  END
$$$$
