NTA.pdb
     RDKit          3D

 21 20  0  0  1  0  0  0  0  0999 V2000
   24.5854  -20.8075   -8.4126 N   0  0  0  0  0  0  0  0  0  0  0  0
   25.7970  -20.1335   -8.6620 C   0  0  0  0  0  0  0  0  0  0  0  0
   26.4573  -19.6045   -7.7343 O   0  0  0  0  0  0  0  0  0  0  0  0
   26.2971  -20.0529  -10.0638 C   0  0  0  0  0  0  0  0  0  0  0  0
   25.3153  -20.7425  -11.0093 C   0  0  2  0  0  0  0  0  0  0  0  0
   25.7162  -22.1311  -11.1107 N   0  0  0  0  0  0  0  0  0  0  0  0
   25.3724  -20.0436  -12.3014 C   0  0  0  0  0  0  0  0  0  0  0  0
   25.3043  -18.7936  -12.4210 O   0  0  0  0  0  0  0  0  0  0  0  0
   28.0212  -20.3520  -14.8964 C   0  0  0  0  0  0  0  0  0  0  0  0
   26.7172  -20.6998  -15.5380 C   0  0  1  0  0  0  0  0  0  0  0  0
   26.6558  -22.0564  -15.8231 O   0  0  0  0  0  0  0  0  0  0  0  0
   25.5137  -20.1962  -14.8018 C   0  0  2  0  0  0  0  0  0  0  0  0
   25.5122  -20.8094  -13.4916 N   0  0  0  0  0  0  0  0  0  0  0  0
   24.2440  -20.3770  -15.4789 C   0  0  0  0  0  0  0  0  0  0  0  0
   23.5756  -21.4092  -15.2065 O   0  0  0  0  0  0  0  0  0  0  0  0
   21.8958  -18.5729  -17.8320 C   0  0  0  0  0  0  0  0  0  0  0  0
   22.4489  -19.7966  -17.1126 C   0  0  2  0  0  0  0  0  0  0  0  0
   23.6752  -19.4979  -16.4264 N   0  0  0  0  0  0  0  0  0  0  0  0
   22.5316  -20.9220  -18.0310 C   0  0  0  0  0  0  0  0  0  0  0  0
   21.4189  -21.6835  -18.3193 O   0  0  0  0  0  0  0  0  0  0  0  0
   23.6187  -21.2132  -18.5722 O   0  0  0  0  0  0  0  0  0  0  0  0
  1  2  1  0
  2  3  2  0
  4  2  1  0
  4  5  1  0
  5  6  1  6
  7  5  1  0
  7 13  1  0
  8  7  2  0
 10  9  1  1
 10 12  1  0
 10 11  1  0
 12 13  1  1
 12 14  1  0
 14 15  2  0
 17 16  1  6
 17 19  1  0
 18 14  1  0
 18 17  1  0
 19 20  1  0
 21 19  2  0
M  END
$$$$
