NTA.pdb
     RDKit          3D

 21 20  0  0  1  0  0  0  0  0999 V2000
   19.1837  -14.4577  -16.4391 N   0  0  0  0  0  0  0  0  0  0  0  0
   18.1634  -13.8426  -17.1909 C   0  0  0  0  0  0  0  0  0  0  0  0
   17.2651  -14.5157  -17.7533 O   0  0  0  0  0  0  0  0  0  0  0  0
   18.1604  -12.3572  -17.3145 C   0  0  0  0  0  0  0  0  0  0  0  0
   19.3687  -11.7699  -16.5877 C   0  0  2  0  0  0  0  0  0  0  0  0
   19.2394  -12.1144  -15.1863 N   0  0  0  0  0  0  0  0  0  0  0  0
   19.3644  -10.3173  -16.8138 C   0  0  0  0  0  0  0  0  0  0  0  0
   19.4738   -9.7885  -17.9495 O   0  0  0  0  0  0  0  0  0  0  0  0
   16.7374   -7.8742  -16.2676 C   0  0  0  0  0  0  0  0  0  0  0  0
   17.8771   -7.5209  -15.3680 C   0  0  1  0  0  0  0  0  0  0  0  0
   17.5981   -7.8794  -14.0569 O   0  0  0  0  0  0  0  0  0  0  0  0
   19.2116   -8.0090  -15.8423 C   0  0  2  0  0  0  0  0  0  0  0  0
   19.2299   -9.4480  -15.6961 N   0  0  0  0  0  0  0  0  0  0  0  0
   20.3639   -7.3923  -15.2136 C   0  0  0  0  0  0  0  0  0  0  0  0
   20.7291   -7.8371  -14.0932 O   0  0  0  0  0  0  0  0  0  0  0  0
   23.0941   -4.8798  -15.9220 C   0  0  0  0  0  0  0  0  0  0  0  0
   22.2101   -5.7250  -15.0138 C   0  0  2  0  0  0  0  0  0  0  0  0
   21.1274   -6.3278  -15.7407 N   0  0  0  0  0  0  0  0  0  0  0  0
   21.7983   -4.9495  -13.8537 C   0  0  0  0  0  0  0  0  0  0  0  0
   22.6446   -4.7807  -12.7785 O   0  0  0  0  0  0  0  0  0  0  0  0
   20.6658   -4.4245  -13.8183 O   0  0  0  0  0  0  0  0  0  0  0  0
  1  2  1  0
  2  3  2  0
  4  2  1  0
  4  5  1  0
  5  6  1  1
  7  5  1  0
  7 13  1  0
  8  7  2  0
 10  9  1  6
 10 12  1  0
 10 11  1  0
 12 13  1  1
 12 14  1  0
 14 15  2  0
 17 16  1  6
 17 19  1  0
 18 14  1  0
 18 17  1  0
 19 20  1  0
 21 19  2  0
M  END
$$$$
