LYP.pdb
     RDKit          3D

 28 29  0  0  1  0  0  0  0  0999 V2000
   16.6230  -18.8839  -16.3454 C   0  0  0  0  0  0  0  0  0  0  0  0
   17.8670  -19.7153  -16.5618 C   0  0  1  0  0  0  0  0  0  0  0  0
   18.4637  -19.4243  -17.9227 C   0  0  0  0  0  0  0  0  0  0  0  0
   18.9223  -19.4376  -15.5212 C   0  0  0  0  0  0  0  0  0  0  0  0
   20.1730  -20.1851  -15.9321 C   0  0  2  0  0  0  0  0  0  0  0  0
   19.9841  -21.5951  -15.9969 N   0  0  0  0  0  0  0  0  0  0  0  0
   21.3044  -19.8701  -15.0278 C   0  0  0  0  0  0  0  0  0  0  0  0
   21.6049  -18.6916  -14.7013 O   0  0  0  0  0  0  0  0  0  0  0  0
   27.4325  -20.2780   -8.8257 O   0  0  0  0  0  0  0  0  0  0  0  0
   26.4316  -20.5909   -9.7210 C   0  0  0  0  0  0  0  0  0  0  0  0
   26.7119  -21.3579  -10.8278 C   0  0  0  0  0  0  0  0  0  0  0  0
   25.7150  -21.6745  -11.7274 C   0  0  0  0  0  0  0  0  0  0  0  0
   24.4130  -21.2526  -11.5753 C   0  0  0  0  0  0  0  0  0  0  0  0
   23.3454  -21.5882  -12.5334 C   0  0  0  0  0  0  0  0  0  0  0  0
   23.2735  -20.6466  -13.7276 C   0  0  2  0  0  0  0  0  0  0  0  0
   22.0947  -20.9345  -14.4971 N   0  0  0  0  0  0  0  0  0  0  0  0
   24.4736  -20.6531  -14.5588 C   0  0  0  0  0  0  0  0  0  0  0  0
   24.5348  -21.5690  -15.4689 O   0  0  0  0  0  0  0  0  0  0  0  0
   24.1398  -20.4740  -10.4472 C   0  0  0  0  0  0  0  0  0  0  0  0
   25.1358  -20.1586   -9.5498 C   0  0  0  0  0  0  0  0  0  0  0  0
   25.5942  -19.7986  -14.5179 N   0  0  0  0  0  0  0  0  0  0  0  0
   25.9340  -18.8415  -13.5099 C   0  0  0  0  0  0  0  0  0  0  0  0
   27.3613  -18.3774  -13.8576 C   0  0  0  0  0  0  0  0  0  0  0  0
   27.2729  -18.4422  -15.3885 C   0  0  0  0  0  0  0  0  0  0  0  0
   26.6219  -19.7869  -15.5553 C   0  0  1  0  0  0  0  0  0  0  0  0
   27.6085  -20.8750  -15.3244 C   0  0  0  0  0  0  0  0  0  0  0  0
   27.5947  -21.5052  -14.2388 O   0  0  0  0  0  0  0  0  0  0  0  0
   28.5335  -21.1934  -16.2920 O   0  0  0  0  0  0  0  0  0  0  0  0
  2  1  1  1
  2  4  1  0
  3  2  1  0
  5  4  1  0
  5  6  1  1
  7  5  1  0
  7  8  2  0
  9 10  1  0
 10 11  2  0
 11 12  1  0
 13 12  2  0
 13 14  1  0
 15 14  1  1
 15 16  1  0
 16  7  1  0
 17 15  1  0
 18 17  2  0
 19 13  1  0
 20 10  1  0
 20 19  2  0
 21 17  1  0
 22 21  1  0
 22 23  1  0
 23 24  1  0
 25 21  1  0
 25 24  1  0
 25 26  1  1
 27 26  2  0
 28 26  1  0
M  END
$$$$
