LYP.pdb
     RDKit          3D

 28 29  0  0  1  0  0  0  0  0999 V2000
   26.5521  -14.5156  -21.0956 C   0  0  0  0  0  0  0  0  0  0  0  0
   26.4429  -13.5617  -19.9277 C   0  0  1  0  0  0  0  0  0  0  0  0
   25.0514  -12.9685  -19.8617 C   0  0  0  0  0  0  0  0  0  0  0  0
   26.7221  -14.2429  -18.6118 C   0  0  0  0  0  0  0  0  0  0  0  0
   26.2071  -15.6625  -18.7170 C   0  0  2  0  0  0  0  0  0  0  0  0
   24.7889  -15.7349  -18.8245 N   0  0  0  0  0  0  0  0  0  0  0  0
   26.6674  -16.4836  -17.5720 C   0  0  0  0  0  0  0  0  0  0  0  0
   27.8857  -16.6362  -17.2923 O   0  0  0  0  0  0  0  0  0  0  0  0
   26.1030  -21.6861  -10.4028 O   0  0  0  0  0  0  0  0  0  0  0  0
   25.8887  -20.7531  -11.3950 C   0  0  0  0  0  0  0  0  0  0  0  0
   26.7114  -19.6558  -11.4986 C   0  0  0  0  0  0  0  0  0  0  0  0
   26.5024  -18.7184  -12.4891 C   0  0  0  0  0  0  0  0  0  0  0  0
   25.4838  -18.8225  -13.4099 C   0  0  0  0  0  0  0  0  0  0  0  0
   25.2569  -17.8241  -14.4692 C   0  0  0  0  0  0  0  0  0  0  0  0
   26.1289  -18.0260  -15.7007 C   0  0  2  0  0  0  0  0  0  0  0  0
   25.7031  -17.1337  -16.7434 N   0  0  0  0  0  0  0  0  0  0  0  0
   26.1849  -19.4088  -16.1653 C   0  0  0  0  0  0  0  0  0  0  0  0
   25.1907  -19.8112  -16.8866 O   0  0  0  0  0  0  0  0  0  0  0  0
   24.6542  -19.9414  -13.2951 C   0  0  0  0  0  0  0  0  0  0  0  0
   24.8638  -20.8764  -12.3060 C   0  0  0  0  0  0  0  0  0  0  0  0
   27.1748  -20.3876  -15.9421 N   0  0  0  0  0  0  0  0  0  0  0  0
   28.3098  -20.3086  -15.0743 C   0  0  0  0  0  0  0  0  0  0  0  0
   28.8982  -21.7322  -15.0475 C   0  0  0  0  0  0  0  0  0  0  0  0
   28.5909  -22.1507  -16.4918 C   0  0  0  0  0  0  0  0  0  0  0  0
   27.1631  -21.6924  -16.5978 C   0  0  1  0  0  0  0  0  0  0  0  0
   26.2608  -22.6297  -15.8779 C   0  0  0  0  0  0  0  0  0  0  0  0
   25.7127  -22.2657  -14.8089 O   0  0  0  0  0  0  0  0  0  0  0  0
   26.0247  -23.8902  -16.3766 O   0  0  0  0  0  0  0  0  0  0  0  0
  2  1  1  6
  2  4  1  0
  3  2  1  0
  5  4  1  0
  5  6  1  1
  7  5  1  0
  7  8  2  0
  9 10  1  0
 10 11  2  0
 11 12  1  0
 13 12  2  0
 13 14  1  0
 15 14  1  1
 15 16  1  0
 16  7  1  0
 17 15  1  0
 18 17  2  0
 19 13  1  0
 20 10  1  0
 20 19  2  0
 21 17  1  0
 22 21  1  0
 22 23  1  0
 23 24  1  0
 25 21  1  0
 25 24  1  0
 25 26  1  1
 27 26  2  0
 28 26  1  0
M  END
$$$$
