LYP.pdb
     RDKit          3D

 28 29  0  0  1  0  0  0  0  0999 V2000
   29.6621  -17.2153  -17.7171 C   0  0  0  0  0  0  0  0  0  0  0  0
   28.2063  -17.1436  -18.1184 C   0  0  1  0  0  0  0  0  0  0  0  0
   27.7013  -18.5155  -18.5126 C   0  0  0  0  0  0  0  0  0  0  0  0
   27.3350  -16.6298  -17.0002 C   0  0  0  0  0  0  0  0  0  0  0  0
   26.0051  -17.3470  -17.0947 C   0  0  2  0  0  0  0  0  0  0  0  0
   25.0146  -16.5961  -17.7896 N   0  0  0  0  0  0  0  0  0  0  0  0
   25.5031  -17.7197  -15.7507 C   0  0  0  0  0  0  0  0  0  0  0  0
   25.0930  -16.8680  -14.9188 O   0  0  0  0  0  0  0  0  0  0  0  0
   21.7185  -21.6867   -9.0192 O   0  0  0  0  0  0  0  0  0  0  0  0
   22.2453  -21.3728  -10.2541 C   0  0  0  0  0  0  0  0  0  0  0  0
   21.6451  -20.4133  -11.0358 C   0  0  0  0  0  0  0  0  0  0  0  0
   22.1672  -20.0945  -12.2724 C   0  0  0  0  0  0  0  0  0  0  0  0
   23.2916  -20.7020  -12.7851 C   0  0  0  0  0  0  0  0  0  0  0  0
   23.8525  -20.3648  -14.1050 C   0  0  0  0  0  0  0  0  0  0  0  0
   25.0829  -19.4705  -14.0394 C   0  0  2  0  0  0  0  0  0  0  0  0
   25.4768  -19.0956  -15.3694 N   0  0  0  0  0  0  0  0  0  0  0  0
   26.1952  -20.0492  -13.2916 C   0  0  0  0  0  0  0  0  0  0  0  0
   26.9621  -20.8608  -13.9428 O   0  0  0  0  0  0  0  0  0  0  0  0
   23.8930  -21.6751  -11.9823 C   0  0  0  0  0  0  0  0  0  0  0  0
   23.3710  -21.9926  -10.7481 C   0  0  0  0  0  0  0  0  0  0  0  0
   26.5649  -19.8543  -11.9452 N   0  0  0  0  0  0  0  0  0  0  0  0
   25.8467  -19.1472  -10.9295 C   0  0  0  0  0  0  0  0  0  0  0  0
   26.5907  -19.4585   -9.6169 C   0  0  0  0  0  0  0  0  0  0  0  0
   28.0240  -19.5341  -10.1607 C   0  0  0  0  0  0  0  0  0  0  0  0
   27.7973  -20.3913  -11.3746 C   0  0  1  0  0  0  0  0  0  0  0  0
   27.6134  -21.8132  -10.9809 C   0  0  0  0  0  0  0  0  0  0  0  0
   26.4732  -22.3338  -11.0496 O   0  0  0  0  0  0  0  0  0  0  0  0
   28.6838  -22.5586  -10.5429 O   0  0  0  0  0  0  0  0  0  0  0  0
  2  1  1  1
  2  4  1  0
  3  2  1  0
  5  4  1  0
  5  6  1  1
  7  5  1  0
  7  8  2  0
  9 10  1  0
 10 11  2  0
 11 12  1  0
 13 12  2  0
 13 14  1  0
 15 14  1  6
 15 16  1  0
 16  7  1  0
 17 15  1  0
 18 17  2  0
 19 13  1  0
 20 10  1  0
 20 19  2  0
 21 17  1  0
 22 21  1  0
 22 23  1  0
 23 24  1  0
 25 21  1  0
 25 24  1  0
 25 26  1  1
 27 26  2  0
 28 26  1  0
M  END
$$$$
