LYP.pdb
     RDKit          3D

 28 29  0  0  1  0  0  0  0  0999 V2000
   28.4633  -18.1584  -15.8832 C   0  0  0  0  0  0  0  0  0  0  0  0
   28.0488  -19.3396  -15.0354 C   0  0  1  0  0  0  0  0  0  0  0  0
   29.2366  -20.2411  -14.7731 C   0  0  0  0  0  0  0  0  0  0  0  0
   27.4856  -18.9114  -13.7038 C   0  0  0  0  0  0  0  0  0  0  0  0
   27.2398  -20.1645  -12.8907 C   0  0  2  0  0  0  0  0  0  0  0  0
   26.3223  -21.0603  -13.5101 N   0  0  0  0  0  0  0  0  0  0  0  0
   26.7725  -19.8310  -11.5241 C   0  0  0  0  0  0  0  0  0  0  0  0
   26.1523  -18.7675  -11.2593 O   0  0  0  0  0  0  0  0  0  0  0  0
   20.6209  -20.1610  -11.7936 O   0  0  0  0  0  0  0  0  0  0  0  0
   21.7668  -20.4807  -11.0968 C   0  0  0  0  0  0  0  0  0  0  0  0
   21.9962  -19.9298   -9.8576 C   0  0  0  0  0  0  0  0  0  0  0  0
   23.1410  -20.2456   -9.1551 C   0  0  0  0  0  0  0  0  0  0  0  0
   24.0979  -21.1090   -9.6400 C   0  0  0  0  0  0  0  0  0  0  0  0
   25.3217  -21.4489   -8.8935 C   0  0  0  0  0  0  0  0  0  0  0  0
   26.4814  -20.4960   -9.1485 C   0  0  2  0  0  0  0  0  0  0  0  0
   27.0279  -20.7418  -10.4544 N   0  0  0  0  0  0  0  0  0  0  0  0
   27.5142  -20.5323   -8.1173 C   0  0  0  0  0  0  0  0  0  0  0  0
   28.3673  -21.5002   -8.1953 O   0  0  0  0  0  0  0  0  0  0  0  0
   23.8543  -21.6627  -10.8999 C   0  0  0  0  0  0  0  0  0  0  0  0
   22.7113  -21.3468  -11.6002 C   0  0  0  0  0  0  0  0  0  0  0  0
   27.7247  -19.6580   -7.0316 N   0  0  0  0  0  0  0  0  0  0  0  0
   27.0269  -18.4456   -6.7307 C   0  0  0  0  0  0  0  0  0  0  0  0
   27.5050  -18.0425   -5.3227 C   0  0  0  0  0  0  0  0  0  0  0  0
   28.9562  -18.5349   -5.4074 C   0  0  0  0  0  0  0  0  0  0  0  0
   28.7350  -19.8967   -6.0045 C   0  0  1  0  0  0  0  0  0  0  0  0
   28.2203  -20.8387   -4.9756 C   0  0  0  0  0  0  0  0  0  0  0  0
   27.0245  -21.2176   -5.0238 O   0  0  0  0  0  0  0  0  0  0  0  0
   29.0460  -21.2956   -3.9743 O   0  0  0  0  0  0  0  0  0  0  0  0
  2  1  1  6
  2  4  1  0
  3  2  1  0
  5  4  1  0
  5  6  1  6
  7  5  1  0
  7  8  2  0
  9 10  1  0
 10 11  2  0
 11 12  1  0
 13 12  2  0
 13 14  1  0
 15 14  1  1
 15 16  1  0
 16  7  1  0
 17 15  1  0
 18 17  2  0
 19 13  1  0
 20 10  1  0
 20 19  2  0
 21 17  1  0
 22 21  1  0
 22 23  1  0
 23 24  1  0
 25 21  1  0
 25 24  1  0
 25 26  1  1
 27 26  2  0
 28 26  1  0
M  END
$$$$
