LYP.pdb
     RDKit          3D

 28 29  0  0  1  0  0  0  0  0999 V2000
   25.8603  -19.5028  -16.3166 C   0  0  0  0  0  0  0  0  0  0  0  0
   26.5822  -20.2161  -15.1959 C   0  0  1  0  0  0  0  0  0  0  0  0
   28.0795  -20.1556  -15.4126 C   0  0  0  0  0  0  0  0  0  0  0  0
   26.2811  -19.6070  -13.8499 C   0  0  0  0  0  0  0  0  0  0  0  0
   27.1886  -20.2722  -12.8372 C   0  0  2  0  0  0  0  0  0  0  0  0
   27.2067  -21.6915  -12.9519 N   0  0  0  0  0  0  0  0  0  0  0  0
   26.8211  -19.8839  -11.4547 C   0  0  0  0  0  0  0  0  0  0  0  0
   26.5457  -18.6980  -11.1331 O   0  0  0  0  0  0  0  0  0  0  0  0
   20.3640  -19.5296  -11.2330 O   0  0  0  0  0  0  0  0  0  0  0  0
   21.5221  -19.9777  -10.6339 C   0  0  0  0  0  0  0  0  0  0  0  0
   21.8770  -19.5156   -9.3880 C   0  0  0  0  0  0  0  0  0  0  0  0
   23.0346  -19.9600   -8.7830 C   0  0  0  0  0  0  0  0  0  0  0  0
   23.8824  -20.8695   -9.3749 C   0  0  0  0  0  0  0  0  0  0  0  0
   25.1194  -21.3467   -8.7327 C   0  0  0  0  0  0  0  0  0  0  0  0
   26.3554  -20.5392   -9.1043 C   0  0  2  0  0  0  0  0  0  0  0  0
   26.7725  -20.8830  -10.4356 N   0  0  0  0  0  0  0  0  0  0  0  0
   27.4517  -20.6626   -8.1482 C   0  0  0  0  0  0  0  0  0  0  0  0
   28.1006  -21.7803   -8.1622 O   0  0  0  0  0  0  0  0  0  0  0  0
   23.5118  -21.3322  -10.6406 C   0  0  0  0  0  0  0  0  0  0  0  0
   22.3561  -20.8879  -11.2436 C   0  0  0  0  0  0  0  0  0  0  0  0
   27.9167  -19.7324   -7.1962 N   0  0  0  0  0  0  0  0  0  0  0  0
   27.4484  -18.3999   -6.9671 C   0  0  0  0  0  0  0  0  0  0  0  0
   28.1433  -17.9445   -5.6697 C   0  0  0  0  0  0  0  0  0  0  0  0
   29.4844  -18.6705   -5.8433 C   0  0  0  0  0  0  0  0  0  0  0  0
   28.9933  -20.0302   -6.2555 C   0  0  1  0  0  0  0  0  0  0  0  0
   28.4676  -20.7724   -5.0792 C   0  0  0  0  0  0  0  0  0  0  0  0
   29.2630  -21.1882   -4.2016 O   0  0  0  0  0  0  0  0  0  0  0  0
   27.1177  -21.0048   -4.9487 O   0  0  0  0  0  0  0  0  0  0  0  0
  2  1  1  6
  2  4  1  0
  3  2  1  0
  5  4  1  0
  5  6  1  1
  7  5  1  0
  7  8  2  0
  9 10  1  0
 10 11  2  0
 11 12  1  0
 13 12  2  0
 13 14  1  0
 15 14  1  1
 15 16  1  0
 16  7  1  0
 17 15  1  0
 18 17  2  0
 19 13  1  0
 20 10  1  0
 20 19  2  0
 21 17  1  0
 22 21  1  0
 22 23  1  0
 23 24  1  0
 25 21  1  0
 25 24  1  0
 25 26  1  1
 27 26  2  0
 28 26  1  0
M  END
$$$$
