LYP.pdb
     RDKit          3D

 28 29  0  0  1  0  0  0  0  0999 V2000
   14.9356  -25.0504    1.6415 C   0  0  0  0  0  0  0  0  0  0  0  0
   14.6159  -23.5956    1.3830 C   0  0  1  0  0  0  0  0  0  0  0  0
   13.2240  -23.2668    1.8801 C   0  0  0  0  0  0  0  0  0  0  0  0
   15.5874  -22.6708    2.0719 C   0  0  0  0  0  0  0  0  0  0  0  0
   15.2415  -21.2570    1.6557 C   0  0  2  0  0  0  0  0  0  0  0  0
   15.2473  -21.0741    0.2435 N   0  0  0  0  0  0  0  0  0  0  0  0
   16.1503  -20.2753    2.2940 C   0  0  0  0  0  0  0  0  0  0  0  0
   17.2445  -19.9270    1.7771 O   0  0  0  0  0  0  0  0  0  0  0  0
   12.2174  -14.1881    2.9263 O   0  0  0  0  0  0  0  0  0  0  0  0
   13.3262  -15.0051    2.9912 C   0  0  0  0  0  0  0  0  0  0  0  0
   14.3869  -14.6646    3.7977 C   0  0  0  0  0  0  0  0  0  0  0  0
   15.4994  -15.4777    3.8672 C   0  0  0  0  0  0  0  0  0  0  0  0
   15.6116  -16.6488    3.1515 C   0  0  0  0  0  0  0  0  0  0  0  0
   16.7975  -17.5200    3.2225 C   0  0  0  0  0  0  0  0  0  0  0  0
   16.6319  -18.7081    4.1601 C   0  0  2  0  0  0  0  0  0  0  0  0
   15.7845  -19.6920    3.5450 N   0  0  0  0  0  0  0  0  0  0  0  0
   16.1583  -18.3476    5.4932 C   0  0  0  0  0  0  0  0  0  0  0  0
   14.8948  -18.5069    5.7144 O   0  0  0  0  0  0  0  0  0  0  0  0
   14.5279  -16.9848    2.3355 C   0  0  0  0  0  0  0  0  0  0  0  0
   13.4180  -16.1724    2.2670 C   0  0  0  0  0  0  0  0  0  0  0  0
   16.8819  -17.8434    6.5930 N   0  0  0  0  0  0  0  0  0  0  0  0
   18.2716  -17.5076    6.6521 C   0  0  0  0  0  0  0  0  0  0  0  0
   18.4574  -16.7905    8.0029 C   0  0  0  0  0  0  0  0  0  0  0  0
   17.4344  -17.5732    8.8375 C   0  0  0  0  0  0  0  0  0  0  0  0
   16.2677  -17.5703    7.8895 C   0  0  1  0  0  0  0  0  0  0  0  0
   15.6057  -16.2389    7.8829 C   0  0  0  0  0  0  0  0  0  0  0  0
   15.7851  -15.4614    6.9139 O   0  0  0  0  0  0  0  0  0  0  0  0
   14.8001  -15.8565    8.9307 O   0  0  0  0  0  0  0  0  0  0  0  0
  2  1  1  1
  2  4  1  0
  3  2  1  0
  5  4  1  0
  5  6  1  6
  7  5  1  0
  7  8  2  0
  9 10  1  0
 10 11  2  0
 11 12  1  0
 13 12  2  0
 13 14  1  0
 15 14  1  6
 15 16  1  0
 16  7  1  0
 17 15  1  0
 18 17  2  0
 19 13  1  0
 20 10  1  0
 20 19  2  0
 21 17  1  0
 22 21  1  0
 22 23  1  0
 23 24  1  0
 25 21  1  0
 25 24  1  0
 25 26  1  6
 27 26  2  0
 28 26  1  0
M  END
$$$$
