LYP.pdb
     RDKit          3D

 28 29  0  0  1  0  0  0  0  0999 V2000
   25.6788  -20.4860  -15.7044 C   0  0  0  0  0  0  0  0  0  0  0  0
   26.2591  -21.1783  -14.4921 C   0  0  1  0  0  0  0  0  0  0  0  0
   27.7546  -21.3534  -14.6522 C   0  0  0  0  0  0  0  0  0  0  0  0
   26.0142  -20.4003  -13.2239 C   0  0  0  0  0  0  0  0  0  0  0  0
   26.7909  -21.0805  -12.1167 C   0  0  2  0  0  0  0  0  0  0  0  0
   26.4713  -22.4613  -11.9781 N   0  0  0  0  0  0  0  0  0  0  0  0
   26.5938  -20.3861  -10.8221 C   0  0  0  0  0  0  0  0  0  0  0  0
   26.6563  -19.1337  -10.7069 O   0  0  0  0  0  0  0  0  0  0  0  0
   19.9555  -19.6510  -10.0206 O   0  0  0  0  0  0  0  0  0  0  0  0
   21.1564  -20.0071   -9.4444 C   0  0  0  0  0  0  0  0  0  0  0  0
   22.3377  -19.5296   -9.9623 C   0  0  0  0  0  0  0  0  0  0  0  0
   23.5428  -19.8821   -9.3905 C   0  0  0  0  0  0  0  0  0  0  0  0
   23.6330  -20.7118   -8.2951 C   0  0  0  0  0  0  0  0  0  0  0  0
   24.9175  -21.0909   -7.6813 C   0  0  0  0  0  0  0  0  0  0  0  0
   26.1321  -20.5002   -8.3840 C   0  0  2  0  0  0  0  0  0  0  0  0
   26.3212  -21.1540   -9.6494 N   0  0  0  0  0  0  0  0  0  0  0  0
   27.3498  -20.5229   -7.5791 C   0  0  0  0  0  0  0  0  0  0  0  0
   28.1440  -21.5246   -7.7706 O   0  0  0  0  0  0  0  0  0  0  0  0
   22.4264  -21.1908   -7.7774 C   0  0  0  0  0  0  0  0  0  0  0  0
   21.2241  -20.8383   -8.3490 C   0  0  0  0  0  0  0  0  0  0  0  0
   27.7975  -19.6035   -6.6086 N   0  0  0  0  0  0  0  0  0  0  0  0
   27.2640  -18.3096   -6.3109 C   0  0  0  0  0  0  0  0  0  0  0  0
   27.9808  -17.8633   -5.0223 C   0  0  0  0  0  0  0  0  0  0  0  0
   29.3531  -18.5037   -5.2720 C   0  0  0  0  0  0  0  0  0  0  0  0
   28.9240  -19.8733   -5.7194 C   0  0  1  0  0  0  0  0  0  0  0  0
   28.4860  -20.6877   -4.5551 C   0  0  0  0  0  0  0  0  0  0  0  0
   29.3329  -21.0690   -3.7106 O   0  0  0  0  0  0  0  0  0  0  0  0
   27.1609  -21.0242   -4.3996 O   0  0  0  0  0  0  0  0  0  0  0  0
  2  1  1  6
  2  4  1  0
  3  2  1  0
  5  4  1  0
  5  6  1  1
  7  5  1  0
  7  8  2  0
  9 10  1  0
 10 11  2  0
 11 12  1  0
 13 12  2  0
 13 14  1  0
 15 14  1  1
 15 16  1  0
 16  7  1  0
 17 15  1  0
 18 17  2  0
 19 13  1  0
 20 10  1  0
 20 19  2  0
 21 17  1  0
 22 21  1  0
 22 23  1  0
 23 24  1  0
 25 21  1  0
 25 24  1  0
 25 26  1  1
 27 26  2  0
 28 26  1  0
M  END
$$$$
