LYP.pdb
     RDKit          3D

 28 29  0  0  1  0  0  0  0  0999 V2000
   19.4768  -10.6472  -23.7448 C   0  0  0  0  0  0  0  0  0  0  0  0
   19.5175  -11.4933  -22.4926 C   0  0  1  0  0  0  0  0  0  0  0  0
   20.9011  -11.4574  -21.8786 C   0  0  0  0  0  0  0  0  0  0  0  0
   18.5342  -11.0159  -21.4540 C   0  0  0  0  0  0  0  0  0  0  0  0
   18.6252  -11.9604  -20.2744 C   0  0  2  0  0  0  0  0  0  0  0  0
   18.1324  -13.2645  -20.5647 N   0  0  0  0  0  0  0  0  0  0  0  0
   17.9213  -11.4080  -19.0927 C   0  0  0  0  0  0  0  0  0  0  0  0
   16.6849  -11.5586  -18.9072 O   0  0  0  0  0  0  0  0  0  0  0  0
   15.9119  -15.8675  -15.2273 O   0  0  0  0  0  0  0  0  0  0  0  0
   16.4900  -14.6212  -15.3433 C   0  0  0  0  0  0  0  0  0  0  0  0
   17.7466  -14.4923  -15.8877 C   0  0  0  0  0  0  0  0  0  0  0  0
   18.3308  -13.2481  -16.0067 C   0  0  0  0  0  0  0  0  0  0  0  0
   17.7070  -12.0904  -15.5980 C   0  0  0  0  0  0  0  0  0  0  0  0
   18.3270  -10.7598  -15.7230 C   0  0  0  0  0  0  0  0  0  0  0  0
   17.9818  -10.0406  -17.0198 C   0  0  2  0  0  0  0  0  0  0  0  0
   18.6608  -10.6736  -18.1165 N   0  0  0  0  0  0  0  0  0  0  0  0
   18.2381   -8.6038  -16.9852 C   0  0  0  0  0  0  0  0  0  0  0  0
   19.4744   -8.2402  -17.0853 O   0  0  0  0  0  0  0  0  0  0  0  0
   16.4308  -12.2334  -15.0465 C   0  0  0  0  0  0  0  0  0  0  0  0
   15.8486  -13.4759  -14.9283 C   0  0  0  0  0  0  0  0  0  0  0  0
   17.3267   -7.5359  -16.8565 N   0  0  0  0  0  0  0  0  0  0  0  0
   15.9035   -7.6052  -16.7262 C   0  0  0  0  0  0  0  0  0  0  0  0
   15.4584   -6.1706  -16.3836 C   0  0  0  0  0  0  0  0  0  0  0  0
   16.4941   -5.3909  -17.2052 C   0  0  0  0  0  0  0  0  0  0  0  0
   17.7429   -6.1364  -16.8254 C   0  0  1  0  0  0  0  0  0  0  0  0
   18.1822   -5.7532  -15.4575 C   0  0  0  0  0  0  0  0  0  0  0  0
   18.6142   -4.5937  -15.2464 O   0  0  0  0  0  0  0  0  0  0  0  0
   18.1174   -6.6609  -14.4254 O   0  0  0  0  0  0  0  0  0  0  0  0
  2  1  1  6
  2  4  1  0
  3  2  1  0
  5  4  1  0
  5  6  1  6
  7  5  1  0
  7  8  2  0
  9 10  1  0
 10 11  2  0
 11 12  1  0
 13 12  2  0
 13 14  1  0
 15 14  1  1
 15 16  1  0
 16  7  1  0
 17 15  1  0
 18 17  2  0
 19 13  1  0
 20 10  1  0
 20 19  2  0
 21 17  1  0
 22 21  1  0
 22 23  1  0
 23 24  1  0
 25 21  1  0
 25 24  1  0
 25 26  1  1
 27 26  2  0
 28 26  1  0
M  END
$$$$
