LYP.pdb
     RDKit          3D

 28 29  0  0  1  0  0  0  0  0999 V2000
   23.4055  -12.6047  -19.4598 C   0  0  0  0  0  0  0  0  0  0  0  0
   23.1571  -14.0946  -19.5241 C   0  0  1  0  0  0  0  0  0  0  0  0
   22.5673  -14.4719  -20.8666 C   0  0  0  0  0  0  0  0  0  0  0  0
   24.4242  -14.8890  -19.3319 C   0  0  0  0  0  0  0  0  0  0  0  0
   24.0237  -16.3216  -19.0505 C   0  0  2  0  0  0  0  0  0  0  0  0
   22.6630  -16.4522  -18.6513 N   0  0  0  0  0  0  0  0  0  0  0  0
   24.9084  -16.9326  -18.0301 C   0  0  0  0  0  0  0  0  0  0  0  0
   26.1645  -16.8951  -18.1104 O   0  0  0  0  0  0  0  0  0  0  0  0
   27.1945  -21.4066  -10.7112 O   0  0  0  0  0  0  0  0  0  0  0  0
   26.5409  -20.6418  -11.6540 C   0  0  0  0  0  0  0  0  0  0  0  0
   25.4149  -21.1285  -12.2762 C   0  0  0  0  0  0  0  0  0  0  0  0
   24.7562  -20.3683  -13.2205 C   0  0  0  0  0  0  0  0  0  0  0  0
   25.1757  -19.1091  -13.5873 C   0  0  0  0  0  0  0  0  0  0  0  0
   24.4756  -18.2939  -14.5951 C   0  0  0  0  0  0  0  0  0  0  0  0
   25.1647  -18.2699  -15.9525 C   0  0  2  0  0  0  0  0  0  0  0  0
   24.3282  -17.5934  -16.9050 N   0  0  0  0  0  0  0  0  0  0  0  0
   25.5707  -19.5873  -16.4328 C   0  0  0  0  0  0  0  0  0  0  0  0
   24.6452  -20.3099  -16.9732 O   0  0  0  0  0  0  0  0  0  0  0  0
   26.3206  -18.6248  -12.9487 C   0  0  0  0  0  0  0  0  0  0  0  0
   26.9773  -19.3845  -12.0062 C   0  0  0  0  0  0  0  0  0  0  0  0
   26.8395  -20.2008  -16.3952 N   0  0  0  0  0  0  0  0  0  0  0  0
   28.0465  -19.6902  -15.8209 C   0  0  0  0  0  0  0  0  0  0  0  0
   29.0408  -20.8665  -15.8573 C   0  0  0  0  0  0  0  0  0  0  0  0
   28.5889  -21.5278  -17.1665 C   0  0  0  0  0  0  0  0  0  0  0  0
   27.0997  -21.5217  -16.9610 C   0  0  1  0  0  0  0  0  0  0  0  0
   26.7021  -22.5870  -16.0029 C   0  0  0  0  0  0  0  0  0  0  0  0
   26.2937  -22.2716  -14.8585 O   0  0  0  0  0  0  0  0  0  0  0  0
   26.7796  -23.9125  -16.3637 O   0  0  0  0  0  0  0  0  0  0  0  0
  2  1  1  6
  2  4  1  0
  3  2  1  0
  5  4  1  0
  5  6  1  1
  7  5  1  0
  7  8  2  0
  9 10  1  0
 10 11  2  0
 11 12  1  0
 13 12  2  0
 13 14  1  0
 15 14  1  1
 15 16  1  0
 16  7  1  0
 17 15  1  0
 18 17  2  0
 19 13  1  0
 20 10  1  0
 20 19  2  0
 21 17  1  0
 22 21  1  0
 22 23  1  0
 23 24  1  0
 25 21  1  0
 25 24  1  0
 25 26  1  1
 27 26  2  0
 28 26  1  0
M  END
$$$$
