LYP.pdb
     RDKit          3D

 28 29  0  0  1  0  0  0  0  0999 V2000
   18.3109  -14.6188  -19.6869 C   0  0  0  0  0  0  0  0  0  0  0  0
   18.5259  -14.3150  -18.2216 C   0  0  1  0  0  0  0  0  0  0  0  0
   19.8699  -14.8436  -17.7667 C   0  0  0  0  0  0  0  0  0  0  0  0
   18.4872  -12.8345  -17.9382 C   0  0  0  0  0  0  0  0  0  0  0  0
   18.6618  -12.6531  -16.4454 C   0  0  2  0  0  0  0  0  0  0  0  0
   17.5947  -13.2132  -15.6869 N   0  0  0  0  0  0  0  0  0  0  0  0
   18.8294  -11.2220  -16.0976 C   0  0  0  0  0  0  0  0  0  0  0  0
   17.8589  -10.4784  -15.7963 O   0  0  0  0  0  0  0  0  0  0  0  0
   22.2787   -3.4644  -13.8549 O   0  0  0  0  0  0  0  0  0  0  0  0
   22.0540   -4.8029  -14.0971 C   0  0  0  0  0  0  0  0  0  0  0  0
   21.0267   -5.4563  -13.4571 C   0  0  0  0  0  0  0  0  0  0  0  0
   20.7965   -6.7956  -13.6950 C   0  0  0  0  0  0  0  0  0  0  0  0
   21.5616   -7.5396  -14.5653 C   0  0  0  0  0  0  0  0  0  0  0  0
   21.3195   -8.9699  -14.8223 C   0  0  0  0  0  0  0  0  0  0  0  0
   20.3070   -9.2325  -15.9287 C   0  0  2  0  0  0  0  0  0  0  0  0
   20.1374  -10.6490  -16.0994 N   0  0  0  0  0  0  0  0  0  0  0  0
   20.6264   -8.5726  -17.1911 C   0  0  0  0  0  0  0  0  0  0  0  0
   21.5648   -9.1120  -17.8977 O   0  0  0  0  0  0  0  0  0  0  0  0
   22.6024   -6.8655  -15.2099 C   0  0  0  0  0  0  0  0  0  0  0  0
   22.8313   -5.5285  -14.9716 C   0  0  0  0  0  0  0  0  0  0  0  0
   20.0576   -7.4173  -17.7651 N   0  0  0  0  0  0  0  0  0  0  0  0
   19.0062   -6.6010  -17.2401 C   0  0  0  0  0  0  0  0  0  0  0  0
   18.9616   -5.3617  -18.1544 C   0  0  0  0  0  0  0  0  0  0  0  0
   19.3353   -6.0271  -19.4860 C   0  0  0  0  0  0  0  0  0  0  0  0
   20.5025   -6.8634  -19.0410 C   0  0  1  0  0  0  0  0  0  0  0  0
   21.7079   -6.0144  -18.8490 C   0  0  0  0  0  0  0  0  0  0  0  0
   22.0891   -5.7313  -17.6869 O   0  0  0  0  0  0  0  0  0  0  0  0
   22.4053   -5.5390  -19.9357 O   0  0  0  0  0  0  0  0  0  0  0  0
  2  1  1  6
  2  4  1  0
  3  2  1  0
  5  4  1  0
  5  6  1  1
  7  5  1  0
  7  8  2  0
  9 10  1  0
 10 11  2  0
 11 12  1  0
 13 12  2  0
 13 14  1  0
 15 14  1  1
 15 16  1  0
 16  7  1  0
 17 15  1  0
 18 17  2  0
 19 13  1  0
 20 10  1  0
 20 19  2  0
 21 17  1  0
 22 21  1  0
 22 23  1  0
 23 24  1  0
 25 21  1  0
 25 24  1  0
 25 26  1  1
 27 26  2  0
 28 26  1  0
M  END
$$$$
