TFH.pdb
     RDKit          3D

 29 30  0  0  1  0  0  0  0  0999 V2000
   30.5857  -27.4822  -18.1809 C   0  0  0  0  0  0  0  0  0  0  0  0
   30.7465  -26.2553  -17.2987 C   0  0  1  0  0  0  0  0  0  0  0  0
   31.8847  -25.5284  -17.6741 O   0  0  0  0  0  0  0  0  0  0  0  0
   29.5402  -25.3798  -17.5529 C   0  0  2  0  0  0  0  0  0  0  0  0
   29.6506  -24.1327  -16.8306 N   0  0  0  0  0  0  0  0  0  0  0  0
   28.2752  -26.0355  -17.1855 C   0  0  0  0  0  0  0  0  0  0  0  0
   27.8723  -25.9717  -15.9993 O   0  0  0  0  0  0  0  0  0  0  0  0
   27.4613  -26.7511  -18.1009 N   0  0  0  0  0  0  0  0  0  0  0  0
   26.2143  -27.4024  -17.7269 C   0  0  1  0  0  0  0  0  0  0  0  0
   25.1379  -26.9379  -18.6473 C   0  0  0  0  0  0  0  0  0  0  0  0
   23.8322  -27.5630  -18.4663 C   0  0  0  0  0  0  0  0  0  0  0  0
   23.4599  -28.6505  -19.1954 C   0  0  0  0  0  0  0  0  0  0  0  0
   22.2189  -29.2100  -18.9938 C   0  0  0  0  0  0  0  0  0  0  0  0
   21.3187  -28.7144  -18.0735 C   0  0  0  0  0  0  0  0  0  0  0  0
   21.7417  -27.6102  -17.3578 C   0  0  0  0  0  0  0  0  0  0  0  0
   22.9721  -27.0327  -17.5383 C   0  0  0  0  0  0  0  0  0  0  0  0
   26.3595  -28.8560  -17.6126 C   0  0  0  0  0  0  0  0  0  0  0  0
   26.9678  -29.4702  -18.5207 O   0  0  0  0  0  0  0  0  0  0  0  0
   25.8405  -29.6078  -16.5146 N   0  0  0  0  0  0  0  0  0  0  0  0
   26.0783  -31.0426  -16.3679 C   0  0  1  0  0  0  0  0  0  0  0  0
   25.9499  -31.3370  -14.8989 C   0  0  0  0  0  0  0  0  0  0  0  0
   26.1282  -32.7775  -14.5867 C   0  0  0  0  0  0  0  0  0  0  0  0
   26.3665  -33.8086  -15.4651 C   0  0  0  0  0  0  0  0  0  0  0  0
   26.4533  -34.9446  -14.7255 N   0  0  0  0  0  0  0  0  0  0  0  0
   26.2702  -34.5886  -13.4423 C   0  0  0  0  0  0  0  0  0  0  0  0
   26.0701  -33.2700  -13.3359 N   0  0  0  0  0  0  0  0  0  0  0  0
   25.0808  -31.7923  -17.1450 C   0  0  0  0  0  0  0  0  0  0  0  0
   23.8627  -31.4997  -17.1458 O   0  0  0  0  0  0  0  0  0  0  0  0
   25.4798  -32.8781  -17.9216 O   0  0  0  0  0  0  0  0  0  0  0  0
  2  1  1  6
  2  3  1  0
  4  5  1  1
  4  2  1  0
  6  4  1  0
  7  6  2  0
  8  6  1  0
  9  8  1  0
  9 10  1  6
 10 11  1  0
 11 16  1  0
 12 11  2  0
 12 13  1  0
 13 14  2  0
 14 15  1  0
 16 15  2  0
 17 18  2  0
 17  9  1  0
 19 17  1  0
 20 19  1  0
 21 22  1  0
 20 21  1  1
 22 23  2  0
 24 23  1  0
 25 24  1  0
 26 25  2  0
 26 22  1  0
 27 29  1  0
 27 20  1  0
 28 27  2  0
M  END
$$$$
