TFH.pdb
     RDKit          3D

 29 30  0  0  1  0  0  0  0  0999 V2000
   15.2722  -12.3544  -16.6597 C   0  0  0  0  0  0  0  0  0  0  0  0
   16.3089  -12.4683  -17.7649 C   0  0  1  0  0  0  0  0  0  0  0  0
   16.3815  -11.2726  -18.4929 O   0  0  0  0  0  0  0  0  0  0  0  0
   17.6441  -12.6717  -17.0850 C   0  0  2  0  0  0  0  0  0  0  0  0
   17.6392  -13.8844  -16.2987 N   0  0  0  0  0  0  0  0  0  0  0  0
   18.0189  -11.5418  -16.2202 C   0  0  0  0  0  0  0  0  0  0  0  0
   17.3174  -11.2795  -15.2140 O   0  0  0  0  0  0  0  0  0  0  0  0
   19.1445  -10.7097  -16.4512 N   0  0  0  0  0  0  0  0  0  0  0  0
   19.4394   -9.5216  -15.6634 C   0  0  1  0  0  0  0  0  0  0  0  0
   20.8566   -9.5908  -15.2068 C   0  0  0  0  0  0  0  0  0  0  0  0
   21.3316   -8.4502  -14.4310 C   0  0  0  0  0  0  0  0  0  0  0  0
   21.9808   -7.4110  -15.0236 C   0  0  0  0  0  0  0  0  0  0  0  0
   22.4129   -6.3542  -14.2554 C   0  0  0  0  0  0  0  0  0  0  0  0
   22.2168   -6.2955  -12.8912 C   0  0  0  0  0  0  0  0  0  0  0  0
   21.5534   -7.3732  -12.3354 C   0  0  0  0  0  0  0  0  0  0  0  0
   21.1123   -8.4388  -13.0767 C   0  0  0  0  0  0  0  0  0  0  0  0
   19.0623   -8.2874  -16.3574 C   0  0  0  0  0  0  0  0  0  0  0  0
   19.4775   -8.1072  -17.5266 O   0  0  0  0  0  0  0  0  0  0  0  0
   18.2432   -7.2785  -15.7648 N   0  0  0  0  0  0  0  0  0  0  0  0
   18.0193   -5.9809  -16.3997 C   0  0  1  0  0  0  0  0  0  0  0  0
   16.5453   -5.7087  -16.2804 C   0  0  0  0  0  0  0  0  0  0  0  0
   16.1475   -4.4265  -16.9142 C   0  0  0  0  0  0  0  0  0  0  0  0
   16.1617   -4.1055  -18.2515 C   0  0  0  0  0  0  0  0  0  0  0  0
   15.7181   -2.8257  -18.3545 N   0  0  0  0  0  0  0  0  0  0  0  0
   15.4497   -2.4050  -17.1064 C   0  0  0  0  0  0  0  0  0  0  0  0
   15.7052   -3.3671  -16.2123 N   0  0  0  0  0  0  0  0  0  0  0  0
   18.8038   -4.9484  -15.7072 C   0  0  0  0  0  0  0  0  0  0  0  0
   18.9979   -4.9609  -14.4696 O   0  0  0  0  0  0  0  0  0  0  0  0
   19.3662   -3.9009  -16.4337 O   0  0  0  0  0  0  0  0  0  0  0  0
  2  1  1  1
  2  3  1  0
  4  5  1  1
  4  2  1  0
  6  4  1  0
  7  6  2  0
  8  6  1  0
  9  8  1  0
  9 10  1  6
 10 11  1  0
 11 16  1  0
 12 11  2  0
 12 13  1  0
 13 14  2  0
 14 15  1  0
 16 15  2  0
 17 18  2  0
 17  9  1  0
 19 17  1  0
 20 19  1  0
 21 22  1  0
 20 21  1  1
 22 23  2  0
 24 23  1  0
 25 24  1  0
 26 25  2  0
 26 22  1  0
 27 29  1  0
 27 20  1  0
 28 27  2  0
M  END
$$$$
