TFH.pdb
     RDKit          3D

 29 30  0  0  1  0  0  0  0  0999 V2000
   28.9687  -20.2400  -19.0770 C   0  0  0  0  0  0  0  0  0  0  0  0
   27.9233  -20.4596  -17.9962 C   0  0  1  0  0  0  0  0  0  0  0  0
   26.7187  -20.8991  -18.5625 O   0  0  0  0  0  0  0  0  0  0  0  0
   28.4442  -21.5692  -17.1108 C   0  0  2  0  0  0  0  0  0  0  0  0
   28.5441  -22.8086  -17.8477 N   0  0  0  0  0  0  0  0  0  0  0  0
   27.6072  -21.7860  -15.9203 C   0  0  0  0  0  0  0  0  0  0  0  0
   26.8265  -22.7673  -15.8889 O   0  0  0  0  0  0  0  0  0  0  0  0
   27.6225  -20.9428  -14.7796 N   0  0  0  0  0  0  0  0  0  0  0  0
   26.6898  -21.0766  -13.6699 C   0  0  1  0  0  0  0  0  0  0  0  0
   27.2914  -20.4447  -12.4614 C   0  0  0  0  0  0  0  0  0  0  0  0
   26.4733  -20.4745  -11.2538 C   0  0  0  0  0  0  0  0  0  0  0  0
   26.4758  -21.5524  -10.4225 C   0  0  0  0  0  0  0  0  0  0  0  0
   25.6893  -21.5401   -9.2933 C   0  0  0  0  0  0  0  0  0  0  0  0
   24.8851  -20.4709   -8.9570 C   0  0  0  0  0  0  0  0  0  0  0  0
   24.9164  -19.4007   -9.8311 C   0  0  0  0  0  0  0  0  0  0  0  0
   25.6903  -19.3862  -10.9629 C   0  0  0  0  0  0  0  0  0  0  0  0
   25.3436  -20.6136  -14.0170 C   0  0  0  0  0  0  0  0  0  0  0  0
   25.2163  -19.4816  -14.5409 O   0  0  0  0  0  0  0  0  0  0  0  0
   24.1679  -21.3912  -13.7868 N   0  0  0  0  0  0  0  0  0  0  0  0
   22.8258  -20.8763  -14.0528 C   0  0  1  0  0  0  0  0  0  0  0  0
   22.1539  -21.8993  -14.9263 C   0  0  0  0  0  0  0  0  0  0  0  0
   20.7545  -21.5342  -15.2617 C   0  0  0  0  0  0  0  0  0  0  0  0
   19.9863  -20.5367  -14.7082 C   0  0  0  0  0  0  0  0  0  0  0  0
   18.7772  -20.5817  -15.3254 N   0  0  0  0  0  0  0  0  0  0  0  0
   18.8341  -21.5827  -16.2207 C   0  0  0  0  0  0  0  0  0  0  0  0
   20.0326  -22.1770  -16.1977 N   0  0  0  0  0  0  0  0  0  0  0  0
   22.1000  -20.7065  -12.7858 C   0  0  0  0  0  0  0  0  0  0  0  0
   21.5127  -19.6435  -12.4783 O   0  0  0  0  0  0  0  0  0  0  0  0
   22.0471  -21.7559  -11.8707 O   0  0  0  0  0  0  0  0  0  0  0  0
  2  1  1  6
  2  3  1  0
  4  5  1  6
  4  2  1  0
  6  4  1  0
  7  6  2  0
  8  6  1  0
  9  8  1  0
  9 10  1  1
 10 11  1  0
 11 16  1  0
 12 11  2  0
 12 13  1  0
 13 14  2  0
 14 15  1  0
 16 15  2  0
 17 18  2  0
 17  9  1  0
 19 17  1  0
 20 19  1  0
 21 22  1  0
 20 21  1  6
 22 23  2  0
 24 23  1  0
 25 24  1  0
 26 25  2  0
 26 22  1  0
 27 29  1  0
 27 20  1  0
 28 27  2  0
M  END
$$$$
