TFH.pdb
     RDKit          3D

 29 30  0  0  1  0  0  0  0  0999 V2000
   26.4479  -22.6888  -14.8281 C   0  0  0  0  0  0  0  0  0  0  0  0
   25.0098  -22.2045  -14.7465 C   0  0  1  0  0  0  0  0  0  0  0  0
   24.1378  -23.2879  -14.5707 O   0  0  0  0  0  0  0  0  0  0  0  0
   24.9159  -21.3368  -13.5117 C   0  0  2  0  0  0  0  0  0  0  0  0
   25.1791  -22.1111  -12.3200 N   0  0  0  0  0  0  0  0  0  0  0  0
   23.6056  -20.6810  -13.3769 C   0  0  0  0  0  0  0  0  0  0  0  0
   22.7885  -21.1103  -12.5276 O   0  0  0  0  0  0  0  0  0  0  0  0
   23.1934  -19.5714  -14.1589 N   0  0  0  0  0  0  0  0  0  0  0  0
   21.9136  -18.8995  -13.9869 C   0  0  1  0  0  0  0  0  0  0  0  0
   22.0801  -17.4591  -14.3320 C   0  0  0  0  0  0  0  0  0  0  0  0
   20.8828  -16.6338  -14.2135 C   0  0  0  0  0  0  0  0  0  0  0  0
   20.1726  -16.2538  -15.3107 C   0  0  0  0  0  0  0  0  0  0  0  0
   19.0488  -15.4749  -15.1552 C   0  0  0  0  0  0  0  0  0  0  0  0
   18.5994  -15.0534  -13.9209 C   0  0  0  0  0  0  0  0  0  0  0  0
   19.3531  -15.4643  -12.8377 C   0  0  0  0  0  0  0  0  0  0  0  0
   20.4765  -16.2401  -12.9637 C   0  0  0  0  0  0  0  0  0  0  0  0
   20.8253  -19.5909  -14.6832 C   0  0  0  0  0  0  0  0  0  0  0  0
   21.0538  -20.0795  -15.8150 O   0  0  0  0  0  0  0  0  0  0  0  0
   19.5149  -19.7351  -14.1334 N   0  0  0  0  0  0  0  0  0  0  0  0
   18.4288  -20.3870  -14.8628 C   0  0  1  0  0  0  0  0  0  0  0  0
   17.9789  -21.5339  -14.0005 C   0  0  0  0  0  0  0  0  0  0  0  0
   18.9199  -22.6816  -14.0391 C   0  0  0  0  0  0  0  0  0  0  0  0
   20.1033  -22.7803  -14.7329 C   0  0  0  0  0  0  0  0  0  0  0  0
   20.6142  -24.0107  -14.4680 N   0  0  0  0  0  0  0  0  0  0  0  0
   19.7506  -24.6204  -13.6378 C   0  0  0  0  0  0  0  0  0  0  0  0
   18.7094  -23.8262  -13.3636 N   0  0  0  0  0  0  0  0  0  0  0  0
   17.3341  -19.4305  -15.0809 C   0  0  0  0  0  0  0  0  0  0  0  0
   17.3491  -18.2662  -14.6187 O   0  0  0  0  0  0  0  0  0  0  0  0
   16.2214  -19.8087  -15.8295 O   0  0  0  0  0  0  0  0  0  0  0  0
  2  1  1  1
  2  3  1  0
  4  5  1  1
  4  2  1  0
  6  4  1  0
  7  6  2  0
  8  6  1  0
  9  8  1  0
  9 10  1  6
 10 11  1  0
 11 16  1  0
 12 11  2  0
 12 13  1  0
 13 14  2  0
 14 15  1  0
 16 15  2  0
 17 18  2  0
 17  9  1  0
 19 17  1  0
 20 19  1  0
 21 22  1  0
 20 21  1  1
 22 23  2  0
 24 23  1  0
 25 24  1  0
 26 25  2  0
 26 22  1  0
 27 29  1  0
 27 20  1  0
 28 27  2  0
M  END
$$$$
