TFH.pdb
     RDKit          3D

 29 30  0  0  1  0  0  0  0  0999 V2000
   26.8141  -34.2530   -3.6922 C   0  0  0  0  0  0  0  0  0  0  0  0
   25.3550  -34.5780   -3.9655 C   0  0  1  0  0  0  0  0  0  0  0  0
   24.8278  -35.3672   -2.9340 O   0  0  0  0  0  0  0  0  0  0  0  0
   24.6112  -33.2615   -3.9601 C   0  0  2  0  0  0  0  0  0  0  0  0
   25.0443  -32.4237   -5.0554 N   0  0  0  0  0  0  0  0  0  0  0  0
   24.7744  -32.5224   -2.6983 C   0  0  0  0  0  0  0  0  0  0  0  0
   25.6968  -31.6786   -2.5957 O   0  0  0  0  0  0  0  0  0  0  0  0
   23.9416  -32.7022   -1.5640 N   0  0  0  0  0  0  0  0  0  0  0  0
   24.0894  -31.9425   -0.3311 C   0  0  1  0  0  0  0  0  0  0  0  0
   22.7371  -31.5306    0.1413 C   0  0  0  0  0  0  0  0  0  0  0  0
   22.1985  -30.3128   -0.4547 C   0  0  0  0  0  0  0  0  0  0  0  0
   21.6496  -30.3161   -1.7003 C   0  0  0  0  0  0  0  0  0  0  0  0
   21.1527  -29.1454   -2.2259 C   0  0  0  0  0  0  0  0  0  0  0  0
   21.1842  -27.9486   -1.5407 C   0  0  0  0  0  0  0  0  0  0  0  0
   21.7508  -27.9954   -0.2808 C   0  0  0  0  0  0  0  0  0  0  0  0
   22.2533  -29.1474    0.2671 C   0  0  0  0  0  0  0  0  0  0  0  0
   24.9141  -32.6428    0.6572 C   0  0  0  0  0  0  0  0  0  0  0  0
   24.6119  -33.8207    0.9624 O   0  0  0  0  0  0  0  0  0  0  0  0
   26.0472  -32.0468    1.2903 N   0  0  0  0  0  0  0  0  0  0  0  0
   26.8220  -32.7391    2.3186 C   0  0  1  0  0  0  0  0  0  0  0  0
   28.0212  -31.8732    2.5888 C   0  0  0  0  0  0  0  0  0  0  0  0
   28.9399  -32.4661    3.5931 C   0  0  0  0  0  0  0  0  0  0  0  0
   29.3831  -33.7658    3.6685 C   0  0  0  0  0  0  0  0  0  0  0  0
   30.2001  -33.8417    4.7511 N   0  0  0  0  0  0  0  0  0  0  0  0
   30.2357  -32.6146    5.2987 C   0  0  0  0  0  0  0  0  0  0  0  0
   29.4731  -31.7601    4.6070 N   0  0  0  0  0  0  0  0  0  0  0  0
   26.0049  -32.9009    3.5299 C   0  0  0  0  0  0  0  0  0  0  0  0
   25.8676  -34.0011    4.1130 O   0  0  0  0  0  0  0  0  0  0  0  0
   25.3446  -31.8007    4.0732 O   0  0  0  0  0  0  0  0  0  0  0  0
  2  1  1  1
  2  3  1  0
  4  5  1  6
  4  2  1  0
  6  4  1  0
  7  6  2  0
  8  6  1  0
  9  8  1  0
  9 10  1  1
 10 11  1  0
 11 16  1  0
 12 11  2  0
 12 13  1  0
 13 14  2  0
 14 15  1  0
 16 15  2  0
 17 18  2  0
 17  9  1  0
 19 17  1  0
 20 19  1  0
 21 22  1  0
 20 21  1  1
 22 23  2  0
 24 23  1  0
 25 24  1  0
 26 25  2  0
 26 22  1  0
 27 29  1  0
 27 20  1  0
 28 27  2  0
M  END
$$$$
