TFH.pdb
     RDKit          3D

 29 30  0  0  1  0  0  0  0  0999 V2000
   20.5668  -15.4413  -21.0980 C   0  0  0  0  0  0  0  0  0  0  0  0
   20.6544  -14.5893  -19.8427 C   0  0  1  0  0  0  0  0  0  0  0  0
   19.5446  -14.8179  -19.0176 O   0  0  0  0  0  0  0  0  0  0  0  0
   21.8842  -15.0501  -19.0933 C   0  0  2  0  0  0  0  0  0  0  0  0
   21.7446  -16.4271  -18.6768 N   0  0  0  0  0  0  0  0  0  0  0  0
   22.1744  -14.2200  -17.9135 C   0  0  0  0  0  0  0  0  0  0  0  0
   21.6839  -14.5376  -16.8036 O   0  0  0  0  0  0  0  0  0  0  0  0
   22.9891  -13.0591  -17.9454 N   0  0  0  0  0  0  0  0  0  0  0  0
   23.2535  -12.2317  -16.7772 C   0  0  1  0  0  0  0  0  0  0  0  0
   24.7229  -12.2126  -16.5280 C   0  0  0  0  0  0  0  0  0  0  0  0
   25.3204  -13.4879  -16.1473 C   0  0  0  0  0  0  0  0  0  0  0  0
   25.1656  -13.9972  -14.8946 C   0  0  0  0  0  0  0  0  0  0  0  0
   25.7459  -15.2037  -14.5762 C   0  0  0  0  0  0  0  0  0  0  0  0
   26.4892  -15.9345  -15.4797 C   0  0  0  0  0  0  0  0  0  0  0  0
   26.6182  -15.3769  -16.7378 C   0  0  0  0  0  0  0  0  0  0  0  0
   26.0509  -14.1770  -17.0821 C   0  0  0  0  0  0  0  0  0  0  0  0
   22.6150  -10.9163  -16.8724 C   0  0  0  0  0  0  0  0  0  0  0  0
   22.8575  -10.2042  -17.8754 O   0  0  0  0  0  0  0  0  0  0  0  0
   21.7282  -10.4058  -15.8757 N   0  0  0  0  0  0  0  0  0  0  0  0
   21.0331   -9.1289  -16.0282 C   0  0  1  0  0  0  0  0  0  0  0  0
   19.6358   -9.3534  -15.5201 C   0  0  0  0  0  0  0  0  0  0  0  0
   18.8392   -8.1017  -15.4660 C   0  0  0  0  0  0  0  0  0  0  0  0
   19.1241   -6.8932  -16.0576 C   0  0  0  0  0  0  0  0  0  0  0  0
   18.1149   -6.0456  -15.7288 N   0  0  0  0  0  0  0  0  0  0  0  0
   17.2572   -6.7404  -14.9617 C   0  0  0  0  0  0  0  0  0  0  0  0
   17.6809   -7.9977  -14.7891 N   0  0  0  0  0  0  0  0  0  0  0  0
   21.7199   -8.0937  -15.2424 C   0  0  0  0  0  0  0  0  0  0  0  0
   22.3280   -8.3441  -14.1761 O   0  0  0  0  0  0  0  0  0  0  0  0
   21.7098   -6.7706  -15.6790 O   0  0  0  0  0  0  0  0  0  0  0  0
  2  1  1  6
  2  3  1  0
  4  5  1  1
  4  2  1  0
  6  4  1  0
  7  6  2  0
  8  6  1  0
  9  8  1  0
  9 10  1  6
 10 11  1  0
 11 16  1  0
 12 11  2  0
 12 13  1  0
 13 14  2  0
 14 15  1  0
 16 15  2  0
 17 18  2  0
 17  9  1  0
 19 17  1  0
 20 19  1  0
 21 22  1  0
 20 21  1  1
 22 23  2  0
 24 23  1  0
 25 24  1  0
 26 25  2  0
 26 22  1  0
 27 29  1  0
 27 20  1  0
 28 27  2  0
M  END
$$$$
