TFH.pdb
     RDKit          3D

 29 30  0  0  1  0  0  0  0  0999 V2000
   24.0507  -37.2476   -3.9352 C   0  0  0  0  0  0  0  0  0  0  0  0
   23.6894  -37.3541   -5.4074 C   0  0  1  0  0  0  0  0  0  0  0  0
   22.3221  -37.6241   -5.5575 O   0  0  0  0  0  0  0  0  0  0  0  0
   23.9571  -35.9965   -6.0169 C   0  0  2  0  0  0  0  0  0  0  0  0
   23.5866  -35.9798   -7.4139 N   0  0  0  0  0  0  0  0  0  0  0  0
   25.3640  -35.5845   -5.8898 C   0  0  0  0  0  0  0  0  0  0  0  0
   26.1954  -35.9654   -6.7483 O   0  0  0  0  0  0  0  0  0  0  0  0
   25.8561  -34.7677   -4.8394 N   0  0  0  0  0  0  0  0  0  0  0  0
   27.2539  -34.3824   -4.7098 C   0  0  1  0  0  0  0  0  0  0  0  0
   27.3778  -32.9271   -5.0066 C   0  0  0  0  0  0  0  0  0  0  0  0
   26.7804  -32.4801   -6.2603 C   0  0  0  0  0  0  0  0  0  0  0  0
   25.5004  -32.0203   -6.3111 C   0  0  0  0  0  0  0  0  0  0  0  0
   24.9747  -31.6082   -7.5143 C   0  0  0  0  0  0  0  0  0  0  0  0
   25.6938  -31.6389   -8.6912 C   0  0  0  0  0  0  0  0  0  0  0  0
   26.9880  -32.1134   -8.5891 C   0  0  0  0  0  0  0  0  0  0  0  0
   27.5368  -32.5303   -7.4039 C   0  0  0  0  0  0  0  0  0  0  0  0
   27.8334  -34.8156   -3.4356 C   0  0  0  0  0  0  0  0  0  0  0  0
   27.5009  -34.2093   -2.3897 O   0  0  0  0  0  0  0  0  0  0  0  0
   28.7603  -35.8970   -3.3279 N   0  0  0  0  0  0  0  0  0  0  0  0
   30.0928  -35.7297   -2.7504 C   0  0  1  0  0  0  0  0  0  0  0  0
   30.7283  -34.5889   -3.4959 C   0  0  0  0  0  0  0  0  0  0  0  0
   31.4322  -35.0312   -4.7260 C   0  0  0  0  0  0  0  0  0  0  0  0
   31.5367  -36.3082   -5.2261 C   0  0  0  0  0  0  0  0  0  0  0  0
   32.2740  -36.2269   -6.3640 N   0  0  0  0  0  0  0  0  0  0  0  0
   32.5951  -34.9320   -6.5281 C   0  0  0  0  0  0  0  0  0  0  0  0
   32.0910  -34.1853   -5.5390 N   0  0  0  0  0  0  0  0  0  0  0  0
   29.9770  -35.4235   -1.3173 C   0  0  0  0  0  0  0  0  0  0  0  0
   28.8810  -35.1745   -0.7637 O   0  0  0  0  0  0  0  0  0  0  0  0
   31.1181  -35.4027   -0.5181 O   0  0  0  0  0  0  0  0  0  0  0  0
  2  1  1  1
  2  3  1  0
  4  5  1  6
  4  2  1  0
  6  4  1  0
  7  6  2  0
  8  6  1  0
  9  8  1  0
  9 10  1  1
 10 11  1  0
 11 16  1  0
 12 11  2  0
 12 13  1  0
 13 14  2  0
 14 15  1  0
 16 15  2  0
 17 18  2  0
 17  9  1  0
 19 17  1  0
 20 19  1  0
 21 22  1  0
 20 21  1  6
 22 23  2  0
 24 23  1  0
 25 24  1  0
 26 25  2  0
 26 22  1  0
 27 29  1  0
 27 20  1  0
 28 27  2  0
M  END
$$$$
