TFH.pdb
     RDKit          3D

 29 30  0  0  1  0  0  0  0  0999 V2000
   26.2839  -20.2921  -18.2224 C   0  0  0  0  0  0  0  0  0  0  0  0
   27.0137  -21.5555  -18.6474 C   0  0  1  0  0  0  0  0  0  0  0  0
   27.8351  -21.2976  -19.7536 O   0  0  0  0  0  0  0  0  0  0  0  0
   27.9095  -21.9455  -17.4934 C   0  0  2  0  0  0  0  0  0  0  0  0
   28.5962  -23.1860  -17.7742 N   0  0  0  0  0  0  0  0  0  0  0  0
   27.1753  -22.0811  -16.2254 C   0  0  0  0  0  0  0  0  0  0  0  0
   26.3804  -23.0397  -16.0755 O   0  0  0  0  0  0  0  0  0  0  0  0
   27.3076  -21.1821  -15.1360 N   0  0  0  0  0  0  0  0  0  0  0  0
   26.4706  -21.2342  -13.9461 C   0  0  1  0  0  0  0  0  0  0  0  0
   27.2056  -20.5973  -12.8167 C   0  0  0  0  0  0  0  0  0  0  0  0
   26.4703  -20.4850  -11.5616 C   0  0  0  0  0  0  0  0  0  0  0  0
   26.2401  -21.5720  -10.7755 C   0  0  0  0  0  0  0  0  0  0  0  0
   25.5420  -21.4228   -9.5990 C   0  0  0  0  0  0  0  0  0  0  0  0
   25.0560  -20.2050   -9.1703 C   0  0  0  0  0  0  0  0  0  0  0  0
   25.3146  -19.1316  -10.0016 C   0  0  0  0  0  0  0  0  0  0  0  0
   26.0073  -19.2516  -11.1788 C   0  0  0  0  0  0  0  0  0  0  0  0
   25.1230  -20.7140  -14.1919 C   0  0  0  0  0  0  0  0  0  0  0  0
   25.0006  -19.5282  -14.5804 O   0  0  0  0  0  0  0  0  0  0  0  0
   23.9405  -21.4942  -14.0097 N   0  0  0  0  0  0  0  0  0  0  0  0
   22.6006  -20.9276  -14.1529 C   0  0  1  0  0  0  0  0  0  0  0  0
   21.7284  -22.0451  -14.6546 C   0  0  0  0  0  0  0  0  0  0  0  0
   20.3280  -21.6140  -14.8935 C   0  0  0  0  0  0  0  0  0  0  0  0
   19.8906  -20.5201  -15.6031 C   0  0  0  0  0  0  0  0  0  0  0  0
   18.5334  -20.5302  -15.5465 N   0  0  0  0  0  0  0  0  0  0  0  0
   18.1821  -21.6054  -14.8202 C   0  0  0  0  0  0  0  0  0  0  0  0
   19.2627  -22.2805  -14.4121 N   0  0  0  0  0  0  0  0  0  0  0  0
   22.1291  -20.4348  -12.8507 C   0  0  0  0  0  0  0  0  0  0  0  0
   22.3941  -21.0123  -11.7710 O   0  0  0  0  0  0  0  0  0  0  0  0
   21.3534  -19.2792  -12.7859 O   0  0  0  0  0  0  0  0  0  0  0  0
  2  1  1  1
  2  3  1  0
  4  5  1  6
  4  2  1  0
  6  4  1  0
  7  6  2  0
  8  6  1  0
  9  8  1  0
  9 10  1  1
 10 11  1  0
 11 16  1  0
 12 11  2  0
 12 13  1  0
 13 14  2  0
 14 15  1  0
 16 15  2  0
 17 18  2  0
 17  9  1  0
 19 17  1  0
 20 19  1  0
 21 22  1  0
 20 21  1  1
 22 23  2  0
 24 23  1  0
 25 24  1  0
 26 25  2  0
 26 22  1  0
 27 29  1  0
 27 20  1  0
 28 27  2  0
M  END
$$$$
