TFH.pdb
     RDKit          3D

 29 30  0  0  1  0  0  0  0  0999 V2000
   20.7027  -11.0058  -20.3857 C   0  0  0  0  0  0  0  0  0  0  0  0
   20.0688  -10.0345  -19.4038 C   0  0  1  0  0  0  0  0  0  0  0  0
   18.7061  -10.3210  -19.2427 O   0  0  0  0  0  0  0  0  0  0  0  0
   20.7452  -10.2648  -18.0712 C   0  0  2  0  0  0  0  0  0  0  0  0
   20.3794  -11.5526  -17.5265 N   0  0  0  0  0  0  0  0  0  0  0  0
   20.4274   -9.2200  -17.0850 C   0  0  0  0  0  0  0  0  0  0  0  0
   19.5010   -9.4139  -16.2618 O   0  0  0  0  0  0  0  0  0  0  0  0
   21.1118   -7.9804  -16.9990 N   0  0  0  0  0  0  0  0  0  0  0  0
   20.7998   -6.9581  -16.0107 C   0  0  1  0  0  0  0  0  0  0  0  0
   21.9408   -6.8509  -15.0577 C   0  0  0  0  0  0  0  0  0  0  0  0
   22.0982   -7.9624  -14.1259 C   0  0  0  0  0  0  0  0  0  0  0  0
   22.9472   -8.9932  -14.3892 C   0  0  0  0  0  0  0  0  0  0  0  0
   23.0663  -10.0224  -13.4835 C   0  0  0  0  0  0  0  0  0  0  0  0
   22.3552  -10.0612  -12.3020 C   0  0  0  0  0  0  0  0  0  0  0  0
   21.5066   -8.9932  -12.0793 C   0  0  0  0  0  0  0  0  0  0  0  0
   21.3686   -7.9549  -12.9640 C   0  0  0  0  0  0  0  0  0  0  0  0
   20.3768   -5.6987  -16.6289 C   0  0  0  0  0  0  0  0  0  0  0  0
   21.1666   -5.1219  -17.4134 O   0  0  0  0  0  0  0  0  0  0  0  0
   19.1060   -5.0960  -16.3801 N   0  0  0  0  0  0  0  0  0  0  0  0
   18.6859   -3.8589  -17.0361 C   0  0  1  0  0  0  0  0  0  0  0  0
   17.3153   -4.1285  -17.5927 C   0  0  0  0  0  0  0  0  0  0  0  0
   16.7347   -2.9473  -18.2796 C   0  0  0  0  0  0  0  0  0  0  0  0
   17.2256   -2.2849  -19.3804 C   0  0  0  0  0  0  0  0  0  0  0  0
   16.3637   -1.2692  -19.6462 N   0  0  0  0  0  0  0  0  0  0  0  0
   15.3892   -1.3338  -18.7226 C   0  0  0  0  0  0  0  0  0  0  0  0
   15.5969   -2.3511  -17.8788 N   0  0  0  0  0  0  0  0  0  0  0  0
   18.6507   -2.7649  -16.0548 C   0  0  0  0  0  0  0  0  0  0  0  0
   18.6702   -1.5568  -16.3857 O   0  0  0  0  0  0  0  0  0  0  0  0
   18.5930   -3.0559  -14.6934 O   0  0  0  0  0  0  0  0  0  0  0  0
  2  1  1  6
  2  3  1  0
  4  5  1  1
  4  2  1  0
  6  4  1  0
  7  6  2  0
  8  6  1  0
  9  8  1  0
  9 10  1  6
 10 11  1  0
 11 16  1  0
 12 11  2  0
 12 13  1  0
 13 14  2  0
 14 15  1  0
 16 15  2  0
 17 18  2  0
 17  9  1  0
 19 17  1  0
 20 19  1  0
 21 22  1  0
 20 21  1  1
 22 23  2  0
 24 23  1  0
 25 24  1  0
 26 25  2  0
 26 22  1  0
 27 29  1  0
 27 20  1  0
 28 27  2  0
M  END
$$$$
