TFH.pdb
     RDKit          3D

 29 30  0  0  1  0  0  0  0  0999 V2000
   28.7651  -21.0908  -19.3038 C   0  0  0  0  0  0  0  0  0  0  0  0
   27.7367  -21.2800  -18.2010 C   0  0  1  0  0  0  0  0  0  0  0  0
   26.6789  -22.0822  -18.6507 O   0  0  0  0  0  0  0  0  0  0  0  0
   28.4332  -22.0249  -17.0846 C   0  0  2  0  0  0  0  0  0  0  0  0
   28.8325  -23.3441  -17.5197 N   0  0  0  0  0  0  0  0  0  0  0  0
   27.5989  -22.1506  -15.8790 C   0  0  0  0  0  0  0  0  0  0  0  0
   27.0058  -23.2324  -15.6526 O   0  0  0  0  0  0  0  0  0  0  0  0
   27.4149  -21.1090  -14.9336 N   0  0  0  0  0  0  0  0  0  0  0  0
   26.5388  -21.2208  -13.7765 C   0  0  1  0  0  0  0  0  0  0  0  0
   27.1173  -20.4205  -12.6601 C   0  0  0  0  0  0  0  0  0  0  0  0
   26.3720  -20.4458  -11.4061 C   0  0  0  0  0  0  0  0  0  0  0  0
   26.6994  -21.3072  -10.4044 C   0  0  0  0  0  0  0  0  0  0  0  0
   25.9706  -21.2989   -9.2371 C   0  0  0  0  0  0  0  0  0  0  0  0
   24.9065  -20.4459   -9.0291 C   0  0  0  0  0  0  0  0  0  0  0  0
   24.6125  -19.5906  -10.0743 C   0  0  0  0  0  0  0  0  0  0  0  0
   25.3216  -19.5775  -11.2477 C   0  0  0  0  0  0  0  0  0  0  0  0
   25.1426  -20.9223  -14.1061 C   0  0  0  0  0  0  0  0  0  0  0  0
   24.8929  -19.8937  -14.7782 O   0  0  0  0  0  0  0  0  0  0  0  0
   24.0510  -21.7480  -13.6979 N   0  0  0  0  0  0  0  0  0  0  0  0
   22.6596  -21.4001  -13.9802 C   0  0  1  0  0  0  0  0  0  0  0  0
   21.9144  -22.7034  -14.0651 C   0  0  0  0  0  0  0  0  0  0  0  0
   20.4786  -22.5206  -14.3956 C   0  0  0  0  0  0  0  0  0  0  0  0
   19.7839  -21.3399  -14.5176 C   0  0  0  0  0  0  0  0  0  0  0  0
   18.5019  -21.6667  -14.8254 N   0  0  0  0  0  0  0  0  0  0  0  0
   18.4452  -23.0085  -14.8827 C   0  0  0  0  0  0  0  0  0  0  0  0
   19.6413  -23.5490  -14.6233 N   0  0  0  0  0  0  0  0  0  0  0  0
   22.1294  -20.5593  -12.8972 C   0  0  0  0  0  0  0  0  0  0  0  0
   22.3568  -20.7896  -11.6870 O   0  0  0  0  0  0  0  0  0  0  0  0
   21.3379  -19.4537  -13.2015 O   0  0  0  0  0  0  0  0  0  0  0  0
  2  1  1  6
  2  3  1  0
  4  5  1  6
  4  2  1  0
  6  4  1  0
  7  6  2  0
  8  6  1  0
  9  8  1  0
  9 10  1  1
 10 11  1  0
 11 16  1  0
 12 11  2  0
 12 13  1  0
 13 14  2  0
 14 15  1  0
 16 15  2  0
 17 18  2  0
 17  9  1  0
 19 17  1  0
 20 19  1  0
 21 22  1  0
 20 21  1  1
 22 23  2  0
 24 23  1  0
 25 24  1  0
 26 25  2  0
 26 22  1  0
 27 29  1  0
 27 20  1  0
 28 27  2  0
M  END
$$$$
