TFH.pdb
     RDKit          3D

 29 30  0  0  1  0  0  0  0  0999 V2000
   25.6132  -19.9401  -17.3692 C   0  0  0  0  0  0  0  0  0  0  0  0
   25.8577  -21.3742  -17.8086 C   0  0  1  0  0  0  0  0  0  0  0  0
   26.5580  -21.4014  -19.0225 O   0  0  0  0  0  0  0  0  0  0  0  0
   26.7422  -22.0033  -16.7560 C   0  0  2  0  0  0  0  0  0  0  0  0
   27.1041  -23.3518  -17.1299 N   0  0  0  0  0  0  0  0  0  0  0  0
   26.1128  -22.0279  -15.4261 C   0  0  0  0  0  0  0  0  0  0  0  0
   25.0827  -22.7208  -15.2469 O   0  0  0  0  0  0  0  0  0  0  0  0
   26.6017  -21.3055  -14.3073 N   0  0  0  0  0  0  0  0  0  0  0  0
   25.9062  -21.2363  -13.0304 C   0  0  1  0  0  0  0  0  0  0  0  0
   26.8375  -20.6788  -12.0088 C   0  0  0  0  0  0  0  0  0  0  0  0
   26.2796  -20.4918  -10.6738 C   0  0  0  0  0  0  0  0  0  0  0  0
   26.0880  -21.5441   -9.8320 C   0  0  0  0  0  0  0  0  0  0  0  0
   25.5590  -21.3246   -8.5807 C   0  0  0  0  0  0  0  0  0  0  0  0
   25.2074  -20.0689   -8.1303 C   0  0  0  0  0  0  0  0  0  0  0  0
   25.4204  -19.0330   -9.0201 C   0  0  0  0  0  0  0  0  0  0  0  0
   25.9457  -19.2231  -10.2722 C   0  0  0  0  0  0  0  0  0  0  0  0
   24.6124  -20.5569  -13.1388 C   0  0  0  0  0  0  0  0  0  0  0  0
   24.5520  -19.4836  -13.7840 O   0  0  0  0  0  0  0  0  0  0  0  0
   23.4153  -21.0596  -12.5436 N   0  0  0  0  0  0  0  0  0  0  0  0
   22.1054  -20.4631  -12.7991 C   0  0  1  0  0  0  0  0  0  0  0  0
   21.7761  -20.7815  -14.2314 C   0  0  0  0  0  0  0  0  0  0  0  0
   21.7067  -19.5689  -15.0852 C   0  0  0  0  0  0  0  0  0  0  0  0
   21.8426  -18.2557  -14.6996 C   0  0  0  0  0  0  0  0  0  0  0  0
   21.7005  -17.4993  -15.8189 N   0  0  0  0  0  0  0  0  0  0  0  0
   21.4860  -18.3489  -16.8382 C   0  0  0  0  0  0  0  0  0  0  0  0
   21.4860  -19.6170  -16.4117 N   0  0  0  0  0  0  0  0  0  0  0  0
   21.1096  -21.0447  -11.8875 C   0  0  0  0  0  0  0  0  0  0  0  0
   20.1241  -20.4002  -11.4597 O   0  0  0  0  0  0  0  0  0  0  0  0
   21.2434  -22.3659  -11.4658 O   0  0  0  0  0  0  0  0  0  0  0  0
  2  1  1  1
  2  3  1  0
  4  5  1  6
  4  2  1  0
  6  4  1  0
  7  6  2  0
  8  6  1  0
  9  8  1  0
  9 10  1  1
 10 11  1  0
 11 16  1  0
 12 11  2  0
 12 13  1  0
 13 14  2  0
 14 15  1  0
 16 15  2  0
 17 18  2  0
 17  9  1  0
 19 17  1  0
 20 19  1  0
 21 22  1  0
 20 21  1  6
 22 23  2  0
 24 23  1  0
 25 24  1  0
 26 25  2  0
 26 22  1  0
 27 29  1  0
 27 20  1  0
 28 27  2  0
M  END
$$$$
