TFH.pdb
     RDKit          3D

 29 30  0  0  1  0  0  0  0  0999 V2000
   30.8996  -29.5121  -20.8248 C   0  0  0  0  0  0  0  0  0  0  0  0
   32.4060  -29.3583  -20.6966 C   0  0  1  0  0  0  0  0  0  0  0  0
   32.9807  -29.1069  -21.9501 O   0  0  0  0  0  0  0  0  0  0  0  0
   32.6436  -28.1408  -19.8320 C   0  0  2  0  0  0  0  0  0  0  0  0
   34.0522  -27.9779  -19.5521 N   0  0  0  0  0  0  0  0  0  0  0  0
   31.9059  -28.1950  -18.5600 C   0  0  0  0  0  0  0  0  0  0  0  0
   32.4490  -28.7166  -17.5568 O   0  0  0  0  0  0  0  0  0  0  0  0
   30.5930  -27.6865  -18.3859 N   0  0  0  0  0  0  0  0  0  0  0  0
   29.8740  -27.7366  -17.1212 C   0  0  1  0  0  0  0  0  0  0  0  0
   29.6292  -26.3421  -16.6552 C   0  0  0  0  0  0  0  0  0  0  0  0
   30.8194  -25.5518  -16.3595 C   0  0  0  0  0  0  0  0  0  0  0  0
   31.2629  -24.5911  -17.2156 C   0  0  0  0  0  0  0  0  0  0  0  0
   32.3901  -23.8680  -16.8989 C   0  0  0  0  0  0  0  0  0  0  0  0
   33.1045  -24.0727  -15.7367 C   0  0  0  0  0  0  0  0  0  0  0  0
   32.6156  -25.0580  -14.8998 C   0  0  0  0  0  0  0  0  0  0  0  0
   31.4954  -25.7933  -15.1903 C   0  0  0  0  0  0  0  0  0  0  0  0
   28.6873  -28.5934  -17.1906 C   0  0  0  0  0  0  0  0  0  0  0  0
   27.8897  -28.4354  -18.1449 O   0  0  0  0  0  0  0  0  0  0  0  0
   28.3955  -29.6015  -16.2217 N   0  0  0  0  0  0  0  0  0  0  0  0
   27.2242  -30.4699  -16.3259 C   0  0  1  0  0  0  0  0  0  0  0  0
   26.0767  -29.5757  -16.7065 C   0  0  0  0  0  0  0  0  0  0  0  0
   24.7852  -30.3040  -16.7822 C   0  0  0  0  0  0  0  0  0  0  0  0
   24.5150  -31.5889  -16.3727 C   0  0  0  0  0  0  0  0  0  0  0  0
   23.2046  -31.8220  -16.6442 N   0  0  0  0  0  0  0  0  0  0  0  0
   22.7167  -30.6998  -17.2004 C   0  0  0  0  0  0  0  0  0  0  0  0
   23.6653  -29.7609  -17.2938 N   0  0  0  0  0  0  0  0  0  0  0  0
   27.4570  -31.4950  -17.3534 C   0  0  0  0  0  0  0  0  0  0  0  0
   26.5726  -32.3052  -17.7152 O   0  0  0  0  0  0  0  0  0  0  0  0
   28.7044  -31.5916  -17.9667 O   0  0  0  0  0  0  0  0  0  0  0  0
  2  1  1  6
  2  3  1  0
  4  5  1  1
  4  2  1  0
  6  4  1  0
  7  6  2  0
  8  6  1  0
  9  8  1  0
  9 10  1  6
 10 11  1  0
 11 16  1  0
 12 11  2  0
 12 13  1  0
 13 14  2  0
 14 15  1  0
 16 15  2  0
 17 18  2  0
 17  9  1  0
 19 17  1  0
 20 19  1  0
 21 22  1  0
 20 21  1  6
 22 23  2  0
 24 23  1  0
 25 24  1  0
 26 25  2  0
 26 22  1  0
 27 29  1  0
 27 20  1  0
 28 27  2  0
M  END
$$$$
