MEW.pdb
     RDKit          3D

 32 33  0  0  1  0  0  0  0  0999 V2000
    7.2884  -12.5425   22.2408 C   0  0  0  0  0  0  0  0  0  0  0  0
    7.5211  -13.7453   20.9047 S   0  0  0  0  0  0  0  0  0  0  0  0
    7.5856  -15.4165   21.5780 C   0  0  0  0  0  0  0  0  0  0  0  0
    7.7310  -16.4240   20.4461 C   0  0  0  0  0  0  0  0  0  0  0  0
    7.8576  -17.7984   21.0678 C   0  0  2  0  0  0  0  0  0  0  0  0
    6.5966  -18.2485   21.5776 N   0  0  0  0  0  0  0  0  0  0  0  0
    8.9170  -17.7951   22.1342 C   0  0  0  0  0  0  0  0  0  0  0  0
    8.9547  -18.7279   22.9716 O   0  0  0  0  0  0  0  0  0  0  0  0
    9.8783  -16.7828   22.2357 N   0  0  0  0  0  0  0  0  0  0  0  0
   11.1695  -16.9006   22.7812 C   0  0  1  0  0  0  0  0  0  0  0  0
   12.2579  -16.0623   22.1854 C   0  0  0  0  0  0  0  0  0  0  0  0
   13.5854  -16.4972   22.8088 C   0  0  0  0  0  0  0  0  0  0  0  0
   14.6949  -15.7171   22.2179 C   0  0  0  0  0  0  0  0  0  0  0  0
   14.9828  -15.8838   21.0022 O   0  0  0  0  0  0  0  0  0  0  0  0
   11.2064  -16.8337   24.2417 C   0  0  0  0  0  0  0  0  0  0  0  0
   12.2974  -16.8470   24.8987 O   0  0  0  0  0  0  0  0  0  0  0  0
   15.3952  -14.8218   23.0036 O   0  0  0  0  0  0  0  0  0  0  0  0
    9.9852  -16.7494   24.9733 N   0  0  0  0  0  0  0  0  0  0  0  0
   10.0009  -16.6839   26.4423 C   0  0  1  0  0  0  0  0  0  0  0  0
    8.5671  -16.7478   26.9158 C   0  0  0  0  0  0  0  0  0  0  0  0
    7.6961  -15.7864   26.2404 C   0  0  0  0  0  0  0  0  0  0  0  0
    6.6204  -16.1137   25.4493 C   0  0  0  0  0  0  0  0  0  0  0  0
    6.0679  -14.9867   25.0058 N   0  0  0  0  0  0  0  0  0  0  0  0
    6.7562  -13.9254   25.4876 C   0  0  0  0  0  0  0  0  0  0  0  0
    6.6002  -12.5586   25.3340 C   0  0  0  0  0  0  0  0  0  0  0  0
    7.4624  -11.6823   25.9521 C   0  0  0  0  0  0  0  0  0  0  0  0
    8.4827  -12.1780   26.7256 C   0  0  0  0  0  0  0  0  0  0  0  0
    8.6486  -13.5159   26.8858 C   0  0  0  0  0  0  0  0  0  0  0  0
    7.7871  -14.4008   26.2684 C   0  0  0  0  0  0  0  0  0  0  0  0
   10.8403  -17.7592   26.9413 C   0  0  0  0  0  0  0  0  0  0  0  0
   11.4636  -18.6374   26.0788 O   0  0  0  0  0  0  0  0  0  0  0  0
   11.0158  -17.9110   28.1730 O   0  0  0  0  0  0  0  0  0  0  0  0
  2  1  1  0
  3  2  1  0
  4  3  1  0
  5  4  1  0
  5  6  1  1
  7  9  1  0
  7  5  1  0
  8  7  2  0
 10  9  1  0
 10 11  1  6
 11 12  1  0
 12 13  1  0
 13 14  2  0
 13 17  1  0
 15 10  1  0
 16 15  2  0
 18 15  1  0
 19 30  1  0
 19 18  1  0
 19 20  1  1
 21 20  1  0
 21 29  1  0
 22 23  1  0
 22 21  2  0
 23 24  1  0
 24 29  2  0
 24 25  1  0
 25 26  2  0
 26 27  1  0
 28 27  2  0
 29 28  1  0
 30 31  1  0
 32 30  2  0
M  END
$$$$
