MEW.pdb
     RDKit          3D

 32 33  0  0  1  0  0  0  0  0999 V2000
    7.4974  -11.3412   19.5906 C   0  0  0  0  0  0  0  0  0  0  0  0
    6.8678  -12.8711   18.8496 S   0  0  0  0  0  0  0  0  0  0  0  0
    8.0164  -14.2270   19.1541 C   0  0  0  0  0  0  0  0  0  0  0  0
    8.1193  -14.4906   20.6498 C   0  0  0  0  0  0  0  0  0  0  0  0
    9.5495  -14.8862   20.9493 C   0  0  2  0  0  0  0  0  0  0  0  0
   10.1608  -15.5007   19.8086 N   0  0  0  0  0  0  0  0  0  0  0  0
    9.6035  -15.7809   22.1560 C   0  0  0  0  0  0  0  0  0  0  0  0
    8.7445  -15.6521   23.0606 O   0  0  0  0  0  0  0  0  0  0  0  0
   10.5841  -16.7666   22.3177 N   0  0  0  0  0  0  0  0  0  0  0  0
   10.7276  -17.6388   23.4119 C   0  0  1  0  0  0  0  0  0  0  0  0
   11.7781  -18.7022   23.3235 C   0  0  0  0  0  0  0  0  0  0  0  0
   11.6114  -19.4219   21.9839 C   0  0  0  0  0  0  0  0  0  0  0  0
   11.6666  -20.8855   22.1922 C   0  0  0  0  0  0  0  0  0  0  0  0
   12.4356  -21.3510   23.0758 O   0  0  0  0  0  0  0  0  0  0  0  0
   10.7840  -16.9630   24.7076 C   0  0  0  0  0  0  0  0  0  0  0  0
   11.5505  -15.9698   24.9271 O   0  0  0  0  0  0  0  0  0  0  0  0
   10.8782  -21.7162   21.4192 O   0  0  0  0  0  0  0  0  0  0  0  0
    9.9564  -17.4189   25.7758 N   0  0  0  0  0  0  0  0  0  0  0  0
   10.0273  -16.7784   27.0975 C   0  0  1  0  0  0  0  0  0  0  0  0
    8.6159  -16.6707   27.6271 C   0  0  0  0  0  0  0  0  0  0  0  0
    7.7552  -15.8261   26.7994 C   0  0  0  0  0  0  0  0  0  0  0  0
    6.8069  -16.2874   25.9173 C   0  0  0  0  0  0  0  0  0  0  0  0
    6.2218  -15.2380   25.3442 N   0  0  0  0  0  0  0  0  0  0  0  0
    6.7640  -14.0967   25.8296 C   0  0  0  0  0  0  0  0  0  0  0  0
    6.5193  -12.7588   25.5722 C   0  0  0  0  0  0  0  0  0  0  0  0
    7.2327  -11.7791   26.2240 C   0  0  0  0  0  0  0  0  0  0  0  0
    8.1931  -12.1422   27.1353 C   0  0  0  0  0  0  0  0  0  0  0  0
    8.4447  -13.4501   27.3985 C   0  0  0  0  0  0  0  0  0  0  0  0
    7.7325  -14.4383   26.7482 C   0  0  0  0  0  0  0  0  0  0  0  0
   10.9199  -17.5571   27.9382 C   0  0  0  0  0  0  0  0  0  0  0  0
   11.4839  -18.7319   27.4850 O   0  0  0  0  0  0  0  0  0  0  0  0
   11.1968  -17.1744   29.0992 O   0  0  0  0  0  0  0  0  0  0  0  0
  2  1  1  0
  3  2  1  0
  4  3  1  0
  5  4  1  0
  5  6  1  6
  7  9  1  0
  7  5  1  0
  8  7  2  0
 10  9  1  0
 10 11  1  6
 11 12  1  0
 12 13  1  0
 13 14  2  0
 13 17  1  0
 15 10  1  0
 16 15  2  0
 18 15  1  0
 19 30  1  0
 19 18  1  0
 19 20  1  1
 21 20  1  0
 21 29  1  0
 22 23  1  0
 22 21  2  0
 23 24  1  0
 24 29  2  0
 24 25  1  0
 25 26  2  0
 26 27  1  0
 28 27  2  0
 29 28  1  0
 30 31  1  0
 32 30  2  0
M  END
$$$$
