MEW.pdb
     RDKit          3D

 32 33  0  0  1  0  0  0  0  0999 V2000
    7.3753  -11.8001   18.7060 C   0  0  0  0  0  0  0  0  0  0  0  0
    7.1470  -13.4128   19.5018 S   0  0  0  0  0  0  0  0  0  0  0  0
    7.6221  -13.3211   21.2385 C   0  0  0  0  0  0  0  0  0  0  0  0
    7.3615  -14.6588   21.9165 C   0  0  0  0  0  0  0  0  0  0  0  0
    8.6951  -15.3541   22.0887 C   0  0  2  0  0  0  0  0  0  0  0  0
    9.5871  -15.0246   21.0170 N   0  0  0  0  0  0  0  0  0  0  0  0
    8.4994  -16.8396   22.2096 C   0  0  0  0  0  0  0  0  0  0  0  0
    7.5186  -17.3822   21.6472 O   0  0  0  0  0  0  0  0  0  0  0  0
    9.3764  -17.6569   22.9323 N   0  0  0  0  0  0  0  0  0  0  0  0
   10.7082  -17.3637   23.2771 C   0  0  1  0  0  0  0  0  0  0  0  0
   11.4892  -16.4797   22.3546 C   0  0  0  0  0  0  0  0  0  0  0  0
   12.9381  -16.4469   22.8444 C   0  0  0  0  0  0  0  0  0  0  0  0
   13.8352  -16.0757   21.7282 C   0  0  0  0  0  0  0  0  0  0  0  0
   13.9919  -14.8572   21.4461 O   0  0  0  0  0  0  0  0  0  0  0  0
   10.8841  -16.9443   24.6670 C   0  0  0  0  0  0  0  0  0  0  0  0
   11.9907  -16.4956   25.1102 O   0  0  0  0  0  0  0  0  0  0  0  0
   14.4847  -17.0652   21.0152 O   0  0  0  0  0  0  0  0  0  0  0  0
    9.7866  -17.0335   25.5733 N   0  0  0  0  0  0  0  0  0  0  0  0
    9.9550  -16.6579   26.9850 C   0  0  1  0  0  0  0  0  0  0  0  0
    8.5761  -16.4547   27.5692 C   0  0  0  0  0  0  0  0  0  0  0  0
    7.7047  -15.6470   26.7162 C   0  0  0  0  0  0  0  0  0  0  0  0
    6.7836  -16.1478   25.8269 C   0  0  0  0  0  0  0  0  0  0  0  0
    6.1779  -15.1240   25.2296 N   0  0  0  0  0  0  0  0  0  0  0  0
    6.6801  -13.9608   25.7061 C   0  0  0  0  0  0  0  0  0  0  0  0
    6.4016  -12.6343   25.4252 C   0  0  0  0  0  0  0  0  0  0  0  0
    7.0768  -11.6253   26.0730 C   0  0  0  0  0  0  0  0  0  0  0  0
    8.0329  -11.9477   27.0039 C   0  0  0  0  0  0  0  0  0  0  0  0
    8.3174  -13.2440   27.2903 C   0  0  0  0  0  0  0  0  0  0  0  0
    7.6436  -14.2613   26.6441 C   0  0  0  0  0  0  0  0  0  0  0  0
   10.7342  -17.6908   27.6454 C   0  0  0  0  0  0  0  0  0  0  0  0
   11.1640  -18.8087   26.9606 O   0  0  0  0  0  0  0  0  0  0  0  0
   11.0330  -17.5856   28.8581 O   0  0  0  0  0  0  0  0  0  0  0  0
  2  1  1  0
  3  2  1  0
  4  3  1  0
  5  4  1  0
  5  6  1  6
  7  9  1  0
  7  5  1  0
  8  7  2  0
 10  9  1  0
 10 11  1  6
 11 12  1  0
 12 13  1  0
 13 14  2  0
 13 17  1  0
 15 10  1  0
 16 15  2  0
 18 15  1  0
 19 30  1  0
 19 18  1  0
 19 20  1  1
 21 20  1  0
 21 29  1  0
 22 23  1  0
 22 21  2  0
 23 24  1  0
 24 29  2  0
 24 25  1  0
 25 26  2  0
 26 27  1  0
 28 27  2  0
 29 28  1  0
 30 31  1  0
 32 30  2  0
M  END
$$$$
