MEW.pdb
     RDKit          3D

 32 33  0  0  1  0  0  0  0  0999 V2000
    7.9195  -11.8505   22.3678 C   0  0  0  0  0  0  0  0  0  0  0  0
    7.7074  -12.5734   20.7190 S   0  0  0  0  0  0  0  0  0  0  0  0
    6.7718  -14.1104   20.8305 C   0  0  0  0  0  0  0  0  0  0  0  0
    7.3789  -15.0081   21.8995 C   0  0  0  0  0  0  0  0  0  0  0  0
    7.9462  -16.2286   21.2067 C   0  0  2  0  0  0  0  0  0  0  0  0
    6.8979  -17.0829   20.7334 N   0  0  0  0  0  0  0  0  0  0  0  0
    8.8866  -16.9609   22.1227 C   0  0  0  0  0  0  0  0  0  0  0  0
    8.4342  -17.8236   22.9126 O   0  0  0  0  0  0  0  0  0  0  0  0
   10.2654  -16.7200   22.1334 N   0  0  0  0  0  0  0  0  0  0  0  0
   11.2151  -17.3066   22.9894 C   0  0  1  0  0  0  0  0  0  0  0  0
   12.6329  -17.3793   22.5131 C   0  0  0  0  0  0  0  0  0  0  0  0
   13.4189  -18.2473   23.4974 C   0  0  0  0  0  0  0  0  0  0  0  0
   14.8335  -18.3299   23.0723 C   0  0  0  0  0  0  0  0  0  0  0  0
   15.7175  -18.5966   23.9303 O   0  0  0  0  0  0  0  0  0  0  0  0
   11.1568  -16.8174   24.3664 C   0  0  0  0  0  0  0  0  0  0  0  0
   11.6214  -15.6818   24.7080 O   0  0  0  0  0  0  0  0  0  0  0  0
   15.1629  -18.1148   21.7477 O   0  0  0  0  0  0  0  0  0  0  0  0
   10.5606  -17.6284   25.3766 N   0  0  0  0  0  0  0  0  0  0  0  0
   10.6927  -17.2662   26.7957 C   0  0  1  0  0  0  0  0  0  0  0  0
    9.2999  -17.1893   27.3771 C   0  0  0  0  0  0  0  0  0  0  0  0
    8.4322  -16.2505   26.6665 C   0  0  0  0  0  0  0  0  0  0  0  0
    7.4524  -16.6034   25.7689 C   0  0  0  0  0  0  0  0  0  0  0  0
    6.8707  -15.4915   25.3245 N   0  0  0  0  0  0  0  0  0  0  0  0
    7.4461  -14.4151   25.9099 C   0  0  0  0  0  0  0  0  0  0  0  0
    7.2182  -13.0542   25.7995 C   0  0  0  0  0  0  0  0  0  0  0  0
    7.9662  -12.1583   26.5285 C   0  0  0  0  0  0  0  0  0  0  0  0
    8.9443  -12.6285   27.3694 C   0  0  0  0  0  0  0  0  0  0  0  0
    9.1797  -13.9603   27.4884 C   0  0  0  0  0  0  0  0  0  0  0  0
    8.4328  -14.8647   26.7599 C   0  0  0  0  0  0  0  0  0  0  0  0
   11.5532  -18.2425   27.4409 C   0  0  0  0  0  0  0  0  0  0  0  0
   11.9575  -18.0832   28.7503 O   0  0  0  0  0  0  0  0  0  0  0  0
   11.9477  -19.2552   26.8164 O   0  0  0  0  0  0  0  0  0  0  0  0
  2  1  1  0
  3  2  1  0
  4  3  1  0
  5  4  1  0
  5  6  1  1
  7  9  1  0
  7  5  1  0
  8  7  2  0
 10  9  1  0
 10 11  1  6
 11 12  1  0
 12 13  1  0
 13 14  2  0
 13 17  1  0
 15 10  1  0
 16 15  2  0
 18 15  1  0
 19 30  1  0
 19 18  1  0
 19 20  1  1
 21 20  1  0
 21 29  1  0
 22 23  1  0
 22 21  2  0
 23 24  1  0
 24 29  2  0
 24 25  1  0
 25 26  2  0
 26 27  1  0
 28 27  2  0
 29 28  1  0
 30 31  1  0
 32 30  2  0
M  END
$$$$
