MEW.pdb
     RDKit          3D

 32 33  0  0  1  0  0  0  0  0999 V2000
    7.3418  -11.3722   18.4875 C   0  0  0  0  0  0  0  0  0  0  0  0
    7.5348  -12.1765   20.1006 S   0  0  0  0  0  0  0  0  0  0  0  0
    7.7126  -13.9580   19.8888 C   0  0  0  0  0  0  0  0  0  0  0  0
    7.9278  -14.6200   21.2426 C   0  0  0  0  0  0  0  0  0  0  0  0
    8.0100  -16.1144   21.0154 C   0  0  2  0  0  0  0  0  0  0  0  0
    6.7082  -16.6723   20.7992 N   0  0  0  0  0  0  0  0  0  0  0  0
    8.7144  -16.7807   22.1641 C   0  0  0  0  0  0  0  0  0  0  0  0
    8.0477  -17.1954   23.1420 O   0  0  0  0  0  0  0  0  0  0  0  0
   10.1021  -16.9623   22.1914 N   0  0  0  0  0  0  0  0  0  0  0  0
   10.8719  -17.3986   23.2849 C   0  0  1  0  0  0  0  0  0  0  0  0
   12.3498  -17.5359   23.0872 C   0  0  0  0  0  0  0  0  0  0  0  0
   12.5831  -18.3842   21.8357 C   0  0  0  0  0  0  0  0  0  0  0  0
   13.6529  -17.7781   21.0130 C   0  0  0  0  0  0  0  0  0  0  0  0
   13.5183  -17.7431   19.7603 O   0  0  0  0  0  0  0  0  0  0  0  0
   10.5804  -16.6973   24.5348 C   0  0  0  0  0  0  0  0  0  0  0  0
   10.7610  -15.4441   24.6729 O   0  0  0  0  0  0  0  0  0  0  0  0
   14.7780  -17.2618   21.6271 O   0  0  0  0  0  0  0  0  0  0  0  0
   10.0739  -17.4277   25.6500 N   0  0  0  0  0  0  0  0  0  0  0  0
   10.0569  -16.8225   26.9900 C   0  0  1  0  0  0  0  0  0  0  0  0
    8.6440  -16.9235   27.5168 C   0  0  0  0  0  0  0  0  0  0  0  0
    7.7028  -16.0596   26.8049 C   0  0  0  0  0  0  0  0  0  0  0  0
    6.6948  -16.4990   25.9796 C   0  0  0  0  0  0  0  0  0  0  0  0
    6.0451  -15.4367   25.5092 N   0  0  0  0  0  0  0  0  0  0  0  0
    6.6032  -14.3083   26.0066 C   0  0  0  0  0  0  0  0  0  0  0  0
    6.3129  -12.9654   25.8377 C   0  0  0  0  0  0  0  0  0  0  0  0
    7.0581  -12.0025   26.4788 C   0  0  0  0  0  0  0  0  0  0  0  0
    8.0963  -12.3875   27.2904 C   0  0  0  0  0  0  0  0  0  0  0  0
    8.3934  -13.7005   27.4661 C   0  0  0  0  0  0  0  0  0  0  0  0
    7.6496  -14.6718   26.8259 C   0  0  0  0  0  0  0  0  0  0  0  0
   11.0473  -17.4968   27.8113 C   0  0  0  0  0  0  0  0  0  0  0  0
   11.3203  -17.0708   29.0949 O   0  0  0  0  0  0  0  0  0  0  0  0
   11.6771  -18.4852   27.3670 O   0  0  0  0  0  0  0  0  0  0  0  0
  2  1  1  0
  3  2  1  0
  4  3  1  0
  5  4  1  0
  5  6  1  1
  7  9  1  0
  7  5  1  0
  8  7  2  0
 10  9  1  0
 10 11  1  6
 11 12  1  0
 12 13  1  0
 13 14  2  0
 13 17  1  0
 15 10  1  0
 16 15  2  0
 18 15  1  0
 19 30  1  0
 19 18  1  0
 19 20  1  1
 21 20  1  0
 21 29  1  0
 22 23  1  0
 22 21  2  0
 23 24  1  0
 24 29  2  0
 24 25  1  0
 25 26  2  0
 26 27  1  0
 28 27  2  0
 29 28  1  0
 30 31  1  0
 32 30  2  0
M  END
$$$$
