MEW.pdb
     RDKit          3D

 32 33  0  0  1  0  0  0  0  0999 V2000
    7.5646  -15.1209   15.8446 C   0  0  0  0  0  0  0  0  0  0  0  0
    6.7662  -13.6662   16.5741 S   0  0  0  0  0  0  0  0  0  0  0  0
    7.7728  -13.0152   17.9207 C   0  0  0  0  0  0  0  0  0  0  0  0
    7.8086  -14.0145   19.0684 C   0  0  0  0  0  0  0  0  0  0  0  0
    9.0511  -13.7316   19.8855 C   0  0  2  0  0  0  0  0  0  0  0  0
   10.1356  -13.3217   19.0437 N   0  0  0  0  0  0  0  0  0  0  0  0
    9.4165  -14.9306   20.7152 C   0  0  0  0  0  0  0  0  0  0  0  0
    8.5897  -15.3870   21.5405 O   0  0  0  0  0  0  0  0  0  0  0  0
   10.6565  -15.5707   20.6061 N   0  0  0  0  0  0  0  0  0  0  0  0
   11.1487  -16.5974   21.4322 C   0  0  1  0  0  0  0  0  0  0  0  0
   12.4379  -17.2505   21.0404 C   0  0  0  0  0  0  0  0  0  0  0  0
   12.7450  -18.3441   22.0651 C   0  0  0  0  0  0  0  0  0  0  0  0
   13.9914  -19.0466   21.6886 C   0  0  0  0  0  0  0  0  0  0  0  0
   14.9928  -18.3701   21.3305 O   0  0  0  0  0  0  0  0  0  0  0  0
   11.1491  -16.2659   22.8566 C   0  0  0  0  0  0  0  0  0  0  0  0
   11.9100  -15.3713   23.3494 O   0  0  0  0  0  0  0  0  0  0  0  0
   14.0389  -20.4268   21.7350 O   0  0  0  0  0  0  0  0  0  0  0  0
   10.2709  -16.9592   23.7407 N   0  0  0  0  0  0  0  0  0  0  0  0
    9.5537  -16.2321   24.7986 C   0  0  1  0  0  0  0  0  0  0  0  0
    8.2873  -15.6756   24.1899 C   0  0  0  0  0  0  0  0  0  0  0  0
    7.3633  -15.1316   25.1845 C   0  0  0  0  0  0  0  0  0  0  0  0
    6.2829  -15.8005   25.7095 C   0  0  0  0  0  0  0  0  0  0  0  0
    5.6756  -14.9976   26.5806 N   0  0  0  0  0  0  0  0  0  0  0  0
    6.3325  -13.8155   26.6402 C   0  0  0  0  0  0  0  0  0  0  0  0
    6.1202  -12.6608   27.3735 C   0  0  0  0  0  0  0  0  0  0  0  0
    6.9629  -11.5815   27.2383 C   0  0  0  0  0  0  0  0  0  0  0  0
    8.0201  -11.6606   26.3661 C   0  0  0  0  0  0  0  0  0  0  0  0
    8.2414  -12.7862   25.6399 C   0  0  0  0  0  0  0  0  0  0  0  0
    7.3998  -13.8730   25.7708 C   0  0  0  0  0  0  0  0  0  0  0  0
    9.3298  -17.1404   25.9099 C   0  0  0  0  0  0  0  0  0  0  0  0
    9.4759  -18.5039   25.7582 O   0  0  0  0  0  0  0  0  0  0  0  0
    8.9974  -16.7001   27.0354 O   0  0  0  0  0  0  0  0  0  0  0  0
  2  1  1  0
  3  2  1  0
  4  3  1  0
  5  4  1  0
  5  6  1  6
  7  9  1  0
  7  5  1  0
  8  7  2  0
 10  9  1  0
 10 11  1  6
 11 12  1  0
 12 13  1  0
 13 14  2  0
 13 17  1  0
 15 10  1  0
 16 15  2  0
 18 15  1  0
 19 30  1  0
 19 18  1  0
 19 20  1  6
 21 20  1  0
 21 29  1  0
 22 23  1  0
 22 21  2  0
 23 24  1  0
 24 29  2  0
 24 25  1  0
 25 26  2  0
 26 27  1  0
 28 27  2  0
 29 28  1  0
 30 31  1  0
 32 30  2  0
M  END
$$$$
