MEW.pdb
     RDKit          3D

 32 33  0  0  1  0  0  0  0  0999 V2000
    4.3765  -24.5606   24.8482 C   0  0  0  0  0  0  0  0  0  0  0  0
    5.1399  -23.2859   25.8867 S   0  0  0  0  0  0  0  0  0  0  0  0
    6.8420  -22.9984   25.3665 C   0  0  0  0  0  0  0  0  0  0  0  0
    6.8599  -22.1365   24.1118 C   0  0  0  0  0  0  0  0  0  0  0  0
    6.7880  -20.6887   24.5479 C   0  0  2  0  0  0  0  0  0  0  0  0
    5.4312  -20.2292   24.5779 N   0  0  0  0  0  0  0  0  0  0  0  0
    7.6438  -19.8307   23.6585 C   0  0  0  0  0  0  0  0  0  0  0  0
    8.8167  -20.1889   23.3961 O   0  0  0  0  0  0  0  0  0  0  0  0
    7.1834  -18.6321   23.1012 N   0  0  0  0  0  0  0  0  0  0  0  0
    7.9202  -17.7375   22.3041 C   0  0  1  0  0  0  0  0  0  0  0  0
    7.2887  -17.2490   21.0373 C   0  0  0  0  0  0  0  0  0  0  0  0
    6.8783  -18.4698   20.2117 C   0  0  0  0  0  0  0  0  0  0  0  0
    6.2950  -18.0304   18.9251 C   0  0  0  0  0  0  0  0  0  0  0  0
    5.1251  -18.3922   18.6264 O   0  0  0  0  0  0  0  0  0  0  0  0
    8.5118  -16.6264   23.0486 C   0  0  0  0  0  0  0  0  0  0  0  0
    8.1454  -15.4185   22.8787 O   0  0  0  0  0  0  0  0  0  0  0  0
    7.0375  -17.2338   18.0745 O   0  0  0  0  0  0  0  0  0  0  0  0
    9.5373  -16.8868   24.0048 N   0  0  0  0  0  0  0  0  0  0  0  0
   10.1695  -15.7800   24.7379 C   0  0  1  0  0  0  0  0  0  0  0  0
    9.5587  -15.7420   26.1197 C   0  0  0  0  0  0  0  0  0  0  0  0
    8.2156  -15.1631   26.1378 C   0  0  0  0  0  0  0  0  0  0  0  0
    7.0463  -15.8738   26.0036 C   0  0  0  0  0  0  0  0  0  0  0  0
    6.0271  -15.0200   26.0682 N   0  0  0  0  0  0  0  0  0  0  0  0
    6.4998  -13.7636   26.2419 C   0  0  0  0  0  0  0  0  0  0  0  0
    5.8740  -12.5355   26.3697 C   0  0  0  0  0  0  0  0  0  0  0  0
    6.6135  -11.3880   26.5419 C   0  0  0  0  0  0  0  0  0  0  0  0
    7.9831  -11.4726   26.5860 C   0  0  0  0  0  0  0  0  0  0  0  0
    8.6115  -12.6697   26.4622 C   0  0  0  0  0  0  0  0  0  0  0  0
    7.8755  -13.8251   26.2892 C   0  0  0  0  0  0  0  0  0  0  0  0
   11.6076  -15.9851   24.7290 C   0  0  0  0  0  0  0  0  0  0  0  0
   12.1602  -17.1461   24.2289 O   0  0  0  0  0  0  0  0  0  0  0  0
   12.3792  -15.1055   25.1785 O   0  0  0  0  0  0  0  0  0  0  0  0
  2  1  1  0
  3  2  1  0
  4  3  1  0
  5  4  1  0
  5  6  1  6
  7  9  1  0
  7  5  1  0
  8  7  2  0
 10  9  1  0
 10 11  1  6
 11 12  1  0
 12 13  1  0
 13 14  2  0
 13 17  1  0
 15 10  1  0
 16 15  2  0
 18 15  1  0
 19 30  1  0
 19 18  1  0
 19 20  1  1
 21 20  1  0
 21 29  1  0
 22 23  1  0
 22 21  2  0
 23 24  1  0
 24 29  2  0
 24 25  1  0
 25 26  2  0
 26 27  1  0
 28 27  2  0
 29 28  1  0
 30 31  1  0
 32 30  2  0
M  END
$$$$
