MEW.pdb
     RDKit          3D

 32 33  0  0  1  0  0  0  0  0999 V2000
    8.3589  -11.7271   20.0867 C   0  0  0  0  0  0  0  0  0  0  0  0
    6.7942  -12.6164   19.8698 S   0  0  0  0  0  0  0  0  0  0  0  0
    7.0943  -14.3926   19.7972 C   0  0  0  0  0  0  0  0  0  0  0  0
    7.8977  -14.8306   21.0137 C   0  0  0  0  0  0  0  0  0  0  0  0
    8.2443  -16.2931   20.8331 C   0  0  2  0  0  0  0  0  0  0  0  0
    7.0593  -17.0919   20.7312 N   0  0  0  0  0  0  0  0  0  0  0  0
    9.1343  -16.7621   21.9500 C   0  0  0  0  0  0  0  0  0  0  0  0
    8.6317  -17.3552   22.9341 O   0  0  0  0  0  0  0  0  0  0  0  0
   10.5200  -16.5643   21.9406 N   0  0  0  0  0  0  0  0  0  0  0  0
   11.4168  -16.8446   22.9874 C   0  0  1  0  0  0  0  0  0  0  0  0
   12.8708  -16.5756   22.7514 C   0  0  0  0  0  0  0  0  0  0  0  0
   13.6536  -17.1245   23.9456 C   0  0  0  0  0  0  0  0  0  0  0  0
   15.1000  -16.8841   23.7487 C   0  0  0  0  0  0  0  0  0  0  0  0
   15.7456  -17.6328   22.9667 O   0  0  0  0  0  0  0  0  0  0  0  0
   10.9979  -16.3187   24.2862 C   0  0  0  0  0  0  0  0  0  0  0  0
   11.0530  -15.0785   24.5708 O   0  0  0  0  0  0  0  0  0  0  0  0
   15.7185  -15.8476   24.4214 O   0  0  0  0  0  0  0  0  0  0  0  0
   10.5061  -17.2130   25.2822 N   0  0  0  0  0  0  0  0  0  0  0  0
   10.0881  -16.7049   26.5973 C   0  0  1  0  0  0  0  0  0  0  0  0
    8.6412  -17.0932   26.7961 C   0  0  0  0  0  0  0  0  0  0  0  0
    7.7034  -16.1012   26.2711 C   0  0  0  0  0  0  0  0  0  0  0  0
    6.5033  -16.3902   25.6656 C   0  0  0  0  0  0  0  0  0  0  0  0
    5.9226  -15.2440   25.3177 N   0  0  0  0  0  0  0  0  0  0  0  0
    6.7139  -14.2075   25.6808 C   0  0  0  0  0  0  0  0  0  0  0  0
    6.5792  -12.8357   25.5543 C   0  0  0  0  0  0  0  0  0  0  0  0
    7.5582  -11.9903   26.0237 C   0  0  0  0  0  0  0  0  0  0  0  0
    8.6742  -12.5221   26.6209 C   0  0  0  0  0  0  0  0  0  0  0  0
    8.8208  -13.8654   26.7524 C   0  0  0  0  0  0  0  0  0  0  0  0
    7.8422  -14.7193   26.2836 C   0  0  0  0  0  0  0  0  0  0  0  0
   10.9902  -17.2376   27.6035 C   0  0  0  0  0  0  0  0  0  0  0  0
   11.5726  -18.4795   27.4549 O   0  0  0  0  0  0  0  0  0  0  0  0
   11.2588  -16.5749   28.6330 O   0  0  0  0  0  0  0  0  0  0  0  0
  2  1  1  0
  3  2  1  0
  4  3  1  0
  5  4  1  0
  5  6  1  1
  7  9  1  0
  7  5  1  0
  8  7  2  0
 10  9  1  0
 10 11  1  6
 11 12  1  0
 12 13  1  0
 13 14  2  0
 13 17  1  0
 15 10  1  0
 16 15  2  0
 18 15  1  0
 19 30  1  0
 19 18  1  0
 19 20  1  1
 21 20  1  0
 21 29  1  0
 22 23  1  0
 22 21  2  0
 23 24  1  0
 24 29  2  0
 24 25  1  0
 25 26  2  0
 26 27  1  0
 28 27  2  0
 29 28  1  0
 30 31  1  0
 32 30  2  0
M  END
$$$$
