MEW.pdb
     RDKit          3D

 32 33  0  0  1  0  0  0  0  0999 V2000
    6.3629  -11.8740   18.8845 C   0  0  0  0  0  0  0  0  0  0  0  0
    6.8213  -13.5155   18.2670 S   0  0  0  0  0  0  0  0  0  0  0  0
    8.4438  -13.9852   18.8972 C   0  0  0  0  0  0  0  0  0  0  0  0
    8.5138  -13.7172   20.3940 C   0  0  0  0  0  0  0  0  0  0  0  0
    9.8717  -14.1770   20.8801 C   0  0  2  0  0  0  0  0  0  0  0  0
   10.6871  -14.6133   19.7858 N   0  0  0  0  0  0  0  0  0  0  0  0
    9.7193  -15.2514   21.9203 C   0  0  0  0  0  0  0  0  0  0  0  0
    8.7750  -15.1865   22.7430 O   0  0  0  0  0  0  0  0  0  0  0  0
   10.5971  -16.3378   22.0131 N   0  0  0  0  0  0  0  0  0  0  0  0
   10.5732  -17.3582   22.9810 C   0  0  1  0  0  0  0  0  0  0  0  0
   11.4466  -18.5535   22.7564 C   0  0  0  0  0  0  0  0  0  0  0  0
   10.9427  -19.6837   23.6558 C   0  0  0  0  0  0  0  0  0  0  0  0
   11.8001  -20.8774   23.4870 C   0  0  0  0  0  0  0  0  0  0  0  0
   11.5414  -21.9175   24.1504 O   0  0  0  0  0  0  0  0  0  0  0  0
   10.6997  -16.8765   24.3560 C   0  0  0  0  0  0  0  0  0  0  0  0
   11.6195  -16.0725   24.7162 O   0  0  0  0  0  0  0  0  0  0  0  0
   12.8661  -20.8347   22.6089 O   0  0  0  0  0  0  0  0  0  0  0  0
    9.7669  -17.3121   25.3429 N   0  0  0  0  0  0  0  0  0  0  0  0
    9.8402  -16.7926   26.7166 C   0  0  1  0  0  0  0  0  0  0  0  0
    8.4234  -16.6084   27.2095 C   0  0  0  0  0  0  0  0  0  0  0  0
    7.6649  -15.6346   26.4249 C   0  0  0  0  0  0  0  0  0  0  0  0
    6.6973  -15.9464   25.4992 C   0  0  0  0  0  0  0  0  0  0  0  0
    6.2266  -14.8117   24.9864 N   0  0  0  0  0  0  0  0  0  0  0  0
    6.8629  -13.7605   25.5542 C   0  0  0  0  0  0  0  0  0  0  0  0
    6.7511  -12.3917   25.3809 C   0  0  0  0  0  0  0  0  0  0  0  0
    7.5388  -11.5279   26.1068 C   0  0  0  0  0  0  0  0  0  0  0  0
    8.4401  -12.0382   27.0079 C   0  0  0  0  0  0  0  0  0  0  0  0
    8.5615  -13.3782   27.1892 C   0  0  0  0  0  0  0  0  0  0  0  0
    7.7742  -14.2505   26.4641 C   0  0  0  0  0  0  0  0  0  0  0  0
   10.6322  -17.7127   27.5142 C   0  0  0  0  0  0  0  0  0  0  0  0
   11.0196  -17.3927   28.7992 O   0  0  0  0  0  0  0  0  0  0  0  0
   10.9812  -18.8224   27.0475 O   0  0  0  0  0  0  0  0  0  0  0  0
  2  1  1  0
  3  2  1  0
  4  3  1  0
  5  4  1  0
  5  6  1  6
  7  9  1  0
  7  5  1  0
  8  7  2  0
 10  9  1  0
 10 11  1  6
 11 12  1  0
 12 13  1  0
 13 14  2  0
 13 17  1  0
 15 10  1  0
 16 15  2  0
 18 15  1  0
 19 30  1  0
 19 18  1  0
 19 20  1  1
 21 20  1  0
 21 29  1  0
 22 23  1  0
 22 21  2  0
 23 24  1  0
 24 29  2  0
 24 25  1  0
 25 26  2  0
 26 27  1  0
 28 27  2  0
 29 28  1  0
 30 31  1  0
 32 30  2  0
M  END
$$$$
