MEW.pdb
     RDKit          3D

 32 33  0  0  1  0  0  0  0  0999 V2000
    9.1668  -11.8493   19.6789 C   0  0  0  0  0  0  0  0  0  0  0  0
    7.3896  -12.1925   19.5811 S   0  0  0  0  0  0  0  0  0  0  0  0
    7.0959  -13.9701   19.6472 C   0  0  0  0  0  0  0  0  0  0  0  0
    7.7139  -14.5489   20.9122 C   0  0  0  0  0  0  0  0  0  0  0  0
    7.5296  -16.0508   20.8679 C   0  0  2  0  0  0  0  0  0  0  0  0
    6.1396  -16.3955   20.8261 N   0  0  0  0  0  0  0  0  0  0  0  0
    8.2263  -16.6984   22.0319 C   0  0  0  0  0  0  0  0  0  0  0  0
    7.5487  -17.1420   22.9895 O   0  0  0  0  0  0  0  0  0  0  0  0
    9.6183  -16.8311   22.0957 N   0  0  0  0  0  0  0  0  0  0  0  0
   10.3604  -17.4180   23.1366 C   0  0  1  0  0  0  0  0  0  0  0  0
   11.7197  -17.9535   22.8084 C   0  0  0  0  0  0  0  0  0  0  0  0
   12.4553  -16.9004   21.9776 C   0  0  0  0  0  0  0  0  0  0  0  0
   13.6883  -17.4855   21.4066 C   0  0  0  0  0  0  0  0  0  0  0  0
   14.4501  -16.7571   20.7153 O   0  0  0  0  0  0  0  0  0  0  0  0
   10.4011  -16.6198   24.3613 C   0  0  0  0  0  0  0  0  0  0  0  0
   10.8400  -15.4244   24.3831 O   0  0  0  0  0  0  0  0  0  0  0  0
   13.9850  -18.8150   21.6385 O   0  0  0  0  0  0  0  0  0  0  0  0
    9.9353  -17.1844   25.5852 N   0  0  0  0  0  0  0  0  0  0  0  0
   10.1343  -16.4725   26.8563 C   0  0  1  0  0  0  0  0  0  0  0  0
    8.7811  -16.3285   27.5138 C   0  0  0  0  0  0  0  0  0  0  0  0
    7.8084  -15.6262   26.6773 C   0  0  0  0  0  0  0  0  0  0  0  0
    6.8104  -16.2292   25.9487 C   0  0  0  0  0  0  0  0  0  0  0  0
    6.1240  -15.2818   25.3138 N   0  0  0  0  0  0  0  0  0  0  0  0
    6.6481  -14.0690   25.6085 C   0  0  0  0  0  0  0  0  0  0  0  0
    6.3134  -12.7834   25.2197 C   0  0  0  0  0  0  0  0  0  0  0  0
    7.0307  -11.7038   25.6817 C   0  0  0  0  0  0  0  0  0  0  0  0
    8.0855  -11.9143   26.5349 C   0  0  0  0  0  0  0  0  0  0  0  0
    8.4260  -13.1693   26.9252 C   0  0  0  0  0  0  0  0  0  0  0  0
    7.7104  -14.2570   26.4655 C   0  0  0  0  0  0  0  0  0  0  0  0
   11.1046  -17.2085   27.6481 C   0  0  0  0  0  0  0  0  0  0  0  0
   11.4751  -18.4936   27.3096 O   0  0  0  0  0  0  0  0  0  0  0  0
   11.6275  -16.6867   28.6608 O   0  0  0  0  0  0  0  0  0  0  0  0
  2  1  1  0
  3  2  1  0
  4  3  1  0
  5  4  1  0
  5  6  1  1
  7  9  1  0
  7  5  1  0
  8  7  2  0
 10  9  1  0
 10 11  1  6
 11 12  1  0
 12 13  1  0
 13 14  2  0
 13 17  1  0
 15 10  1  0
 16 15  2  0
 18 15  1  0
 19 30  1  0
 19 18  1  0
 19 20  1  1
 21 20  1  0
 21 29  1  0
 22 23  1  0
 22 21  2  0
 23 24  1  0
 24 29  2  0
 24 25  1  0
 25 26  2  0
 26 27  1  0
 28 27  2  0
 29 28  1  0
 30 31  1  0
 32 30  2  0
M  END
$$$$
