MEW.pdb
     RDKit          3D

 32 33  0  0  1  0  0  0  0  0999 V2000
    7.0729  -11.8449   20.5861 C   0  0  0  0  0  0  0  0  0  0  0  0
    7.6795  -13.0782   19.4041 S   0  0  0  0  0  0  0  0  0  0  0  0
    6.6387  -14.5494   19.4526 C   0  0  0  0  0  0  0  0  0  0  0  0
    7.0277  -15.4181   20.6406 C   0  0  0  0  0  0  0  0  0  0  0  0
    8.5224  -15.2833   20.8386 C   0  0  2  0  0  0  0  0  0  0  0  0
    9.2355  -15.7342   19.6805 N   0  0  0  0  0  0  0  0  0  0  0  0
    8.9550  -16.0181   22.0765 C   0  0  0  0  0  0  0  0  0  0  0  0
    8.3143  -15.8635   23.1434 O   0  0  0  0  0  0  0  0  0  0  0  0
   10.0574  -16.8807   22.0920 N   0  0  0  0  0  0  0  0  0  0  0  0
   10.4968  -17.6645   23.1742 C   0  0  1  0  0  0  0  0  0  0  0  0
   11.7163  -18.5099   22.9736 C   0  0  0  0  0  0  0  0  0  0  0  0
   11.7079  -19.6122   24.0343 C   0  0  0  0  0  0  0  0  0  0  0  0
   12.8969  -20.4765   23.8669 C   0  0  0  0  0  0  0  0  0  0  0  0
   13.1078  -21.0203   22.7496 O   0  0  0  0  0  0  0  0  0  0  0  0
   10.5737  -16.9387   24.4416 C   0  0  0  0  0  0  0  0  0  0  0  0
   11.2772  -15.8866   24.5845 O   0  0  0  0  0  0  0  0  0  0  0  0
   13.7542  -20.6735   24.9326 O   0  0  0  0  0  0  0  0  0  0  0  0
    9.8398  -17.4117   25.5691 N   0  0  0  0  0  0  0  0  0  0  0  0
    9.9893  -16.7623   26.8799 C   0  0  1  0  0  0  0  0  0  0  0  0
    8.6046  -16.5773   27.4564 C   0  0  0  0  0  0  0  0  0  0  0  0
    7.7902  -15.6267   26.6999 C   0  0  0  0  0  0  0  0  0  0  0  0
    6.7740  -15.9663   25.8384 C   0  0  0  0  0  0  0  0  0  0  0  0
    6.2609  -14.8466   25.3332 N   0  0  0  0  0  0  0  0  0  0  0  0
    6.9170  -13.7781   25.8433 C   0  0  0  0  0  0  0  0  0  0  0  0
    6.7793  -12.4142   25.6516 C   0  0  0  0  0  0  0  0  0  0  0  0
    7.5979  -11.5285   26.3140 C   0  0  0  0  0  0  0  0  0  0  0  0
    8.5562  -12.0119   27.1701 C   0  0  0  0  0  0  0  0  0  0  0  0
    8.7035  -13.3468   27.3685 C   0  0  0  0  0  0  0  0  0  0  0  0
    7.8854  -14.2411   26.7071 C   0  0  0  0  0  0  0  0  0  0  0  0
   10.8702  -17.5771   27.6986 C   0  0  0  0  0  0  0  0  0  0  0  0
   11.4178  -18.7464   27.2126 O   0  0  0  0  0  0  0  0  0  0  0  0
   11.1516  -17.2313   28.8700 O   0  0  0  0  0  0  0  0  0  0  0  0
  2  1  1  0
  3  2  1  0
  4  3  1  0
  5  4  1  0
  5  6  1  6
  7  9  1  0
  7  5  1  0
  8  7  2  0
 10  9  1  0
 10 11  1  6
 11 12  1  0
 12 13  1  0
 13 14  2  0
 13 17  1  0
 15 10  1  0
 16 15  2  0
 18 15  1  0
 19 30  1  0
 19 18  1  0
 19 20  1  1
 21 20  1  0
 21 29  1  0
 22 23  1  0
 22 21  2  0
 23 24  1  0
 24 29  2  0
 24 25  1  0
 25 26  2  0
 26 27  1  0
 28 27  2  0
 29 28  1  0
 30 31  1  0
 32 30  2  0
M  END
$$$$
