MEW.pdb
     RDKit          3D

 32 33  0  0  1  0  0  0  0  0999 V2000
    9.1869  -12.2180   18.5475 C   0  0  0  0  0  0  0  0  0  0  0  0
    7.5113  -12.8543   18.8187 S   0  0  0  0  0  0  0  0  0  0  0  0
    7.5223  -14.6571   18.8080 C   0  0  0  0  0  0  0  0  0  0  0  0
    8.6837  -15.1614   17.9631 C   0  0  0  0  0  0  0  0  0  0  0  0
    8.6341  -16.6743   17.9702 C   0  0  2  0  0  0  0  0  0  0  0  0
    7.3921  -17.1489   17.4365 N   0  0  0  0  0  0  0  0  0  0  0  0
    8.8779  -17.1998   19.3573 C   0  0  0  0  0  0  0  0  0  0  0  0
    7.9663  -17.1271   20.2155 O   0  0  0  0  0  0  0  0  0  0  0  0
   10.0950  -17.7758   19.7398 N   0  0  0  0  0  0  0  0  0  0  0  0
   10.5663  -17.9516   21.0534 C   0  0  1  0  0  0  0  0  0  0  0  0
   11.9549  -18.4830   21.2312 C   0  0  0  0  0  0  0  0  0  0  0  0
   11.9222  -19.5289   22.3471 C   0  0  0  0  0  0  0  0  0  0  0  0
   13.2670  -20.1216   22.5168 C   0  0  0  0  0  0  0  0  0  0  0  0
   13.5368  -21.2072   21.9360 O   0  0  0  0  0  0  0  0  0  0  0  0
   10.3375  -16.8007   21.9263 C   0  0  0  0  0  0  0  0  0  0  0  0
   10.7165  -15.6243   21.6188 O   0  0  0  0  0  0  0  0  0  0  0  0
   14.2026  -19.4794   23.3052 O   0  0  0  0  0  0  0  0  0  0  0  0
    9.6661  -16.9839   23.1710 N   0  0  0  0  0  0  0  0  0  0  0  0
    9.5863  -15.8829   24.1425 C   0  0  1  0  0  0  0  0  0  0  0  0
    8.2913  -16.0421   24.9051 C   0  0  0  0  0  0  0  0  0  0  0  0
    8.0355  -14.9445   25.8373 C   0  0  0  0  0  0  0  0  0  0  0  0
    6.9507  -14.1013   25.7875 C   0  0  0  0  0  0  0  0  0  0  0  0
    7.0509  -13.2298   26.7887 N   0  0  0  0  0  0  0  0  0  0  0  0
    8.1774  -13.4810   27.4960 C   0  0  0  0  0  0  0  0  0  0  0  0
    8.7379  -12.8815   28.6106 C   0  0  0  0  0  0  0  0  0  0  0  0
    9.9190  -13.3510   29.1380 C   0  0  0  0  0  0  0  0  0  0  0  0
   10.5387  -14.4236   28.5461 C   0  0  0  0  0  0  0  0  0  0  0  0
   10.0014  -15.0222   27.4524 C   0  0  0  0  0  0  0  0  0  0  0  0
    8.8165  -14.5562   26.9182 C   0  0  0  0  0  0  0  0  0  0  0  0
   10.7754  -15.9186   24.9760 C   0  0  0  0  0  0  0  0  0  0  0  0
   11.2931  -17.1138   25.4308 O   0  0  0  0  0  0  0  0  0  0  0  0
   11.3580  -14.8572   25.3003 O   0  0  0  0  0  0  0  0  0  0  0  0
  2  1  1  0
  3  2  1  0
  4  3  1  0
  5  4  1  0
  5  6  1  1
  7  9  1  0
  7  5  1  0
  8  7  2  0
 10  9  1  0
 10 11  1  6
 11 12  1  0
 12 13  1  0
 13 14  2  0
 13 17  1  0
 15 10  1  0
 16 15  2  0
 18 15  1  0
 19 30  1  0
 19 18  1  0
 19 20  1  1
 21 20  1  0
 21 29  1  0
 22 23  1  0
 22 21  2  0
 23 24  1  0
 24 29  2  0
 24 25  1  0
 25 26  2  0
 26 27  1  0
 28 27  2  0
 29 28  1  0
 30 31  1  0
 32 30  2  0
M  END
$$$$
