MEW.pdb
     RDKit          3D

 32 33  0  0  1  0  0  0  0  0999 V2000
    8.0717  -12.0191   20.8766 C   0  0  0  0  0  0  0  0  0  0  0  0
    6.6110  -13.0326   20.5226 S   0  0  0  0  0  0  0  0  0  0  0  0
    7.1115  -14.6954   20.0381 C   0  0  0  0  0  0  0  0  0  0  0  0
    8.0042  -15.2997   21.1129 C   0  0  0  0  0  0  0  0  0  0  0  0
    8.5183  -16.6247   20.5916 C   0  0  2  0  0  0  0  0  0  0  0  0
    7.4432  -17.4338   20.0994 N   0  0  0  0  0  0  0  0  0  0  0  0
    9.3049  -17.3367   21.6564 C   0  0  0  0  0  0  0  0  0  0  0  0
    9.4440  -18.5816   21.5947 O   0  0  0  0  0  0  0  0  0  0  0  0
    9.8986  -16.6624   22.7299 N   0  0  0  0  0  0  0  0  0  0  0  0
   11.1284  -16.9699   23.3396 C   0  0  1  0  0  0  0  0  0  0  0  0
   12.3324  -17.0943   22.4581 C   0  0  0  0  0  0  0  0  0  0  0  0
   12.6055  -15.7247   21.8337 C   0  0  0  0  0  0  0  0  0  0  0  0
   13.7661  -15.8136   20.9207 C   0  0  0  0  0  0  0  0  0  0  0  0
   14.1795  -16.9491   20.5625 O   0  0  0  0  0  0  0  0  0  0  0  0
   11.4302  -16.1532   24.5146 C   0  0  0  0  0  0  0  0  0  0  0  0
   12.6183  -15.9809   24.9399 O   0  0  0  0  0  0  0  0  0  0  0  0
   14.3765  -14.6562   20.4763 O   0  0  0  0  0  0  0  0  0  0  0  0
   10.3672  -15.5181   25.2220 N   0  0  0  0  0  0  0  0  0  0  0  0
   10.0977  -15.8623   26.6260 C   0  0  1  0  0  0  0  0  0  0  0  0
    8.7689  -16.5810   26.6712 C   0  0  0  0  0  0  0  0  0  0  0  0
    7.6417  -15.7272   26.2978 C   0  0  0  0  0  0  0  0  0  0  0  0
    6.4603  -16.1709   25.7522 C   0  0  0  0  0  0  0  0  0  0  0  0
    5.6731  -15.1178   25.5438 N   0  0  0  0  0  0  0  0  0  0  0  0
    6.3104  -13.9913   25.9401 C   0  0  0  0  0  0  0  0  0  0  0  0
    5.9426  -12.6568   25.9410 C   0  0  0  0  0  0  0  0  0  0  0  0
    6.8044  -11.6939   26.4139 C   0  0  0  0  0  0  0  0  0  0  0  0
    8.0371  -12.0704   26.8866 C   0  0  0  0  0  0  0  0  0  0  0  0
    8.4124  -13.3751   26.8922 C   0  0  0  0  0  0  0  0  0  0  0  0
    7.5525  -14.3464   26.4192 C   0  0  0  0  0  0  0  0  0  0  0  0
   11.2137  -16.6439   27.1299 C   0  0  0  0  0  0  0  0  0  0  0  0
   12.1137  -17.2398   26.2707 O   0  0  0  0  0  0  0  0  0  0  0  0
   11.3816  -16.7929   28.3631 O   0  0  0  0  0  0  0  0  0  0  0  0
  2  1  1  0
  3  2  1  0
  4  3  1  0
  5  4  1  0
  5  6  1  1
  7  9  1  0
  7  5  1  0
  8  7  2  0
 10  9  1  0
 10 11  1  6
 11 12  1  0
 12 13  1  0
 13 14  2  0
 13 17  1  0
 15 10  1  0
 16 15  2  0
 18 15  1  0
 19 30  1  0
 19 18  1  0
 19 20  1  6
 21 20  1  0
 21 29  1  0
 22 23  1  0
 22 21  2  0
 23 24  1  0
 24 29  2  0
 24 25  1  0
 25 26  2  0
 26 27  1  0
 28 27  2  0
 29 28  1  0
 30 31  1  0
 32 30  2  0
M  END
$$$$
