MEW.pdb
     RDKit          3D

 32 33  0  0  1  0  0  0  0  0999 V2000
    7.9853  -11.3330   21.9152 C   0  0  0  0  0  0  0  0  0  0  0  0
    8.1647  -12.5584   20.5914 S   0  0  0  0  0  0  0  0  0  0  0  0
    7.4860  -14.1438   21.1166 C   0  0  0  0  0  0  0  0  0  0  0  0
    7.7576  -15.1993   20.0539 C   0  0  0  0  0  0  0  0  0  0  0  0
    7.2416  -16.5225   20.5780 C   0  0  2  0  0  0  0  0  0  0  0  0
    5.8554  -16.4295   20.9282 N   0  0  0  0  0  0  0  0  0  0  0  0
    8.0762  -16.9874   21.7384 C   0  0  0  0  0  0  0  0  0  0  0  0
    7.5203  -17.2693   22.8267 O   0  0  0  0  0  0  0  0  0  0  0  0
    9.4671  -17.1224   21.6577 N   0  0  0  0  0  0  0  0  0  0  0  0
   10.3282  -17.5787   22.6721 C   0  0  1  0  0  0  0  0  0  0  0  0
   11.7413  -17.9002   22.2955 C   0  0  0  0  0  0  0  0  0  0  0  0
   11.7787  -18.1786   20.7917 C   0  0  0  0  0  0  0  0  0  0  0  0
   13.1527  -18.5469   20.3852 C   0  0  0  0  0  0  0  0  0  0  0  0
   13.3198  -19.5092   19.5885 O   0  0  0  0  0  0  0  0  0  0  0  0
   10.2888  -16.7733   23.8922 C   0  0  0  0  0  0  0  0  0  0  0  0
   10.6862  -15.5637   23.9253 O   0  0  0  0  0  0  0  0  0  0  0  0
   14.2269  -17.8338   20.8823 O   0  0  0  0  0  0  0  0  0  0  0  0
    9.7894  -17.3472   25.0985 N   0  0  0  0  0  0  0  0  0  0  0  0
    9.9861  -16.6630   26.3851 C   0  0  1  0  0  0  0  0  0  0  0  0
    8.6298  -16.5194   27.0360 C   0  0  0  0  0  0  0  0  0  0  0  0
    7.7299  -15.6335   26.2980 C   0  0  0  0  0  0  0  0  0  0  0  0
    6.6514  -16.0453   25.5513 C   0  0  0  0  0  0  0  0  0  0  0  0
    6.0694  -14.9692   25.0266 N   0  0  0  0  0  0  0  0  0  0  0  0
    6.7410  -13.8587   25.4115 C   0  0  0  0  0  0  0  0  0  0  0  0
    6.5539  -12.5122   25.1507 C   0  0  0  0  0  0  0  0  0  0  0  0
    7.4050  -11.5716   25.6839 C   0  0  0  0  0  0  0  0  0  0  0  0
    8.4454  -11.9824   26.4799 C   0  0  0  0  0  0  0  0  0  0  0  0
    8.6419  -13.2994   26.7449 C   0  0  0  0  0  0  0  0  0  0  0  0
    7.7916  -14.2485   26.2132 C   0  0  0  0  0  0  0  0  0  0  0  0
   10.9439  -17.4239   27.1685 C   0  0  0  0  0  0  0  0  0  0  0  0
   11.4022  -16.9589   28.3839 O   0  0  0  0  0  0  0  0  0  0  0  0
   11.3753  -18.5249   26.7527 O   0  0  0  0  0  0  0  0  0  0  0  0
  2  1  1  0
  3  2  1  0
  4  3  1  0
  5  4  1  0
  5  6  1  1
  7  9  1  0
  7  5  1  0
  8  7  2  0
 10  9  1  0
 10 11  1  6
 11 12  1  0
 12 13  1  0
 13 14  2  0
 13 17  1  0
 15 10  1  0
 16 15  2  0
 18 15  1  0
 19 30  1  0
 19 18  1  0
 19 20  1  1
 21 20  1  0
 21 29  1  0
 22 23  1  0
 22 21  2  0
 23 24  1  0
 24 29  2  0
 24 25  1  0
 25 26  2  0
 26 27  1  0
 28 27  2  0
 29 28  1  0
 30 31  1  0
 32 30  2  0
M  END
$$$$
