MEW.pdb
     RDKit          3D

 32 33  0  0  1  0  0  0  0  0999 V2000
    7.6291  -12.0246   20.8267 C   0  0  0  0  0  0  0  0  0  0  0  0
    6.9845  -12.8898   19.3700 S   0  0  0  0  0  0  0  0  0  0  0  0
    6.8635  -14.6579   19.7010 C   0  0  0  0  0  0  0  0  0  0  0  0
    7.8438  -15.0460   20.7991 C   0  0  0  0  0  0  0  0  0  0  0  0
    7.7495  -16.5446   20.9906 C   0  0  2  0  0  0  0  0  0  0  0  0
    6.3878  -16.9543   21.1660 N   0  0  0  0  0  0  0  0  0  0  0  0
    8.6120  -16.9808   22.1419 C   0  0  0  0  0  0  0  0  0  0  0  0
    8.2395  -17.9331   22.8679 O   0  0  0  0  0  0  0  0  0  0  0  0
    9.8310  -16.3627   22.4443 N   0  0  0  0  0  0  0  0  0  0  0  0
   10.9954  -16.9892   22.9242 C   0  0  1  0  0  0  0  0  0  0  0  0
   12.2781  -16.7289   22.1968 C   0  0  0  0  0  0  0  0  0  0  0  0
   13.3911  -17.4993   22.9095 C   0  0  0  0  0  0  0  0  0  0  0  0
   14.6722  -17.3012   22.1966 C   0  0  0  0  0  0  0  0  0  0  0  0
   14.7423  -17.5848   20.9704 O   0  0  0  0  0  0  0  0  0  0  0  0
   11.1857  -16.8640   24.3688 C   0  0  0  0  0  0  0  0  0  0  0  0
   12.1846  -17.3735   24.9728 O   0  0  0  0  0  0  0  0  0  0  0  0
   15.7672  -16.8106   22.8819 O   0  0  0  0  0  0  0  0  0  0  0  0
   10.2277  -16.1477   25.1453 N   0  0  0  0  0  0  0  0  0  0  0  0
   10.2115  -16.2761   26.6101 C   0  0  1  0  0  0  0  0  0  0  0  0
    8.8087  -16.6642   27.0172 C   0  0  0  0  0  0  0  0  0  0  0  0
    7.7804  -15.8206   26.4088 C   0  0  0  0  0  0  0  0  0  0  0  0
    6.6868  -16.2827   25.7154 C   0  0  0  0  0  0  0  0  0  0  0  0
    5.9742  -15.2342   25.3093 N   0  0  0  0  0  0  0  0  0  0  0  0
    6.5747  -14.0927   25.7202 C   0  0  0  0  0  0  0  0  0  0  0  0
    6.2515  -12.7556   25.5667 C   0  0  0  0  0  0  0  0  0  0  0  0
    7.0566  -11.7755   26.1004 C   0  0  0  0  0  0  0  0  0  0  0  0
    8.1878  -12.1376   26.7891 C   0  0  0  0  0  0  0  0  0  0  0  0
    8.5181  -13.4448   26.9480 C   0  0  0  0  0  0  0  0  0  0  0  0
    7.7146  -14.4333   26.4151 C   0  0  0  0  0  0  0  0  0  0  0  0
   11.2303  -17.2359   26.9986 C   0  0  0  0  0  0  0  0  0  0  0  0
   11.2847  -18.4903   26.4267 O   0  0  0  0  0  0  0  0  0  0  0  0
   12.0852  -16.9410   27.8665 O   0  0  0  0  0  0  0  0  0  0  0  0
  2  1  1  0
  3  2  1  0
  4  3  1  0
  5  4  1  0
  5  6  1  1
  7  9  1  0
  7  5  1  0
  8  7  2  0
 10  9  1  0
 10 11  1  6
 11 12  1  0
 12 13  1  0
 13 14  2  0
 13 17  1  0
 15 10  1  0
 16 15  2  0
 18 15  1  0
 19 30  1  0
 19 18  1  0
 19 20  1  6
 21 20  1  0
 21 29  1  0
 22 23  1  0
 22 21  2  0
 23 24  1  0
 24 29  2  0
 24 25  1  0
 25 26  2  0
 26 27  1  0
 28 27  2  0
 29 28  1  0
 30 31  1  0
 32 30  2  0
M  END
$$$$
