MEW.pdb
     RDKit          3D

 32 33  0  0  1  0  0  0  0  0999 V2000
    7.2849  -11.8837   22.4242 C   0  0  0  0  0  0  0  0  0  0  0  0
    7.5817  -12.9804   21.0117 S   0  0  0  0  0  0  0  0  0  0  0  0
    7.3431  -14.6996   21.4995 C   0  0  0  0  0  0  0  0  0  0  0  0
    7.5213  -15.6085   20.2915 C   0  0  0  0  0  0  0  0  0  0  0  0
    7.4125  -17.0395   20.7732 C   0  0  2  0  0  0  0  0  0  0  0  0
    6.0670  -17.3510   21.1545 N   0  0  0  0  0  0  0  0  0  0  0  0
    8.3786  -17.2884   21.8975 C   0  0  0  0  0  0  0  0  0  0  0  0
    7.9534  -17.7264   22.9931 O   0  0  0  0  0  0  0  0  0  0  0  0
    9.7525  -17.0503   21.7746 N   0  0  0  0  0  0  0  0  0  0  0  0
   10.7431  -17.3260   22.7345 C   0  0  1  0  0  0  0  0  0  0  0  0
   12.1743  -17.1505   22.3304 C   0  0  0  0  0  0  0  0  0  0  0  0
   13.0452  -17.9144   23.3295 C   0  0  0  0  0  0  0  0  0  0  0  0
   14.1758  -18.5536   22.6211 C   0  0  0  0  0  0  0  0  0  0  0  0
   15.2757  -17.9429   22.5441 O   0  0  0  0  0  0  0  0  0  0  0  0
   10.4951  -16.7117   24.0383 C   0  0  0  0  0  0  0  0  0  0  0  0
   10.6429  -15.4636   24.2445 O   0  0  0  0  0  0  0  0  0  0  0  0
   14.0100  -19.8043   22.0576 O   0  0  0  0  0  0  0  0  0  0  0  0
   10.0706  -17.5250   25.1301 N   0  0  0  0  0  0  0  0  0  0  0  0
   10.1045  -17.0027   26.5043 C   0  0  1  0  0  0  0  0  0  0  0  0
    8.6824  -16.9735   27.0151 C   0  0  0  0  0  0  0  0  0  0  0  0
    7.8589  -15.9562   26.3623 C   0  0  0  0  0  0  0  0  0  0  0  0
    6.7709  -16.2134   25.5621 C   0  0  0  0  0  0  0  0  0  0  0  0
    6.2727  -15.0514   25.1457 N   0  0  0  0  0  0  0  0  0  0  0  0
    7.0086  -14.0355   25.6542 C   0  0  0  0  0  0  0  0  0  0  0  0
    6.9171  -12.6595   25.5339 C   0  0  0  0  0  0  0  0  0  0  0  0
    7.8178  -11.8398   26.1744 C   0  0  0  0  0  0  0  0  0  0  0  0
    8.8120  -12.4014   26.9367 C   0  0  0  0  0  0  0  0  0  0  0  0
    8.9149  -13.7491   27.0643 C   0  0  0  0  0  0  0  0  0  0  0  0
    8.0144  -14.5774   26.4244 C   0  0  0  0  0  0  0  0  0  0  0  0
   11.0013  -17.8330   27.2895 C   0  0  0  0  0  0  0  0  0  0  0  0
   11.2721  -17.5406   28.6103 O   0  0  0  0  0  0  0  0  0  0  0  0
   11.5499  -18.8377   26.7789 O   0  0  0  0  0  0  0  0  0  0  0  0
  2  1  1  0
  3  2  1  0
  4  3  1  0
  5  4  1  0
  5  6  1  1
  7  9  1  0
  7  5  1  0
  8  7  2  0
 10  9  1  0
 10 11  1  6
 11 12  1  0
 12 13  1  0
 13 14  2  0
 13 17  1  0
 15 10  1  0
 16 15  2  0
 18 15  1  0
 19 30  1  0
 19 18  1  0
 19 20  1  1
 21 20  1  0
 21 29  1  0
 22 23  1  0
 22 21  2  0
 23 24  1  0
 24 29  2  0
 24 25  1  0
 25 26  2  0
 26 27  1  0
 28 27  2  0
 29 28  1  0
 30 31  1  0
 32 30  2  0
M  END
$$$$
