CPP.pdb
     RDKit          3D

 21 22  0  0  1  0  0  0  0  0999 V2000
    7.8960  -14.0125   20.8066 N   0  0  0  0  0  0  0  0  0  0  0  0
    7.3437  -14.6265   22.0021 C   0  0  1  0  0  0  0  0  0  0  0  0
    7.4711  -16.1273   21.8158 C   0  0  0  0  0  0  0  0  0  0  0  0
    6.9810  -16.8781   23.4119 S   0  0  0  0  0  0  0  0  0  0  0  0
    8.0649  -14.1658   23.2189 C   0  0  0  0  0  0  0  0  0  0  0  0
    9.3107  -13.9431   23.1238 O   0  0  0  0  0  0  0  0  0  0  0  0
    7.4216  -13.9700   24.4572 N   0  0  0  0  0  0  0  0  0  0  0  0
    5.9836  -14.0325   24.7316 C   0  0  0  0  0  0  0  0  0  0  0  0
    5.7904  -13.0397   25.8552 C   0  0  0  0  0  0  0  0  0  0  0  0
    7.0495  -13.1403   26.6409 C   0  0  0  0  0  0  0  0  0  0  0  0
    8.0908  -13.6630   25.7045 C   0  0  1  0  0  0  0  0  0  0  0  0
    8.7228  -14.8885   26.2532 C   0  0  0  0  0  0  0  0  0  0  0  0
    8.4457  -16.0003   25.7603 O   0  0  0  0  0  0  0  0  0  0  0  0
    9.6299  -14.7918   27.3239 N   0  0  0  0  0  0  0  0  0  0  0  0
    9.8144  -13.5521   28.1010 C   0  0  0  0  0  0  0  0  0  0  0  0
   10.4346  -14.0360   29.3850 C   0  0  0  0  0  0  0  0  0  0  0  0
   11.4247  -15.0659   28.8418 C   0  0  0  0  0  0  0  0  0  0  0  0
   10.5184  -15.8116   27.8689 C   0  0  1  0  0  0  0  0  0  0  0  0
    9.7517  -16.7794   28.7199 C   0  0  0  0  0  0  0  0  0  0  0  0
   10.4172  -17.8999   29.1457 O   0  0  0  0  0  0  0  0  0  0  0  0
    8.5567  -16.6088   29.0490 O   0  0  0  0  0  0  0  0  0  0  0  0
  2  1  1  6
  3  2  1  0
  4  3  1  0
  5  2  1  0
  6  5  2  0
  7  8  1  0
  7  5  1  0
  9 10  1  0
  9  8  1  0
 10 11  1  0
 11  7  1  0
 11 12  1  1
 12 13  2  0
 14 12  1  0
 14 15  1  0
 16 15  1  0
 17 16  1  0
 18 17  1  0
 18 14  1  0
 19 20  1  0
 18 19  1  1
 21 19  2  0
M  END
$$$$
