CPP.pdb
     RDKit          3D

 21 22  0  0  1  0  0  0  0  0999 V2000
    6.5448  -18.4194   27.1741 N   0  0  0  0  0  0  0  0  0  0  0  0
    7.0121  -17.0534   27.3386 C   0  0  1  0  0  0  0  0  0  0  0  0
    8.5006  -17.1369   27.6234 C   0  0  0  0  0  0  0  0  0  0  0  0
    9.2884  -17.6419   26.0500 S   0  0  0  0  0  0  0  0  0  0  0  0
    6.7353  -16.2458   26.1204 C   0  0  0  0  0  0  0  0  0  0  0  0
    6.1183  -16.8052   25.1630 O   0  0  0  0  0  0  0  0  0  0  0  0
    7.1289  -14.8986   25.9942 N   0  0  0  0  0  0  0  0  0  0  0  0
    7.7582  -14.0570   27.0152 C   0  0  0  0  0  0  0  0  0  0  0  0
    7.2504  -12.6690   26.6974 C   0  0  0  0  0  0  0  0  0  0  0  0
    7.1257  -12.6651   25.2151 C   0  0  0  0  0  0  0  0  0  0  0  0
    6.9721  -14.0931   24.8007 C   0  0  1  0  0  0  0  0  0  0  0  0
    8.0053  -14.4640   23.8020 C   0  0  0  0  0  0  0  0  0  0  0  0
    9.0274  -15.0775   24.1691 O   0  0  0  0  0  0  0  0  0  0  0  0
    7.8282  -14.1237   22.4487 N   0  0  0  0  0  0  0  0  0  0  0  0
    6.8104  -13.1562   21.9982 C   0  0  0  0  0  0  0  0  0  0  0  0
    7.3100  -12.7326   20.6423 C   0  0  0  0  0  0  0  0  0  0  0  0
    7.7664  -14.0800   20.0834 C   0  0  0  0  0  0  0  0  0  0  0  0
    8.5531  -14.6056   21.2788 C   0  0  1  0  0  0  0  0  0  0  0  0
    9.8948  -13.9431   21.1796 C   0  0  0  0  0  0  0  0  0  0  0  0
   10.7954  -14.4855   20.2997 O   0  0  0  0  0  0  0  0  0  0  0  0
   10.2171  -12.9386   21.8523 O   0  0  0  0  0  0  0  0  0  0  0  0
  2  1  1  6
  3  2  1  0
  4  3  1  0
  5  2  1  0
  6  5  2  0
  7  8  1  0
  7  5  1  0
  9 10  1  0
  9  8  1  0
 10 11  1  0
 11  7  1  0
 11 12  1  6
 12 13  2  0
 14 12  1  0
 14 15  1  0
 16 15  1  0
 17 16  1  0
 18 17  1  0
 18 14  1  0
 19 20  1  0
 18 19  1  1
 21 19  2  0
M  END
$$$$
