CPP.pdb
     RDKit          3D

 21 22  0  0  1  0  0  0  0  0999 V2000
    8.3386  -14.2073   20.8285 N   0  0  0  0  0  0  0  0  0  0  0  0
    7.4601  -14.3675   21.9747 C   0  0  1  0  0  0  0  0  0  0  0  0
    6.9657  -15.8022   21.9434 C   0  0  0  0  0  0  0  0  0  0  0  0
    8.4091  -16.8436   22.3716 S   0  0  0  0  0  0  0  0  0  0  0  0
    8.1785  -14.0669   23.2421 C   0  0  0  0  0  0  0  0  0  0  0  0
    9.4426  -13.9622   23.1993 O   0  0  0  0  0  0  0  0  0  0  0  0
    7.5133  -13.8961   24.4725 N   0  0  0  0  0  0  0  0  0  0  0  0
    6.0698  -13.9517   24.7179 C   0  0  0  0  0  0  0  0  0  0  0  0
    5.8640  -12.9856   25.8624 C   0  0  0  0  0  0  0  0  0  0  0  0
    7.1068  -13.1178   26.6690 C   0  0  0  0  0  0  0  0  0  0  0  0
    8.1612  -13.6268   25.7397 C   0  0  1  0  0  0  0  0  0  0  0  0
    8.7714  -14.8716   26.2692 C   0  0  0  0  0  0  0  0  0  0  0  0
    8.4658  -15.9717   25.7670 O   0  0  0  0  0  0  0  0  0  0  0  0
    9.6902  -14.8062   27.3324 N   0  0  0  0  0  0  0  0  0  0  0  0
    9.8792  -13.5917   28.1472 C   0  0  0  0  0  0  0  0  0  0  0  0
   10.5155  -14.1146   29.4077 C   0  0  0  0  0  0  0  0  0  0  0  0
   11.5029  -15.1226   28.8204 C   0  0  0  0  0  0  0  0  0  0  0  0
   10.5883  -15.8399   27.8339 C   0  0  1  0  0  0  0  0  0  0  0  0
    9.8344  -16.8376   28.6616 C   0  0  0  0  0  0  0  0  0  0  0  0
   10.5074  -17.9705   29.0401 O   0  0  0  0  0  0  0  0  0  0  0  0
    8.6436  -16.6807   29.0122 O   0  0  0  0  0  0  0  0  0  0  0  0
  2  1  1  6
  3  2  1  0
  4  3  1  0
  5  2  1  0
  6  5  2  0
  7  8  1  0
  7  5  1  0
  9 10  1  0
  9  8  1  0
 10 11  1  0
 11  7  1  0
 11 12  1  1
 12 13  2  0
 14 12  1  0
 14 15  1  0
 16 15  1  0
 17 16  1  0
 18 17  1  0
 18 14  1  0
 19 20  1  0
 18 19  1  1
 21 19  2  0
M  END
$$$$
