CPP.pdb
     RDKit          3D

 21 22  0  0  1  0  0  0  0  0999 V2000
    6.4337  -18.1335   28.3641 N   0  0  0  0  0  0  0  0  0  0  0  0
    7.3225  -17.0299   28.0426 C   0  0  1  0  0  0  0  0  0  0  0  0
    8.7253  -17.6066   27.9870 C   0  0  0  0  0  0  0  0  0  0  0  0
    9.8510  -16.1781   27.7783 S   0  0  0  0  0  0  0  0  0  0  0  0
    6.9417  -16.3990   26.7504 C   0  0  0  0  0  0  0  0  0  0  0  0
    6.3506  -17.1184   25.8881 O   0  0  0  0  0  0  0  0  0  0  0  0
    7.2105  -15.0478   26.4542 N   0  0  0  0  0  0  0  0  0  0  0  0
    7.7528  -14.0304   27.3586 C   0  0  0  0  0  0  0  0  0  0  0  0
    7.1216  -12.7459   26.8716 C   0  0  0  0  0  0  0  0  0  0  0  0
    7.0071  -12.9394   25.4012 C   0  0  0  0  0  0  0  0  0  0  0  0
    6.9884  -14.4161   25.1699 C   0  0  1  0  0  0  0  0  0  0  0  0
    8.0580  -14.8125   24.2206 C   0  0  0  0  0  0  0  0  0  0  0  0
    9.1278  -15.2829   24.6566 O   0  0  0  0  0  0  0  0  0  0  0  0
    7.8617  -14.6571   22.8365 N   0  0  0  0  0  0  0  0  0  0  0  0
    6.7703  -13.8399   22.2744 C   0  0  0  0  0  0  0  0  0  0  0  0
    7.2415  -13.5465   20.8746 C   0  0  0  0  0  0  0  0  0  0  0  0
    7.8110  -14.9100   20.4840 C   0  0  0  0  0  0  0  0  0  0  0  0
    8.6311  -15.2177   21.7318 C   0  0  1  0  0  0  0  0  0  0  0  0
    9.9141  -14.4639   21.5462 C   0  0  0  0  0  0  0  0  0  0  0  0
   10.8607  -15.0328   20.7340 O   0  0  0  0  0  0  0  0  0  0  0  0
   10.1492  -13.3621   22.0906 O   0  0  0  0  0  0  0  0  0  0  0  0
  2  1  1  6
  3  2  1  0
  4  3  1  0
  5  2  1  0
  6  5  2  0
  7  8  1  0
  7  5  1  0
  9 10  1  0
  9  8  1  0
 10 11  1  0
 11  7  1  0
 11 12  1  6
 12 13  2  0
 14 12  1  0
 14 15  1  0
 16 15  1  0
 17 16  1  0
 18 17  1  0
 18 14  1  0
 19 20  1  0
 18 19  1  6
 21 19  2  0
M  END
$$$$
