CPP.pdb
     RDKit          3D

 21 22  0  0  1  0  0  0  0  0999 V2000
    8.0268  -13.8662   20.7560 N   0  0  0  0  0  0  0  0  0  0  0  0
    7.4624  -14.5616   21.9001 C   0  0  1  0  0  0  0  0  0  0  0  0
    7.5875  -16.0459   21.6088 C   0  0  0  0  0  0  0  0  0  0  0  0
    6.7884  -16.9056   23.0137 S   0  0  0  0  0  0  0  0  0  0  0  0
    8.1742  -14.1908   23.1526 C   0  0  0  0  0  0  0  0  0  0  0  0
    9.4293  -14.0131   23.0936 O   0  0  0  0  0  0  0  0  0  0  0  0
    7.5120  -14.0315   24.3863 N   0  0  0  0  0  0  0  0  0  0  0  0
    6.0766  -14.1648   24.6484 C   0  0  0  0  0  0  0  0  0  0  0  0
    5.8262  -13.1871   25.7741 C   0  0  0  0  0  0  0  0  0  0  0  0
    7.0823  -13.2297   26.5698 C   0  0  0  0  0  0  0  0  0  0  0  0
    8.1553  -13.6974   25.6402 C   0  0  1  0  0  0  0  0  0  0  0  0
    8.8416  -14.8931   26.1897 C   0  0  0  0  0  0  0  0  0  0  0  0
    8.6625  -16.0071   25.6580 O   0  0  0  0  0  0  0  0  0  0  0  0
    9.6895  -14.7657   27.3048 N   0  0  0  0  0  0  0  0  0  0  0  0
    9.7605  -13.5349   28.1140 C   0  0  0  0  0  0  0  0  0  0  0  0
   10.3482  -14.0090   29.4167 C   0  0  0  0  0  0  0  0  0  0  0  0
   11.4243  -14.9646   28.9021 C   0  0  0  0  0  0  0  0  0  0  0  0
   10.6125  -15.7419   27.8721 C   0  0  1  0  0  0  0  0  0  0  0  0
    9.8674  -16.7732   28.6660 C   0  0  0  0  0  0  0  0  0  0  0  0
   10.5832  -17.8531   29.1143 O   0  0  0  0  0  0  0  0  0  0  0  0
    8.6471  -16.6890   28.9291 O   0  0  0  0  0  0  0  0  0  0  0  0
  2  1  1  6
  3  2  1  0
  4  3  1  0
  5  2  1  0
  6  5  2  0
  7  8  1  0
  7  5  1  0
  9 10  1  0
  9  8  1  0
 10 11  1  0
 11  7  1  0
 11 12  1  1
 12 13  2  0
 14 12  1  0
 14 15  1  0
 16 15  1  0
 17 16  1  0
 18 17  1  0
 18 14  1  0
 19 20  1  0
 18 19  1  1
 21 19  2  0
M  END
$$$$
