CPP.pdb
     RDKit          3D

 21 22  0  0  1  0  0  0  0  0999 V2000
    6.4403  -18.3431   27.3336 N   0  0  0  0  0  0  0  0  0  0  0  0
    7.3545  -17.2303   27.1405 C   0  0  1  0  0  0  0  0  0  0  0  0
    8.7416  -17.8299   26.9986 C   0  0  0  0  0  0  0  0  0  0  0  0
    9.8976  -16.4132   26.9084 S   0  0  0  0  0  0  0  0  0  0  0  0
    6.9796  -16.4356   25.9402 C   0  0  0  0  0  0  0  0  0  0  0  0
    6.3559  -17.0265   25.0062 O   0  0  0  0  0  0  0  0  0  0  0  0
    7.2883  -15.0673   25.8059 N   0  0  0  0  0  0  0  0  0  0  0  0
    7.8882  -14.1883   26.8132 C   0  0  0  0  0  0  0  0  0  0  0  0
    7.2906  -12.8337   26.5073 C   0  0  0  0  0  0  0  0  0  0  0  0
    7.1332  -12.8387   25.0281 C   0  0  0  0  0  0  0  0  0  0  0  0
    7.0569  -14.2737   24.6166 C   0  0  1  0  0  0  0  0  0  0  0  0
    8.0883  -14.5825   23.5951 C   0  0  0  0  0  0  0  0  0  0  0  0
    9.1218  -15.1970   23.9267 O   0  0  0  0  0  0  0  0  0  0  0  0
    7.8966  -14.1825   22.2602 N   0  0  0  0  0  0  0  0  0  0  0  0
    6.8273  -13.2516   21.8542 C   0  0  0  0  0  0  0  0  0  0  0  0
    7.3065  -12.7304   20.5252 C   0  0  0  0  0  0  0  0  0  0  0  0
    7.8401  -14.0190   19.9000 C   0  0  0  0  0  0  0  0  0  0  0  0
    8.6514  -14.5612   21.0714 C   0  0  1  0  0  0  0  0  0  0  0  0
    9.9538  -13.8201   21.0149 C   0  0  0  0  0  0  0  0  0  0  0  0
   10.1206  -12.7828   21.8956 O   0  0  0  0  0  0  0  0  0  0  0  0
   10.8727  -14.1044   20.2147 O   0  0  0  0  0  0  0  0  0  0  0  0
  2  1  1  6
  3  2  1  0
  4  3  1  0
  5  2  1  0
  6  5  2  0
  7  8  1  0
  7  5  1  0
  9 10  1  0
  9  8  1  0
 10 11  1  0
 11  7  1  0
 11 12  1  6
 12 13  2  0
 14 12  1  0
 14 15  1  0
 16 15  1  0
 17 16  1  0
 18 17  1  0
 18 14  1  0
 19 20  1  0
 18 19  1  1
 21 19  2  0
M  END
$$$$
