CPP.pdb
     RDKit          3D

 21 22  0  0  1  0  0  0  0  0999 V2000
    6.6241  -18.3929   26.8756 N   0  0  0  0  0  0  0  0  0  0  0  0
    6.9691  -16.9995   27.1007 C   0  0  1  0  0  0  0  0  0  0  0  0
    8.4506  -16.9683   27.4289 C   0  0  0  0  0  0  0  0  0  0  0  0
    9.3138  -17.5551   25.9250 S   0  0  0  0  0  0  0  0  0  0  0  0
    6.6595  -16.1742   25.9024 C   0  0  0  0  0  0  0  0  0  0  0  0
    6.0450  -16.7287   24.9404 O   0  0  0  0  0  0  0  0  0  0  0  0
    7.0197  -14.8158   25.7995 N   0  0  0  0  0  0  0  0  0  0  0  0
    7.5872  -13.9646   26.8485 C   0  0  0  0  0  0  0  0  0  0  0  0
    7.0529  -12.5889   26.5211 C   0  0  0  0  0  0  0  0  0  0  0  0
    6.9829  -12.5775   25.0352 C   0  0  0  0  0  0  0  0  0  0  0  0
    6.8846  -14.0060   24.6063 C   0  0  1  0  0  0  0  0  0  0  0  0
    7.9639  -14.3407   23.6441 C   0  0  0  0  0  0  0  0  0  0  0  0
    8.9887  -14.9278   24.0450 O   0  0  0  0  0  0  0  0  0  0  0  0
    7.8270  -13.9959   22.2873 N   0  0  0  0  0  0  0  0  0  0  0  0
    6.7855  -13.0714   21.8024 C   0  0  0  0  0  0  0  0  0  0  0  0
    7.3204  -12.6127   20.4716 C   0  0  0  0  0  0  0  0  0  0  0  0
    7.8604  -13.9326   19.9219 C   0  0  0  0  0  0  0  0  0  0  0  0
    8.6206  -14.4334   21.1448 C   0  0  1  0  0  0  0  0  0  0  0  0
    9.9336  -13.7099   21.1062 C   0  0  0  0  0  0  0  0  0  0  0  0
   10.0791  -12.6351   21.9448 O   0  0  0  0  0  0  0  0  0  0  0  0
   10.8792  -14.0406   20.3565 O   0  0  0  0  0  0  0  0  0  0  0  0
  2  1  1  6
  3  2  1  0
  4  3  1  0
  5  2  1  0
  6  5  2  0
  7  8  1  0
  7  5  1  0
  9 10  1  0
  9  8  1  0
 10 11  1  0
 11  7  1  0
 11 12  1  6
 12 13  2  0
 14 12  1  0
 14 15  1  0
 16 15  1  0
 17 16  1  0
 18 17  1  0
 18 14  1  0
 19 20  1  0
 18 19  1  1
 21 19  2  0
M  END
$$$$
