CPP.pdb
     RDKit          3D

 21 22  0  0  1  0  0  0  0  0999 V2000
    6.5944  -18.3805   27.6877 N   0  0  0  0  0  0  0  0  0  0  0  0
    7.0773  -17.0110   27.7397 C   0  0  1  0  0  0  0  0  0  0  0  0
    8.5672  -17.0882   28.0187 C   0  0  0  0  0  0  0  0  0  0  0  0
    9.3525  -17.5759   26.4386 S   0  0  0  0  0  0  0  0  0  0  0  0
    6.7985  -16.2995   26.4635 C   0  0  0  0  0  0  0  0  0  0  0  0
    6.2661  -16.9585   25.5186 O   0  0  0  0  0  0  0  0  0  0  0  0
    7.1006  -14.9368   26.2695 N   0  0  0  0  0  0  0  0  0  0  0  0
    7.6611  -14.0024   27.2492 C   0  0  0  0  0  0  0  0  0  0  0  0
    7.0630  -12.6707   26.8562 C   0  0  0  0  0  0  0  0  0  0  0  0
    6.9529  -12.7520   25.3749 C   0  0  0  0  0  0  0  0  0  0  0  0
    6.9010  -14.2066   25.0347 C   0  0  1  0  0  0  0  0  0  0  0  0
    7.9669  -14.5569   24.0632 C   0  0  0  0  0  0  0  0  0  0  0  0
    9.0392  -15.0456   24.4720 O   0  0  0  0  0  0  0  0  0  0  0  0
    7.7641  -14.3376   22.6887 N   0  0  0  0  0  0  0  0  0  0  0  0
    6.6378  -13.5408   22.1677 C   0  0  0  0  0  0  0  0  0  0  0  0
    7.0958  -13.1536   20.7865 C   0  0  0  0  0  0  0  0  0  0  0  0
    7.7249  -14.4682   20.3261 C   0  0  0  0  0  0  0  0  0  0  0  0
    8.5576  -14.8048   21.5580 C   0  0  1  0  0  0  0  0  0  0  0  0
    9.8061  -13.9864   21.4155 C   0  0  0  0  0  0  0  0  0  0  0  0
   10.7988  -14.4954   20.6186 O   0  0  0  0  0  0  0  0  0  0  0  0
    9.9737  -12.8834   21.9819 O   0  0  0  0  0  0  0  0  0  0  0  0
  2  1  1  6
  3  2  1  0
  4  3  1  0
  5  2  1  0
  6  5  2  0
  7  8  1  0
  7  5  1  0
  9 10  1  0
  9  8  1  0
 10 11  1  0
 11  7  1  0
 11 12  1  6
 12 13  2  0
 14 12  1  0
 14 15  1  0
 16 15  1  0
 17 16  1  0
 18 17  1  0
 18 14  1  0
 19 20  1  0
 18 19  1  6
 21 19  2  0
M  END
$$$$
