CPP.pdb
     RDKit          3D

 21 22  0  0  1  0  0  0  0  0999 V2000
    8.4513  -14.2785   20.7324 N   0  0  0  0  0  0  0  0  0  0  0  0
    7.5994  -14.4972   21.8889 C   0  0  1  0  0  0  0  0  0  0  0  0
    7.2319  -15.9698   21.8830 C   0  0  0  0  0  0  0  0  0  0  0  0
    8.7842  -16.8793   22.2215 S   0  0  0  0  0  0  0  0  0  0  0  0
    8.2989  -14.1157   23.1451 C   0  0  0  0  0  0  0  0  0  0  0  0
    9.5527  -13.9262   23.0942 O   0  0  0  0  0  0  0  0  0  0  0  0
    7.6267  -13.9590   24.3736 N   0  0  0  0  0  0  0  0  0  0  0  0
    6.1868  -14.0723   24.6199 C   0  0  0  0  0  0  0  0  0  0  0  0
    5.9403  -13.1028   25.7534 C   0  0  0  0  0  0  0  0  0  0  0  0
    7.1874  -13.1736   26.5612 C   0  0  0  0  0  0  0  0  0  0  0  0
    8.2624  -13.6485   25.6375 C   0  0  1  0  0  0  0  0  0  0  0  0
    8.9241  -14.8606   26.1810 C   0  0  0  0  0  0  0  0  0  0  0  0
    8.7343  -15.9657   25.6346 O   0  0  0  0  0  0  0  0  0  0  0  0
    9.7610  -14.7587   27.3070 N   0  0  0  0  0  0  0  0  0  0  0  0
    9.7998  -13.5589   28.1637 C   0  0  0  0  0  0  0  0  0  0  0  0
   10.3879  -14.0708   29.4519 C   0  0  0  0  0  0  0  0  0  0  0  0
   11.4879  -14.9829   28.9095 C   0  0  0  0  0  0  0  0  0  0  0  0
   10.7003  -15.7365   27.8437 C   0  0  1  0  0  0  0  0  0  0  0  0
    9.9717  -16.8132   28.5911 C   0  0  0  0  0  0  0  0  0  0  0  0
    8.6318  -16.6237   28.8106 O   0  0  0  0  0  0  0  0  0  0  0  0
   10.5253  -17.8532   29.0123 O   0  0  0  0  0  0  0  0  0  0  0  0
  2  1  1  6
  3  2  1  0
  4  3  1  0
  5  2  1  0
  6  5  2  0
  7  8  1  0
  7  5  1  0
  9 10  1  0
  9  8  1  0
 10 11  1  0
 11  7  1  0
 11 12  1  1
 12 13  2  0
 14 12  1  0
 14 15  1  0
 16 15  1  0
 17 16  1  0
 18 17  1  0
 18 14  1  0
 19 20  1  0
 18 19  1  1
 21 19  2  0
M  END
$$$$
