CPP.pdb
     RDKit          3D

 21 22  0  0  1  0  0  0  0  0999 V2000
    8.2989  -14.2693   20.7724 N   0  0  0  0  0  0  0  0  0  0  0  0
    7.6169  -14.7464   21.9634 C   0  0  1  0  0  0  0  0  0  0  0  0
    7.5883  -16.2609   21.8679 C   0  0  0  0  0  0  0  0  0  0  0  0
    5.9300  -16.6954   21.2256 S   0  0  0  0  0  0  0  0  0  0  0  0
    8.3161  -14.2918   23.1953 C   0  0  0  0  0  0  0  0  0  0  0  0
    9.5700  -14.1063   23.1338 O   0  0  0  0  0  0  0  0  0  0  0  0
    7.6435  -14.0625   24.4121 N   0  0  0  0  0  0  0  0  0  0  0  0
    6.2002  -14.1286   24.6562 C   0  0  0  0  0  0  0  0  0  0  0  0
    5.9739  -13.1025   25.7431 C   0  0  0  0  0  0  0  0  0  0  0  0
    7.2157  -13.1674   26.5595 C   0  0  0  0  0  0  0  0  0  0  0  0
    8.2819  -13.7105   25.6636 C   0  0  1  0  0  0  0  0  0  0  0  0
    8.9110  -14.9126   26.2650 C   0  0  0  0  0  0  0  0  0  0  0  0
    8.6996  -16.0359   25.7656 O   0  0  0  0  0  0  0  0  0  0  0  0
    9.7415  -14.7809   27.3926 N   0  0  0  0  0  0  0  0  0  0  0  0
    9.8302  -13.5335   28.1743 C   0  0  0  0  0  0  0  0  0  0  0  0
   10.3813  -13.9918   29.4985 C   0  0  0  0  0  0  0  0  0  0  0  0
   11.4411  -14.9869   29.0265 C   0  0  0  0  0  0  0  0  0  0  0  0
   10.6280  -15.7669   27.9996 C   0  0  1  0  0  0  0  0  0  0  0  0
    9.8417  -16.7596   28.8030 C   0  0  0  0  0  0  0  0  0  0  0  0
   10.5174  -17.8538   29.2780 O   0  0  0  0  0  0  0  0  0  0  0  0
    8.6220  -16.6316   29.0510 O   0  0  0  0  0  0  0  0  0  0  0  0
  2  1  1  6
  3  2  1  0
  4  3  1  0
  5  2  1  0
  6  5  2  0
  7  8  1  0
  7  5  1  0
  9 10  1  0
  9  8  1  0
 10 11  1  0
 11  7  1  0
 11 12  1  1
 12 13  2  0
 14 12  1  0
 14 15  1  0
 16 15  1  0
 17 16  1  0
 18 17  1  0
 18 14  1  0
 19 20  1  0
 18 19  1  1
 21 19  2  0
M  END
$$$$
