NRF.pdb
     RDKit          3D

 31 31  0  0  1  0  0  0  0  0999 V2000
   19.1715  -19.4748  -12.8601 N   0  0  0  0  0  0  0  0  0  0  0  0
   19.6357  -19.2560  -11.5535 C   0  0  0  0  0  0  0  0  0  0  0  0
   19.0224  -18.5700  -10.6958 O   0  0  0  0  0  0  0  0  0  0  0  0
   20.9194  -19.8529  -11.1258 C   0  0  0  0  0  0  0  0  0  0  0  0
   21.6179  -20.6194  -12.2254 C   0  0  2  0  0  0  0  0  0  0  0  0
   20.8952  -21.7585  -12.6901 N   0  0  0  0  0  0  0  0  0  0  0  0
   23.0035  -20.9079  -11.8015 C   0  0  0  0  0  0  0  0  0  0  0  0
   23.2628  -21.7567  -10.9101 O   0  0  0  0  0  0  0  0  0  0  0  0
   30.5065  -22.5825  -13.6189 N   0  0  0  0  0  0  0  0  0  0  0  0
   29.7466  -22.1014  -14.7128 C   0  0  0  0  0  0  0  0  0  0  0  0
   29.6782  -22.8748  -15.7583 N   0  0  0  0  0  0  0  0  0  0  0  0
   29.0826  -20.8581  -14.7199 N   0  0  0  0  0  0  0  0  0  0  0  0
   28.9835  -19.9916  -13.5462 C   0  0  0  0  0  0  0  0  0  0  0  0
   28.0100  -20.5240  -12.5486 C   0  0  0  0  0  0  0  0  0  0  0  0
   26.6079  -20.3243  -12.9189 C   0  0  0  0  0  0  0  0  0  0  0  0
   25.4950  -20.6000  -12.0014 C   0  0  2  0  0  0  0  0  0  0  0  0
   24.1614  -20.2493  -12.3641 N   0  0  0  0  0  0  0  0  0  0  0  0
   25.7290  -20.0808  -10.6156 C   0  0  0  0  0  0  0  0  0  0  0  0
   25.4324  -18.9028  -10.3044 O   0  0  0  0  0  0  0  0  0  0  0  0
   29.0943  -22.6589  -16.5920 N   0  0  0  0  0  0  0  0  0  0  0  0
   26.2945  -20.8982   -9.5975 C   0  0  1  0  0  0  0  0  0  0  0  0
   27.1006  -20.3364   -8.5080 C   0  0  0  0  0  0  0  0  0  0  0  0
   26.4729  -20.6527   -7.1760 C   0  0  0  0  0  0  0  0  0  0  0  0
   27.2739  -20.1698   -6.0341 C   0  0  0  0  0  0  0  0  0  0  0  0
   28.0000  -21.0203   -5.2215 C   0  0  0  0  0  0  0  0  0  0  0  0
   28.7331  -20.4834   -4.1918 C   0  0  0  0  0  0  0  0  0  0  0  0
   28.7874  -19.1431   -3.9205 C   0  0  0  0  0  0  0  0  0  0  0  0
   28.0630  -18.2987   -4.7316 C   0  0  0  0  0  0  0  0  0  0  0  0
   27.3252  -18.8077   -5.7633 C   0  0  0  0  0  0  0  0  0  0  0  0
   28.5045  -20.7761   -8.6121 O   0  0  0  0  0  0  0  0  0  0  0  0
   28.8074  -22.0706   -9.0530 O   0  0  0  0  0  0  0  0  0  0  0  0
  2  1  1  0
  3  2  2  0
  4  2  1  0
  5  4  1  0
  5  6  1  1
  7  8  2  0
  7  5  1  0
  9 10  1  0
 10 12  1  0
 10 11  2  0
 12 13  1  0
 14 13  1  0
 15 14  1  0
 16 15  1  6
 16 17  1  0
 17  7  1  0
 18 16  1  0
 19 18  2  0
 20 18  1  0
 21 20  1  0
 22 23  1  0
 21 22  1  1
 23 28  2  0
 24 25  2  0
 24 23  1  0
 25 26  1  0
 26 27  2  0
 28 27  1  0
 29 21  1  0
 29 30  1  0
 31 29  2  0
M  END
$$$$
