NRF.pdb
     RDKit          3D

 31 31  0  0  1  0  0  0  0  0999 V2000
   27.3899  -35.9574   -8.2282 N   0  0  0  0  0  0  0  0  0  0  0  0
   26.7868  -34.8138   -7.6815 C   0  0  0  0  0  0  0  0  0  0  0  0
   26.6048  -33.7437   -8.3172 O   0  0  0  0  0  0  0  0  0  0  0  0
   26.3256  -34.8332   -6.2765 C   0  0  0  0  0  0  0  0  0  0  0  0
   26.4970  -36.1787   -5.6096 C   0  0  2  0  0  0  0  0  0  0  0  0
   25.5929  -37.1789   -6.0767 N   0  0  0  0  0  0  0  0  0  0  0  0
   26.4935  -35.9902   -4.1443 C   0  0  0  0  0  0  0  0  0  0  0  0
   25.4249  -35.9500   -3.4818 O   0  0  0  0  0  0  0  0  0  0  0  0
   32.5109  -37.5565    2.1673 N   0  0  0  0  0  0  0  0  0  0  0  0
   31.4220  -38.2300    1.5619 C   0  0  0  0  0  0  0  0  0  0  0  0
   31.4538  -39.5315    1.5921 N   0  0  0  0  0  0  0  0  0  0  0  0
   30.3387  -37.5726    0.9448 N   0  0  0  0  0  0  0  0  0  0  0  0
   30.1610  -36.1213    0.9639 C   0  0  0  0  0  0  0  0  0  0  0  0
   28.8777  -35.7145    0.3204 C   0  0  0  0  0  0  0  0  0  0  0  0
   28.8420  -35.9305   -1.1270 C   0  0  0  0  0  0  0  0  0  0  0  0
   27.6715  -35.6052   -1.9520 C   0  0  2  0  0  0  0  0  0  0  0  0
   27.6977  -35.8364   -3.3587 N   0  0  0  0  0  0  0  0  0  0  0  0
   27.1691  -34.2095   -1.7411 C   0  0  0  0  0  0  0  0  0  0  0  0
   27.8158  -33.2171   -2.1524 O   0  0  0  0  0  0  0  0  0  0  0  0
   30.7118  -40.1313    1.1771 N   0  0  0  0  0  0  0  0  0  0  0  0
   25.9421  -33.9513   -1.0686 C   0  0  1  0  0  0  0  0  0  0  0  0
   25.4464  -32.5875   -0.8525 C   0  0  0  0  0  0  0  0  0  0  0  0
   24.2727  -32.3084   -1.7541 C   0  0  0  0  0  0  0  0  0  0  0  0
   23.6491  -30.9957   -1.4961 C   0  0  0  0  0  0  0  0  0  0  0  0
   22.5919  -30.8330   -0.6206 C   0  0  0  0  0  0  0  0  0  0  0  0
   22.0843  -29.5718   -0.4259 C   0  0  0  0  0  0  0  0  0  0  0  0
   22.5683  -28.4564   -1.0538 C   0  0  0  0  0  0  0  0  0  0  0  0
   23.6212  -28.6218   -1.9254 C   0  0  0  0  0  0  0  0  0  0  0  0
   24.1447  -29.8665   -2.1367 C   0  0  0  0  0  0  0  0  0  0  0  0
   25.1562  -32.3535    0.5744 O   0  0  0  0  0  0  0  0  0  0  0  0
   25.3404  -31.0821    1.1326 O   0  0  0  0  0  0  0  0  0  0  0  0
  2  1  1  0
  3  2  2  0
  4  2  1  0
  5  4  1  0
  5  6  1  1
  7  8  2  0
  7  5  1  0
  9 10  1  0
 10 12  1  0
 10 11  2  0
 12 13  1  0
 14 13  1  0
 15 14  1  0
 16 15  1  6
 16 17  1  0
 17  7  1  0
 18 16  1  0
 19 18  2  0
 20 18  1  0
 21 20  1  0
 22 23  1  0
 21 22  1  1
 23 28  2  0
 24 25  2  0
 24 23  1  0
 25 26  1  0
 26 27  2  0
 28 27  1  0
 29 21  1  0
 29 30  1  0
 31 29  2  0
M  END
$$$$
