NRF.pdb
     RDKit          3D

 31 31  0  0  1  0  0  0  0  0999 V2000
   12.6837  -21.2842    2.6612 N   0  0  0  0  0  0  0  0  0  0  0  0
   13.8053  -22.0293    3.0578 C   0  0  0  0  0  0  0  0  0  0  0  0
   13.8305  -23.2857    3.1123 O   0  0  0  0  0  0  0  0  0  0  0  0
   15.0492  -21.3272    3.4413 C   0  0  0  0  0  0  0  0  0  0  0  0
   15.3600  -20.1381    2.5615 C   0  0  2  0  0  0  0  0  0  0  0  0
   15.4899  -20.4571    1.1769 N   0  0  0  0  0  0  0  0  0  0  0  0
   16.5133  -19.4108    3.1303 C   0  0  0  0  0  0  0  0  0  0  0  0
   17.6935  -19.6447    2.7630 O   0  0  0  0  0  0  0  0  0  0  0  0
   18.1034  -11.0497    6.3193 N   0  0  0  0  0  0  0  0  0  0  0  0
   19.2608  -11.8536    6.4605 C   0  0  0  0  0  0  0  0  0  0  0  0
   20.3576  -11.2392    6.8005 N   0  0  0  0  0  0  0  0  0  0  0  0
   19.2773  -13.2476    6.2534 N   0  0  0  0  0  0  0  0  0  0  0  0
   18.1388  -13.9963    5.7229 C   0  0  0  0  0  0  0  0  0  0  0  0
   18.4874  -15.4252    5.4720 C   0  0  0  0  0  0  0  0  0  0  0  0
   17.3801  -16.2254    4.9462 C   0  0  0  0  0  0  0  0  0  0  0  0
   17.5072  -17.6556    4.6382 C   0  0  2  0  0  0  0  0  0  0  0  0
   16.3873  -18.3858    4.1424 N   0  0  0  0  0  0  0  0  0  0  0  0
   18.0936  -18.4526    5.7633 C   0  0  0  0  0  0  0  0  0  0  0  0
   17.3613  -19.0606    6.5796 O   0  0  0  0  0  0  0  0  0  0  0  0
   21.2665  -11.7264    6.9387 N   0  0  0  0  0  0  0  0  0  0  0  0
   19.5001  -18.5540    5.9527 C   0  0  2  0  0  0  0  0  0  0  0  0
   20.0805  -19.2108    7.1292 C   0  0  0  0  0  0  0  0  0  0  0  0
   21.5011  -19.6256    6.8493 C   0  0  0  0  0  0  0  0  0  0  0  0
   22.1116  -20.3745    7.9651 C   0  0  0  0  0  0  0  0  0  0  0  0
   21.9278  -21.7336    8.1382 C   0  0  0  0  0  0  0  0  0  0  0  0
   22.5489  -22.3544    9.1941 C   0  0  0  0  0  0  0  0  0  0  0  0
   23.3464  -21.7002   10.0934 C   0  0  0  0  0  0  0  0  0  0  0  0
   23.5272  -20.3466    9.9184 C   0  0  0  0  0  0  0  0  0  0  0  0
   22.9204  -19.7049    8.8754 C   0  0  0  0  0  0  0  0  0  0  0  0
   19.9448  -18.3603    8.3264 O   0  0  0  0  0  0  0  0  0  0  0  0
   19.5756  -18.9243    9.5543 O   0  0  0  0  0  0  0  0  0  0  0  0
  2  1  1  0
  3  2  2  0
  4  2  1  0
  5  4  1  0
  5  6  1  6
  7  8  2  0
  7  5  1  0
  9 10  1  0
 10 12  1  0
 10 11  2  0
 12 13  1  0
 14 13  1  0
 15 14  1  0
 16 15  1  1
 16 17  1  0
 17  7  1  0
 18 16  1  0
 19 18  2  0
 20 18  1  0
 21 20  1  0
 22 23  1  0
 21 22  1  6
 23 28  2  0
 24 25  2  0
 24 23  1  0
 25 26  1  0
 26 27  2  0
 28 27  1  0
 29 21  1  0
 29 30  1  0
 31 29  2  0
M  END
$$$$
