NRF.pdb
     RDKit          3D

 31 31  0  0  1  0  0  0  0  0999 V2000
   27.1350  -14.4705  -15.7323 N   0  0  0  0  0  0  0  0  0  0  0  0
   27.2811  -15.8518  -15.5300 C   0  0  0  0  0  0  0  0  0  0  0  0
   28.1039  -16.5700  -16.1541 O   0  0  0  0  0  0  0  0  0  0  0  0
   26.4328  -16.5367  -14.5307 C   0  0  0  0  0  0  0  0  0  0  0  0
   25.7693  -17.7852  -15.0650 C   0  0  2  0  0  0  0  0  0  0  0  0
   24.8895  -17.5517  -16.1638 N   0  0  0  0  0  0  0  0  0  0  0  0
   25.1570  -18.5205  -13.9394 C   0  0  0  0  0  0  0  0  0  0  0  0
   24.0518  -18.1791  -13.4451 O   0  0  0  0  0  0  0  0  0  0  0  0
   23.2606  -25.2388  -14.9925 N   0  0  0  0  0  0  0  0  0  0  0  0
   24.6155  -25.0523  -15.3604 C   0  0  0  0  0  0  0  0  0  0  0  0
   24.9194  -25.2960  -16.6030 N   0  0  0  0  0  0  0  0  0  0  0  0
   25.6196  -24.6290  -14.4665 N   0  0  0  0  0  0  0  0  0  0  0  0
   25.3456  -23.8594  -13.2537 C   0  0  0  0  0  0  0  0  0  0  0  0
   24.8026  -22.5062  -13.5705 C   0  0  0  0  0  0  0  0  0  0  0  0
   24.5578  -21.6716  -12.3931 C   0  0  0  0  0  0  0  0  0  0  0  0
   25.1748  -20.3516  -12.2105 C   0  0  2  0  0  0  0  0  0  0  0  0
   25.7659  -19.6756  -13.3181 N   0  0  0  0  0  0  0  0  0  0  0  0
   26.1653  -20.3126  -11.0870 C   0  0  0  0  0  0  0  0  0  0  0  0
   27.3839  -20.5298  -11.2873 O   0  0  0  0  0  0  0  0  0  0  0  0
   25.8899  -25.2453  -16.9748 N   0  0  0  0  0  0  0  0  0  0  0  0
   25.7679  -20.0281   -9.7507 C   0  0  2  0  0  0  0  0  0  0  0  0
   26.7027  -20.1261   -8.6243 C   0  0  0  0  0  0  0  0  0  0  0  0
   26.4774  -18.9935   -7.6574 C   0  0  0  0  0  0  0  0  0  0  0  0
   27.3461  -19.0729   -6.4667 C   0  0  0  0  0  0  0  0  0  0  0  0
   28.4581  -18.2687   -6.3015 C   0  0  0  0  0  0  0  0  0  0  0  0
   29.2002  -18.3963   -5.1530 C   0  0  0  0  0  0  0  0  0  0  0  0
   28.9005  -19.2814   -4.1532 C   0  0  0  0  0  0  0  0  0  0  0  0
   27.7923  -20.0811   -4.3209 C   0  0  0  0  0  0  0  0  0  0  0  0
   27.0368  -19.9737   -5.4547 C   0  0  0  0  0  0  0  0  0  0  0  0
   26.6281  -21.4570   -7.9935 O   0  0  0  0  0  0  0  0  0  0  0  0
   27.7952  -22.0981   -7.5587 O   0  0  0  0  0  0  0  0  0  0  0  0
  2  1  1  0
  3  2  2  0
  4  2  1  0
  5  4  1  0
  5  6  1  6
  7  8  2  0
  7  5  1  0
  9 10  1  0
 10 12  1  0
 10 11  2  0
 12 13  1  0
 14 13  1  0
 15 14  1  0
 16 15  1  6
 16 17  1  0
 17  7  1  0
 18 16  1  0
 19 18  2  0
 20 18  1  0
 21 20  1  0
 22 23  1  0
 21 22  1  1
 23 28  2  0
 24 25  2  0
 24 23  1  0
 25 26  1  0
 26 27  2  0
 28 27  1  0
 29 21  1  0
 29 30  1  0
 31 29  2  0
M  END
$$$$
