NRF.pdb
     RDKit          3D

 31 31  0  0  1  0  0  0  0  0999 V2000
   31.2345  -25.3500  -16.9593 N   0  0  0  0  0  0  0  0  0  0  0  0
   31.4307  -24.0858  -17.5370 C   0  0  0  0  0  0  0  0  0  0  0  0
   32.5060  -23.7198  -18.0775 O   0  0  0  0  0  0  0  0  0  0  0  0
   30.3283  -23.1001  -17.5274 C   0  0  0  0  0  0  0  0  0  0  0  0
   29.1205  -23.5617  -16.7445 C   0  0  2  0  0  0  0  0  0  0  0  0
   28.4457  -24.6788  -17.3212 N   0  0  0  0  0  0  0  0  0  0  0  0
   28.2519  -22.3976  -16.4748 C   0  0  0  0  0  0  0  0  0  0  0  0
   28.7073  -21.3228  -16.0059 O   0  0  0  0  0  0  0  0  0  0  0  0
   22.0995  -16.6708  -17.4935 N   0  0  0  0  0  0  0  0  0  0  0  0
   21.3898  -17.8902  -17.6163 C   0  0  0  0  0  0  0  0  0  0  0  0
   20.1500  -17.8842  -17.2179 N   0  0  0  0  0  0  0  0  0  0  0  0
   21.9507  -19.0753  -18.1337 N   0  0  0  0  0  0  0  0  0  0  0  0
   23.3760  -19.2335  -18.4195 C   0  0  0  0  0  0  0  0  0  0  0  0
   24.1350  -19.6722  -17.2121 C   0  0  0  0  0  0  0  0  0  0  0  0
   25.1595  -20.6813  -17.4861 C   0  0  0  0  0  0  0  0  0  0  0  0
   26.0023  -21.2661  -16.4354 C   0  0  2  0  0  0  0  0  0  0  0  0
   26.8269  -22.3938  -16.7208 N   0  0  0  0  0  0  0  0  0  0  0  0
   25.2497  -21.5740  -15.1770 C   0  0  0  0  0  0  0  0  0  0  0  0
   24.7625  -22.7113  -14.9731 O   0  0  0  0  0  0  0  0  0  0  0  0
   19.5121  -18.6995  -17.3219 N   0  0  0  0  0  0  0  0  0  0  0  0
   25.0566  -20.5940  -14.1637 C   0  0  2  0  0  0  0  0  0  0  0  0
   24.3620  -20.9005  -12.9083 C   0  0  0  0  0  0  0  0  0  0  0  0
   24.8590  -20.0057  -11.8035 C   0  0  0  0  0  0  0  0  0  0  0  0
   24.1611  -20.2322  -10.5227 C   0  0  0  0  0  0  0  0  0  0  0  0
   24.7430  -20.9095   -9.4675 C   0  0  0  0  0  0  0  0  0  0  0  0
   24.0281  -21.0587   -8.3044 C   0  0  0  0  0  0  0  0  0  0  0  0
   22.7616  -20.5716   -8.1273 C   0  0  0  0  0  0  0  0  0  0  0  0
   22.1847  -19.8976   -9.1803 C   0  0  0  0  0  0  0  0  0  0  0  0
   22.8750  -19.7354  -10.3486 C   0  0  0  0  0  0  0  0  0  0  0  0
   22.8995  -20.8478  -13.0903 O   0  0  0  0  0  0  0  0  0  0  0  0
   22.0706  -21.7460  -12.4060 O   0  0  0  0  0  0  0  0  0  0  0  0
  2  1  1  0
  3  2  2  0
  4  2  1  0
  5  4  1  0
  5  6  1  6
  7  8  2  0
  7  5  1  0
  9 10  1  0
 10 12  1  0
 10 11  2  0
 12 13  1  0
 14 13  1  0
 15 14  1  0
 16 15  1  6
 16 17  1  0
 17  7  1  0
 18 16  1  0
 19 18  2  0
 20 18  1  0
 21 20  1  0
 22 23  1  0
 21 22  1  6
 23 28  2  0
 24 25  2  0
 24 23  1  0
 25 26  1  0
 26 27  2  0
 28 27  1  0
 29 21  1  0
 29 30  1  0
 31 29  2  0
M  END
$$$$
