NRF.pdb
     RDKit          3D

 31 31  0  0  1  0  0  0  0  0999 V2000
   25.7240  -14.9370  -16.3445 N   0  0  0  0  0  0  0  0  0  0  0  0
   25.8696  -14.7973  -14.9553 C   0  0  0  0  0  0  0  0  0  0  0  0
   26.2929  -13.7537  -14.3948 O   0  0  0  0  0  0  0  0  0  0  0  0
   25.5134  -15.9250  -14.0673 C   0  0  0  0  0  0  0  0  0  0  0  0
   25.1236  -17.1773  -14.8186 C   0  0  2  0  0  0  0  0  0  0  0  0
   24.0041  -17.0099  -15.6872 N   0  0  0  0  0  0  0  0  0  0  0  0
   24.9872  -18.2896  -13.8558 C   0  0  0  0  0  0  0  0  0  0  0  0
   23.8688  -18.6402  -13.3992 O   0  0  0  0  0  0  0  0  0  0  0  0
   24.6036  -25.6968  -14.2694 N   0  0  0  0  0  0  0  0  0  0  0  0
   24.7919  -24.9485  -15.4569 C   0  0  0  0  0  0  0  0  0  0  0  0
   23.8711  -25.0658  -16.3703 N   0  0  0  0  0  0  0  0  0  0  0  0
   25.9004  -24.1090  -15.6873 N   0  0  0  0  0  0  0  0  0  0  0  0
   26.9006  -23.7980  -14.6669 C   0  0  0  0  0  0  0  0  0  0  0  0
   26.3468  -22.9075  -13.6055 C   0  0  0  0  0  0  0  0  0  0  0  0
   26.3865  -21.4833  -13.9419 C   0  0  0  0  0  0  0  0  0  0  0  0
   25.9967  -20.4304  -12.9954 C   0  0  2  0  0  0  0  0  0  0  0  0
   26.1090  -19.0572  -13.3624 N   0  0  0  0  0  0  0  0  0  0  0  0
   26.6322  -20.5827  -11.6472 C   0  0  0  0  0  0  0  0  0  0  0  0
   27.8789  -20.6098  -11.5159 O   0  0  0  0  0  0  0  0  0  0  0  0
   23.9218  -24.5954  -17.2970 N   0  0  0  0  0  0  0  0  0  0  0  0
   25.8522  -20.7020  -10.4631 C   0  0  1  0  0  0  0  0  0  0  0  0
   26.4654  -20.7705   -9.1321 C   0  0  0  0  0  0  0  0  0  0  0  0
   27.2390  -19.5101   -8.8470 C   0  0  0  0  0  0  0  0  0  0  0  0
   27.8055  -19.4794   -7.4844 C   0  0  0  0  0  0  0  0  0  0  0  0
   27.2602  -18.7169   -6.4684 C   0  0  0  0  0  0  0  0  0  0  0  0
   27.8408  -18.7623   -5.2247 C   0  0  0  0  0  0  0  0  0  0  0  0
   28.9379  -19.5252   -4.9295 C   0  0  0  0  0  0  0  0  0  0  0  0
   29.4788  -20.2833   -5.9435 C   0  0  0  0  0  0  0  0  0  0  0  0
   28.9198  -20.2561   -7.1904 C   0  0  0  0  0  0  0  0  0  0  0  0
   25.4556  -21.0823   -8.1035 O   0  0  0  0  0  0  0  0  0  0  0  0
   25.8280  -21.7460   -6.9276 O   0  0  0  0  0  0  0  0  0  0  0  0
  2  1  1  0
  3  2  2  0
  4  2  1  0
  5  4  1  0
  5  6  1  1
  7  8  2  0
  7  5  1  0
  9 10  1  0
 10 12  1  0
 10 11  2  0
 12 13  1  0
 14 13  1  0
 15 14  1  0
 16 15  1  6
 16 17  1  0
 17  7  1  0
 18 16  1  0
 19 18  2  0
 20 18  1  0
 21 20  1  0
 22 23  1  0
 21 22  1  1
 23 28  2  0
 24 25  2  0
 24 23  1  0
 25 26  1  0
 26 27  2  0
 28 27  1  0
 29 21  1  0
 29 30  1  0
 31 29  2  0
M  END
$$$$
