NRF.pdb
     RDKit          3D

 31 31  0  0  1  0  0  0  0  0999 V2000
   33.8575    4.0867   -0.3720 N   0  0  0  0  0  0  0  0  0  0  0  0
   32.4818    3.8109   -0.4109 C   0  0  0  0  0  0  0  0  0  0  0  0
   31.8471    3.2689    0.5303 O   0  0  0  0  0  0  0  0  0  0  0  0
   31.7003    4.1654   -1.6154 C   0  0  0  0  0  0  0  0  0  0  0  0
   31.2806    2.9639   -2.4307 C   0  0  2  0  0  0  0  0  0  0  0  0
   32.3706    2.2095   -2.9585 N   0  0  0  0  0  0  0  0  0  0  0  0
   30.2908    3.3929   -3.4401 C   0  0  0  0  0  0  0  0  0  0  0  0
   29.2547    4.0329   -3.1250 O   0  0  0  0  0  0  0  0  0  0  0  0
   30.3449    5.6625  -12.2567 N   0  0  0  0  0  0  0  0  0  0  0  0
   29.0084    5.4809  -11.8250 C   0  0  0  0  0  0  0  0  0  0  0  0
   28.0781    5.6772  -12.7149 N   0  0  0  0  0  0  0  0  0  0  0  0
   28.6517    5.1100  -10.5128 N   0  0  0  0  0  0  0  0  0  0  0  0
   29.6287    4.8328   -9.4608 C   0  0  0  0  0  0  0  0  0  0  0  0
   28.9688    4.3849   -8.1997 C   0  0  0  0  0  0  0  0  0  0  0  0
   29.9035    4.0524   -7.1234 C   0  0  0  0  0  0  0  0  0  0  0  0
   29.4651    3.5531   -5.8139 C   0  0  2  0  0  0  0  0  0  0  0  0
   30.4245    3.1174   -4.8533 N   0  0  0  0  0  0  0  0  0  0  0  0
   28.4166    2.4870   -5.9086 C   0  0  0  0  0  0  0  0  0  0  0  0
   28.7158    1.3059   -6.2049 O   0  0  0  0  0  0  0  0  0  0  0  0
   27.0622    5.5830  -12.5105 N   0  0  0  0  0  0  0  0  0  0  0  0
   27.0427    2.7673   -5.6671 C   0  0  2  0  0  0  0  0  0  0  0  0
   26.0224    1.7131   -5.6688 C   0  0  0  0  0  0  0  0  0  0  0  0
   26.3240    0.6914   -4.6040 C   0  0  0  0  0  0  0  0  0  0  0  0
   26.0443    1.1827   -3.2405 C   0  0  0  0  0  0  0  0  0  0  0  0
   26.9953    1.8272   -2.4718 C   0  0  0  0  0  0  0  0  0  0  0  0
   26.6434    2.2686   -1.2198 C   0  0  0  0  0  0  0  0  0  0  0  0
   25.3949    2.1060   -0.6836 C   0  0  0  0  0  0  0  0  0  0  0  0
   24.4500    1.4634   -1.4517 C   0  0  0  0  0  0  0  0  0  0  0  0
   24.7746    1.0147   -2.7012 C   0  0  0  0  0  0  0  0  0  0  0  0
   24.6698    2.2904   -5.5588 O   0  0  0  0  0  0  0  0  0  0  0  0
   23.5406    1.4798   -5.7316 O   0  0  0  0  0  0  0  0  0  0  0  0
  2  1  1  0
  3  2  2  0
  4  2  1  0
  5  4  1  0
  5  6  1  6
  7  8  2  0
  7  5  1  0
  9 10  1  0
 10 12  1  0
 10 11  2  0
 12 13  1  0
 14 13  1  0
 15 14  1  0
 16 15  1  6
 16 17  1  0
 17  7  1  0
 18 16  1  0
 19 18  2  0
 20 18  1  0
 21 20  1  0
 22 23  1  0
 21 22  1  1
 23 28  2  0
 24 25  2  0
 24 23  1  0
 25 26  1  0
 26 27  2  0
 28 27  1  0
 29 21  1  0
 29 30  1  0
 31 29  2  0
M  END
$$$$
