NRF.pdb
     RDKit          3D

 31 31  0  0  1  0  0  0  0  0999 V2000
   17.3239  -22.7387  -11.7090 N   0  0  0  0  0  0  0  0  0  0  0  0
   17.9642  -21.6743  -12.3630 C   0  0  0  0  0  0  0  0  0  0  0  0
   17.3561  -20.7441  -12.9523 O   0  0  0  0  0  0  0  0  0  0  0  0
   19.4417  -21.6112  -12.3798 C   0  0  0  0  0  0  0  0  0  0  0  0
   20.0276  -21.6919  -13.7707 C   0  0  2  0  0  0  0  0  0  0  0  0
   19.5346  -22.7826  -14.5473 N   0  0  0  0  0  0  0  0  0  0  0  0
   21.5005  -21.6293  -13.6736 C   0  0  0  0  0  0  0  0  0  0  0  0
   22.0839  -20.7710  -12.9627 O   0  0  0  0  0  0  0  0  0  0  0  0
   27.7452  -24.9634  -17.1151 N   0  0  0  0  0  0  0  0  0  0  0  0
   27.1788  -26.0753  -16.4456 C   0  0  0  0  0  0  0  0  0  0  0  0
   27.9999  -27.0238  -16.0960 N   0  0  0  0  0  0  0  0  0  0  0  0
   25.8057  -26.1975  -16.1516 N   0  0  0  0  0  0  0  0  0  0  0  0
   24.8117  -25.1885  -16.5149 C   0  0  0  0  0  0  0  0  0  0  0  0
   25.1625  -23.8463  -15.9656 C   0  0  0  0  0  0  0  0  0  0  0  0
   24.6428  -23.5987  -14.6197 C   0  0  0  0  0  0  0  0  0  0  0  0
   23.8038  -22.4392  -14.2909 C   0  0  2  0  0  0  0  0  0  0  0  0
   22.3836  -22.5329  -14.3769 N   0  0  0  0  0  0  0  0  0  0  0  0
   24.2106  -21.1914  -15.0136 C   0  0  0  0  0  0  0  0  0  0  0  0
   23.5635  -20.7731  -16.0028 O   0  0  0  0  0  0  0  0  0  0  0  0
   27.7051  -27.8678  -15.5636 N   0  0  0  0  0  0  0  0  0  0  0  0
   25.3432  -20.4304  -14.6101 C   0  0  2  0  0  0  0  0  0  0  0  0
   25.7552  -19.2142  -15.3197 C   0  0  0  0  0  0  0  0  0  0  0  0
   26.8761  -18.5317  -14.5807 C   0  0  0  0  0  0  0  0  0  0  0  0
   27.3397  -17.3005  -15.2498 C   0  0  0  0  0  0  0  0  0  0  0  0
   28.2547  -17.3156  -16.2858 C   0  0  0  0  0  0  0  0  0  0  0  0
   28.6168  -16.1237  -16.8641 C   0  0  0  0  0  0  0  0  0  0  0  0
   28.1201  -14.9106  -16.4710 C   0  0  0  0  0  0  0  0  0  0  0  0
   27.2091  -14.8989  -15.4388 C   0  0  0  0  0  0  0  0  0  0  0  0
   26.8321  -16.0713  -14.8463 C   0  0  0  0  0  0  0  0  0  0  0  0
   26.0785  -19.5112  -16.7276 O   0  0  0  0  0  0  0  0  0  0  0  0
   25.6137  -18.6740  -17.7498 O   0  0  0  0  0  0  0  0  0  0  0  0
  2  1  1  0
  3  2  2  0
  4  2  1  0
  5  4  1  0
  5  6  1  1
  7  8  2  0
  7  5  1  0
  9 10  1  0
 10 12  1  0
 10 11  2  0
 12 13  1  0
 14 13  1  0
 15 14  1  0
 16 15  1  6
 16 17  1  0
 17  7  1  0
 18 16  1  0
 19 18  2  0
 20 18  1  0
 21 20  1  0
 22 23  1  0
 21 22  1  1
 23 28  2  0
 24 25  2  0
 24 23  1  0
 25 26  1  0
 26 27  2  0
 28 27  1  0
 29 21  1  0
 29 30  1  0
 31 29  2  0
M  END
$$$$
