NRF.pdb
     RDKit          3D

 31 31  0  0  1  0  0  0  0  0999 V2000
   23.9404  -26.8837  -15.7380 N   0  0  0  0  0  0  0  0  0  0  0  0
   23.6729  -25.5324  -15.4680 C   0  0  0  0  0  0  0  0  0  0  0  0
   22.5686  -24.9755  -15.6973 O   0  0  0  0  0  0  0  0  0  0  0  0
   24.7302  -24.6830  -14.8782 C   0  0  0  0  0  0  0  0  0  0  0  0
   24.2297  -23.3278  -14.4340 C   0  0  2  0  0  0  0  0  0  0  0  0
   23.7060  -22.5258  -15.4914 N   0  0  0  0  0  0  0  0  0  0  0  0
   25.2814  -22.6688  -13.6325 C   0  0  0  0  0  0  0  0  0  0  0  0
   26.3979  -23.2105  -13.4267 O   0  0  0  0  0  0  0  0  0  0  0  0
   27.6436  -18.0107  -16.9012 N   0  0  0  0  0  0  0  0  0  0  0  0
   26.3183  -17.6474  -16.5588 C   0  0  0  0  0  0  0  0  0  0  0  0
   25.4384  -17.6864  -17.5181 N   0  0  0  0  0  0  0  0  0  0  0  0
   25.9223  -17.2554  -15.2642 N   0  0  0  0  0  0  0  0  0  0  0  0
   26.8071  -17.3076  -14.1012 C   0  0  0  0  0  0  0  0  0  0  0  0
   27.1562  -18.7118  -13.7369 C   0  0  0  0  0  0  0  0  0  0  0  0
   26.3904  -19.2427  -12.6079 C   0  0  0  0  0  0  0  0  0  0  0  0
   26.1941  -20.6807  -12.3847 C   0  0  2  0  0  0  0  0  0  0  0  0
   25.1202  -21.3668  -13.0243 N   0  0  0  0  0  0  0  0  0  0  0  0
   26.1576  -21.0542  -10.9341 C   0  0  0  0  0  0  0  0  0  0  0  0
   25.0889  -21.4055  -10.3803 O   0  0  0  0  0  0  0  0  0  0  0  0
   24.4343  -17.4494  -17.3830 N   0  0  0  0  0  0  0  0  0  0  0  0
   27.3287  -21.0269  -10.1264 C   0  0  2  0  0  0  0  0  0  0  0  0
   27.2617  -20.9577   -8.6625 C   0  0  0  0  0  0  0  0  0  0  0  0
   28.5531  -20.4198   -8.1046 C   0  0  0  0  0  0  0  0  0  0  0  0
   28.5370  -20.2979   -6.6336 C   0  0  0  0  0  0  0  0  0  0  0  0
   27.9738  -19.2165   -5.9824 C   0  0  0  0  0  0  0  0  0  0  0  0
   27.9860  -19.1934   -4.6093 C   0  0  0  0  0  0  0  0  0  0  0  0
   28.5285  -20.1874   -3.8408 C   0  0  0  0  0  0  0  0  0  0  0  0
   29.0888  -21.2630   -4.4925 C   0  0  0  0  0  0  0  0  0  0  0  0
   29.0894  -21.3104   -5.8584 C   0  0  0  0  0  0  0  0  0  0  0  0
   26.0749  -20.1988   -8.2260 O   0  0  0  0  0  0  0  0  0  0  0  0
   25.8446  -18.9067   -8.7152 O   0  0  0  0  0  0  0  0  0  0  0  0
  2  1  1  0
  3  2  2  0
  4  2  1  0
  5  4  1  0
  5  6  1  6
  7  8  2  0
  7  5  1  0
  9 10  1  0
 10 12  1  0
 10 11  2  0
 12 13  1  0
 14 13  1  0
 15 14  1  0
 16 15  1  1
 16 17  1  0
 17  7  1  0
 18 16  1  0
 19 18  2  0
 20 18  1  0
 21 20  1  0
 22 23  1  0
 21 22  1  6
 23 28  2  0
 24 25  2  0
 24 23  1  0
 25 26  1  0
 26 27  2  0
 28 27  1  0
 29 21  1  0
 29 30  1  0
 31 29  2  0
M  END
$$$$
