NRF.pdb
     RDKit          3D

 31 31  0  0  1  0  0  0  0  0999 V2000
   22.2694  -22.5349   -7.0715 N   0  0  0  0  0  0  0  0  0  0  0  0
   21.4591  -22.0294   -8.1002 C   0  0  0  0  0  0  0  0  0  0  0  0
   20.2124  -22.1885   -8.1549 O   0  0  0  0  0  0  0  0  0  0  0  0
   22.0747  -21.2586   -9.2020 C   0  0  0  0  0  0  0  0  0  0  0  0
   23.5758  -21.1330   -9.0777 C   0  0  2  0  0  0  0  0  0  0  0  0
   24.0098  -20.5218   -7.8636 N   0  0  0  0  0  0  0  0  0  0  0  0
   24.1059  -20.4995  -10.3026 C   0  0  0  0  0  0  0  0  0  0  0  0
   24.2232  -19.2515  -10.4082 O   0  0  0  0  0  0  0  0  0  0  0  0
   28.8200  -21.6099  -17.5754 N   0  0  0  0  0  0  0  0  0  0  0  0
   28.4510  -22.6286  -16.6634 C   0  0  0  0  0  0  0  0  0  0  0  0
   28.3000  -23.8242  -17.1570 N   0  0  0  0  0  0  0  0  0  0  0  0
   28.2442  -22.4110  -15.2863 N   0  0  0  0  0  0  0  0  0  0  0  0
   28.3541  -21.0974  -14.6533 C   0  0  0  0  0  0  0  0  0  0  0  0
   27.0134  -20.5249  -14.3352 C   0  0  0  0  0  0  0  0  0  0  0  0
   26.4171  -21.0509  -13.1062 C   0  0  0  0  0  0  0  0  0  0  0  0
   25.1023  -20.6223  -12.6122 C   0  0  2  0  0  0  0  0  0  0  0  0
   24.5268  -21.2467  -11.4668 N   0  0  0  0  0  0  0  0  0  0  0  0
   24.0502  -20.5957  -13.6786 C   0  0  0  0  0  0  0  0  0  0  0  0
   23.3975  -21.6251  -13.9731 O   0  0  0  0  0  0  0  0  0  0  0  0
   28.0379  -24.6511  -16.5825 N   0  0  0  0  0  0  0  0  0  0  0  0
   23.7474  -19.4069  -14.3994 C   0  0  2  0  0  0  0  0  0  0  0  0
   22.7103  -19.3696  -15.4365 C   0  0  0  0  0  0  0  0  0  0  0  0
   22.1329  -17.9832  -15.5493 C   0  0  0  0  0  0  0  0  0  0  0  0
   21.0915  -17.8774  -16.5899 C   0  0  0  0  0  0  0  0  0  0  0  0
   19.7596  -18.1507  -16.3408 C   0  0  0  0  0  0  0  0  0  0  0  0
   18.8540  -18.0083  -17.3634 C   0  0  0  0  0  0  0  0  0  0  0  0
   19.1963  -17.6079  -18.6265 C   0  0  0  0  0  0  0  0  0  0  0  0
   20.5237  -17.3366  -18.8715 C   0  0  0  0  0  0  0  0  0  0  0  0
   21.4449  -17.4705  -17.8709 C   0  0  0  0  0  0  0  0  0  0  0  0
   23.2261  -19.8941  -16.7147 O   0  0  0  0  0  0  0  0  0  0  0  0
   22.3902  -20.6304  -17.5639 O   0  0  0  0  0  0  0  0  0  0  0  0
  2  1  1  0
  3  2  2  0
  4  2  1  0
  5  4  1  0
  5  6  1  1
  7  8  2  0
  7  5  1  0
  9 10  1  0
 10 12  1  0
 10 11  2  0
 12 13  1  0
 14 13  1  0
 15 14  1  0
 16 15  1  6
 16 17  1  0
 17  7  1  0
 18 16  1  0
 19 18  2  0
 20 18  1  0
 21 20  1  0
 22 23  1  0
 21 22  1  6
 23 28  2  0
 24 25  2  0
 24 23  1  0
 25 26  1  0
 26 27  2  0
 28 27  1  0
 29 21  1  0
 29 30  1  0
 31 29  2  0
M  END
$$$$
