NRF.pdb
     RDKit          3D

 31 31  0  0  1  0  0  0  0  0999 V2000
   16.2813  -15.1599  -15.0464 N   0  0  0  0  0  0  0  0  0  0  0  0
   17.4847  -14.6913  -14.4964 C   0  0  0  0  0  0  0  0  0  0  0  0
   18.2710  -15.4018  -13.8187 O   0  0  0  0  0  0  0  0  0  0  0  0
   17.8834  -13.2828  -14.7068 C   0  0  0  0  0  0  0  0  0  0  0  0
   16.8336  -12.4652  -15.4238 C   0  0  2  0  0  0  0  0  0  0  0  0
   16.5182  -12.9413  -16.7313 N   0  0  0  0  0  0  0  0  0  0  0  0
   17.2187  -11.0399  -15.3705 C   0  0  0  0  0  0  0  0  0  0  0  0
   18.0805  -10.5546  -16.1478 O   0  0  0  0  0  0  0  0  0  0  0  0
   14.9392   -8.2240   -9.4613 N   0  0  0  0  0  0  0  0  0  0  0  0
   15.4433   -6.9077   -9.3232 C   0  0  0  0  0  0  0  0  0  0  0  0
   15.7447   -6.5242   -8.1157 N   0  0  0  0  0  0  0  0  0  0  0  0
   15.6258   -6.0206  -10.4031 N   0  0  0  0  0  0  0  0  0  0  0  0
   15.3800   -6.3878  -11.7970 C   0  0  0  0  0  0  0  0  0  0  0  0
   16.3195   -7.4499  -12.2612 C   0  0  0  0  0  0  0  0  0  0  0  0
   16.2374   -7.7333  -13.6950 C   0  0  0  0  0  0  0  0  0  0  0  0
   17.0783   -8.7385  -14.3575 C   0  0  2  0  0  0  0  0  0  0  0  0
   16.6490  -10.0959  -14.4349 N   0  0  0  0  0  0  0  0  0  0  0  0
   18.4915   -8.7479  -13.8596 C   0  0  0  0  0  0  0  0  0  0  0  0
   18.8762   -9.5880  -13.0120 O   0  0  0  0  0  0  0  0  0  0  0  0
   16.0826   -5.5670   -7.8875 N   0  0  0  0  0  0  0  0  0  0  0  0
   19.4535   -7.8085  -14.3253 C   0  0  1  0  0  0  0  0  0  0  0  0
   20.8952   -8.0292  -14.1666 C   0  0  0  0  0  0  0  0  0  0  0  0
   21.2991   -9.3302  -14.8088 C   0  0  0  0  0  0  0  0  0  0  0  0
   22.7590   -9.5476  -14.7978 C   0  0  0  0  0  0  0  0  0  0  0  0
   23.5828   -9.1219  -15.8229 C   0  0  0  0  0  0  0  0  0  0  0  0
   24.9334   -9.3494  -15.7221 C   0  0  0  0  0  0  0  0  0  0  0  0
   25.5168   -9.9790  -14.6562 C   0  0  0  0  0  0  0  0  0  0  0  0
   24.6936  -10.4020  -13.6369 C   0  0  0  0  0  0  0  0  0  0  0  0
   23.3460  -10.1877  -13.7128 C   0  0  0  0  0  0  0  0  0  0  0  0
   21.6618   -6.8703  -14.6608 O   0  0  0  0  0  0  0  0  0  0  0  0
   22.8362   -6.4718  -14.0096 O   0  0  0  0  0  0  0  0  0  0  0  0
  2  1  1  0
  3  2  2  0
  4  2  1  0
  5  4  1  0
  5  6  1  6
  7  8  2  0
  7  5  1  0
  9 10  1  0
 10 12  1  0
 10 11  2  0
 12 13  1  0
 14 13  1  0
 15 14  1  0
 16 15  1  1
 16 17  1  0
 17  7  1  0
 18 16  1  0
 19 18  2  0
 20 18  1  0
 21 20  1  0
 22 23  1  0
 21 22  1  6
 23 28  2  0
 24 25  2  0
 24 23  1  0
 25 26  1  0
 26 27  2  0
 28 27  1  0
 29 21  1  0
 29 30  1  0
 31 29  2  0
M  END
$$$$
