NRF.pdb
     RDKit          3D

 31 31  0  0  1  0  0  0  0  0999 V2000
   21.6722  -10.4716    6.3454 N   0  0  0  0  0  0  0  0  0  0  0  0
   20.7561  -11.3707    5.7775 C   0  0  0  0  0  0  0  0  0  0  0  0
   20.1890  -11.1896    4.6693 O   0  0  0  0  0  0  0  0  0  0  0  0
   20.4138  -12.6161    6.4979 C   0  0  0  0  0  0  0  0  0  0  0  0
   18.9274  -12.8847    6.5544 C   0  0  2  0  0  0  0  0  0  0  0  0
   18.1836  -11.8935    7.2614 N   0  0  0  0  0  0  0  0  0  0  0  0
   18.7088  -14.2660    7.0307 C   0  0  0  0  0  0  0  0  0  0  0  0
   18.6198  -14.5408    8.2550 O   0  0  0  0  0  0  0  0  0  0  0  0
   15.6085  -21.0392    2.1979 N   0  0  0  0  0  0  0  0  0  0  0  0
   14.9888  -19.7782    2.3761 C   0  0  0  0  0  0  0  0  0  0  0  0
   13.8600  -19.5920    1.7540 N   0  0  0  0  0  0  0  0  0  0  0  0
   15.5254  -18.7463    3.1721 N   0  0  0  0  0  0  0  0  0  0  0  0
   16.7190  -18.9070    4.0015 C   0  0  0  0  0  0  0  0  0  0  0  0
   16.9500  -17.7171    4.8716 C   0  0  0  0  0  0  0  0  0  0  0  0
   18.1173  -17.8363    5.7468 C   0  0  0  0  0  0  0  0  0  0  0  0
   18.5724  -16.7469    6.6201 C   0  0  2  0  0  0  0  0  0  0  0  0
   18.5820  -15.4024    6.1455 N   0  0  0  0  0  0  0  0  0  0  0  0
   19.9105  -17.0076    7.2417 C   0  0  0  0  0  0  0  0  0  0  0  0
   20.9689  -16.8863    6.5804 O   0  0  0  0  0  0  0  0  0  0  0  0
   13.3448  -18.6881    1.7627 N   0  0  0  0  0  0  0  0  0  0  0  0
   20.0374  -17.4016    8.6030 C   0  0  1  0  0  0  0  0  0  0  0  0
   21.3428  -17.6724    9.2153 C   0  0  0  0  0  0  0  0  0  0  0  0
   21.6315  -16.6664   10.2983 C   0  0  0  0  0  0  0  0  0  0  0  0
   22.8800  -16.9537   11.0315 C   0  0  0  0  0  0  0  0  0  0  0  0
   22.9193  -17.7786   12.1400 C   0  0  0  0  0  0  0  0  0  0  0  0
   24.1282  -18.0064   12.7507 C   0  0  0  0  0  0  0  0  0  0  0  0
   25.3071  -17.4594   12.3221 C   0  0  0  0  0  0  0  0  0  0  0  0
   25.2645  -16.6381   11.2178 C   0  0  0  0  0  0  0  0  0  0  0  0
   24.0742  -16.3953   10.5918 C   0  0  0  0  0  0  0  0  0  0  0  0
   21.4265  -19.0702    9.6780 O   0  0  0  0  0  0  0  0  0  0  0  0
   22.6420  -19.7633    9.6127 O   0  0  0  0  0  0  0  0  0  0  0  0
  2  1  1  0
  3  2  2  0
  4  2  1  0
  5  4  1  0
  5  6  1  1
  7  8  2  0
  7  5  1  0
  9 10  1  0
 10 12  1  0
 10 11  2  0
 12 13  1  0
 14 13  1  0
 15 14  1  0
 16 15  1  6
 16 17  1  0
 17  7  1  0
 18 16  1  0
 19 18  2  0
 20 18  1  0
 21 20  1  0
 22 23  1  0
 21 22  1  6
 23 28  2  0
 24 25  2  0
 24 23  1  0
 25 26  1  0
 26 27  2  0
 28 27  1  0
 29 21  1  0
 29 30  1  0
 31 29  2  0
M  END
$$$$
