NRF.pdb
     RDKit          3D

 31 31  0  0  1  0  0  0  0  0999 V2000
   30.4490  -23.5955  -17.2642 N   0  0  0  0  0  0  0  0  0  0  0  0
   30.2531  -22.3381  -17.8568 C   0  0  0  0  0  0  0  0  0  0  0  0
   31.1340  -21.7263  -18.5140 O   0  0  0  0  0  0  0  0  0  0  0  0
   28.9443  -21.6631  -17.7201 C   0  0  0  0  0  0  0  0  0  0  0  0
   27.9861  -22.3959  -16.8094 C   0  0  2  0  0  0  0  0  0  0  0  0
   27.5920  -23.6796  -17.2915 N   0  0  0  0  0  0  0  0  0  0  0  0
   26.8611  -21.4979  -16.4767 C   0  0  0  0  0  0  0  0  0  0  0  0
   27.0468  -20.3433  -16.0131 O   0  0  0  0  0  0  0  0  0  0  0  0
   20.4218  -16.6858  -18.8260 N   0  0  0  0  0  0  0  0  0  0  0  0
   20.2192  -18.0333  -18.4403 C   0  0  0  0  0  0  0  0  0  0  0  0
   18.9924  -18.3866  -18.1836 N   0  0  0  0  0  0  0  0  0  0  0  0
   21.2569  -18.9800  -18.3239 N   0  0  0  0  0  0  0  0  0  0  0  0
   22.6700  -18.6525  -18.5085 C   0  0  0  0  0  0  0  0  0  0  0  0
   23.5240  -19.8761  -18.5087 C   0  0  0  0  0  0  0  0  0  0  0  0
   23.3396  -20.7317  -17.3353 C   0  0  0  0  0  0  0  0  0  0  0  0
   24.4016  -20.9715  -16.3499 C   0  0  2  0  0  0  0  0  0  0  0  0
   25.4728  -21.8631  -16.6509 N   0  0  0  0  0  0  0  0  0  0  0  0
   23.8787  -21.3472  -14.9970 C   0  0  0  0  0  0  0  0  0  0  0  0
   23.5088  -22.5186  -14.7457 O   0  0  0  0  0  0  0  0  0  0  0  0
   18.7166  -19.3601  -17.9409 N   0  0  0  0  0  0  0  0  0  0  0  0
   23.7802  -20.3955  -13.9438 C   0  0  2  0  0  0  0  0  0  0  0  0
   23.2245  -20.7434  -12.6314 C   0  0  0  0  0  0  0  0  0  0  0  0
   23.7525  -19.8086  -11.5752 C   0  0  0  0  0  0  0  0  0  0  0  0
   23.2257  -20.1063  -10.2289 C   0  0  0  0  0  0  0  0  0  0  0  0
   23.9526  -20.8042   -9.2826 C   0  0  0  0  0  0  0  0  0  0  0  0
   23.3922  -21.0207   -8.0476 C   0  0  0  0  0  0  0  0  0  0  0  0
   22.1445  -20.5820   -7.6957 C   0  0  0  0  0  0  0  0  0  0  0  0
   21.4230  -19.8874   -8.6405 C   0  0  0  0  0  0  0  0  0  0  0  0
   21.9580  -19.6585   -9.8771 C   0  0  0  0  0  0  0  0  0  0  0  0
   21.7515  -20.7968  -12.6817 O   0  0  0  0  0  0  0  0  0  0  0  0
   21.0561  -21.7766  -11.9617 O   0  0  0  0  0  0  0  0  0  0  0  0
  2  1  1  0
  3  2  2  0
  4  2  1  0
  5  4  1  0
  5  6  1  6
  7  8  2  0
  7  5  1  0
  9 10  1  0
 10 12  1  0
 10 11  2  0
 12 13  1  0
 14 13  1  0
 15 14  1  0
 16 15  1  6
 16 17  1  0
 17  7  1  0
 18 16  1  0
 19 18  2  0
 20 18  1  0
 21 20  1  0
 22 23  1  0
 21 22  1  6
 23 28  2  0
 24 25  2  0
 24 23  1  0
 25 26  1  0
 26 27  2  0
 28 27  1  0
 29 21  1  0
 29 30  1  0
 31 29  2  0
M  END
$$$$
