NRF.pdb
     RDKit          3D

 31 31  0  0  1  0  0  0  0  0999 V2000
   29.7811  -19.0650  -18.4431 N   0  0  0  0  0  0  0  0  0  0  0  0
   28.4924  -19.2939  -18.9502 C   0  0  0  0  0  0  0  0  0  0  0  0
   28.1755  -19.1421  -20.1581 O   0  0  0  0  0  0  0  0  0  0  0  0
   27.4181  -19.7413  -18.0376 C   0  0  0  0  0  0  0  0  0  0  0  0
   27.6536  -21.1216  -17.4684 C   0  0  2  0  0  0  0  0  0  0  0  0
   27.6838  -22.1578  -18.4488 N   0  0  0  0  0  0  0  0  0  0  0  0
   26.6983  -21.3534  -16.3655 C   0  0  0  0  0  0  0  0  0  0  0  0
   25.6686  -22.0603  -16.5156 O   0  0  0  0  0  0  0  0  0  0  0  0
   23.3580  -20.2054   -8.3239 N   0  0  0  0  0  0  0  0  0  0  0  0
   24.3756  -21.1860   -8.4162 C   0  0  0  0  0  0  0  0  0  0  0  0
   24.2735  -22.2072   -7.6146 N   0  0  0  0  0  0  0  0  0  0  0  0
   25.4626  -21.1063   -9.3099 N   0  0  0  0  0  0  0  0  0  0  0  0
   25.6293  -20.0253  -10.2805 C   0  0  0  0  0  0  0  0  0  0  0  0
   25.1051  -20.4058  -11.6247 C   0  0  0  0  0  0  0  0  0  0  0  0
   26.1403  -20.5462  -12.6502 C   0  0  0  0  0  0  0  0  0  0  0  0
   25.8347  -20.8546  -14.0530 C   0  0  2  0  0  0  0  0  0  0  0  0
   26.8609  -20.7959  -15.0413 N   0  0  0  0  0  0  0  0  0  0  0  0
   24.6623  -20.0882  -14.5849 C   0  0  0  0  0  0  0  0  0  0  0  0
   24.6967  -18.8392  -14.6912 O   0  0  0  0  0  0  0  0  0  0  0  0
   24.9673  -22.9821   -7.5845 N   0  0  0  0  0  0  0  0  0  0  0  0
   23.4652  -20.7414  -14.9907 C   0  0  1  0  0  0  0  0  0  0  0  0
   22.2635  -19.9929  -15.3756 C   0  0  0  0  0  0  0  0  0  0  0  0
   21.8904  -20.3000  -16.8021 C   0  0  0  0  0  0  0  0  0  0  0  0
   20.6278  -19.6577  -17.2169 C   0  0  0  0  0  0  0  0  0  0  0  0
   19.3888  -20.1325  -16.8295 C   0  0  0  0  0  0  0  0  0  0  0  0
   18.2651  -19.4618  -17.2463 C   0  0  0  0  0  0  0  0  0  0  0  0
   18.3007  -18.3406  -18.0302 C   0  0  0  0  0  0  0  0  0  0  0  0
   19.5363  -17.8704  -18.4145 C   0  0  0  0  0  0  0  0  0  0  0  0
   20.6700  -18.5195  -18.0131 C   0  0  0  0  0  0  0  0  0  0  0  0
   21.1664  -20.2325  -14.4197 O   0  0  0  0  0  0  0  0  0  0  0  0
   20.3315  -19.1790  -14.0256 O   0  0  0  0  0  0  0  0  0  0  0  0
  2  1  1  0
  3  2  2  0
  4  2  1  0
  5  4  1  0
  5  6  1  6
  7  8  2  0
  7  5  1  0
  9 10  1  0
 10 12  1  0
 10 11  2  0
 12 13  1  0
 14 13  1  0
 15 14  1  0
 16 15  1  1
 16 17  1  0
 17  7  1  0
 18 16  1  0
 19 18  2  0
 20 18  1  0
 21 20  1  0
 22 23  1  0
 21 22  1  6
 23 28  2  0
 24 25  2  0
 24 23  1  0
 25 26  1  0
 26 27  2  0
 28 27  1  0
 29 21  1  0
 29 30  1  0
 31 29  2  0
M  END
$$$$
