NRF.pdb
     RDKit          3D

 31 31  0  0  1  0  0  0  0  0999 V2000
   24.9152  -16.7071  -17.5717 N   0  0  0  0  0  0  0  0  0  0  0  0
   23.9724  -17.4550  -16.8492 C   0  0  0  0  0  0  0  0  0  0  0  0
   22.7385  -17.2105  -16.8414 O   0  0  0  0  0  0  0  0  0  0  0  0
   24.4218  -18.6067  -16.0375 C   0  0  0  0  0  0  0  0  0  0  0  0
   25.9245  -18.6877  -15.8954 C   0  0  2  0  0  0  0  0  0  0  0  0
   26.6330  -18.5602  -17.1273 N   0  0  0  0  0  0  0  0  0  0  0  0
   26.2668  -19.8962  -15.1175 C   0  0  0  0  0  0  0  0  0  0  0  0
   25.4594  -20.8515  -14.9837 O   0  0  0  0  0  0  0  0  0  0  0  0
   31.0421  -24.6619  -15.4894 N   0  0  0  0  0  0  0  0  0  0  0  0
   30.7615  -24.2454  -16.8136 C   0  0  0  0  0  0  0  0  0  0  0  0
   31.2011  -25.0124  -17.7699 N   0  0  0  0  0  0  0  0  0  0  0  0
   30.0503  -23.0710  -17.1321 N   0  0  0  0  0  0  0  0  0  0  0  0
   29.5088  -22.1595  -16.1250 C   0  0  0  0  0  0  0  0  0  0  0  0
   29.6716  -22.7032  -14.7451 C   0  0  0  0  0  0  0  0  0  0  0  0
   29.1929  -21.8072  -13.6911 C   0  0  0  0  0  0  0  0  0  0  0  0
   27.8375  -21.2422  -13.6811 C   0  0  2  0  0  0  0  0  0  0  0  0
   27.5375  -20.0814  -14.4527 N   0  0  0  0  0  0  0  0  0  0  0  0
   27.3056  -21.0067  -12.3003 C   0  0  0  0  0  0  0  0  0  0  0  0
   28.0743  -20.7572  -11.3416 O   0  0  0  0  0  0  0  0  0  0  0  0
   31.0395  -24.8174  -18.7791 N   0  0  0  0  0  0  0  0  0  0  0  0
   25.9117  -21.0553  -12.0188 C   0  0  1  0  0  0  0  0  0  0  0  0
   25.3835  -20.8342  -10.6680 C   0  0  0  0  0  0  0  0  0  0  0  0
   25.9678  -19.5783  -10.0768 C   0  0  0  0  0  0  0  0  0  0  0  0
   26.6669  -19.8160   -8.7988 C   0  0  0  0  0  0  0  0  0  0  0  0
   25.9943  -20.0756   -7.6194 C   0  0  0  0  0  0  0  0  0  0  0  0
   26.7251  -20.3039   -6.4792 C   0  0  0  0  0  0  0  0  0  0  0  0
   28.0930  -20.2892   -6.4420 C   0  0  0  0  0  0  0  0  0  0  0  0
   28.7600  -20.0301   -7.6183 C   0  0  0  0  0  0  0  0  0  0  0  0
   28.0562  -19.7997   -8.7669 C   0  0  0  0  0  0  0  0  0  0  0  0
   23.9088  -20.8477  -10.6715 O   0  0  0  0  0  0  0  0  0  0  0  0
   23.2029  -21.1110   -9.4907 O   0  0  0  0  0  0  0  0  0  0  0  0
  2  1  1  0
  3  2  2  0
  4  2  1  0
  5  4  1  0
  5  6  1  6
  7  8  2  0
  7  5  1  0
  9 10  1  0
 10 12  1  0
 10 11  2  0
 12 13  1  0
 14 13  1  0
 15 14  1  0
 16 15  1  1
 16 17  1  0
 17  7  1  0
 18 16  1  0
 19 18  2  0
 20 18  1  0
 21 20  1  0
 22 23  1  0
 21 22  1  1
 23 28  2  0
 24 25  2  0
 24 23  1  0
 25 26  1  0
 26 27  2  0
 28 27  1  0
 29 21  1  0
 29 30  1  0
 31 29  2  0
M  END
$$$$
