GQN.pdb
     RDKit          3D

 22 21  0  0  1  0  0  0  0  0999 V2000
   25.2407  -23.9640  -15.0828 N   0  0  0  0  0  0  0  0  0  0  0  0
   23.9355  -24.5652  -14.8370 C   0  0  0  0  0  0  0  0  0  0  0  0
   23.0848  -23.6228  -14.0650 C   0  0  0  0  0  0  0  0  0  0  0  0
   23.5256  -22.7582  -13.2859 O   0  0  0  0  0  0  0  0  0  0  0  0
   22.0862  -19.3001  -13.8399 N   0  0  0  0  0  0  0  0  0  0  0  0
   20.8199  -19.9058  -14.0572 C   0  0  0  0  0  0  0  0  0  0  0  0
   19.7745  -19.4831  -13.5386 O   0  0  0  0  0  0  0  0  0  0  0  0
   20.7592  -21.0939  -14.9445 C   0  0  0  0  0  0  0  0  0  0  0  0
   19.8559  -22.1742  -14.3339 C   0  0  0  0  0  0  0  0  0  0  0  0
   20.7346  -22.9899  -13.4138 C   0  0  2  0  0  0  0  0  0  0  0  0
   21.6781  -23.7111  -14.2231 N   0  0  0  0  0  0  0  0  0  0  0  0
   19.9522  -23.8649  -12.5163 C   0  0  0  0  0  0  0  0  0  0  0  0
   19.5485  -24.9909  -12.8850 O   0  0  0  0  0  0  0  0  0  0  0  0
   17.7391  -25.9131   -8.2688 N   0  0  0  0  0  0  0  0  0  0  0  0
   18.5007  -24.7829   -7.8484 C   0  0  0  0  0  0  0  0  0  0  0  0
   18.5755  -24.5681   -6.6197 O   0  0  0  0  0  0  0  0  0  0  0  0
   19.1477  -23.9436   -8.8707 C   0  0  0  0  0  0  0  0  0  0  0  0
   18.9596  -24.3566  -10.2812 C   0  0  2  0  0  0  0  0  0  0  0  0
   19.6444  -23.4348  -11.2082 N   0  0  0  0  0  0  0  0  0  0  0  0
   17.5325  -24.4939  -10.7026 C   0  0  0  0  0  0  0  0  0  0  0  0
   16.9755  -25.7775  -10.6787 O   0  0  0  0  0  0  0  0  0  0  0  0
   16.7873  -23.5835  -11.0714 O   0  0  0  0  0  0  0  0  0  0  0  0
  2  1  1  0
  2  3  1  0
  3  4  2  0
  3 11  1  0
  6  5  1  0
  6  7  2  0
  8  6  1  0
  9  8  1  0
 10 12  1  0
 10  9  1  6
 11 10  1  0
 12 13  2  0
 15 14  1  0
 16 15  2  0
 17 15  1  0
 18 17  1  1
 19 12  1  0
 19 18  1  0
 20 21  1  0
 20 18  1  0
 22 20  2  0
M  END
$$$$
