GQN.pdb
     RDKit          3D

 22 21  0  0  1  0  0  0  0  0999 V2000
   21.9615  -15.7988  -17.9105 N   0  0  0  0  0  0  0  0  0  0  0  0
   22.3339  -14.4809  -18.4107 C   0  0  0  0  0  0  0  0  0  0  0  0
   22.6070  -13.5685  -17.2702 C   0  0  0  0  0  0  0  0  0  0  0  0
   22.1636  -13.7333  -16.1192 O   0  0  0  0  0  0  0  0  0  0  0  0
   27.7594  -10.6946  -16.2836 N   0  0  0  0  0  0  0  0  0  0  0  0
   27.2912  -11.9706  -15.8708 C   0  0  0  0  0  0  0  0  0  0  0  0
   28.0438  -12.8510  -15.4248 O   0  0  0  0  0  0  0  0  0  0  0  0
   25.8377  -12.2489  -15.9832 C   0  0  0  0  0  0  0  0  0  0  0  0
   25.0994  -11.0276  -16.5480 C   0  0  0  0  0  0  0  0  0  0  0  0
   23.6306  -11.3831  -16.5462 C   0  0  2  0  0  0  0  0  0  0  0  0
   23.4259  -12.4344  -17.5044 N   0  0  0  0  0  0  0  0  0  0  0  0
   22.7658  -10.2081  -16.7809 C   0  0  0  0  0  0  0  0  0  0  0  0
   22.5810   -9.7479  -17.9301 O   0  0  0  0  0  0  0  0  0  0  0  0
   19.3954   -6.2921  -16.0863 N   0  0  0  0  0  0  0  0  0  0  0  0
   19.0431   -7.4038  -15.2652 C   0  0  0  0  0  0  0  0  0  0  0  0
   17.9332   -7.3633  -14.6925 O   0  0  0  0  0  0  0  0  0  0  0  0
   19.9929   -8.5220  -15.1395 C   0  0  0  0  0  0  0  0  0  0  0  0
   21.2367   -8.4260  -15.9389 C   0  0  2  0  0  0  0  0  0  0  0  0
   22.1255   -9.5782  -15.6927 N   0  0  0  0  0  0  0  0  0  0  0  0
   22.0117   -7.1651  -15.7320 C   0  0  0  0  0  0  0  0  0  0  0  0
   23.3034   -7.2831  -15.2067 O   0  0  0  0  0  0  0  0  0  0  0  0
   21.6270   -6.0204  -15.9804 O   0  0  0  0  0  0  0  0  0  0  0  0
  2  1  1  0
  2  3  1  0
  3  4  2  0
  3 11  1  0
  6  5  1  0
  6  7  2  0
  8  6  1  0
  9  8  1  0
 10 12  1  0
 10  9  1  6
 11 10  1  0
 12 13  2  0
 15 14  1  0
 16 15  2  0
 17 15  1  0
 18 17  1  1
 19 12  1  0
 19 18  1  0
 20 21  1  0
 20 18  1  0
 22 20  2  0
M  END
$$$$
