GQN.pdb
     RDKit          3D

 22 21  0  0  1  0  0  0  0  0999 V2000
   28.7111  -22.5501  -16.4599 N   0  0  0  0  0  0  0  0  0  0  0  0
   28.2931  -21.3580  -15.7320 C   0  0  0  0  0  0  0  0  0  0  0  0
   27.0067  -21.6190  -15.0356 C   0  0  0  0  0  0  0  0  0  0  0  0
   26.2947  -22.6208  -15.2310 O   0  0  0  0  0  0  0  0  0  0  0  0
   24.0877  -20.7777   -9.9323 N   0  0  0  0  0  0  0  0  0  0  0  0
   25.4458  -21.1916   -9.9779 C   0  0  0  0  0  0  0  0  0  0  0  0
   25.9635  -21.8977   -9.0983 O   0  0  0  0  0  0  0  0  0  0  0  0
   26.2689  -20.7537  -11.1327 C   0  0  0  0  0  0  0  0  0  0  0  0
   25.4205  -19.9380  -12.1179 C   0  0  0  0  0  0  0  0  0  0  0  0
   25.3129  -20.7713  -13.3741 C   0  0  2  0  0  0  0  0  0  0  0  0
   26.5572  -20.6667  -14.0856 N   0  0  0  0  0  0  0  0  0  0  0  0
   24.1419  -20.4030  -14.1965 C   0  0  0  0  0  0  0  0  0  0  0  0
   24.1064  -19.3343  -14.8471 O   0  0  0  0  0  0  0  0  0  0  0  0
   19.6477  -20.5636  -16.8077 N   0  0  0  0  0  0  0  0  0  0  0  0
   20.2261  -21.8660  -16.7509 C   0  0  0  0  0  0  0  0  0  0  0  0
   19.7076  -22.7539  -17.4609 O   0  0  0  0  0  0  0  0  0  0  0  0
   21.3859  -22.0893  -15.8715 C   0  0  0  0  0  0  0  0  0  0  0  0
   21.8808  -20.9131  -15.1184 C   0  0  2  0  0  0  0  0  0  0  0  0
   23.0281  -21.2669  -14.2602 N   0  0  0  0  0  0  0  0  0  0  0  0
   20.8460  -20.2300  -14.2844 C   0  0  0  0  0  0  0  0  0  0  0  0
   20.0138  -19.3038  -14.9232 O   0  0  0  0  0  0  0  0  0  0  0  0
   20.6469  -20.4011  -13.0797 O   0  0  0  0  0  0  0  0  0  0  0  0
  2  1  1  0
  2  3  1  0
  3  4  2  0
  3 11  1  0
  6  5  1  0
  6  7  2  0
  8  6  1  0
  9  8  1  0
 10 12  1  0
 10  9  1  1
 11 10  1  0
 12 13  2  0
 15 14  1  0
 16 15  2  0
 17 15  1  0
 18 17  1  1
 19 12  1  0
 19 18  1  0
 20 21  1  0
 20 18  1  0
 22 20  2  0
M  END
$$$$
