GQN.pdb
     RDKit          3D

 22 21  0  0  1  0  0  0  0  0999 V2000
   15.9484  -11.8997  -13.1968 N   0  0  0  0  0  0  0  0  0  0  0  0
   16.2013  -11.3608  -11.8659 C   0  0  0  0  0  0  0  0  0  0  0  0
   16.1949   -9.8757  -11.9149 C   0  0  0  0  0  0  0  0  0  0  0  0
   16.0758   -9.2095  -12.9593 O   0  0  0  0  0  0  0  0  0  0  0  0
   14.6637   -6.5033   -7.0412 N   0  0  0  0  0  0  0  0  0  0  0  0
   13.8406   -7.1450   -8.0048 C   0  0  0  0  0  0  0  0  0  0  0  0
   12.6412   -7.3946   -7.8054 O   0  0  0  0  0  0  0  0  0  0  0  0
   14.4542   -7.5275   -9.3009 C   0  0  0  0  0  0  0  0  0  0  0  0
   15.9700   -7.2885   -9.2684 C   0  0  0  0  0  0  0  0  0  0  0  0
   16.4986   -7.7423  -10.6095 C   0  0  2  0  0  0  0  0  0  0  0  0
   16.3335   -9.1673  -10.6940 N   0  0  0  0  0  0  0  0  0  0  0  0
   17.8903   -7.3048  -10.8444 C   0  0  0  0  0  0  0  0  0  0  0  0
   18.8574   -7.8564  -10.2724 O   0  0  0  0  0  0  0  0  0  0  0  0
   22.0754   -5.6456  -13.3492 N   0  0  0  0  0  0  0  0  0  0  0  0
   21.4503   -6.9214  -13.4757 C   0  0  0  0  0  0  0  0  0  0  0  0
   22.0674   -7.8001  -14.1148 O   0  0  0  0  0  0  0  0  0  0  0  0
   20.1315   -7.1298  -12.8549 C   0  0  0  0  0  0  0  0  0  0  0  0
   19.5402   -5.9669  -12.1523 C   0  0  2  0  0  0  0  0  0  0  0  0
   18.1520   -6.2401  -11.7326 N   0  0  0  0  0  0  0  0  0  0  0  0
   19.5676   -4.6918  -12.9310 C   0  0  0  0  0  0  0  0  0  0  0  0
   18.3530   -4.2289  -13.4497 O   0  0  0  0  0  0  0  0  0  0  0  0
   20.5595   -3.9978  -13.1646 O   0  0  0  0  0  0  0  0  0  0  0  0
  2  1  1  0
  2  3  1  0
  3  4  2  0
  3 11  1  0
  6  5  1  0
  6  7  2  0
  8  6  1  0
  9  8  1  0
 10 12  1  0
 10  9  1  1
 11 10  1  0
 12 13  2  0
 15 14  1  0
 16 15  2  0
 17 15  1  0
 18 17  1  6
 19 12  1  0
 19 18  1  0
 20 21  1  0
 20 18  1  0
 22 20  2  0
M  END
$$$$
