GQN.pdb
     RDKit          3D

 22 21  0  0  1  0  0  0  0  0999 V2000
   15.8826  -12.0906  -11.4657 N   0  0  0  0  0  0  0  0  0  0  0  0
   16.2942  -11.2908  -10.3183 C   0  0  0  0  0  0  0  0  0  0  0  0
   16.1093   -9.8474  -10.6187 C   0  0  0  0  0  0  0  0  0  0  0  0
   15.7708   -9.4006  -11.7298 O   0  0  0  0  0  0  0  0  0  0  0  0
   14.1627   -5.6868   -6.5437 N   0  0  0  0  0  0  0  0  0  0  0  0
   14.5205   -4.8506   -7.6349 C   0  0  0  0  0  0  0  0  0  0  0  0
   14.2516   -3.6395   -7.6704 O   0  0  0  0  0  0  0  0  0  0  0  0
   15.2466   -5.4650   -8.7742 C   0  0  0  0  0  0  0  0  0  0  0  0
   15.5519   -6.9408   -8.4831 C   0  0  0  0  0  0  0  0  0  0  0  0
   16.2042   -7.4917   -9.7300 C   0  0  2  0  0  0  0  0  0  0  0  0
   16.3321   -8.9146   -9.5739 N   0  0  0  0  0  0  0  0  0  0  0  0
   17.4861   -6.8244  -10.0376 C   0  0  0  0  0  0  0  0  0  0  0  0
   18.4921   -6.9661   -9.3064 O   0  0  0  0  0  0  0  0  0  0  0  0
   21.4408   -5.1765  -12.8783 N   0  0  0  0  0  0  0  0  0  0  0  0
   21.1417   -6.4982  -12.4334 C   0  0  0  0  0  0  0  0  0  0  0  0
   22.0276   -7.3666  -12.5831 O   0  0  0  0  0  0  0  0  0  0  0  0
   19.8246   -6.7626  -11.8304 C   0  0  0  0  0  0  0  0  0  0  0  0
   18.9300   -5.5941  -11.6576 C   0  0  2  0  0  0  0  0  0  0  0  0
   17.5950   -6.0039  -11.1804 N   0  0  0  0  0  0  0  0  0  0  0  0
   18.7680   -4.7503  -12.8803 C   0  0  0  0  0  0  0  0  0  0  0  0
   17.6667   -5.0142  -13.7025 O   0  0  0  0  0  0  0  0  0  0  0  0
   19.5112   -3.8355  -13.2421 O   0  0  0  0  0  0  0  0  0  0  0  0
  2  1  1  0
  2  3  1  0
  3  4  2  0
  3 11  1  0
  6  5  1  0
  6  7  2  0
  8  6  1  0
  9  8  1  0
 10 12  1  0
 10  9  1  1
 11 10  1  0
 12 13  2  0
 15 14  1  0
 16 15  2  0
 17 15  1  0
 18 17  1  6
 19 12  1  0
 19 18  1  0
 20 21  1  0
 20 18  1  0
 22 20  2  0
M  END
$$$$
