GQN.pdb
     RDKit          3D

 22 21  0  0  1  0  0  0  0  0999 V2000
   15.8070  -13.0892  -14.9202 N   0  0  0  0  0  0  0  0  0  0  0  0
   15.3875  -11.7003  -14.7758 C   0  0  0  0  0  0  0  0  0  0  0  0
   16.3052  -10.9916  -13.8466 C   0  0  0  0  0  0  0  0  0  0  0  0
   16.4721  -11.3031  -12.6533 O   0  0  0  0  0  0  0  0  0  0  0  0
   21.3036   -8.1297  -15.8783 N   0  0  0  0  0  0  0  0  0  0  0  0
   21.3057   -7.6699  -14.5343 C   0  0  0  0  0  0  0  0  0  0  0  0
   22.3029   -7.1595  -13.9998 O   0  0  0  0  0  0  0  0  0  0  0  0
   20.0553   -7.8120  -13.7476 C   0  0  0  0  0  0  0  0  0  0  0  0
   18.9704   -8.5038  -14.5844 C   0  0  0  0  0  0  0  0  0  0  0  0
   18.0541   -9.1947  -13.6010 C   0  0  2  0  0  0  0  0  0  0  0  0
   17.0406   -9.8875  -14.3481 N   0  0  0  0  0  0  0  0  0  0  0  0
   17.4996   -8.2633  -12.5968 C   0  0  0  0  0  0  0  0  0  0  0  0
   18.2397   -7.6176  -11.8209 O   0  0  0  0  0  0  0  0  0  0  0  0
   14.7944   -5.9827   -8.9969 N   0  0  0  0  0  0  0  0  0  0  0  0
   15.6375   -7.1244   -8.8563 C   0  0  0  0  0  0  0  0  0  0  0  0
   15.9878   -7.4380   -7.6985 O   0  0  0  0  0  0  0  0  0  0  0  0
   16.0428   -7.8602  -10.0657 C   0  0  0  0  0  0  0  0  0  0  0  0
   15.5440   -7.3340  -11.3579 C   0  0  2  0  0  0  0  0  0  0  0  0
   16.1032   -8.0865  -12.4976 N   0  0  0  0  0  0  0  0  0  0  0  0
   15.7935   -5.8763  -11.5723 C   0  0  0  0  0  0  0  0  0  0  0  0
   15.2714   -4.9883  -10.6250 O   0  0  0  0  0  0  0  0  0  0  0  0
   16.4195   -5.3704  -12.5062 O   0  0  0  0  0  0  0  0  0  0  0  0
  2  1  1  0
  2  3  1  0
  3  4  2  0
  3 11  1  0
  6  5  1  0
  6  7  2  0
  8  6  1  0
  9  8  1  0
 10 12  1  0
 10  9  1  6
 11 10  1  0
 12 13  2  0
 15 14  1  0
 16 15  2  0
 17 15  1  0
 18 17  1  1
 19 12  1  0
 19 18  1  0
 20 21  1  0
 20 18  1  0
 22 20  2  0
M  END
$$$$
