GQN.pdb
     RDKit          3D

 22 21  0  0  1  0  0  0  0  0999 V2000
   33.1190   -8.9547  -19.8020 N   0  0  0  0  0  0  0  0  0  0  0  0
   32.3181   -8.8253  -18.5905 C   0  0  0  0  0  0  0  0  0  0  0  0
   30.9487   -9.3478  -18.8345 C   0  0  0  0  0  0  0  0  0  0  0  0
   30.4555   -9.5208  -19.9639 O   0  0  0  0  0  0  0  0  0  0  0  0
   27.8524  -13.3516  -15.3494 N   0  0  0  0  0  0  0  0  0  0  0  0
   26.8480  -12.9219  -16.2573 C   0  0  0  0  0  0  0  0  0  0  0  0
   25.7577  -13.5026  -16.3781 O   0  0  0  0  0  0  0  0  0  0  0  0
   27.1277  -11.7259  -17.0904 C   0  0  0  0  0  0  0  0  0  0  0  0
   28.5517  -11.2139  -16.8335 C   0  0  0  0  0  0  0  0  0  0  0  0
   28.7696  -10.0691  -17.7957 C   0  0  2  0  0  0  0  0  0  0  0  0
   30.1479   -9.6715  -17.7096 N   0  0  0  0  0  0  0  0  0  0  0  0
   27.8287   -8.9531  -17.5665 C   0  0  0  0  0  0  0  0  0  0  0  0
   28.0457   -8.0793  -16.6970 O   0  0  0  0  0  0  0  0  0  0  0  0
   23.7574   -5.7140  -17.9455 N   0  0  0  0  0  0  0  0  0  0  0  0
   24.0010   -6.2883  -19.2281 C   0  0  0  0  0  0  0  0  0  0  0  0
   23.3437   -5.8383  -20.1908 O   0  0  0  0  0  0  0  0  0  0  0  0
   24.9995   -7.3641  -19.3455 C   0  0  0  0  0  0  0  0  0  0  0  0
   25.7175   -7.7381  -18.1045 C   0  0  2  0  0  0  0  0  0  0  0  0
   26.6519   -8.8561  -18.3390 N   0  0  0  0  0  0  0  0  0  0  0  0
   24.8291   -8.0841  -16.9538 C   0  0  0  0  0  0  0  0  0  0  0  0
   24.3386   -7.0267  -16.1794 O   0  0  0  0  0  0  0  0  0  0  0  0
   24.4790   -9.2163  -16.6139 O   0  0  0  0  0  0  0  0  0  0  0  0
  2  1  1  0
  2  3  1  0
  3  4  2  0
  3 11  1  0
  6  5  1  0
  6  7  2  0
  8  6  1  0
  9  8  1  0
 10 12  1  0
 10  9  1  1
 11 10  1  0
 12 13  2  0
 15 14  1  0
 16 15  2  0
 17 15  1  0
 18 17  1  6
 19 12  1  0
 19 18  1  0
 20 21  1  0
 20 18  1  0
 22 20  2  0
M  END
$$$$
