GQN.pdb
     RDKit          3D

 22 21  0  0  1  0  0  0  0  0999 V2000
   28.3865  -16.4558  -18.9839 N   0  0  0  0  0  0  0  0  0  0  0  0
   27.9816  -17.8089  -18.6219 C   0  0  0  0  0  0  0  0  0  0  0  0
   26.9078  -17.7554  -17.5963 C   0  0  0  0  0  0  0  0  0  0  0  0
   26.8712  -16.9339  -16.6621 O   0  0  0  0  0  0  0  0  0  0  0  0
   21.1782  -17.9804  -16.5779 N   0  0  0  0  0  0  0  0  0  0  0  0
   21.8297  -17.1416  -17.5211 C   0  0  0  0  0  0  0  0  0  0  0  0
   21.3740  -16.0410  -17.8699 O   0  0  0  0  0  0  0  0  0  0  0  0
   23.1093  -17.6138  -18.1061 C   0  0  0  0  0  0  0  0  0  0  0  0
   23.4895  -18.9846  -17.5297 C   0  0  0  0  0  0  0  0  0  0  0  0
   24.7659  -18.7755  -16.7480 C   0  0  2  0  0  0  0  0  0  0  0  0
   25.8538  -18.7003  -17.6840 N   0  0  0  0  0  0  0  0  0  0  0  0
   24.9656  -19.8062  -15.7083 C   0  0  0  0  0  0  0  0  0  0  0  0
   25.3058  -20.9752  -15.9993 O   0  0  0  0  0  0  0  0  0  0  0  0
   25.7198  -22.2171  -11.1787 N   0  0  0  0  0  0  0  0  0  0  0  0
   25.7650  -20.8125  -10.9355 C   0  0  0  0  0  0  0  0  0  0  0  0
   26.0392  -20.4412   -9.7743 O   0  0  0  0  0  0  0  0  0  0  0  0
   25.4906  -19.8904  -12.0503 C   0  0  0  0  0  0  0  0  0  0  0  0
   25.0167  -20.5029  -13.3135 C   0  0  2  0  0  0  0  0  0  0  0  0
   24.7719  -19.4804  -14.3491 N   0  0  0  0  0  0  0  0  0  0  0  0
   23.7936  -21.3498  -13.1720 C   0  0  0  0  0  0  0  0  0  0  0  0
   23.9809  -22.7090  -12.8966 O   0  0  0  0  0  0  0  0  0  0  0  0
   22.6249  -20.9703  -13.2723 O   0  0  0  0  0  0  0  0  0  0  0  0
  2  1  1  0
  2  3  1  0
  3  4  2  0
  3 11  1  0
  6  5  1  0
  6  7  2  0
  8  6  1  0
  9  8  1  0
 10 12  1  0
 10  9  1  6
 11 10  1  0
 12 13  2  0
 15 14  1  0
 16 15  2  0
 17 15  1  0
 18 17  1  1
 19 12  1  0
 19 18  1  0
 20 21  1  0
 20 18  1  0
 22 20  2  0
M  END
$$$$
