GQN.pdb
     RDKit          3D

 22 21  0  0  1  0  0  0  0  0999 V2000
   10.6419  -20.4897   -6.3822 N   0  0  0  0  0  0  0  0  0  0  0  0
   12.0623  -20.8047   -6.2878 C   0  0  0  0  0  0  0  0  0  0  0  0
   12.3173  -21.6197   -5.0718 C   0  0  0  0  0  0  0  0  0  0  0  0
   11.5008  -21.7690   -4.1444 O   0  0  0  0  0  0  0  0  0  0  0  0
   17.2906  -25.4720   -4.5282 N   0  0  0  0  0  0  0  0  0  0  0  0
   16.6447  -25.6171   -3.2714 C   0  0  0  0  0  0  0  0  0  0  0  0
   16.9859  -26.4676   -2.4343 O   0  0  0  0  0  0  0  0  0  0  0  0
   15.5155  -24.7060   -2.9594 C   0  0  0  0  0  0  0  0  0  0  0  0
   15.2476  -23.7600   -4.1380 C   0  0  0  0  0  0  0  0  0  0  0  0
   13.9959  -22.9897   -3.7861 C   0  0  2  0  0  0  0  0  0  0  0  0
   13.5716  -22.2714   -4.9563 N   0  0  0  0  0  0  0  0  0  0  0  0
   14.1826  -22.1189   -2.6070 C   0  0  0  0  0  0  0  0  0  0  0  0
   14.4101  -20.8937   -2.7250 O   0  0  0  0  0  0  0  0  0  0  0  0
   12.1030  -18.8038    1.0085 N   0  0  0  0  0  0  0  0  0  0  0  0
   13.1889  -19.7227    0.9052 C   0  0  0  0  0  0  0  0  0  0  0  0
   14.0697  -19.6695    1.7900 O   0  0  0  0  0  0  0  0  0  0  0  0
   13.2117  -20.6700   -0.2218 C   0  0  0  0  0  0  0  0  0  0  0  0
   14.1942  -21.7758   -0.1362 C   0  0  2  0  0  0  0  0  0  0  0  0
   14.1055  -22.6671   -1.3092 N   0  0  0  0  0  0  0  0  0  0  0  0
   14.0937  -22.6005    1.1060 C   0  0  0  0  0  0  0  0  0  0  0  0
   14.5807  -22.0391    2.2917 O   0  0  0  0  0  0  0  0  0  0  0  0
   13.6198  -23.7352    1.1949 O   0  0  0  0  0  0  0  0  0  0  0  0
  2  1  1  0
  2  3  1  0
  3  4  2  0
  3 11  1  0
  6  5  1  0
  6  7  2  0
  8  6  1  0
  9  8  1  0
 10 12  1  0
 10  9  1  6
 11 10  1  0
 12 13  2  0
 15 14  1  0
 16 15  2  0
 17 15  1  0
 18 17  1  6
 19 12  1  0
 19 18  1  0
 20 21  1  0
 20 18  1  0
 22 20  2  0
M  END
$$$$
