YNF.pdb
     RDKit          3D

 32 33  0  0  1  0  0  0  0  0999 V2000
    8.7036  -12.4778   16.9890 O   0  0  0  0  0  0  0  0  0  0  0  0
    8.2807  -13.1367   18.1416 C   0  0  0  0  0  0  0  0  0  0  0  0
    6.9566  -13.5025   18.2645 C   0  0  0  0  0  0  0  0  0  0  0  0
    6.5125  -14.1501   19.3843 C   0  0  0  0  0  0  0  0  0  0  0  0
    7.3667  -14.4635   20.4337 C   0  0  0  0  0  0  0  0  0  0  0  0
    6.8526  -15.1639   21.6327 C   0  0  0  0  0  0  0  0  0  0  0  0
    7.2199  -16.6498   21.5771 C   0  0  2  0  0  0  0  0  0  0  0  0
    6.4115  -17.2996   20.5880 N   0  0  0  0  0  0  0  0  0  0  0  0
    7.0681  -17.2556   22.9256 C   0  0  0  0  0  0  0  0  0  0  0  0
    6.2656  -18.2143   23.0597 O   0  0  0  0  0  0  0  0  0  0  0  0
    8.6800  -14.0879   20.2853 C   0  0  0  0  0  0  0  0  0  0  0  0
    9.1538  -13.4342   19.1671 C   0  0  0  0  0  0  0  0  0  0  0  0
    7.1915  -19.0196   27.7335 N   0  0  0  0  0  0  0  0  0  0  0  0
    7.6318  -19.6050   26.5294 C   0  0  0  0  0  0  0  0  0  0  0  0
    7.7808  -20.8676   26.5368 O   0  0  0  0  0  0  0  0  0  0  0  0
    7.9338  -18.9143   25.2783 C   0  0  0  0  0  0  0  0  0  0  0  0
    7.6884  -17.4268   25.3313 C   0  0  2  0  0  0  0  0  0  0  0  0
    7.7939  -16.7914   24.0584 N   0  0  0  0  0  0  0  0  0  0  0  0
    8.5572  -16.7686   26.3579 C   0  0  0  0  0  0  0  0  0  0  0  0
    8.7753  -15.5254   26.3183 O   0  0  0  0  0  0  0  0  0  0  0  0
    9.1617  -17.4972   27.3988 N   0  0  0  0  0  0  0  0  0  0  0  0
   10.0271  -16.9121   28.4070 C   0  0  1  0  0  0  0  0  0  0  0  0
    9.3296  -15.8760   29.2199 C   0  0  0  0  0  0  0  0  0  0  0  0
    8.8836  -14.6835   28.4642 C   0  0  0  0  0  0  0  0  0  0  0  0
    9.6882  -13.5884   28.2546 C   0  0  0  0  0  0  0  0  0  0  0  0
    9.2101  -12.5188   27.5420 C   0  0  0  0  0  0  0  0  0  0  0  0
    7.9459  -12.4710   27.0109 C   0  0  0  0  0  0  0  0  0  0  0  0
    7.1534  -13.5829   27.2338 C   0  0  0  0  0  0  0  0  0  0  0  0
    7.6113  -14.6644   27.9439 C   0  0  0  0  0  0  0  0  0  0  0  0
   10.6605  -17.9475   29.2532 C   0  0  0  0  0  0  0  0  0  0  0  0
   10.2804  -19.1543   29.0650 O   0  0  0  0  0  0  0  0  0  0  0  0
   11.6102  -17.7090   30.2070 O   0  0  0  0  0  0  0  0  0  0  0  0
  2  3  2  0
  2  1  1  0
  4  3  1  0
  5  4  2  0
  6  5  1  0
  7  6  1  0
  7  8  1  6
  9  7  1  0
  9 10  2  0
 11  5  1  0
 11 12  2  0
 12  2  1  0
 13 14  1  0
 14 16  1  0
 14 15  2  0
 17 16  1  6
 17 18  1  0
 18  9  1  0
 19 21  1  0
 19 17  1  0
 20 19  2  0
 22 21  1  0
 22 30  1  0
 22 23  1  1
 24 23  1  0
 25 24  2  0
 26 25  1  0
 27 26  2  0
 27 28  1  0
 28 29  2  0
 29 24  1  0
 30 32  1  0
 31 30  2  0
M  END
$$$$
