YNF.pdb
     RDKit          3D

 32 33  0  0  1  0  0  0  0  0999 V2000
    8.6306  -12.3054   19.3845 O   0  0  0  0  0  0  0  0  0  0  0  0
    8.0343  -13.4388   19.9336 C   0  0  0  0  0  0  0  0  0  0  0  0
    7.5354  -13.3857   21.2182 C   0  0  0  0  0  0  0  0  0  0  0  0
    6.9450  -14.4823   21.7834 C   0  0  0  0  0  0  0  0  0  0  0  0
    6.8241  -15.6827   21.0953 C   0  0  0  0  0  0  0  0  0  0  0  0
    6.1808  -16.8514   21.7378 C   0  0  0  0  0  0  0  0  0  0  0  0
    6.6525  -16.9852   23.1889 C   0  0  2  0  0  0  0  0  0  0  0  0
    6.3503  -15.7764   23.8972 N   0  0  0  0  0  0  0  0  0  0  0  0
    8.1009  -17.3163   23.2178 C   0  0  0  0  0  0  0  0  0  0  0  0
    8.4467  -18.4948   22.9481 O   0  0  0  0  0  0  0  0  0  0  0  0
    7.3294  -15.7079   19.8179 C   0  0  0  0  0  0  0  0  0  0  0  0
    7.9292  -14.6171   19.2244 C   0  0  0  0  0  0  0  0  0  0  0  0
   10.8704  -14.6796   21.0760 N   0  0  0  0  0  0  0  0  0  0  0  0
   11.0465  -15.9425   21.6763 C   0  0  0  0  0  0  0  0  0  0  0  0
   10.7851  -16.9537   20.9514 O   0  0  0  0  0  0  0  0  0  0  0  0
   11.4964  -16.2095   23.0401 C   0  0  0  0  0  0  0  0  0  0  0  0
   10.4110  -16.7371   23.9452 C   0  0  2  0  0  0  0  0  0  0  0  0
    9.0991  -16.3534   23.5368 N   0  0  0  0  0  0  0  0  0  0  0  0
   10.6764  -16.3838   25.3758 C   0  0  0  0  0  0  0  0  0  0  0  0
   11.8061  -15.9483   25.7347 O   0  0  0  0  0  0  0  0  0  0  0  0
    9.6912  -16.5201   26.3711 N   0  0  0  0  0  0  0  0  0  0  0  0
    9.9318  -16.3186   27.7885 C   0  0  1  0  0  0  0  0  0  0  0  0
    8.9119  -15.4312   28.4155 C   0  0  0  0  0  0  0  0  0  0  0  0
    8.4530  -14.3083   27.5668 C   0  0  0  0  0  0  0  0  0  0  0  0
    7.3997  -14.4173   26.6896 C   0  0  0  0  0  0  0  0  0  0  0  0
    7.0266  -13.3341   25.9359 C   0  0  0  0  0  0  0  0  0  0  0  0
    7.6546  -12.1162   26.0035 C   0  0  0  0  0  0  0  0  0  0  0  0
    8.7114  -12.0287   26.8921 C   0  0  0  0  0  0  0  0  0  0  0  0
    9.1019  -13.0997   27.6563 C   0  0  0  0  0  0  0  0  0  0  0  0
   10.0674  -17.6036   28.5094 C   0  0  0  0  0  0  0  0  0  0  0  0
   10.4468  -17.5403   29.7293 O   0  0  0  0  0  0  0  0  0  0  0  0
    9.8181  -18.8355   27.9719 O   0  0  0  0  0  0  0  0  0  0  0  0
  2  3  2  0
  2  1  1  0
  4  3  1  0
  5  4  2  0
  6  5  1  0
  7  6  1  0
  7  8  1  1
  9  7  1  0
  9 10  2  0
 11  5  1  0
 11 12  2  0
 12  2  1  0
 13 14  1  0
 14 16  1  0
 14 15  2  0
 17 16  1  6
 17 18  1  0
 18  9  1  0
 19 21  1  0
 19 17  1  0
 20 19  2  0
 22 21  1  0
 22 30  1  0
 22 23  1  1
 24 23  1  0
 25 24  2  0
 26 25  1  0
 27 26  2  0
 27 28  1  0
 28 29  2  0
 29 24  1  0
 30 32  1  0
 31 30  2  0
M  END
$$$$
