YNF.pdb
     RDKit          3D

 32 33  0  0  1  0  0  0  0  0999 V2000
    7.9801  -13.2286   15.2283 O   0  0  0  0  0  0  0  0  0  0  0  0
    7.7252  -13.5879   16.5502 C   0  0  0  0  0  0  0  0  0  0  0  0
    7.1060  -14.7910   16.8169 C   0  0  0  0  0  0  0  0  0  0  0  0
    6.8428  -15.1702   18.1044 C   0  0  0  0  0  0  0  0  0  0  0  0
    7.1842  -14.3686   19.1860 C   0  0  0  0  0  0  0  0  0  0  0  0
    6.8831  -14.8086   20.5673 C   0  0  0  0  0  0  0  0  0  0  0  0
    8.1725  -15.2152   21.2873 C   0  0  2  0  0  0  0  0  0  0  0  0
    8.9253  -16.0978   20.4457 N   0  0  0  0  0  0  0  0  0  0  0  0
    7.8430  -15.8240   22.6023 C   0  0  0  0  0  0  0  0  0  0  0  0
    7.1541  -15.1527   23.4122 O   0  0  0  0  0  0  0  0  0  0  0  0
    7.7998  -13.1759   18.8920 C   0  0  0  0  0  0  0  0  0  0  0  0
    8.0767  -12.7697   17.6035 C   0  0  0  0  0  0  0  0  0  0  0  0
    6.1878  -20.0049   22.4075 N   0  0  0  0  0  0  0  0  0  0  0  0
    6.3788  -19.3301   23.6300 C   0  0  0  0  0  0  0  0  0  0  0  0
    5.3321  -18.8879   24.2004 O   0  0  0  0  0  0  0  0  0  0  0  0
    7.6498  -19.0868   24.3075 C   0  0  0  0  0  0  0  0  0  0  0  0
    8.0814  -17.6415   24.2878 C   0  0  2  0  0  0  0  0  0  0  0  0
    8.2765  -17.1284   22.9711 N   0  0  0  0  0  0  0  0  0  0  0  0
    9.2804  -17.4202   25.1569 C   0  0  0  0  0  0  0  0  0  0  0  0
   10.4437  -17.4232   24.6655 O   0  0  0  0  0  0  0  0  0  0  0  0
    9.1654  -17.2022   26.5422 N   0  0  0  0  0  0  0  0  0  0  0  0
   10.1429  -16.4812   27.3373 C   0  0  1  0  0  0  0  0  0  0  0  0
   10.3775  -15.0996   26.8301 C   0  0  0  0  0  0  0  0  0  0  0  0
    9.2484  -14.1619   27.0240 C   0  0  0  0  0  0  0  0  0  0  0  0
    9.0741  -13.4309   28.1755 C   0  0  0  0  0  0  0  0  0  0  0  0
    8.0060  -12.5780   28.2853 C   0  0  0  0  0  0  0  0  0  0  0  0
    7.0752  -12.4035   27.2925 C   0  0  0  0  0  0  0  0  0  0  0  0
    7.2695  -13.1485   26.1430 C   0  0  0  0  0  0  0  0  0  0  0  0
    8.3315  -14.0080   26.0114 C   0  0  0  0  0  0  0  0  0  0  0  0
    9.7952  -16.4925   28.7755 C   0  0  0  0  0  0  0  0  0  0  0  0
   10.6192  -15.9213   29.5699 O   0  0  0  0  0  0  0  0  0  0  0  0
    8.6713  -17.0607   29.3070 O   0  0  0  0  0  0  0  0  0  0  0  0
  2  3  2  0
  2  1  1  0
  4  3  1  0
  5  4  2  0
  6  5  1  0
  7  6  1  0
  7  8  1  6
  9  7  1  0
  9 10  2  0
 11  5  1  0
 11 12  2  0
 12  2  1  0
 13 14  1  0
 14 16  1  0
 14 15  2  0
 17 16  1  6
 17 18  1  0
 18  9  1  0
 19 21  1  0
 19 17  1  0
 20 19  2  0
 22 21  1  0
 22 30  1  0
 22 23  1  6
 24 23  1  0
 25 24  2  0
 26 25  1  0
 27 26  2  0
 27 28  1  0
 28 29  2  0
 29 24  1  0
 30 32  1  0
 31 30  2  0
M  END
$$$$
