YNF.pdb
     RDKit          3D

 32 33  0  0  1  0  0  0  0  0999 V2000
    8.9215  -12.3833   16.9923 O   0  0  0  0  0  0  0  0  0  0  0  0
    8.4686  -12.9372   18.1879 C   0  0  0  0  0  0  0  0  0  0  0  0
    9.2853  -13.8030   18.8847 C   0  0  0  0  0  0  0  0  0  0  0  0
    8.8675  -14.3621   20.0609 C   0  0  0  0  0  0  0  0  0  0  0  0
    7.6169  -14.0848   20.5977 C   0  0  0  0  0  0  0  0  0  0  0  0
    7.1954  -14.7088   21.8726 C   0  0  0  0  0  0  0  0  0  0  0  0
    7.1307  -16.2316   21.7218 C   0  0  2  0  0  0  0  0  0  0  0  0
    6.0112  -16.5774   20.8964 N   0  0  0  0  0  0  0  0  0  0  0  0
    7.0679  -16.8671   23.0637 C   0  0  0  0  0  0  0  0  0  0  0  0
    5.9805  -16.8203   23.6933 O   0  0  0  0  0  0  0  0  0  0  0  0
    6.8240  -13.2194   19.8835 C   0  0  0  0  0  0  0  0  0  0  0  0
    7.2205  -12.6419   18.6956 C   0  0  0  0  0  0  0  0  0  0  0  0
    7.3668  -20.0497   23.2792 N   0  0  0  0  0  0  0  0  0  0  0  0
    8.2649  -20.2574   24.3453 C   0  0  0  0  0  0  0  0  0  0  0  0
    8.6994  -21.4428   24.4948 O   0  0  0  0  0  0  0  0  0  0  0  0
    8.7466  -19.2558   25.2932 C   0  0  0  0  0  0  0  0  0  0  0  0
    8.2105  -17.8694   25.0363 C   0  0  2  0  0  0  0  0  0  0  0  0
    8.1863  -17.5206   23.6533 N   0  0  0  0  0  0  0  0  0  0  0  0
    8.9320  -16.8465   25.8578 C   0  0  0  0  0  0  0  0  0  0  0  0
    9.4436  -15.8268   25.3162 O   0  0  0  0  0  0  0  0  0  0  0  0
    9.0706  -16.9748   27.2522 N   0  0  0  0  0  0  0  0  0  0  0  0
    9.8255  -16.0549   28.0838 C   0  0  1  0  0  0  0  0  0  0  0  0
    9.0022  -14.9006   28.5430 C   0  0  0  0  0  0  0  0  0  0  0  0
    8.4949  -14.0249   27.4624 C   0  0  0  0  0  0  0  0  0  0  0  0
    7.2899  -14.2353   26.8346 C   0  0  0  0  0  0  0  0  0  0  0  0
    6.8808  -13.3813   25.8427 C   0  0  0  0  0  0  0  0  0  0  0  0
    7.6176  -12.3016   25.4260 C   0  0  0  0  0  0  0  0  0  0  0  0
    8.8264  -12.1087   26.0707 C   0  0  0  0  0  0  0  0  0  0  0  0
    9.2556  -12.9506   27.0660 C   0  0  0  0  0  0  0  0  0  0  0  0
   10.4838  -16.7502   29.2119 C   0  0  0  0  0  0  0  0  0  0  0  0
   11.2254  -16.0369   29.9718 O   0  0  0  0  0  0  0  0  0  0  0  0
   10.3561  -18.0812   29.4958 O   0  0  0  0  0  0  0  0  0  0  0  0
  2  3  2  0
  2  1  1  0
  4  3  1  0
  5  4  2  0
  6  5  1  0
  7  6  1  0
  7  8  1  6
  9  7  1  0
  9 10  2  0
 11  5  1  0
 11 12  2  0
 12  2  1  0
 13 14  1  0
 14 16  1  0
 14 15  2  0
 17 16  1  6
 17 18  1  0
 18  9  1  0
 19 21  1  0
 19 17  1  0
 20 19  2  0
 22 21  1  0
 22 30  1  0
 22 23  1  1
 24 23  1  0
 25 24  2  0
 26 25  1  0
 27 26  2  0
 27 28  1  0
 28 29  2  0
 29 24  1  0
 30 32  1  0
 31 30  2  0
M  END
$$$$
