YNF.pdb
     RDKit          3D

 32 33  0  0  1  0  0  0  0  0999 V2000
    9.6158  -14.1957   15.9333 O   0  0  0  0  0  0  0  0  0  0  0  0
    8.7289  -14.3352   16.9988 C   0  0  0  0  0  0  0  0  0  0  0  0
    8.3373  -15.5978   17.3922 C   0  0  0  0  0  0  0  0  0  0  0  0
    7.4678  -15.7656   18.4345 C   0  0  0  0  0  0  0  0  0  0  0  0
    6.9480  -14.6837   19.1333 C   0  0  0  0  0  0  0  0  0  0  0  0
    6.0072  -14.9010   20.2560 C   0  0  0  0  0  0  0  0  0  0  0  0
    6.6807  -14.5535   21.5870 C   0  0  2  0  0  0  0  0  0  0  0  0
    7.3359  -13.2844   21.4678 N   0  0  0  0  0  0  0  0  0  0  0  0
    7.6134  -15.6425   21.9774 C   0  0  0  0  0  0  0  0  0  0  0  0
    7.1620  -16.8137   22.0515 O   0  0  0  0  0  0  0  0  0  0  0  0
    7.3545  -13.4378   18.7208 C   0  0  0  0  0  0  0  0  0  0  0  0
    8.2298  -13.2406   17.6734 C   0  0  0  0  0  0  0  0  0  0  0  0
   11.6605  -19.1510   22.2234 N   0  0  0  0  0  0  0  0  0  0  0  0
   11.8643  -17.7940   22.5448 C   0  0  0  0  0  0  0  0  0  0  0  0
   12.8257  -17.5395   23.3368 O   0  0  0  0  0  0  0  0  0  0  0  0
   11.0883  -16.6536   22.0643 C   0  0  0  0  0  0  0  0  0  0  0  0
    9.8183  -16.4123   22.8418 C   0  0  2  0  0  0  0  0  0  0  0  0
    8.9867  -15.4060   22.2667 N   0  0  0  0  0  0  0  0  0  0  0  0
   10.1079  -16.1399   24.2853 C   0  0  0  0  0  0  0  0  0  0  0  0
   11.0264  -15.3406   24.6202 O   0  0  0  0  0  0  0  0  0  0  0  0
    9.3787  -16.7551   25.3196 N   0  0  0  0  0  0  0  0  0  0  0  0
    9.5726  -16.4754   26.7309 C   0  0  1  0  0  0  0  0  0  0  0  0
    8.3512  -15.9077   27.3687 C   0  0  0  0  0  0  0  0  0  0  0  0
    7.9147  -14.5995   26.8302 C   0  0  0  0  0  0  0  0  0  0  0  0
    6.7768  -14.4456   26.0739 C   0  0  0  0  0  0  0  0  0  0  0  0
    6.4308  -13.2024   25.6098 C   0  0  0  0  0  0  0  0  0  0  0  0
    7.1681  -12.0725   25.8590 C   0  0  0  0  0  0  0  0  0  0  0  0
    8.3087  -12.2501   26.6215 C   0  0  0  0  0  0  0  0  0  0  0  0
    8.6740  -13.4849   27.0964 C   0  0  0  0  0  0  0  0  0  0  0  0
   10.0797  -17.6592   27.4595 C   0  0  0  0  0  0  0  0  0  0  0  0
   10.3398  -17.5007   28.7019 O   0  0  0  0  0  0  0  0  0  0  0  0
   10.2853  -18.8925   26.9070 O   0  0  0  0  0  0  0  0  0  0  0  0
  2  3  2  0
  2  1  1  0
  4  3  1  0
  5  4  2  0
  6  5  1  0
  7  6  1  0
  7  8  1  6
  9  7  1  0
  9 10  2  0
 11  5  1  0
 11 12  2  0
 12  2  1  0
 13 14  1  0
 14 16  1  0
 14 15  2  0
 17 16  1  6
 17 18  1  0
 18  9  1  0
 19 21  1  0
 19 17  1  0
 20 19  2  0
 22 21  1  0
 22 30  1  0
 22 23  1  1
 24 23  1  0
 25 24  2  0
 26 25  1  0
 27 26  2  0
 27 28  1  0
 28 29  2  0
 29 24  1  0
 30 32  1  0
 31 30  2  0
M  END
$$$$
