YNF.pdb
     RDKit          3D

 32 33  0  0  1  0  0  0  0  0999 V2000
    6.9700  -11.9004   17.4832 O   0  0  0  0  0  0  0  0  0  0  0  0
    7.2411  -12.6814   18.6048 C   0  0  0  0  0  0  0  0  0  0  0  0
    8.4985  -12.6402   19.1700 C   0  0  0  0  0  0  0  0  0  0  0  0
    8.7937  -13.3959   20.2711 C   0  0  0  0  0  0  0  0  0  0  0  0
    7.8504  -14.2277   20.8602 C   0  0  0  0  0  0  0  0  0  0  0  0
    8.2040  -15.0339   22.0508 C   0  0  0  0  0  0  0  0  0  0  0  0
    9.0397  -16.2497   21.6390 C   0  0  2  0  0  0  0  0  0  0  0  0
    8.2477  -17.1078   20.8080 N   0  0  0  0  0  0  0  0  0  0  0  0
    9.5506  -16.9418   22.8507 C   0  0  0  0  0  0  0  0  0  0  0  0
    8.7539  -17.6630   23.5036 O   0  0  0  0  0  0  0  0  0  0  0  0
    6.6065  -14.2497   20.2772 C   0  0  0  0  0  0  0  0  0  0  0  0
    6.2824  -13.4981   19.1672 C   0  0  0  0  0  0  0  0  0  0  0  0
   12.5724  -18.6667   22.0561 N   0  0  0  0  0  0  0  0  0  0  0  0
   13.3464  -18.3188   23.1813 C   0  0  0  0  0  0  0  0  0  0  0  0
   14.5966  -18.5336   23.0949 O   0  0  0  0  0  0  0  0  0  0  0  0
   12.8635  -17.7393   24.4321 C   0  0  0  0  0  0  0  0  0  0  0  0
   11.3751  -17.4943   24.4530 C   0  0  2  0  0  0  0  0  0  0  0  0
   10.8980  -16.8171   23.2916 N   0  0  0  0  0  0  0  0  0  0  0  0
   10.9552  -16.8045   25.7138 C   0  0  0  0  0  0  0  0  0  0  0  0
   11.0558  -15.5509   25.8285 O   0  0  0  0  0  0  0  0  0  0  0  0
   10.4368  -17.5138   26.8129 N   0  0  0  0  0  0  0  0  0  0  0  0
   10.1071  -16.9087   28.0907 C   0  0  1  0  0  0  0  0  0  0  0  0
    8.6582  -16.5787   28.2040 C   0  0  0  0  0  0  0  0  0  0  0  0
    8.2825  -15.2341   27.7114 C   0  0  0  0  0  0  0  0  0  0  0  0
    7.1663  -15.0059   26.9416 C   0  0  0  0  0  0  0  0  0  0  0  0
    6.8771  -13.7327   26.5223 C   0  0  0  0  0  0  0  0  0  0  0  0
    7.6518  -12.6431   26.8306 C   0  0  0  0  0  0  0  0  0  0  0  0
    8.7697  -12.8953   27.6057 C   0  0  0  0  0  0  0  0  0  0  0  0
    9.0783  -14.1613   28.0364 C   0  0  0  0  0  0  0  0  0  0  0  0
   10.5786  -17.7332   29.2253 C   0  0  0  0  0  0  0  0  0  0  0  0
   10.4904  -17.2113   30.3899 O   0  0  0  0  0  0  0  0  0  0  0  0
   11.0928  -18.9952   29.1184 O   0  0  0  0  0  0  0  0  0  0  0  0
  2  3  2  0
  2  1  1  0
  4  3  1  0
  5  4  2  0
  6  5  1  0
  7  6  1  0
  7  8  1  1
  9  7  1  0
  9 10  2  0
 11  5  1  0
 11 12  2  0
 12  2  1  0
 13 14  1  0
 14 16  1  0
 14 15  2  0
 17 16  1  6
 17 18  1  0
 18  9  1  0
 19 21  1  0
 19 17  1  0
 20 19  2  0
 22 21  1  0
 22 30  1  0
 22 23  1  1
 24 23  1  0
 25 24  2  0
 26 25  1  0
 27 26  2  0
 27 28  1  0
 28 29  2  0
 29 24  1  0
 30 32  1  0
 31 30  2  0
M  END
$$$$
