YNF.pdb
     RDKit          3D

 32 33  0  0  1  0  0  0  0  0999 V2000
    7.3704  -11.8943   17.0206 O   0  0  0  0  0  0  0  0  0  0  0  0
    7.6634  -12.7942   18.0433 C   0  0  0  0  0  0  0  0  0  0  0  0
    8.9513  -12.8682   18.5309 C   0  0  0  0  0  0  0  0  0  0  0  0
    9.2685  -13.7421   19.5341 C   0  0  0  0  0  0  0  0  0  0  0  0
    8.3176  -14.5829   20.0980 C   0  0  0  0  0  0  0  0  0  0  0  0
    8.6954  -15.5185   21.1817 C   0  0  0  0  0  0  0  0  0  0  0  0
    9.6018  -16.6254   20.6346 C   0  0  2  0  0  0  0  0  0  0  0  0
    8.9374  -17.2876   19.5510 N   0  0  0  0  0  0  0  0  0  0  0  0
    9.9738  -17.5576   21.7305 C   0  0  0  0  0  0  0  0  0  0  0  0
    9.8219  -18.7910   21.5391 O   0  0  0  0  0  0  0  0  0  0  0  0
    7.0431  -14.4886   19.5937 C   0  0  0  0  0  0  0  0  0  0  0  0
    6.6965  -13.6165   18.5831 C   0  0  0  0  0  0  0  0  0  0  0  0
   14.0431  -20.4517   23.9958 N   0  0  0  0  0  0  0  0  0  0  0  0
   12.8074  -19.8006   24.1841 C   0  0  0  0  0  0  0  0  0  0  0  0
   12.2149  -20.0219   25.2870 O   0  0  0  0  0  0  0  0  0  0  0  0
   12.1390  -18.9013   23.2472 C   0  0  0  0  0  0  0  0  0  0  0  0
   11.1234  -17.9939   23.8960 C   0  0  2  0  0  0  0  0  0  0  0  0
   10.4916  -17.1049   22.9765 N   0  0  0  0  0  0  0  0  0  0  0  0
   11.7131  -17.2643   25.0629 C   0  0  0  0  0  0  0  0  0  0  0  0
   12.7592  -16.5697   24.9288 O   0  0  0  0  0  0  0  0  0  0  0  0
   11.1351  -17.3199   26.3446 N   0  0  0  0  0  0  0  0  0  0  0  0
   10.4286  -16.2156   26.9683 C   0  0  1  0  0  0  0  0  0  0  0  0
    9.4693  -15.5585   26.0362 C   0  0  0  0  0  0  0  0  0  0  0  0
    8.6453  -14.4865   26.6396 C   0  0  0  0  0  0  0  0  0  0  0  0
    7.2705  -14.5094   26.6349 C   0  0  0  0  0  0  0  0  0  0  0  0
    6.5707  -13.4831   27.2157 C   0  0  0  0  0  0  0  0  0  0  0  0
    7.1716  -12.4060   27.8169 C   0  0  0  0  0  0  0  0  0  0  0  0
    8.5550  -12.4031   27.8100 C   0  0  0  0  0  0  0  0  0  0  0  0
    9.2757  -13.4197   27.2348 C   0  0  0  0  0  0  0  0  0  0  0  0
    9.7803  -16.6248   28.2339 C   0  0  0  0  0  0  0  0  0  0  0  0
    9.7623  -15.7593   29.1756 O   0  0  0  0  0  0  0  0  0  0  0  0
    9.2065  -17.8440   28.4637 O   0  0  0  0  0  0  0  0  0  0  0  0
  2  3  2  0
  2  1  1  0
  4  3  1  0
  5  4  2  0
  6  5  1  0
  7  6  1  0
  7  8  1  6
  9  7  1  0
  9 10  2  0
 11  5  1  0
 11 12  2  0
 12  2  1  0
 13 14  1  0
 14 16  1  0
 14 15  2  0
 17 16  1  6
 17 18  1  0
 18  9  1  0
 19 21  1  0
 19 17  1  0
 20 19  2  0
 22 21  1  0
 22 30  1  0
 22 23  1  6
 24 23  1  0
 25 24  2  0
 26 25  1  0
 27 26  2  0
 27 28  1  0
 28 29  2  0
 29 24  1  0
 30 32  1  0
 31 30  2  0
M  END
$$$$
