YNF.pdb
     RDKit          3D

 32 33  0  0  1  0  0  0  0  0999 V2000
    7.6818  -12.6110   16.6280 O   0  0  0  0  0  0  0  0  0  0  0  0
    7.5540  -13.1064   17.9240 C   0  0  0  0  0  0  0  0  0  0  0  0
    6.7294  -14.1871   18.1570 C   0  0  0  0  0  0  0  0  0  0  0  0
    6.5840  -14.6948   19.4186 C   0  0  0  0  0  0  0  0  0  0  0  0
    7.2533  -14.1498   20.5067 C   0  0  0  0  0  0  0  0  0  0  0  0
    7.0719  -14.7230   21.8598 C   0  0  0  0  0  0  0  0  0  0  0  0
    8.2759  -15.5933   22.2328 C   0  0  2  0  0  0  0  0  0  0  0  0
    8.5207  -16.5365   21.1819 N   0  0  0  0  0  0  0  0  0  0  0  0
    8.0340  -16.2501   23.5438 C   0  0  0  0  0  0  0  0  0  0  0  0
    7.7675  -15.5216   24.5334 O   0  0  0  0  0  0  0  0  0  0  0  0
    8.0679  -13.0744   20.2466 C   0  0  0  0  0  0  0  0  0  0  0  0
    8.2323  -12.5430   18.9846 C   0  0  0  0  0  0  0  0  0  0  0  0
    5.5592  -18.7700   23.6754 N   0  0  0  0  0  0  0  0  0  0  0  0
    6.2848  -19.7976   24.3108 C   0  0  0  0  0  0  0  0  0  0  0  0
    5.7794  -20.9629   24.2555 O   0  0  0  0  0  0  0  0  0  0  0  0
    7.5525  -19.6635   25.0238 C   0  0  0  0  0  0  0  0  0  0  0  0
    8.1131  -18.2632   25.0076 C   0  0  2  0  0  0  0  0  0  0  0  0
    8.0930  -17.6618   23.7141 N   0  0  0  0  0  0  0  0  0  0  0  0
    9.4767  -18.2161   25.6243 C   0  0  0  0  0  0  0  0  0  0  0  0
   10.5124  -18.2063   24.9018 O   0  0  0  0  0  0  0  0  0  0  0  0
    9.6620  -18.1816   27.0187 N   0  0  0  0  0  0  0  0  0  0  0  0
   10.9195  -17.8529   27.6655 C   0  0  1  0  0  0  0  0  0  0  0  0
   11.3897  -16.4804   27.3248 C   0  0  0  0  0  0  0  0  0  0  0  0
   10.4674  -15.3890   27.7121 C   0  0  0  0  0  0  0  0  0  0  0  0
    9.5200  -14.8740   26.8588 C   0  0  0  0  0  0  0  0  0  0  0  0
    8.6962  -13.8644   27.2859 C   0  0  0  0  0  0  0  0  0  0  0  0
    8.7592  -13.3210   28.5442 C   0  0  0  0  0  0  0  0  0  0  0  0
    9.7192  -13.8537   29.3859 C   0  0  0  0  0  0  0  0  0  0  0  0
   10.5543  -14.8643   28.9797 C   0  0  0  0  0  0  0  0  0  0  0  0
   10.8570  -18.0709   29.1276 C   0  0  0  0  0  0  0  0  0  0  0  0
   11.9517  -17.9360   29.7755 O   0  0  0  0  0  0  0  0  0  0  0  0
    9.7282  -18.4000   29.8248 O   0  0  0  0  0  0  0  0  0  0  0  0
  2  3  2  0
  2  1  1  0
  4  3  1  0
  5  4  2  0
  6  5  1  0
  7  6  1  0
  7  8  1  6
  9  7  1  0
  9 10  2  0
 11  5  1  0
 11 12  2  0
 12  2  1  0
 13 14  1  0
 14 16  1  0
 14 15  2  0
 17 16  1  6
 17 18  1  0
 18  9  1  0
 19 21  1  0
 19 17  1  0
 20 19  2  0
 22 21  1  0
 22 30  1  0
 22 23  1  1
 24 23  1  0
 25 24  2  0
 26 25  1  0
 27 26  2  0
 27 28  1  0
 28 29  2  0
 29 24  1  0
 30 32  1  0
 31 30  2  0
M  END
$$$$
