YNF.pdb
     RDKit          3D

 32 33  0  0  1  0  0  0  0  0999 V2000
    7.1913  -22.2340   29.8118 O   0  0  0  0  0  0  0  0  0  0  0  0
    7.2326  -21.3495   28.7360 C   0  0  0  0  0  0  0  0  0  0  0  0
    8.3090  -20.4979   28.6014 C   0  0  0  0  0  0  0  0  0  0  0  0
    8.3768  -19.6188   27.5557 C   0  0  0  0  0  0  0  0  0  0  0  0
    7.3757  -19.5472   26.5958 C   0  0  0  0  0  0  0  0  0  0  0  0
    7.4798  -18.5825   25.4773 C   0  0  0  0  0  0  0  0  0  0  0  0
    6.8730  -19.1794   24.2039 C   0  0  2  0  0  0  0  0  0  0  0  0
    7.1924  -20.5750   24.1377 N   0  0  0  0  0  0  0  0  0  0  0  0
    7.3559  -18.4269   23.0169 C   0  0  0  0  0  0  0  0  0  0  0  0
    8.3538  -18.8733   22.3956 O   0  0  0  0  0  0  0  0  0  0  0  0
    6.3153  -20.4065   26.7539 C   0  0  0  0  0  0  0  0  0  0  0  0
    6.2221  -21.3023   27.7983 C   0  0  0  0  0  0  0  0  0  0  0  0
    8.3714  -14.4227   19.6799 N   0  0  0  0  0  0  0  0  0  0  0  0
    6.9981  -14.5206   19.9812 C   0  0  0  0  0  0  0  0  0  0  0  0
    6.2228  -13.7415   19.3422 O   0  0  0  0  0  0  0  0  0  0  0  0
    6.3751  -15.4209   20.9481 C   0  0  0  0  0  0  0  0  0  0  0  0
    7.3405  -16.3883   21.5867 C   0  0  2  0  0  0  0  0  0  0  0  0
    6.7323  -17.2302   22.5646 N   0  0  0  0  0  0  0  0  0  0  0  0
    8.5420  -15.6789   22.1298 C   0  0  0  0  0  0  0  0  0  0  0  0
    9.4034  -15.1798   21.3530 O   0  0  0  0  0  0  0  0  0  0  0  0
    8.7617  -15.5392   23.5126 N   0  0  0  0  0  0  0  0  0  0  0  0
    9.9087  -14.8626   24.0909 C   0  0  1  0  0  0  0  0  0  0  0  0
    9.5892  -13.4711   24.5181 C   0  0  0  0  0  0  0  0  0  0  0  0
    8.4071  -13.3433   25.4004 C   0  0  0  0  0  0  0  0  0  0  0  0
    8.4918  -13.3812   26.7722 C   0  0  0  0  0  0  0  0  0  0  0  0
    7.3549  -13.2533   27.5283 C   0  0  0  0  0  0  0  0  0  0  0  0
    6.1050  -13.0857   26.9879 C   0  0  0  0  0  0  0  0  0  0  0  0
    6.0427  -13.0507   25.6063 C   0  0  0  0  0  0  0  0  0  0  0  0
    7.1675  -13.1766   24.8300 C   0  0  0  0  0  0  0  0  0  0  0  0
   10.5170  -15.6526   25.1841 C   0  0  0  0  0  0  0  0  0  0  0  0
   11.6170  -15.2129   25.6668 O   0  0  0  0  0  0  0  0  0  0  0  0
    9.9934  -16.8015   25.7079 O   0  0  0  0  0  0  0  0  0  0  0  0
  2  3  2  0
  2  1  1  0
  4  3  1  0
  5  4  2  0
  6  5  1  0
  7  6  1  0
  7  8  1  6
  9  7  1  0
  9 10  2  0
 11  5  1  0
 11 12  2  0
 12  2  1  0
 13 14  1  0
 14 16  1  0
 14 15  2  0
 17 16  1  1
 17 18  1  0
 18  9  1  0
 19 21  1  0
 19 17  1  0
 20 19  2  0
 22 21  1  0
 22 30  1  0
 22 23  1  1
 24 23  1  0
 25 24  2  0
 26 25  1  0
 27 26  2  0
 27 28  1  0
 28 29  2  0
 29 24  1  0
 30 32  1  0
 31 30  2  0
M  END
$$$$
