YNF.pdb
     RDKit          3D

 32 33  0  0  1  0  0  0  0  0999 V2000
    9.2774  -12.0171   19.6012 O   0  0  0  0  0  0  0  0  0  0  0  0
    8.5156  -13.1281   19.9574 C   0  0  0  0  0  0  0  0  0  0  0  0
    8.7486  -14.3361   19.3341 C   0  0  0  0  0  0  0  0  0  0  0  0
    8.0166  -15.4437   19.6629 C   0  0  0  0  0  0  0  0  0  0  0  0
    7.0185  -15.3993   20.6277 C   0  0  0  0  0  0  0  0  0  0  0  0
    6.2435  -16.6169   20.9583 C   0  0  0  0  0  0  0  0  0  0  0  0
    6.5437  -17.0636   22.3924 C   0  0  2  0  0  0  0  0  0  0  0  0
    6.1280  -16.0382   23.3033 N   0  0  0  0  0  0  0  0  0  0  0  0
    7.9869  -17.3929   22.5242 C   0  0  0  0  0  0  0  0  0  0  0  0
    8.5245  -18.0814   21.6198 O   0  0  0  0  0  0  0  0  0  0  0  0
    6.8074  -14.1839   21.2327 C   0  0  0  0  0  0  0  0  0  0  0  0
    7.5308  -13.0522   20.9202 C   0  0  0  0  0  0  0  0  0  0  0  0
   12.6911  -17.4365   20.7907 N   0  0  0  0  0  0  0  0  0  0  0  0
   11.6115  -17.6372   21.6742 C   0  0  0  0  0  0  0  0  0  0  0  0
   11.2625  -18.8433   21.8744 O   0  0  0  0  0  0  0  0  0  0  0  0
   10.8544  -16.6074   22.3811 C   0  0  0  0  0  0  0  0  0  0  0  0
   10.1919  -17.0998   23.6437 C   0  0  2  0  0  0  0  0  0  0  0  0
    8.7724  -16.9585   23.6286 N   0  0  0  0  0  0  0  0  0  0  0  0
   10.8027  -16.4729   24.8585 C   0  0  0  0  0  0  0  0  0  0  0  0
   12.0358  -16.5997   25.1001 O   0  0  0  0  0  0  0  0  0  0  0  0
   10.0394  -15.7244   25.7733 N   0  0  0  0  0  0  0  0  0  0  0  0
   10.4752  -15.3914   27.1175 C   0  0  1  0  0  0  0  0  0  0  0  0
   10.0520  -14.0225   27.5272 C   0  0  0  0  0  0  0  0  0  0  0  0
    8.8810  -13.4851   26.7979 C   0  0  0  0  0  0  0  0  0  0  0  0
    7.6122  -13.4739   27.3277 C   0  0  0  0  0  0  0  0  0  0  0  0
    6.5736  -12.9573   26.5962 C   0  0  0  0  0  0  0  0  0  0  0  0
    6.7246  -12.4373   25.3356 C   0  0  0  0  0  0  0  0  0  0  0  0
    8.0089  -12.4587   24.8219 C   0  0  0  0  0  0  0  0  0  0  0  0
    9.0632  -12.9707   25.5361 C   0  0  0  0  0  0  0  0  0  0  0  0
   10.0586  -16.4177   28.0986 C   0  0  0  0  0  0  0  0  0  0  0  0
    9.2422  -17.3107   27.6835 O   0  0  0  0  0  0  0  0  0  0  0  0
   10.4795  -16.4787   29.3976 O   0  0  0  0  0  0  0  0  0  0  0  0
  2  3  2  0
  2  1  1  0
  4  3  1  0
  5  4  2  0
  6  5  1  0
  7  6  1  0
  7  8  1  1
  9  7  1  0
  9 10  2  0
 11  5  1  0
 11 12  2  0
 12  2  1  0
 13 14  1  0
 14 16  1  0
 14 15  2  0
 17 16  1  6
 17 18  1  0
 18  9  1  0
 19 21  1  0
 19 17  1  0
 20 19  2  0
 22 21  1  0
 22 30  1  0
 22 23  1  1
 24 23  1  0
 25 24  2  0
 26 25  1  0
 27 26  2  0
 27 28  1  0
 28 29  2  0
 29 24  1  0
 30 32  1  0
 31 30  2  0
M  END
$$$$
