YNF.pdb
     RDKit          3D

 32 33  0  0  1  0  0  0  0  0999 V2000
    8.8212  -13.1251   16.3654 O   0  0  0  0  0  0  0  0  0  0  0  0
    8.4624  -13.5504   17.6429 C   0  0  0  0  0  0  0  0  0  0  0  0
    7.1863  -13.3039   18.1044 C   0  0  0  0  0  0  0  0  0  0  0  0
    6.8057  -13.7093   19.3540 C   0  0  0  0  0  0  0  0  0  0  0  0
    7.6785  -14.3790   20.2018 C   0  0  0  0  0  0  0  0  0  0  0  0
    7.2344  -14.8025   21.5494 C   0  0  0  0  0  0  0  0  0  0  0  0
    6.8700  -16.2902   21.5445 C   0  0  2  0  0  0  0  0  0  0  0  0
    5.6415  -16.4732   20.8295 N   0  0  0  0  0  0  0  0  0  0  0  0
    6.7979  -16.7942   22.9407 C   0  0  0  0  0  0  0  0  0  0  0  0
    5.8975  -16.3392   23.6912 O   0  0  0  0  0  0  0  0  0  0  0  0
    8.9429  -14.6114   19.7171 C   0  0  0  0  0  0  0  0  0  0  0  0
    9.3524  -14.2136   18.4617 C   0  0  0  0  0  0  0  0  0  0  0  0
    8.4584  -20.8585   27.1962 N   0  0  0  0  0  0  0  0  0  0  0  0
    7.7106  -19.8333   26.5831 C   0  0  0  0  0  0  0  0  0  0  0  0
    7.0175  -19.1001   27.3567 O   0  0  0  0  0  0  0  0  0  0  0  0
    7.6492  -19.5265   25.1564 C   0  0  0  0  0  0  0  0  0  0  0  0
    7.7886  -18.0572   24.8446 C   0  0  2  0  0  0  0  0  0  0  0  0
    7.7047  -17.7653   23.4507 N   0  0  0  0  0  0  0  0  0  0  0  0
    9.0273  -17.4854   25.4615 C   0  0  0  0  0  0  0  0  0  0  0  0
   10.1566  -17.6609   24.9242 O   0  0  0  0  0  0  0  0  0  0  0  0
    8.9883  -16.7372   26.6524 N   0  0  0  0  0  0  0  0  0  0  0  0
   10.1362  -16.0577   27.2255 C   0  0  1  0  0  0  0  0  0  0  0  0
   10.0058  -14.5744   27.1626 C   0  0  0  0  0  0  0  0  0  0  0  0
    8.6751  -14.0468   27.5403 C   0  0  0  0  0  0  0  0  0  0  0  0
    8.4061  -13.5183   28.7808 C   0  0  0  0  0  0  0  0  0  0  0  0
    7.1501  -13.0444   29.0611 C   0  0  0  0  0  0  0  0  0  0  0  0
    6.1175  -13.0651   28.1580 C   0  0  0  0  0  0  0  0  0  0  0  0
    6.4099  -13.6011   26.9165 C   0  0  0  0  0  0  0  0  0  0  0  0
    7.6597  -14.0810   26.6142 C   0  0  0  0  0  0  0  0  0  0  0  0
   10.4247  -16.5314   28.5973 C   0  0  0  0  0  0  0  0  0  0  0  0
    9.5936  -17.3607   29.1049 O   0  0  0  0  0  0  0  0  0  0  0  0
   11.5018  -16.1520   29.3486 O   0  0  0  0  0  0  0  0  0  0  0  0
  2  3  2  0
  2  1  1  0
  4  3  1  0
  5  4  2  0
  6  5  1  0
  7  6  1  0
  7  8  1  1
  9  7  1  0
  9 10  2  0
 11  5  1  0
 11 12  2  0
 12  2  1  0
 13 14  1  0
 14 16  1  0
 14 15  2  0
 17 16  1  6
 17 18  1  0
 18  9  1  0
 19 21  1  0
 19 17  1  0
 20 19  2  0
 22 21  1  0
 22 30  1  0
 22 23  1  1
 24 23  1  0
 25 24  2  0
 26 25  1  0
 27 26  2  0
 27 28  1  0
 28 29  2  0
 29 24  1  0
 30 32  1  0
 31 30  2  0
M  END
$$$$
