YNF.pdb
     RDKit          3D

 32 33  0  0  1  0  0  0  0  0999 V2000
    8.4769  -12.2519   17.1939 O   0  0  0  0  0  0  0  0  0  0  0  0
    8.2781  -13.0170   18.3413 C   0  0  0  0  0  0  0  0  0  0  0  0
    9.1350  -14.0627   18.6139 C   0  0  0  0  0  0  0  0  0  0  0  0
    8.9644  -14.8312   19.7325 C   0  0  0  0  0  0  0  0  0  0  0  0
    7.9326  -14.5937   20.6313 C   0  0  0  0  0  0  0  0  0  0  0  0
    7.7756  -15.4461   21.8317 C   0  0  0  0  0  0  0  0  0  0  0  0
    8.7136  -16.6543   21.7506 C   0  0  2  0  0  0  0  0  0  0  0  0
    8.3097  -17.4937   20.6614 N   0  0  0  0  0  0  0  0  0  0  0  0
    8.7215  -17.3724   23.0516 C   0  0  0  0  0  0  0  0  0  0  0  0
    8.2217  -18.5253   23.0973 O   0  0  0  0  0  0  0  0  0  0  0  0
    7.0940  -13.5463   20.3355 C   0  0  0  0  0  0  0  0  0  0  0  0
    7.2434  -12.7560   19.2152 C   0  0  0  0  0  0  0  0  0  0  0  0
   11.8959  -19.3364   22.0564 N   0  0  0  0  0  0  0  0  0  0  0  0
   11.4928  -19.0002   23.3643 C   0  0  0  0  0  0  0  0  0  0  0  0
   11.0330  -19.9488   24.0749 O   0  0  0  0  0  0  0  0  0  0  0  0
   11.5482  -17.6796   23.9862 C   0  0  0  0  0  0  0  0  0  0  0  0
   10.3860  -17.3914   24.9038 C   0  0  2  0  0  0  0  0  0  0  0  0
    9.2709  -16.8043   24.2352 N   0  0  0  0  0  0  0  0  0  0  0  0
   10.8159  -16.5830   26.0885 C   0  0  0  0  0  0  0  0  0  0  0  0
   11.9178  -15.9661   26.0840 O   0  0  0  0  0  0  0  0  0  0  0  0
   10.0213  -16.4767   27.2448 N   0  0  0  0  0  0  0  0  0  0  0  0
   10.3929  -15.7111   28.4210 C   0  0  1  0  0  0  0  0  0  0  0  0
    9.3006  -14.8047   28.8751 C   0  0  0  0  0  0  0  0  0  0  0  0
    8.5246  -14.1664   27.7877 C   0  0  0  0  0  0  0  0  0  0  0  0
    7.4371  -14.7645   27.1961 C   0  0  0  0  0  0  0  0  0  0  0  0
    6.7627  -14.1132   26.1953 C   0  0  0  0  0  0  0  0  0  0  0  0
    7.1141  -12.8695   25.7347 C   0  0  0  0  0  0  0  0  0  0  0  0
    8.2109  -12.2863   26.3436 C   0  0  0  0  0  0  0  0  0  0  0  0
    8.9006  -12.9197   27.3470 C   0  0  0  0  0  0  0  0  0  0  0  0
   10.8788  -16.5843   29.5122 C   0  0  0  0  0  0  0  0  0  0  0  0
   10.7207  -17.8437   29.3532 O   0  0  0  0  0  0  0  0  0  0  0  0
   11.4772  -16.1466   30.6606 O   0  0  0  0  0  0  0  0  0  0  0  0
  2  3  2  0
  2  1  1  0
  4  3  1  0
  5  4  2  0
  6  5  1  0
  7  6  1  0
  7  8  1  6
  9  7  1  0
  9 10  2  0
 11  5  1  0
 11 12  2  0
 12  2  1  0
 13 14  1  0
 14 16  1  0
 14 15  2  0
 17 16  1  6
 17 18  1  0
 18  9  1  0
 19 21  1  0
 19 17  1  0
 20 19  2  0
 22 21  1  0
 22 30  1  0
 22 23  1  1
 24 23  1  0
 25 24  2  0
 26 25  1  0
 27 26  2  0
 27 28  1  0
 28 29  2  0
 29 24  1  0
 30 32  1  0
 31 30  2  0
M  END
$$$$
