YNF.pdb
     RDKit          3D

 32 33  0  0  1  0  0  0  0  0999 V2000
    7.0477  -13.2553   15.4716 O   0  0  0  0  0  0  0  0  0  0  0  0
    7.1143  -13.6832   16.7959 C   0  0  0  0  0  0  0  0  0  0  0  0
    7.6341  -12.8387   17.7544 C   0  0  0  0  0  0  0  0  0  0  0  0
    7.7123  -13.2315   19.0622 C   0  0  0  0  0  0  0  0  0  0  0  0
    7.2765  -14.4837   19.4759 C   0  0  0  0  0  0  0  0  0  0  0  0
    7.3773  -14.8778   20.8996 C   0  0  0  0  0  0  0  0  0  0  0  0
    8.8459  -15.0467   21.3004 C   0  0  2  0  0  0  0  0  0  0  0  0
    9.5653  -15.6477   20.2163 N   0  0  0  0  0  0  0  0  0  0  0  0
    8.9364  -15.8396   22.5540 C   0  0  0  0  0  0  0  0  0  0  0  0
    8.2265  -15.4898   23.5312 O   0  0  0  0  0  0  0  0  0  0  0  0
    6.7634  -15.3047   18.5009 C   0  0  0  0  0  0  0  0  0  0  0  0
    6.6731  -14.9336   17.1758 C   0  0  0  0  0  0  0  0  0  0  0  0
    8.7203  -19.5022   21.9835 N   0  0  0  0  0  0  0  0  0  0  0  0
    9.8468  -19.8645   22.7491 C   0  0  0  0  0  0  0  0  0  0  0  0
   10.3260  -21.0226   22.5355 O   0  0  0  0  0  0  0  0  0  0  0  0
   10.5185  -19.0507   23.7591 C   0  0  0  0  0  0  0  0  0  0  0  0
    9.9286  -17.6715   23.9183 C   0  0  2  0  0  0  0  0  0  0  0  0
    9.7909  -16.9704   22.6835 N   0  0  0  0  0  0  0  0  0  0  0  0
   10.6835  -16.8711   24.9339 C   0  0  0  0  0  0  0  0  0  0  0  0
   11.7924  -16.3408   24.6441 O   0  0  0  0  0  0  0  0  0  0  0  0
   10.1969  -16.6771   26.2398 N   0  0  0  0  0  0  0  0  0  0  0  0
   10.8224  -15.8098   27.2217 C   0  0  1  0  0  0  0  0  0  0  0  0
   10.7477  -14.3721   26.8366 C   0  0  0  0  0  0  0  0  0  0  0  0
    9.3811  -13.8037   26.8025 C   0  0  0  0  0  0  0  0  0  0  0  0
    8.9497  -12.8430   27.6865 C   0  0  0  0  0  0  0  0  0  0  0  0
    7.6701  -12.3587   27.5947 C   0  0  0  0  0  0  0  0  0  0  0  0
    6.7689  -12.7837   26.6513 C   0  0  0  0  0  0  0  0  0  0  0  0
    7.2236  -13.7505   25.7724 C   0  0  0  0  0  0  0  0  0  0  0  0
    8.5001  -14.2493   25.8459 C   0  0  0  0  0  0  0  0  0  0  0  0
   10.2899  -16.0482   28.5815 C   0  0  0  0  0  0  0  0  0  0  0  0
   10.8212  -15.3768   29.5319 O   0  0  0  0  0  0  0  0  0  0  0  0
    9.2841  -16.9213   28.8889 O   0  0  0  0  0  0  0  0  0  0  0  0
  2  3  2  0
  2  1  1  0
  4  3  1  0
  5  4  2  0
  6  5  1  0
  7  6  1  0
  7  8  1  6
  9  7  1  0
  9 10  2  0
 11  5  1  0
 11 12  2  0
 12  2  1  0
 13 14  1  0
 14 16  1  0
 14 15  2  0
 17 16  1  6
 17 18  1  0
 18  9  1  0
 19 21  1  0
 19 17  1  0
 20 19  2  0
 22 21  1  0
 22 30  1  0
 22 23  1  6
 24 23  1  0
 25 24  2  0
 26 25  1  0
 27 26  2  0
 27 28  1  0
 28 29  2  0
 29 24  1  0
 30 32  1  0
 31 30  2  0
M  END
$$$$
