YNF.pdb
     RDKit          3D

 32 33  0  0  1  0  0  0  0  0999 V2000
    6.9421  -12.6036   16.9429 O   0  0  0  0  0  0  0  0  0  0  0  0
    7.2292  -13.2360   18.1508 C   0  0  0  0  0  0  0  0  0  0  0  0
    6.5411  -14.3805   18.4955 C   0  0  0  0  0  0  0  0  0  0  0  0
    6.8013  -15.0227   19.6747 C   0  0  0  0  0  0  0  0  0  0  0  0
    7.7588  -14.5547   20.5653 C   0  0  0  0  0  0  0  0  0  0  0  0
    8.0142  -15.2734   21.8345 C   0  0  0  0  0  0  0  0  0  0  0  0
    9.2433  -16.1767   21.6943 C   0  0  2  0  0  0  0  0  0  0  0  0
    9.0544  -17.0623   20.5833 N   0  0  0  0  0  0  0  0  0  0  0  0
    9.4808  -16.9031   22.9688 C   0  0  0  0  0  0  0  0  0  0  0  0
    8.9675  -18.0425   23.1082 O   0  0  0  0  0  0  0  0  0  0  0  0
    8.4291  -13.4132   20.1973 C   0  0  0  0  0  0  0  0  0  0  0  0
    8.1865  -12.7465   19.0147 C   0  0  0  0  0  0  0  0  0  0  0  0
   12.5294  -17.1044   23.0004 N   0  0  0  0  0  0  0  0  0  0  0  0
   12.3694  -18.2095   23.8604 C   0  0  0  0  0  0  0  0  0  0  0  0
   13.1980  -19.1627   23.7151 O   0  0  0  0  0  0  0  0  0  0  0  0
   11.3539  -18.3730   24.8975 C   0  0  0  0  0  0  0  0  0  0  0  0
   10.5798  -17.1126   25.1936 C   0  0  2  0  0  0  0  0  0  0  0  0
   10.2624  -16.3574   24.0256 N   0  0  0  0  0  0  0  0  0  0  0  0
   11.2726  -16.2790   26.2265 C   0  0  0  0  0  0  0  0  0  0  0  0
   12.4733  -16.5088   26.5431 O   0  0  0  0  0  0  0  0  0  0  0  0
   10.6243  -15.2162   26.8823 N   0  0  0  0  0  0  0  0  0  0  0  0
   10.2273  -15.2414   28.2785 C   0  0  1  0  0  0  0  0  0  0  0  0
    8.7622  -15.0329   28.4545 C   0  0  0  0  0  0  0  0  0  0  0  0
    8.1699  -13.9901   27.5864 C   0  0  0  0  0  0  0  0  0  0  0  0
    8.6416  -12.6993   27.5419 C   0  0  0  0  0  0  0  0  0  0  0  0
    8.0458  -11.7851   26.7112 C   0  0  0  0  0  0  0  0  0  0  0  0
    6.9804  -12.0851   25.9004 C   0  0  0  0  0  0  0  0  0  0  0  0
    6.5219  -13.3889   25.9612 C   0  0  0  0  0  0  0  0  0  0  0  0
    7.1029  -14.3203   26.7850 C   0  0  0  0  0  0  0  0  0  0  0  0
   10.6990  -16.4670   28.9603 C   0  0  0  0  0  0  0  0  0  0  0  0
   10.7484  -17.5332   28.2553 O   0  0  0  0  0  0  0  0  0  0  0  0
   11.0815  -16.5387   30.2706 O   0  0  0  0  0  0  0  0  0  0  0  0
  2  3  2  0
  2  1  1  0
  4  3  1  0
  5  4  2  0
  6  5  1  0
  7  6  1  0
  7  8  1  6
  9  7  1  0
  9 10  2  0
 11  5  1  0
 11 12  2  0
 12  2  1  0
 13 14  1  0
 14 16  1  0
 14 15  2  0
 17 16  1  6
 17 18  1  0
 18  9  1  0
 19 21  1  0
 19 17  1  0
 20 19  2  0
 22 21  1  0
 22 30  1  0
 22 23  1  6
 24 23  1  0
 25 24  2  0
 26 25  1  0
 27 26  2  0
 27 28  1  0
 28 29  2  0
 29 24  1  0
 30 32  1  0
 31 30  2  0
M  END
$$$$
