ERH.pdb
     RDKit          3D

 31 31  0  0  1  0  0  0  0  0999 V2000
    8.9020  -13.5708   18.2093 N   0  0  0  0  0  0  0  0  0  0  0  0
    9.4135  -14.5248   19.1603 C   0  0  1  0  0  0  0  0  0  0  0  0
   10.7789  -14.2346   19.6869 C   0  0  0  0  0  0  0  0  0  0  0  0
   11.9060  -14.4882   18.7548 C   0  0  0  0  0  0  0  0  0  0  0  0
   13.2573  -14.2786   19.2569 C   0  0  0  0  0  0  0  0  0  0  0  0
   14.1422  -15.0939   18.7989 O   0  0  0  0  0  0  0  0  0  0  0  0
    8.4057  -14.6900   20.2323 C   0  0  0  0  0  0  0  0  0  0  0  0
    7.8773  -13.6898   20.7738 O   0  0  0  0  0  0  0  0  0  0  0  0
   13.6976  -13.3345   20.1473 O   0  0  0  0  0  0  0  0  0  0  0  0
    2.7521  -20.1155   20.3037 N   0  0  0  0  0  0  0  0  0  0  0  0
    3.3151  -19.6004   21.5020 C   0  0  0  0  0  0  0  0  0  0  0  0
    2.6316  -18.8924   22.3219 N   0  0  0  0  0  0  0  0  0  0  0  0
    4.6838  -19.8584   21.8387 N   0  0  0  0  0  0  0  0  0  0  0  0
    5.2278  -19.2804   23.0458 C   0  0  0  0  0  0  0  0  0  0  0  0
    5.5014  -17.8206   22.8084 C   0  0  0  0  0  0  0  0  0  0  0  0
    6.7109  -17.6112   21.9161 C   0  0  0  0  0  0  0  0  0  0  0  0
    7.0153  -16.1149   21.7730 C   0  0  2  0  0  0  0  0  0  0  0  0
    7.9704  -15.9734   20.7181 N   0  0  0  0  0  0  0  0  0  0  0  0
    7.4820  -15.6677   23.0899 C   0  0  0  0  0  0  0  0  0  0  0  0
    7.1975  -14.4940   23.4293 O   0  0  0  0  0  0  0  0  0  0  0  0
    3.0048  -18.4588   23.1767 N   0  0  0  0  0  0  0  0  0  0  0  0
    8.2385  -16.4893   24.0045 C   0  0  2  0  0  0  0  0  0  0  0  0
    8.4643  -16.0184   25.3477 C   0  0  0  0  0  0  0  0  0  0  0  0
    7.2346  -15.5878   26.0426 C   0  0  0  0  0  0  0  0  0  0  0  0
    7.0335  -14.1828   26.3110 C   0  0  0  0  0  0  0  0  0  0  0  0
    7.7732  -13.0730   26.0340 N   0  0  0  0  0  0  0  0  0  0  0  0
    7.1387  -11.9451   26.4763 C   0  0  0  0  0  0  0  0  0  0  0  0
    6.0018  -12.3921   27.0255 N   0  0  0  0  0  0  0  0  0  0  0  0
    5.9075  -13.7218   26.9436 C   0  0  0  0  0  0  0  0  0  0  0  0
    9.3054  -16.9486   26.1353 O   0  0  0  0  0  0  0  0  0  0  0  0
    9.7478  -18.1000   25.5654 O   0  0  0  0  0  0  0  0  0  0  0  0
  2  1  1  6
  3  2  1  0
  3  4  1  0
  4  5  1  0
  5  9  1  0
  6  5  2  0
  7  2  1  0
  8  7  2  0
 10 11  1  0
 11 12  2  0
 13 14  1  0
 13 11  1  0
 14 15  1  0
 16 15  1  0
 17 16  1  1
 17 18  1  0
 18  7  1  0
 19 21  1  0
 19 17  1  0
 20 19  2  0
 22 21  1  0
 22 29  1  0
 22 23  1  6
 23 24  1  0
 24 28  1  0
 24 25  2  0
 25 26  1  0
 27 26  1  0
 28 27  2  0
 29 30  1  0
 31 29  2  0
M  END
$$$$
