ERH.pdb
     RDKit          3D

 31 31  0  0  1  0  0  0  0  0999 V2000
   10.0808  -13.0448   18.9887 N   0  0  0  0  0  0  0  0  0  0  0  0
    8.7113  -13.4662   19.1414 C   0  0  1  0  0  0  0  0  0  0  0  0
    8.0519  -13.9620   17.8983 C   0  0  0  0  0  0  0  0  0  0  0  0
    8.7398  -15.0716   17.1918 C   0  0  0  0  0  0  0  0  0  0  0  0
    8.1589  -15.5375   15.9398 C   0  0  0  0  0  0  0  0  0  0  0  0
    8.8277  -16.4578   15.3371 O   0  0  0  0  0  0  0  0  0  0  0  0
    8.6525  -14.4421   20.2532 C   0  0  0  0  0  0  0  0  0  0  0  0
    7.5652  -14.6980   20.8234 O   0  0  0  0  0  0  0  0  0  0  0  0
    7.0043  -15.1212   15.3302 O   0  0  0  0  0  0  0  0  0  0  0  0
   12.0667  -21.7949   20.1837 N   0  0  0  0  0  0  0  0  0  0  0  0
   11.3412  -21.2150   19.1087 C   0  0  0  0  0  0  0  0  0  0  0  0
   10.8528  -21.9243   18.1605 N   0  0  0  0  0  0  0  0  0  0  0  0
   11.1281  -19.7993   19.0477 N   0  0  0  0  0  0  0  0  0  0  0  0
   11.5486  -18.9803   20.1611 C   0  0  0  0  0  0  0  0  0  0  0  0
   10.4241  -18.0563   20.5402 C   0  0  0  0  0  0  0  0  0  0  0  0
   10.8245  -17.1085   21.6558 C   0  0  0  0  0  0  0  0  0  0  0  0
    9.7424  -16.0416   21.8630 C   0  0  2  0  0  0  0  0  0  0  0  0
    9.8053  -15.1488   20.7475 N   0  0  0  0  0  0  0  0  0  0  0  0
   10.0253  -15.4234   23.1628 C   0  0  0  0  0  0  0  0  0  0  0  0
   10.6412  -14.3306   23.1546 O   0  0  0  0  0  0  0  0  0  0  0  0
   10.4020  -21.5468   17.3165 N   0  0  0  0  0  0  0  0  0  0  0  0
    9.6405  -15.9922   24.4326 C   0  0  2  0  0  0  0  0  0  0  0  0
    9.1249  -15.1253   25.4620 C   0  0  0  0  0  0  0  0  0  0  0  0
    8.0949  -14.1810   24.9849 C   0  0  0  0  0  0  0  0  0  0  0  0
    7.4862  -13.2696   25.9257 C   0  0  0  0  0  0  0  0  0  0  0  0
    7.6850  -13.0419   27.2540 N   0  0  0  0  0  0  0  0  0  0  0  0
    6.8675  -12.0411   27.7016 C   0  0  0  0  0  0  0  0  0  0  0  0
    6.1708  -11.6670   26.6206 N   0  0  0  0  0  0  0  0  0  0  0  0
    6.5153  -12.3792   25.5446 C   0  0  0  0  0  0  0  0  0  0  0  0
    8.7385  -15.8702   26.6822 O   0  0  0  0  0  0  0  0  0  0  0  0
    8.4052  -17.1842   26.5896 O   0  0  0  0  0  0  0  0  0  0  0  0
  2  1  1  6
  3  2  1  0
  3  4  1  0
  4  5  1  0
  5  9  1  0
  6  5  2  0
  7  2  1  0
  8  7  2  0
 10 11  1  0
 11 12  2  0
 13 14  1  0
 13 11  1  0
 14 15  1  0
 16 15  1  0
 17 16  1  6
 17 18  1  0
 18  7  1  0
 19 21  1  0
 19 17  1  0
 20 19  2  0
 22 21  1  0
 22 29  1  0
 22 23  1  6
 23 24  1  0
 24 28  1  0
 24 25  2  0
 25 26  1  0
 27 26  1  0
 28 27  2  0
 29 30  1  0
 31 29  2  0
M  END
$$$$
