ERH.pdb
     RDKit          3D

 31 31  0  0  1  0  0  0  0  0999 V2000
   12.0442  -16.7631   16.1088 N   0  0  0  0  0  0  0  0  0  0  0  0
   10.8748  -16.9401   16.9320 C   0  0  1  0  0  0  0  0  0  0  0  0
   10.5313  -18.3543   17.2604 C   0  0  0  0  0  0  0  0  0  0  0  0
   11.5224  -19.0933   18.0821 C   0  0  0  0  0  0  0  0  0  0  0  0
   11.2064  -20.4679   18.4463 C   0  0  0  0  0  0  0  0  0  0  0  0
   11.3148  -20.7389   19.7002 O   0  0  0  0  0  0  0  0  0  0  0  0
   11.0269  -16.0900   18.1345 C   0  0  0  0  0  0  0  0  0  0  0  0
   12.1643  -15.7484   18.5374 O   0  0  0  0  0  0  0  0  0  0  0  0
   10.8152  -21.4964   17.6295 O   0  0  0  0  0  0  0  0  0  0  0  0
    8.0102  -15.1250   16.6810 N   0  0  0  0  0  0  0  0  0  0  0  0
    7.6416  -13.7577   16.5669 C   0  0  0  0  0  0  0  0  0  0  0  0
    7.9605  -13.0531   15.5458 N   0  0  0  0  0  0  0  0  0  0  0  0
    6.8912  -13.1120   17.6029 N   0  0  0  0  0  0  0  0  0  0  0  0
    6.9180  -13.6682   18.9360 C   0  0  0  0  0  0  0  0  0  0  0  0
    8.2173  -13.2951   19.5952 C   0  0  0  0  0  0  0  0  0  0  0  0
    8.6951  -14.3729   20.5507 C   0  0  0  0  0  0  0  0  0  0  0  0
   10.0789  -14.8831   20.1301 C   0  0  2  0  0  0  0  0  0  0  0  0
    9.9128  -15.6065   18.9077 N   0  0  0  0  0  0  0  0  0  0  0  0
   10.5765  -15.6819   21.2554 C   0  0  0  0  0  0  0  0  0  0  0  0
    9.7214  -16.2565   21.9713 O   0  0  0  0  0  0  0  0  0  0  0  0
    7.8081  -12.0395   15.4605 N   0  0  0  0  0  0  0  0  0  0  0  0
   11.9736  -15.8427   21.5811 C   0  0  1  0  0  0  0  0  0  0  0  0
   12.3447  -16.7146   22.6669 C   0  0  0  0  0  0  0  0  0  0  0  0
   11.7397  -18.0590   22.5849 C   0  0  0  0  0  0  0  0  0  0  0  0
   10.3436  -18.2236   22.9170 C   0  0  0  0  0  0  0  0  0  0  0  0
    9.5852  -17.7954   23.9644 N   0  0  0  0  0  0  0  0  0  0  0  0
    8.2847  -18.1910   23.8145 C   0  0  0  0  0  0  0  0  0  0  0  0
    8.2695  -18.8658   22.6576 N   0  0  0  0  0  0  0  0  0  0  0  0
    9.4808  -18.9040   22.0964 C   0  0  0  0  0  0  0  0  0  0  0  0
   13.8066  -16.7267   22.9032 O   0  0  0  0  0  0  0  0  0  0  0  0
   14.6241  -16.0068   22.0909 O   0  0  0  0  0  0  0  0  0  0  0  0
  2  1  1  1
  3  2  1  0
  3  4  1  0
  4  5  1  0
  5  9  1  0
  6  5  2  0
  7  2  1  0
  8  7  2  0
 10 11  1  0
 11 12  2  0
 13 14  1  0
 13 11  1  0
 14 15  1  0
 16 15  1  0
 17 16  1  1
 17 18  1  0
 18  7  1  0
 19 21  1  0
 19 17  1  0
 20 19  2  0
 22 21  1  0
 22 29  1  0
 22 23  1  1
 23 24  1  0
 24 28  1  0
 24 25  2  0
 25 26  1  0
 27 26  1  0
 28 27  2  0
 29 30  1  0
 31 29  2  0
M  END
$$$$
