ERH.pdb
     RDKit          3D

 31 31  0  0  1  0  0  0  0  0999 V2000
   11.7921  -18.3973   19.7806 N   0  0  0  0  0  0  0  0  0  0  0  0
   10.4284  -18.2094   20.2064 C   0  0  1  0  0  0  0  0  0  0  0  0
    9.8551  -19.3171   21.0251 C   0  0  0  0  0  0  0  0  0  0  0  0
   10.4353  -19.4960   22.3797 C   0  0  0  0  0  0  0  0  0  0  0  0
    9.8496  -20.5195   23.2349 C   0  0  0  0  0  0  0  0  0  0  0  0
    9.4919  -20.1148   24.4036 O   0  0  0  0  0  0  0  0  0  0  0  0
   10.3331  -16.8911   20.8734 C   0  0  0  0  0  0  0  0  0  0  0  0
   11.3491  -16.3513   21.3726 O   0  0  0  0  0  0  0  0  0  0  0  0
    9.6371  -21.8439   22.9543 O   0  0  0  0  0  0  0  0  0  0  0  0
    7.1752  -14.3165   16.4482 N   0  0  0  0  0  0  0  0  0  0  0  0
    8.4065  -13.7920   16.9247 C   0  0  0  0  0  0  0  0  0  0  0  0
    9.5140  -14.0058   16.3178 N   0  0  0  0  0  0  0  0  0  0  0  0
    8.4523  -12.9960   18.1153 N   0  0  0  0  0  0  0  0  0  0  0  0
    7.3725  -13.1022   19.0693 C   0  0  0  0  0  0  0  0  0  0  0  0
    7.9355  -12.9891   20.4593 C   0  0  0  0  0  0  0  0  0  0  0  0
    7.6901  -14.2474   21.2715 C   0  0  0  0  0  0  0  0  0  0  0  0
    9.0228  -14.8940   21.6686 C   0  0  2  0  0  0  0  0  0  0  0  0
    9.1031  -16.1528   20.9947 N   0  0  0  0  0  0  0  0  0  0  0  0
    9.0124  -14.9794   23.1330 C   0  0  0  0  0  0  0  0  0  0  0  0
    8.8710  -13.9065   23.7675 O   0  0  0  0  0  0  0  0  0  0  0  0
   10.4296  -13.6498   16.6228 N   0  0  0  0  0  0  0  0  0  0  0  0
    9.1529  -16.2097   23.8750 C   0  0  1  0  0  0  0  0  0  0  0  0
    8.9308  -16.1992   25.2989 C   0  0  0  0  0  0  0  0  0  0  0  0
    7.6241  -15.6362   25.6938 C   0  0  0  0  0  0  0  0  0  0  0  0
    7.5514  -14.2571   26.1171 C   0  0  0  0  0  0  0  0  0  0  0  0
    8.4965  -13.2914   26.2902 N   0  0  0  0  0  0  0  0  0  0  0  0
    7.9210  -12.1158   26.6865 C   0  0  0  0  0  0  0  0  0  0  0  0
    6.6109  -12.3870   26.7496 N   0  0  0  0  0  0  0  0  0  0  0  0
    6.3561  -13.6549   26.4161 C   0  0  0  0  0  0  0  0  0  0  0  0
    9.2361  -17.5061   25.9248 O   0  0  0  0  0  0  0  0  0  0  0  0
    9.4489  -18.5938   25.1386 O   0  0  0  0  0  0  0  0  0  0  0  0
  2  1  1  1
  3  2  1  0
  3  4  1  0
  4  5  1  0
  5  9  1  0
  6  5  2  0
  7  2  1  0
  8  7  2  0
 10 11  1  0
 11 12  2  0
 13 14  1  0
 13 11  1  0
 14 15  1  0
 16 15  1  0
 17 16  1  6
 17 18  1  0
 18  7  1  0
 19 21  1  0
 19 17  1  0
 20 19  2  0
 22 21  1  0
 22 29  1  0
 22 23  1  1
 23 24  1  0
 24 28  1  0
 24 25  2  0
 25 26  1  0
 27 26  1  0
 28 27  2  0
 29 30  1  0
 31 29  2  0
M  END
$$$$
