ERH.pdb
     RDKit          3D

 31 31  0  0  1  0  0  0  0  0999 V2000
   10.8048  -18.9464   20.6400 N   0  0  0  0  0  0  0  0  0  0  0  0
   11.9442  -18.1340   20.9835 C   0  0  1  0  0  0  0  0  0  0  0  0
   12.8395  -17.7734   19.8459 C   0  0  0  0  0  0  0  0  0  0  0  0
   13.4127  -18.9087   19.0804 C   0  0  0  0  0  0  0  0  0  0  0  0
   14.2699  -18.5933   17.9456 C   0  0  0  0  0  0  0  0  0  0  0  0
   15.3708  -17.9955   18.2429 O   0  0  0  0  0  0  0  0  0  0  0  0
   11.4570  -16.9521   21.7303 C   0  0  0  0  0  0  0  0  0  0  0  0
   12.2645  -16.1288   22.2231 O   0  0  0  0  0  0  0  0  0  0  0  0
   14.0515  -18.8483   16.6170 O   0  0  0  0  0  0  0  0  0  0  0  0
    8.4434  -11.9254   18.8823 N   0  0  0  0  0  0  0  0  0  0  0  0
    8.0594  -13.0388   18.0879 C   0  0  0  0  0  0  0  0  0  0  0  0
    8.3193  -13.0988   16.8351 N   0  0  0  0  0  0  0  0  0  0  0  0
    7.3596  -14.1465   18.6681 N   0  0  0  0  0  0  0  0  0  0  0  0
    7.1806  -14.1873   20.1011 C   0  0  0  0  0  0  0  0  0  0  0  0
    8.4809  -14.5831   20.7449 C   0  0  0  0  0  0  0  0  0  0  0  0
    8.2773  -15.0957   22.1587 C   0  0  0  0  0  0  0  0  0  0  0  0
    9.6085  -15.5788   22.7476 C   0  0  2  0  0  0  0  0  0  0  0  0
   10.0611  -16.6687   21.9397 N   0  0  0  0  0  0  0  0  0  0  0  0
    9.3327  -15.9227   24.1467 C   0  0  0  0  0  0  0  0  0  0  0  0
    8.6000  -16.9190   24.3571 O   0  0  0  0  0  0  0  0  0  0  0  0
    8.0957  -13.8971   16.2261 N   0  0  0  0  0  0  0  0  0  0  0  0
    9.8492  -15.1911   25.2789 C   0  0  2  0  0  0  0  0  0  0  0  0
    9.3636  -15.5067   26.5986 C   0  0  0  0  0  0  0  0  0  0  0  0
    7.9014  -15.3628   26.7455 C   0  0  0  0  0  0  0  0  0  0  0  0
    7.3051  -14.0551   26.6008 C   0  0  0  0  0  0  0  0  0  0  0  0
    7.8340  -12.8083   26.4542 N   0  0  0  0  0  0  0  0  0  0  0  0
    6.8437  -11.8737   26.3282 C   0  0  0  0  0  0  0  0  0  0  0  0
    5.7061  -12.5771   26.4007 N   0  0  0  0  0  0  0  0  0  0  0  0
    5.9454  -13.8810   26.5630 C   0  0  0  0  0  0  0  0  0  0  0  0
    9.8941  -16.7955   27.0990 O   0  0  0  0  0  0  0  0  0  0  0  0
   10.6905  -17.5504   26.2978 O   0  0  0  0  0  0  0  0  0  0  0  0
  2  1  1  6
  3  2  1  0
  3  4  1  0
  4  5  1  0
  5  9  1  0
  6  5  2  0
  7  2  1  0
  8  7  2  0
 10 11  1  0
 11 12  2  0
 13 14  1  0
 13 11  1  0
 14 15  1  0
 16 15  1  0
 17 16  1  6
 17 18  1  0
 18  7  1  0
 19 21  1  0
 19 17  1  0
 20 19  2  0
 22 21  1  0
 22 29  1  0
 22 23  1  1
 23 24  1  0
 24 28  1  0
 24 25  2  0
 25 26  1  0
 27 26  1  0
 28 27  2  0
 29 30  1  0
 31 29  2  0
M  END
$$$$
