ERH.pdb
     RDKit          3D

 31 31  0  0  1  0  0  0  0  0999 V2000
   15.4846  -15.4596   14.9194 N   0  0  0  0  0  0  0  0  0  0  0  0
   14.8904  -16.1548   16.0329 C   0  0  1  0  0  0  0  0  0  0  0  0
   15.8470  -16.8789   16.9197 C   0  0  0  0  0  0  0  0  0  0  0  0
   17.0285  -16.1048   17.3762 C   0  0  0  0  0  0  0  0  0  0  0  0
   18.0435  -16.8129   18.1444 C   0  0  0  0  0  0  0  0  0  0  0  0
   19.0473  -16.0961   18.5136 O   0  0  0  0  0  0  0  0  0  0  0  0
   14.0350  -15.1964   16.7690 C   0  0  0  0  0  0  0  0  0  0  0  0
   14.2458  -13.9624   16.6948 O   0  0  0  0  0  0  0  0  0  0  0  0
   18.0637  -18.1318   18.5163 O   0  0  0  0  0  0  0  0  0  0  0  0
    7.9168  -15.0510   15.8525 N   0  0  0  0  0  0  0  0  0  0  0  0
    7.6067  -13.8970   16.6209 C   0  0  0  0  0  0  0  0  0  0  0  0
    7.5139  -12.7349   16.0905 N   0  0  0  0  0  0  0  0  0  0  0  0
    7.3842  -13.9949   18.0331 N   0  0  0  0  0  0  0  0  0  0  0  0
    8.2576  -14.8327   18.8220 C   0  0  0  0  0  0  0  0  0  0  0  0
    9.6489  -14.2628   18.7821 C   0  0  0  0  0  0  0  0  0  0  0  0
   10.6497  -15.2566   18.2217 C   0  0  0  0  0  0  0  0  0  0  0  0
   12.0613  -14.6571   18.2357 C   0  0  2  0  0  0  0  0  0  0  0  0
   12.9301  -15.5984   17.5999 N   0  0  0  0  0  0  0  0  0  0  0  0
   12.3729  -14.3847   19.6430 C   0  0  0  0  0  0  0  0  0  0  0  0
   11.6428  -13.5582   20.2409 O   0  0  0  0  0  0  0  0  0  0  0  0
    7.2559  -11.8770   16.5960 N   0  0  0  0  0  0  0  0  0  0  0  0
   13.4557  -15.0049   20.3689 C   0  0  1  0  0  0  0  0  0  0  0  0
   13.2262  -15.4604   21.7167 C   0  0  0  0  0  0  0  0  0  0  0  0
   12.0481  -16.3396   21.8560 C   0  0  0  0  0  0  0  0  0  0  0  0
   11.6399  -16.7652   23.1745 C   0  0  0  0  0  0  0  0  0  0  0  0
   11.9433  -17.8580   23.9291 N   0  0  0  0  0  0  0  0  0  0  0  0
   11.3162  -17.7979   25.1429 C   0  0  0  0  0  0  0  0  0  0  0  0
   10.6283  -16.6492   25.1096 N   0  0  0  0  0  0  0  0  0  0  0  0
   10.7994  -16.0086   23.9502 C   0  0  0  0  0  0  0  0  0  0  0  0
   14.4549  -15.9978   22.3450 O   0  0  0  0  0  0  0  0  0  0  0  0
   14.4504  -16.3136   23.6665 O   0  0  0  0  0  0  0  0  0  0  0  0
  2  1  1  6
  3  2  1  0
  3  4  1  0
  4  5  1  0
  5  9  1  0
  6  5  2  0
  7  2  1  0
  8  7  2  0
 10 11  1  0
 11 12  2  0
 13 14  1  0
 13 11  1  0
 14 15  1  0
 16 15  1  0
 17 16  1  1
 17 18  1  0
 18  7  1  0
 19 21  1  0
 19 17  1  0
 20 19  2  0
 22 21  1  0
 22 29  1  0
 22 23  1  1
 23 24  1  0
 24 28  1  0
 24 25  2  0
 25 26  1  0
 27 26  1  0
 28 27  2  0
 29 30  1  0
 31 29  2  0
M  END
$$$$
