ERH.pdb
     RDKit          3D

 31 31  0  0  1  0  0  0  0  0999 V2000
   13.3433  -16.5691   19.0680 N   0  0  0  0  0  0  0  0  0  0  0  0
   12.5022  -17.4962   19.7816 C   0  0  1  0  0  0  0  0  0  0  0  0
   12.9945  -18.9039   19.8257 C   0  0  0  0  0  0  0  0  0  0  0  0
   14.2923  -19.1208   20.5130 C   0  0  0  0  0  0  0  0  0  0  0  0
   14.8267  -20.4758   20.5339 C   0  0  0  0  0  0  0  0  0  0  0  0
   15.9942  -20.5937   21.0635 O   0  0  0  0  0  0  0  0  0  0  0  0
   12.2388  -16.9357   21.1264 C   0  0  0  0  0  0  0  0  0  0  0  0
   13.1754  -16.4792   21.8244 O   0  0  0  0  0  0  0  0  0  0  0  0
   14.2491  -21.6260   20.0632 O   0  0  0  0  0  0  0  0  0  0  0  0
    8.3465  -11.4623   20.0928 N   0  0  0  0  0  0  0  0  0  0  0  0
    8.1809  -12.8695   20.1959 C   0  0  0  0  0  0  0  0  0  0  0  0
    8.4407  -13.6555   19.2185 N   0  0  0  0  0  0  0  0  0  0  0  0
    7.7118  -13.4651   21.4118 N   0  0  0  0  0  0  0  0  0  0  0  0
    7.4741  -14.8897   21.4463 C   0  0  0  0  0  0  0  0  0  0  0  0
    8.7946  -15.6035   21.5404 C   0  0  0  0  0  0  0  0  0  0  0  0
    9.3660  -15.5497   22.9453 C   0  0  0  0  0  0  0  0  0  0  0  0
   10.6884  -16.3236   23.0130 C   0  0  2  0  0  0  0  0  0  0  0  0
   10.9263  -16.8748   21.7150 N   0  0  0  0  0  0  0  0  0  0  0  0
   10.5248  -17.3146   24.0821 C   0  0  0  0  0  0  0  0  0  0  0  0
    9.7601  -18.2823   23.8528 O   0  0  0  0  0  0  0  0  0  0  0  0
    8.3650  -14.6808   19.2527 N   0  0  0  0  0  0  0  0  0  0  0  0
   11.1841  -17.2412   25.3642 C   0  0  1  0  0  0  0  0  0  0  0  0
   11.0063  -18.3168   26.3068 C   0  0  0  0  0  0  0  0  0  0  0  0
   12.2521  -19.0434   26.6235 C   0  0  0  0  0  0  0  0  0  0  0  0
   12.9727  -19.7015   25.5586 C   0  0  0  0  0  0  0  0  0  0  0  0
   12.5694  -20.3300   24.4193 N   0  0  0  0  0  0  0  0  0  0  0  0
   13.6466  -20.7783   23.7059 C   0  0  0  0  0  0  0  0  0  0  0  0
   14.7090  -20.4094   24.4335 N   0  0  0  0  0  0  0  0  0  0  0  0
   14.3425  -19.7650   25.5444 C   0  0  0  0  0  0  0  0  0  0  0  0
   10.2357  -17.8968   27.4996 O   0  0  0  0  0  0  0  0  0  0  0  0
    9.9942  -18.7922   28.4926 O   0  0  0  0  0  0  0  0  0  0  0  0
  2  1  1  1
  3  2  1  0
  3  4  1  0
  4  5  1  0
  5  9  1  0
  6  5  2  0
  7  2  1  0
  8  7  2  0
 10 11  1  0
 11 12  2  0
 13 14  1  0
 13 11  1  0
 14 15  1  0
 16 15  1  0
 17 16  1  6
 17 18  1  0
 18  7  1  0
 19 21  1  0
 19 17  1  0
 20 19  2  0
 22 21  1  0
 22 29  1  0
 22 23  1  6
 23 24  1  0
 24 28  1  0
 24 25  2  0
 25 26  1  0
 27 26  1  0
 28 27  2  0
 29 30  1  0
 31 29  2  0
M  END
$$$$
