ERH.pdb
     RDKit          3D

 31 31  0  0  1  0  0  0  0  0999 V2000
   17.5934  -17.9425   14.1769 N   0  0  0  0  0  0  0  0  0  0  0  0
   18.3761  -18.6182   15.1805 C   0  0  1  0  0  0  0  0  0  0  0  0
   19.7575  -18.0902   15.3777 C   0  0  0  0  0  0  0  0  0  0  0  0
   19.9023  -16.6131   15.3504 C   0  0  0  0  0  0  0  0  0  0  0  0
   21.2318  -16.0611   15.5737 C   0  0  0  0  0  0  0  0  0  0  0  0
   21.3203  -14.7830   15.4469 O   0  0  0  0  0  0  0  0  0  0  0  0
   17.5874  -18.6505   16.4331 C   0  0  0  0  0  0  0  0  0  0  0  0
   17.6317  -17.6934   17.2423 O   0  0  0  0  0  0  0  0  0  0  0  0
   22.3863  -16.7256   15.8955 O   0  0  0  0  0  0  0  0  0  0  0  0
   11.6622  -24.4118   16.6163 N   0  0  0  0  0  0  0  0  0  0  0  0
   12.9716  -24.1677   16.1223 C   0  0  0  0  0  0  0  0  0  0  0  0
   13.5988  -25.0289   15.4113 N   0  0  0  0  0  0  0  0  0  0  0  0
   13.6437  -22.9343   16.4057 N   0  0  0  0  0  0  0  0  0  0  0  0
   12.9657  -21.9346   17.1982 C   0  0  0  0  0  0  0  0  0  0  0  0
   13.8508  -20.7248   17.3203 C   0  0  0  0  0  0  0  0  0  0  0  0
   15.1511  -21.0468   18.0335 C   0  0  0  0  0  0  0  0  0  0  0  0
   16.0622  -19.8134   18.0637 C   0  0  2  0  0  0  0  0  0  0  0  0
   16.7362  -19.7508   16.8039 N   0  0  0  0  0  0  0  0  0  0  0  0
   16.9421  -19.9868   19.2246 C   0  0  0  0  0  0  0  0  0  0  0  0
   18.1035  -20.4066   19.0044 O   0  0  0  0  0  0  0  0  0  0  0  0
   14.5352  -24.8891   15.0092 N   0  0  0  0  0  0  0  0  0  0  0  0
   16.5536  -19.7056   20.5862 C   0  0  1  0  0  0  0  0  0  0  0  0
   17.5195  -19.8803   21.6414 C   0  0  0  0  0  0  0  0  0  0  0  0
   18.7801  -19.1430   21.4231 C   0  0  0  0  0  0  0  0  0  0  0  0
   19.8462  -19.7764   20.6823 C   0  0  0  0  0  0  0  0  0  0  0  0
   19.9698  -21.0048   20.1066 N   0  0  0  0  0  0  0  0  0  0  0  0
   21.1819  -21.1290   19.4857 C   0  0  0  0  0  0  0  0  0  0  0  0
   21.7894  -19.9539   19.6954 N   0  0  0  0  0  0  0  0  0  0  0  0
   21.0204  -19.1243   20.4054 C   0  0  0  0  0  0  0  0  0  0  0  0
   16.9283  -19.6759   22.9836 O   0  0  0  0  0  0  0  0  0  0  0  0
   17.6815  -19.9050   24.0911 O   0  0  0  0  0  0  0  0  0  0  0  0
  2  1  1  6
  3  2  1  0
  3  4  1  0
  4  5  1  0
  5  9  1  0
  6  5  2  0
  7  2  1  0
  8  7  2  0
 10 11  1  0
 11 12  2  0
 13 14  1  0
 13 11  1  0
 14 15  1  0
 16 15  1  0
 17 16  1  6
 17 18  1  0
 18  7  1  0
 19 21  1  0
 19 17  1  0
 20 19  2  0
 22 21  1  0
 22 29  1  0
 22 23  1  1
 23 24  1  0
 24 28  1  0
 24 25  2  0
 25 26  1  0
 27 26  1  0
 28 27  2  0
 29 30  1  0
 31 29  2  0
M  END
$$$$
