ERH.pdb
     RDKit          3D

 31 31  0  0  1  0  0  0  0  0999 V2000
   14.4961  -16.3909    9.9377 N   0  0  0  0  0  0  0  0  0  0  0  0
   14.2904  -17.7738   10.2865 C   0  0  1  0  0  0  0  0  0  0  0  0
   15.4342  -18.6852    9.9918 C   0  0  0  0  0  0  0  0  0  0  0  0
   16.7848  -18.1674   10.3254 C   0  0  0  0  0  0  0  0  0  0  0  0
   17.9249  -19.0338   10.0576 C   0  0  0  0  0  0  0  0  0  0  0  0
   19.0195  -18.6917   10.6428 O   0  0  0  0  0  0  0  0  0  0  0  0
   13.8579  -17.8310   11.7013 C   0  0  0  0  0  0  0  0  0  0  0  0
   14.1278  -16.8954   12.4916 O   0  0  0  0  0  0  0  0  0  0  0  0
   17.9769  -20.1525    9.2678 O   0  0  0  0  0  0  0  0  0  0  0  0
    7.8421  -20.4911   10.5656 N   0  0  0  0  0  0  0  0  0  0  0  0
    7.3092  -19.4461   11.3670 C   0  0  0  0  0  0  0  0  0  0  0  0
    6.2924  -18.7604   10.9973 N   0  0  0  0  0  0  0  0  0  0  0  0
    7.8979  -19.1195   12.6319 N   0  0  0  0  0  0  0  0  0  0  0  0
    9.0002  -19.9176   13.1170 C   0  0  0  0  0  0  0  0  0  0  0  0
   10.2321  -19.0577   13.1878 C   0  0  0  0  0  0  0  0  0  0  0  0
   11.4340  -19.8345   13.6928 C   0  0  0  0  0  0  0  0  0  0  0  0
   12.6967  -18.9667   13.6247 C   0  0  2  0  0  0  0  0  0  0  0  0
   13.1172  -18.9328   12.2582 N   0  0  0  0  0  0  0  0  0  0  0  0
   13.6585  -19.5759   14.5498 C   0  0  0  0  0  0  0  0  0  0  0  0
   14.4737  -20.3985   14.0675 O   0  0  0  0  0  0  0  0  0  0  0  0
    5.8833  -17.9818   11.5307 N   0  0  0  0  0  0  0  0  0  0  0  0
   13.7200  -19.2868   15.9627 C   0  0  2  0  0  0  0  0  0  0  0  0
   14.9761  -19.4316   16.6542 C   0  0  0  0  0  0  0  0  0  0  0  0
   16.0858  -18.6774   16.0378 C   0  0  0  0  0  0  0  0  0  0  0  0
   17.3986  -18.7422   16.6369 C   0  0  0  0  0  0  0  0  0  0  0  0
   17.8498  -18.5197   17.9029 N   0  0  0  0  0  0  0  0  0  0  0  0
   19.1975  -18.7377   17.9821 C   0  0  0  0  0  0  0  0  0  0  0  0
   19.5539  -19.0964   16.7418 N   0  0  0  0  0  0  0  0  0  0  0  0
   18.5052  -19.1094   15.9149 C   0  0  0  0  0  0  0  0  0  0  0  0
   14.8420  -19.2185   18.1135 O   0  0  0  0  0  0  0  0  0  0  0  0
   15.3097  -20.1590   18.9753 O   0  0  0  0  0  0  0  0  0  0  0  0
  2  1  1  1
  3  2  1  0
  3  4  1  0
  4  5  1  0
  5  9  1  0
  6  5  2  0
  7  2  1  0
  8  7  2  0
 10 11  1  0
 11 12  2  0
 13 14  1  0
 13 11  1  0
 14 15  1  0
 16 15  1  0
 17 16  1  6
 17 18  1  0
 18  7  1  0
 19 21  1  0
 19 17  1  0
 20 19  2  0
 22 21  1  0
 22 29  1  0
 22 23  1  6
 23 24  1  0
 24 28  1  0
 24 25  2  0
 25 26  1  0
 27 26  1  0
 28 27  2  0
 29 30  1  0
 31 29  2  0
M  END
$$$$
