ERH.pdb
     RDKit          3D

 31 31  0  0  1  0  0  0  0  0999 V2000
   10.1019  -16.0039   18.5744 N   0  0  0  0  0  0  0  0  0  0  0  0
    9.2480  -14.9380   19.0335 C   0  0  1  0  0  0  0  0  0  0  0  0
    8.2808  -14.4135   18.0259 C   0  0  0  0  0  0  0  0  0  0  0  0
    8.4982  -14.8489   16.6235 C   0  0  0  0  0  0  0  0  0  0  0  0
    7.5161  -14.4376   15.6293 C   0  0  0  0  0  0  0  0  0  0  0  0
    6.6382  -13.5932   16.0462 O   0  0  0  0  0  0  0  0  0  0  0  0
    8.5926  -15.3814   20.2848 C   0  0  0  0  0  0  0  0  0  0  0  0
    7.8195  -14.6158   20.9086 O   0  0  0  0  0  0  0  0  0  0  0  0
    7.4105  -14.8351   14.3220 O   0  0  0  0  0  0  0  0  0  0  0  0
    9.0888  -20.9828   26.2008 N   0  0  0  0  0  0  0  0  0  0  0  0
    7.7221  -21.3145   25.9997 C   0  0  0  0  0  0  0  0  0  0  0  0
    7.0193  -21.8735   26.9130 N   0  0  0  0  0  0  0  0  0  0  0  0
    7.0751  -21.0314   24.7529 N   0  0  0  0  0  0  0  0  0  0  0  0
    7.8743  -20.5815   23.6367 C   0  0  0  0  0  0  0  0  0  0  0  0
    7.7014  -19.0958   23.4790 C   0  0  0  0  0  0  0  0  0  0  0  0
    8.5329  -18.5496   22.3330 C   0  0  0  0  0  0  0  0  0  0  0  0
    8.2492  -17.0556   22.1332 C   0  0  2  0  0  0  0  0  0  0  0  0
    8.7883  -16.6861   20.8612 N   0  0  0  0  0  0  0  0  0  0  0  0
    8.8539  -16.3704   23.2807 C   0  0  0  0  0  0  0  0  0  0  0  0
    9.6857  -15.4647   23.0327 O   0  0  0  0  0  0  0  0  0  0  0  0
    6.0006  -22.0097   26.8699 N   0  0  0  0  0  0  0  0  0  0  0  0
    8.5505  -16.6740   24.6590 C   0  0  2  0  0  0  0  0  0  0  0  0
    8.3661  -15.5908   25.5915 C   0  0  0  0  0  0  0  0  0  0  0  0
    7.4192  -14.5582   25.1255 C   0  0  0  0  0  0  0  0  0  0  0  0
    7.1660  -13.4073   25.9609 C   0  0  0  0  0  0  0  0  0  0  0  0
    7.6776  -13.0016   27.1564 N   0  0  0  0  0  0  0  0  0  0  0  0
    7.1292  -11.8083   27.5381 C   0  0  0  0  0  0  0  0  0  0  0  0
    6.2771  -11.4990   26.5521 N   0  0  0  0  0  0  0  0  0  0  0  0
    6.2747  -12.4312   25.5957 C   0  0  0  0  0  0  0  0  0  0  0  0
    8.1015  -16.0723   26.9667 O   0  0  0  0  0  0  0  0  0  0  0  0
    8.9683  -15.7607   27.9657 O   0  0  0  0  0  0  0  0  0  0  0  0
  2  1  1  6
  3  2  1  0
  3  4  1  0
  4  5  1  0
  5  9  1  0
  6  5  2  0
  7  2  1  0
  8  7  2  0
 10 11  1  0
 11 12  2  0
 13 14  1  0
 13 11  1  0
 14 15  1  0
 16 15  1  0
 17 16  1  1
 17 18  1  0
 18  7  1  0
 19 21  1  0
 19 17  1  0
 20 19  2  0
 22 21  1  0
 22 29  1  0
 22 23  1  6
 23 24  1  0
 24 28  1  0
 24 25  2  0
 25 26  1  0
 27 26  1  0
 28 27  2  0
 29 30  1  0
 31 29  2  0
M  END
$$$$
