ERH.pdb
     RDKit          3D

 31 31  0  0  1  0  0  0  0  0999 V2000
   12.6619  -17.3838   16.5871 N   0  0  0  0  0  0  0  0  0  0  0  0
   12.9853  -18.1925   17.7350 C   0  0  1  0  0  0  0  0  0  0  0  0
   14.4200  -18.5820   17.8599 C   0  0  0  0  0  0  0  0  0  0  0  0
   14.6883  -19.8846   18.5193 C   0  0  0  0  0  0  0  0  0  0  0  0
   15.8509  -20.6403   18.0730 C   0  0  0  0  0  0  0  0  0  0  0  0
   16.6765  -20.9716   19.0036 O   0  0  0  0  0  0  0  0  0  0  0  0
   12.4675  -17.5066   18.9405 C   0  0  0  0  0  0  0  0  0  0  0  0
   12.9039  -16.3787   19.2724 O   0  0  0  0  0  0  0  0  0  0  0  0
   16.1723  -21.0352   16.8007 O   0  0  0  0  0  0  0  0  0  0  0  0
    7.4542  -13.0836   20.4563 N   0  0  0  0  0  0  0  0  0  0  0  0
    7.5440  -13.4305   19.0816 C   0  0  0  0  0  0  0  0  0  0  0  0
    7.6555  -12.5430   18.1648 N   0  0  0  0  0  0  0  0  0  0  0  0
    7.5126  -14.8022   18.6684 N   0  0  0  0  0  0  0  0  0  0  0  0
    7.7108  -15.8354   19.6586 C   0  0  0  0  0  0  0  0  0  0  0  0
    9.1862  -16.0732   19.8282 C   0  0  0  0  0  0  0  0  0  0  0  0
    9.4673  -17.2036   20.8010 C   0  0  0  0  0  0  0  0  0  0  0  0
   10.9792  -17.3996   20.9681 C   0  0  2  0  0  0  0  0  0  0  0  0
   11.4543  -18.0672   19.7960 N   0  0  0  0  0  0  0  0  0  0  0  0
   11.1560  -18.1481   22.2172 C   0  0  0  0  0  0  0  0  0  0  0  0
   10.6799  -19.3080   22.2613 O   0  0  0  0  0  0  0  0  0  0  0  0
    7.6562  -12.7381   17.1549 N   0  0  0  0  0  0  0  0  0  0  0  0
   11.8370  -17.6341   23.3816 C   0  0  1  0  0  0  0  0  0  0  0  0
   11.8959  -18.4422   24.5735 C   0  0  0  0  0  0  0  0  0  0  0  0
   13.2699  -18.7249   25.0342 C   0  0  0  0  0  0  0  0  0  0  0  0
   14.2149  -19.3098   24.1115 C   0  0  0  0  0  0  0  0  0  0  0  0
   14.1206  -19.6875   22.8061 N   0  0  0  0  0  0  0  0  0  0  0  0
   15.3162  -20.1747   22.3551 C   0  0  0  0  0  0  0  0  0  0  0  0
   16.1358  -20.0847   23.4107 N   0  0  0  0  0  0  0  0  0  0  0  0
   15.5110  -19.5729   24.4743 C   0  0  0  0  0  0  0  0  0  0  0  0
   10.9964  -17.9404   25.6374 O   0  0  0  0  0  0  0  0  0  0  0  0
   10.9052  -18.6152   26.8133 O   0  0  0  0  0  0  0  0  0  0  0  0
  2  1  1  6
  3  2  1  0
  3  4  1  0
  4  5  1  0
  5  9  1  0
  6  5  2  0
  7  2  1  0
  8  7  2  0
 10 11  1  0
 11 12  2  0
 13 14  1  0
 13 11  1  0
 14 15  1  0
 16 15  1  0
 17 16  1  6
 17 18  1  0
 18  7  1  0
 19 21  1  0
 19 17  1  0
 20 19  2  0
 22 21  1  0
 22 29  1  0
 22 23  1  6
 23 24  1  0
 24 28  1  0
 24 25  2  0
 25 26  1  0
 27 26  1  0
 28 27  2  0
 29 30  1  0
 31 29  2  0
M  END
$$$$
