ERH.pdb
     RDKit          3D

 31 31  0  0  1  0  0  0  0  0999 V2000
    8.2679  -17.1770   18.5156 N   0  0  0  0  0  0  0  0  0  0  0  0
    8.6176  -18.3756   19.2351 C   0  0  1  0  0  0  0  0  0  0  0  0
   10.0455  -18.7940   19.1261 C   0  0  0  0  0  0  0  0  0  0  0  0
   11.0517  -17.8152   19.6090 C   0  0  0  0  0  0  0  0  0  0  0  0
   12.4493  -18.2259   19.6041 C   0  0  0  0  0  0  0  0  0  0  0  0
   13.1685  -17.7028   18.6731 O   0  0  0  0  0  0  0  0  0  0  0  0
    8.1692  -18.2168   20.6371 C   0  0  0  0  0  0  0  0  0  0  0  0
    8.2585  -17.1080   21.2161 O   0  0  0  0  0  0  0  0  0  0  0  0
   13.0851  -19.0913   20.4554 O   0  0  0  0  0  0  0  0  0  0  0  0
    7.6113  -21.2815   27.8568 N   0  0  0  0  0  0  0  0  0  0  0  0
    6.2374  -21.6425   27.8475 C   0  0  0  0  0  0  0  0  0  0  0  0
    5.6265  -22.0106   28.9115 N   0  0  0  0  0  0  0  0  0  0  0  0
    5.4784  -21.6068   26.6326 N   0  0  0  0  0  0  0  0  0  0  0  0
    6.1683  -21.7593   25.3725 C   0  0  0  0  0  0  0  0  0  0  0  0
    6.2896  -20.4119   24.7154 C   0  0  0  0  0  0  0  0  0  0  0  0
    7.0508  -20.4898   23.4049 C   0  0  0  0  0  0  0  0  0  0  0  0
    7.1228  -19.1062   22.7470 C   0  0  2  0  0  0  0  0  0  0  0  0
    7.6135  -19.2922   21.4166 N   0  0  0  0  0  0  0  0  0  0  0  0
    7.9818  -18.2897   23.6114 C   0  0  0  0  0  0  0  0  0  0  0  0
    8.5948  -17.3368   23.0729 O   0  0  0  0  0  0  0  0  0  0  0  0
    4.6186  -22.2064   28.9725 N   0  0  0  0  0  0  0  0  0  0  0  0
    8.1591  -18.5164   25.0260 C   0  0  2  0  0  0  0  0  0  0  0  0
    8.3941  -17.3894   25.8929 C   0  0  0  0  0  0  0  0  0  0  0  0
    7.4006  -16.3071   25.7455 C   0  0  0  0  0  0  0  0  0  0  0  0
    7.6128  -15.2890   24.7429 C   0  0  0  0  0  0  0  0  0  0  0  0
    8.6012  -15.0831   23.8284 N   0  0  0  0  0  0  0  0  0  0  0  0
    8.3369  -13.9759   23.0705 C   0  0  0  0  0  0  0  0  0  0  0  0
    7.1708  -13.5158   23.5423 N   0  0  0  0  0  0  0  0  0  0  0  0
    6.7114  -14.2757   24.5398 C   0  0  0  0  0  0  0  0  0  0  0  0
    8.6325  -17.7996   27.2957 O   0  0  0  0  0  0  0  0  0  0  0  0
    8.9257  -16.8578   28.2302 O   0  0  0  0  0  0  0  0  0  0  0  0
  2  1  1  6
  3  2  1  0
  3  4  1  0
  4  5  1  0
  5  9  1  0
  6  5  2  0
  7  2  1  0
  8  7  2  0
 10 11  1  0
 11 12  2  0
 13 14  1  0
 13 11  1  0
 14 15  1  0
 16 15  1  0
 17 16  1  1
 17 18  1  0
 18  7  1  0
 19 21  1  0
 19 17  1  0
 20 19  2  0
 22 21  1  0
 22 29  1  0
 22 23  1  6
 23 24  1  0
 24 28  1  0
 24 25  2  0
 25 26  1  0
 27 26  1  0
 28 27  2  0
 29 30  1  0
 31 29  2  0
M  END
$$$$
