ERH.pdb
     RDKit          3D

 31 31  0  0  1  0  0  0  0  0999 V2000
   11.1767  -17.6861   15.5056 N   0  0  0  0  0  0  0  0  0  0  0  0
   10.8560  -18.7347   16.4404 C   0  0  1  0  0  0  0  0  0  0  0  0
   11.6700  -19.9784   16.3113 C   0  0  0  0  0  0  0  0  0  0  0  0
   13.0801  -19.8862   16.7658 C   0  0  0  0  0  0  0  0  0  0  0  0
   13.9025  -21.0841   16.6612 C   0  0  0  0  0  0  0  0  0  0  0  0
   15.0138  -20.9296   16.0298 O   0  0  0  0  0  0  0  0  0  0  0  0
   10.8933  -18.1608   17.8047 C   0  0  0  0  0  0  0  0  0  0  0  0
   11.9317  -17.6070   18.2380 O   0  0  0  0  0  0  0  0  0  0  0  0
   13.6421  -22.3401   17.1434 O   0  0  0  0  0  0  0  0  0  0  0  0
    8.3487  -12.1297   19.1472 N   0  0  0  0  0  0  0  0  0  0  0  0
    7.9898  -12.8172   20.3375 C   0  0  0  0  0  0  0  0  0  0  0  0
    7.8712  -12.2116   21.4600 N   0  0  0  0  0  0  0  0  0  0  0  0
    7.7450  -14.2290   20.3230 N   0  0  0  0  0  0  0  0  0  0  0  0
    8.2865  -15.0214   19.2432 C   0  0  0  0  0  0  0  0  0  0  0  0
    7.6926  -16.4018   19.3045 C   0  0  0  0  0  0  0  0  0  0  0  0
    8.3490  -17.2512   20.3773 C   0  0  0  0  0  0  0  0  0  0  0  0
    9.7997  -17.5678   19.9933 C   0  0  2  0  0  0  0  0  0  0  0  0
    9.7730  -18.1950   18.7083 N   0  0  0  0  0  0  0  0  0  0  0  0
   10.3331  -18.4029   21.0749 C   0  0  0  0  0  0  0  0  0  0  0  0
   10.5889  -19.5999   20.8003 O   0  0  0  0  0  0  0  0  0  0  0  0
    7.6620  -12.6709   22.3562 N   0  0  0  0  0  0  0  0  0  0  0  0
   10.5773  -17.9327   22.4177 C   0  0  2  0  0  0  0  0  0  0  0  0
   11.9151  -17.9947   22.9501 C   0  0  0  0  0  0  0  0  0  0  0  0
   12.9236  -17.3225   22.1067 C   0  0  0  0  0  0  0  0  0  0  0  0
   13.8991  -18.1229   21.4036 C   0  0  0  0  0  0  0  0  0  0  0  0
   14.0974  -19.4672   21.3086 N   0  0  0  0  0  0  0  0  0  0  0  0
   15.1559  -19.7439   20.4881 C   0  0  0  0  0  0  0  0  0  0  0  0
   15.5944  -18.5433   20.0881 N   0  0  0  0  0  0  0  0  0  0  0  0
   14.8670  -17.5551   20.6153 C   0  0  0  0  0  0  0  0  0  0  0  0
   11.9701  -17.6061   24.3780 O   0  0  0  0  0  0  0  0  0  0  0  0
   11.4724  -16.4028   24.7661 O   0  0  0  0  0  0  0  0  0  0  0  0
  2  1  1  6
  3  2  1  0
  3  4  1  0
  4  5  1  0
  5  9  1  0
  6  5  2  0
  7  2  1  0
  8  7  2  0
 10 11  1  0
 11 12  2  0
 13 14  1  0
 13 11  1  0
 14 15  1  0
 16 15  1  0
 17 16  1  1
 17 18  1  0
 18  7  1  0
 19 21  1  0
 19 17  1  0
 20 19  2  0
 22 21  1  0
 22 29  1  0
 22 23  1  6
 23 24  1  0
 24 28  1  0
 24 25  2  0
 25 26  1  0
 27 26  1  0
 28 27  2  0
 29 30  1  0
 31 29  2  0
M  END
$$$$
