ERH.pdb
     RDKit          3D

 31 31  0  0  1  0  0  0  0  0999 V2000
    8.5682  -12.8058   18.2963 N   0  0  0  0  0  0  0  0  0  0  0  0
    9.4365  -13.8341   18.8112 C   0  0  1  0  0  0  0  0  0  0  0  0
   10.8204  -13.3923   19.1510 C   0  0  0  0  0  0  0  0  0  0  0  0
   11.8868  -14.4146   19.0050 C   0  0  0  0  0  0  0  0  0  0  0  0
   13.2514  -14.0166   19.3236 C   0  0  0  0  0  0  0  0  0  0  0  0
   13.9991  -14.9557   19.7889 O   0  0  0  0  0  0  0  0  0  0  0  0
    8.7473  -14.4921   19.9442 C   0  0  0  0  0  0  0  0  0  0  0  0
    8.1191  -13.8145   20.7922 O   0  0  0  0  0  0  0  0  0  0  0  0
   13.8302  -12.7812   19.1936 O   0  0  0  0  0  0  0  0  0  0  0  0
    7.8250  -19.8576   15.4093 N   0  0  0  0  0  0  0  0  0  0  0  0
    8.1748  -19.6404   16.7690 C   0  0  0  0  0  0  0  0  0  0  0  0
    9.3325  -19.2116   17.1104 N   0  0  0  0  0  0  0  0  0  0  0  0
    7.2329  -19.8966   17.8180 N   0  0  0  0  0  0  0  0  0  0  0  0
    7.6548  -19.7379   19.1906 C   0  0  0  0  0  0  0  0  0  0  0  0
    7.6528  -18.2742   19.5364 C   0  0  0  0  0  0  0  0  0  0  0  0
    8.0318  -18.0367   20.9866 C   0  0  0  0  0  0  0  0  0  0  0  0
    8.1161  -16.5329   21.2763 C   0  0  2  0  0  0  0  0  0  0  0  0
    8.7472  -15.9170   20.1504 N   0  0  0  0  0  0  0  0  0  0  0  0
    8.8493  -16.4033   22.5401 C   0  0  0  0  0  0  0  0  0  0  0  0
   10.0974  -16.2981   22.4692 O   0  0  0  0  0  0  0  0  0  0  0  0
    9.6740  -19.1489   18.0786 N   0  0  0  0  0  0  0  0  0  0  0  0
    8.2258  -16.3894   23.8420 C   0  0  1  0  0  0  0  0  0  0  0  0
    9.0349  -16.1221   25.0043 C   0  0  0  0  0  0  0  0  0  0  0  0
    8.3332  -15.3591   26.0558 C   0  0  0  0  0  0  0  0  0  0  0  0
    7.7271  -14.0917   25.7196 C   0  0  0  0  0  0  0  0  0  0  0  0
    7.7335  -13.3347   24.5871 N   0  0  0  0  0  0  0  0  0  0  0  0
    6.9775  -12.2074   24.7537 C   0  0  0  0  0  0  0  0  0  0  0  0
    6.5132  -12.2958   26.0069 N   0  0  0  0  0  0  0  0  0  0  0  0
    6.9410  -13.4075   26.6110 C   0  0  0  0  0  0  0  0  0  0  0  0
    9.7240  -17.3353   25.5004 O   0  0  0  0  0  0  0  0  0  0  0  0
   10.5535  -17.2453   26.5728 O   0  0  0  0  0  0  0  0  0  0  0  0
  2  1  1  1
  3  2  1  0
  3  4  1  0
  4  5  1  0
  5  9  1  0
  6  5  2  0
  7  2  1  0
  8  7  2  0
 10 11  1  0
 11 12  2  0
 13 14  1  0
 13 11  1  0
 14 15  1  0
 16 15  1  0
 17 16  1  6
 17 18  1  0
 18  7  1  0
 19 21  1  0
 19 17  1  0
 20 19  2  0
 22 21  1  0
 22 29  1  0
 22 23  1  1
 23 24  1  0
 24 28  1  0
 24 25  2  0
 25 26  1  0
 27 26  1  0
 28 27  2  0
 29 30  1  0
 31 29  2  0
M  END
$$$$
