ERH.pdb
     RDKit          3D

 31 31  0  0  1  0  0  0  0  0999 V2000
   13.3128  -19.4901   17.3871 N   0  0  0  0  0  0  0  0  0  0  0  0
   12.1360  -19.1500   18.1459 C   0  0  1  0  0  0  0  0  0  0  0  0
   11.3389  -20.3083   18.6445 C   0  0  0  0  0  0  0  0  0  0  0  0
   12.1108  -21.5201   19.0179 C   0  0  0  0  0  0  0  0  0  0  0  0
   11.3618  -22.6835   19.4735 C   0  0  0  0  0  0  0  0  0  0  0  0
   11.6253  -23.0661   20.6743 O   0  0  0  0  0  0  0  0  0  0  0  0
   12.5387  -18.2204   19.2256 C   0  0  0  0  0  0  0  0  0  0  0  0
   13.7235  -17.8194   19.3163 O   0  0  0  0  0  0  0  0  0  0  0  0
   10.4250  -23.4139   18.7902 O   0  0  0  0  0  0  0  0  0  0  0  0
    6.8349  -12.5548   20.2619 N   0  0  0  0  0  0  0  0  0  0  0  0
    7.6837  -12.6934   19.1311 C   0  0  0  0  0  0  0  0  0  0  0  0
    7.3981  -12.1630   18.0007 N   0  0  0  0  0  0  0  0  0  0  0  0
    8.9035  -13.4403   19.2174 N   0  0  0  0  0  0  0  0  0  0  0  0
    9.1996  -14.1571   20.4363 C   0  0  0  0  0  0  0  0  0  0  0  0
   10.4507  -14.9674   20.2352 C   0  0  0  0  0  0  0  0  0  0  0  0
   10.7426  -15.8598   21.4274 C   0  0  0  0  0  0  0  0  0  0  0  0
   11.9915  -16.7100   21.1639 C   0  0  2  0  0  0  0  0  0  0  0  0
   11.6266  -17.7225   20.2221 N   0  0  0  0  0  0  0  0  0  0  0  0
   12.4236  -17.2133   22.4722 C   0  0  0  0  0  0  0  0  0  0  0  0
   12.8347  -16.3680   23.3030 O   0  0  0  0  0  0  0  0  0  0  0  0
    7.9849  -12.2236   17.1581 N   0  0  0  0  0  0  0  0  0  0  0  0
   12.4028  -18.6056   22.8531 C   0  0  2  0  0  0  0  0  0  0  0  0
   12.8577  -18.9798   24.1684 C   0  0  0  0  0  0  0  0  0  0  0  0
   14.2026  -18.4690   24.5012 C   0  0  0  0  0  0  0  0  0  0  0  0
   15.3405  -18.9395   23.7460 C   0  0  0  0  0  0  0  0  0  0  0  0
   15.5849  -19.0441   22.4100 N   0  0  0  0  0  0  0  0  0  0  0  0
   16.8419  -19.5330   22.1842 C   0  0  0  0  0  0  0  0  0  0  0  0
   17.3541  -19.7219   23.4073 N   0  0  0  0  0  0  0  0  0  0  0  0
   16.4850  -19.3778   24.3612 C   0  0  0  0  0  0  0  0  0  0  0  0
   11.8397  -18.7163   25.2111 O   0  0  0  0  0  0  0  0  0  0  0  0
   12.1591  -18.8893   26.5204 O   0  0  0  0  0  0  0  0  0  0  0  0
  2  1  1  1
  3  2  1  0
  3  4  1  0
  4  5  1  0
  5  9  1  0
  6  5  2  0
  7  2  1  0
  8  7  2  0
 10 11  1  0
 11 12  2  0
 13 14  1  0
 13 11  1  0
 14 15  1  0
 16 15  1  0
 17 16  1  1
 17 18  1  0
 18  7  1  0
 19 21  1  0
 19 17  1  0
 20 19  2  0
 22 21  1  0
 22 29  1  0
 22 23  1  6
 23 24  1  0
 24 28  1  0
 24 25  2  0
 25 26  1  0
 27 26  1  0
 28 27  2  0
 29 30  1  0
 31 29  2  0
M  END
$$$$
