YQC.pdb
     RDKit          3D

 28 28  0  0  1  0  0  0  0  0999 V2000
   20.8323  -22.2620   -6.6340 O   0  0  0  0  0  0  0  0  0  0  0  0
   21.5901  -21.7348   -7.6692 C   0  0  0  0  0  0  0  0  0  0  0  0
   21.2218  -21.8807   -8.9936 C   0  0  0  0  0  0  0  0  0  0  0  0
   21.9986  -21.3447   -9.9810 C   0  0  0  0  0  0  0  0  0  0  0  0
   23.1602  -20.6483   -9.7166 C   0  0  0  0  0  0  0  0  0  0  0  0
   23.9809  -20.0799  -10.7946 C   0  0  0  0  0  0  0  0  0  0  0  0
   24.3468  -21.2178  -11.7452 C   0  0  2  0  0  0  0  0  0  0  0  0
   25.4724  -21.9013  -11.1662 N   0  0  0  0  0  0  0  0  0  0  0  0
   24.7265  -20.6848  -13.0733 C   0  0  0  0  0  0  0  0  0  0  0  0
   25.6086  -19.7880  -13.1253 O   0  0  0  0  0  0  0  0  0  0  0  0
   23.5463  -20.4916   -8.3898 C   0  0  0  0  0  0  0  0  0  0  0  0
   22.7605  -21.0329   -7.4066 C   0  0  0  0  0  0  0  0  0  0  0  0
   27.3948  -20.1854  -16.8363 N   0  0  0  0  0  0  0  0  0  0  0  0
   27.4975  -21.4251  -16.1228 C   0  0  0  0  0  0  0  0  0  0  0  0
   28.6291  -21.7741  -15.6956 O   0  0  0  0  0  0  0  0  0  0  0  0
   26.3436  -22.2910  -15.8772 C   0  0  0  0  0  0  0  0  0  0  0  0
   25.0332  -21.7885  -16.3544 C   0  0  0  0  0  0  0  0  0  0  0  0
   24.4176  -20.6901  -15.5304 C   0  0  2  0  0  0  0  0  0  0  0  0
   24.0856  -21.2032  -14.2214 N   0  0  0  0  0  0  0  0  0  0  0  0
   23.2184  -20.1051  -16.1760 C   0  0  0  0  0  0  0  0  0  0  0  0
   22.1193  -20.6974  -16.2902 O   0  0  0  0  0  0  0  0  0  0  0  0
   23.3156  -18.7908  -16.6997 N   0  0  0  0  0  0  0  0  0  0  0  0
   22.2368  -18.0897  -17.3276 C   0  0  1  0  0  0  0  0  0  0  0  0
   22.3731  -16.5909  -17.2598 C   0  0  0  0  0  0  0  0  0  0  0  0
   22.1774  -16.1057  -15.5196 S   0  0  0  0  0  0  0  0  0  0  0  0
   22.1294  -18.5094  -18.7455 C   0  0  0  0  0  0  0  0  0  0  0  0
   21.0043  -18.2451  -19.5177 O   0  0  0  0  0  0  0  0  0  0  0  0
   23.0681  -19.1252  -19.2957 O   0  0  0  0  0  0  0  0  0  0  0  0
  2  1  1  0
  3  2  2  0
  4  3  1  0
  5 11  1  0
  5  4  2  0
  6  7  1  0
  6  5  1  0
  7  9  1  0
  7  8  1  1
  9 10  2  0
 11 12  2  0
 12  2  1  0
 14 13  1  0
 14 16  1  0
 15 14  2  0
 17 16  1  0
 18 17  1  6
 19  9  1  0
 19 18  1  0
 20 18  1  0
 20 21  2  0
 22 20  1  0
 23 22  1  0
 23 26  1  0
 23 24  1  6
 25 24  1  0
 26 27  1  0
 28 26  2  0
M  END
$$$$
