YQC.pdb
     RDKit          3D

 28 28  0  0  1  0  0  0  0  0999 V2000
   17.5130  -15.0089  -22.7581 O   0  0  0  0  0  0  0  0  0  0  0  0
   17.4880  -14.1036  -21.7075 C   0  0  0  0  0  0  0  0  0  0  0  0
   16.7824  -14.3513  -20.5449 C   0  0  0  0  0  0  0  0  0  0  0  0
   16.7856  -13.4311  -19.5355 C   0  0  0  0  0  0  0  0  0  0  0  0
   17.4743  -12.2383  -19.6200 C   0  0  0  0  0  0  0  0  0  0  0  0
   17.4640  -11.2624  -18.5217 C   0  0  0  0  0  0  0  0  0  0  0  0
   18.8321  -11.3144  -17.8451 C   0  0  2  0  0  0  0  0  0  0  0  0
   18.8984  -12.5609  -17.1301 N   0  0  0  0  0  0  0  0  0  0  0  0
   18.9837  -10.1928  -16.8906 C   0  0  0  0  0  0  0  0  0  0  0  0
   18.3379  -10.2380  -15.8108 O   0  0  0  0  0  0  0  0  0  0  0  0
   18.1898  -11.9722  -20.7824 C   0  0  0  0  0  0  0  0  0  0  0  0
   18.1804  -12.9015  -21.7892 C   0  0  0  0  0  0  0  0  0  0  0  0
   23.9265   -8.0320  -14.3397 N   0  0  0  0  0  0  0  0  0  0  0  0
   22.9866   -9.0961  -14.1378 C   0  0  0  0  0  0  0  0  0  0  0  0
   23.3159  -10.0453  -13.3791 O   0  0  0  0  0  0  0  0  0  0  0  0
   21.6706   -9.1174  -14.7776 C   0  0  0  0  0  0  0  0  0  0  0  0
   21.3975   -8.0339  -15.7516 C   0  0  0  0  0  0  0  0  0  0  0  0
   20.0067   -8.0093  -16.3256 C   0  0  2  0  0  0  0  0  0  0  0  0
   19.8432   -9.1235  -17.2306 N   0  0  0  0  0  0  0  0  0  0  0  0
   19.7039   -6.7333  -17.0164 C   0  0  0  0  0  0  0  0  0  0  0  0
   19.9249   -6.5197  -18.2319 O   0  0  0  0  0  0  0  0  0  0  0  0
   19.1268   -5.6833  -16.2576 N   0  0  0  0  0  0  0  0  0  0  0  0
   18.7855   -4.3976  -16.7868 C   0  0  1  0  0  0  0  0  0  0  0  0
   17.9061   -4.4640  -18.0083 C   0  0  0  0  0  0  0  0  0  0  0  0
   16.4113   -5.3910  -17.5519 S   0  0  0  0  0  0  0  0  0  0  0  0
   18.1121   -3.5919  -15.7402 C   0  0  0  0  0  0  0  0  0  0  0  0
   17.7401   -4.1265  -14.5123 O   0  0  0  0  0  0  0  0  0  0  0  0
   17.8557   -2.3844  -15.9388 O   0  0  0  0  0  0  0  0  0  0  0  0
  2  1  1  0
  3  2  2  0
  4  3  1  0
  5 11  1  0
  5  4  2  0
  6  7  1  0
  6  5  1  0
  7  9  1  0
  7  8  1  1
  9 10  2  0
 11 12  2  0
 12  2  1  0
 14 13  1  0
 14 16  1  0
 15 14  2  0
 17 16  1  0
 18 17  1  6
 19  9  1  0
 19 18  1  0
 20 18  1  0
 20 21  2  0
 22 20  1  0
 23 22  1  0
 23 26  1  0
 23 24  1  6
 25 24  1  0
 26 27  1  0
 28 26  2  0
M  END
$$$$
