YQC.pdb
     RDKit          3D

 28 28  0  0  1  0  0  0  0  0999 V2000
   24.9074  -20.8470   -8.4909 O   0  0  0  0  0  0  0  0  0  0  0  0
   25.4404  -20.6491   -9.7560 C   0  0  0  0  0  0  0  0  0  0  0  0
   24.6529  -20.2894  -10.8337 C   0  0  0  0  0  0  0  0  0  0  0  0
   25.2205  -20.1049  -12.0623 C   0  0  0  0  0  0  0  0  0  0  0  0
   26.5728  -20.2633  -12.2871 C   0  0  0  0  0  0  0  0  0  0  0  0
   27.1624  -20.0598  -13.6174 C   0  0  0  0  0  0  0  0  0  0  0  0
   27.0212  -21.3693  -14.3903 C   0  0  2  0  0  0  0  0  0  0  0  0
   28.2452  -21.5573  -15.1224 N   0  0  0  0  0  0  0  0  0  0  0  0
   25.8881  -21.2935  -15.3402 C   0  0  0  0  0  0  0  0  0  0  0  0
   26.0219  -20.5841  -16.3717 O   0  0  0  0  0  0  0  0  0  0  0  0
   27.3805  -20.6251  -11.2143 C   0  0  0  0  0  0  0  0  0  0  0  0
   26.8017  -20.8078   -9.9860 C   0  0  0  0  0  0  0  0  0  0  0  0
   24.9738  -25.2645  -15.0197 N   0  0  0  0  0  0  0  0  0  0  0  0
   25.1926  -25.0140  -16.4147 C   0  0  0  0  0  0  0  0  0  0  0  0
   26.1119  -25.6476  -16.9963 O   0  0  0  0  0  0  0  0  0  0  0  0
   24.3927  -24.0555  -17.1783 C   0  0  0  0  0  0  0  0  0  0  0  0
   23.2973  -23.3814  -16.4414 C   0  0  0  0  0  0  0  0  0  0  0  0
   23.5942  -21.9843  -15.9678 C   0  0  2  0  0  0  0  0  0  0  0  0
   24.7094  -22.0174  -15.0501 N   0  0  0  0  0  0  0  0  0  0  0  0
   22.4194  -21.3427  -15.3313 C   0  0  0  0  0  0  0  0  0  0  0  0
   22.4216  -20.8558  -14.1759 O   0  0  0  0  0  0  0  0  0  0  0  0
   21.2127  -21.2726  -16.0729 N   0  0  0  0  0  0  0  0  0  0  0  0
   20.1501  -20.3525  -15.8014 C   0  0  1  0  0  0  0  0  0  0  0  0
   20.5549  -18.9080  -15.9403 C   0  0  0  0  0  0  0  0  0  0  0  0
   19.1330  -17.8945  -15.4376 S   0  0  0  0  0  0  0  0  0  0  0  0
   19.0079  -20.6313  -16.7047 C   0  0  0  0  0  0  0  0  0  0  0  0
   17.6868  -20.5649  -16.2778 O   0  0  0  0  0  0  0  0  0  0  0  0
   19.2073  -20.9401  -17.8997 O   0  0  0  0  0  0  0  0  0  0  0  0
  2  1  1  0
  3  2  2  0
  4  3  1  0
  5 11  1  0
  5  4  2  0
  6  7  1  0
  6  5  1  0
  7  9  1  0
  7  8  1  6
  9 10  2  0
 11 12  2  0
 12  2  1  0
 14 13  1  0
 14 16  1  0
 15 14  2  0
 17 16  1  0
 18 17  1  1
 19  9  1  0
 19 18  1  0
 20 18  1  0
 20 21  2  0
 22 20  1  0
 23 22  1  0
 23 26  1  0
 23 24  1  6
 25 24  1  0
 26 27  1  0
 28 26  2  0
M  END
$$$$
