YQC.pdb
     RDKit          3D

 28 28  0  0  1  0  0  0  0  0999 V2000
   23.3837  -18.9559  -14.8134 O   0  0  0  0  0  0  0  0  0  0  0  0
   23.1784  -17.5900  -14.9396 C   0  0  0  0  0  0  0  0  0  0  0  0
   21.9866  -17.0694  -15.4081 C   0  0  0  0  0  0  0  0  0  0  0  0
   21.8281  -15.7170  -15.5161 C   0  0  0  0  0  0  0  0  0  0  0  0
   22.8217  -14.8231  -15.1729 C   0  0  0  0  0  0  0  0  0  0  0  0
   22.6298  -13.3717  -15.2972 C   0  0  0  0  0  0  0  0  0  0  0  0
   22.5224  -13.0459  -16.7853 C   0  0  2  0  0  0  0  0  0  0  0  0
   23.8385  -13.2034  -17.3443 N   0  0  0  0  0  0  0  0  0  0  0  0
   22.0701  -11.6499  -16.9812 C   0  0  0  0  0  0  0  0  0  0  0  0
   22.9117  -10.7249  -16.8355 O   0  0  0  0  0  0  0  0  0  0  0  0
   24.0276  -15.3289  -14.6996 C   0  0  0  0  0  0  0  0  0  0  0  0
   24.1768  -16.6868  -14.5949 C   0  0  0  0  0  0  0  0  0  0  0  0
   16.5440  -10.0293  -19.9092 N   0  0  0  0  0  0  0  0  0  0  0  0
   17.2184   -8.8120  -19.5629 C   0  0  0  0  0  0  0  0  0  0  0  0
   16.7444   -7.7267  -19.9899 O   0  0  0  0  0  0  0  0  0  0  0  0
   18.4276   -8.7877  -18.7390 C   0  0  0  0  0  0  0  0  0  0  0  0
   18.9733  -10.1058  -18.3363 C   0  0  0  0  0  0  0  0  0  0  0  0
   20.2494  -10.0667  -17.5398 C   0  0  2  0  0  0  0  0  0  0  0  0
   20.7185  -11.4156  -17.3220 N   0  0  0  0  0  0  0  0  0  0  0  0
   20.0859   -9.3610  -16.2466 C   0  0  0  0  0  0  0  0  0  0  0  0
   19.7155   -9.9132  -15.1838 O   0  0  0  0  0  0  0  0  0  0  0  0
   20.3654   -7.9713  -16.2038 N   0  0  0  0  0  0  0  0  0  0  0  0
   20.2474   -7.1595  -15.0306 C   0  0  1  0  0  0  0  0  0  0  0  0
   21.3453   -7.3917  -14.0255 C   0  0  0  0  0  0  0  0  0  0  0  0
   22.9165   -6.9529  -14.8260 S   0  0  0  0  0  0  0  0  0  0  0  0
   20.2293   -5.7280  -15.4161 C   0  0  0  0  0  0  0  0  0  0  0  0
   20.3740   -5.3091  -16.7335 O   0  0  0  0  0  0  0  0  0  0  0  0
   20.0801   -4.8409  -14.5477 O   0  0  0  0  0  0  0  0  0  0  0  0
  2  1  1  0
  3  2  2  0
  4  3  1  0
  5 11  1  0
  5  4  2  0
  6  7  1  0
  6  5  1  0
  7  9  1  0
  7  8  1  6
  9 10  2  0
 11 12  2  0
 12  2  1  0
 14 13  1  0
 14 16  1  0
 15 14  2  0
 17 16  1  0
 18 17  1  1
 19  9  1  0
 19 18  1  0
 20 18  1  0
 20 21  2  0
 22 20  1  0
 23 22  1  0
 23 26  1  0
 23 24  1  1
 25 24  1  0
 26 27  1  0
 28 26  2  0
M  END
$$$$
