YQC.pdb
     RDKit          3D

 28 28  0  0  1  0  0  0  0  0999 V2000
   24.1198  -21.0839   -7.5060 O   0  0  0  0  0  0  0  0  0  0  0  0
   24.4108  -20.8625   -8.8440 C   0  0  0  0  0  0  0  0  0  0  0  0
   25.7006  -20.9411   -9.3350 C   0  0  0  0  0  0  0  0  0  0  0  0
   25.9412  -20.7154  -10.6605 C   0  0  0  0  0  0  0  0  0  0  0  0
   24.9375  -20.4055  -11.5553 C   0  0  0  0  0  0  0  0  0  0  0  0
   25.2189  -20.1664  -12.9774 C   0  0  0  0  0  0  0  0  0  0  0  0
   24.4075  -21.1772  -13.7849 C   0  0  2  0  0  0  0  0  0  0  0  0
   25.0367  -22.4583  -13.6050 N   0  0  0  0  0  0  0  0  0  0  0  0
   24.4176  -20.8233  -15.2225 C   0  0  0  0  0  0  0  0  0  0  0  0
   25.3823  -21.2208  -15.9271 O   0  0  0  0  0  0  0  0  0  0  0  0
   23.6335  -20.3222  -11.0790 C   0  0  0  0  0  0  0  0  0  0  0  0
   23.4024  -20.5503   -9.7479 C   0  0  0  0  0  0  0  0  0  0  0  0
   19.4747  -17.9078  -18.2728 N   0  0  0  0  0  0  0  0  0  0  0  0
   20.5156  -18.1047  -19.2395 C   0  0  0  0  0  0  0  0  0  0  0  0
   20.2965  -17.7568  -20.4293 O   0  0  0  0  0  0  0  0  0  0  0  0
   21.8111  -18.6913  -18.8942 C   0  0  0  0  0  0  0  0  0  0  0  0
   21.9845  -19.1144  -17.4842 C   0  0  0  0  0  0  0  0  0  0  0  0
   23.3309  -19.6901  -17.1377 C   0  0  2  0  0  0  0  0  0  0  0  0
   23.3487  -20.0575  -15.7407 N   0  0  0  0  0  0  0  0  0  0  0  0
   24.4396  -18.7540  -17.4404 C   0  0  0  0  0  0  0  0  0  0  0  0
   24.7717  -17.7934  -16.7063 O   0  0  0  0  0  0  0  0  0  0  0  0
   25.1751  -18.9537  -18.6363 N   0  0  0  0  0  0  0  0  0  0  0  0
   26.5709  -18.6711  -18.7828 C   0  0  1  0  0  0  0  0  0  0  0  0
   27.4380  -19.3861  -17.7795 C   0  0  0  0  0  0  0  0  0  0  0  0
   29.1647  -18.9607  -18.1527 S   0  0  0  0  0  0  0  0  0  0  0  0
   27.0094  -19.0280  -20.1534 C   0  0  0  0  0  0  0  0  0  0  0  0
   28.3122  -18.8284  -20.5947 O   0  0  0  0  0  0  0  0  0  0  0  0
   26.2015  -19.5286  -20.9657 O   0  0  0  0  0  0  0  0  0  0  0  0
  2  1  1  0
  3  2  2  0
  4  3  1  0
  5 11  1  0
  5  4  2  0
  6  7  1  0
  6  5  1  0
  7  9  1  0
  7  8  1  6
  9 10  2  0
 11 12  2  0
 12  2  1  0
 14 13  1  0
 14 16  1  0
 15 14  2  0
 17 16  1  0
 18 17  1  1
 19  9  1  0
 19 18  1  0
 20 18  1  0
 20 21  2  0
 22 20  1  0
 23 22  1  0
 23 26  1  0
 23 24  1  1
 25 24  1  0
 26 27  1  0
 28 26  2  0
M  END
$$$$
