YQC.pdb
     RDKit          3D

 28 28  0  0  1  0  0  0  0  0999 V2000
   24.6509  -16.0706  -20.1128 O   0  0  0  0  0  0  0  0  0  0  0  0
   24.2406  -14.9121  -19.4697 C   0  0  0  0  0  0  0  0  0  0  0  0
   23.5873  -14.9435  -18.2518 C   0  0  0  0  0  0  0  0  0  0  0  0
   23.2011  -13.7776  -17.6543 C   0  0  0  0  0  0  0  0  0  0  0  0
   23.4360  -12.5405  -18.2186 C   0  0  0  0  0  0  0  0  0  0  0  0
   23.0117  -11.2985  -17.5582 C   0  0  0  0  0  0  0  0  0  0  0  0
   24.2652  -10.6067  -17.0266 C   0  0  2  0  0  0  0  0  0  0  0  0
   24.7442  -11.3977  -15.9245 N   0  0  0  0  0  0  0  0  0  0  0  0
   23.9440   -9.2429  -16.5485 C   0  0  0  0  0  0  0  0  0  0  0  0
   23.4513   -9.1158  -15.3969 O   0  0  0  0  0  0  0  0  0  0  0  0
   24.0922  -12.4896  -19.4437 C   0  0  0  0  0  0  0  0  0  0  0  0
   24.4755  -13.6646  -20.0351 C   0  0  0  0  0  0  0  0  0  0  0  0
   26.5532   -3.8603  -18.8696 N   0  0  0  0  0  0  0  0  0  0  0  0
   25.5598   -3.4582  -17.9166 C   0  0  0  0  0  0  0  0  0  0  0  0
   25.4476   -2.2319  -17.6553 O   0  0  0  0  0  0  0  0  0  0  0  0
   24.6810   -4.4150  -17.2430 C   0  0  0  0  0  0  0  0  0  0  0  0
   24.8463   -5.8380  -17.6238 C   0  0  0  0  0  0  0  0  0  0  0  0
   23.8956   -6.8026  -16.9679 C   0  0  2  0  0  0  0  0  0  0  0  0
   24.2028   -8.1460  -17.4015 N   0  0  0  0  0  0  0  0  0  0  0  0
   22.4775   -6.4788  -17.2528 C   0  0  0  0  0  0  0  0  0  0  0  0
   21.9202   -6.6659  -18.3602 O   0  0  0  0  0  0  0  0  0  0  0  0
   21.6967   -5.9211  -16.2086 N   0  0  0  0  0  0  0  0  0  0  0  0
   20.3098   -5.5865  -16.3275 C   0  0  1  0  0  0  0  0  0  0  0  0
   19.3991   -6.5195  -15.5726 C   0  0  0  0  0  0  0  0  0  0  0  0
   17.7578   -5.7426  -15.5080 S   0  0  0  0  0  0  0  0  0  0  0  0
   20.0909   -4.1982  -15.8556 C   0  0  0  0  0  0  0  0  0  0  0  0
   19.0558   -3.4031  -16.3335 O   0  0  0  0  0  0  0  0  0  0  0  0
   20.8478   -3.6953  -14.9968 O   0  0  0  0  0  0  0  0  0  0  0  0
  2  1  1  0
  3  2  2  0
  4  3  1  0
  5 11  1  0
  5  4  2  0
  6  7  1  0
  6  5  1  0
  7  9  1  0
  7  8  1  1
  9 10  2  0
 11 12  2  0
 12  2  1  0
 14 13  1  0
 14 16  1  0
 15 14  2  0
 17 16  1  0
 18 17  1  6
 19  9  1  0
 19 18  1  0
 20 18  1  0
 20 21  2  0
 22 20  1  0
 23 22  1  0
 23 26  1  0
 23 24  1  1
 25 24  1  0
 26 27  1  0
 28 26  2  0
M  END
$$$$
