YQC.pdb
     RDKit          3D

 28 28  0  0  1  0  0  0  0  0999 V2000
   28.8209  -20.4038  -18.9379 O   0  0  0  0  0  0  0  0  0  0  0  0
   27.6147  -20.6744  -18.3088 C   0  0  0  0  0  0  0  0  0  0  0  0
   27.3529  -21.8996  -17.7245 C   0  0  0  0  0  0  0  0  0  0  0  0
   26.1508  -22.1224  -17.1155 C   0  0  0  0  0  0  0  0  0  0  0  0
   25.1609  -21.1630  -17.0528 C   0  0  0  0  0  0  0  0  0  0  0  0
   23.8746  -21.4241  -16.3925 C   0  0  0  0  0  0  0  0  0  0  0  0
   23.9194  -20.7633  -15.0164 C   0  0  2  0  0  0  0  0  0  0  0  0
   24.6521  -21.6483  -14.1507 N   0  0  0  0  0  0  0  0  0  0  0  0
   22.5508  -20.5776  -14.4833 C   0  0  0  0  0  0  0  0  0  0  0  0
   22.0992  -21.4418  -13.6869 O   0  0  0  0  0  0  0  0  0  0  0  0
   25.4067  -19.9243  -17.6353 C   0  0  0  0  0  0  0  0  0  0  0  0
   26.6156  -19.7106  -18.2437 C   0  0  0  0  0  0  0  0  0  0  0  0
   19.8800  -18.4001  -11.2714 N   0  0  0  0  0  0  0  0  0  0  0  0
   18.8821  -17.6925  -12.0198 C   0  0  0  0  0  0  0  0  0  0  0  0
   17.8129  -17.3757  -11.4355 O   0  0  0  0  0  0  0  0  0  0  0  0
   19.0612  -17.3301  -13.4263 C   0  0  0  0  0  0  0  0  0  0  0  0
   20.3459  -17.7305  -14.0482 C   0  0  0  0  0  0  0  0  0  0  0  0
   20.4986  -19.1988  -14.3401 C   0  0  2  0  0  0  0  0  0  0  0  0
   21.8122  -19.4429  -14.8893 N   0  0  0  0  0  0  0  0  0  0  0  0
   19.4515  -19.7029  -15.2602 C   0  0  0  0  0  0  0  0  0  0  0  0
   19.3567  -19.3769  -16.4671 O   0  0  0  0  0  0  0  0  0  0  0  0
   18.4928  -20.6131  -14.7468 N   0  0  0  0  0  0  0  0  0  0  0  0
   17.3812  -21.1213  -15.4924 C   0  0  1  0  0  0  0  0  0  0  0  0
   16.9980  -22.5290  -15.1167 C   0  0  0  0  0  0  0  0  0  0  0  0
   18.5143  -23.5301  -15.1423 S   0  0  0  0  0  0  0  0  0  0  0  0
   16.2112  -20.2289  -15.3112 C   0  0  0  0  0  0  0  0  0  0  0  0
   15.0070  -20.4351  -15.9740 O   0  0  0  0  0  0  0  0  0  0  0  0
   16.2784  -19.2463  -14.5410 O   0  0  0  0  0  0  0  0  0  0  0  0
  2  1  1  0
  3  2  2  0
  4  3  1  0
  5 11  1  0
  5  4  2  0
  6  7  1  0
  6  5  1  0
  7  9  1  0
  7  8  1  1
  9 10  2  0
 11 12  2  0
 12  2  1  0
 14 13  1  0
 14 16  1  0
 15 14  2  0
 17 16  1  0
 18 17  1  6
 19  9  1  0
 19 18  1  0
 20 18  1  0
 20 21  2  0
 22 20  1  0
 23 22  1  0
 23 26  1  0
 23 24  1  1
 25 24  1  0
 26 27  1  0
 28 26  2  0
M  END
$$$$
