YQC.pdb
     RDKit          3D

 28 28  0  0  1  0  0  0  0  0999 V2000
   18.0838  -14.9960  -24.4140 O   0  0  0  0  0  0  0  0  0  0  0  0
   17.8740  -14.1476  -23.3369 C   0  0  0  0  0  0  0  0  0  0  0  0
   16.7037  -14.1742  -22.6017 C   0  0  0  0  0  0  0  0  0  0  0  0
   16.5398  -13.3202  -21.5484 C   0  0  0  0  0  0  0  0  0  0  0  0
   17.5069  -12.4104  -21.1725 C   0  0  0  0  0  0  0  0  0  0  0  0
   17.3095  -11.5006  -20.0358 C   0  0  0  0  0  0  0  0  0  0  0  0
   18.1536  -12.0223  -18.8749 C   0  0  2  0  0  0  0  0  0  0  0  0
   17.5417  -13.2456  -18.4291 N   0  0  0  0  0  0  0  0  0  0  0  0
   18.1673  -11.0465  -17.7616 C   0  0  0  0  0  0  0  0  0  0  0  0
   17.2100  -11.0621  -16.9439 O   0  0  0  0  0  0  0  0  0  0  0  0
   18.6909  -12.3695  -21.9009 C   0  0  0  0  0  0  0  0  0  0  0  0
   18.8457  -13.2302  -22.9556 C   0  0  0  0  0  0  0  0  0  0  0  0
   22.6913   -9.8406  -13.9113 N   0  0  0  0  0  0  0  0  0  0  0  0
   21.7653   -8.7698  -13.6822 C   0  0  0  0  0  0  0  0  0  0  0  0
   21.9466   -8.0303  -12.6796 O   0  0  0  0  0  0  0  0  0  0  0  0
   20.6270   -8.5099  -14.5644 C   0  0  0  0  0  0  0  0  0  0  0  0
   20.4264   -9.4698  -15.6761 C   0  0  0  0  0  0  0  0  0  0  0  0
   19.2819   -9.1625  -16.6035 C   0  0  2  0  0  0  0  0  0  0  0  0
   19.2496  -10.1428  -17.6641 N   0  0  0  0  0  0  0  0  0  0  0  0
   19.3639   -7.7938  -17.1666 C   0  0  0  0  0  0  0  0  0  0  0  0
   20.1803   -7.4429  -18.0511 O   0  0  0  0  0  0  0  0  0  0  0  0
   18.4629   -6.8145  -16.6765 N   0  0  0  0  0  0  0  0  0  0  0  0
   18.3592   -5.4827  -17.1912 C   0  0  1  0  0  0  0  0  0  0  0  0
   17.0396   -4.8219  -16.8884 C   0  0  0  0  0  0  0  0  0  0  0  0
   16.8078   -4.8717  -15.0868 S   0  0  0  0  0  0  0  0  0  0  0  0
   19.4605   -4.6522  -16.6476 C   0  0  0  0  0  0  0  0  0  0  0  0
   19.7315   -3.3729  -17.1187 O   0  0  0  0  0  0  0  0  0  0  0  0
   20.1899   -5.0901  -15.7315 O   0  0  0  0  0  0  0  0  0  0  0  0
  2  1  1  0
  3  2  2  0
  4  3  1  0
  5 11  1  0
  5  4  2  0
  6  7  1  0
  6  5  1  0
  7  9  1  0
  7  8  1  1
  9 10  2  0
 11 12  2  0
 12  2  1  0
 14 13  1  0
 14 16  1  0
 15 14  2  0
 17 16  1  0
 18 17  1  1
 19  9  1  0
 19 18  1  0
 20 18  1  0
 20 21  2  0
 22 20  1  0
 23 22  1  0
 23 26  1  0
 23 24  1  1
 25 24  1  0
 26 27  1  0
 28 26  2  0
M  END
$$$$
