YQC.pdb
     RDKit          3D

 28 28  0  0  1  0  0  0  0  0999 V2000
   21.8930  -14.4300  -23.0068 O   0  0  0  0  0  0  0  0  0  0  0  0
   21.4017  -13.7204  -21.9211 C   0  0  0  0  0  0  0  0  0  0  0  0
   21.4280  -12.3389  -21.8774 C   0  0  0  0  0  0  0  0  0  0  0  0
   20.9330  -11.6811  -20.7875 C   0  0  0  0  0  0  0  0  0  0  0  0
   20.3951  -12.3419  -19.7021 C   0  0  0  0  0  0  0  0  0  0  0  0
   19.8680  -11.6140  -18.5397 C   0  0  0  0  0  0  0  0  0  0  0  0
   21.0607  -11.0726  -17.7544 C   0  0  2  0  0  0  0  0  0  0  0  0
   21.6733  -12.1957  -17.0965 N   0  0  0  0  0  0  0  0  0  0  0  0
   20.6135  -10.0930  -16.7384 C   0  0  0  0  0  0  0  0  0  0  0  0
   20.0401  -10.5264  -15.7047 O   0  0  0  0  0  0  0  0  0  0  0  0
   20.3603  -13.7319  -19.7287 C   0  0  0  0  0  0  0  0  0  0  0  0
   20.8593  -14.3826  -20.8263 C   0  0  0  0  0  0  0  0  0  0  0  0
   23.7638   -4.9910  -15.0517 N   0  0  0  0  0  0  0  0  0  0  0  0
   22.5240   -4.9373  -14.3329 C   0  0  0  0  0  0  0  0  0  0  0  0
   22.4230   -4.1203  -13.3804 O   0  0  0  0  0  0  0  0  0  0  0  0
   21.3832   -5.7919  -14.6643 C   0  0  0  0  0  0  0  0  0  0  0  0
   21.6159   -6.8222  -15.7044 C   0  0  0  0  0  0  0  0  0  0  0  0
   20.4562   -7.7395  -15.9836 C   0  0  2  0  0  0  0  0  0  0  0  0
   20.8482   -8.7187  -16.9708 N   0  0  0  0  0  0  0  0  0  0  0  0
   19.2510   -7.0040  -16.4348 C   0  0  0  0  0  0  0  0  0  0  0  0
   19.1133   -6.5106  -17.5791 O   0  0  0  0  0  0  0  0  0  0  0  0
   18.1821   -6.8456  -15.5165 N   0  0  0  0  0  0  0  0  0  0  0  0
   16.9763   -6.1266  -15.7968 C   0  0  1  0  0  0  0  0  0  0  0  0
   15.7921   -6.6027  -14.9963 C   0  0  0  0  0  0  0  0  0  0  0  0
   14.3179   -5.7747  -15.6620 S   0  0  0  0  0  0  0  0  0  0  0  0
   17.1895   -4.6810  -15.5457 C   0  0  0  0  0  0  0  0  0  0  0  0
   16.7071   -3.6971  -16.4006 O   0  0  0  0  0  0  0  0  0  0  0  0
   17.8224   -4.3009  -14.5366 O   0  0  0  0  0  0  0  0  0  0  0  0
  2  1  1  0
  3  2  2  0
  4  3  1  0
  5 11  1  0
  5  4  2  0
  6  7  1  0
  6  5  1  0
  7  9  1  0
  7  8  1  1
  9 10  2  0
 11 12  2  0
 12  2  1  0
 14 13  1  0
 14 16  1  0
 15 14  2  0
 17 16  1  0
 18 17  1  6
 19  9  1  0
 19 18  1  0
 20 18  1  0
 20 21  2  0
 22 20  1  0
 23 22  1  0
 23 26  1  0
 23 24  1  1
 25 24  1  0
 26 27  1  0
 28 26  2  0
M  END
$$$$
