YQC.pdb
     RDKit          3D

 28 28  0  0  1  0  0  0  0  0999 V2000
   28.9426  -27.1970  -18.7433 O   0  0  0  0  0  0  0  0  0  0  0  0
   28.4716  -26.1902  -17.9136 C   0  0  0  0  0  0  0  0  0  0  0  0
   29.1541  -25.7999  -16.7766 C   0  0  0  0  0  0  0  0  0  0  0  0
   28.6531  -24.8034  -15.9881 C   0  0  0  0  0  0  0  0  0  0  0  0
   27.4717  -24.1512  -16.2765 C   0  0  0  0  0  0  0  0  0  0  0  0
   26.9510  -23.0816  -15.4142 C   0  0  0  0  0  0  0  0  0  0  0  0
   27.2282  -21.7510  -16.1105 C   0  0  2  0  0  0  0  0  0  0  0  0
   28.6169  -21.4456  -15.8921 N   0  0  0  0  0  0  0  0  0  0  0  0
   26.3922  -20.6757  -15.5300 C   0  0  0  0  0  0  0  0  0  0  0  0
   26.9157  -19.9061  -14.6823 O   0  0  0  0  0  0  0  0  0  0  0  0
   26.7715  -24.5306  -17.4166 C   0  0  0  0  0  0  0  0  0  0  0  0
   27.2823  -25.5312  -18.2010 C   0  0  0  0  0  0  0  0  0  0  0  0
   22.7946  -16.2158  -16.3527 N   0  0  0  0  0  0  0  0  0  0  0  0
   23.6647  -16.6672  -17.3995 C   0  0  0  0  0  0  0  0  0  0  0  0
   23.5451  -16.1462  -18.5392 O   0  0  0  0  0  0  0  0  0  0  0  0
   24.6769  -17.7034  -17.1910 C   0  0  0  0  0  0  0  0  0  0  0  0
   24.8650  -18.1650  -15.7949 C   0  0  0  0  0  0  0  0  0  0  0  0
   24.2236  -19.4824  -15.4524 C   0  0  2  0  0  0  0  0  0  0  0  0
   25.0478  -20.5593  -15.9503 N   0  0  0  0  0  0  0  0  0  0  0  0
   22.8461  -19.5954  -15.9878 C   0  0  0  0  0  0  0  0  0  0  0  0
   22.5719  -19.9370  -17.1626 O   0  0  0  0  0  0  0  0  0  0  0  0
   21.7651  -19.2989  -15.1191 N   0  0  0  0  0  0  0  0  0  0  0  0
   20.7421  -20.2320  -14.7552 C   0  0  1  0  0  0  0  0  0  0  0  0
   21.2648  -21.4461  -14.0324 C   0  0  0  0  0  0  0  0  0  0  0  0
   19.8385  -22.5024  -13.6427 S   0  0  0  0  0  0  0  0  0  0  0  0
   19.7297  -19.5552  -13.9096 C   0  0  0  0  0  0  0  0  0  0  0  0
   20.0595  -18.5364  -13.0234 O   0  0  0  0  0  0  0  0  0  0  0  0
   18.5267  -19.8902  -13.9727 O   0  0  0  0  0  0  0  0  0  0  0  0
  2  1  1  0
  3  2  2  0
  4  3  1  0
  5 11  1  0
  5  4  2  0
  6  7  1  0
  6  5  1  0
  7  9  1  0
  7  8  1  1
  9 10  2  0
 11 12  2  0
 12  2  1  0
 14 13  1  0
 14 16  1  0
 15 14  2  0
 17 16  1  0
 18 17  1  6
 19  9  1  0
 19 18  1  0
 20 18  1  0
 20 21  2  0
 22 20  1  0
 23 22  1  0
 23 26  1  0
 23 24  1  1
 25 24  1  0
 26 27  1  0
 28 26  2  0
M  END
$$$$
