YQC.pdb
     RDKit          3D

 28 28  0  0  1  0  0  0  0  0999 V2000
   24.1167  -15.5941  -19.1991 O   0  0  0  0  0  0  0  0  0  0  0  0
   23.5050  -14.4946  -18.6153 C   0  0  0  0  0  0  0  0  0  0  0  0
   22.7805  -14.5973  -17.4425 C   0  0  0  0  0  0  0  0  0  0  0  0
   22.1947  -13.4877  -16.9028 C   0  0  0  0  0  0  0  0  0  0  0  0
   22.2922  -12.2396  -17.4832 C   0  0  0  0  0  0  0  0  0  0  0  0
   21.6538  -11.0591  -16.8853 C   0  0  0  0  0  0  0  0  0  0  0  0
   22.7638  -10.1415  -16.3772 C   0  0  2  0  0  0  0  0  0  0  0  0
   23.3406  -10.7809  -15.2248 N   0  0  0  0  0  0  0  0  0  0  0  0
   22.2117   -8.8255  -15.9831 C   0  0  0  0  0  0  0  0  0  0  0  0
   21.7406   -8.7005  -14.8223 O   0  0  0  0  0  0  0  0  0  0  0  0
   23.0172  -12.1174  -18.6637 C   0  0  0  0  0  0  0  0  0  0  0  0
   23.6011  -13.2362  -19.1972 C   0  0  0  0  0  0  0  0  0  0  0  0
   23.8780   -3.2992  -18.7554 N   0  0  0  0  0  0  0  0  0  0  0  0
   22.8453   -2.9824  -17.8121 C   0  0  0  0  0  0  0  0  0  0  0  0
   22.5674   -1.7700  -17.6185 O   0  0  0  0  0  0  0  0  0  0  0  0
   22.1110   -4.0100  -17.0728 C   0  0  0  0  0  0  0  0  0  0  0  0
   22.4999   -5.4150  -17.3413 C   0  0  0  0  0  0  0  0  0  0  0  0
   21.7564   -6.4587  -16.5525 C   0  0  2  0  0  0  0  0  0  0  0  0
   22.2368   -7.7699  -16.9226 N   0  0  0  0  0  0  0  0  0  0  0  0
   20.2892   -6.3723  -16.7446 C   0  0  0  0  0  0  0  0  0  0  0  0
   19.6977   -6.6803  -17.8063 O   0  0  0  0  0  0  0  0  0  0  0  0
   19.4993   -5.9120  -15.6605 N   0  0  0  0  0  0  0  0  0  0  0  0
   18.0821   -5.7178  -15.7190 C   0  0  1  0  0  0  0  0  0  0  0  0
   17.3000   -6.7653  -14.9703 C   0  0  0  0  0  0  0  0  0  0  0  0
   15.5927   -6.1624  -14.8170 S   0  0  0  0  0  0  0  0  0  0  0  0
   17.7416   -4.3767  -15.1865 C   0  0  0  0  0  0  0  0  0  0  0  0
   18.4041   -3.8157  -14.1010 O   0  0  0  0  0  0  0  0  0  0  0  0
   16.8300   -3.7006  -15.7110 O   0  0  0  0  0  0  0  0  0  0  0  0
  2  1  1  0
  3  2  2  0
  4  3  1  0
  5 11  1  0
  5  4  2  0
  6  7  1  0
  6  5  1  0
  7  9  1  0
  7  8  1  1
  9 10  2  0
 11 12  2  0
 12  2  1  0
 14 13  1  0
 14 16  1  0
 15 14  2  0
 17 16  1  0
 18 17  1  6
 19  9  1  0
 19 18  1  0
 20 18  1  0
 20 21  2  0
 22 20  1  0
 23 22  1  0
 23 26  1  0
 23 24  1  1
 25 24  1  0
 26 27  1  0
 28 26  2  0
M  END
$$$$
