YQC.pdb
     RDKit          3D

 28 28  0  0  1  0  0  0  0  0999 V2000
   18.3239  -33.6562   -9.8407 O   0  0  0  0  0  0  0  0  0  0  0  0
   18.9607  -32.4648  -10.1556 C   0  0  0  0  0  0  0  0  0  0  0  0
   19.1065  -32.0361  -11.4617 C   0  0  0  0  0  0  0  0  0  0  0  0
   19.7409  -30.8556  -11.7257 C   0  0  0  0  0  0  0  0  0  0  0  0
   20.2558  -30.0504  -10.7304 C   0  0  0  0  0  0  0  0  0  0  0  0
   20.9348  -28.7840  -11.0370 C   0  0  0  0  0  0  0  0  0  0  0  0
   19.8690  -27.6919  -11.0991 C   0  0  2  0  0  0  0  0  0  0  0  0
   20.5022  -26.5195  -11.6412 N   0  0  0  0  0  0  0  0  0  0  0  0
   19.3542  -27.3894   -9.7443 C   0  0  0  0  0  0  0  0  0  0  0  0
   20.1586  -26.9348   -8.8891 O   0  0  0  0  0  0  0  0  0  0  0  0
   20.1183  -30.4659   -9.4103 C   0  0  0  0  0  0  0  0  0  0  0  0
   19.4805  -31.6515   -9.1558 C   0  0  0  0  0  0  0  0  0  0  0  0
   19.3617  -24.9286   -6.2313 N   0  0  0  0  0  0  0  0  0  0  0  0
   17.9909  -24.6744   -6.5675 C   0  0  0  0  0  0  0  0  0  0  0  0
   17.2297  -24.2310   -5.6682 O   0  0  0  0  0  0  0  0  0  0  0  0
   17.4509  -24.9114   -7.9069 C   0  0  0  0  0  0  0  0  0  0  0  0
   16.6699  -26.1583   -8.0879 C   0  0  0  0  0  0  0  0  0  0  0  0
   17.4737  -27.4296   -8.1333 C   0  0  2  0  0  0  0  0  0  0  0  0
   17.9876  -27.6228   -9.4696 N   0  0  0  0  0  0  0  0  0  0  0  0
   16.6863  -28.6105   -7.7063 C   0  0  0  0  0  0  0  0  0  0  0  0
   15.8356  -29.1879   -8.4238 O   0  0  0  0  0  0  0  0  0  0  0  0
   16.9058  -29.1241   -6.4028 N   0  0  0  0  0  0  0  0  0  0  0  0
   16.2441  -30.2746   -5.8659 C   0  0  1  0  0  0  0  0  0  0  0  0
   16.9318  -30.8547   -4.6575 C   0  0  0  0  0  0  0  0  0  0  0  0
   18.7162  -30.8656   -5.0008 S   0  0  0  0  0  0  0  0  0  0  0  0
   14.8464  -29.9260   -5.5153 C   0  0  0  0  0  0  0  0  0  0  0  0
   13.9312  -30.8730   -5.0709 O   0  0  0  0  0  0  0  0  0  0  0  0
   14.4455  -28.7457   -5.6123 O   0  0  0  0  0  0  0  0  0  0  0  0
  2  1  1  0
  3  2  2  0
  4  3  1  0
  5 11  1  0
  5  4  2  0
  6  7  1  0
  6  5  1  0
  7  9  1  0
  7  8  1  1
  9 10  2  0
 11 12  2  0
 12  2  1  0
 14 13  1  0
 14 16  1  0
 15 14  2  0
 17 16  1  0
 18 17  1  6
 19  9  1  0
 19 18  1  0
 20 18  1  0
 20 21  2  0
 22 20  1  0
 23 22  1  0
 23 26  1  0
 23 24  1  1
 25 24  1  0
 26 27  1  0
 28 26  2  0
M  END
$$$$
