RDY.pdb
     RDKit          3D

 32 32  0  0  1  0  0  0  0  0999 V2000
    7.4272  -12.2299   18.4742 N   0  0  0  0  0  0  0  0  0  0  0  0
    8.3792  -13.2647   18.2883 C   0  0  0  0  0  0  0  0  0  0  0  0
    9.5807  -13.0386   17.8044 N   0  0  0  0  0  0  0  0  0  0  0  0
    8.1122  -14.6176   18.5951 N   0  0  0  0  0  0  0  0  0  0  0  0
    6.9991  -15.0549   19.3887 C   0  0  0  0  0  0  0  0  0  0  0  0
    6.9026  -16.5217   19.6104 C   0  0  0  0  0  0  0  0  0  0  0  0
    7.9065  -17.1644   20.4789 C   0  0  0  0  0  0  0  0  0  0  0  0
    9.2134  -16.4563   20.6297 C   0  0  2  0  0  0  0  0  0  0  0  0
    9.8884  -16.2868   19.3479 N   0  0  0  0  0  0  0  0  0  0  0  0
   10.1230  -17.1654   21.5705 C   0  0  0  0  0  0  0  0  0  0  0  0
    9.7545  -17.6194   22.6808 O   0  0  0  0  0  0  0  0  0  0  0  0
   10.1636  -13.8866   17.6505 N   0  0  0  0  0  0  0  0  0  0  0  0
   11.5130  -17.3694   21.2386 C   0  0  2  0  0  0  0  0  0  0  0  0
   12.3887  -18.0753   22.1514 C   0  0  0  0  0  0  0  0  0  0  0  0
   13.7446  -18.1998   21.5051 C   0  0  0  0  0  0  0  0  0  0  0  0
   13.7279  -19.0594   20.3018 O   0  0  0  0  0  0  0  0  0  0  0  0
   12.8184  -19.8717   20.0095 C   0  0  0  0  0  0  0  0  0  0  0  0
   12.4568  -17.3416   23.4501 O   0  0  0  0  0  0  0  0  0  0  0  0
   12.9866  -16.2021   23.4934 O   0  0  0  0  0  0  0  0  0  0  0  0
   14.7958  -18.9948   19.3840 O   0  0  0  0  0  0  0  0  0  0  0  0
    8.2251  -13.1394   29.6134 C   0  0  0  0  0  0  0  0  0  0  0  0
    8.7765  -13.8786   28.5588 C   0  0  0  0  0  0  0  0  0  0  0  0
    9.9888  -14.5185   28.6944 C   0  0  0  0  0  0  0  0  0  0  0  0
   10.5403  -15.2568   27.6426 C   0  0  0  0  0  0  0  0  0  0  0  0
    9.8559  -15.3417   26.4540 C   0  0  0  0  0  0  0  0  0  0  0  0
   10.4292  -16.1169   25.3428 C   0  0  1  0  0  0  0  0  0  0  0  0
   11.4946  -17.0815   25.7649 N   0  0  0  0  0  0  0  0  0  0  0  0
   11.9477  -17.8733   24.6475 C   0  0  0  0  0  0  0  0  0  0  0  0
   10.9921  -17.9495   26.8784 O   0  0  0  0  0  0  0  0  0  0  0  0
   11.2458  -17.6059   28.1821 C   0  0  0  0  0  0  0  0  0  0  0  0
    8.6335  -14.6853   26.3449 C   0  0  0  0  0  0  0  0  0  0  0  0
    8.0769  -13.9552   27.3697 O   0  0  0  0  0  0  0  0  0  0  0  0
  2  3  2  0
  2  1  1  0
  4  2  1  0
  5  4  1  0
  6  5  1  0
  7  6  1  0
  8  7  1  0
  8  9  1  6
 10 11  2  0
 10  8  1  0
 12 10  1  0
 13 17  1  0
 13 12  1  0
 13 14  1  6
 15 16  2  0
 15 14  1  0
 17 18  2  0
 19 15  1  0
 20 21  1  0
 21 31  2  0
 22 23  2  0
 22 21  1  0
 23 24  1  0
 24 25  1  0
 24 30  2  0
 26 25  1  6
 27 26  1  0
 27 17  1  0
 28 26  1  0
 29 28  1  0
 31 30  1  0
 32 28  2  0
M  END
$$$$
