RDY.pdb
     RDKit          3D

 32 32  0  0  1  0  0  0  0  0999 V2000
   10.3562  -15.9087   13.2109 N   0  0  0  0  0  0  0  0  0  0  0  0
   10.4741  -15.8600   14.6236 C   0  0  0  0  0  0  0  0  0  0  0  0
   11.2876  -16.6487   15.2906 N   0  0  0  0  0  0  0  0  0  0  0  0
    9.7226  -14.9733   15.4265 N   0  0  0  0  0  0  0  0  0  0  0  0
    8.3405  -14.6607   15.1980 C   0  0  0  0  0  0  0  0  0  0  0  0
    7.3673  -15.3648   16.0738 C   0  0  0  0  0  0  0  0  0  0  0  0
    7.8019  -15.7561   17.4277 C   0  0  0  0  0  0  0  0  0  0  0  0
    6.8029  -16.4829   18.2679 C   0  0  2  0  0  0  0  0  0  0  0  0
    5.8033  -15.5784   18.8246 N   0  0  0  0  0  0  0  0  0  0  0  0
    7.4525  -17.2345   19.3763 C   0  0  0  0  0  0  0  0  0  0  0  0
    7.5831  -16.7797   20.5386 O   0  0  0  0  0  0  0  0  0  0  0  0
   11.2351  -16.5661   16.3265 N   0  0  0  0  0  0  0  0  0  0  0  0
    7.9782  -18.5611   19.1582 C   0  0  2  0  0  0  0  0  0  0  0  0
    8.6878  -19.2514   20.2157 C   0  0  0  0  0  0  0  0  0  0  0  0
    8.7946  -20.7076   19.8415 C   0  0  0  0  0  0  0  0  0  0  0  0
    7.4751  -21.3458   19.6444 O   0  0  0  0  0  0  0  0  0  0  0  0
    6.9384  -21.5614   18.5318 C   0  0  0  0  0  0  0  0  0  0  0  0
   10.0302  -18.6271   20.4101 O   0  0  0  0  0  0  0  0  0  0  0  0
   10.9734  -18.9267   19.6345 O   0  0  0  0  0  0  0  0  0  0  0  0
    6.7269  -21.7602   20.7648 O   0  0  0  0  0  0  0  0  0  0  0  0
    8.2451  -12.4045   18.7496 C   0  0  0  0  0  0  0  0  0  0  0  0
    9.1720  -13.3720   19.1588 C   0  0  0  0  0  0  0  0  0  0  0  0
    9.5634  -14.3866   18.3133 C   0  0  0  0  0  0  0  0  0  0  0  0
   10.4886  -15.3530   18.7203 C   0  0  0  0  0  0  0  0  0  0  0  0
   11.0135  -15.2843   19.9884 C   0  0  0  0  0  0  0  0  0  0  0  0
   11.9878  -16.2968   20.4241 C   0  0  1  0  0  0  0  0  0  0  0  0
   11.5660  -17.0559   21.6446 N   0  0  0  0  0  0  0  0  0  0  0  0
   10.2943  -17.7042   21.4367 C   0  0  0  0  0  0  0  0  0  0  0  0
   11.5229  -16.1412   22.8309 O   0  0  0  0  0  0  0  0  0  0  0  0
   12.6824  -15.5862   23.3100 C   0  0  0  0  0  0  0  0  0  0  0  0
   10.6003  -14.2486   20.8214 C   0  0  0  0  0  0  0  0  0  0  0  0
    9.6914  -13.2900   20.4366 O   0  0  0  0  0  0  0  0  0  0  0  0
  2  3  2  0
  2  1  1  0
  4  2  1  0
  5  4  1  0
  6  5  1  0
  7  6  1  0
  8  7  1  0
  8  9  1  1
 10 11  2  0
 10  8  1  0
 12 10  1  0
 13 17  1  0
 13 12  1  0
 13 14  1  6
 15 16  2  0
 15 14  1  0
 17 18  2  0
 19 15  1  0
 20 21  1  0
 21 31  2  0
 22 23  2  0
 22 21  1  0
 23 24  1  0
 24 25  1  0
 24 30  2  0
 26 25  1  6
 27 26  1  0
 27 17  1  0
 28 26  1  0
 29 28  1  0
 31 30  1  0
 32 28  2  0
M  END
$$$$
