RDY.pdb
     RDKit          3D

 32 32  0  0  1  0  0  0  0  0999 V2000
    7.2389  -16.5423   14.4437 N   0  0  0  0  0  0  0  0  0  0  0  0
    7.7022  -15.2804   13.9914 C   0  0  0  0  0  0  0  0  0  0  0  0
    7.5857  -14.8939   12.7400 N   0  0  0  0  0  0  0  0  0  0  0  0
    8.3339  -14.3450   14.8409 N   0  0  0  0  0  0  0  0  0  0  0  0
    8.4071  -14.4800   16.2680 C   0  0  0  0  0  0  0  0  0  0  0  0
    7.1926  -14.0644   17.0177 C   0  0  0  0  0  0  0  0  0  0  0  0
    7.0814  -14.4504   18.4367 C   0  0  0  0  0  0  0  0  0  0  0  0
    8.0659  -13.8356   19.3773 C   0  0  2  0  0  0  0  0  0  0  0  0
    9.1692  -13.1993   18.6665 N   0  0  0  0  0  0  0  0  0  0  0  0
    8.6138  -14.8330   20.3367 C   0  0  0  0  0  0  0  0  0  0  0  0
    7.8994  -15.6345   20.9864 O   0  0  0  0  0  0  0  0  0  0  0  0
    8.0268  -13.9786   12.5157 N   0  0  0  0  0  0  0  0  0  0  0  0
   10.0351  -14.9267   20.5708 C   0  0  1  0  0  0  0  0  0  0  0  0
   10.5578  -15.8668   21.5411 C   0  0  0  0  0  0  0  0  0  0  0  0
   12.0475  -15.9761   21.3390 C   0  0  0  0  0  0  0  0  0  0  0  0
   12.6629  -17.0272   22.1778 O   0  0  0  0  0  0  0  0  0  0  0  0
   12.0377  -17.7835   22.9586 C   0  0  0  0  0  0  0  0  0  0  0  0
   10.2158  -15.4072   22.9200 O   0  0  0  0  0  0  0  0  0  0  0  0
   10.1355  -14.1762   23.1631 O   0  0  0  0  0  0  0  0  0  0  0  0
   14.0568  -17.2310   22.1288 O   0  0  0  0  0  0  0  0  0  0  0  0
    6.3228  -10.6211   27.1275 C   0  0  0  0  0  0  0  0  0  0  0  0
    6.6839  -11.8319   26.5223 C   0  0  0  0  0  0  0  0  0  0  0  0
    6.0845  -13.0174   26.8867 C   0  0  0  0  0  0  0  0  0  0  0  0
    6.4438  -14.2267   26.2835 C   0  0  0  0  0  0  0  0  0  0  0  0
    7.4135  -14.2263   25.3099 C   0  0  0  0  0  0  0  0  0  0  0  0
    7.7968  -15.4944   24.6699 C   0  0  2  0  0  0  0  0  0  0  0  0
    9.1299  -16.0156   25.1114 N   0  0  0  0  0  0  0  0  0  0  0  0
    9.9751  -16.3010   23.9778 C   0  0  0  0  0  0  0  0  0  0  0  0
    8.9494  -17.2277   25.9741 O   0  0  0  0  0  0  0  0  0  0  0  0
    8.7379  -17.0834   27.3219 C   0  0  0  0  0  0  0  0  0  0  0  0
    8.0022  -13.0142   24.9614 C   0  0  0  0  0  0  0  0  0  0  0  0
    7.6603  -11.8160   25.5448 O   0  0  0  0  0  0  0  0  0  0  0  0
  2  3  2  0
  2  1  1  0
  4  2  1  0
  5  4  1  0
  6  5  1  0
  7  6  1  0
  8  7  1  0
  8  9  1  6
 10 11  2  0
 10  8  1  0
 12 10  1  0
 13 17  1  0
 13 12  1  0
 13 14  1  1
 15 16  2  0
 15 14  1  0
 17 18  2  0
 19 15  1  0
 20 21  1  0
 21 31  2  0
 22 23  2  0
 22 21  1  0
 23 24  1  0
 24 25  1  0
 24 30  2  0
 26 25  1  1
 27 26  1  0
 27 17  1  0
 28 26  1  0
 29 28  1  0
 31 30  1  0
 32 28  2  0
M  END
$$$$
