RDY.pdb
     RDKit          3D

 32 32  0  0  1  0  0  0  0  0999 V2000
    8.5068  -12.2338   19.3201 N   0  0  0  0  0  0  0  0  0  0  0  0
    8.3023  -13.0655   18.1895 C   0  0  0  0  0  0  0  0  0  0  0  0
    9.1157  -13.0634   17.1565 N   0  0  0  0  0  0  0  0  0  0  0  0
    7.2074  -13.9509   18.0760 N   0  0  0  0  0  0  0  0  0  0  0  0
    7.0288  -15.1142   18.8976 C   0  0  0  0  0  0  0  0  0  0  0  0
    8.0160  -16.2064   18.6914 C   0  0  0  0  0  0  0  0  0  0  0  0
    8.9547  -16.5154   19.7860 C   0  0  0  0  0  0  0  0  0  0  0  0
    9.1145  -17.9569   20.1447 C   0  0  2  0  0  0  0  0  0  0  0  0
    7.8405  -18.6666   20.1149 N   0  0  0  0  0  0  0  0  0  0  0  0
    9.7382  -18.1291   21.4850 C   0  0  0  0  0  0  0  0  0  0  0  0
    9.1377  -18.6221   22.4705 O   0  0  0  0  0  0  0  0  0  0  0  0
    8.7980  -13.6257   16.3407 N   0  0  0  0  0  0  0  0  0  0  0  0
   11.1039  -17.7246   21.7198 C   0  0  2  0  0  0  0  0  0  0  0  0
   11.6648  -17.7767   23.0543 C   0  0  0  0  0  0  0  0  0  0  0  0
   13.1569  -17.5922   22.9479 C   0  0  0  0  0  0  0  0  0  0  0  0
   13.8557  -18.8213   22.5139 O   0  0  0  0  0  0  0  0  0  0  0  0
   13.3511  -19.9691   22.4979 C   0  0  0  0  0  0  0  0  0  0  0  0
   11.0335  -16.7249   23.9056 O   0  0  0  0  0  0  0  0  0  0  0  0
   11.0698  -15.5230   23.5381 O   0  0  0  0  0  0  0  0  0  0  0  0
   15.1933  -18.7449   22.0761 O   0  0  0  0  0  0  0  0  0  0  0  0
    6.2331  -10.7785   27.1506 C   0  0  0  0  0  0  0  0  0  0  0  0
    6.8009  -11.9456   26.6233 C   0  0  0  0  0  0  0  0  0  0  0  0
    8.1003  -11.9624   26.1664 C   0  0  0  0  0  0  0  0  0  0  0  0
    8.6685  -13.1266   25.6399 C   0  0  0  0  0  0  0  0  0  0  0  0
    7.9118  -14.2720   25.5795 C   0  0  0  0  0  0  0  0  0  0  0  0
    8.5024  -15.5012   25.0274 C   0  0  2  0  0  0  0  0  0  0  0  0
    9.5961  -16.0787   25.8724 N   0  0  0  0  0  0  0  0  0  0  0  0
   10.3893  -17.0196   25.1196 C   0  0  0  0  0  0  0  0  0  0  0  0
    9.0178  -16.7145   27.1000 O   0  0  0  0  0  0  0  0  0  0  0  0
    9.0709  -16.0554   28.3021 C   0  0  0  0  0  0  0  0  0  0  0  0
    6.6020  -14.2264   26.0481 C   0  0  0  0  0  0  0  0  0  0  0  0
    6.0280  -13.0897   26.5691 O   0  0  0  0  0  0  0  0  0  0  0  0
  2  3  2  0
  2  1  1  0
  4  2  1  0
  5  4  1  0
  6  5  1  0
  7  6  1  0
  8  7  1  0
  8  9  1  1
 10 11  2  0
 10  8  1  0
 12 10  1  0
 13 17  1  0
 13 12  1  0
 13 14  1  6
 15 16  2  0
 15 14  1  0
 17 18  2  0
 19 15  1  0
 20 21  1  0
 21 31  2  0
 22 23  2  0
 22 21  1  0
 23 24  1  0
 24 25  1  0
 24 30  2  0
 26 25  1  6
 27 26  1  0
 27 17  1  0
 28 26  1  0
 29 28  1  0
 31 30  1  0
 32 28  2  0
M  END
$$$$
