RDY.pdb
     RDKit          3D

 32 32  0  0  1  0  0  0  0  0999 V2000
    7.8335  -13.3352   20.5519 N   0  0  0  0  0  0  0  0  0  0  0  0
    8.0415  -13.3636   19.1491 C   0  0  0  0  0  0  0  0  0  0  0  0
    8.2207  -12.2704   18.4408 N   0  0  0  0  0  0  0  0  0  0  0  0
    8.0613  -14.5611   18.4000 N   0  0  0  0  0  0  0  0  0  0  0  0
    8.0816  -15.8719   18.9846 C   0  0  0  0  0  0  0  0  0  0  0  0
    6.7513  -16.4715   19.2686 C   0  0  0  0  0  0  0  0  0  0  0  0
    6.6948  -17.6759   20.1177 C   0  0  0  0  0  0  0  0  0  0  0  0
    6.8384  -17.4651   21.5898 C   0  0  2  0  0  0  0  0  0  0  0  0
    6.4124  -16.1286   21.9893 N   0  0  0  0  0  0  0  0  0  0  0  0
    8.2365  -17.6894   22.0483 C   0  0  0  0  0  0  0  0  0  0  0  0
    8.8537  -18.7701   21.8871 O   0  0  0  0  0  0  0  0  0  0  0  0
    8.2208  -12.4054   17.4091 N   0  0  0  0  0  0  0  0  0  0  0  0
    8.9687  -16.6422   22.7200 C   0  0  2  0  0  0  0  0  0  0  0  0
   10.2951  -16.8954   23.2444 C   0  0  0  0  0  0  0  0  0  0  0  0
   11.2893  -16.1375   22.4025 C   0  0  0  0  0  0  0  0  0  0  0  0
   12.6806  -16.2972   22.8777 O   0  0  0  0  0  0  0  0  0  0  0  0
   13.0435  -17.0684   23.7976 C   0  0  0  0  0  0  0  0  0  0  0  0
   10.3543  -16.4856   24.6790 O   0  0  0  0  0  0  0  0  0  0  0  0
   10.3625  -15.2641   24.9769 O   0  0  0  0  0  0  0  0  0  0  0  0
   13.7121  -15.5450   22.2803 O   0  0  0  0  0  0  0  0  0  0  0  0
    7.1731  -11.4258   26.4236 C   0  0  0  0  0  0  0  0  0  0  0  0
    7.5142  -12.7719   26.6085 C   0  0  0  0  0  0  0  0  0  0  0  0
    8.7535  -13.1337   27.0888 C   0  0  0  0  0  0  0  0  0  0  0  0
    9.0953  -14.4769   27.2740 C   0  0  0  0  0  0  0  0  0  0  0  0
    8.1738  -15.4497   26.9694 C   0  0  0  0  0  0  0  0  0  0  0  0
    8.5254  -16.8652   27.1619 C   0  0  2  0  0  0  0  0  0  0  0  0
    9.9963  -17.1384   27.0868 N   0  0  0  0  0  0  0  0  0  0  0  0
   10.4021  -17.4168   25.7308 C   0  0  0  0  0  0  0  0  0  0  0  0
   10.3587  -18.2657   28.0054 O   0  0  0  0  0  0  0  0  0  0  0  0
   10.2012  -18.1221   29.3606 C   0  0  0  0  0  0  0  0  0  0  0  0
    6.9295  -15.0557   26.4860 C   0  0  0  0  0  0  0  0  0  0  0  0
    6.5773  -13.7390   26.2982 O   0  0  0  0  0  0  0  0  0  0  0  0
  2  3  2  0
  2  1  1  0
  4  2  1  0
  5  4  1  0
  6  5  1  0
  7  6  1  0
  8  7  1  0
  8  9  1  6
 10 11  2  0
 10  8  1  0
 12 10  1  0
 13 17  1  0
 13 12  1  0
 13 14  1  6
 15 16  2  0
 15 14  1  0
 17 18  2  0
 19 15  1  0
 20 21  1  0
 21 31  2  0
 22 23  2  0
 22 21  1  0
 23 24  1  0
 24 25  1  0
 24 30  2  0
 26 25  1  6
 27 26  1  0
 27 17  1  0
 28 26  1  0
 29 28  1  0
 31 30  1  0
 32 28  2  0
M  END
$$$$
