RDY.pdb
     RDKit          3D

 32 32  0  0  1  0  0  0  0  0999 V2000
    6.7812  -16.7708   15.5206 N   0  0  0  0  0  0  0  0  0  0  0  0
    7.8991  -15.9240   15.3081 C   0  0  0  0  0  0  0  0  0  0  0  0
    9.1089  -16.3935   15.0965 N   0  0  0  0  0  0  0  0  0  0  0  0
    7.8072  -14.5144   15.3182 N   0  0  0  0  0  0  0  0  0  0  0  0
    8.2183  -13.6922   16.4205 C   0  0  0  0  0  0  0  0  0  0  0  0
    7.4092  -13.8255   17.6606 C   0  0  0  0  0  0  0  0  0  0  0  0
    7.8158  -14.8361   18.6546 C   0  0  0  0  0  0  0  0  0  0  0  0
    8.9072  -14.4468   19.5978 C   0  0  2  0  0  0  0  0  0  0  0  0
   10.1175  -14.0459   18.8894 N   0  0  0  0  0  0  0  0  0  0  0  0
    9.2379  -15.5447   20.5468 C   0  0  0  0  0  0  0  0  0  0  0  0
    8.3829  -16.1291   21.2555 O   0  0  0  0  0  0  0  0  0  0  0  0
    9.8666  -15.6804   15.0907 N   0  0  0  0  0  0  0  0  0  0  0  0
   10.5987  -16.0014   20.7000 C   0  0  1  0  0  0  0  0  0  0  0  0
   10.9376  -16.9639   21.7281 C   0  0  0  0  0  0  0  0  0  0  0  0
   12.2876  -17.5494   21.4015 C   0  0  0  0  0  0  0  0  0  0  0  0
   12.2955  -18.2899   20.1214 O   0  0  0  0  0  0  0  0  0  0  0  0
   11.5275  -19.2383   19.8333 C   0  0  0  0  0  0  0  0  0  0  0  0
   10.9292  -16.2961   23.0635 O   0  0  0  0  0  0  0  0  0  0  0  0
   11.6221  -15.2629   23.2463 O   0  0  0  0  0  0  0  0  0  0  0  0
   13.2203  -17.9373   19.1178 O   0  0  0  0  0  0  0  0  0  0  0  0
    6.1923  -11.3532   28.1104 C   0  0  0  0  0  0  0  0  0  0  0  0
    6.8186  -12.2235   27.2089 C   0  0  0  0  0  0  0  0  0  0  0  0
    8.1612  -12.1086   26.9232 C   0  0  0  0  0  0  0  0  0  0  0  0
    8.7878  -12.9767   26.0236 C   0  0  0  0  0  0  0  0  0  0  0  0
    8.0453  -13.9607   25.4162 C   0  0  0  0  0  0  0  0  0  0  0  0
    8.6971  -14.8784   24.4689 C   0  0  2  0  0  0  0  0  0  0  0  0
    9.5277  -15.9370   25.1272 N   0  0  0  0  0  0  0  0  0  0  0  0
   10.1701  -16.7756   24.1449 C   0  0  0  0  0  0  0  0  0  0  0  0
    8.6834  -16.7459   26.0645 O   0  0  0  0  0  0  0  0  0  0  0  0
    8.7783  -16.5447   27.4182 C   0  0  0  0  0  0  0  0  0  0  0  0
    6.6910  -14.0538   25.7234 C   0  0  0  0  0  0  0  0  0  0  0  0
    6.0594  -13.2081   26.6060 O   0  0  0  0  0  0  0  0  0  0  0  0
  2  3  2  0
  2  1  1  0
  4  2  1  0
  5  4  1  0
  6  5  1  0
  7  6  1  0
  8  7  1  0
  8  9  1  6
 10 11  2  0
 10  8  1  0
 12 10  1  0
 13 17  1  0
 13 12  1  0
 13 14  1  1
 15 16  2  0
 15 14  1  0
 17 18  2  0
 19 15  1  0
 20 21  1  0
 21 31  2  0
 22 23  2  0
 22 21  1  0
 23 24  1  0
 24 25  1  0
 24 30  2  0
 26 25  1  6
 27 26  1  0
 27 17  1  0
 28 26  1  0
 29 28  1  0
 31 30  1  0
 32 28  2  0
M  END
$$$$
