RDY.pdb
     RDKit          3D

 32 32  0  0  1  0  0  0  0  0999 V2000
    9.4020  -14.4605   16.9584 N   0  0  0  0  0  0  0  0  0  0  0  0
    9.9604  -13.6875   18.0084 C   0  0  0  0  0  0  0  0  0  0  0  0
   11.2279  -13.7709   18.3479 N   0  0  0  0  0  0  0  0  0  0  0  0
    9.2022  -12.7783   18.7791 N   0  0  0  0  0  0  0  0  0  0  0  0
    7.8736  -13.0428   19.2534 C   0  0  0  0  0  0  0  0  0  0  0  0
    7.3675  -14.4205   19.0172 C   0  0  0  0  0  0  0  0  0  0  0  0
    7.2921  -15.3433   20.1651 C   0  0  0  0  0  0  0  0  0  0  0  0
    8.5559  -15.5650   20.9305 C   0  0  2  0  0  0  0  0  0  0  0  0
    9.7319  -15.4697   20.0731 N   0  0  0  0  0  0  0  0  0  0  0  0
    8.5614  -16.8829   21.6223 C   0  0  0  0  0  0  0  0  0  0  0  0
    8.0580  -17.9237   21.1343 O   0  0  0  0  0  0  0  0  0  0  0  0
   11.5021  -13.2089   19.1796 N   0  0  0  0  0  0  0  0  0  0  0  0
    9.1644  -17.0284   22.9257 C   0  0  2  0  0  0  0  0  0  0  0  0
   10.5129  -17.5410   23.0565 C   0  0  0  0  0  0  0  0  0  0  0  0
   11.2697  -17.2083   21.7962 C   0  0  0  0  0  0  0  0  0  0  0  0
   12.1105  -18.3284   21.3213 O   0  0  0  0  0  0  0  0  0  0  0  0
   11.6847  -19.4642   21.0035 C   0  0  0  0  0  0  0  0  0  0  0  0
   11.1594  -16.9504   24.2659 O   0  0  0  0  0  0  0  0  0  0  0  0
   12.2208  -16.2877   24.1425 O   0  0  0  0  0  0  0  0  0  0  0  0
   13.5038  -18.1519   21.2007 O   0  0  0  0  0  0  0  0  0  0  0  0
    5.8699  -11.3995   27.9661 C   0  0  0  0  0  0  0  0  0  0  0  0
    6.6019  -12.4115   27.3316 C   0  0  0  0  0  0  0  0  0  0  0  0
    6.0090  -13.6016   26.9719 C   0  0  0  0  0  0  0  0  0  0  0  0
    6.7384  -14.6125   26.3384 C   0  0  0  0  0  0  0  0  0  0  0  0
    8.0712  -14.4095   26.0725 C   0  0  0  0  0  0  0  0  0  0  0  0
    8.8456  -15.4679   25.4059 C   0  0  2  0  0  0  0  0  0  0  0  0
    9.9065  -16.0766   26.2705 N   0  0  0  0  0  0  0  0  0  0  0  0
   10.6286  -17.1025   25.5585 C   0  0  0  0  0  0  0  0  0  0  0  0
    9.2988  -16.6141   27.5306 O   0  0  0  0  0  0  0  0  0  0  0  0
    9.5513  -15.9972   28.7297 C   0  0  0  0  0  0  0  0  0  0  0  0
    8.6444  -13.1977   26.4469 C   0  0  0  0  0  0  0  0  0  0  0  0
    7.9411  -12.1929   27.0705 O   0  0  0  0  0  0  0  0  0  0  0  0
  2  3  2  0
  2  1  1  0
  4  2  1  0
  5  4  1  0
  6  5  1  0
  7  6  1  0
  8  7  1  0
  8  9  1  6
 10 11  2  0
 10  8  1  0
 12 10  1  0
 13 17  1  0
 13 12  1  0
 13 14  1  6
 15 16  2  0
 15 14  1  0
 17 18  2  0
 19 15  1  0
 20 21  1  0
 21 31  2  0
 22 23  2  0
 22 21  1  0
 23 24  1  0
 24 25  1  0
 24 30  2  0
 26 25  1  6
 27 26  1  0
 27 17  1  0
 28 26  1  0
 29 28  1  0
 31 30  1  0
 32 28  2  0
M  END
$$$$
