RDY.pdb
     RDKit          3D

 32 32  0  0  1  0  0  0  0  0999 V2000
    9.7616  -14.8266   18.2737 N   0  0  0  0  0  0  0  0  0  0  0  0
    8.7815  -14.2607   17.4187 C   0  0  0  0  0  0  0  0  0  0  0  0
    8.7390  -14.5154   16.1295 N   0  0  0  0  0  0  0  0  0  0  0  0
    7.7833  -13.3726   17.8774 N   0  0  0  0  0  0  0  0  0  0  0  0
    7.5807  -13.0387   19.2586 C   0  0  0  0  0  0  0  0  0  0  0  0
    6.6954  -13.9581   20.0207 C   0  0  0  0  0  0  0  0  0  0  0  0
    7.0453  -14.2644   21.4203 C   0  0  0  0  0  0  0  0  0  0  0  0
    8.4496  -14.7040   21.6788 C   0  0  2  0  0  0  0  0  0  0  0  0
    9.0156  -15.4092   20.5344 N   0  0  0  0  0  0  0  0  0  0  0  0
    8.5459  -15.5724   22.8838 C   0  0  0  0  0  0  0  0  0  0  0  0
    7.7819  -15.4706   23.8741 O   0  0  0  0  0  0  0  0  0  0  0  0
    8.0068  -13.9999   15.5995 N   0  0  0  0  0  0  0  0  0  0  0  0
    9.5534  -16.6026   22.9711 C   0  0  1  0  0  0  0  0  0  0  0  0
    9.6478  -17.4375   24.1511 C   0  0  0  0  0  0  0  0  0  0  0  0
   10.5642  -18.5932   23.8408 C   0  0  0  0  0  0  0  0  0  0  0  0
   10.6815  -19.5478   24.9642 O   0  0  0  0  0  0  0  0  0  0  0  0
    9.8806  -19.6307   25.9255 C   0  0  0  0  0  0  0  0  0  0  0  0
   10.1455  -16.6262   25.3015 O   0  0  0  0  0  0  0  0  0  0  0  0
   11.1614  -15.8997   25.1567 O   0  0  0  0  0  0  0  0  0  0  0  0
   11.7608  -20.4538   24.9994 O   0  0  0  0  0  0  0  0  0  0  0  0
    6.5025  -11.3788   24.7397 C   0  0  0  0  0  0  0  0  0  0  0  0
    7.0890  -12.2947   25.6228 C   0  0  0  0  0  0  0  0  0  0  0  0
    8.3285  -12.0584   26.1753 C   0  0  0  0  0  0  0  0  0  0  0  0
    8.9150  -12.9716   27.0570 C   0  0  0  0  0  0  0  0  0  0  0  0
    8.2378  -14.1244   27.3744 C   0  0  0  0  0  0  0  0  0  0  0  0
    8.8479  -15.0900   28.3017 C   0  0  2  0  0  0  0  0  0  0  0  0
    9.9723  -15.8769   27.7016 N   0  0  0  0  0  0  0  0  0  0  0  0
    9.5214  -16.6361   26.5610 C   0  0  0  0  0  0  0  0  0  0  0  0
   10.5891  -16.7667   28.7378 O   0  0  0  0  0  0  0  0  0  0  0  0
   11.0986  -16.2243   29.8904 C   0  0  0  0  0  0  0  0  0  0  0  0
    6.9873  -14.3373   26.8016 C   0  0  0  0  0  0  0  0  0  0  0  0
    6.3961  -13.4493   25.9327 O   0  0  0  0  0  0  0  0  0  0  0  0
  2  3  2  0
  2  1  1  0
  4  2  1  0
  5  4  1  0
  6  5  1  0
  7  6  1  0
  8  7  1  0
  8  9  1  6
 10 11  2  0
 10  8  1  0
 12 10  1  0
 13 17  1  0
 13 12  1  0
 13 14  1  1
 15 16  2  0
 15 14  1  0
 17 18  2  0
 19 15  1  0
 20 21  1  0
 21 31  2  0
 22 23  2  0
 22 21  1  0
 23 24  1  0
 24 25  1  0
 24 30  2  0
 26 25  1  6
 27 26  1  0
 27 17  1  0
 28 26  1  0
 29 28  1  0
 31 30  1  0
 32 28  2  0
M  END
$$$$
