RDY.pdb
     RDKit          3D

 32 32  0  0  1  0  0  0  0  0999 V2000
    9.4232  -13.4668   20.2212 N   0  0  0  0  0  0  0  0  0  0  0  0
    8.2618  -13.0081   19.5483 C   0  0  0  0  0  0  0  0  0  0  0  0
    8.3142  -12.1323   18.5690 N   0  0  0  0  0  0  0  0  0  0  0  0
    6.9597  -13.4433   19.8809 N   0  0  0  0  0  0  0  0  0  0  0  0
    6.6488  -14.2275   21.0423 C   0  0  0  0  0  0  0  0  0  0  0  0
    7.2052  -15.6060   21.0568 C   0  0  0  0  0  0  0  0  0  0  0  0
    6.8790  -16.5028   19.9324 C   0  0  0  0  0  0  0  0  0  0  0  0
    7.4583  -17.8790   19.9834 C   0  0  2  0  0  0  0  0  0  0  0  0
    6.5092  -18.8463   20.5227 N   0  0  0  0  0  0  0  0  0  0  0  0
    8.7109  -17.9241   20.7861 C   0  0  0  0  0  0  0  0  0  0  0  0
    8.7684  -18.3751   21.9558 O   0  0  0  0  0  0  0  0  0  0  0  0
    7.3952  -11.8752   18.1544 N   0  0  0  0  0  0  0  0  0  0  0  0
    9.9546  -17.4362   20.2393 C   0  0  2  0  0  0  0  0  0  0  0  0
   11.1811  -17.5377   21.0032 C   0  0  0  0  0  0  0  0  0  0  0  0
   12.3234  -17.0955   20.1249 C   0  0  0  0  0  0  0  0  0  0  0  0
   13.6433  -17.2840   20.7649 O   0  0  0  0  0  0  0  0  0  0  0  0
   13.9244  -18.1931   21.5816 C   0  0  0  0  0  0  0  0  0  0  0  0
   11.0740  -16.7048   22.2378 O   0  0  0  0  0  0  0  0  0  0  0  0
   10.5738  -15.5532   22.1695 O   0  0  0  0  0  0  0  0  0  0  0  0
   14.6970  -16.3975   20.4639 O   0  0  0  0  0  0  0  0  0  0  0  0
   10.3783  -13.7550   30.4265 C   0  0  0  0  0  0  0  0  0  0  0  0
   10.3548  -14.4259   29.1969 C   0  0  0  0  0  0  0  0  0  0  0  0
   10.6642  -15.7654   29.1098 C   0  0  0  0  0  0  0  0  0  0  0  0
   10.6411  -16.4363   27.8831 C   0  0  0  0  0  0  0  0  0  0  0  0
   10.3030  -15.7414   26.7469 C   0  0  0  0  0  0  0  0  0  0  0  0
   10.2758  -16.4402   25.4525 C   0  0  1  0  0  0  0  0  0  0  0  0
   11.5577  -16.3394   24.6841 N   0  0  0  0  0  0  0  0  0  0  0  0
   11.5134  -17.1547   23.4949 C   0  0  0  0  0  0  0  0  0  0  0  0
   12.7142  -16.7164   25.5593 O   0  0  0  0  0  0  0  0  0  0  0  0
   13.3435  -15.7581   26.3128 C   0  0  0  0  0  0  0  0  0  0  0  0
    9.9951  -14.3892   26.8641 C   0  0  0  0  0  0  0  0  0  0  0  0
   10.0128  -13.7142   28.0630 O   0  0  0  0  0  0  0  0  0  0  0  0
  2  3  2  0
  2  1  1  0
  4  2  1  0
  5  4  1  0
  6  5  1  0
  7  6  1  0
  8  7  1  0
  8  9  1  1
 10 11  2  0
 10  8  1  0
 12 10  1  0
 13 17  1  0
 13 12  1  0
 13 14  1  6
 15 16  2  0
 15 14  1  0
 17 18  2  0
 19 15  1  0
 20 21  1  0
 21 31  2  0
 22 23  2  0
 22 21  1  0
 23 24  1  0
 24 25  1  0
 24 30  2  0
 26 25  1  6
 27 26  1  0
 27 17  1  0
 28 26  1  0
 29 28  1  0
 31 30  1  0
 32 28  2  0
M  END
$$$$
