RDY.pdb
     RDKit          3D

 32 32  0  0  1  0  0  0  0  0999 V2000
    8.4141  -15.0319   16.3421 N   0  0  0  0  0  0  0  0  0  0  0  0
    8.0432  -13.7922   16.9230 C   0  0  0  0  0  0  0  0  0  0  0  0
    7.1630  -12.9887   16.3676 N   0  0  0  0  0  0  0  0  0  0  0  0
    8.5946  -13.3162   18.1334 N   0  0  0  0  0  0  0  0  0  0  0  0
    9.6032  -14.0104   18.8824 C   0  0  0  0  0  0  0  0  0  0  0  0
    9.2553  -15.3927   19.3045 C   0  0  0  0  0  0  0  0  0  0  0  0
   10.2314  -16.1412   20.1180 C   0  0  0  0  0  0  0  0  0  0  0  0
    9.8775  -17.5522   20.4588 C   0  0  2  0  0  0  0  0  0  0  0  0
    8.5222  -17.8874   20.0369 N   0  0  0  0  0  0  0  0  0  0  0  0
   10.0162  -17.8223   21.9159 C   0  0  0  0  0  0  0  0  0  0  0  0
    9.0558  -17.7820   22.7226 O   0  0  0  0  0  0  0  0  0  0  0  0
    6.9361  -12.1334   16.9149 N   0  0  0  0  0  0  0  0  0  0  0  0
   11.3010  -18.1531   22.4850 C   0  0  1  0  0  0  0  0  0  0  0  0
   11.4511  -18.3040   23.9178 C   0  0  0  0  0  0  0  0  0  0  0  0
   12.8130  -18.8887   24.1918 C   0  0  0  0  0  0  0  0  0  0  0  0
   13.0193  -19.2138   25.6197 O   0  0  0  0  0  0  0  0  0  0  0  0
   12.1058  -19.3321   26.4706 C   0  0  0  0  0  0  0  0  0  0  0  0
   11.2699  -16.9800   24.5838 O   0  0  0  0  0  0  0  0  0  0  0  0
   11.5234  -15.9248   23.9489 O   0  0  0  0  0  0  0  0  0  0  0  0
   14.3265  -19.4149   26.1072 O   0  0  0  0  0  0  0  0  0  0  0  0
    6.0316  -10.8572   27.3392 C   0  0  0  0  0  0  0  0  0  0  0  0
    6.7519  -11.9724   26.8921 C   0  0  0  0  0  0  0  0  0  0  0  0
    7.0353  -12.1490   25.5557 C   0  0  0  0  0  0  0  0  0  0  0  0
    7.7543  -13.2616   25.1081 C   0  0  0  0  0  0  0  0  0  0  0  0
    8.1835  -14.1930   26.0228 C   0  0  0  0  0  0  0  0  0  0  0  0
    8.9411  -15.3661   25.5599 C   0  0  2  0  0  0  0  0  0  0  0  0
   10.1126  -15.7100   26.4277 N   0  0  0  0  0  0  0  0  0  0  0  0
   10.8214  -16.8549   25.9101 C   0  0  0  0  0  0  0  0  0  0  0  0
    9.6595  -15.9424   27.8371 O   0  0  0  0  0  0  0  0  0  0  0  0
    9.4523  -17.2216   28.2875 C   0  0  0  0  0  0  0  0  0  0  0  0
    7.8832  -13.9893   27.3665 C   0  0  0  0  0  0  0  0  0  0  0  0
    7.1772  -12.9004   27.8235 O   0  0  0  0  0  0  0  0  0  0  0  0
  2  3  2  0
  2  1  1  0
  4  2  1  0
  5  4  1  0
  6  5  1  0
  7  6  1  0
  8  7  1  0
  8  9  1  1
 10 11  2  0
 10  8  1  0
 12 10  1  0
 13 17  1  0
 13 12  1  0
 13 14  1  1
 15 16  2  0
 15 14  1  0
 17 18  2  0
 19 15  1  0
 20 21  1  0
 21 31  2  0
 22 23  2  0
 22 21  1  0
 23 24  1  0
 24 25  1  0
 24 30  2  0
 26 25  1  6
 27 26  1  0
 27 17  1  0
 28 26  1  0
 29 28  1  0
 31 30  1  0
 32 28  2  0
M  END
$$$$
