RDY.pdb
     RDKit          3D

 32 32  0  0  1  0  0  0  0  0999 V2000
    7.7116  -14.7766   18.0887 N   0  0  0  0  0  0  0  0  0  0  0  0
    7.7848  -13.3602   18.1060 C   0  0  0  0  0  0  0  0  0  0  0  0
    8.1708  -12.6614   17.0613 N   0  0  0  0  0  0  0  0  0  0  0  0
    7.4620  -12.5887   19.2446 N   0  0  0  0  0  0  0  0  0  0  0  0
    7.2539  -13.1398   20.5535 C   0  0  0  0  0  0  0  0  0  0  0  0
    7.2233  -14.6241   20.6302 C   0  0  0  0  0  0  0  0  0  0  0  0
    8.5065  -15.3455   20.7205 C   0  0  0  0  0  0  0  0  0  0  0  0
    8.4311  -16.8254   20.9111 C   0  0  2  0  0  0  0  0  0  0  0  0
    7.0524  -17.3016   20.9117 N   0  0  0  0  0  0  0  0  0  0  0  0
    9.0973  -17.2571   22.1700 C   0  0  0  0  0  0  0  0  0  0  0  0
    8.4812  -17.7471   23.1473 O   0  0  0  0  0  0  0  0  0  0  0  0
    8.2382  -11.6345   17.2149 N   0  0  0  0  0  0  0  0  0  0  0  0
   10.5263  -17.1281   22.3292 C   0  0  2  0  0  0  0  0  0  0  0  0
   11.1751  -17.5999   23.5354 C   0  0  0  0  0  0  0  0  0  0  0  0
   12.6562  -17.6912   23.2712 C   0  0  0  0  0  0  0  0  0  0  0  0
   13.4011  -18.3003   24.3942 O   0  0  0  0  0  0  0  0  0  0  0  0
   12.8793  -18.9070   25.3597 C   0  0  0  0  0  0  0  0  0  0  0  0
   10.8677  -16.6741   24.6658 O   0  0  0  0  0  0  0  0  0  0  0  0
   10.5289  -15.4877   24.4233 O   0  0  0  0  0  0  0  0  0  0  0  0
   14.8079  -18.2175   24.4240 O   0  0  0  0  0  0  0  0  0  0  0  0
    6.3714  -11.4759   25.8511 C   0  0  0  0  0  0  0  0  0  0  0  0
    6.9410  -12.7360   26.0747 C   0  0  0  0  0  0  0  0  0  0  0  0
    6.1797  -13.8826   26.0177 C   0  0  0  0  0  0  0  0  0  0  0  0
    6.7470  -15.1411   26.2405 C   0  0  0  0  0  0  0  0  0  0  0  0
    8.0892  -15.2297   26.5215 C   0  0  0  0  0  0  0  0  0  0  0  0
    8.6938  -16.5501   26.7567 C   0  0  2  0  0  0  0  0  0  0  0  0
   10.1560  -16.4971   27.0770 N   0  0  0  0  0  0  0  0  0  0  0  0
   10.9402  -17.0726   26.0118 C   0  0  0  0  0  0  0  0  0  0  0  0
   10.4231  -17.1846   28.3816 O   0  0  0  0  0  0  0  0  0  0  0  0
   10.1091  -16.5595   29.5617 C   0  0  0  0  0  0  0  0  0  0  0  0
    8.8343  -14.0552   26.5728 C   0  0  0  0  0  0  0  0  0  0  0  0
    8.2919  -12.8095   26.3559 O   0  0  0  0  0  0  0  0  0  0  0  0
  2  3  2  0
  2  1  1  0
  4  2  1  0
  5  4  1  0
  6  5  1  0
  7  6  1  0
  8  7  1  0
  8  9  1  1
 10 11  2  0
 10  8  1  0
 12 10  1  0
 13 17  1  0
 13 12  1  0
 13 14  1  6
 15 16  2  0
 15 14  1  0
 17 18  2  0
 19 15  1  0
 20 21  1  0
 21 31  2  0
 22 23  2  0
 22 21  1  0
 23 24  1  0
 24 25  1  0
 24 30  2  0
 26 25  1  6
 27 26  1  0
 27 17  1  0
 28 26  1  0
 29 28  1  0
 31 30  1  0
 32 28  2  0
M  END
$$$$
