WGR.pdb
     RDKit          3D

 30 31  0  0  1  0  0  0  0  0999 V2000
   28.1203  -22.3870  -10.1954 N   0  0  0  0  0  0  0  0  0  0  0  0
   27.2683  -21.2400   -9.8647 C   0  0  1  0  0  0  0  0  0  0  0  0
   28.0338  -20.0620   -9.3745 C   0  0  0  0  0  0  0  0  0  0  0  0
   28.7793  -20.4323   -8.1500 C   0  0  0  0  0  0  0  0  0  0  0  0
   29.9157  -21.1906   -7.9984 C   0  0  0  0  0  0  0  0  0  0  0  0
   30.2831  -21.2516   -6.7158 N   0  0  0  0  0  0  0  0  0  0  0  0
   29.3682  -20.5204   -6.0248 C   0  0  0  0  0  0  0  0  0  0  0  0
   29.2606  -20.2377   -4.6772 C   0  0  0  0  0  0  0  0  0  0  0  0
   28.2453  -19.4592   -4.1856 C   0  0  0  0  0  0  0  0  0  0  0  0
   27.3128  -18.9492   -5.0543 C   0  0  0  0  0  0  0  0  0  0  0  0
   27.3890  -19.2102   -6.3969 C   0  0  0  0  0  0  0  0  0  0  0  0
   28.4293  -20.0039   -6.8826 C   0  0  0  0  0  0  0  0  0  0  0  0
   26.5293  -20.8351  -11.1129 C   0  0  0  0  0  0  0  0  0  0  0  0
   27.0636  -20.5036  -12.1875 O   0  0  0  0  0  0  0  0  0  0  0  0
   25.0950  -20.8327  -11.0418 N   0  0  0  0  0  0  0  0  0  0  0  0
   24.3649  -20.3815  -12.1903 C   0  0  0  0  0  0  0  0  0  0  0  0
   22.9151  -20.3190  -12.0604 C   0  0  0  0  0  0  0  0  0  0  0  0
   22.3835  -19.1527  -11.9561 O   0  0  0  0  0  0  0  0  0  0  0  0
   23.9022  -23.8572  -16.3586 N   0  0  0  0  0  0  0  0  0  0  0  0
   23.8382  -24.0774  -14.9562 C   0  0  0  0  0  0  0  0  0  0  0  0
   24.9255  -24.5552  -14.4197 N   0  0  0  0  0  0  0  0  0  0  0  0
   22.6703  -23.7921  -14.2086 N   0  0  0  0  0  0  0  0  0  0  0  0
   21.5409  -23.1268  -14.8267 C   0  0  0  0  0  0  0  0  0  0  0  0
   21.6084  -21.6235  -14.6037 C   0  0  0  0  0  0  0  0  0  0  0  0
   20.4299  -21.1215  -13.8273 C   0  0  0  0  0  0  0  0  0  0  0  0
   20.6305  -21.3505  -12.3726 C   0  0  2  0  0  0  0  0  0  0  0  0
   22.0658  -21.4435  -12.0378 N   0  0  0  0  0  0  0  0  0  0  0  0
   19.9398  -22.5920  -11.9027 C   0  0  0  0  0  0  0  0  0  0  0  0
   20.6283  -23.5689  -11.5747 O   0  0  0  0  0  0  0  0  0  0  0  0
   18.5687  -22.6658  -11.8309 O   0  0  0  0  0  0  0  0  0  0  0  0
  2  1  1  6
  2  3  1  0
  3  4  1  0
  4 12  1  0
  4  5  2  0
  5  6  1  0
  7  8  2  0
  7  6  1  0
  9  8  1  0
 10  9  2  0
 11 10  1  0
 11 12  2  0
 12  7  1  0
 13 14  2  0
 13  2  1  0
 15 13  1  0
 16 15  1  0
 17 16  1  0
 18 17  2  0
 20 19  1  0
 21 20  2  0
 22 20  1  0
 23 24  1  0
 23 22  1  0
 26 25  1  6
 25 24  1  0
 26 27  1  0
 27 17  1  0
 28 26  1  0
 29 28  2  0
 30 28  1  0
M  END
$$$$
