WGR.pdb
     RDKit          3D

 30 31  0  0  1  0  0  0  0  0999 V2000
   17.9362  -24.0589  -15.5516 N   0  0  0  0  0  0  0  0  0  0  0  0
   16.8051  -23.1270  -15.4948 C   0  0  1  0  0  0  0  0  0  0  0  0
   16.4298  -22.5774  -16.8256 C   0  0  0  0  0  0  0  0  0  0  0  0
   17.6058  -21.9171  -17.4366 C   0  0  0  0  0  0  0  0  0  0  0  0
   18.6034  -22.4359  -18.2270 C   0  0  0  0  0  0  0  0  0  0  0  0
   19.4626  -21.4839  -18.6001 N   0  0  0  0  0  0  0  0  0  0  0  0
   19.0136  -20.3285  -18.0410 C   0  0  0  0  0  0  0  0  0  0  0  0
   19.5057  -19.0393  -18.0987 C   0  0  0  0  0  0  0  0  0  0  0  0
   18.8812  -18.0029  -17.4549 C   0  0  0  0  0  0  0  0  0  0  0  0
   17.7396  -18.2533  -16.7351 C   0  0  0  0  0  0  0  0  0  0  0  0
   17.2245  -19.5201  -16.6561 C   0  0  0  0  0  0  0  0  0  0  0  0
   17.8711  -20.5651  -17.3179 C   0  0  0  0  0  0  0  0  0  0  0  0
   15.6184  -23.8703  -14.9406 C   0  0  0  0  0  0  0  0  0  0  0  0
   14.4797  -23.3910  -14.7860 O   0  0  0  0  0  0  0  0  0  0  0  0
   15.8333  -25.2387  -14.5614 N   0  0  0  0  0  0  0  0  0  0  0  0
   14.7236  -25.9705  -14.0241 C   0  0  0  0  0  0  0  0  0  0  0  0
   14.7180  -26.1850  -12.5830 C   0  0  0  0  0  0  0  0  0  0  0  0
   13.7108  -26.8107  -12.0853 O   0  0  0  0  0  0  0  0  0  0  0  0
   17.7328  -24.8142   -5.5710 N   0  0  0  0  0  0  0  0  0  0  0  0
   17.7286  -26.2015   -5.2638 C   0  0  0  0  0  0  0  0  0  0  0  0
   17.3112  -26.5031   -4.0667 N   0  0  0  0  0  0  0  0  0  0  0  0
   18.1496  -27.1748   -6.2018 N   0  0  0  0  0  0  0  0  0  0  0  0
   18.2764  -26.8416   -7.6065 C   0  0  0  0  0  0  0  0  0  0  0  0
   16.9182  -26.5223   -8.2129 C   0  0  0  0  0  0  0  0  0  0  0  0
   17.0092  -26.2814   -9.6885 C   0  0  0  0  0  0  0  0  0  0  0  0
   15.6656  -25.9843  -10.2501 C   0  0  2  0  0  0  0  0  0  0  0  0
   15.7333  -25.7518  -11.7069 N   0  0  0  0  0  0  0  0  0  0  0  0
   15.0383  -24.7936   -9.5960 C   0  0  0  0  0  0  0  0  0  0  0  0
   15.0934  -23.6986  -10.1736 O   0  0  0  0  0  0  0  0  0  0  0  0
   14.4095  -24.8939   -8.3773 O   0  0  0  0  0  0  0  0  0  0  0  0
  2  1  1  6
  2  3  1  0
  3  4  1  0
  4 12  1  0
  4  5  2  0
  5  6  1  0
  7  8  2  0
  7  6  1  0
  9  8  1  0
 10  9  2  0
 11 10  1  0
 11 12  2  0
 12  7  1  0
 13 14  2  0
 13  2  1  0
 15 13  1  0
 16 15  1  0
 17 16  1  0
 18 17  2  0
 20 19  1  0
 21 20  2  0
 22 20  1  0
 23 24  1  0
 23 22  1  0
 26 25  1  1
 25 24  1  0
 26 27  1  0
 27 17  1  0
 28 26  1  0
 29 28  2  0
 30 28  1  0
M  END
$$$$
