WGR.pdb
     RDKit          3D

 30 31  0  0  1  0  0  0  0  0999 V2000
   28.4127  -21.6043  -10.3732 N   0  0  0  0  0  0  0  0  0  0  0  0
   27.0513  -21.3722   -9.8794 C   0  0  1  0  0  0  0  0  0  0  0  0
   26.9888  -20.3758   -8.7761 C   0  0  0  0  0  0  0  0  0  0  0  0
   28.1799  -20.5236   -7.9092 C   0  0  0  0  0  0  0  0  0  0  0  0
   29.3425  -21.2284   -8.1114 C   0  0  0  0  0  0  0  0  0  0  0  0
   30.1845  -21.0672   -7.0873 N   0  0  0  0  0  0  0  0  0  0  0  0
   29.5558  -20.2440   -6.2063 C   0  0  0  0  0  0  0  0  0  0  0  0
   29.9598  -19.7402   -4.9855 C   0  0  0  0  0  0  0  0  0  0  0  0
   29.1573  -18.9054   -4.2521 C   0  0  0  0  0  0  0  0  0  0  0  0
   27.9222  -18.5629   -4.7433 C   0  0  0  0  0  0  0  0  0  0  0  0
   27.4896  -19.0449   -5.9504 C   0  0  0  0  0  0  0  0  0  0  0  0
   28.3185  -19.8933   -6.6861 C   0  0  0  0  0  0  0  0  0  0  0  0
   26.2227  -20.8572  -11.0266 C   0  0  0  0  0  0  0  0  0  0  0  0
   26.6525  -20.6124  -12.1692 O   0  0  0  0  0  0  0  0  0  0  0  0
   24.8285  -20.6320  -10.7659 N   0  0  0  0  0  0  0  0  0  0  0  0
   23.8940  -20.9071  -11.8180 C   0  0  0  0  0  0  0  0  0  0  0  0
   22.4967  -20.5934  -11.5500 C   0  0  0  0  0  0  0  0  0  0  0  0
   22.1906  -20.2506  -10.3489 O   0  0  0  0  0  0  0  0  0  0  0  0
   23.2516  -19.9917  -16.4931 N   0  0  0  0  0  0  0  0  0  0  0  0
   22.2855  -18.9645  -16.6679 C   0  0  0  0  0  0  0  0  0  0  0  0
   22.6350  -18.0069  -17.4797 N   0  0  0  0  0  0  0  0  0  0  0  0
   21.0365  -18.9936  -16.0020 N   0  0  0  0  0  0  0  0  0  0  0  0
   20.9431  -19.4346  -14.6246 C   0  0  0  0  0  0  0  0  0  0  0  0
   19.5000  -19.4096  -14.1438 C   0  0  0  0  0  0  0  0  0  0  0  0
   19.1628  -20.6206  -13.3293 C   0  0  0  0  0  0  0  0  0  0  0  0
   20.0415  -20.7035  -12.1335 C   0  0  2  0  0  0  0  0  0  0  0  0
   21.4678  -20.6446  -12.5117 N   0  0  0  0  0  0  0  0  0  0  0  0
   19.7978  -21.9534  -11.3476 C   0  0  0  0  0  0  0  0  0  0  0  0
   20.4463  -22.9708  -11.6303 O   0  0  0  0  0  0  0  0  0  0  0  0
   18.8751  -21.9908  -10.3289 O   0  0  0  0  0  0  0  0  0  0  0  0
  2  1  1  6
  2  3  1  0
  3  4  1  0
  4 12  1  0
  4  5  2  0
  5  6  1  0
  7  8  2  0
  7  6  1  0
  9  8  1  0
 10  9  2  0
 11 10  1  0
 11 12  2  0
 12  7  1  0
 13 14  2  0
 13  2  1  0
 15 13  1  0
 16 15  1  0
 17 16  1  0
 18 17  2  0
 20 19  1  0
 21 20  2  0
 22 20  1  0
 23 24  1  0
 23 22  1  0
 26 25  1  6
 25 24  1  0
 26 27  1  0
 27 17  1  0
 28 26  1  0
 29 28  2  0
 30 28  1  0
M  END
$$$$
