WGR.pdb
     RDKit          3D

 30 31  0  0  1  0  0  0  0  0999 V2000
   26.5433  -22.5475  -11.3965 N   0  0  0  0  0  0  0  0  0  0  0  0
   26.0250  -21.2238  -11.0356 C   0  0  1  0  0  0  0  0  0  0  0  0
   27.0685  -20.1630  -11.0417 C   0  0  0  0  0  0  0  0  0  0  0  0
   28.0847  -20.4641  -10.0078 C   0  0  0  0  0  0  0  0  0  0  0  0
   29.3308  -21.0315  -10.1274 C   0  0  0  0  0  0  0  0  0  0  0  0
   29.9448  -21.0928   -8.9428 N   0  0  0  0  0  0  0  0  0  0  0  0
   29.0806  -20.5560   -8.0404 C   0  0  0  0  0  0  0  0  0  0  0  0
   29.1945  -20.3599   -6.6781 C   0  0  0  0  0  0  0  0  0  0  0  0
   28.1871  -19.7835   -5.9489 C   0  0  0  0  0  0  0  0  0  0  0  0
   27.0375  -19.3926   -6.5889 C   0  0  0  0  0  0  0  0  0  0  0  0
   26.8908  -19.5728   -7.9389 C   0  0  0  0  0  0  0  0  0  0  0  0
   27.9258  -20.1603   -8.6681 C   0  0  0  0  0  0  0  0  0  0  0  0
   24.9671  -20.8495  -12.0400 C   0  0  0  0  0  0  0  0  0  0  0  0
   25.0649  -20.9940  -13.2727 O   0  0  0  0  0  0  0  0  0  0  0  0
   23.7564  -20.2786  -11.5199 N   0  0  0  0  0  0  0  0  0  0  0  0
   22.7386  -19.8935  -12.4534 C   0  0  0  0  0  0  0  0  0  0  0  0
   21.8361  -20.9436  -12.9068 C   0  0  0  0  0  0  0  0  0  0  0  0
   22.2813  -21.7581  -13.7969 O   0  0  0  0  0  0  0  0  0  0  0  0
   18.9428  -24.2260   -7.2005 N   0  0  0  0  0  0  0  0  0  0  0  0
   18.2809  -24.9413   -8.2346 C   0  0  0  0  0  0  0  0  0  0  0  0
   17.1233  -25.4432   -7.9085 N   0  0  0  0  0  0  0  0  0  0  0  0
   18.8502  -25.0888   -9.5224 N   0  0  0  0  0  0  0  0  0  0  0  0
   20.0914  -24.4225   -9.8628 C   0  0  0  0  0  0  0  0  0  0  0  0
   19.8271  -23.1722  -10.6881 C   0  0  0  0  0  0  0  0  0  0  0  0
   19.8562  -23.4581  -12.1582 C   0  0  0  0  0  0  0  0  0  0  0  0
   19.6494  -22.2079  -12.9347 C   0  0  2  0  0  0  0  0  0  0  0  0
   20.5179  -21.1205  -12.4407 N   0  0  0  0  0  0  0  0  0  0  0  0
   18.2250  -21.7517  -12.8889 C   0  0  0  0  0  0  0  0  0  0  0  0
   17.9588  -20.6864  -12.3144 O   0  0  0  0  0  0  0  0  0  0  0  0
   17.2178  -22.4882  -13.4666 O   0  0  0  0  0  0  0  0  0  0  0  0
  2  1  1  6
  2  3  1  0
  3  4  1  0
  4 12  1  0
  4  5  2  0
  5  6  1  0
  7  8  2  0
  7  6  1  0
  9  8  1  0
 10  9  2  0
 11 10  1  0
 11 12  2  0
 12  7  1  0
 13 14  2  0
 13  2  1  0
 15 13  1  0
 16 15  1  0
 17 16  1  0
 18 17  2  0
 20 19  1  0
 21 20  2  0
 22 20  1  0
 23 24  1  0
 23 22  1  0
 26 25  1  1
 25 24  1  0
 26 27  1  0
 27 17  1  0
 28 26  1  0
 29 28  2  0
 30 28  1  0
M  END
$$$$
