WGR.pdb
     RDKit          3D

 30 31  0  0  1  0  0  0  0  0999 V2000
   16.4001  -25.7532   -7.8092 N   0  0  0  0  0  0  0  0  0  0  0  0
   17.5152  -25.1378   -7.0820 C   0  0  1  0  0  0  0  0  0  0  0  0
   18.1231  -26.0397   -6.0666 C   0  0  0  0  0  0  0  0  0  0  0  0
   17.0650  -26.5576   -5.1696 C   0  0  0  0  0  0  0  0  0  0  0  0
   16.6825  -27.8505   -4.9028 C   0  0  0  0  0  0  0  0  0  0  0  0
   15.7005  -27.8824   -3.9981 N   0  0  0  0  0  0  0  0  0  0  0  0
   15.4424  -26.5872   -3.6739 C   0  0  0  0  0  0  0  0  0  0  0  0
   14.5356  -26.0344   -2.7910 C   0  0  0  0  0  0  0  0  0  0  0  0
   14.4455  -24.6789   -2.6089 C   0  0  0  0  0  0  0  0  0  0  0  0
   15.2767  -23.8515   -3.3223 C   0  0  0  0  0  0  0  0  0  0  0  0
   16.1873  -24.3661   -4.2068 C   0  0  0  0  0  0  0  0  0  0  0  0
   16.2678  -25.7486   -4.3807 C   0  0  0  0  0  0  0  0  0  0  0  0
   18.5783  -24.7729   -8.0843 C   0  0  0  0  0  0  0  0  0  0  0  0
   19.7699  -24.5354   -7.8123 O   0  0  0  0  0  0  0  0  0  0  0  0
   18.1694  -24.6928   -9.4587 N   0  0  0  0  0  0  0  0  0  0  0  0
   19.1571  -24.3368  -10.4351 C   0  0  0  0  0  0  0  0  0  0  0  0
   19.3137  -25.2411  -11.5666 C   0  0  0  0  0  0  0  0  0  0  0  0
   18.6438  -26.3386  -11.5397 O   0  0  0  0  0  0  0  0  0  0  0  0
   24.9051  -24.6380  -13.9568 N   0  0  0  0  0  0  0  0  0  0  0  0
   24.6398  -24.1868  -15.2778 C   0  0  0  0  0  0  0  0  0  0  0  0
   25.5322  -24.5200  -16.1672 N   0  0  0  0  0  0  0  0  0  0  0  0
   23.4841  -23.4313  -15.5904 N   0  0  0  0  0  0  0  0  0  0  0  0
   22.4118  -23.2873  -14.6262 C   0  0  0  0  0  0  0  0  0  0  0  0
   21.1669  -24.0321  -15.0841 C   0  0  0  0  0  0  0  0  0  0  0  0
   21.2576  -25.4993  -14.7964 C   0  0  0  0  0  0  0  0  0  0  0  0
   20.1982  -25.9070  -13.8371 C   0  0  2  0  0  0  0  0  0  0  0  0
   20.1469  -24.9954  -12.6764 N   0  0  0  0  0  0  0  0  0  0  0  0
   20.3974  -27.3070  -13.3477 C   0  0  0  0  0  0  0  0  0  0  0  0
   21.1002  -27.4930  -12.3441 O   0  0  0  0  0  0  0  0  0  0  0  0
   19.8204  -28.3786  -13.9875 O   0  0  0  0  0  0  0  0  0  0  0  0
  2  1  1  6
  2  3  1  0
  3  4  1  0
  4 12  1  0
  4  5  2  0
  5  6  1  0
  7  8  2  0
  7  6  1  0
  9  8  1  0
 10  9  2  0
 11 10  1  0
 11 12  2  0
 12  7  1  0
 13 14  2  0
 13  2  1  0
 15 13  1  0
 16 15  1  0
 17 16  1  0
 18 17  2  0
 20 19  1  0
 21 20  2  0
 22 20  1  0
 23 24  1  0
 23 22  1  0
 26 25  1  6
 25 24  1  0
 26 27  1  0
 27 17  1  0
 28 26  1  0
 29 28  2  0
 30 28  1  0
M  END
$$$$
