WGR.pdb
     RDKit          3D

 30 31  0  0  1  0  0  0  0  0999 V2000
   25.4252  -20.2036   -9.7138 N   0  0  0  0  0  0  0  0  0  0  0  0
   26.8650  -20.4408   -9.8615 C   0  0  1  0  0  0  0  0  0  0  0  0
   27.4605  -21.1727   -8.7110 C   0  0  0  0  0  0  0  0  0  0  0  0
   27.3804  -20.3310   -7.4955 C   0  0  0  0  0  0  0  0  0  0  0  0
   26.3789  -19.4976   -7.0579 C   0  0  0  0  0  0  0  0  0  0  0  0
   26.6938  -18.9463   -5.8829 N   0  0  0  0  0  0  0  0  0  0  0  0
   27.9211  -19.4311   -5.5542 C   0  0  0  0  0  0  0  0  0  0  0  0
   28.7221  -19.2060   -4.4519 C   0  0  0  0  0  0  0  0  0  0  0  0
   29.9427  -19.8143   -4.3149 C   0  0  0  0  0  0  0  0  0  0  0  0
   30.3790  -20.6673   -5.2979 C   0  0  0  0  0  0  0  0  0  0  0  0
   29.6103  -20.9127   -6.4049 C   0  0  0  0  0  0  0  0  0  0  0  0
   28.3692  -20.2865   -6.5297 C   0  0  0  0  0  0  0  0  0  0  0  0
   27.0747  -21.2657  -11.1039 C   0  0  0  0  0  0  0  0  0  0  0  0
   26.1900  -21.9151  -11.6919 O   0  0  0  0  0  0  0  0  0  0  0  0
   28.4069  -21.2991  -11.6393 N   0  0  0  0  0  0  0  0  0  0  0  0
   28.6423  -20.6561  -12.8990 C   0  0  0  0  0  0  0  0  0  0  0  0
   27.7833  -21.0534  -14.0066 C   0  0  0  0  0  0  0  0  0  0  0  0
   28.2937  -21.8255  -14.8994 O   0  0  0  0  0  0  0  0  0  0  0  0
   20.9532  -22.2406  -11.9677 N   0  0  0  0  0  0  0  0  0  0  0  0
   21.0061  -21.5150  -13.1883 C   0  0  0  0  0  0  0  0  0  0  0  0
   20.0151  -20.6925  -13.3880 N   0  0  0  0  0  0  0  0  0  0  0  0
   22.0666  -21.6833  -14.1111 N   0  0  0  0  0  0  0  0  0  0  0  0
   22.8828  -22.8806  -14.0891 C   0  0  0  0  0  0  0  0  0  0  0  0
   24.3487  -22.5338  -13.8769 C   0  0  0  0  0  0  0  0  0  0  0  0
   25.0865  -22.4132  -15.1749 C   0  0  0  0  0  0  0  0  0  0  0  0
   25.6349  -21.0412  -15.3352 C   0  0  2  0  0  0  0  0  0  0  0  0
   26.4430  -20.6470  -14.1637 N   0  0  0  0  0  0  0  0  0  0  0  0
   24.5529  -20.0286  -15.5429 C   0  0  0  0  0  0  0  0  0  0  0  0
   23.8869  -20.0741  -16.5870 O   0  0  0  0  0  0  0  0  0  0  0  0
   24.2897  -19.0585  -14.6047 O   0  0  0  0  0  0  0  0  0  0  0  0
  2  1  1  1
  2  3  1  0
  3  4  1  0
  4 12  1  0
  4  5  2  0
  5  6  1  0
  7  8  2  0
  7  6  1  0
  9  8  1  0
 10  9  2  0
 11 10  1  0
 11 12  2  0
 12  7  1  0
 13 14  2  0
 13  2  1  0
 15 13  1  0
 16 15  1  0
 17 16  1  0
 18 17  2  0
 20 19  1  0
 21 20  2  0
 22 20  1  0
 23 24  1  0
 23 22  1  0
 26 25  1  1
 25 24  1  0
 26 27  1  0
 27 17  1  0
 28 26  1  0
 29 28  2  0
 30 28  1  0
M  END
$$$$
