WGR.pdb
     RDKit          3D

 30 31  0  0  1  0  0  0  0  0999 V2000
   28.5591  -22.7637  -10.0096 N   0  0  0  0  0  0  0  0  0  0  0  0
   27.7403  -21.5726   -9.7609 C   0  0  1  0  0  0  0  0  0  0  0  0
   28.5388  -20.3874   -9.3466 C   0  0  0  0  0  0  0  0  0  0  0  0
   29.2664  -20.6954   -8.0944 C   0  0  0  0  0  0  0  0  0  0  0  0
   30.4929  -21.2857   -7.9033 C   0  0  0  0  0  0  0  0  0  0  0  0
   30.7984  -21.3454   -6.6045 N   0  0  0  0  0  0  0  0  0  0  0  0
   29.7510  -20.7844   -5.9431 C   0  0  0  0  0  0  0  0  0  0  0  0
   29.5333  -20.5763   -4.5952 C   0  0  0  0  0  0  0  0  0  0  0  0
   28.3900  -19.9749   -4.1370 C   0  0  0  0  0  0  0  0  0  0  0  0
   27.4387  -19.5706   -5.0402 C   0  0  0  0  0  0  0  0  0  0  0  0
   27.6220  -19.7621   -6.3841 C   0  0  0  0  0  0  0  0  0  0  0  0
   28.7918  -20.3751   -6.8356 C   0  0  0  0  0  0  0  0  0  0  0  0
   27.0179  -21.2309  -11.0374 C   0  0  0  0  0  0  0  0  0  0  0  0
   27.5146  -21.2793  -12.1780 O   0  0  0  0  0  0  0  0  0  0  0  0
   25.6492  -20.8144  -10.9128 N   0  0  0  0  0  0  0  0  0  0  0  0
   24.7562  -21.1040  -11.9966 C   0  0  0  0  0  0  0  0  0  0  0  0
   23.4003  -20.5830  -11.8837 C   0  0  0  0  0  0  0  0  0  0  0  0
   22.9211  -20.4420  -10.6987 O   0  0  0  0  0  0  0  0  0  0  0  0
   19.0274  -22.0200  -18.5742 N   0  0  0  0  0  0  0  0  0  0  0  0
   18.1160  -21.5490  -17.5910 C   0  0  0  0  0  0  0  0  0  0  0  0
   16.8851  -21.9511  -17.7378 N   0  0  0  0  0  0  0  0  0  0  0  0
   18.5305  -20.7047  -16.5328 N   0  0  0  0  0  0  0  0  0  0  0  0
   19.9183  -20.3075  -16.4041 C   0  0  0  0  0  0  0  0  0  0  0  0
   20.4677  -20.6910  -15.0384 C   0  0  0  0  0  0  0  0  0  0  0  0
   20.5441  -19.5123  -14.1172 C   0  0  0  0  0  0  0  0  0  0  0  0
   21.1544  -19.9053  -12.8203 C   0  0  2  0  0  0  0  0  0  0  0  0
   22.5861  -20.2307  -12.9787 N   0  0  0  0  0  0  0  0  0  0  0  0
   20.4543  -21.0767  -12.2063 C   0  0  0  0  0  0  0  0  0  0  0  0
   20.9286  -22.2092  -12.3742 O   0  0  0  0  0  0  0  0  0  0  0  0
   19.3052  -20.9184  -11.4680 O   0  0  0  0  0  0  0  0  0  0  0  0
  2  1  1  6
  2  3  1  0
  3  4  1  0
  4 12  1  0
  4  5  2  0
  5  6  1  0
  7  8  2  0
  7  6  1  0
  9  8  1  0
 10  9  2  0
 11 10  1  0
 11 12  2  0
 12  7  1  0
 13 14  2  0
 13  2  1  0
 15 13  1  0
 16 15  1  0
 17 16  1  0
 18 17  2  0
 20 19  1  0
 21 20  2  0
 22 20  1  0
 23 24  1  0
 23 22  1  0
 26 25  1  6
 25 24  1  0
 26 27  1  0
 27 17  1  0
 28 26  1  0
 29 28  2  0
 30 28  1  0
M  END
$$$$
