WGR.pdb
     RDKit          3D

 30 31  0  0  1  0  0  0  0  0999 V2000
   28.4107  -22.4210  -10.1334 N   0  0  0  0  0  0  0  0  0  0  0  0
   27.4269  -21.3736   -9.8402 C   0  0  1  0  0  0  0  0  0  0  0  0
   28.0459  -20.0886   -9.4165 C   0  0  0  0  0  0  0  0  0  0  0  0
   28.8262  -20.3017   -8.1763 C   0  0  0  0  0  0  0  0  0  0  0  0
   30.1041  -20.7771   -8.0028 C   0  0  0  0  0  0  0  0  0  0  0  0
   30.4431  -20.7789   -6.7109 N   0  0  0  0  0  0  0  0  0  0  0  0
   29.3654  -20.2968   -6.0362 C   0  0  0  0  0  0  0  0  0  0  0  0
   29.1607  -20.0767   -4.6881 C   0  0  0  0  0  0  0  0  0  0  0  0
   27.9794  -19.5676   -4.2149 C   0  0  0  0  0  0  0  0  0  0  0  0
   26.9758  -19.2701   -5.1029 C   0  0  0  0  0  0  0  0  0  0  0  0
   27.1448  -19.4765   -6.4465 C   0  0  0  0  0  0  0  0  0  0  0  0
   28.3538  -19.9947   -6.9134 C   0  0  0  0  0  0  0  0  0  0  0  0
   26.6294  -21.1217  -11.0926 C   0  0  0  0  0  0  0  0  0  0  0  0
   27.0984  -21.0771  -12.2451 O   0  0  0  0  0  0  0  0  0  0  0  0
   25.2178  -20.9147  -10.9284 N   0  0  0  0  0  0  0  0  0  0  0  0
   24.4081  -20.8303  -12.1086 C   0  0  0  0  0  0  0  0  0  0  0  0
   22.9944  -20.5379  -11.9122 C   0  0  0  0  0  0  0  0  0  0  0  0
   22.5797  -20.4260  -10.7000 O   0  0  0  0  0  0  0  0  0  0  0  0
   20.5083  -17.2665  -17.5250 N   0  0  0  0  0  0  0  0  0  0  0  0
   21.6461  -17.2509  -16.6740 C   0  0  0  0  0  0  0  0  0  0  0  0
   22.7681  -17.5932  -17.2419 N   0  0  0  0  0  0  0  0  0  0  0  0
   21.5524  -16.8862  -15.3093 N   0  0  0  0  0  0  0  0  0  0  0  0
   20.7983  -17.6998  -14.3767 C   0  0  0  0  0  0  0  0  0  0  0  0
   20.6779  -19.1306  -14.8795 C   0  0  0  0  0  0  0  0  0  0  0  0
   19.8627  -19.9801  -13.9536 C   0  0  0  0  0  0  0  0  0  0  0  0
   20.6115  -20.2456  -12.6976 C   0  0  2  0  0  0  0  0  0  0  0  0
   22.0599  -20.3752  -12.9545 N   0  0  0  0  0  0  0  0  0  0  0  0
   20.1267  -21.4831  -12.0099 C   0  0  0  0  0  0  0  0  0  0  0  0
   20.7009  -22.5567  -12.2406 O   0  0  0  0  0  0  0  0  0  0  0  0
   19.0651  -21.4484  -11.1367 O   0  0  0  0  0  0  0  0  0  0  0  0
  2  1  1  6
  2  3  1  0
  3  4  1  0
  4 12  1  0
  4  5  2  0
  5  6  1  0
  7  8  2  0
  7  6  1  0
  9  8  1  0
 10  9  2  0
 11 10  1  0
 11 12  2  0
 12  7  1  0
 13 14  2  0
 13  2  1  0
 15 13  1  0
 16 15  1  0
 17 16  1  0
 18 17  2  0
 20 19  1  0
 21 20  2  0
 22 20  1  0
 23 24  1  0
 23 22  1  0
 26 25  1  6
 25 24  1  0
 26 27  1  0
 27 17  1  0
 28 26  1  0
 29 28  2  0
 30 28  1  0
M  END
$$$$
