WGR.pdb
     RDKit          3D

 30 31  0  0  1  0  0  0  0  0999 V2000
   25.2752  -20.4285   -9.5774 N   0  0  0  0  0  0  0  0  0  0  0  0
   26.7370  -20.5165   -9.4967 C   0  0  1  0  0  0  0  0  0  0  0  0
   27.2199  -21.1130   -8.2220 C   0  0  0  0  0  0  0  0  0  0  0  0
   27.3919  -20.0451   -7.2110 C   0  0  0  0  0  0  0  0  0  0  0  0
   26.7221  -18.8551   -7.0548 C   0  0  0  0  0  0  0  0  0  0  0  0
   27.1671  -18.1921   -5.9842 N   0  0  0  0  0  0  0  0  0  0  0  0
   28.1425  -18.9663   -5.4380 C   0  0  0  0  0  0  0  0  0  0  0  0
   28.9348  -18.7780   -4.3225 C   0  0  0  0  0  0  0  0  0  0  0  0
   29.8681  -19.7060   -3.9396 C   0  0  0  0  0  0  0  0  0  0  0  0
   30.0187  -20.8494   -4.6839 C   0  0  0  0  0  0  0  0  0  0  0  0
   29.2501  -21.0680   -5.7965 C   0  0  0  0  0  0  0  0  0  0  0  0
   28.3032  -20.1143   -6.1732 C   0  0  0  0  0  0  0  0  0  0  0  0
   27.2134  -21.3831  -10.6325 C   0  0  0  0  0  0  0  0  0  0  0  0
   26.8852  -22.5700  -10.8161 O   0  0  0  0  0  0  0  0  0  0  0  0
   28.1208  -20.7799  -11.5680 N   0  0  0  0  0  0  0  0  0  0  0  0
   27.5682  -19.9774  -12.6198 C   0  0  0  0  0  0  0  0  0  0  0  0
   26.8362  -20.6819  -13.6641 C   0  0  0  0  0  0  0  0  0  0  0  0
   26.3775  -21.8483  -13.3764 O   0  0  0  0  0  0  0  0  0  0  0  0
   23.4211  -13.8245  -14.9862 N   0  0  0  0  0  0  0  0  0  0  0  0
   24.4503  -14.0919  -15.9288 C   0  0  0  0  0  0  0  0  0  0  0  0
   24.6280  -13.1698  -16.8324 N   0  0  0  0  0  0  0  0  0  0  0  0
   25.2199  -15.2791  -15.8766 N   0  0  0  0  0  0  0  0  0  0  0  0
   24.8372  -16.3706  -15.0035 C   0  0  0  0  0  0  0  0  0  0  0  0
   24.2731  -17.5340  -15.8051 C   0  0  0  0  0  0  0  0  0  0  0  0
   25.3429  -18.4983  -16.2164 C   0  0  0  0  0  0  0  0  0  0  0  0
   25.2644  -19.7394  -15.4025 C   0  0  2  0  0  0  0  0  0  0  0  0
   26.6038  -20.1744  -14.9582 N   0  0  0  0  0  0  0  0  0  0  0  0
   24.6135  -20.8585  -16.1530 C   0  0  0  0  0  0  0  0  0  0  0  0
   23.3964  -20.7963  -16.3781 O   0  0  0  0  0  0  0  0  0  0  0  0
   25.3360  -21.9433  -16.5908 O   0  0  0  0  0  0  0  0  0  0  0  0
  2  1  1  1
  2  3  1  0
  3  4  1  0
  4 12  1  0
  4  5  2  0
  5  6  1  0
  7  8  2  0
  7  6  1  0
  9  8  1  0
 10  9  2  0
 11 10  1  0
 11 12  2  0
 12  7  1  0
 13 14  2  0
 13  2  1  0
 15 13  1  0
 16 15  1  0
 17 16  1  0
 18 17  2  0
 20 19  1  0
 21 20  2  0
 22 20  1  0
 23 24  1  0
 23 22  1  0
 26 25  1  6
 25 24  1  0
 26 27  1  0
 27 17  1  0
 28 26  1  0
 29 28  2  0
 30 28  1  0
M  END
$$$$
