WGR.pdb
     RDKit          3D

 30 31  0  0  1  0  0  0  0  0999 V2000
   24.2013  -18.7616  -17.1224 N   0  0  0  0  0  0  0  0  0  0  0  0
   23.4885  -19.9745  -16.7078 C   0  0  1  0  0  0  0  0  0  0  0  0
   22.6961  -20.5936  -17.8046 C   0  0  0  0  0  0  0  0  0  0  0  0
   21.6962  -19.6210  -18.3011 C   0  0  0  0  0  0  0  0  0  0  0  0
   21.6078  -18.9804  -19.5139 C   0  0  0  0  0  0  0  0  0  0  0  0
   20.5224  -18.2040  -19.5675 N   0  0  0  0  0  0  0  0  0  0  0  0
   19.8974  -18.3440  -18.3679 C   0  0  0  0  0  0  0  0  0  0  0  0
   18.7349  -17.7823  -17.8775 C   0  0  0  0  0  0  0  0  0  0  0  0
   18.2727  -18.0713  -16.6199 C   0  0  0  0  0  0  0  0  0  0  0  0
   18.9834  -18.9396  -15.8293 C   0  0  0  0  0  0  0  0  0  0  0  0
   20.1408  -19.5143  -16.2838 C   0  0  0  0  0  0  0  0  0  0  0  0
   20.5983  -19.2109  -17.5671 C   0  0  0  0  0  0  0  0  0  0  0  0
   24.5106  -20.9773  -16.2413 C   0  0  0  0  0  0  0  0  0  0  0  0
   25.7347  -20.7669  -16.1545 O   0  0  0  0  0  0  0  0  0  0  0  0
   24.0199  -22.2760  -15.8742 N   0  0  0  0  0  0  0  0  0  0  0  0
   24.9115  -23.1623  -15.1847 C   0  0  0  0  0  0  0  0  0  0  0  0
   24.9897  -23.0153  -13.7373 C   0  0  0  0  0  0  0  0  0  0  0  0
   24.2098  -23.7520  -13.0282 O   0  0  0  0  0  0  0  0  0  0  0  0
   29.6313  -20.5568   -6.7806 N   0  0  0  0  0  0  0  0  0  0  0  0
   28.2796  -20.2253   -6.4944 C   0  0  0  0  0  0  0  0  0  0  0  0
   28.0246  -19.9688   -5.2424 N   0  0  0  0  0  0  0  0  0  0  0  0
   27.2918  -20.1797   -7.5077 N   0  0  0  0  0  0  0  0  0  0  0  0
   27.5663  -20.7009   -8.8317 C   0  0  0  0  0  0  0  0  0  0  0  0
   26.4386  -20.3588   -9.7938 C   0  0  0  0  0  0  0  0  0  0  0  0
   26.7280  -20.8354  -11.1841 C   0  0  0  0  0  0  0  0  0  0  0  0
   25.6434  -21.7321  -11.6620 C   0  0  2  0  0  0  0  0  0  0  0  0
   25.8536  -22.1236  -13.0703 N   0  0  0  0  0  0  0  0  0  0  0  0
   24.2951  -21.0965  -11.5298 C   0  0  0  0  0  0  0  0  0  0  0  0
   23.9042  -20.3363  -12.4270 O   0  0  0  0  0  0  0  0  0  0  0  0
   23.4924  -21.3390  -10.4401 O   0  0  0  0  0  0  0  0  0  0  0  0
  2  1  1  6
  2  3  1  0
  3  4  1  0
  4 12  1  0
  4  5  2  0
  5  6  1  0
  7  8  2  0
  7  6  1  0
  9  8  1  0
 10  9  2  0
 11 10  1  0
 11 12  2  0
 12  7  1  0
 13 14  2  0
 13  2  1  0
 15 13  1  0
 16 15  1  0
 17 16  1  0
 18 17  2  0
 20 19  1  0
 21 20  2  0
 22 20  1  0
 23 24  1  0
 23 22  1  0
 26 25  1  6
 25 24  1  0
 26 27  1  0
 27 17  1  0
 28 26  1  0
 29 28  2  0
 30 28  1  0
M  END
$$$$
