WGR.pdb
     RDKit          3D

 30 31  0  0  1  0  0  0  0  0999 V2000
   24.3596  -20.7074  -18.0048 N   0  0  0  0  0  0  0  0  0  0  0  0
   24.1933  -19.6869  -16.9647 C   0  0  1  0  0  0  0  0  0  0  0  0
   22.8686  -19.7467  -16.2898 C   0  0  0  0  0  0  0  0  0  0  0  0
   21.9368  -18.8017  -16.9462 C   0  0  0  0  0  0  0  0  0  0  0  0
   20.9062  -19.0378  -17.8243 C   0  0  0  0  0  0  0  0  0  0  0  0
   20.2867  -17.9010  -18.1525 N   0  0  0  0  0  0  0  0  0  0  0  0
   20.9280  -16.9114  -17.4753 C   0  0  0  0  0  0  0  0  0  0  0  0
   20.7085  -15.5484  -17.4335 C   0  0  0  0  0  0  0  0  0  0  0  0
   21.4830  -14.7196  -16.6641 C   0  0  0  0  0  0  0  0  0  0  0  0
   22.5015  -15.2580  -15.9178 C   0  0  0  0  0  0  0  0  0  0  0  0
   22.7474  -16.6055  -15.9363 C   0  0  0  0  0  0  0  0  0  0  0  0
   21.9496  -17.4368  -16.7240 C   0  0  0  0  0  0  0  0  0  0  0  0
   25.2615  -19.9045  -15.9256 C   0  0  0  0  0  0  0  0  0  0  0  0
   25.8593  -20.9780  -15.7249 O   0  0  0  0  0  0  0  0  0  0  0  0
   25.6045  -18.7759  -15.1063 N   0  0  0  0  0  0  0  0  0  0  0  0
   26.4631  -18.9982  -13.9797 C   0  0  0  0  0  0  0  0  0  0  0  0
   25.9326  -19.8296  -12.9073 C   0  0  0  0  0  0  0  0  0  0  0  0
   24.6672  -19.7679  -12.6861 O   0  0  0  0  0  0  0  0  0  0  0  0
   30.8058  -20.4617   -6.7687 N   0  0  0  0  0  0  0  0  0  0  0  0
   29.4084  -20.2533   -6.9206 C   0  0  0  0  0  0  0  0  0  0  0  0
   28.8094  -19.7345   -5.8860 N   0  0  0  0  0  0  0  0  0  0  0  0
   28.7295  -20.5892   -8.1167 N   0  0  0  0  0  0  0  0  0  0  0  0
   29.4612  -21.0646   -9.2737 C   0  0  0  0  0  0  0  0  0  0  0  0
   28.5175  -21.3520  -10.4317 C   0  0  0  0  0  0  0  0  0  0  0  0
   27.1599  -21.7676   -9.9546 C   0  0  0  0  0  0  0  0  0  0  0  0
   26.1293  -21.4456  -10.9759 C   0  0  2  0  0  0  0  0  0  0  0  0
   26.7095  -20.6859  -12.1015 N   0  0  0  0  0  0  0  0  0  0  0  0
   24.9934  -20.6634  -10.3951 C   0  0  0  0  0  0  0  0  0  0  0  0
   24.0131  -21.2775   -9.9504 O   0  0  0  0  0  0  0  0  0  0  0  0
   25.0193  -19.2895  -10.3486 O   0  0  0  0  0  0  0  0  0  0  0  0
  2  1  1  6
  2  3  1  0
  3  4  1  0
  4 12  1  0
  4  5  2  0
  5  6  1  0
  7  8  2  0
  7  6  1  0
  9  8  1  0
 10  9  2  0
 11 10  1  0
 11 12  2  0
 12  7  1  0
 13 14  2  0
 13  2  1  0
 15 13  1  0
 16 15  1  0
 17 16  1  0
 18 17  2  0
 20 19  1  0
 21 20  2  0
 22 20  1  0
 23 24  1  0
 23 22  1  0
 26 25  1  1
 25 24  1  0
 26 27  1  0
 27 17  1  0
 28 26  1  0
 29 28  2  0
 30 28  1  0
M  END
$$$$
