WGR.pdb
     RDKit          3D

 30 31  0  0  1  0  0  0  0  0999 V2000
   22.0771  -14.8137  -17.3441 N   0  0  0  0  0  0  0  0  0  0  0  0
   22.7072  -13.9793  -16.3157 C   0  0  1  0  0  0  0  0  0  0  0  0
   23.9614  -13.3252  -16.7775 C   0  0  0  0  0  0  0  0  0  0  0  0
   24.9220  -14.3594  -17.2245 C   0  0  0  0  0  0  0  0  0  0  0  0
   25.3825  -14.6571  -18.4848 C   0  0  0  0  0  0  0  0  0  0  0  0
   26.2764  -15.6487  -18.4463 N   0  0  0  0  0  0  0  0  0  0  0  0
   26.3963  -15.9995  -17.1379 C   0  0  0  0  0  0  0  0  0  0  0  0
   27.1792  -16.9556  -16.5211 C   0  0  0  0  0  0  0  0  0  0  0  0
   27.1502  -17.1407  -15.1633 C   0  0  0  0  0  0  0  0  0  0  0  0
   26.3223  -16.3568  -14.3990 C   0  0  0  0  0  0  0  0  0  0  0  0
   25.5319  -15.3995  -14.9781 C   0  0  0  0  0  0  0  0  0  0  0  0
   25.5731  -15.2222  -16.3619 C   0  0  0  0  0  0  0  0  0  0  0  0
   21.7291  -12.9017  -15.9284 C   0  0  0  0  0  0  0  0  0  0  0  0
   21.9399  -12.0109  -15.0845 O   0  0  0  0  0  0  0  0  0  0  0  0
   20.4551  -12.9178  -16.5910 N   0  0  0  0  0  0  0  0  0  0  0  0
   19.4798  -11.9430  -16.1983 C   0  0  0  0  0  0  0  0  0  0  0  0
   19.5418  -10.6499  -16.8667 C   0  0  0  0  0  0  0  0  0  0  0  0
   20.4387  -10.5002  -17.7762 O   0  0  0  0  0  0  0  0  0  0  0  0
   12.1918   -8.5955  -18.9666 N   0  0  0  0  0  0  0  0  0  0  0  0
   12.9037   -9.8144  -19.1298 C   0  0  0  0  0  0  0  0  0  0  0  0
   12.1894  -10.8227  -19.5437 N   0  0  0  0  0  0  0  0  0  0  0  0
   14.2901   -9.9107  -18.8593 N   0  0  0  0  0  0  0  0  0  0  0  0
   15.0424   -8.7484  -18.4316 C   0  0  0  0  0  0  0  0  0  0  0  0
   16.4719   -9.1283  -18.0759 C   0  0  0  0  0  0  0  0  0  0  0  0
   17.3052   -7.9256  -17.7555 C   0  0  0  0  0  0  0  0  0  0  0  0
   18.6897   -8.3326  -17.4001 C   0  0  2  0  0  0  0  0  0  0  0  0
   18.6934   -9.5614  -16.5812 N   0  0  0  0  0  0  0  0  0  0  0  0
   19.4163   -7.2532  -16.6610 C   0  0  0  0  0  0  0  0  0  0  0  0
   19.6045   -6.1667  -17.2265 O   0  0  0  0  0  0  0  0  0  0  0  0
   19.8743   -7.4460  -15.3790 O   0  0  0  0  0  0  0  0  0  0  0  0
  2  1  1  6
  2  3  1  0
  3  4  1  0
  4 12  1  0
  4  5  2  0
  5  6  1  0
  7  8  2  0
  7  6  1  0
  9  8  1  0
 10  9  2  0
 11 10  1  0
 11 12  2  0
 12  7  1  0
 13 14  2  0
 13  2  1  0
 15 13  1  0
 16 15  1  0
 17 16  1  0
 18 17  2  0
 20 19  1  0
 21 20  2  0
 22 20  1  0
 23 24  1  0
 23 22  1  0
 26 25  1  1
 25 24  1  0
 26 27  1  0
 27 17  1  0
 28 26  1  0
 29 28  2  0
 30 28  1  0
M  END
$$$$
