SYR.pdb
     RDKit          3D

 30 30  0  0  1  0  0  0  0  0999 V2000
   28.0150  -18.3370  -19.9001 O   0  0  0  0  0  0  0  0  0  0  0  0
   27.3450  -19.0995  -18.9677 C   0  0  0  0  0  0  0  0  0  0  0  0
   28.2967  -20.0354  -18.2145 C   0  0  2  0  0  0  0  0  0  0  0  0
   28.5663  -21.1736  -19.0599 N   0  0  0  0  0  0  0  0  0  0  0  0
   27.5472  -20.4581  -16.9869 C   0  0  0  0  0  0  0  0  0  0  0  0
   26.6722  -21.3535  -17.0827 O   0  0  0  0  0  0  0  0  0  0  0  0
   24.8364  -20.9115   -8.5167 O   0  0  0  0  0  0  0  0  0  0  0  0
   25.5586  -20.6446   -9.6854 C   0  0  0  0  0  0  0  0  0  0  0  0
   25.3753  -19.4841  -10.4067 C   0  0  0  0  0  0  0  0  0  0  0  0
   26.0703  -19.1928  -11.5601 C   0  0  0  0  0  0  0  0  0  0  0  0
   26.9933  -20.1004  -12.0190 C   0  0  0  0  0  0  0  0  0  0  0  0
   27.7475  -19.7967  -13.2537 C   0  0  0  0  0  0  0  0  0  0  0  0
   27.0574  -20.2528  -14.5187 C   0  0  2  0  0  0  0  0  0  0  0  0
   27.7812  -19.8902  -15.7119 N   0  0  0  0  0  0  0  0  0  0  0  0
   25.6683  -19.7872  -14.5305 C   0  0  0  0  0  0  0  0  0  0  0  0
   25.3699  -18.6571  -14.9692 O   0  0  0  0  0  0  0  0  0  0  0  0
   27.2103  -21.2698  -11.3346 C   0  0  0  0  0  0  0  0  0  0  0  0
   26.4948  -21.5256  -10.1838 C   0  0  0  0  0  0  0  0  0  0  0  0
   19.0093  -17.1319  -16.8430 N   0  0  0  0  0  0  0  0  0  0  0  0
   20.2528  -17.1478  -17.5518 C   0  0  0  0  0  0  0  0  0  0  0  0
   20.6095  -16.0878  -18.1855 N   0  0  0  0  0  0  0  0  0  0  0  0
   21.0516  -18.3250  -17.5350 N   0  0  0  0  0  0  0  0  0  0  0  0
   20.5591  -19.4483  -16.7789 C   0  0  0  0  0  0  0  0  0  0  0  0
   21.1815  -19.5471  -15.4106 C   0  0  0  0  0  0  0  0  0  0  0  0
   22.6286  -19.9890  -15.4731 C   0  0  0  0  0  0  0  0  0  0  0  0
   23.2035  -20.1729  -14.1140 C   0  0  2  0  0  0  0  0  0  0  0  0
   24.5651  -20.5630  -14.0543 N   0  0  0  0  0  0  0  0  0  0  0  0
   22.4022  -21.1502  -13.3334 C   0  0  0  0  0  0  0  0  0  0  0  0
   22.6929  -22.3710  -13.3017 O   0  0  0  0  0  0  0  0  0  0  0  0
   21.2967  -20.7332  -12.6091 O   0  0  0  0  0  0  0  0  0  0  0  0
  1  2  1  0
  3  4  1  6
  3  2  1  0
  5  3  1  0
  6  5  2  0
  8  9  2  0
  8  7  1  0
 10  9  1  0
 11 10  2  0
 12 11  1  0
 13 12  1  1
 13 14  1  0
 14  5  1  0
 15 27  1  0
 15 13  1  0
 16 15  2  0
 17 11  1  0
 17 18  2  0
 18  8  1  0
 20 19  1  0
 21 20  2  0
 22 20  1  0
 23 22  1  0
 24 25  1  0
 24 23  1  0
 26 25  1  6
 26 27  1  0
 28 26  1  0
 28 30  1  0
 29 28  2  0
M  END
$$$$
