SYR.pdb
     RDKit          3D

 30 30  0  0  1  0  0  0  0  0999 V2000
   43.2351   -6.5357   -9.3204 O   0  0  0  0  0  0  0  0  0  0  0  0
   43.2607   -7.8341   -8.8584 C   0  0  0  0  0  0  0  0  0  0  0  0
   41.9000   -8.5195   -9.0246 C   0  0  2  0  0  0  0  0  0  0  0  0
   40.9835   -7.9290   -8.0790 N   0  0  0  0  0  0  0  0  0  0  0  0
   42.1401   -9.9618   -8.6937 C   0  0  0  0  0  0  0  0  0  0  0  0
   42.1656  -10.3168   -7.4896 O   0  0  0  0  0  0  0  0  0  0  0  0
   44.0429  -18.5812   -9.9490 O   0  0  0  0  0  0  0  0  0  0  0  0
   43.5474  -17.2768  -10.0566 C   0  0  0  0  0  0  0  0  0  0  0  0
   42.7203  -16.7298   -9.0989 C   0  0  0  0  0  0  0  0  0  0  0  0
   42.2167  -15.4497   -9.1763 C   0  0  0  0  0  0  0  0  0  0  0  0
   42.5522  -14.6751  -10.2596 C   0  0  0  0  0  0  0  0  0  0  0  0
   42.0206  -13.2988  -10.3514 C   0  0  0  0  0  0  0  0  0  0  0  0
   42.6770  -12.3258   -9.3991 C   0  0  2  0  0  0  0  0  0  0  0  0
   42.3415  -10.9527   -9.6839 N   0  0  0  0  0  0  0  0  0  0  0  0
   44.1222  -12.5623   -9.3543 C   0  0  0  0  0  0  0  0  0  0  0  0
   44.8755  -12.1283  -10.2503 O   0  0  0  0  0  0  0  0  0  0  0  0
   43.3728  -15.1765  -11.2386 C   0  0  0  0  0  0  0  0  0  0  0  0
   43.8570  -16.4628  -11.1254 C   0  0  0  0  0  0  0  0  0  0  0  0
   49.9497  -15.5892   -4.1358 N   0  0  0  0  0  0  0  0  0  0  0  0
   50.8356  -14.8807   -5.0088 C   0  0  0  0  0  0  0  0  0  0  0  0
   52.0753  -15.2197   -5.0290 N   0  0  0  0  0  0  0  0  0  0  0  0
   50.3241  -13.8314   -5.8221 N   0  0  0  0  0  0  0  0  0  0  0  0
   48.9024  -13.5990   -5.7858 C   0  0  0  0  0  0  0  0  0  0  0  0
   48.1795  -14.2293   -6.9475 C   0  0  0  0  0  0  0  0  0  0  0  0
   46.6892  -13.9638   -6.9035 C   0  0  0  0  0  0  0  0  0  0  0  0
   46.1738  -13.5178   -8.2251 C   0  0  2  0  0  0  0  0  0  0  0  0
   44.7774  -13.2898   -8.3116 N   0  0  0  0  0  0  0  0  0  0  0  0
   46.5575  -14.4800   -9.2897 C   0  0  0  0  0  0  0  0  0  0  0  0
   45.7689  -15.3682   -9.6963 O   0  0  0  0  0  0  0  0  0  0  0  0
   47.8146  -14.4213   -9.8701 O   0  0  0  0  0  0  0  0  0  0  0  0
  1  2  1  0
  3  4  1  1
  3  2  1  0
  5  3  1  0
  6  5  2  0
  8  9  2  0
  8  7  1  0
 10  9  1  0
 11 10  2  0
 12 11  1  0
 13 12  1  6
 13 14  1  0
 14  5  1  0
 15 27  1  0
 15 13  1  0
 16 15  2  0
 17 11  1  0
 17 18  2  0
 18  8  1  0
 20 19  1  0
 21 20  2  0
 22 20  1  0
 23 22  1  0
 24 25  1  0
 24 23  1  0
 26 25  1  1
 26 27  1  0
 28 26  1  0
 28 30  1  0
 29 28  2  0
M  END
$$$$
