SYR.pdb
     RDKit          3D

 30 30  0  0  1  0  0  0  0  0999 V2000
   26.5561  -22.1073  -13.9009 O   0  0  0  0  0  0  0  0  0  0  0  0
   27.8379  -21.6475  -13.6879 C   0  0  0  0  0  0  0  0  0  0  0  0
   27.8918  -20.6387  -12.5354 C   0  0  2  0  0  0  0  0  0  0  0  0
   27.4341  -21.3026  -11.3385 N   0  0  0  0  0  0  0  0  0  0  0  0
   26.9451  -19.5430  -12.9236 C   0  0  0  0  0  0  0  0  0  0  0  0
   25.9061  -19.3627  -12.2421 O   0  0  0  0  0  0  0  0  0  0  0  0
   23.1629  -12.9263  -17.5174 O   0  0  0  0  0  0  0  0  0  0  0  0
   24.0698  -13.8689  -17.0198 C   0  0  0  0  0  0  0  0  0  0  0  0
   24.8181  -13.6330  -15.8863 C   0  0  0  0  0  0  0  0  0  0  0  0
   25.7183  -14.5403  -15.3719 C   0  0  0  0  0  0  0  0  0  0  0  0
   25.8827  -15.7417  -16.0167 C   0  0  0  0  0  0  0  0  0  0  0  0
   26.8433  -16.7244  -15.4718 C   0  0  0  0  0  0  0  0  0  0  0  0
   26.2293  -17.7029  -14.4971 C   0  0  2  0  0  0  0  0  0  0  0  0
   27.1689  -18.6934  -14.0331 N   0  0  0  0  0  0  0  0  0  0  0  0
   25.0168  -18.2917  -15.0711 C   0  0  0  0  0  0  0  0  0  0  0  0
   25.0668  -19.3361  -15.7534 O   0  0  0  0  0  0  0  0  0  0  0  0
   25.1597  -16.0216  -17.1490 C   0  0  0  0  0  0  0  0  0  0  0  0
   24.2681  -15.0877  -17.6332 C   0  0  0  0  0  0  0  0  0  0  0  0
   18.1006  -22.5687  -13.2191 N   0  0  0  0  0  0  0  0  0  0  0  0
   19.4551  -23.0125  -13.0867 C   0  0  0  0  0  0  0  0  0  0  0  0
   19.6805  -24.2759  -13.0128 N   0  0  0  0  0  0  0  0  0  0  0  0
   20.5038  -22.0522  -13.0411 N   0  0  0  0  0  0  0  0  0  0  0  0
   20.1292  -20.6612  -13.0729 C   0  0  0  0  0  0  0  0  0  0  0  0
   20.6931  -19.9335  -14.2654 C   0  0  0  0  0  0  0  0  0  0  0  0
   21.9903  -19.2234  -13.9389 C   0  0  0  0  0  0  0  0  0  0  0  0
   22.4920  -18.4400  -15.0991 C   0  0  2  0  0  0  0  0  0  0  0  0
   23.7083  -17.7382  -14.9057 N   0  0  0  0  0  0  0  0  0  0  0  0
   21.4635  -17.4744  -15.5641 C   0  0  0  0  0  0  0  0  0  0  0  0
   21.3496  -16.3316  -15.0570 O   0  0  0  0  0  0  0  0  0  0  0  0
   20.5904  -17.8151  -16.5849 O   0  0  0  0  0  0  0  0  0  0  0  0
  1  2  1  0
  3  4  1  1
  3  2  1  0
  5  3  1  0
  6  5  2  0
  8  9  2  0
  8  7  1  0
 10  9  1  0
 11 10  2  0
 12 11  1  0
 13 12  1  6
 13 14  1  0
 14  5  1  0
 15 27  1  0
 15 13  1  0
 16 15  2  0
 17 11  1  0
 17 18  2  0
 18  8  1  0
 20 19  1  0
 21 20  2  0
 22 20  1  0
 23 22  1  0
 24 25  1  0
 24 23  1  0
 26 25  1  1
 26 27  1  0
 28 26  1  0
 28 30  1  0
 29 28  2  0
M  END
$$$$
