SYR.pdb
     RDKit          3D

 30 30  0  0  1  0  0  0  0  0999 V2000
   27.8563  -20.4543  -19.4504 O   0  0  0  0  0  0  0  0  0  0  0  0
   27.5611  -20.3337  -18.1094 C   0  0  0  0  0  0  0  0  0  0  0  0
   28.3753  -21.3171  -17.2614 C   0  0  2  0  0  0  0  0  0  0  0  0
   28.5648  -22.5220  -18.0327 N   0  0  0  0  0  0  0  0  0  0  0  0
   27.5302  -21.5930  -16.0543 C   0  0  0  0  0  0  0  0  0  0  0  0
   26.7433  -22.5713  -16.0695 O   0  0  0  0  0  0  0  0  0  0  0  0
   23.6708  -20.8084   -8.0886 O   0  0  0  0  0  0  0  0  0  0  0  0
   24.5267  -20.6617   -9.1862 C   0  0  0  0  0  0  0  0  0  0  0  0
   24.2671  -19.7620  -10.1979 C   0  0  0  0  0  0  0  0  0  0  0  0
   25.0896  -19.5944  -11.2905 C   0  0  0  0  0  0  0  0  0  0  0  0
   26.2266  -20.3594  -11.3814 C   0  0  0  0  0  0  0  0  0  0  0  0
   27.1185  -20.1855  -12.5474 C   0  0  0  0  0  0  0  0  0  0  0  0
   26.6512  -20.9124  -13.7875 C   0  0  2  0  0  0  0  0  0  0  0  0
   27.5774  -20.7952  -14.8864 N   0  0  0  0  0  0  0  0  0  0  0  0
   25.2935  -20.4881  -14.1383 C   0  0  0  0  0  0  0  0  0  0  0  0
   25.0888  -19.4191  -14.7499 O   0  0  0  0  0  0  0  0  0  0  0  0
   26.5270  -21.2685  -10.3983 C   0  0  0  0  0  0  0  0  0  0  0  0
   25.6786  -21.4073   -9.3200 C   0  0  0  0  0  0  0  0  0  0  0  0
   19.1977  -22.6806  -19.2893 N   0  0  0  0  0  0  0  0  0  0  0  0
   20.1741  -21.6351  -19.3408 C   0  0  0  0  0  0  0  0  0  0  0  0
   20.5350  -21.1911  -20.4918 N   0  0  0  0  0  0  0  0  0  0  0  0
   20.7124  -21.1214  -18.1282 N   0  0  0  0  0  0  0  0  0  0  0  0
   20.2405  -21.7016  -16.8964 C   0  0  0  0  0  0  0  0  0  0  0  0
   20.8278  -21.0385  -15.6779 C   0  0  0  0  0  0  0  0  0  0  0  0
   22.2193  -21.5485  -15.3662 C   0  0  0  0  0  0  0  0  0  0  0  0
   22.7941  -20.8746  -14.1717 C   0  0  2  0  0  0  0  0  0  0  0  0
   24.1182  -21.2387  -13.8201 N   0  0  0  0  0  0  0  0  0  0  0  0
   21.9228  -21.0763  -12.9857 C   0  0  0  0  0  0  0  0  0  0  0  0
   21.1796  -20.1649  -12.5463 O   0  0  0  0  0  0  0  0  0  0  0  0
   21.9076  -22.2937  -12.3239 O   0  0  0  0  0  0  0  0  0  0  0  0
  1  2  1  0
  3  4  1  6
  3  2  1  0
  5  3  1  0
  6  5  2  0
  8  9  2  0
  8  7  1  0
 10  9  1  0
 11 10  2  0
 12 11  1  0
 13 12  1  1
 13 14  1  0
 14  5  1  0
 15 27  1  0
 15 13  1  0
 16 15  2  0
 17 11  1  0
 17 18  2  0
 18  8  1  0
 20 19  1  0
 21 20  2  0
 22 20  1  0
 23 22  1  0
 24 25  1  0
 24 23  1  0
 26 25  1  6
 26 27  1  0
 28 26  1  0
 28 30  1  0
 29 28  2  0
M  END
$$$$
