SYR.pdb
     RDKit          3D

 30 30  0  0  1  0  0  0  0  0999 V2000
   27.8132  -27.1343  -19.3846 O   0  0  0  0  0  0  0  0  0  0  0  0
   27.2034  -26.5179  -18.3130 C   0  0  0  0  0  0  0  0  0  0  0  0
   28.1684  -26.3502  -17.1342 C   0  0  2  0  0  0  0  0  0  0  0  0
   28.0442  -27.5112  -16.2861 N   0  0  0  0  0  0  0  0  0  0  0  0
   27.7033  -25.1205  -16.4136 C   0  0  0  0  0  0  0  0  0  0  0  0
   27.0428  -25.2463  -15.3533 O   0  0  0  0  0  0  0  0  0  0  0  0
   26.5040  -16.5617  -14.2957 O   0  0  0  0  0  0  0  0  0  0  0  0
   26.9652  -17.7541  -14.8651 C   0  0  0  0  0  0  0  0  0  0  0  0
   27.6615  -18.6908  -14.1315 C   0  0  0  0  0  0  0  0  0  0  0  0
   28.1282  -19.8732  -14.6629 C   0  0  0  0  0  0  0  0  0  0  0  0
   27.8908  -20.1372  -15.9897 C   0  0  0  0  0  0  0  0  0  0  0  0
   28.3837  -21.4044  -16.5698 C   0  0  0  0  0  0  0  0  0  0  0  0
   27.5473  -22.6093  -16.2049 C   0  0  2  0  0  0  0  0  0  0  0  0
   27.9760  -23.8112  -16.8763 N   0  0  0  0  0  0  0  0  0  0  0  0
   26.1265  -22.3170  -16.4104 C   0  0  0  0  0  0  0  0  0  0  0  0
   25.6157  -22.3640  -17.5487 O   0  0  0  0  0  0  0  0  0  0  0  0
   27.2018  -19.2345  -16.7602 C   0  0  0  0  0  0  0  0  0  0  0  0
   26.7506  -18.0618  -16.1918 C   0  0  0  0  0  0  0  0  0  0  0  0
   19.2443  -22.8259  -11.1274 N   0  0  0  0  0  0  0  0  0  0  0  0
   19.9022  -23.8171  -11.9235 C   0  0  0  0  0  0  0  0  0  0  0  0
   19.7067  -25.0561  -11.6426 N   0  0  0  0  0  0  0  0  0  0  0  0
   20.7458  -23.4071  -12.9932 N   0  0  0  0  0  0  0  0  0  0  0  0
   20.6455  -22.0368  -13.4273 C   0  0  0  0  0  0  0  0  0  0  0  0
   21.5228  -21.7363  -14.6145 C   0  0  0  0  0  0  0  0  0  0  0  0
   22.9866  -21.9904  -14.3206 C   0  0  0  0  0  0  0  0  0  0  0  0
   23.8374  -21.7263  -15.5112 C   0  0  2  0  0  0  0  0  0  0  0  0
   25.2267  -21.9623  -15.3567 N   0  0  0  0  0  0  0  0  0  0  0  0
   23.6501  -20.3331  -15.9911 C   0  0  0  0  0  0  0  0  0  0  0  0
   24.4826  -19.4277  -15.7398 O   0  0  0  0  0  0  0  0  0  0  0  0
   22.5349  -19.9917  -16.7398 O   0  0  0  0  0  0  0  0  0  0  0  0
  1  2  1  0
  3  4  1  1
  3  2  1  0
  5  3  1  0
  6  5  2  0
  8  9  2  0
  8  7  1  0
 10  9  1  0
 11 10  2  0
 12 11  1  0
 13 12  1  6
 13 14  1  0
 14  5  1  0
 15 27  1  0
 15 13  1  0
 16 15  2  0
 17 11  1  0
 17 18  2  0
 18  8  1  0
 20 19  1  0
 21 20  2  0
 22 20  1  0
 23 22  1  0
 24 25  1  0
 24 23  1  0
 26 25  1  1
 26 27  1  0
 28 26  1  0
 28 30  1  0
 29 28  2  0
M  END
$$$$
