SYR.pdb
     RDKit          3D

 30 30  0  0  1  0  0  0  0  0999 V2000
   26.9536  -23.6849  -16.0374 O   0  0  0  0  0  0  0  0  0  0  0  0
   25.9521  -22.9885  -16.6791 C   0  0  0  0  0  0  0  0  0  0  0  0
   26.3242  -21.5145  -16.8730 C   0  0  2  0  0  0  0  0  0  0  0  0
   27.6570  -21.3181  -16.3556 N   0  0  0  0  0  0  0  0  0  0  0  0
   25.3264  -20.7442  -16.0615 C   0  0  0  0  0  0  0  0  0  0  0  0
   25.5721  -20.5091  -14.8528 O   0  0  0  0  0  0  0  0  0  0  0  0
   27.5274  -14.8247  -16.5529 O   0  0  0  0  0  0  0  0  0  0  0  0
   26.3857  -15.6336  -16.5237 C   0  0  0  0  0  0  0  0  0  0  0  0
   26.0688  -16.4852  -17.5604 C   0  0  0  0  0  0  0  0  0  0  0  0
   24.9530  -17.2934  -17.5612 C   0  0  0  0  0  0  0  0  0  0  0  0
   24.1105  -17.2528  -16.4773 C   0  0  0  0  0  0  0  0  0  0  0  0
   22.9121  -18.1183  -16.4656 C   0  0  0  0  0  0  0  0  0  0  0  0
   23.1494  -19.4818  -15.8580 C   0  0  2  0  0  0  0  0  0  0  0  0
   24.1080  -20.2643  -16.5983 N   0  0  0  0  0  0  0  0  0  0  0  0
   21.8738  -20.1760  -15.6651 C   0  0  0  0  0  0  0  0  0  0  0  0
   21.4372  -20.9741  -16.5201 O   0  0  0  0  0  0  0  0  0  0  0  0
   24.3846  -16.4206  -15.4213 C   0  0  0  0  0  0  0  0  0  0  0  0
   25.5116  -15.6265  -15.4575 C   0  0  0  0  0  0  0  0  0  0  0  0
   19.7389  -26.9371  -12.3779 N   0  0  0  0  0  0  0  0  0  0  0  0
   20.7889  -25.9847  -12.5769 C   0  0  0  0  0  0  0  0  0  0  0  0
   22.0057  -26.3818  -12.4580 N   0  0  0  0  0  0  0  0  0  0  0  0
   20.4596  -24.6384  -12.8976 N   0  0  0  0  0  0  0  0  0  0  0  0
   19.0612  -24.3034  -12.9916 C   0  0  0  0  0  0  0  0  0  0  0  0
   18.8312  -22.8878  -13.4526 C   0  0  0  0  0  0  0  0  0  0  0  0
   20.1306  -22.1543  -13.7115 C   0  0  0  0  0  0  0  0  0  0  0  0
   19.8897  -20.7762  -14.2158 C   0  0  2  0  0  0  0  0  0  0  0  0
   21.0411  -20.0053  -14.5147 N   0  0  0  0  0  0  0  0  0  0  0  0
   19.0473  -20.0088  -13.2628 C   0  0  0  0  0  0  0  0  0  0  0  0
   19.4647  -18.9680  -12.6985 O   0  0  0  0  0  0  0  0  0  0  0  0
   17.7598  -20.4283  -12.9679 O   0  0  0  0  0  0  0  0  0  0  0  0
  1  2  1  0
  3  4  1  1
  3  2  1  0
  5  3  1  0
  6  5  2  0
  8  9  2  0
  8  7  1  0
 10  9  1  0
 11 10  2  0
 12 11  1  0
 13 12  1  6
 13 14  1  0
 14  5  1  0
 15 27  1  0
 15 13  1  0
 16 15  2  0
 17 11  1  0
 17 18  2  0
 18  8  1  0
 20 19  1  0
 21 20  2  0
 22 20  1  0
 23 22  1  0
 24 25  1  0
 24 23  1  0
 26 25  1  1
 26 27  1  0
 28 26  1  0
 28 30  1  0
 29 28  2  0
M  END
$$$$
