SYR.pdb
     RDKit          3D

 30 30  0  0  1  0  0  0  0  0999 V2000
   28.6811  -22.6391  -18.7762 O   0  0  0  0  0  0  0  0  0  0  0  0
   28.5408  -21.7535  -17.7294 C   0  0  0  0  0  0  0  0  0  0  0  0
   29.2877  -22.2332  -16.4800 C   0  0  2  0  0  0  0  0  0  0  0  0
   29.7194  -23.5908  -16.7109 N   0  0  0  0  0  0  0  0  0  0  0  0
   28.2789  -22.1835  -15.3721 C   0  0  0  0  0  0  0  0  0  0  0  0
   27.6383  -23.2234  -15.0814 O   0  0  0  0  0  0  0  0  0  0  0  0
   27.3755  -21.0954   -7.1258 O   0  0  0  0  0  0  0  0  0  0  0  0
   27.3665  -20.7679   -8.4864 C   0  0  0  0  0  0  0  0  0  0  0  0
   26.2457  -20.2575   -9.1060 C   0  0  0  0  0  0  0  0  0  0  0  0
   26.2055  -19.9255  -10.4426 C   0  0  0  0  0  0  0  0  0  0  0  0
   27.3357  -20.1103  -11.2006 C   0  0  0  0  0  0  0  0  0  0  0  0
   27.3053  -19.7543  -12.6351 C   0  0  0  0  0  0  0  0  0  0  0  0
   27.0585  -20.9309  -13.5512 C   0  0  2  0  0  0  0  0  0  0  0  0
   28.0115  -21.0081  -14.6306 N   0  0  0  0  0  0  0  0  0  0  0  0
   25.6692  -20.9242  -14.0164 C   0  0  0  0  0  0  0  0  0  0  0  0
   25.3224  -20.2443  -15.0044 O   0  0  0  0  0  0  0  0  0  0  0  0
   28.4757  -20.6158  -10.6277 C   0  0  0  0  0  0  0  0  0  0  0  0
   28.4767  -20.9361   -9.2864 C   0  0  0  0  0  0  0  0  0  0  0  0
   18.4859  -26.0915  -13.1557 N   0  0  0  0  0  0  0  0  0  0  0  0
   17.9940  -24.9639  -13.8875 C   0  0  0  0  0  0  0  0  0  0  0  0
   16.7641  -24.9665  -14.2614 N   0  0  0  0  0  0  0  0  0  0  0  0
   18.8714  -23.8823  -14.1775 N   0  0  0  0  0  0  0  0  0  0  0  0
   20.2215  -23.9743  -13.6825 C   0  0  0  0  0  0  0  0  0  0  0  0
   21.0390  -22.7465  -13.9886 C   0  0  0  0  0  0  0  0  0  0  0  0
   22.4735  -22.8861  -13.5237 C   0  0  0  0  0  0  0  0  0  0  0  0
   23.2572  -21.6505  -13.7891 C   0  0  2  0  0  0  0  0  0  0  0  0
   24.6195  -21.6732  -13.3977 N   0  0  0  0  0  0  0  0  0  0  0  0
   22.6087  -20.4724  -13.1581 C   0  0  0  0  0  0  0  0  0  0  0  0
   22.7897  -20.1840  -11.9497 O   0  0  0  0  0  0  0  0  0  0  0  0
   21.7749  -19.6491  -13.8979 O   0  0  0  0  0  0  0  0  0  0  0  0
  1  2  1  0
  3  4  1  6
  3  2  1  0
  5  3  1  0
  6  5  2  0
  8  9  2  0
  8  7  1  0
 10  9  1  0
 11 10  2  0
 12 11  1  0
 13 12  1  6
 13 14  1  0
 14  5  1  0
 15 27  1  0
 15 13  1  0
 16 15  2  0
 17 11  1  0
 17 18  2  0
 18  8  1  0
 20 19  1  0
 21 20  2  0
 22 20  1  0
 23 22  1  0
 24 25  1  0
 24 23  1  0
 26 25  1  1
 26 27  1  0
 28 26  1  0
 28 30  1  0
 29 28  2  0
M  END
$$$$
