SYR.pdb
     RDKit          3D

 30 30  0  0  1  0  0  0  0  0999 V2000
   26.9304  -19.4323  -17.7333 O   0  0  0  0  0  0  0  0  0  0  0  0
   25.5967  -19.0886  -17.7869 C   0  0  0  0  0  0  0  0  0  0  0  0
   24.8022  -20.0470  -18.6810 C   0  0  2  0  0  0  0  0  0  0  0  0
   24.9418  -19.6032  -20.0471 N   0  0  0  0  0  0  0  0  0  0  0  0
   23.3781  -19.9204  -18.2299 C   0  0  0  0  0  0  0  0  0  0  0  0
   22.8519  -18.7816  -18.1787 O   0  0  0  0  0  0  0  0  0  0  0  0
   19.3211  -18.1708  -22.8251 O   0  0  0  0  0  0  0  0  0  0  0  0
   19.5345  -18.9876  -21.7089 C   0  0  0  0  0  0  0  0  0  0  0  0
   20.5933  -19.8679  -21.6414 C   0  0  0  0  0  0  0  0  0  0  0  0
   20.8300  -20.6846  -20.5573 C   0  0  0  0  0  0  0  0  0  0  0  0
   19.9713  -20.6228  -19.4873 C   0  0  0  0  0  0  0  0  0  0  0  0
   20.2174  -21.4919  -18.3170 C   0  0  0  0  0  0  0  0  0  0  0  0
   21.2423  -20.9412  -17.3521 C   0  0  2  0  0  0  0  0  0  0  0  0
   22.5903  -21.0349  -17.8552 N   0  0  0  0  0  0  0  0  0  0  0  0
   21.0802  -21.5637  -16.0358 C   0  0  0  0  0  0  0  0  0  0  0  0
   21.3968  -22.7557  -15.8419 O   0  0  0  0  0  0  0  0  0  0  0  0
   18.9030  -19.7617  -19.5087 C   0  0  0  0  0  0  0  0  0  0  0  0
   18.6994  -18.9601  -20.6122 C   0  0  0  0  0  0  0  0  0  0  0  0
   22.2038  -21.8098   -8.5882 N   0  0  0  0  0  0  0  0  0  0  0  0
   23.2706  -20.9388   -8.9784 C   0  0  0  0  0  0  0  0  0  0  0  0
   24.4660  -21.2309   -8.6066 N   0  0  0  0  0  0  0  0  0  0  0  0
   22.9810  -19.7855   -9.7593 N   0  0  0  0  0  0  0  0  0  0  0  0
   21.7179  -19.7555  -10.4523 C   0  0  0  0  0  0  0  0  0  0  0  0
   21.6851  -20.6775  -11.6432 C   0  0  0  0  0  0  0  0  0  0  0  0
   20.4168  -20.5156  -12.4547 C   0  0  0  0  0  0  0  0  0  0  0  0
   20.3814  -21.4544  -13.6074 C   0  0  2  0  0  0  0  0  0  0  0  0
   20.5601  -20.8812  -14.8916 N   0  0  0  0  0  0  0  0  0  0  0  0
   19.1146  -22.2301  -13.6136 C   0  0  0  0  0  0  0  0  0  0  0  0
   19.0228  -23.3542  -13.0621 O   0  0  0  0  0  0  0  0  0  0  0  0
   17.9847  -21.7255  -14.2374 O   0  0  0  0  0  0  0  0  0  0  0  0
  1  2  1  0
  3  4  1  6
  3  2  1  0
  5  3  1  0
  6  5  2  0
  8  9  2  0
  8  7  1  0
 10  9  1  0
 11 10  2  0
 12 11  1  0
 13 12  1  6
 13 14  1  0
 14  5  1  0
 15 27  1  0
 15 13  1  0
 16 15  2  0
 17 11  1  0
 17 18  2  0
 18  8  1  0
 20 19  1  0
 21 20  2  0
 22 20  1  0
 23 22  1  0
 24 25  1  0
 24 23  1  0
 26 25  1  1
 26 27  1  0
 28 26  1  0
 28 30  1  0
 29 28  2  0
M  END
$$$$
