SYR.pdb
     RDKit          3D

 30 30  0  0  1  0  0  0  0  0999 V2000
   28.3257  -15.1408  -21.0310 O   0  0  0  0  0  0  0  0  0  0  0  0
   27.4424  -14.4284  -20.2488 C   0  0  0  0  0  0  0  0  0  0  0  0
   27.2804  -12.9885  -20.7482 C   0  0  2  0  0  0  0  0  0  0  0  0
   28.5338  -12.3019  -20.5473 N   0  0  0  0  0  0  0  0  0  0  0  0
   26.2088  -12.3892  -19.8879 C   0  0  0  0  0  0  0  0  0  0  0  0
   26.5057  -11.9772  -18.7396 O   0  0  0  0  0  0  0  0  0  0  0  0
   22.6466   -8.7714  -25.1096 O   0  0  0  0  0  0  0  0  0  0  0  0
   22.9008   -9.1257  -23.7797 C   0  0  0  0  0  0  0  0  0  0  0  0
   21.8865   -9.4571  -22.9069 C   0  0  0  0  0  0  0  0  0  0  0  0
   22.1044   -9.8099  -21.5930 C   0  0  0  0  0  0  0  0  0  0  0  0
   23.3949   -9.8343  -21.1238 C   0  0  0  0  0  0  0  0  0  0  0  0
   23.6410  -10.2148  -19.7166 C   0  0  0  0  0  0  0  0  0  0  0  0
   23.8095  -11.7022  -19.5067 C   0  0  2  0  0  0  0  0  0  0  0  0
   24.8646  -12.2643  -20.3127 N   0  0  0  0  0  0  0  0  0  0  0  0
   22.5263  -12.3851  -19.6899 C   0  0  0  0  0  0  0  0  0  0  0  0
   22.2717  -13.0101  -20.7402 O   0  0  0  0  0  0  0  0  0  0  0  0
   24.4377   -9.5121  -21.9556 C   0  0  0  0  0  0  0  0  0  0  0  0
   24.1792   -9.1641  -23.2647 C   0  0  0  0  0  0  0  0  0  0  0  0
   19.6192   -9.5121  -15.7460 N   0  0  0  0  0  0  0  0  0  0  0  0
   18.3785   -9.9804  -15.2071 C   0  0  0  0  0  0  0  0  0  0  0  0
   17.4683   -9.1169  -14.9270 N   0  0  0  0  0  0  0  0  0  0  0  0
   18.1891  -11.3750  -14.9988 N   0  0  0  0  0  0  0  0  0  0  0  0
   19.1513  -12.2693  -15.5911 C   0  0  0  0  0  0  0  0  0  0  0  0
   18.6969  -12.8172  -16.9187 C   0  0  0  0  0  0  0  0  0  0  0  0
   19.7424  -13.7088  -17.5555 C   0  0  0  0  0  0  0  0  0  0  0  0
   20.2697  -13.1200  -18.8151 C   0  0  2  0  0  0  0  0  0  0  0  0
   21.4835  -12.3950  -18.7110 N   0  0  0  0  0  0  0  0  0  0  0  0
   19.2533  -12.2419  -19.4494 C   0  0  0  0  0  0  0  0  0  0  0  0
   19.4019  -10.9972  -19.5171 O   0  0  0  0  0  0  0  0  0  0  0  0
   18.0976  -12.7822  -19.9908 O   0  0  0  0  0  0  0  0  0  0  0  0
  1  2  1  0
  3  4  1  1
  3  2  1  0
  5  3  1  0
  6  5  2  0
  8  9  2  0
  8  7  1  0
 10  9  1  0
 11 10  2  0
 12 11  1  0
 13 12  1  6
 13 14  1  0
 14  5  1  0
 15 27  1  0
 15 13  1  0
 16 15  2  0
 17 11  1  0
 17 18  2  0
 18  8  1  0
 20 19  1  0
 21 20  2  0
 22 20  1  0
 23 22  1  0
 24 25  1  0
 24 23  1  0
 26 25  1  1
 26 27  1  0
 28 26  1  0
 28 30  1  0
 29 28  2  0
M  END
$$$$
