SYR.pdb
     RDKit          3D

 30 30  0  0  1  0  0  0  0  0999 V2000
   20.0149  -26.9042   -1.9866 O   0  0  0  0  0  0  0  0  0  0  0  0
   18.9640  -27.2283   -2.8174 C   0  0  0  0  0  0  0  0  0  0  0  0
   17.6956  -26.4485   -2.4539 C   0  0  2  0  0  0  0  0  0  0  0  0
   16.9211  -27.2549   -1.5415 N   0  0  0  0  0  0  0  0  0  0  0  0
   16.9600  -26.2641   -3.7471 C   0  0  0  0  0  0  0  0  0  0  0  0
   16.2571  -27.2054   -4.1903 O   0  0  0  0  0  0  0  0  0  0  0  0
   11.3408  -24.0372   -1.6961 O   0  0  0  0  0  0  0  0  0  0  0  0
   12.3336  -23.9417   -2.6780 C   0  0  0  0  0  0  0  0  0  0  0  0
   13.5096  -23.2559   -2.4613 C   0  0  0  0  0  0  0  0  0  0  0  0
   14.5052  -23.1441   -3.4072 C   0  0  0  0  0  0  0  0  0  0  0  0
   14.3222  -23.7440   -4.6290 C   0  0  0  0  0  0  0  0  0  0  0  0
   15.3852  -23.6336   -5.6503 C   0  0  0  0  0  0  0  0  0  0  0  0
   16.2904  -24.8420   -5.7227 C   0  0  2  0  0  0  0  0  0  0  0  0
   17.0205  -25.0673   -4.5000 N   0  0  0  0  0  0  0  0  0  0  0  0
   17.1605  -24.7497   -6.8978 C   0  0  0  0  0  0  0  0  0  0  0  0
   18.2033  -24.0637   -6.8768 O   0  0  0  0  0  0  0  0  0  0  0  0
   13.1675  -24.4377   -4.8909 C   0  0  0  0  0  0  0  0  0  0  0  0
   12.1940  -24.5273   -3.9183 C   0  0  0  0  0  0  0  0  0  0  0  0
   20.4805  -28.2478  -13.1767 N   0  0  0  0  0  0  0  0  0  0  0  0
   20.9976  -26.9178  -13.2902 C   0  0  0  0  0  0  0  0  0  0  0  0
   21.6811  -26.6143  -14.3357 N   0  0  0  0  0  0  0  0  0  0  0  0
   20.7430  -25.9782  -12.2528 N   0  0  0  0  0  0  0  0  0  0  0  0
   19.8998  -26.4054  -11.1651 C   0  0  0  0  0  0  0  0  0  0  0  0
   18.4324  -26.2840  -11.4835 C   0  0  0  0  0  0  0  0  0  0  0  0
   17.5647  -26.4856  -10.2588 C   0  0  0  0  0  0  0  0  0  0  0  0
   17.7378  -25.3813   -9.2780 C   0  0  2  0  0  0  0  0  0  0  0  0
   16.8992  -25.4171   -8.1357 N   0  0  0  0  0  0  0  0  0  0  0  0
   17.5716  -24.0616   -9.9393 C   0  0  0  0  0  0  0  0  0  0  0  0
   16.4696  -23.4603   -9.9515 O   0  0  0  0  0  0  0  0  0  0  0  0
   18.6445  -23.4511  -10.5690 O   0  0  0  0  0  0  0  0  0  0  0  0
  1  2  1  0
  3  4  1  1
  3  2  1  0
  5  3  1  0
  6  5  2  0
  8  9  2  0
  8  7  1  0
 10  9  1  0
 11 10  2  0
 12 11  1  0
 13 12  1  1
 13 14  1  0
 14  5  1  0
 15 27  1  0
 15 13  1  0
 16 15  2  0
 17 11  1  0
 17 18  2  0
 18  8  1  0
 20 19  1  0
 21 20  2  0
 22 20  1  0
 23 22  1  0
 24 25  1  0
 24 23  1  0
 26 25  1  6
 26 27  1  0
 28 26  1  0
 28 30  1  0
 29 28  2  0
M  END
$$$$
