SYR.pdb
     RDKit          3D

 30 30  0  0  1  0  0  0  0  0999 V2000
   26.8870  -26.4546  -22.7536 O   0  0  0  0  0  0  0  0  0  0  0  0
   27.4098  -25.6493  -21.7647 C   0  0  0  0  0  0  0  0  0  0  0  0
   28.8304  -26.0771  -21.3803 C   0  0  2  0  0  0  0  0  0  0  0  0
   29.6025  -26.2043  -22.5929 N   0  0  0  0  0  0  0  0  0  0  0  0
   28.6755  -27.4108  -20.7133 C   0  0  0  0  0  0  0  0  0  0  0  0
   29.0679  -28.4427  -21.3113 O   0  0  0  0  0  0  0  0  0  0  0  0
   28.1521  -33.7101  -14.5613 O   0  0  0  0  0  0  0  0  0  0  0  0
   28.1649  -32.4811  -15.2308 C   0  0  0  0  0  0  0  0  0  0  0  0
   27.0828  -31.6273  -15.2081 C   0  0  0  0  0  0  0  0  0  0  0  0
   27.0647  -30.4118  -15.8565 C   0  0  0  0  0  0  0  0  0  0  0  0
   28.1779  -30.0263  -16.5625 C   0  0  0  0  0  0  0  0  0  0  0  0
   28.1712  -28.7225  -17.2593 C   0  0  0  0  0  0  0  0  0  0  0  0
   27.9571  -28.8287  -18.7518 C   0  0  2  0  0  0  0  0  0  0  0  0
   28.1021  -27.5637  -19.4285 N   0  0  0  0  0  0  0  0  0  0  0  0
   26.6758  -29.4817  -19.0315 C   0  0  0  0  0  0  0  0  0  0  0  0
   25.6062  -28.8380  -19.0160 O   0  0  0  0  0  0  0  0  0  0  0  0
   29.2794  -30.8430  -16.6139 C   0  0  0  0  0  0  0  0  0  0  0  0
   29.2592  -32.0525  -15.9516 C   0  0  0  0  0  0  0  0  0  0  0  0
   25.0753  -37.7710  -21.0043 N   0  0  0  0  0  0  0  0  0  0  0  0
   25.8099  -36.7041  -21.6135 C   0  0  0  0  0  0  0  0  0  0  0  0
   26.6441  -36.9913  -22.5483 N   0  0  0  0  0  0  0  0  0  0  0  0
   25.5980  -35.3684  -21.1716 N   0  0  0  0  0  0  0  0  0  0  0  0
   24.2339  -34.9215  -21.0455 C   0  0  0  0  0  0  0  0  0  0  0  0
   24.1303  -33.4793  -20.6231 C   0  0  0  0  0  0  0  0  0  0  0  0
   25.4304  -32.9594  -20.0462 C   0  0  0  0  0  0  0  0  0  0  0  0
   25.3280  -31.5233  -19.6737 C   0  0  2  0  0  0  0  0  0  0  0  0
   26.5416  -30.8724  -19.3373 N   0  0  0  0  0  0  0  0  0  0  0  0
   24.3719  -31.3393  -18.5520 C   0  0  0  0  0  0  0  0  0  0  0  0
   23.2801  -30.7384  -18.7032 O   0  0  0  0  0  0  0  0  0  0  0  0
   24.6648  -31.8335  -17.2908 O   0  0  0  0  0  0  0  0  0  0  0  0
  1  2  1  0
  3  4  1  6
  3  2  1  0
  5  3  1  0
  6  5  2  0
  8  9  2  0
  8  7  1  0
 10  9  1  0
 11 10  2  0
 12 11  1  0
 13 12  1  1
 13 14  1  0
 14  5  1  0
 15 27  1  0
 15 13  1  0
 16 15  2  0
 17 11  1  0
 17 18  2  0
 18  8  1  0
 20 19  1  0
 21 20  2  0
 22 20  1  0
 23 22  1  0
 24 25  1  0
 24 23  1  0
 26 25  1  1
 26 27  1  0
 28 26  1  0
 28 30  1  0
 29 28  2  0
M  END
$$$$
