SYR.pdb
     RDKit          3D

 30 30  0  0  1  0  0  0  0  0999 V2000
   26.3610  -24.1853  -16.4484 O   0  0  0  0  0  0  0  0  0  0  0  0
   25.4920  -23.4888  -15.6361 C   0  0  0  0  0  0  0  0  0  0  0  0
   25.4978  -21.9902  -15.9569 C   0  0  2  0  0  0  0  0  0  0  0  0
   26.8010  -21.4668  -15.6246 N   0  0  0  0  0  0  0  0  0  0  0  0
   24.4486  -21.3912  -15.0693 C   0  0  0  0  0  0  0  0  0  0  0  0
   24.7269  -21.1534  -13.8682 O   0  0  0  0  0  0  0  0  0  0  0  0
   17.6448  -16.6291  -12.1523 O   0  0  0  0  0  0  0  0  0  0  0  0
   18.6011  -17.2709  -12.9475 C   0  0  0  0  0  0  0  0  0  0  0  0
   19.9535  -17.1121  -12.7324 C   0  0  0  0  0  0  0  0  0  0  0  0
   20.9187  -17.7299  -13.4973 C   0  0  0  0  0  0  0  0  0  0  0  0
   20.5192  -18.5459  -14.5273 C   0  0  0  0  0  0  0  0  0  0  0  0
   21.5460  -19.2168  -15.3525 C   0  0  0  0  0  0  0  0  0  0  0  0
   22.1316  -20.4542  -14.7118 C   0  0  2  0  0  0  0  0  0  0  0  0
   23.1460  -21.0777  -15.5251 N   0  0  0  0  0  0  0  0  0  0  0  0
   21.0607  -21.3776  -14.3284 C   0  0  0  0  0  0  0  0  0  0  0  0
   20.5145  -22.1187  -15.1716 O   0  0  0  0  0  0  0  0  0  0  0  0
   19.1836  -18.7345  -14.7798 C   0  0  0  0  0  0  0  0  0  0  0  0
   18.2474  -18.0987  -13.9918 C   0  0  0  0  0  0  0  0  0  0  0  0
   16.1271  -23.6805   -8.9832 N   0  0  0  0  0  0  0  0  0  0  0  0
   16.4355  -25.0778   -8.9447 C   0  0  0  0  0  0  0  0  0  0  0  0
   15.4807  -25.9091   -8.7219 N   0  0  0  0  0  0  0  0  0  0  0  0
   17.7771  -25.5033   -9.1522 N   0  0  0  0  0  0  0  0  0  0  0  0
   18.7545  -24.4879   -9.4523 C   0  0  0  0  0  0  0  0  0  0  0  0
   18.6062  -23.9302  -10.8439 C   0  0  0  0  0  0  0  0  0  0  0  0
   19.6740  -22.9050  -11.1639 C   0  0  0  0  0  0  0  0  0  0  0  0
   19.5816  -22.4410  -12.5737 C   0  0  2  0  0  0  0  0  0  0  0  0
   20.5615  -21.5069  -12.9942 N   0  0  0  0  0  0  0  0  0  0  0  0
   18.2396  -21.8675  -12.8504 C   0  0  0  0  0  0  0  0  0  0  0  0
   17.9259  -20.7080  -12.4853 O   0  0  0  0  0  0  0  0  0  0  0  0
   17.2850  -22.6086  -13.5286 O   0  0  0  0  0  0  0  0  0  0  0  0
  1  2  1  0
  3  4  1  1
  3  2  1  0
  5  3  1  0
  6  5  2  0
  8  9  2  0
  8  7  1  0
 10  9  1  0
 11 10  2  0
 12 11  1  0
 13 12  1  6
 13 14  1  0
 14  5  1  0
 15 27  1  0
 15 13  1  0
 16 15  2  0
 17 11  1  0
 17 18  2  0
 18  8  1  0
 20 19  1  0
 21 20  2  0
 22 20  1  0
 23 22  1  0
 24 25  1  0
 24 23  1  0
 26 25  1  1
 26 27  1  0
 28 26  1  0
 28 30  1  0
 29 28  2  0
M  END
$$$$
