SYR.pdb
     RDKit          3D

 30 30  0  0  1  0  0  0  0  0999 V2000
   28.6589  -20.1805  -20.2344 O   0  0  0  0  0  0  0  0  0  0  0  0
   28.0580  -20.7327  -19.1236 C   0  0  0  0  0  0  0  0  0  0  0  0
   29.0919  -21.1582  -18.0753 C   0  0  2  0  0  0  0  0  0  0  0  0
   29.7516  -22.3485  -18.5554 N   0  0  0  0  0  0  0  0  0  0  0  0
   28.3006  -21.4584  -16.8379 C   0  0  0  0  0  0  0  0  0  0  0  0
   27.9118  -22.6342  -16.6310 O   0  0  0  0  0  0  0  0  0  0  0  0
   24.9411  -20.7618   -8.6516 O   0  0  0  0  0  0  0  0  0  0  0  0
   25.6325  -20.5463   -9.8492 C   0  0  0  0  0  0  0  0  0  0  0  0
   25.2418  -19.5816  -10.7531 C   0  0  0  0  0  0  0  0  0  0  0  0
   25.9011  -19.3455  -11.9397 C   0  0  0  0  0  0  0  0  0  0  0  0
   27.0035  -20.1066  -12.2424 C   0  0  0  0  0  0  0  0  0  0  0  0
   27.7210  -19.8598  -13.5111 C   0  0  0  0  0  0  0  0  0  0  0  0
   27.2611  -20.7363  -14.6533 C   0  0  2  0  0  0  0  0  0  0  0  0
   27.9674  -20.4696  -15.8818 N   0  0  0  0  0  0  0  0  0  0  0  0
   25.8061  -20.6483  -14.8013 C   0  0  0  0  0  0  0  0  0  0  0  0
   25.2635  -19.6148  -15.2439 O   0  0  0  0  0  0  0  0  0  0  0  0
   27.4303  -21.0791  -11.3733 C   0  0  0  0  0  0  0  0  0  0  0  0
   26.7438  -21.2854  -10.1952 C   0  0  0  0  0  0  0  0  0  0  0  0
   18.2298  -22.2298  -11.5061 N   0  0  0  0  0  0  0  0  0  0  0  0
   19.1263  -23.1992  -12.0591 C   0  0  0  0  0  0  0  0  0  0  0  0
   18.6515  -24.3404  -12.4118 N   0  0  0  0  0  0  0  0  0  0  0  0
   20.5043  -22.8754  -12.2015 N   0  0  0  0  0  0  0  0  0  0  0  0
   20.9010  -21.5232  -11.9005 C   0  0  0  0  0  0  0  0  0  0  0  0
   21.4953  -20.8126  -13.0885 C   0  0  0  0  0  0  0  0  0  0  0  0
   23.0071  -20.9000  -13.1075 C   0  0  0  0  0  0  0  0  0  0  0  0
   23.5004  -21.5779  -14.3357 C   0  0  2  0  0  0  0  0  0  0  0  0
   24.9064  -21.7071  -14.4615 N   0  0  0  0  0  0  0  0  0  0  0  0
   22.9820  -20.9014  -15.5523 C   0  0  0  0  0  0  0  0  0  0  0  0
   22.1731  -21.4641  -16.3301 O   0  0  0  0  0  0  0  0  0  0  0  0
   23.3840  -19.6125  -15.8648 O   0  0  0  0  0  0  0  0  0  0  0  0
  1  2  1  0
  3  4  1  6
  3  2  1  0
  5  3  1  0
  6  5  2  0
  8  9  2  0
  8  7  1  0
 10  9  1  0
 11 10  2  0
 12 11  1  0
 13 12  1  1
 13 14  1  0
 14  5  1  0
 15 27  1  0
 15 13  1  0
 16 15  2  0
 17 11  1  0
 17 18  2  0
 18  8  1  0
 20 19  1  0
 21 20  2  0
 22 20  1  0
 23 22  1  0
 24 25  1  0
 24 23  1  0
 26 25  1  1
 26 27  1  0
 28 26  1  0
 28 30  1  0
 29 28  2  0
M  END
$$$$
