SYR.pdb
     RDKit          3D

 30 30  0  0  1  0  0  0  0  0999 V2000
   28.3780  -20.8958  -20.0460 O   0  0  0  0  0  0  0  0  0  0  0  0
   27.8746  -20.9021  -18.7629 C   0  0  0  0  0  0  0  0  0  0  0  0
   28.8378  -21.5793  -17.7818 C   0  0  2  0  0  0  0  0  0  0  0  0
   29.2005  -22.8653  -18.3271 N   0  0  0  0  0  0  0  0  0  0  0  0
   28.0572  -21.7475  -16.5130 C   0  0  0  0  0  0  0  0  0  0  0  0
   27.5736  -22.8729  -16.2372 O   0  0  0  0  0  0  0  0  0  0  0  0
   25.1121  -20.4469   -8.2506 O   0  0  0  0  0  0  0  0  0  0  0  0
   25.7478  -20.3156   -9.4905 C   0  0  0  0  0  0  0  0  0  0  0  0
   25.3363  -19.3908  -10.4264 C   0  0  0  0  0  0  0  0  0  0  0  0
   25.9411  -19.2375  -11.6548 C   0  0  0  0  0  0  0  0  0  0  0  0
   27.0079  -20.0438  -11.9681 C   0  0  0  0  0  0  0  0  0  0  0  0
   27.6669  -19.8857  -13.2819 C   0  0  0  0  0  0  0  0  0  0  0  0
   27.1509  -20.8318  -14.3417 C   0  0  2  0  0  0  0  0  0  0  0  0
   27.8370  -20.6874  -15.6017 N   0  0  0  0  0  0  0  0  0  0  0  0
   25.6967  -20.7037  -14.4663 C   0  0  0  0  0  0  0  0  0  0  0  0
   25.1806  -19.7038  -15.0070 O   0  0  0  0  0  0  0  0  0  0  0  0
   27.4534  -20.9791  -11.0682 C   0  0  0  0  0  0  0  0  0  0  0  0
   26.8218  -21.1025   -9.8485 C   0  0  0  0  0  0  0  0  0  0  0  0
   18.4820  -24.3839  -11.7023 N   0  0  0  0  0  0  0  0  0  0  0  0
   18.0156  -23.9130  -12.9711 C   0  0  0  0  0  0  0  0  0  0  0  0
   16.7685  -23.6280  -13.0971 N   0  0  0  0  0  0  0  0  0  0  0  0
   18.9365  -23.7746  -14.0466 N   0  0  0  0  0  0  0  0  0  0  0  0
   20.3371  -23.9228  -13.7419 C   0  0  0  0  0  0  0  0  0  0  0  0
   21.1099  -22.6417  -13.9174 C   0  0  0  0  0  0  0  0  0  0  0  0
   22.6055  -22.8605  -13.8228 C   0  0  0  0  0  0  0  0  0  0  0  0
   23.3613  -21.6237  -14.1551 C   0  0  2  0  0  0  0  0  0  0  0  0
   24.7683  -21.6834  -13.9929 N   0  0  0  0  0  0  0  0  0  0  0  0
   22.8488  -20.4697  -13.3728 C   0  0  0  0  0  0  0  0  0  0  0  0
   23.1170  -20.3225  -12.1553 O   0  0  0  0  0  0  0  0  0  0  0  0
   22.0496  -19.5115  -13.9758 O   0  0  0  0  0  0  0  0  0  0  0  0
  1  2  1  0
  3  4  1  6
  3  2  1  0
  5  3  1  0
  6  5  2  0
  8  9  2  0
  8  7  1  0
 10  9  1  0
 11 10  2  0
 12 11  1  0
 13 12  1  1
 13 14  1  0
 14  5  1  0
 15 27  1  0
 15 13  1  0
 16 15  2  0
 17 11  1  0
 17 18  2  0
 18  8  1  0
 20 19  1  0
 21 20  2  0
 22 20  1  0
 23 22  1  0
 24 25  1  0
 24 23  1  0
 26 25  1  1
 26 27  1  0
 28 26  1  0
 28 30  1  0
 29 28  2  0
M  END
$$$$
