YAS.pdb
     RDKit          3D

 24 24  0  0  1  0  0  0  0  0999 V2000
    5.4092  -10.5480   28.4079 O   0  0  0  0  0  0  0  0  0  0  0  0
    6.0907  -11.4397   27.5689 C   0  0  0  0  0  0  0  0  0  0  0  0
    7.3823  -11.8264   27.8560 C   0  0  0  0  0  0  0  0  0  0  0  0
    8.0601  -12.7141   27.0204 C   0  0  0  0  0  0  0  0  0  0  0  0
    7.4736  -13.2333   25.8894 C   0  0  0  0  0  0  0  0  0  0  0  0
    8.2085  -14.1795   25.0015 C   0  0  0  0  0  0  0  0  0  0  0  0
    7.3240  -15.3372   24.5858 C   0  0  2  0  0  0  0  0  0  0  0  0
    7.1074  -16.2233   25.7141 N   0  0  0  0  0  0  0  0  0  0  0  0
    7.8315  -16.1114   23.4539 C   0  0  0  0  0  0  0  0  0  0  0  0
    8.4473  -17.1685   23.6334 O   0  0  0  0  0  0  0  0  0  0  0  0
    6.1838  -12.8432   25.6083 C   0  0  0  0  0  0  0  0  0  0  0  0
    5.4987  -11.9559   26.4388 C   0  0  0  0  0  0  0  0  0  0  0  0
    7.9617  -15.4728   19.7041 C   0  0  0  0  0  0  0  0  0  0  0  0
    8.2383  -16.2749   20.9716 C   0  0  2  0  0  0  0  0  0  0  0  0
    7.6210  -15.6577   22.1214 N   0  0  0  0  0  0  0  0  0  0  0  0
    9.7058  -16.4354   21.0982 C   0  0  0  0  0  0  0  0  0  0  0  0
   10.4658  -15.4181   21.0874 O   0  0  0  0  0  0  0  0  0  0  0  0
   11.5316  -19.6284   22.8857 O   0  0  0  0  0  0  0  0  0  0  0  0
   12.2070  -18.4286   22.6691 C   0  0  0  0  0  0  0  0  0  0  0  0
   11.7870  -17.8261   21.3432 C   0  0  2  0  0  0  0  0  0  0  0  0
   10.3650  -17.6819   21.2377 N   0  0  0  0  0  0  0  0  0  0  0  0
   12.4189  -18.5990   20.2660 C   0  0  0  0  0  0  0  0  0  0  0  0
   13.6513  -18.7691   20.2534 O   0  0  0  0  0  0  0  0  0  0  0  0
   11.6380  -19.1363   19.2671 O   0  0  0  0  0  0  0  0  0  0  0  0
  1  2  1  0
  2 12  2  0
  2  3  1  0
  3  4  2  0
  4  5  1  0
  5  6  1  0
  7  6  1  0
  7  8  1  1
  9  7  1  0
  9 10  2  0
 11  5  2  0
 12 11  1  0
 14 13  1  6
 14 15  1  0
 14 16  1  0
 15  9  1  0
 16 17  2  0
 19 18  1  0
 20 19  1  1
 21 16  1  0
 21 20  1  0
 22 20  1  0
 22 24  1  0
 23 22  2  0
M  END
$$$$
