YAS.pdb
     RDKit          3D

 24 24  0  0  1  0  0  0  0  0999 V2000
    5.7588  -10.5875   28.2820 O   0  0  0  0  0  0  0  0  0  0  0  0
    6.3118  -11.6466   27.5498 C   0  0  0  0  0  0  0  0  0  0  0  0
    7.4008  -12.3407   28.0321 C   0  0  0  0  0  0  0  0  0  0  0  0
    7.9508  -13.3948   27.3028 C   0  0  0  0  0  0  0  0  0  0  0  0
    7.4345  -13.7797   26.0870 C   0  0  0  0  0  0  0  0  0  0  0  0
    8.0322  -14.9063   25.3142 C   0  0  0  0  0  0  0  0  0  0  0  0
    6.9638  -15.6980   24.5881 C   0  0  2  0  0  0  0  0  0  0  0  0
    6.6225  -16.8834   25.3520 N   0  0  0  0  0  0  0  0  0  0  0  0
    7.3201  -16.0878   23.2246 C   0  0  0  0  0  0  0  0  0  0  0  0
    7.5799  -17.2649   22.9487 O   0  0  0  0  0  0  0  0  0  0  0  0
    6.3472  -13.0825   25.6109 C   0  0  0  0  0  0  0  0  0  0  0  0
    5.7910  -12.0270   26.3341 C   0  0  0  0  0  0  0  0  0  0  0  0
    7.5619  -14.2109   19.9210 C   0  0  0  0  0  0  0  0  0  0  0  0
    7.7199  -15.4297   20.8244 C   0  0  2  0  0  0  0  0  0  0  0  0
    7.3716  -15.1129   22.1891 N   0  0  0  0  0  0  0  0  0  0  0  0
    9.1025  -15.9384   20.6658 C   0  0  0  0  0  0  0  0  0  0  0  0
    9.5192  -16.3198   19.5285 O   0  0  0  0  0  0  0  0  0  0  0  0
   11.9074  -16.1367   23.8497 O   0  0  0  0  0  0  0  0  0  0  0  0
   12.3388  -15.8545   22.5548 C   0  0  0  0  0  0  0  0  0  0  0  0
   11.3966  -16.4777   21.5442 C   0  0  2  0  0  0  0  0  0  0  0  0
   10.0434  -16.0397   21.7204 N   0  0  0  0  0  0  0  0  0  0  0  0
   11.5914  -17.9332   21.5704 C   0  0  0  0  0  0  0  0  0  0  0  0
   10.6504  -18.6883   21.8739 O   0  0  0  0  0  0  0  0  0  0  0  0
   12.8245  -18.4594   21.2561 O   0  0  0  0  0  0  0  0  0  0  0  0
  1  2  1  0
  2 12  2  0
  2  3  1  0
  3  4  2  0
  4  5  1  0
  5  6  1  0
  7  6  1  0
  7  8  1  1
  9  7  1  0
  9 10  2  0
 11  5  2  0
 12 11  1  0
 14 13  1  6
 14 15  1  0
 14 16  1  0
 15  9  1  0
 16 17  2  0
 19 18  1  0
 20 19  1  1
 21 16  1  0
 21 20  1  0
 22 20  1  0
 22 24  1  0
 23 22  2  0
M  END
$$$$
