YAS.pdb
     RDKit          3D

 24 24  0  0  1  0  0  0  0  0999 V2000
    8.0337  -12.4164   16.5481 O   0  0  0  0  0  0  0  0  0  0  0  0
    7.8626  -13.0423   17.7901 C   0  0  0  0  0  0  0  0  0  0  0  0
    8.6535  -12.6976   18.8653 C   0  0  0  0  0  0  0  0  0  0  0  0
    8.4827  -13.3210   20.1012 C   0  0  0  0  0  0  0  0  0  0  0  0
    7.5290  -14.2937   20.2947 C   0  0  0  0  0  0  0  0  0  0  0  0
    7.3569  -14.9558   21.6197 C   0  0  0  0  0  0  0  0  0  0  0  0
    8.2519  -16.1721   21.7430 C   0  0  2  0  0  0  0  0  0  0  0  0
    7.9189  -17.1370   20.7118 N   0  0  0  0  0  0  0  0  0  0  0  0
    8.2080  -16.8267   23.0497 C   0  0  0  0  0  0  0  0  0  0  0  0
    7.3302  -17.6565   23.3144 O   0  0  0  0  0  0  0  0  0  0  0  0
    6.7426  -14.6333   19.2172 C   0  0  0  0  0  0  0  0  0  0  0  0
    6.9068  -14.0147   17.9776 C   0  0  0  0  0  0  0  0  0  0  0  0
    9.7759  -18.6527   25.0817 C   0  0  0  0  0  0  0  0  0  0  0  0
    9.2818  -17.2255   25.2951 C   0  0  2  0  0  0  0  0  0  0  0  0
    9.1817  -16.5180   24.0408 N   0  0  0  0  0  0  0  0  0  0  0  0
   10.1810  -16.5738   26.2760 C   0  0  0  0  0  0  0  0  0  0  0  0
   11.4072  -16.8982   26.3366 O   0  0  0  0  0  0  0  0  0  0  0  0
    8.8005  -13.5887   28.7763 O   0  0  0  0  0  0  0  0  0  0  0  0
   10.1754  -13.5733   28.5486 C   0  0  0  0  0  0  0  0  0  0  0  0
   10.6515  -14.9534   28.1410 C   0  0  2  0  0  0  0  0  0  0  0  0
    9.7734  -15.5736   27.1933 N   0  0  0  0  0  0  0  0  0  0  0  0
   10.9052  -15.7311   29.3608 C   0  0  0  0  0  0  0  0  0  0  0  0
   10.3051  -16.8027   29.5596 O   0  0  0  0  0  0  0  0  0  0  0  0
   11.8134  -15.2669   30.2860 O   0  0  0  0  0  0  0  0  0  0  0  0
  1  2  1  0
  2 12  2  0
  2  3  1  0
  3  4  2  0
  4  5  1  0
  5  6  1  0
  7  6  1  0
  7  8  1  6
  9  7  1  0
  9 10  2  0
 11  5  2  0
 12 11  1  0
 14 13  1  6
 14 15  1  0
 14 16  1  0
 15  9  1  0
 16 17  2  0
 19 18  1  0
 20 19  1  1
 21 16  1  0
 21 20  1  0
 22 20  1  0
 22 24  1  0
 23 22  2  0
M  END
$$$$
