YAS.pdb
     RDKit          3D

 24 24  0  0  1  0  0  0  0  0999 V2000
    5.7912  -12.3131   18.9122 O   0  0  0  0  0  0  0  0  0  0  0  0
    7.0941  -12.7728   19.1460 C   0  0  0  0  0  0  0  0  0  0  0  0
    7.3221  -13.8382   19.9906 C   0  0  0  0  0  0  0  0  0  0  0  0
    8.6192  -14.2952   20.2230 C   0  0  0  0  0  0  0  0  0  0  0  0
    9.7106  -13.7080   19.6255 C   0  0  0  0  0  0  0  0  0  0  0  0
   11.0934  -14.2029   19.8833 C   0  0  0  0  0  0  0  0  0  0  0  0
   11.7153  -14.7677   18.6224 C   0  0  2  0  0  0  0  0  0  0  0  0
   10.8633  -15.8061   18.0738 N   0  0  0  0  0  0  0  0  0  0  0  0
   13.0679  -15.2948   18.7976 C   0  0  0  0  0  0  0  0  0  0  0  0
   13.2594  -16.5030   18.9789 O   0  0  0  0  0  0  0  0  0  0  0  0
    9.4762  -12.6446   18.7834 C   0  0  0  0  0  0  0  0  0  0  0  0
    8.1820  -12.1812   18.5455 C   0  0  0  0  0  0  0  0  0  0  0  0
   16.5519  -13.8368   18.4856 C   0  0  0  0  0  0  0  0  0  0  0  0
   15.5441  -14.8647   18.9900 C   0  0  2  0  0  0  0  0  0  0  0  0
   14.1901  -14.4203   18.7599 N   0  0  0  0  0  0  0  0  0  0  0  0
   15.8467  -15.1385   20.4144 C   0  0  0  0  0  0  0  0  0  0  0  0
   16.9778  -15.6072   20.7514 O   0  0  0  0  0  0  0  0  0  0  0  0
   14.3019  -16.3411   24.7883 O   0  0  0  0  0  0  0  0  0  0  0  0
   14.0124  -16.0028   23.4676 C   0  0  0  0  0  0  0  0  0  0  0  0
   15.1971  -15.2965   22.8390 C   0  0  2  0  0  0  0  0  0  0  0  0
   14.9431  -14.9115   21.4820 N   0  0  0  0  0  0  0  0  0  0  0  0
   16.3892  -16.1305   23.0398 C   0  0  0  0  0  0  0  0  0  0  0  0
   17.3975  -15.6622   23.5983 O   0  0  0  0  0  0  0  0  0  0  0  0
   16.3853  -17.4373   22.6057 O   0  0  0  0  0  0  0  0  0  0  0  0
  1  2  1  0
  2 12  2  0
  2  3  1  0
  3  4  2  0
  4  5  1  0
  5  6  1  0
  7  6  1  0
  7  8  1  1
  9  7  1  0
  9 10  2  0
 11  5  2  0
 12 11  1  0
 14 13  1  1
 14 15  1  0
 14 16  1  0
 15  9  1  0
 16 17  2  0
 19 18  1  0
 20 19  1  6
 21 16  1  0
 21 20  1  0
 22 20  1  0
 22 24  1  0
 23 22  2  0
M  END
$$$$
