YAS.pdb
     RDKit          3D

 24 24  0  0  1  0  0  0  0  0999 V2000
    4.3947  -10.2135   26.8655 O   0  0  0  0  0  0  0  0  0  0  0  0
    5.2995  -11.2488   26.5949 C   0  0  0  0  0  0  0  0  0  0  0  0
    5.9230  -11.3340   25.3684 C   0  0  0  0  0  0  0  0  0  0  0  0
    6.8234  -12.3648   25.0997 C   0  0  0  0  0  0  0  0  0  0  0  0
    7.1221  -13.3267   26.0370 C   0  0  0  0  0  0  0  0  0  0  0  0
    8.0842  -14.4260   25.7382 C   0  0  0  0  0  0  0  0  0  0  0  0
    7.4612  -15.4646   24.8278 C   0  0  2  0  0  0  0  0  0  0  0  0
    6.3605  -16.1212   25.5080 N   0  0  0  0  0  0  0  0  0  0  0  0
    8.3952  -16.4750   24.3330 C   0  0  0  0  0  0  0  0  0  0  0  0
    8.5602  -17.5386   24.9417 O   0  0  0  0  0  0  0  0  0  0  0  0
    6.4961  -13.2359   27.2597 C   0  0  0  0  0  0  0  0  0  0  0  0
    5.5942  -12.2082   27.5366 C   0  0  0  0  0  0  0  0  0  0  0  0
   10.7720  -16.6333   21.3606 C   0  0  0  0  0  0  0  0  0  0  0  0
   10.1479  -17.1512   22.6523 C   0  0  2  0  0  0  0  0  0  0  0  0
    9.1306  -16.2483   23.1358 N   0  0  0  0  0  0  0  0  0  0  0  0
   11.2416  -17.3904   23.6230 C   0  0  0  0  0  0  0  0  0  0  0  0
   11.9182  -16.4177   24.0796 O   0  0  0  0  0  0  0  0  0  0  0  0
   11.3314  -20.2495   26.3883 O   0  0  0  0  0  0  0  0  0  0  0  0
   12.2636  -19.2135   26.4070 C   0  0  0  0  0  0  0  0  0  0  0  0
   12.7169  -18.8947   24.9963 C   0  0  2  0  0  0  0  0  0  0  0  0
   11.6143  -18.6681   24.1091 N   0  0  0  0  0  0  0  0  0  0  0  0
   13.6592  -19.9372   24.5693 C   0  0  0  0  0  0  0  0  0  0  0  0
   13.4451  -20.5927   23.5338 O   0  0  0  0  0  0  0  0  0  0  0  0
   14.7843  -20.1863   25.3233 O   0  0  0  0  0  0  0  0  0  0  0  0
  1  2  1  0
  2 12  2  0
  2  3  1  0
  3  4  2  0
  4  5  1  0
  5  6  1  0
  7  6  1  0
  7  8  1  1
  9  7  1  0
  9 10  2  0
 11  5  2  0
 12 11  1  0
 14 13  1  6
 14 15  1  0
 14 16  1  0
 15  9  1  0
 16 17  2  0
 19 18  1  0
 20 19  1  1
 21 16  1  0
 21 20  1  0
 22 20  1  0
 22 24  1  0
 23 22  2  0
M  END
$$$$
