YAS.pdb
     RDKit          3D

 24 24  0  0  1  0  0  0  0  0999 V2000
    7.4262  -11.5808   17.8348 O   0  0  0  0  0  0  0  0  0  0  0  0
    7.8716  -12.4960   18.7978 C   0  0  0  0  0  0  0  0  0  0  0  0
    9.2146  -12.6163   19.0844 C   0  0  0  0  0  0  0  0  0  0  0  0
    9.6573  -13.5276   20.0432 C   0  0  0  0  0  0  0  0  0  0  0  0
    8.7815  -14.3336   20.7333 C   0  0  0  0  0  0  0  0  0  0  0  0
    9.2659  -15.3065   21.7543 C   0  0  0  0  0  0  0  0  0  0  0  0
   10.1449  -16.3675   21.1240 C   0  0  2  0  0  0  0  0  0  0  0  0
    9.4120  -17.0604   20.0809 N   0  0  0  0  0  0  0  0  0  0  0  0
   10.6844  -17.3460   22.0671 C   0  0  0  0  0  0  0  0  0  0  0  0
    9.9579  -18.2130   22.5668 O   0  0  0  0  0  0  0  0  0  0  0  0
    7.4418  -14.2087   20.4425 C   0  0  0  0  0  0  0  0  0  0  0  0
    6.9907  -13.2997   19.4850 C   0  0  0  0  0  0  0  0  0  0  0  0
   14.1774  -18.3186   23.1395 C   0  0  0  0  0  0  0  0  0  0  0  0
   12.6642  -18.2702   23.3242 C   0  0  2  0  0  0  0  0  0  0  0  0
   12.0617  -17.3157   22.4243 N   0  0  0  0  0  0  0  0  0  0  0  0
   12.3881  -17.9966   24.7541 C   0  0  0  0  0  0  0  0  0  0  0  0
   12.5260  -16.8239   25.2211 O   0  0  0  0  0  0  0  0  0  0  0  0
    9.7030  -19.9336   27.0307 O   0  0  0  0  0  0  0  0  0  0  0  0
   10.2813  -18.7379   27.4530 C   0  0  0  0  0  0  0  0  0  0  0  0
   11.7501  -18.7092   27.0801 C   0  0  2  0  0  0  0  0  0  0  0  0
   11.9629  -18.9739   25.6878 N   0  0  0  0  0  0  0  0  0  0  0  0
   12.4761  -19.5917   28.0027 C   0  0  0  0  0  0  0  0  0  0  0  0
   13.1426  -20.5470   27.5656 O   0  0  0  0  0  0  0  0  0  0  0  0
   12.4154  -19.3556   29.3580 O   0  0  0  0  0  0  0  0  0  0  0  0
  1  2  1  0
  2 12  2  0
  2  3  1  0
  3  4  2  0
  4  5  1  0
  5  6  1  0
  7  6  1  0
  7  8  1  6
  9  7  1  0
  9 10  2  0
 11  5  2  0
 12 11  1  0
 14 13  1  1
 14 15  1  0
 14 16  1  0
 15  9  1  0
 16 17  2  0
 19 18  1  0
 20 19  1  1
 21 16  1  0
 21 20  1  0
 22 20  1  0
 22 24  1  0
 23 22  2  0
M  END
$$$$
