YAS.pdb
     RDKit          3D

 24 24  0  0  1  0  0  0  0  0999 V2000
   10.3970  -14.2814   30.7757 O   0  0  0  0  0  0  0  0  0  0  0  0
   10.5455  -14.6793   29.4403 C   0  0  0  0  0  0  0  0  0  0  0  0
   11.4839  -14.0786   28.6286 C   0  0  0  0  0  0  0  0  0  0  0  0
   11.6311  -14.4751   27.2995 C   0  0  0  0  0  0  0  0  0  0  0  0
   10.8547  -15.4700   26.7515 C   0  0  0  0  0  0  0  0  0  0  0  0
   11.0185  -15.8841   25.3284 C   0  0  0  0  0  0  0  0  0  0  0  0
   10.9566  -17.3914   25.1875 C   0  0  2  0  0  0  0  0  0  0  0  0
   11.8380  -18.0147   26.1570 N   0  0  0  0  0  0  0  0  0  0  0  0
   11.2795  -17.8887   23.8510 C   0  0  0  0  0  0  0  0  0  0  0  0
   12.4043  -18.3339   23.5943 O   0  0  0  0  0  0  0  0  0  0  0  0
    9.9195  -16.0658   27.5673 C   0  0  0  0  0  0  0  0  0  0  0  0
    9.7658  -15.6752   28.8978 C   0  0  0  0  0  0  0  0  0  0  0  0
    9.3338  -18.1285   20.5853 C   0  0  0  0  0  0  0  0  0  0  0  0
   10.5601  -18.3148   21.4730 C   0  0  2  0  0  0  0  0  0  0  0  0
   10.2977  -17.8693   22.8208 N   0  0  0  0  0  0  0  0  0  0  0  0
   11.6994  -17.6210   20.8279 C   0  0  0  0  0  0  0  0  0  0  0  0
   11.7412  -16.3523   20.7927 O   0  0  0  0  0  0  0  0  0  0  0  0
   15.4603  -18.8696   20.9793 O   0  0  0  0  0  0  0  0  0  0  0  0
   15.1081  -17.5714   20.6144 C   0  0  0  0  0  0  0  0  0  0  0  0
   13.9284  -17.5992   19.6632 C   0  0  2  0  0  0  0  0  0  0  0  0
   12.7968  -18.2799   20.2202 N   0  0  0  0  0  0  0  0  0  0  0  0
   14.3934  -18.1144   18.3689 C   0  0  0  0  0  0  0  0  0  0  0  0
   13.7854  -19.0427   17.8063 O   0  0  0  0  0  0  0  0  0  0  0  0
   15.5091  -17.5631   17.7792 O   0  0  0  0  0  0  0  0  0  0  0  0
  1  2  1  0
  2 12  2  0
  2  3  1  0
  3  4  2  0
  4  5  1  0
  5  6  1  0
  7  6  1  0
  7  8  1  1
  9  7  1  0
  9 10  2  0
 11  5  2  0
 12 11  1  0
 14 13  1  6
 14 15  1  0
 14 16  1  0
 15  9  1  0
 16 17  2  0
 19 18  1  0
 20 19  1  1
 21 16  1  0
 21 20  1  0
 22 20  1  0
 22 24  1  0
 23 22  2  0
M  END
$$$$
