YAS.pdb
     RDKit          3D

 24 24  0  0  1  0  0  0  0  0999 V2000
    5.6680  -10.8333   28.3043 O   0  0  0  0  0  0  0  0  0  0  0  0
    6.2635  -11.7924   27.4742 C   0  0  0  0  0  0  0  0  0  0  0  0
    6.3443  -11.5903   26.1130 C   0  0  0  0  0  0  0  0  0  0  0  0
    6.9372  -12.5455   25.2873 C   0  0  0  0  0  0  0  0  0  0  0  0
    7.4591  -13.7140   25.7923 C   0  0  0  0  0  0  0  0  0  0  0  0
    8.0882  -14.7297   24.9001 C   0  0  0  0  0  0  0  0  0  0  0  0
    7.0385  -15.5098   24.1351 C   0  0  2  0  0  0  0  0  0  0  0  0
    6.4134  -16.4849   25.0090 N   0  0  0  0  0  0  0  0  0  0  0  0
    7.5378  -16.1840   22.9376 C   0  0  0  0  0  0  0  0  0  0  0  0
    7.7553  -17.4013   22.9390 O   0  0  0  0  0  0  0  0  0  0  0  0
    7.3752  -13.9097   27.1524 C   0  0  0  0  0  0  0  0  0  0  0  0
    6.7838  -12.9595   27.9853 C   0  0  0  0  0  0  0  0  0  0  0  0
    8.1514  -15.0814   19.3532 C   0  0  0  0  0  0  0  0  0  0  0  0
    8.2583  -16.0510   20.5257 C   0  0  2  0  0  0  0  0  0  0  0  0
    7.7801  -15.4451   21.7456 N   0  0  0  0  0  0  0  0  0  0  0  0
    9.6621  -16.5187   20.6039 C   0  0  0  0  0  0  0  0  0  0  0  0
   10.1948  -17.1171   19.6187 O   0  0  0  0  0  0  0  0  0  0  0  0
   12.1311  -15.7116   23.8960 O   0  0  0  0  0  0  0  0  0  0  0  0
   12.7320  -15.9474   22.6607 C   0  0  0  0  0  0  0  0  0  0  0  0
   11.8456  -16.8360   21.8111 C   0  0  2  0  0  0  0  0  0  0  0  0
   10.5005  -16.3473   21.7333 N   0  0  0  0  0  0  0  0  0  0  0  0
   11.9824  -18.2169   22.2923 C   0  0  0  0  0  0  0  0  0  0  0  0
   10.9771  -18.8684   22.6280 O   0  0  0  0  0  0  0  0  0  0  0  0
   13.2328  -18.7885   22.3700 O   0  0  0  0  0  0  0  0  0  0  0  0
  1  2  1  0
  2 12  2  0
  2  3  1  0
  3  4  2  0
  4  5  1  0
  5  6  1  0
  7  6  1  0
  7  8  1  1
  9  7  1  0
  9 10  2  0
 11  5  2  0
 12 11  1  0
 14 13  1  6
 14 15  1  0
 14 16  1  0
 15  9  1  0
 16 17  2  0
 19 18  1  0
 20 19  1  1
 21 16  1  0
 21 20  1  0
 22 20  1  0
 22 24  1  0
 23 22  2  0
M  END
$$$$
