YAS.pdb
     RDKit          3D

 24 24  0  0  1  0  0  0  0  0999 V2000
    9.6879  -13.6446   31.1241 O   0  0  0  0  0  0  0  0  0  0  0  0
   10.1608  -14.4313   30.0652 C   0  0  0  0  0  0  0  0  0  0  0  0
   10.8178  -15.6180   30.3107 C   0  0  0  0  0  0  0  0  0  0  0  0
   11.2883  -16.4005   29.2563 C   0  0  0  0  0  0  0  0  0  0  0  0
   11.1174  -16.0238   27.9441 C   0  0  0  0  0  0  0  0  0  0  0  0
   11.6270  -16.8666   26.8245 C   0  0  0  0  0  0  0  0  0  0  0  0
   10.5893  -17.8807   26.3881 C   0  0  2  0  0  0  0  0  0  0  0  0
   10.3188  -18.8078   27.4709 N   0  0  0  0  0  0  0  0  0  0  0  0
   10.9453  -18.6327   25.1857 C   0  0  0  0  0  0  0  0  0  0  0  0
   11.3785  -19.7882   25.2651 O   0  0  0  0  0  0  0  0  0  0  0  0
   10.4606  -14.8377   27.7057 C   0  0  0  0  0  0  0  0  0  0  0  0
    9.9869  -14.0491   28.7545 C   0  0  0  0  0  0  0  0  0  0  0  0
   10.7512  -17.8985   21.4555 C   0  0  0  0  0  0  0  0  0  0  0  0
   11.1638  -18.7152   22.6758 C   0  0  2  0  0  0  0  0  0  0  0  0
   10.7955  -18.0429   23.8991 N   0  0  0  0  0  0  0  0  0  0  0  0
   12.6140  -18.9984   22.5656 C   0  0  0  0  0  0  0  0  0  0  0  0
   13.4662  -18.0986   22.8423 O   0  0  0  0  0  0  0  0  0  0  0  0
   13.9783  -22.7414   21.4568 O   0  0  0  0  0  0  0  0  0  0  0  0
   14.8602  -22.0017   22.2426 C   0  0  0  0  0  0  0  0  0  0  0  0
   14.5623  -20.5217   22.1081 C   0  0  2  0  0  0  0  0  0  0  0  0
   13.1575  -20.2429   22.1610 N   0  0  0  0  0  0  0  0  0  0  0  0
   15.2550  -20.0198   20.9143 C   0  0  0  0  0  0  0  0  0  0  0  0
   14.6185  -19.4459   20.0124 O   0  0  0  0  0  0  0  0  0  0  0  0
   16.6168  -20.1880   20.7979 O   0  0  0  0  0  0  0  0  0  0  0  0
  1  2  1  0
  2 12  2  0
  2  3  1  0
  3  4  2  0
  4  5  1  0
  5  6  1  0
  7  6  1  0
  7  8  1  1
  9  7  1  0
  9 10  2  0
 11  5  2  0
 12 11  1  0
 14 13  1  6
 14 15  1  0
 14 16  1  0
 15  9  1  0
 16 17  2  0
 19 18  1  0
 20 19  1  6
 21 16  1  0
 21 20  1  0
 22 20  1  0
 22 24  1  0
 23 22  2  0
M  END
$$$$
