YAS.pdb
     RDKit          3D

 24 24  0  0  1  0  0  0  0  0999 V2000
    8.7531  -12.1300   21.4396 O   0  0  0  0  0  0  0  0  0  0  0  0
    8.0947  -13.1551   20.7473 C   0  0  0  0  0  0  0  0  0  0  0  0
    8.1276  -13.2062   19.3701 C   0  0  0  0  0  0  0  0  0  0  0  0
    7.4721  -14.2269   18.6816 C   0  0  0  0  0  0  0  0  0  0  0  0
    6.7744  -15.2121   19.3416 C   0  0  0  0  0  0  0  0  0  0  0  0
    6.0747  -16.2970   18.5953 C   0  0  0  0  0  0  0  0  0  0  0  0
    7.0655  -17.2695   17.9886 C   0  0  2  0  0  0  0  0  0  0  0  0
    6.3576  -18.3766   17.3735 N   0  0  0  0  0  0  0  0  0  0  0  0
    8.0554  -17.7919   18.9295 C   0  0  0  0  0  0  0  0  0  0  0  0
    7.7115  -18.4954   19.8865 O   0  0  0  0  0  0  0  0  0  0  0  0
    6.7453  -15.1553   20.7167 C   0  0  0  0  0  0  0  0  0  0  0  0
    7.3983  -14.1379   21.4130 C   0  0  0  0  0  0  0  0  0  0  0  0
   11.7984  -18.0992   18.9925 C   0  0  0  0  0  0  0  0  0  0  0  0
   10.4553  -17.9124   19.6909 C   0  0  2  0  0  0  0  0  0  0  0  0
    9.4370  -17.4981   18.7553 N   0  0  0  0  0  0  0  0  0  0  0  0
   10.6532  -16.9655   20.8133 C   0  0  0  0  0  0  0  0  0  0  0  0
   10.9167  -15.7446   20.5838 O   0  0  0  0  0  0  0  0  0  0  0  0
    8.6540  -17.1282   23.8935 O   0  0  0  0  0  0  0  0  0  0  0  0
    9.8114  -16.5137   24.3682 C   0  0  0  0  0  0  0  0  0  0  0  0
   10.8406  -16.4142   23.2600 C   0  0  2  0  0  0  0  0  0  0  0  0
   10.5688  -17.3195   22.1827 N   0  0  0  0  0  0  0  0  0  0  0  0
   12.1756  -16.5383   23.8596 C   0  0  0  0  0  0  0  0  0  0  0  0
   12.9342  -17.4638   23.5195 O   0  0  0  0  0  0  0  0  0  0  0  0
   12.5845  -15.6222   24.8029 O   0  0  0  0  0  0  0  0  0  0  0  0
  1  2  1  0
  2 12  2  0
  2  3  1  0
  3  4  2  0
  4  5  1  0
  5  6  1  0
  7  6  1  0
  7  8  1  1
  9  7  1  0
  9 10  2  0
 11  5  2  0
 12 11  1  0
 14 13  1  6
 14 15  1  0
 14 16  1  0
 15  9  1  0
 16 17  2  0
 19 18  1  0
 20 19  1  1
 21 16  1  0
 21 20  1  0
 22 20  1  0
 22 24  1  0
 23 22  2  0
M  END
$$$$
