YAS.pdb
     RDKit          3D

 24 24  0  0  1  0  0  0  0  0999 V2000
    5.2862  -10.6668   28.4757 O   0  0  0  0  0  0  0  0  0  0  0  0
    5.9418  -11.5545   27.6122 C   0  0  0  0  0  0  0  0  0  0  0  0
    7.0756  -12.2237   28.0210 C   0  0  0  0  0  0  0  0  0  0  0  0
    7.7277  -13.1071   27.1609 C   0  0  0  0  0  0  0  0  0  0  0  0
    7.2710  -13.3434   25.8848 C   0  0  0  0  0  0  0  0  0  0  0  0
    7.9777  -14.2878   24.9725 C   0  0  0  0  0  0  0  0  0  0  0  0
    7.0353  -15.3551   24.4546 C   0  0  2  0  0  0  0  0  0  0  0  0
    6.7382  -16.3060   25.5096 N   0  0  0  0  0  0  0  0  0  0  0  0
    7.5223  -16.0747   23.2786 C   0  0  0  0  0  0  0  0  0  0  0  0
    8.1110  -17.1559   23.3952 O   0  0  0  0  0  0  0  0  0  0  0  0
    6.1385  -12.6720   25.4826 C   0  0  0  0  0  0  0  0  0  0  0  0
    5.4802  -11.7867   26.3366 C   0  0  0  0  0  0  0  0  0  0  0  0
    7.7750  -15.1681   19.5978 C   0  0  0  0  0  0  0  0  0  0  0  0
    7.9139  -16.1109   20.7888 C   0  0  2  0  0  0  0  0  0  0  0  0
    7.3231  -15.5389   21.9752 N   0  0  0  0  0  0  0  0  0  0  0  0
    9.3495  -16.4451   20.9405 C   0  0  0  0  0  0  0  0  0  0  0  0
   10.1819  -15.5535   21.2934 O   0  0  0  0  0  0  0  0  0  0  0  0
   10.7662  -20.3011   21.2825 O   0  0  0  0  0  0  0  0  0  0  0  0
   11.5838  -19.2380   21.6618 C   0  0  0  0  0  0  0  0  0  0  0  0
   11.2993  -18.0271   20.7958 C   0  0  2  0  0  0  0  0  0  0  0  0
    9.8991  -17.7319   20.7170 N   0  0  0  0  0  0  0  0  0  0  0  0
   11.9721  -18.2170   19.5042 C   0  0  0  0  0  0  0  0  0  0  0  0
   11.3342  -18.1117   18.4413 O   0  0  0  0  0  0  0  0  0  0  0  0
   13.3167  -18.5131   19.4756 O   0  0  0  0  0  0  0  0  0  0  0  0
  1  2  1  0
  2 12  2  0
  2  3  1  0
  3  4  2  0
  4  5  1  0
  5  6  1  0
  7  6  1  0
  7  8  1  1
  9  7  1  0
  9 10  2  0
 11  5  2  0
 12 11  1  0
 14 13  1  6
 14 15  1  0
 14 16  1  0
 15  9  1  0
 16 17  2  0
 19 18  1  0
 20 19  1  1
 21 16  1  0
 21 20  1  0
 22 20  1  0
 22 24  1  0
 23 22  2  0
M  END
$$$$
