YAS.pdb
     RDKit          3D

 24 24  0  0  1  0  0  0  0  0999 V2000
    5.0437  -10.4512   27.0258 O   0  0  0  0  0  0  0  0  0  0  0  0
    5.8351  -11.5328   26.6164 C   0  0  0  0  0  0  0  0  0  0  0  0
    6.5533  -11.4725   25.4413 C   0  0  0  0  0  0  0  0  0  0  0  0
    7.3408  -12.5495   25.0344 C   0  0  0  0  0  0  0  0  0  0  0  0
    7.4314  -13.7017   25.7808 C   0  0  0  0  0  0  0  0  0  0  0  0
    8.2741  -14.8482   25.3349 C   0  0  0  0  0  0  0  0  0  0  0  0
    7.5631  -15.6709   24.2799 C   0  0  2  0  0  0  0  0  0  0  0  0
    6.4994  -16.4456   24.8913 N   0  0  0  0  0  0  0  0  0  0  0  0
    8.4352  -16.5642   23.5186 C   0  0  0  0  0  0  0  0  0  0  0  0
    8.6963  -17.7000   23.9320 O   0  0  0  0  0  0  0  0  0  0  0  0
    6.7117  -13.7555   26.9531 C   0  0  0  0  0  0  0  0  0  0  0  0
    5.9217  -12.6829   27.3673 C   0  0  0  0  0  0  0  0  0  0  0  0
   10.5359  -16.1041   20.3785 C   0  0  0  0  0  0  0  0  0  0  0  0
   10.0078  -16.8882   21.5754 C   0  0  2  0  0  0  0  0  0  0  0  0
    8.9978  -16.1376   22.2829 N   0  0  0  0  0  0  0  0  0  0  0  0
   11.1658  -17.2688   22.4178 C   0  0  0  0  0  0  0  0  0  0  0  0
   12.0430  -16.4055   22.7303 O   0  0  0  0  0  0  0  0  0  0  0  0
   13.3884  -20.4251   25.3690 O   0  0  0  0  0  0  0  0  0  0  0  0
   12.2553  -20.1212   24.6164 C   0  0  0  0  0  0  0  0  0  0  0  0
   12.5324  -18.9368   23.7123 C   0  0  2  0  0  0  0  0  0  0  0  0
   11.3890  -18.5712   22.9292 N   0  0  0  0  0  0  0  0  0  0  0  0
   13.7519  -19.2197   22.9443 C   0  0  0  0  0  0  0  0  0  0  0  0
   13.7142  -19.2747   21.7020 O   0  0  0  0  0  0  0  0  0  0  0  0
   14.9408  -19.4245   23.6083 O   0  0  0  0  0  0  0  0  0  0  0  0
  1  2  1  0
  2 12  2  0
  2  3  1  0
  3  4  2  0
  4  5  1  0
  5  6  1  0
  7  6  1  0
  7  8  1  1
  9  7  1  0
  9 10  2  0
 11  5  2  0
 12 11  1  0
 14 13  1  6
 14 15  1  0
 14 16  1  0
 15  9  1  0
 16 17  2  0
 19 18  1  0
 20 19  1  6
 21 16  1  0
 21 20  1  0
 22 20  1  0
 22 24  1  0
 23 22  2  0
M  END
$$$$
