YAS.pdb
     RDKit          3D

 24 24  0  0  1  0  0  0  0  0999 V2000
   10.9986  -14.6926   30.2964 O   0  0  0  0  0  0  0  0  0  0  0  0
   10.1547  -14.7676   29.1803 C   0  0  0  0  0  0  0  0  0  0  0  0
    9.8679  -15.9833   28.5970 C   0  0  0  0  0  0  0  0  0  0  0  0
    9.0278  -16.0572   27.4860 C   0  0  0  0  0  0  0  0  0  0  0  0
    8.4583  -14.9330   26.9341 C   0  0  0  0  0  0  0  0  0  0  0  0
    7.5638  -15.0232   25.7444 C   0  0  0  0  0  0  0  0  0  0  0  0
    8.3331  -15.4604   24.5145 C   0  0  2  0  0  0  0  0  0  0  0  0
    9.5882  -14.7368   24.4338 N   0  0  0  0  0  0  0  0  0  0  0  0
    7.6039  -15.3048   23.2567 C   0  0  0  0  0  0  0  0  0  0  0  0
    6.5094  -15.8544   23.0857 O   0  0  0  0  0  0  0  0  0  0  0  0
    8.7487  -13.7222   27.5211 C   0  0  0  0  0  0  0  0  0  0  0  0
    9.5879  -13.6394   28.6325 C   0  0  0  0  0  0  0  0  0  0  0  0
    7.6413  -13.0132   20.3372 C   0  0  0  0  0  0  0  0  0  0  0  0
    7.5505  -14.4307   20.8930 C   0  0  2  0  0  0  0  0  0  0  0  0
    8.1455  -14.5125   22.2057 N   0  0  0  0  0  0  0  0  0  0  0  0
    8.1627  -15.3482   19.9037 C   0  0  0  0  0  0  0  0  0  0  0  0
    7.6179  -15.5260   18.7705 O   0  0  0  0  0  0  0  0  0  0  0  0
   11.8473  -17.2099   20.5528 O   0  0  0  0  0  0  0  0  0  0  0  0
   11.4114  -17.0767   19.2356 C   0  0  0  0  0  0  0  0  0  0  0  0
    9.8973  -17.0240   19.1906 C   0  0  2  0  0  0  0  0  0  0  0  0
    9.3584  -16.0768   20.1215 N   0  0  0  0  0  0  0  0  0  0  0  0
    9.3852  -18.3939   19.3251 C   0  0  0  0  0  0  0  0  0  0  0  0
    9.7064  -19.2692   18.5014 O   0  0  0  0  0  0  0  0  0  0  0  0
    8.5452  -18.7057   20.3709 O   0  0  0  0  0  0  0  0  0  0  0  0
  1  2  1  0
  2 12  2  0
  2  3  1  0
  3  4  2  0
  4  5  1  0
  5  6  1  0
  7  6  1  0
  7  8  1  6
  9  7  1  0
  9 10  2  0
 11  5  2  0
 12 11  1  0
 14 13  1  6
 14 15  1  0
 14 16  1  0
 15  9  1  0
 16 17  2  0
 19 18  1  0
 20 19  1  1
 21 16  1  0
 21 20  1  0
 22 20  1  0
 22 24  1  0
 23 22  2  0
M  END
$$$$
