YAS.pdb
     RDKit          3D

 24 24  0  0  1  0  0  0  0  0999 V2000
    8.4314  -12.4336   22.4369 O   0  0  0  0  0  0  0  0  0  0  0  0
    7.9941  -13.1815   21.3355 C   0  0  0  0  0  0  0  0  0  0  0  0
    8.2303  -12.7429   20.0502 C   0  0  0  0  0  0  0  0  0  0  0  0
    7.7947  -13.4878   18.9544 C   0  0  0  0  0  0  0  0  0  0  0  0
    7.1197  -14.6765   19.1105 C   0  0  0  0  0  0  0  0  0  0  0  0
    6.6559  -15.4635   17.9319 C   0  0  0  0  0  0  0  0  0  0  0  0
    7.7723  -16.3239   17.3760 C   0  0  2  0  0  0  0  0  0  0  0  0
    7.2413  -17.2445   16.3882 N   0  0  0  0  0  0  0  0  0  0  0  0
    8.5180  -17.0750   18.3849 C   0  0  0  0  0  0  0  0  0  0  0  0
    7.9783  -17.9837   19.0268 O   0  0  0  0  0  0  0  0  0  0  0  0
    6.8870  -15.1089   20.3965 C   0  0  0  0  0  0  0  0  0  0  0  0
    7.3193  -14.3700   21.4980 C   0  0  0  0  0  0  0  0  0  0  0  0
   12.0149  -17.8561   19.1669 C   0  0  0  0  0  0  0  0  0  0  0  0
   10.6514  -17.4101   19.6849 C   0  0  2  0  0  0  0  0  0  0  0  0
    9.8841  -16.7705   18.6428 N   0  0  0  0  0  0  0  0  0  0  0  0
   10.8734  -16.5523   20.8726 C   0  0  0  0  0  0  0  0  0  0  0  0
   11.2672  -15.3531   20.7333 O   0  0  0  0  0  0  0  0  0  0  0  0
    9.0875  -17.0317   24.5009 O   0  0  0  0  0  0  0  0  0  0  0  0
    9.7762  -15.8583   24.1989 C   0  0  0  0  0  0  0  0  0  0  0  0
   10.9959  -16.1721   23.3557 C   0  0  2  0  0  0  0  0  0  0  0  0
   10.6743  -16.9724   22.2111 N   0  0  0  0  0  0  0  0  0  0  0  0
   12.0328  -16.7269   24.2354 C   0  0  0  0  0  0  0  0  0  0  0  0
   12.4572  -17.8826   24.0563 O   0  0  0  0  0  0  0  0  0  0  0  0
   12.5345  -15.9591   25.2627 O   0  0  0  0  0  0  0  0  0  0  0  0
  1  2  1  0
  2 12  2  0
  2  3  1  0
  3  4  2  0
  4  5  1  0
  5  6  1  0
  7  6  1  0
  7  8  1  6
  9  7  1  0
  9 10  2  0
 11  5  2  0
 12 11  1  0
 14 13  1  6
 14 15  1  0
 14 16  1  0
 15  9  1  0
 16 17  2  0
 19 18  1  0
 20 19  1  1
 21 16  1  0
 21 20  1  0
 22 20  1  0
 22 24  1  0
 23 22  2  0
M  END
$$$$
