YAS.pdb
     RDKit          3D

 24 24  0  0  1  0  0  0  0  0999 V2000
    7.8359  -19.9387   29.6071 O   0  0  0  0  0  0  0  0  0  0  0  0
    8.0217  -19.7421   28.2322 C   0  0  0  0  0  0  0  0  0  0  0  0
    9.2695  -19.8863   27.6643 C   0  0  0  0  0  0  0  0  0  0  0  0
    9.4538  -19.6905   26.2957 C   0  0  0  0  0  0  0  0  0  0  0  0
    8.4098  -19.3495   25.4671 C   0  0  0  0  0  0  0  0  0  0  0  0
    8.6185  -19.1396   24.0056 C   0  0  0  0  0  0  0  0  0  0  0  0
    7.9820  -20.2521   23.1976 C   0  0  2  0  0  0  0  0  0  0  0  0
    8.3943  -21.5410   23.7212 N   0  0  0  0  0  0  0  0  0  0  0  0
    8.2667  -20.1992   21.7644 C   0  0  0  0  0  0  0  0  0  0  0  0
    9.2546  -20.7740   21.2922 O   0  0  0  0  0  0  0  0  0  0  0  0
    7.1664  -19.2069   26.0403 C   0  0  0  0  0  0  0  0  0  0  0  0
    6.9734  -19.4010   27.4083 C   0  0  0  0  0  0  0  0  0  0  0  0
    6.5087  -18.6123   18.7816 C   0  0  0  0  0  0  0  0  0  0  0  0
    7.6320  -19.3857   19.4645 C   0  0  2  0  0  0  0  0  0  0  0  0
    7.4051  -19.4830   20.8869 N   0  0  0  0  0  0  0  0  0  0  0  0
    8.9149  -18.7347   19.1096 C   0  0  0  0  0  0  0  0  0  0  0  0
    9.4267  -17.8636   19.8788 O   0  0  0  0  0  0  0  0  0  0  0  0
   12.2575  -20.2739   18.6515 O   0  0  0  0  0  0  0  0  0  0  0  0
   11.9579  -18.9172   18.7611 C   0  0  0  0  0  0  0  0  0  0  0  0
   10.9736  -18.5121   17.6821 C   0  0  2  0  0  0  0  0  0  0  0  0
    9.6546  -19.0131   17.9335 N   0  0  0  0  0  0  0  0  0  0  0  0
   11.5436  -18.8775   16.3788 C   0  0  0  0  0  0  0  0  0  0  0  0
   10.9068  -19.6046   15.5954 O   0  0  0  0  0  0  0  0  0  0  0  0
   12.7902  -18.4099   16.0273 O   0  0  0  0  0  0  0  0  0  0  0  0
  1  2  1  0
  2 12  2  0
  2  3  1  0
  3  4  2  0
  4  5  1  0
  5  6  1  0
  7  6  1  0
  7  8  1  1
  9  7  1  0
  9 10  2  0
 11  5  2  0
 12 11  1  0
 14 13  1  6
 14 15  1  0
 14 16  1  0
 15  9  1  0
 16 17  2  0
 19 18  1  0
 20 19  1  1
 21 16  1  0
 21 20  1  0
 22 20  1  0
 22 24  1  0
 23 22  2  0
M  END
$$$$
