HYE.pdb
     RDKit          3D

 32 33  0  0  1  0  0  0  0  0999 V2000
    8.1725  -12.7816   19.3380 N   0  0  0  0  0  0  0  0  0  0  0  0
    7.9865  -14.0784   20.0071 C   0  0  1  0  0  0  0  0  0  0  0  0
    8.6885  -15.0885   19.1063 C   0  0  0  0  0  0  0  0  0  0  0  0
    7.8535  -15.2007   17.8819 C   0  0  0  0  0  0  0  0  0  0  0  0
    8.0677  -14.6878   16.6187 C   0  0  0  0  0  0  0  0  0  0  0  0
    7.0543  -15.0156   15.7993 N   0  0  0  0  0  0  0  0  0  0  0  0
    6.1696  -15.7501   16.5339 C   0  0  0  0  0  0  0  0  0  0  0  0
    6.6663  -15.8485   17.7756 N   0  0  0  0  0  0  0  0  0  0  0  0
    8.6058  -14.0466   21.3529 C   0  0  0  0  0  0  0  0  0  0  0  0
    9.8001  -13.7008   21.4650 O   0  0  0  0  0  0  0  0  0  0  0  0
    9.6825  -14.6239   30.0423 O   0  0  0  0  0  0  0  0  0  0  0  0
    9.1153  -14.5224   28.7820 C   0  0  0  0  0  0  0  0  0  0  0  0
    8.5544  -15.6676   28.2402 C   0  0  0  0  0  0  0  0  0  0  0  0
    7.9853  -15.5433   26.9626 C   0  0  0  0  0  0  0  0  0  0  0  0
    7.9765  -14.3539   26.2713 C   0  0  0  0  0  0  0  0  0  0  0  0
    7.3487  -14.2969   24.9154 C   0  0  0  0  0  0  0  0  0  0  0  0
    8.4103  -14.4190   23.8372 C   0  0  2  0  0  0  0  0  0  0  0  0
    7.8606  -14.4025   22.5187 N   0  0  0  0  0  0  0  0  0  0  0  0
    9.3207  -15.5556   24.1109 C   0  0  0  0  0  0  0  0  0  0  0  0
    9.9613  -15.5822   25.2173 O   0  0  0  0  0  0  0  0  0  0  0  0
    8.5475  -13.2167   26.8384 C   0  0  0  0  0  0  0  0  0  0  0  0
    9.1051  -13.3313   28.0859 C   0  0  0  0  0  0  0  0  0  0  0  0
    9.4689  -16.5841   23.1590 N   0  0  0  0  0  0  0  0  0  0  0  0
   10.2662  -17.7709   23.5208 C   0  0  1  0  0  0  0  0  0  0  0  0
   11.3635  -17.9378   22.5457 C   0  0  0  0  0  0  0  0  0  0  0  0
   12.4161  -16.9036   22.5588 C   0  0  0  0  0  0  0  0  0  0  0  0
   13.4755  -16.9922   21.5536 C   0  0  0  0  0  0  0  0  0  0  0  0
   14.6569  -16.7010   21.8616 O   0  0  0  0  0  0  0  0  0  0  0  0
   10.6591  -17.6081   24.8990 C   0  0  0  0  0  0  0  0  0  0  0  0
   10.4523  -18.4983   25.7841 O   0  0  0  0  0  0  0  0  0  0  0  0
   13.2484  -17.3982   20.2339 O   0  0  0  0  0  0  0  0  0  0  0  0
   11.3022  -16.4124   25.2948 O   0  0  0  0  0  0  0  0  0  0  0  0
  2  1  1  6
  3  4  1  0
  3  2  1  0
  4  5  2  0
  5  6  1  0
  7  6  1  0
  8  4  1  0
  8  7  2  0
  9  2  1  0
  9 18  1  0
 10  9  2  0
 12 11  1  0
 13 12  2  0
 14 13  1  0
 15 14  2  0
 15 21  1  0
 17 16  1  1
 16 15  1  0
 17 18  1  0
 19 17  1  0
 20 19  2  0
 21 22  2  0
 22 12  1  0
 23 19  1  0
 24 23  1  0
 24 29  1  0
 25 26  1  0
 24 25  1  6
 26 27  1  0
 27 28  2  0
 29 32  1  0
 30 29  2  0
 31 27  1  0
M  END
$$$$
