HYE.pdb
     RDKit          3D

 32 33  0  0  1  0  0  0  0  0999 V2000
   10.5569  -14.7387   19.1810 N   0  0  0  0  0  0  0  0  0  0  0  0
    9.2352  -14.5275   19.7912 C   0  0  1  0  0  0  0  0  0  0  0  0
    8.3176  -15.5262   19.0945 C   0  0  0  0  0  0  0  0  0  0  0  0
    7.9756  -14.9252   17.7790 C   0  0  0  0  0  0  0  0  0  0  0  0
    8.5002  -13.8115   17.1553 C   0  0  0  0  0  0  0  0  0  0  0  0
    7.8980  -13.6072   15.9715 N   0  0  0  0  0  0  0  0  0  0  0  0
    6.9713  -14.5972   15.8199 C   0  0  0  0  0  0  0  0  0  0  0  0
    7.0339  -15.3735   16.9113 N   0  0  0  0  0  0  0  0  0  0  0  0
    9.3020  -14.7938   21.2473 C   0  0  0  0  0  0  0  0  0  0  0  0
   10.3880  -15.1465   21.7522 O   0  0  0  0  0  0  0  0  0  0  0  0
    8.4078  -13.5325   29.7261 O   0  0  0  0  0  0  0  0  0  0  0  0
    8.2064  -13.5161   28.3552 C   0  0  0  0  0  0  0  0  0  0  0  0
    7.0964  -14.1848   27.8649 C   0  0  0  0  0  0  0  0  0  0  0  0
    6.9106  -14.1562   26.4734 C   0  0  0  0  0  0  0  0  0  0  0  0
    7.7760  -13.5027   25.6269 C   0  0  0  0  0  0  0  0  0  0  0  0
    7.5117  -13.5125   24.1552 C   0  0  0  0  0  0  0  0  0  0  0  0
    8.1883  -14.7061   23.5058 C   0  0  2  0  0  0  0  0  0  0  0  0
    8.1488  -14.6527   22.0787 N   0  0  0  0  0  0  0  0  0  0  0  0
    7.7005  -15.9783   24.0883 C   0  0  0  0  0  0  0  0  0  0  0  0
    6.9437  -15.9368   25.1182 O   0  0  0  0  0  0  0  0  0  0  0  0
    8.8852  -12.8379   26.1452 C   0  0  0  0  0  0  0  0  0  0  0  0
    9.0725  -12.8621   27.5034 C   0  0  0  0  0  0  0  0  0  0  0  0
    8.0719  -17.2071   23.5069 N   0  0  0  0  0  0  0  0  0  0  0  0
    9.2643  -17.9019   24.0267 C   0  0  1  0  0  0  0  0  0  0  0  0
   10.4796  -17.2370   23.5131 C   0  0  0  0  0  0  0  0  0  0  0  0
   11.7668  -17.7112   24.0571 C   0  0  0  0  0  0  0  0  0  0  0  0
   12.8819  -17.8833   23.1258 C   0  0  0  0  0  0  0  0  0  0  0  0
   12.6667  -18.2990   21.9612 O   0  0  0  0  0  0  0  0  0  0  0  0
    9.1265  -17.9555   25.4615 C   0  0  0  0  0  0  0  0  0  0  0  0
    8.2947  -17.2361   26.1011 O   0  0  0  0  0  0  0  0  0  0  0  0
   14.2109  -17.5999   23.4599 O   0  0  0  0  0  0  0  0  0  0  0  0
    9.9452  -18.8419   26.1990 O   0  0  0  0  0  0  0  0  0  0  0  0
  2  1  1  6
  3  4  1  0
  3  2  1  0
  4  5  2  0
  5  6  1  0
  7  6  1  0
  8  4  1  0
  8  7  2  0
  9  2  1  0
  9 18  1  0
 10  9  2  0
 12 11  1  0
 13 12  2  0
 14 13  1  0
 15 14  2  0
 15 21  1  0
 17 16  1  1
 16 15  1  0
 17 18  1  0
 19 17  1  0
 20 19  2  0
 21 22  2  0
 22 12  1  0
 23 19  1  0
 24 23  1  0
 24 29  1  0
 25 26  1  0
 24 25  1  1
 26 27  1  0
 27 28  2  0
 29 32  1  0
 30 29  2  0
 31 27  1  0
M  END
$$$$
