HYE.pdb
     RDKit          3D

 32 33  0  0  1  0  0  0  0  0999 V2000
    9.2098  -12.8512   19.8564 N   0  0  0  0  0  0  0  0  0  0  0  0
    8.5020  -13.9837   20.4729 C   0  0  1  0  0  0  0  0  0  0  0  0
    8.6118  -15.1148   19.4563 C   0  0  0  0  0  0  0  0  0  0  0  0
    7.7618  -14.7184   18.3035 C   0  0  0  0  0  0  0  0  0  0  0  0
    6.4050  -14.8813   18.1113 C   0  0  0  0  0  0  0  0  0  0  0  0
    6.0357  -14.3867   16.9176 N   0  0  0  0  0  0  0  0  0  0  0  0
    7.1620  -13.8955   16.3242 C   0  0  0  0  0  0  0  0  0  0  0  0
    8.1821  -14.1042   17.1691 N   0  0  0  0  0  0  0  0  0  0  0  0
    9.1547  -14.3530   21.7509 C   0  0  0  0  0  0  0  0  0  0  0  0
   10.3323  -14.7673   21.7351 O   0  0  0  0  0  0  0  0  0  0  0  0
   10.6838  -15.5510   30.2891 O   0  0  0  0  0  0  0  0  0  0  0  0
   10.0479  -15.2517   29.0947 C   0  0  0  0  0  0  0  0  0  0  0  0
   10.2580  -13.9919   28.5578 C   0  0  0  0  0  0  0  0  0  0  0  0
    9.6046  -13.7089   27.3476 C   0  0  0  0  0  0  0  0  0  0  0  0
    8.7948  -14.6234   26.7149 C   0  0  0  0  0  0  0  0  0  0  0  0
    8.1341  -14.2519   25.4261 C   0  0  0  0  0  0  0  0  0  0  0  0
    9.0198  -14.6275   24.2519 C   0  0  2  0  0  0  0  0  0  0  0  0
    8.4613  -14.2416   22.9949 N   0  0  0  0  0  0  0  0  0  0  0  0
    9.4369  -16.0472   24.3307 C   0  0  0  0  0  0  0  0  0  0  0  0
    8.5817  -16.9588   24.0609 O   0  0  0  0  0  0  0  0  0  0  0  0
    8.5996  -15.8836   27.2760 C   0  0  0  0  0  0  0  0  0  0  0  0
    9.2348  -16.1664   28.4578 C   0  0  0  0  0  0  0  0  0  0  0  0
   10.7576  -16.3738   24.6980 N   0  0  0  0  0  0  0  0  0  0  0  0
   11.1462  -17.7957   24.7437 C   0  0  1  0  0  0  0  0  0  0  0  0
   12.1616  -18.0582   23.7032 C   0  0  0  0  0  0  0  0  0  0  0  0
   11.7537  -18.9462   22.5973 C   0  0  0  0  0  0  0  0  0  0  0  0
   12.7335  -19.2270   21.5478 C   0  0  0  0  0  0  0  0  0  0  0  0
   13.9179  -19.5063   21.8553 O   0  0  0  0  0  0  0  0  0  0  0  0
   11.5391  -18.0797   26.1022 C   0  0  0  0  0  0  0  0  0  0  0  0
   11.8999  -19.2372   26.4874 O   0  0  0  0  0  0  0  0  0  0  0  0
   12.4225  -19.2087   20.1836 O   0  0  0  0  0  0  0  0  0  0  0  0
   11.5267  -17.0347   27.0550 O   0  0  0  0  0  0  0  0  0  0  0  0
  2  1  1  6
  3  4  1  0
  3  2  1  0
  4  5  2  0
  5  6  1  0
  7  6  1  0
  8  4  1  0
  8  7  2  0
  9  2  1  0
  9 18  1  0
 10  9  2  0
 12 11  1  0
 13 12  2  0
 14 13  1  0
 15 14  2  0
 15 21  1  0
 17 16  1  1
 16 15  1  0
 17 18  1  0
 19 17  1  0
 20 19  2  0
 21 22  2  0
 22 12  1  0
 23 19  1  0
 24 23  1  0
 24 29  1  0
 25 26  1  0
 24 25  1  6
 26 27  1  0
 27 28  2  0
 29 32  1  0
 30 29  2  0
 31 27  1  0
M  END
$$$$
