HYE.pdb
     RDKit          3D

 32 33  0  0  1  0  0  0  0  0999 V2000
    9.7825  -16.4330   18.3291 N   0  0  0  0  0  0  0  0  0  0  0  0
    8.5952  -16.6237   19.1764 C   0  0  1  0  0  0  0  0  0  0  0  0
    8.3876  -18.1334   19.2263 C   0  0  0  0  0  0  0  0  0  0  0  0
    7.8673  -18.5234   17.8899 C   0  0  0  0  0  0  0  0  0  0  0  0
    8.5451  -18.9883   16.7812 C   0  0  0  0  0  0  0  0  0  0  0  0
    7.6917  -19.2140   15.7680 N   0  0  0  0  0  0  0  0  0  0  0  0
    6.4443  -18.8939   16.2190 C   0  0  0  0  0  0  0  0  0  0  0  0
    6.5719  -18.4831   17.4890 N   0  0  0  0  0  0  0  0  0  0  0  0
    8.8472  -16.0773   20.5306 C   0  0  0  0  0  0  0  0  0  0  0  0
    9.9323  -16.3270   21.0952 O   0  0  0  0  0  0  0  0  0  0  0  0
    7.5303  -12.3664   28.3591 O   0  0  0  0  0  0  0  0  0  0  0  0
    7.3479  -12.7750   27.0475 C   0  0  0  0  0  0  0  0  0  0  0  0
    7.8883  -11.9796   26.0500 C   0  0  0  0  0  0  0  0  0  0  0  0
    7.6922  -12.4110   24.7283 C   0  0  0  0  0  0  0  0  0  0  0  0
    7.0022  -13.5612   24.4224 C   0  0  0  0  0  0  0  0  0  0  0  0
    6.8361  -13.9595   22.9908 C   0  0  0  0  0  0  0  0  0  0  0  0
    8.0171  -14.7979   22.5363 C   0  0  2  0  0  0  0  0  0  0  0  0
    7.8730  -15.2719   21.1963 N   0  0  0  0  0  0  0  0  0  0  0  0
    8.3396  -15.8487   23.5300 C   0  0  0  0  0  0  0  0  0  0  0  0
    7.6805  -16.9443   23.5075 O   0  0  0  0  0  0  0  0  0  0  0  0
    6.4682  -14.3434   25.4441 C   0  0  0  0  0  0  0  0  0  0  0  0
    6.6561  -13.9276   26.7372 C   0  0  0  0  0  0  0  0  0  0  0  0
    9.3586  -15.6316   24.4789 N   0  0  0  0  0  0  0  0  0  0  0  0
    9.9896  -16.8019   25.1170 C   0  0  1  0  0  0  0  0  0  0  0  0
   11.2958  -17.0618   24.4773 C   0  0  0  0  0  0  0  0  0  0  0  0
   12.1630  -18.0573   25.1367 C   0  0  0  0  0  0  0  0  0  0  0  0
   13.4419  -18.3780   24.5028 C   0  0  0  0  0  0  0  0  0  0  0  0
   13.4616  -18.9806   23.4020 O   0  0  0  0  0  0  0  0  0  0  0  0
   10.0163  -16.5427   26.5356 C   0  0  0  0  0  0  0  0  0  0  0  0
    9.7065  -17.4209   27.4024 O   0  0  0  0  0  0  0  0  0  0  0  0
   14.6801  -18.0401   25.0602 O   0  0  0  0  0  0  0  0  0  0  0  0
   10.4017  -15.2616   26.9941 O   0  0  0  0  0  0  0  0  0  0  0  0
  2  1  1  6
  3  4  1  0
  3  2  1  0
  4  5  2  0
  5  6  1  0
  7  6  1  0
  8  4  1  0
  8  7  2  0
  9  2  1  0
  9 18  1  0
 10  9  2  0
 12 11  1  0
 13 12  2  0
 14 13  1  0
 15 14  2  0
 15 21  1  0
 17 16  1  1
 16 15  1  0
 17 18  1  0
 19 17  1  0
 20 19  2  0
 21 22  2  0
 22 12  1  0
 23 19  1  0
 24 23  1  0
 24 29  1  0
 25 26  1  0
 24 25  1  6
 26 27  1  0
 27 28  2  0
 29 32  1  0
 30 29  2  0
 31 27  1  0
M  END
$$$$
