HYE.pdb
     RDKit          3D

 32 33  0  0  1  0  0  0  0  0999 V2000
    7.5537  -15.5229   20.8155 N   0  0  0  0  0  0  0  0  0  0  0  0
    8.9715  -15.2640   21.1098 C   0  0  1  0  0  0  0  0  0  0  0  0
    9.2045  -13.8208   20.6765 C   0  0  0  0  0  0  0  0  0  0  0  0
    8.7335  -13.7304   19.2698 C   0  0  0  0  0  0  0  0  0  0  0  0
    7.6771  -13.0194   18.7378 C   0  0  0  0  0  0  0  0  0  0  0  0
    7.5916  -13.2242   17.4124 N   0  0  0  0  0  0  0  0  0  0  0  0
    8.6021  -14.0769   17.0750 C   0  0  0  0  0  0  0  0  0  0  0  0
    9.2719  -14.3672   18.1997 N   0  0  0  0  0  0  0  0  0  0  0  0
    9.2257  -15.4307   22.5601 C   0  0  0  0  0  0  0  0  0  0  0  0
   10.3835  -15.2672   22.9975 O   0  0  0  0  0  0  0  0  0  0  0  0
    6.9286  -10.0379   26.5949 O   0  0  0  0  0  0  0  0  0  0  0  0
    7.0019  -11.4022   26.3632 C   0  0  0  0  0  0  0  0  0  0  0  0
    5.9015  -12.1689   26.7109 C   0  0  0  0  0  0  0  0  0  0  0  0
    5.9963  -13.5487   26.4682 C   0  0  0  0  0  0  0  0  0  0  0  0
    7.1160  -14.1252   25.9146 C   0  0  0  0  0  0  0  0  0  0  0  0
    7.1433  -15.6020   25.6821 C   0  0  0  0  0  0  0  0  0  0  0  0
    8.3617  -15.9842   24.8613 C   0  0  2  0  0  0  0  0  0  0  0  0
    8.1713  -15.7725   23.4614 N   0  0  0  0  0  0  0  0  0  0  0  0
    8.8431  -17.3390   25.2196 C   0  0  0  0  0  0  0  0  0  0  0  0
    8.4244  -18.3422   24.5460 O   0  0  0  0  0  0  0  0  0  0  0  0
    8.2095  -13.3319   25.5740 C   0  0  0  0  0  0  0  0  0  0  0  0
    8.1234  -11.9837   25.8086 C   0  0  0  0  0  0  0  0  0  0  0  0
    9.7476  -17.5056   26.2872 N   0  0  0  0  0  0  0  0  0  0  0  0
   10.2741  -18.8554   26.5620 C   0  0  1  0  0  0  0  0  0  0  0  0
   11.0910  -19.3036   25.4155 C   0  0  0  0  0  0  0  0  0  0  0  0
   12.4235  -18.6846   25.2772 C   0  0  0  0  0  0  0  0  0  0  0  0
   13.3090  -19.1925   24.2291 C   0  0  0  0  0  0  0  0  0  0  0  0
   14.5465  -19.2521   24.4294 O   0  0  0  0  0  0  0  0  0  0  0  0
   10.9468  -18.7920   27.8363 C   0  0  0  0  0  0  0  0  0  0  0  0
   11.4944  -19.8048   28.3775 O   0  0  0  0  0  0  0  0  0  0  0  0
   12.8486  -19.6340   22.9836 O   0  0  0  0  0  0  0  0  0  0  0  0
   11.0065  -17.5568   28.5224 O   0  0  0  0  0  0  0  0  0  0  0  0
  2  1  1  1
  3  4  1  0
  3  2  1  0
  4  5  2  0
  5  6  1  0
  7  6  1  0
  8  4  1  0
  8  7  2  0
  9  2  1  0
  9 18  1  0
 10  9  2  0
 12 11  1  0
 13 12  2  0
 14 13  1  0
 15 14  2  0
 15 21  1  0
 17 16  1  1
 16 15  1  0
 17 18  1  0
 19 17  1  0
 20 19  2  0
 21 22  2  0
 22 12  1  0
 23 19  1  0
 24 23  1  0
 24 29  1  0
 25 26  1  0
 24 25  1  6
 26 27  1  0
 27 28  2  0
 29 32  1  0
 30 29  2  0
 31 27  1  0
M  END
$$$$
