HYE.pdb
     RDKit          3D

 32 33  0  0  1  0  0  0  0  0999 V2000
   10.3228  -18.1372   17.5595 N   0  0  0  0  0  0  0  0  0  0  0  0
    9.5650  -18.3896   18.7948 C   0  0  1  0  0  0  0  0  0  0  0  0
    9.7286  -19.8827   19.0569 C   0  0  0  0  0  0  0  0  0  0  0  0
    8.9065  -20.5750   18.0305 C   0  0  0  0  0  0  0  0  0  0  0  0
    7.5630  -20.8904   18.0428 C   0  0  0  0  0  0  0  0  0  0  0  0
    7.2193  -21.5308   16.9124 N   0  0  0  0  0  0  0  0  0  0  0  0
    8.3489  -21.6345   16.1541 C   0  0  0  0  0  0  0  0  0  0  0  0
    9.3455  -21.0574   16.8409 N   0  0  0  0  0  0  0  0  0  0  0  0
   10.1300  -17.5901   19.9071 C   0  0  0  0  0  0  0  0  0  0  0  0
   11.3566  -17.3584   19.9280 O   0  0  0  0  0  0  0  0  0  0  0  0
    7.0691  -12.3763   17.7670 O   0  0  0  0  0  0  0  0  0  0  0  0
    7.5041  -13.0452   18.9000 C   0  0  0  0  0  0  0  0  0  0  0  0
    6.7182  -14.0857   19.3684 C   0  0  0  0  0  0  0  0  0  0  0  0
    7.1766  -14.7500   20.5173 C   0  0  0  0  0  0  0  0  0  0  0  0
    8.3430  -14.3990   21.1567 C   0  0  0  0  0  0  0  0  0  0  0  0
    8.7697  -15.1549   22.3741 C   0  0  0  0  0  0  0  0  0  0  0  0
    9.7680  -16.2358   22.0008 C   0  0  2  0  0  0  0  0  0  0  0  0
    9.2968  -17.0816   20.9503 N   0  0  0  0  0  0  0  0  0  0  0  0
   10.2489  -16.9564   23.2029 C   0  0  0  0  0  0  0  0  0  0  0  0
    9.4549  -17.7613   23.8003 O   0  0  0  0  0  0  0  0  0  0  0  0
    9.1152  -13.3485   20.6655 C   0  0  0  0  0  0  0  0  0  0  0  0
    8.6731  -12.6954   19.5438 C   0  0  0  0  0  0  0  0  0  0  0  0
   11.5623  -16.7492   23.6696 N   0  0  0  0  0  0  0  0  0  0  0  0
   12.1139  -17.6876   24.6646 C   0  0  1  0  0  0  0  0  0  0  0  0
   12.2870  -19.0154   24.0402 C   0  0  0  0  0  0  0  0  0  0  0  0
   13.4612  -19.1793   23.1614 C   0  0  0  0  0  0  0  0  0  0  0  0
   13.6982  -20.4982   22.5743 C   0  0  0  0  0  0  0  0  0  0  0  0
   13.9064  -21.4868   23.3190 O   0  0  0  0  0  0  0  0  0  0  0  0
   13.3051  -17.0770   25.2019 C   0  0  0  0  0  0  0  0  0  0  0  0
   13.9374  -17.5575   26.1959 O   0  0  0  0  0  0  0  0  0  0  0  0
   13.7017  -20.7343   21.1951 O   0  0  0  0  0  0  0  0  0  0  0  0
   13.8006  -15.8938   24.6065 O   0  0  0  0  0  0  0  0  0  0  0  0
  2  1  1  6
  3  4  1  0
  3  2  1  0
  4  5  2  0
  5  6  1  0
  7  6  1  0
  8  4  1  0
  8  7  2  0
  9  2  1  0
  9 18  1  0
 10  9  2  0
 12 11  1  0
 13 12  2  0
 14 13  1  0
 15 14  2  0
 15 21  1  0
 17 16  1  1
 16 15  1  0
 17 18  1  0
 19 17  1  0
 20 19  2  0
 21 22  2  0
 22 12  1  0
 23 19  1  0
 24 23  1  0
 24 29  1  0
 25 26  1  0
 24 25  1  6
 26 27  1  0
 27 28  2  0
 29 32  1  0
 30 29  2  0
 31 27  1  0
M  END
$$$$
