HYE.pdb
     RDKit          3D

 32 33  0  0  1  0  0  0  0  0999 V2000
   10.2636  -16.5676   18.8647 N   0  0  0  0  0  0  0  0  0  0  0  0
    8.9815  -16.5858   19.5857 C   0  0  1  0  0  0  0  0  0  0  0  0
    8.6106  -18.0612   19.6884 C   0  0  0  0  0  0  0  0  0  0  0  0
    7.8889  -18.3942   18.4326 C   0  0  0  0  0  0  0  0  0  0  0  0
    7.6049  -17.5986   17.3414 C   0  0  0  0  0  0  0  0  0  0  0  0
    6.9194  -18.2933   16.4176 N   0  0  0  0  0  0  0  0  0  0  0  0
    6.7542  -19.5552   16.9098 C   0  0  0  0  0  0  0  0  0  0  0  0
    7.3407  -19.5939   18.1150 N   0  0  0  0  0  0  0  0  0  0  0  0
    9.1487  -15.9854   20.9301 C   0  0  0  0  0  0  0  0  0  0  0  0
   10.2014  -16.2003   21.5658 O   0  0  0  0  0  0  0  0  0  0  0  0
    7.0715  -12.3461   28.6401 O   0  0  0  0  0  0  0  0  0  0  0  0
    7.0618  -12.6905   27.2978 C   0  0  0  0  0  0  0  0  0  0  0  0
    6.2583  -13.7530   26.9171 C   0  0  0  0  0  0  0  0  0  0  0  0
    6.2630  -14.0859   25.5530 C   0  0  0  0  0  0  0  0  0  0  0  0
    7.0200  -13.4028   24.6295 C   0  0  0  0  0  0  0  0  0  0  0  0
    6.9715  -13.8124   23.1923 C   0  0  0  0  0  0  0  0  0  0  0  0
    8.1532  -14.7047   22.8581 C   0  0  2  0  0  0  0  0  0  0  0  0
    8.1293  -15.1673   21.5067 N   0  0  0  0  0  0  0  0  0  0  0  0
    8.3192  -15.7726   23.8719 C   0  0  0  0  0  0  0  0  0  0  0  0
    7.4176  -16.6737   23.9741 O   0  0  0  0  0  0  0  0  0  0  0  0
    7.8201  -12.3380   25.0383 C   0  0  0  0  0  0  0  0  0  0  0  0
    7.8201  -12.0078   26.3692 C   0  0  0  0  0  0  0  0  0  0  0  0
    9.4568  -15.7835   24.7034 N   0  0  0  0  0  0  0  0  0  0  0  0
    9.6687  -16.9395   25.5942 C   0  0  1  0  0  0  0  0  0  0  0  0
   10.6983  -17.8237   25.0103 C   0  0  0  0  0  0  0  0  0  0  0  0
   12.0732  -17.2893   24.9650 C   0  0  0  0  0  0  0  0  0  0  0  0
   13.0847  -18.0623   24.2440 C   0  0  0  0  0  0  0  0  0  0  0  0
   13.7551  -17.5197   23.3321 O   0  0  0  0  0  0  0  0  0  0  0  0
    9.9530  -16.4117   26.9061 C   0  0  0  0  0  0  0  0  0  0  0  0
   10.1172  -17.1536   27.9265 O   0  0  0  0  0  0  0  0  0  0  0  0
   13.3635  -19.4056   24.5191 O   0  0  0  0  0  0  0  0  0  0  0  0
   10.0559  -15.0117   27.0773 O   0  0  0  0  0  0  0  0  0  0  0  0
  2  1  1  6
  3  4  1  0
  3  2  1  0
  4  5  2  0
  5  6  1  0
  7  6  1  0
  8  4  1  0
  8  7  2  0
  9  2  1  0
  9 18  1  0
 10  9  2  0
 12 11  1  0
 13 12  2  0
 14 13  1  0
 15 14  2  0
 15 21  1  0
 17 16  1  1
 16 15  1  0
 17 18  1  0
 19 17  1  0
 20 19  2  0
 21 22  2  0
 22 12  1  0
 23 19  1  0
 24 23  1  0
 24 29  1  0
 25 26  1  0
 24 25  1  6
 26 27  1  0
 27 28  2  0
 29 32  1  0
 30 29  2  0
 31 27  1  0
M  END
$$$$
