HYE.pdb
     RDKit          3D

 32 33  0  0  1  0  0  0  0  0999 V2000
   10.0349  -16.9284   18.4283 N   0  0  0  0  0  0  0  0  0  0  0  0
    8.8681  -17.0804   19.3110 C   0  0  1  0  0  0  0  0  0  0  0  0
    8.7151  -18.5853   19.5029 C   0  0  0  0  0  0  0  0  0  0  0  0
    8.0968  -19.1005   18.2535 C   0  0  0  0  0  0  0  0  0  0  0  0
    8.6934  -19.6378   17.1311 C   0  0  0  0  0  0  0  0  0  0  0  0
    7.7652  -19.9716   16.2185 N   0  0  0  0  0  0  0  0  0  0  0  0
    6.5503  -19.6496   16.7498 C   0  0  0  0  0  0  0  0  0  0  0  0
    6.7712  -19.1302   17.9661 N   0  0  0  0  0  0  0  0  0  0  0  0
    9.1207  -16.4031   20.6045 C   0  0  0  0  0  0  0  0  0  0  0  0
   10.2599  -16.4651   21.1115 O   0  0  0  0  0  0  0  0  0  0  0  0
    7.6671  -12.3445   28.2546 O   0  0  0  0  0  0  0  0  0  0  0  0
    7.5266  -12.8053   26.9552 C   0  0  0  0  0  0  0  0  0  0  0  0
    6.6575  -13.8633   26.7436 C   0  0  0  0  0  0  0  0  0  0  0  0
    6.5297  -14.3151   25.4203 C   0  0  0  0  0  0  0  0  0  0  0  0
    7.2238  -13.7478   24.3767 C   0  0  0  0  0  0  0  0  0  0  0  0
    7.0340  -14.2804   22.9925 C   0  0  0  0  0  0  0  0  0  0  0  0
    8.2317  -15.1171   22.5805 C   0  0  2  0  0  0  0  0  0  0  0  0
    8.0863  -15.6825   21.2766 N   0  0  0  0  0  0  0  0  0  0  0  0
    8.5913  -16.0911   23.6376 C   0  0  0  0  0  0  0  0  0  0  0  0
    7.8117  -17.0805   23.8580 O   0  0  0  0  0  0  0  0  0  0  0  0
    8.0920  -12.6849   24.6163 C   0  0  0  0  0  0  0  0  0  0  0  0
    8.2214  -12.2389   25.9065 C   0  0  0  0  0  0  0  0  0  0  0  0
    9.7762  -15.9185   24.3807 N   0  0  0  0  0  0  0  0  0  0  0  0
   10.0827  -16.8821   25.4542 C   0  0  1  0  0  0  0  0  0  0  0  0
   11.3897  -17.5154   25.1834 C   0  0  0  0  0  0  0  0  0  0  0  0
   11.4323  -18.4822   24.0692 C   0  0  0  0  0  0  0  0  0  0  0  0
   12.7055  -19.1450   23.7861 C   0  0  0  0  0  0  0  0  0  0  0  0
   13.2245  -19.0441   22.6479 O   0  0  0  0  0  0  0  0  0  0  0  0
    9.9674  -16.1696   26.7030 C   0  0  0  0  0  0  0  0  0  0  0  0
   10.0316  -14.9014   26.7811 O   0  0  0  0  0  0  0  0  0  0  0  0
   13.4036  -19.9015   24.7340 O   0  0  0  0  0  0  0  0  0  0  0  0
    9.7746  -16.9013   27.8977 O   0  0  0  0  0  0  0  0  0  0  0  0
  2  1  1  6
  3  4  1  0
  3  2  1  0
  4  5  2  0
  5  6  1  0
  7  6  1  0
  8  4  1  0
  8  7  2  0
  9  2  1  0
  9 18  1  0
 10  9  2  0
 12 11  1  0
 13 12  2  0
 14 13  1  0
 15 14  2  0
 15 21  1  0
 17 16  1  1
 16 15  1  0
 17 18  1  0
 19 17  1  0
 20 19  2  0
 21 22  2  0
 22 12  1  0
 23 19  1  0
 24 23  1  0
 24 29  1  0
 25 26  1  0
 24 25  1  6
 26 27  1  0
 27 28  2  0
 29 32  1  0
 30 29  2  0
 31 27  1  0
M  END
$$$$
