HYE.pdb
     RDKit          3D

 32 33  0  0  1  0  0  0  0  0999 V2000
    8.4850  -17.3206   19.2645 N   0  0  0  0  0  0  0  0  0  0  0  0
    9.7793  -16.6669   19.5121 C   0  0  1  0  0  0  0  0  0  0  0  0
    9.9243  -15.6463   18.3886 C   0  0  0  0  0  0  0  0  0  0  0  0
    9.4954  -16.3372   17.1447 C   0  0  0  0  0  0  0  0  0  0  0  0
   10.2224  -17.1326   16.2825 C   0  0  0  0  0  0  0  0  0  0  0  0
    9.4506  -17.5535   15.2662 N   0  0  0  0  0  0  0  0  0  0  0  0
    8.2071  -17.0285   15.4663 C   0  0  0  0  0  0  0  0  0  0  0  0
    8.2559  -16.3047   16.5940 N   0  0  0  0  0  0  0  0  0  0  0  0
    9.7647  -16.0012   20.8358 C   0  0  0  0  0  0  0  0  0  0  0  0
   10.8460  -15.7931   21.4241 O   0  0  0  0  0  0  0  0  0  0  0  0
    7.2751  -11.9655   28.1581 O   0  0  0  0  0  0  0  0  0  0  0  0
    7.2497  -12.5286   26.8922 C   0  0  0  0  0  0  0  0  0  0  0  0
    7.9667  -11.8885   25.8943 C   0  0  0  0  0  0  0  0  0  0  0  0
    7.9278  -12.4750   24.6191 C   0  0  0  0  0  0  0  0  0  0  0  0
    7.2197  -13.6251   24.3573 C   0  0  0  0  0  0  0  0  0  0  0  0
    7.2274  -14.1939   22.9745 C   0  0  0  0  0  0  0  0  0  0  0  0
    8.4469  -15.0752   22.7735 C   0  0  2  0  0  0  0  0  0  0  0  0
    8.5386  -15.5944   21.4457 N   0  0  0  0  0  0  0  0  0  0  0  0
    8.5498  -16.0960   23.8425 C   0  0  0  0  0  0  0  0  0  0  0  0
    7.6826  -17.0348   23.8867 O   0  0  0  0  0  0  0  0  0  0  0  0
    6.5066  -14.2493   25.3784 C   0  0  0  0  0  0  0  0  0  0  0  0
    6.5404  -13.6816   26.6261 C   0  0  0  0  0  0  0  0  0  0  0  0
    9.5913  -16.0221   24.7889 N   0  0  0  0  0  0  0  0  0  0  0  0
    9.8236  -17.1785   25.6743 C   0  0  1  0  0  0  0  0  0  0  0  0
   10.9200  -18.0020   25.1245 C   0  0  0  0  0  0  0  0  0  0  0  0
   11.3160  -19.1818   25.9176 C   0  0  0  0  0  0  0  0  0  0  0  0
   12.3967  -20.0223   25.4018 C   0  0  0  0  0  0  0  0  0  0  0  0
   13.4850  -19.5011   25.0567 O   0  0  0  0  0  0  0  0  0  0  0  0
   10.0256  -16.6554   27.0032 C   0  0  0  0  0  0  0  0  0  0  0  0
    9.6666  -17.2804   28.0516 O   0  0  0  0  0  0  0  0  0  0  0  0
   12.2918  -21.4115   25.2707 O   0  0  0  0  0  0  0  0  0  0  0  0
   10.6482  -15.3953   27.1597 O   0  0  0  0  0  0  0  0  0  0  0  0
  2  1  1  6
  3  4  1  0
  3  2  1  0
  4  5  2  0
  5  6  1  0
  7  6  1  0
  8  4  1  0
  8  7  2  0
  9  2  1  0
  9 18  1  0
 10  9  2  0
 12 11  1  0
 13 12  2  0
 14 13  1  0
 15 14  2  0
 15 21  1  0
 17 16  1  6
 16 15  1  0
 17 18  1  0
 19 17  1  0
 20 19  2  0
 21 22  2  0
 22 12  1  0
 23 19  1  0
 24 23  1  0
 24 29  1  0
 25 26  1  0
 24 25  1  6
 26 27  1  0
 27 28  2  0
 29 32  1  0
 30 29  2  0
 31 27  1  0
M  END
$$$$
