HYE.pdb
     RDKit          3D

 32 33  0  0  1  0  0  0  0  0999 V2000
   10.7287  -16.7167   19.1411 N   0  0  0  0  0  0  0  0  0  0  0  0
    9.3915  -16.6594   19.7514 C   0  0  1  0  0  0  0  0  0  0  0  0
    8.9330  -18.1116   19.8278 C   0  0  0  0  0  0  0  0  0  0  0  0
    8.0191  -18.3176   18.6740 C   0  0  0  0  0  0  0  0  0  0  0  0
    7.9091  -17.6039   17.4980 C   0  0  0  0  0  0  0  0  0  0  0  0
    6.9417  -18.1212   16.7219 N   0  0  0  0  0  0  0  0  0  0  0  0
    6.4147  -19.1834   17.3971 C   0  0  0  0  0  0  0  0  0  0  0  0
    7.0725  -19.2830   18.5612 N   0  0  0  0  0  0  0  0  0  0  0  0
    9.4777  -16.0580   21.1029 C   0  0  0  0  0  0  0  0  0  0  0  0
   10.4789  -16.2929   21.8107 O   0  0  0  0  0  0  0  0  0  0  0  0
    7.2640  -11.9765   28.5279 O   0  0  0  0  0  0  0  0  0  0  0  0
    7.2598  -12.4024   27.2092 C   0  0  0  0  0  0  0  0  0  0  0  0
    8.2788  -11.9474   26.3881 C   0  0  0  0  0  0  0  0  0  0  0  0
    8.2561  -12.3905   25.0559 C   0  0  0  0  0  0  0  0  0  0  0  0
    7.2803  -13.2326   24.5750 C   0  0  0  0  0  0  0  0  0  0  0  0
    7.3230  -13.6654   23.1444 C   0  0  0  0  0  0  0  0  0  0  0  0
    8.4002  -14.7158   22.9431 C   0  0  2  0  0  0  0  0  0  0  0  0
    8.4385  -15.2164   21.6056 N   0  0  0  0  0  0  0  0  0  0  0  0
    8.3283  -15.7616   23.9904 C   0  0  0  0  0  0  0  0  0  0  0  0
    7.2515  -16.4404   24.1135 O   0  0  0  0  0  0  0  0  0  0  0  0
    6.2662  -13.6756   25.4214 C   0  0  0  0  0  0  0  0  0  0  0  0
    6.2826  -13.2466   26.7237 C   0  0  0  0  0  0  0  0  0  0  0  0
    9.4356  -15.9945   24.8303 N   0  0  0  0  0  0  0  0  0  0  0  0
    9.3246  -17.0315   25.8730 C   0  0  1  0  0  0  0  0  0  0  0  0
   10.3954  -18.0316   25.6830 C   0  0  0  0  0  0  0  0  0  0  0  0
   10.4934  -18.6416   24.3428 C   0  0  0  0  0  0  0  0  0  0  0  0
   11.5513  -19.6260   24.1144 C   0  0  0  0  0  0  0  0  0  0  0  0
   12.2945  -19.9780   25.0625 O   0  0  0  0  0  0  0  0  0  0  0  0
    9.3096  -16.3490   27.1435 C   0  0  0  0  0  0  0  0  0  0  0  0
    9.5651  -15.1083   27.2622 O   0  0  0  0  0  0  0  0  0  0  0  0
   11.7896  -20.2210   22.8705 O   0  0  0  0  0  0  0  0  0  0  0  0
    8.9989  -17.0797   28.3138 O   0  0  0  0  0  0  0  0  0  0  0  0
  2  1  1  1
  3  4  1  0
  3  2  1  0
  4  5  2  0
  5  6  1  0
  7  6  1  0
  8  4  1  0
  8  7  2  0
  9  2  1  0
  9 18  1  0
 10  9  2  0
 12 11  1  0
 13 12  2  0
 14 13  1  0
 15 14  2  0
 15 21  1  0
 17 16  1  6
 16 15  1  0
 17 18  1  0
 19 17  1  0
 20 19  2  0
 21 22  2  0
 22 12  1  0
 23 19  1  0
 24 23  1  0
 24 29  1  0
 25 26  1  0
 24 25  1  1
 26 27  1  0
 27 28  2  0
 29 32  1  0
 30 29  2  0
 31 27  1  0
M  END
$$$$
