HYE.pdb
     RDKit          3D

 32 33  0  0  1  0  0  0  0  0999 V2000
    9.4460  -13.2818   19.6345 N   0  0  0  0  0  0  0  0  0  0  0  0
    8.3452  -13.8001   20.4610 C   0  0  1  0  0  0  0  0  0  0  0  0
    7.7658  -14.9604   19.6593 C   0  0  0  0  0  0  0  0  0  0  0  0
    7.3262  -14.3867   18.3607 C   0  0  0  0  0  0  0  0  0  0  0  0
    6.9609  -13.0935   18.0467 C   0  0  0  0  0  0  0  0  0  0  0  0
    6.6189  -13.0024   16.7503 N   0  0  0  0  0  0  0  0  0  0  0  0
    6.7625  -14.2479   16.2119 C   0  0  0  0  0  0  0  0  0  0  0  0
    7.1857  -15.0601   17.1913 N   0  0  0  0  0  0  0  0  0  0  0  0
    8.8688  -14.2659   21.7666 C   0  0  0  0  0  0  0  0  0  0  0  0
    9.9848  -14.8239   21.8105 O   0  0  0  0  0  0  0  0  0  0  0  0
   10.0415  -15.1298   30.3927 O   0  0  0  0  0  0  0  0  0  0  0  0
    9.4935  -14.7991   29.1637 C   0  0  0  0  0  0  0  0  0  0  0  0
    8.6738  -15.7370   28.5570 C   0  0  0  0  0  0  0  0  0  0  0  0
    8.1288  -15.3824   27.3124 C   0  0  0  0  0  0  0  0  0  0  0  0
    8.3852  -14.1710   26.7129 C   0  0  0  0  0  0  0  0  0  0  0  0
    7.7664  -13.8617   25.3873 C   0  0  0  0  0  0  0  0  0  0  0  0
    8.6012  -14.4518   24.2651 C   0  0  2  0  0  0  0  0  0  0  0  0
    8.1207  -14.0861   22.9704 N   0  0  0  0  0  0  0  0  0  0  0  0
    8.8035  -15.9068   24.4587 C   0  0  0  0  0  0  0  0  0  0  0  0
    7.7966  -16.6893   24.3633 O   0  0  0  0  0  0  0  0  0  0  0  0
    9.2133  -13.2452   27.3439 C   0  0  0  0  0  0  0  0  0  0  0  0
    9.7488  -13.5853   28.5595 C   0  0  0  0  0  0  0  0  0  0  0  0
   10.0899  -16.4072   24.7427 N   0  0  0  0  0  0  0  0  0  0  0  0
   10.2587  -17.8620   24.9162 C   0  0  1  0  0  0  0  0  0  0  0  0
   10.9460  -18.4184   23.7326 C   0  0  0  0  0  0  0  0  0  0  0  0
   12.3439  -17.9933   23.5252 C   0  0  0  0  0  0  0  0  0  0  0  0
   13.0568  -18.5273   22.3646 C   0  0  0  0  0  0  0  0  0  0  0  0
   12.4998  -19.3716   21.6215 O   0  0  0  0  0  0  0  0  0  0  0  0
   10.9158  -18.0597   26.1849 C   0  0  0  0  0  0  0  0  0  0  0  0
   11.3705  -17.0979   26.8826 O   0  0  0  0  0  0  0  0  0  0  0  0
   14.3561  -18.1403   22.0180 O   0  0  0  0  0  0  0  0  0  0  0  0
   11.0665  -19.3741   26.6846 O   0  0  0  0  0  0  0  0  0  0  0  0
  2  1  1  6
  3  4  1  0
  3  2  1  0
  4  5  2  0
  5  6  1  0
  7  6  1  0
  8  4  1  0
  8  7  2  0
  9  2  1  0
  9 18  1  0
 10  9  2  0
 12 11  1  0
 13 12  2  0
 14 13  1  0
 15 14  2  0
 15 21  1  0
 17 16  1  1
 16 15  1  0
 17 18  1  0
 19 17  1  0
 20 19  2  0
 21 22  2  0
 22 12  1  0
 23 19  1  0
 24 23  1  0
 24 29  1  0
 25 26  1  0
 24 25  1  6
 26 27  1  0
 27 28  2  0
 29 32  1  0
 30 29  2  0
 31 27  1  0
M  END
$$$$
