HYE.pdb
     RDKit          3D

 32 33  0  0  1  0  0  0  0  0999 V2000
    7.5455  -15.8192   21.0617 N   0  0  0  0  0  0  0  0  0  0  0  0
    8.8649  -15.2566   21.3878 C   0  0  1  0  0  0  0  0  0  0  0  0
    8.7854  -13.7959   20.9579 C   0  0  0  0  0  0  0  0  0  0  0  0
    8.4197  -13.8084   19.5174 C   0  0  0  0  0  0  0  0  0  0  0  0
    7.3965  -13.1543   18.8619 C   0  0  0  0  0  0  0  0  0  0  0  0
    7.4133  -13.4486   17.5508 N   0  0  0  0  0  0  0  0  0  0  0  0
    8.4576  -14.3029   17.3475 C   0  0  0  0  0  0  0  0  0  0  0  0
    9.0454  -14.5051   18.5357 N   0  0  0  0  0  0  0  0  0  0  0  0
    9.1168  -15.3687   22.8438 C   0  0  0  0  0  0  0  0  0  0  0  0
   10.1433  -14.8464   23.3256 O   0  0  0  0  0  0  0  0  0  0  0  0
    6.8295  -10.2555   26.3643 O   0  0  0  0  0  0  0  0  0  0  0  0
    6.9448  -11.6335   26.2737 C   0  0  0  0  0  0  0  0  0  0  0  0
    5.9905  -12.3063   25.5279 C   0  0  0  0  0  0  0  0  0  0  0  0
    6.1253  -13.7017   25.4489 C   0  0  0  0  0  0  0  0  0  0  0  0
    7.1459  -14.3809   26.0731 C   0  0  0  0  0  0  0  0  0  0  0  0
    7.2272  -15.8681   25.9414 C   0  0  0  0  0  0  0  0  0  0  0  0
    8.4278  -16.2580   25.0983 C   0  0  2  0  0  0  0  0  0  0  0  0
    8.2070  -16.0606   23.7007 N   0  0  0  0  0  0  0  0  0  0  0  0
    8.9176  -17.6089   25.4597 C   0  0  0  0  0  0  0  0  0  0  0  0
    8.1876  -18.6239   25.1908 O   0  0  0  0  0  0  0  0  0  0  0  0
    8.0928  -13.6806   26.8175 C   0  0  0  0  0  0  0  0  0  0  0  0
    7.9668  -12.3177   26.8988 C   0  0  0  0  0  0  0  0  0  0  0  0
   10.1695  -17.7590   26.0891 N   0  0  0  0  0  0  0  0  0  0  0  0
   10.6490  -19.1207   26.3908 C   0  0  1  0  0  0  0  0  0  0  0  0
   11.8519  -19.4052   25.5816 C   0  0  0  0  0  0  0  0  0  0  0  0
   13.0176  -18.5291   25.8082 C   0  0  0  0  0  0  0  0  0  0  0  0
   14.2179  -18.7653   25.0057 C   0  0  0  0  0  0  0  0  0  0  0  0
   15.2010  -17.9917   25.1068 O   0  0  0  0  0  0  0  0  0  0  0  0
   10.8111  -19.2009   27.8218 C   0  0  0  0  0  0  0  0  0  0  0  0
   11.1486  -20.2730   28.4178 O   0  0  0  0  0  0  0  0  0  0  0  0
   14.3441  -19.8337   24.1109 O   0  0  0  0  0  0  0  0  0  0  0  0
   10.5882  -18.0451   28.6056 O   0  0  0  0  0  0  0  0  0  0  0  0
  2  1  1  1
  3  4  1  0
  3  2  1  0
  4  5  2  0
  5  6  1  0
  7  6  1  0
  8  4  1  0
  8  7  2  0
  9  2  1  0
  9 18  1  0
 10  9  2  0
 12 11  1  0
 13 12  2  0
 14 13  1  0
 15 14  2  0
 15 21  1  0
 17 16  1  1
 16 15  1  0
 17 18  1  0
 19 17  1  0
 20 19  2  0
 21 22  2  0
 22 12  1  0
 23 19  1  0
 24 23  1  0
 24 29  1  0
 25 26  1  0
 24 25  1  6
 26 27  1  0
 27 28  2  0
 29 32  1  0
 30 29  2  0
 31 27  1  0
M  END
$$$$
