APF.pdb
     RDKit          3D

 24 25  0  0  1  0  0  0  0  0999 V2000
   28.0879  -17.2030  -13.8055 C   0  0  0  0  0  0  0  0  0  0  0  0
   26.8028  -17.8226  -14.3713 C   0  0  2  0  0  0  0  0  0  0  0  0
   25.9508  -16.7384  -14.7350 N   0  0  0  0  0  0  0  0  0  0  0  0
   26.2526  -18.7730  -13.3980 C   0  0  0  0  0  0  0  0  0  0  0  0
   25.3757  -18.2952  -12.5988 O   0  0  0  0  0  0  0  0  0  0  0  0
   26.6083  -20.1431  -13.2775 N   0  0  0  0  0  0  0  0  0  0  0  0
   27.6117  -20.8029  -14.0465 C   0  0  0  0  0  0  0  0  0  0  0  0
   27.4548  -22.2668  -13.7435 C   0  0  0  0  0  0  0  0  0  0  0  0
   26.1027  -22.3855  -13.0415 C   0  0  0  0  0  0  0  0  0  0  0  0
   26.0017  -21.0590  -12.3586 C   0  0  1  0  0  0  0  0  0  0  0  0
   26.6764  -21.0481  -11.0336 C   0  0  0  0  0  0  0  0  0  0  0  0
   27.9005  -21.2296  -10.9944 O   0  0  0  0  0  0  0  0  0  0  0  0
   25.9329  -20.8368   -9.8653 N   0  0  0  0  0  0  0  0  0  0  0  0
   26.4767  -21.0107   -8.5326 C   0  0  1  0  0  0  0  0  0  0  0  0
   27.4490  -19.8734   -8.3302 C   0  0  0  0  0  0  0  0  0  0  0  0
   27.9590  -19.7528   -6.9516 C   0  0  0  0  0  0  0  0  0  0  0  0
   28.8785  -20.6551   -6.4761 C   0  0  0  0  0  0  0  0  0  0  0  0
   29.3879  -20.5781   -5.1849 C   0  0  0  0  0  0  0  0  0  0  0  0
   28.9820  -19.5800   -4.3258 C   0  0  0  0  0  0  0  0  0  0  0  0
   28.0586  -18.6686   -4.7935 C   0  0  0  0  0  0  0  0  0  0  0  0
   27.5508  -18.7518   -6.0921 C   0  0  0  0  0  0  0  0  0  0  0  0
   25.3487  -21.0027   -7.5736 C   0  0  0  0  0  0  0  0  0  0  0  0
   25.4463  -21.6653   -6.3322 O   0  0  0  0  0  0  0  0  0  0  0  0
   24.2932  -20.3927   -7.8827 O   0  0  0  0  0  0  0  0  0  0  0  0
  2  1  1  1
  2  4  1  0
  2  3  1  0
  4  5  2  0
  6 10  1  0
  6  4  1  0
  7  6  1  0
  8  7  1  0
  8  9  1  0
  9 10  1  0
 10 11  1  1
 11 12  2  0
 11 13  1  0
 13 14  1  0
 14 22  1  0
 14 15  1  1
 16 15  1  0
 16 21  1  0
 17 16  2  0
 18 17  1  0
 18 19  2  0
 19 20  1  0
 20 21  2  0
 22 24  2  0
 22 23  1  0
M  END
$$$$
