APF.pdb
     RDKit          3D

 24 25  0  0  1  0  0  0  0  0999 V2000
   17.8949  -12.3978  -17.3238 C   0  0  0  0  0  0  0  0  0  0  0  0
   19.1114  -12.4897  -18.2552 C   0  0  2  0  0  0  0  0  0  0  0  0
   19.6718  -13.7879  -18.0703 N   0  0  0  0  0  0  0  0  0  0  0  0
   20.0096  -11.3593  -17.9938 C   0  0  0  0  0  0  0  0  0  0  0  0
   21.0329  -11.6257  -17.2742 O   0  0  0  0  0  0  0  0  0  0  0  0
   19.8358  -10.0300  -18.4638 N   0  0  0  0  0  0  0  0  0  0  0  0
   18.7115   -9.5600  -19.2045 C   0  0  0  0  0  0  0  0  0  0  0  0
   19.0878   -8.1847  -19.6802 C   0  0  0  0  0  0  0  0  0  0  0  0
   20.5943   -8.0809  -19.4463 C   0  0  0  0  0  0  0  0  0  0  0  0
   20.7752   -8.9689  -18.2568 C   0  0  1  0  0  0  0  0  0  0  0  0
   20.5379   -8.2567  -16.9733 C   0  0  0  0  0  0  0  0  0  0  0  0
   19.3862   -8.2284  -16.5196 O   0  0  0  0  0  0  0  0  0  0  0  0
   21.6007   -7.6366  -16.3038 N   0  0  0  0  0  0  0  0  0  0  0  0
   21.4571   -6.9752  -15.0217 C   0  0  1  0  0  0  0  0  0  0  0  0
   22.4097   -7.6776  -14.0842 C   0  0  0  0  0  0  0  0  0  0  0  0
   23.6591   -8.1331  -14.7221 C   0  0  0  0  0  0  0  0  0  0  0  0
   24.0309   -9.4527  -14.6437 C   0  0  0  0  0  0  0  0  0  0  0  0
   25.1982   -9.9262  -15.2318 C   0  0  0  0  0  0  0  0  0  0  0  0
   26.0338   -9.0761  -15.9232 C   0  0  0  0  0  0  0  0  0  0  0  0
   25.6695   -7.7487  -16.0078 C   0  0  0  0  0  0  0  0  0  0  0  0
   24.4952   -7.2795  -15.4146 C   0  0  0  0  0  0  0  0  0  0  0  0
   21.7639   -5.5391  -15.2107 C   0  0  0  0  0  0  0  0  0  0  0  0
   22.2919   -5.0638  -16.4293 O   0  0  0  0  0  0  0  0  0  0  0  0
   21.5463   -4.7418  -14.2628 O   0  0  0  0  0  0  0  0  0  0  0  0
  2  1  1  1
  2  4  1  0
  2  3  1  0
  4  5  2  0
  6 10  1  0
  6  4  1  0
  7  6  1  0
  8  7  1  0
  8  9  1  0
  9 10  1  0
 10 11  1  1
 11 12  2  0
 11 13  1  0
 13 14  1  0
 14 22  1  0
 14 15  1  1
 16 15  1  0
 16 21  1  0
 17 16  2  0
 18 17  1  0
 18 19  2  0
 19 20  1  0
 20 21  2  0
 22 24  2  0
 22 23  1  0
M  END
$$$$
