APF.pdb
     RDKit          3D

 24 25  0  0  1  0  0  0  0  0999 V2000
   25.7684  -16.4312  -16.2212 C   0  0  0  0  0  0  0  0  0  0  0  0
   25.6040  -17.8790  -16.7033 C   0  0  2  0  0  0  0  0  0  0  0  0
   24.4409  -17.9065  -17.5281 N   0  0  0  0  0  0  0  0  0  0  0  0
   25.5905  -18.7784  -15.5440 C   0  0  0  0  0  0  0  0  0  0  0  0
   24.4627  -18.8947  -14.9520 O   0  0  0  0  0  0  0  0  0  0  0  0
   26.7009  -19.5086  -15.0421 N   0  0  0  0  0  0  0  0  0  0  0  0
   28.0488  -19.3625  -15.4840 C   0  0  0  0  0  0  0  0  0  0  0  0
   28.8061  -20.4966  -14.8516 C   0  0  0  0  0  0  0  0  0  0  0  0
   27.7322  -21.4491  -14.3275 C   0  0  0  0  0  0  0  0  0  0  0  0
   26.6184  -20.5021  -14.0137 C   0  0  1  0  0  0  0  0  0  0  0  0
   26.7404  -19.9097  -12.6554 C   0  0  0  0  0  0  0  0  0  0  0  0
   27.5131  -18.9554  -12.4962 O   0  0  0  0  0  0  0  0  0  0  0  0
   25.9937  -20.4286  -11.5898 N   0  0  0  0  0  0  0  0  0  0  0  0
   26.0703  -19.9122  -10.2373 C   0  0  1  0  0  0  0  0  0  0  0  0
   24.7277  -19.2803   -9.9584 C   0  0  0  0  0  0  0  0  0  0  0  0
   23.6483  -20.2489   -9.6900 C   0  0  0  0  0  0  0  0  0  0  0  0
   23.5263  -20.8165   -8.4455 C   0  0  0  0  0  0  0  0  0  0  0  0
   22.5231  -21.7316   -8.1475 C   0  0  0  0  0  0  0  0  0  0  0  0
   21.6040  -22.1059   -9.1037 C   0  0  0  0  0  0  0  0  0  0  0  0
   21.7179  -21.5416  -10.3569 C   0  0  0  0  0  0  0  0  0  0  0  0
   22.7282  -20.6227  -10.6497 C   0  0  0  0  0  0  0  0  0  0  0  0
   26.3925  -21.0405   -9.3343 C   0  0  0  0  0  0  0  0  0  0  0  0
   26.8319  -20.8109   -8.0137 O   0  0  0  0  0  0  0  0  0  0  0  0
   26.2686  -22.2161   -9.7634 O   0  0  0  0  0  0  0  0  0  0  0  0
  2  1  1  1
  2  4  1  0
  2  3  1  0
  4  5  2  0
  6 10  1  0
  6  4  1  0
  7  6  1  0
  8  7  1  0
  8  9  1  0
  9 10  1  0
 10 11  1  1
 11 12  2  0
 11 13  1  0
 13 14  1  0
 14 22  1  0
 14 15  1  1
 16 15  1  0
 16 21  1  0
 17 16  2  0
 18 17  1  0
 18 19  2  0
 19 20  1  0
 20 21  2  0
 22 24  2  0
 22 23  1  0
M  END
$$$$
