APF.pdb
     RDKit          3D

 24 25  0  0  1  0  0  0  0  0999 V2000
   24.2305  -16.9971  -15.5858 C   0  0  0  0  0  0  0  0  0  0  0  0
   25.4520  -17.4446  -16.4003 C   0  0  2  0  0  0  0  0  0  0  0  0
   25.1348  -17.2185  -17.7721 N   0  0  0  0  0  0  0  0  0  0  0  0
   25.7969  -18.8245  -16.0399 C   0  0  0  0  0  0  0  0  0  0  0  0
   25.2442  -19.7326  -16.7510 O   0  0  0  0  0  0  0  0  0  0  0  0
   26.6717  -19.2190  -14.9923 N   0  0  0  0  0  0  0  0  0  0  0  0
   27.1200  -18.3753  -13.9337 C   0  0  0  0  0  0  0  0  0  0  0  0
   28.2003  -19.1489  -13.2309 C   0  0  0  0  0  0  0  0  0  0  0  0
   28.5408  -20.3029  -14.1730 C   0  0  0  0  0  0  0  0  0  0  0  0
   27.2295  -20.5309  -14.8544 C   0  0  1  0  0  0  0  0  0  0  0  0
   26.3377  -21.4376  -14.0840 C   0  0  0  0  0  0  0  0  0  0  0  0
   26.5587  -22.6552  -14.1243 O   0  0  0  0  0  0  0  0  0  0  0  0
   25.2763  -20.9138  -13.3348 N   0  0  0  0  0  0  0  0  0  0  0  0
   24.3659  -21.7348  -12.5609 C   0  0  1  0  0  0  0  0  0  0  0  0
   25.1870  -22.3156  -11.4348 C   0  0  0  0  0  0  0  0  0  0  0  0
   25.5457  -21.3436  -10.3852 C   0  0  0  0  0  0  0  0  0  0  0  0
   24.5658  -20.6123   -9.7600 C   0  0  0  0  0  0  0  0  0  0  0  0
   24.8578  -19.6874   -8.7641 C   0  0  0  0  0  0  0  0  0  0  0  0
   26.1585  -19.4695   -8.3644 C   0  0  0  0  0  0  0  0  0  0  0  0
   27.1502  -20.1988   -8.9861 C   0  0  0  0  0  0  0  0  0  0  0  0
   26.8499  -21.1266   -9.9861 C   0  0  0  0  0  0  0  0  0  0  0  0
   23.2533  -20.8739  -12.0992 C   0  0  0  0  0  0  0  0  0  0  0  0
   23.3122  -19.4719  -12.2431 O   0  0  0  0  0  0  0  0  0  0  0  0
   22.2467  -21.4131  -11.5722 O   0  0  0  0  0  0  0  0  0  0  0  0
  2  1  1  1
  2  4  1  0
  2  3  1  0
  4  5  2  0
  6 10  1  0
  6  4  1  0
  7  6  1  0
  8  7  1  0
  8  9  1  0
  9 10  1  0
 10 11  1  1
 11 12  2  0
 11 13  1  0
 13 14  1  0
 14 22  1  0
 14 15  1  1
 16 15  1  0
 16 21  1  0
 17 16  2  0
 18 17  1  0
 18 19  2  0
 19 20  1  0
 20 21  2  0
 22 24  2  0
 22 23  1  0
M  END
$$$$
