APF.pdb
     RDKit          3D

 24 25  0  0  1  0  0  0  0  0999 V2000
   27.5776  -16.7415  -14.0274 C   0  0  0  0  0  0  0  0  0  0  0  0
   26.4586  -17.6394  -14.5727 C   0  0  2  0  0  0  0  0  0  0  0  0
   25.4608  -16.7717  -15.1069 N   0  0  0  0  0  0  0  0  0  0  0  0
   26.0138  -18.5563  -13.5170 C   0  0  0  0  0  0  0  0  0  0  0  0
   25.0899  -18.1090  -12.7541 O   0  0  0  0  0  0  0  0  0  0  0  0
   26.5156  -19.8646  -13.2829 N   0  0  0  0  0  0  0  0  0  0  0  0
   27.5620  -20.4888  -14.0238 C   0  0  0  0  0  0  0  0  0  0  0  0
   27.5691  -21.9251  -13.5805 C   0  0  0  0  0  0  0  0  0  0  0  0
   26.2567  -22.1139  -12.8209 C   0  0  0  0  0  0  0  0  0  0  0  0
   26.0344  -20.7452  -12.2610 C   0  0  1  0  0  0  0  0  0  0  0  0
   26.7397  -20.5375  -10.9686 C   0  0  0  0  0  0  0  0  0  0  0  0
   27.9778  -20.5208  -10.9693 O   0  0  0  0  0  0  0  0  0  0  0  0
   26.0090  -20.3663   -9.7858 N   0  0  0  0  0  0  0  0  0  0  0  0
   26.5597  -20.6096   -8.4669 C   0  0  1  0  0  0  0  0  0  0  0  0
   27.0075  -19.2635   -7.9502 C   0  0  0  0  0  0  0  0  0  0  0  0
   27.6297  -19.3060   -6.6137 C   0  0  0  0  0  0  0  0  0  0  0  0
   28.9971  -19.2787   -6.4895 C   0  0  0  0  0  0  0  0  0  0  0  0
   29.6259  -19.3143   -5.2502 C   0  0  0  0  0  0  0  0  0  0  0  0
   28.8887  -19.3792   -4.0876 C   0  0  0  0  0  0  0  0  0  0  0  0
   27.5146  -19.4071   -4.2014 C   0  0  0  0  0  0  0  0  0  0  0  0
   26.8891  -19.3710   -5.4498 C   0  0  0  0  0  0  0  0  0  0  0  0
   25.5055  -21.2401   -7.6402 C   0  0  0  0  0  0  0  0  0  0  0  0
   25.8366  -22.1218   -6.5901 O   0  0  0  0  0  0  0  0  0  0  0  0
   24.3009  -20.9775   -7.8884 O   0  0  0  0  0  0  0  0  0  0  0  0
  2  1  1  1
  2  4  1  0
  2  3  1  0
  4  5  2  0
  6 10  1  0
  6  4  1  0
  7  6  1  0
  8  7  1  0
  8  9  1  0
  9 10  1  0
 10 11  1  1
 11 12  2  0
 11 13  1  0
 13 14  1  0
 14 22  1  0
 14 15  1  1
 16 15  1  0
 16 21  1  0
 17 16  2  0
 18 17  1  0
 18 19  2  0
 19 20  1  0
 20 21  2  0
 22 24  2  0
 22 23  1  0
M  END
$$$$
