APF.pdb
     RDKit          3D

 24 25  0  0  1  0  0  0  0  0999 V2000
   26.3632  -17.3242  -13.3971 C   0  0  0  0  0  0  0  0  0  0  0  0
   26.3942  -18.6550  -14.1612 C   0  0  2  0  0  0  0  0  0  0  0  0
   25.2462  -18.6686  -15.0071 N   0  0  0  0  0  0  0  0  0  0  0  0
   26.4998  -19.7622  -13.2041 C   0  0  0  0  0  0  0  0  0  0  0  0
   25.3917  -20.3053  -12.8679 O   0  0  0  0  0  0  0  0  0  0  0  0
   27.7025  -20.2631  -12.6377 N   0  0  0  0  0  0  0  0  0  0  0  0
   28.9845  -19.6497  -12.7550 C   0  0  0  0  0  0  0  0  0  0  0  0
   29.9636  -20.6547  -12.2156 C   0  0  0  0  0  0  0  0  0  0  0  0
   29.1799  -21.9632  -12.1214 C   0  0  0  0  0  0  0  0  0  0  0  0
   27.7937  -21.4649  -11.8640 C   0  0  1  0  0  0  0  0  0  0  0  0
   27.5360  -21.2193  -10.4203 C   0  0  0  0  0  0  0  0  0  0  0  0
   28.5049  -21.0321   -9.6725 O   0  0  0  0  0  0  0  0  0  0  0  0
   26.2235  -21.2030   -9.9310 N   0  0  0  0  0  0  0  0  0  0  0  0
   25.8974  -21.0109   -8.5314 C   0  0  1  0  0  0  0  0  0  0  0  0
   26.4904  -19.6766   -8.1472 C   0  0  0  0  0  0  0  0  0  0  0  0
   27.3278  -19.7146   -6.9337 C   0  0  0  0  0  0  0  0  0  0  0  0
   27.6082  -20.9147   -6.3279 C   0  0  0  0  0  0  0  0  0  0  0  0
   28.3947  -20.9977   -5.1846 C   0  0  0  0  0  0  0  0  0  0  0  0
   28.9273  -19.8631   -4.6119 C   0  0  0  0  0  0  0  0  0  0  0  0
   28.6515  -18.6527   -5.2125 C   0  0  0  0  0  0  0  0  0  0  0  0
   27.8605  -18.5763   -6.3612 C   0  0  0  0  0  0  0  0  0  0  0  0
   24.4243  -21.0658   -8.3932 C   0  0  0  0  0  0  0  0  0  0  0  0
   23.8234  -21.5443   -7.2101 O   0  0  0  0  0  0  0  0  0  0  0  0
   23.7095  -20.6773   -9.3523 O   0  0  0  0  0  0  0  0  0  0  0  0
  2  1  1  1
  2  4  1  0
  2  3  1  0
  4  5  2  0
  6 10  1  0
  6  4  1  0
  7  6  1  0
  8  7  1  0
  8  9  1  0
  9 10  1  0
 10 11  1  1
 11 12  2  0
 11 13  1  0
 13 14  1  0
 14 22  1  0
 14 15  1  6
 16 15  1  0
 16 21  1  0
 17 16  2  0
 18 17  1  0
 18 19  2  0
 19 20  1  0
 20 21  2  0
 22 24  2  0
 22 23  1  0
M  END
$$$$
