APF.pdb
     RDKit          3D

 24 25  0  0  1  0  0  0  0  0999 V2000
   26.1163  -17.5333  -13.7282 C   0  0  0  0  0  0  0  0  0  0  0  0
   26.6759  -18.6622  -14.6046 C   0  0  2  0  0  0  0  0  0  0  0  0
   25.8620  -18.7144  -15.7745 N   0  0  0  0  0  0  0  0  0  0  0  0
   26.7482  -19.8981  -13.8169 C   0  0  0  0  0  0  0  0  0  0  0  0
   25.7595  -20.6974  -13.9568 O   0  0  0  0  0  0  0  0  0  0  0  0
   27.8004  -20.2652  -12.9359 N   0  0  0  0  0  0  0  0  0  0  0  0
   28.8526  -19.4033  -12.5075 C   0  0  0  0  0  0  0  0  0  0  0  0
   29.8380  -20.2904  -11.7994 C   0  0  0  0  0  0  0  0  0  0  0  0
   29.4273  -21.7154  -12.1679 C   0  0  0  0  0  0  0  0  0  0  0  0
   27.9510  -21.5642  -12.3518 C   0  0  1  0  0  0  0  0  0  0  0  0
   27.2022  -21.6907  -11.0734 C   0  0  0  0  0  0  0  0  0  0  0  0
   27.2288  -22.7772  -10.4802 O   0  0  0  0  0  0  0  0  0  0  0  0
   26.4876  -20.5991  -10.5636 N   0  0  0  0  0  0  0  0  0  0  0  0
   25.7166  -20.6544   -9.3370 C   0  0  1  0  0  0  0  0  0  0  0  0
   26.0924  -19.4184   -8.5554 C   0  0  0  0  0  0  0  0  0  0  0  0
   27.0004  -19.6736   -7.4215 C   0  0  0  0  0  0  0  0  0  0  0  0
   27.7106  -18.6400   -6.8620 C   0  0  0  0  0  0  0  0  0  0  0  0
   28.5754  -18.8342   -5.7910 C   0  0  0  0  0  0  0  0  0  0  0  0
   28.7522  -20.0877   -5.2465 C   0  0  0  0  0  0  0  0  0  0  0  0
   28.0435  -21.1327   -5.8012 C   0  0  0  0  0  0  0  0  0  0  0  0
   27.1762  -20.9307   -6.8773 C   0  0  0  0  0  0  0  0  0  0  0  0
   24.2824  -20.7116   -9.7003 C   0  0  0  0  0  0  0  0  0  0  0  0
   23.3185  -21.1759   -8.7810 O   0  0  0  0  0  0  0  0  0  0  0  0
   23.9315  -20.3382  -10.8488 O   0  0  0  0  0  0  0  0  0  0  0  0
  2  1  1  1
  2  4  1  0
  2  3  1  0
  4  5  2  0
  6 10  1  0
  6  4  1  0
  7  6  1  0
  8  7  1  0
  8  9  1  0
  9 10  1  0
 10 11  1  1
 11 12  2  0
 11 13  1  0
 13 14  1  0
 14 22  1  0
 14 15  1  1
 16 15  1  0
 16 21  1  0
 17 16  2  0
 18 17  1  0
 18 19  2  0
 19 20  1  0
 20 21  2  0
 22 24  2  0
 22 23  1  0
M  END
$$$$
