APF.pdb
     RDKit          3D

 24 25  0  0  1  0  0  0  0  0999 V2000
   15.1811  -21.8647    4.2000 C   0  0  0  0  0  0  0  0  0  0  0  0
   15.1513  -21.1091    2.8644 C   0  0  2  0  0  0  0  0  0  0  0  0
   15.8692  -21.9075    1.9259 N   0  0  0  0  0  0  0  0  0  0  0  0
   15.6556  -19.7460    3.0664 C   0  0  0  0  0  0  0  0  0  0  0  0
   16.8886  -19.5678    2.7767 O   0  0  0  0  0  0  0  0  0  0  0  0
   14.9027  -18.6406    3.5454 N   0  0  0  0  0  0  0  0  0  0  0  0
   13.5400  -18.6927    3.9625 C   0  0  0  0  0  0  0  0  0  0  0  0
   13.1184  -17.2613    4.1436 C   0  0  0  0  0  0  0  0  0  0  0  0
   14.2166  -16.4352    3.4754 C   0  0  0  0  0  0  0  0  0  0  0  0
   15.4134  -17.3089    3.6758 C   0  0  1  0  0  0  0  0  0  0  0  0
   16.0648  -17.0884    4.9941 C   0  0  0  0  0  0  0  0  0  0  0  0
   15.7557  -17.8310    5.9354 O   0  0  0  0  0  0  0  0  0  0  0  0
   17.0039  -16.0613    5.1539 N   0  0  0  0  0  0  0  0  0  0  0  0
   17.6915  -15.7978    6.4027 C   0  0  1  0  0  0  0  0  0  0  0  0
   19.1286  -15.5181    6.0333 C   0  0  0  0  0  0  0  0  0  0  0  0
   19.3945  -14.1164    5.6597 C   0  0  0  0  0  0  0  0  0  0  0  0
   19.9548  -13.2553    6.5709 C   0  0  0  0  0  0  0  0  0  0  0  0
   20.2249  -11.9272    6.2613 C   0  0  0  0  0  0  0  0  0  0  0  0
   19.9356  -11.4221    5.0121 C   0  0  0  0  0  0  0  0  0  0  0  0
   19.3726  -12.2788    4.0896 C   0  0  0  0  0  0  0  0  0  0  0  0
   19.1038  -13.6121    4.4073 C   0  0  0  0  0  0  0  0  0  0  0  0
   17.0178  -14.6573    7.0642 C   0  0  0  0  0  0  0  0  0  0  0  0
   17.2408  -14.3739    8.4279 O   0  0  0  0  0  0  0  0  0  0  0  0
   16.2372  -13.9385    6.3891 O   0  0  0  0  0  0  0  0  0  0  0  0
  2  1  1  1
  2  4  1  0
  2  3  1  0
  4  5  2  0
  6 10  1  0
  6  4  1  0
  7  6  1  0
  8  7  1  0
  8  9  1  0
  9 10  1  0
 10 11  1  1
 11 12  2  0
 11 13  1  0
 13 14  1  0
 14 22  1  0
 14 15  1  6
 16 15  1  0
 16 21  1  0
 17 16  2  0
 18 17  1  0
 18 19  2  0
 19 20  1  0
 20 21  2  0
 22 24  2  0
 22 23  1  0
M  END
$$$$
