APF.pdb
     RDKit          3D

 24 25  0  0  1  0  0  0  0  0999 V2000
   22.8320  -20.9423  -14.1356 C   0  0  0  0  0  0  0  0  0  0  0  0
   24.0967  -21.4913  -14.8099 C   0  0  2  0  0  0  0  0  0  0  0  0
   23.7206  -22.7026  -15.4617 N   0  0  0  0  0  0  0  0  0  0  0  0
   25.1682  -21.6040  -13.8138 C   0  0  0  0  0  0  0  0  0  0  0  0
   25.2540  -22.7361  -13.2248 O   0  0  0  0  0  0  0  0  0  0  0  0
   26.0909  -20.5826  -13.4623 N   0  0  0  0  0  0  0  0  0  0  0  0
   26.0580  -19.2421  -13.9476 C   0  0  0  0  0  0  0  0  0  0  0  0
   27.3508  -18.6191  -13.5004 C   0  0  0  0  0  0  0  0  0  0  0  0
   28.2218  -19.7905  -13.0483 C   0  0  0  0  0  0  0  0  0  0  0  0
   27.1922  -20.7607  -12.5641 C   0  0  1  0  0  0  0  0  0  0  0  0
   26.8026  -20.5188  -11.1497 C   0  0  0  0  0  0  0  0  0  0  0  0
   25.7325  -19.9380  -10.9246 O   0  0  0  0  0  0  0  0  0  0  0  0
   27.6356  -20.9426  -10.1062 N   0  0  0  0  0  0  0  0  0  0  0  0
   27.1785  -21.1127   -8.7409 C   0  0  1  0  0  0  0  0  0  0  0  0
   28.4249  -21.1673   -7.8905 C   0  0  0  0  0  0  0  0  0  0  0  0
   28.3028  -20.4738   -6.5946 C   0  0  0  0  0  0  0  0  0  0  0  0
   28.4314  -21.1775   -5.4223 C   0  0  0  0  0  0  0  0  0  0  0  0
   28.3263  -20.5646   -4.1790 C   0  0  0  0  0  0  0  0  0  0  0  0
   28.0860  -19.2114   -4.0786 C   0  0  0  0  0  0  0  0  0  0  0  0
   27.9552  -18.4955   -5.2500 C   0  0  0  0  0  0  0  0  0  0  0  0
   28.0620  -19.1175   -6.4961 C   0  0  0  0  0  0  0  0  0  0  0  0
   26.2869  -19.9773   -8.4121 C   0  0  0  0  0  0  0  0  0  0  0  0
   26.5102  -18.6965   -8.9595 O   0  0  0  0  0  0  0  0  0  0  0  0
   25.3199  -20.1708   -7.6317 O   0  0  0  0  0  0  0  0  0  0  0  0
  2  1  1  1
  2  4  1  0
  2  3  1  0
  4  5  2  0
  6 10  1  0
  6  4  1  0
  7  6  1  0
  8  7  1  0
  8  9  1  0
  9 10  1  0
 10 11  1  1
 11 12  2  0
 11 13  1  0
 13 14  1  0
 14 22  1  0
 14 15  1  1
 16 15  1  0
 16 21  1  0
 17 16  2  0
 18 17  1  0
 18 19  2  0
 19 20  1  0
 20 21  2  0
 22 24  2  0
 22 23  1  0
M  END
$$$$
