APF.pdb
     RDKit          3D

 24 25  0  0  1  0  0  0  0  0999 V2000
   17.9269  -11.2374  -18.0127 C   0  0  0  0  0  0  0  0  0  0  0  0
   19.0614  -11.3873  -19.0356 C   0  0  2  0  0  0  0  0  0  0  0  0
   19.4081  -12.7704  -19.0631 N   0  0  0  0  0  0  0  0  0  0  0  0
   20.1467  -10.4599  -18.6966 C   0  0  0  0  0  0  0  0  0  0  0  0
   21.1356  -10.9765  -18.0713 O   0  0  0  0  0  0  0  0  0  0  0  0
   20.1832   -9.0724  -18.9997 N   0  0  0  0  0  0  0  0  0  0  0  0
   19.1245   -8.3353  -19.6075 C   0  0  0  0  0  0  0  0  0  0  0  0
   19.7101   -6.9931  -19.9466 C   0  0  0  0  0  0  0  0  0  0  0  0
   21.2209   -7.1694  -19.8006 C   0  0  0  0  0  0  0  0  0  0  0  0
   21.2993   -8.2150  -18.7344 C   0  0  1  0  0  0  0  0  0  0  0  0
   21.2454   -7.6373  -17.3654 C   0  0  0  0  0  0  0  0  0  0  0  0
   20.1422   -7.5332  -16.8130 O   0  0  0  0  0  0  0  0  0  0  0  0
   22.4220   -7.2242  -16.7273 N   0  0  0  0  0  0  0  0  0  0  0  0
   22.4544   -6.7055  -15.3738 C   0  0  1  0  0  0  0  0  0  0  0  0
   23.0073   -7.8187  -14.5166 C   0  0  0  0  0  0  0  0  0  0  0  0
   24.2354   -8.4379  -15.0490 C   0  0  0  0  0  0  0  0  0  0  0  0
   24.6287   -9.6774  -14.6076 C   0  0  0  0  0  0  0  0  0  0  0  0
   25.7772  -10.2996  -15.0835 C   0  0  0  0  0  0  0  0  0  0  0  0
   26.5715   -9.6856  -16.0276 C   0  0  0  0  0  0  0  0  0  0  0  0
   26.1853   -8.4404  -16.4774 C   0  0  0  0  0  0  0  0  0  0  0  0
   25.0301   -7.8209  -15.9950 C   0  0  0  0  0  0  0  0  0  0  0  0
   23.2923   -5.4848  -15.3716 C   0  0  0  0  0  0  0  0  0  0  0  0
   23.9643   -5.0632  -16.5380 O   0  0  0  0  0  0  0  0  0  0  0  0
   23.3986   -4.8232  -14.3074 O   0  0  0  0  0  0  0  0  0  0  0  0
  2  1  1  1
  2  4  1  0
  2  3  1  0
  4  5  2  0
  6 10  1  0
  6  4  1  0
  7  6  1  0
  8  7  1  0
  8  9  1  0
  9 10  1  0
 10 11  1  1
 11 12  2  0
 11 13  1  0
 13 14  1  0
 14 22  1  0
 14 15  1  1
 16 15  1  0
 16 21  1  0
 17 16  2  0
 18 17  1  0
 18 19  2  0
 19 20  1  0
 20 21  2  0
 22 24  2  0
 22 23  1  0
M  END
$$$$
