APF.pdb
     RDKit          3D

 24 25  0  0  1  0  0  0  0  0999 V2000
   23.0668  -18.7230  -14.3931 C   0  0  0  0  0  0  0  0  0  0  0  0
   23.6232  -20.0909  -14.8113 C   0  0  2  0  0  0  0  0  0  0  0  0
   22.5209  -20.8469  -15.3084 N   0  0  0  0  0  0  0  0  0  0  0  0
   24.3524  -20.6837  -13.6844 C   0  0  0  0  0  0  0  0  0  0  0  0
   23.6615  -21.4429  -12.9214 O   0  0  0  0  0  0  0  0  0  0  0  0
   25.7265  -20.4854  -13.3834 N   0  0  0  0  0  0  0  0  0  0  0  0
   26.6118  -19.6322  -14.1058 C   0  0  0  0  0  0  0  0  0  0  0  0
   27.9861  -19.9378  -13.5792 C   0  0  0  0  0  0  0  0  0  0  0  0
   27.8293  -21.2342  -12.7856 C   0  0  0  0  0  0  0  0  0  0  0  0
   26.4185  -21.1217  -12.3028 C   0  0  1  0  0  0  0  0  0  0  0  0
   26.3096  -20.3473  -11.0382 C   0  0  0  0  0  0  0  0  0  0  0  0
   26.1553  -19.1208  -11.1100 O   0  0  0  0  0  0  0  0  0  0  0  0
   26.3818  -21.0018   -9.8018 N   0  0  0  0  0  0  0  0  0  0  0  0
   26.3347  -20.3085   -8.5294 C   0  0  1  0  0  0  0  0  0  0  0  0
   26.7559  -21.3200   -7.4906 C   0  0  0  0  0  0  0  0  0  0  0  0
   27.3546  -20.7285   -6.2795 C   0  0  0  0  0  0  0  0  0  0  0  0
   28.5809  -20.1142   -6.3471 C   0  0  0  0  0  0  0  0  0  0  0  0
   29.1814  -19.5413   -5.2319 C   0  0  0  0  0  0  0  0  0  0  0  0
   28.5582  -19.5706   -4.0031 C   0  0  0  0  0  0  0  0  0  0  0  0
   27.3262  -20.1852   -3.9243 C   0  0  0  0  0  0  0  0  0  0  0  0
   26.7284  -20.7589   -5.0489 C   0  0  0  0  0  0  0  0  0  0  0  0
   27.2353  -19.1363   -8.6135 C   0  0  0  0  0  0  0  0  0  0  0  0
   26.9045  -17.9196   -7.9811 O   0  0  0  0  0  0  0  0  0  0  0  0
   28.3080  -19.2399   -9.2618 O   0  0  0  0  0  0  0  0  0  0  0  0
  2  1  1  1
  2  4  1  0
  2  3  1  0
  4  5  2  0
  6 10  1  0
  6  4  1  0
  7  6  1  0
  8  7  1  0
  8  9  1  0
  9 10  1  0
 10 11  1  1
 11 12  2  0
 11 13  1  0
 13 14  1  0
 14 22  1  0
 14 15  1  1
 16 15  1  0
 16 21  1  0
 17 16  2  0
 18 17  1  0
 18 19  2  0
 19 20  1  0
 20 21  2  0
 22 24  2  0
 22 23  1  0
M  END
$$$$
