APF.pdb
     RDKit          3D

 24 25  0  0  1  0  0  0  0  0999 V2000
   24.0274  -22.1480  -15.2854 C   0  0  0  0  0  0  0  0  0  0  0  0
   25.5047  -21.9382  -15.6449 C   0  0  2  0  0  0  0  0  0  0  0  0
   25.9215  -23.1001  -16.3590 N   0  0  0  0  0  0  0  0  0  0  0  0
   26.2615  -21.6273  -14.4268 C   0  0  0  0  0  0  0  0  0  0  0  0
   26.7595  -22.6353  -13.8171 O   0  0  0  0  0  0  0  0  0  0  0  0
   26.4774  -20.3310  -13.8873 N   0  0  0  0  0  0  0  0  0  0  0  0
   25.9122  -19.1243  -14.3952 C   0  0  0  0  0  0  0  0  0  0  0  0
   26.6127  -18.0122  -13.6657 C   0  0  0  0  0  0  0  0  0  0  0  0
   27.8156  -18.6726  -12.9935 C   0  0  0  0  0  0  0  0  0  0  0  0
   27.3008  -20.0550  -12.7484 C   0  0  1  0  0  0  0  0  0  0  0  0
   26.5431  -20.1627  -11.4736 C   0  0  0  0  0  0  0  0  0  0  0  0
   25.3167  -19.9946  -11.5012 O   0  0  0  0  0  0  0  0  0  0  0  0
   27.2131  -20.4475  -10.2768 N   0  0  0  0  0  0  0  0  0  0  0  0
   26.5894  -21.1237   -9.1562 C   0  0  1  0  0  0  0  0  0  0  0  0
   27.7150  -21.5105   -8.2271 C   0  0  0  0  0  0  0  0  0  0  0  0
   27.8691  -20.6202   -7.0614 C   0  0  0  0  0  0  0  0  0  0  0  0
   27.2082  -20.8985   -5.8903 C   0  0  0  0  0  0  0  0  0  0  0  0
   27.3263  -20.0888   -4.7665 C   0  0  0  0  0  0  0  0  0  0  0  0
   28.1213  -18.9634   -4.7892 C   0  0  0  0  0  0  0  0  0  0  0  0
   28.7893  -18.6749   -5.9607 C   0  0  0  0  0  0  0  0  0  0  0  0
   28.6663  -19.4928   -7.0863 C   0  0  0  0  0  0  0  0  0  0  0  0
   25.6122  -20.1933   -8.5467 C   0  0  0  0  0  0  0  0  0  0  0  0
   25.7014  -18.8023   -8.7632 O   0  0  0  0  0  0  0  0  0  0  0  0
   24.6939  -20.6629   -7.8269 O   0  0  0  0  0  0  0  0  0  0  0  0
  2  1  1  1
  2  4  1  0
  2  3  1  0
  4  5  2  0
  6 10  1  0
  6  4  1  0
  7  6  1  0
  8  7  1  0
  8  9  1  0
  9 10  1  0
 10 11  1  1
 11 12  2  0
 11 13  1  0
 13 14  1  0
 14 22  1  0
 14 15  1  1
 16 15  1  0
 16 21  1  0
 17 16  2  0
 18 17  1  0
 18 19  2  0
 19 20  1  0
 20 21  2  0
 22 24  2  0
 22 23  1  0
M  END
$$$$
