DTI.pdb
     RDKit          3D

 24 23  0  0  1  0  0  0  0  0999 V2000
   15.6808  -12.7571  -17.1655 N   0  0  0  0  0  0  0  0  0  0  0  0
   16.0655  -11.8487  -16.0822 C   0  0  1  0  0  0  0  0  0  0  0  0
   16.6596  -12.6013  -14.9404 C   0  0  0  0  0  0  0  0  0  0  0  0
   15.7933  -13.6313  -14.3385 C   0  0  0  0  0  0  0  0  0  0  0  0
   14.7029  -13.2656  -13.7666 O   0  0  0  0  0  0  0  0  0  0  0  0
   16.9918  -10.8119  -16.6052 C   0  0  0  0  0  0  0  0  0  0  0  0
   17.8269  -11.1298  -17.4675 O   0  0  0  0  0  0  0  0  0  0  0  0
   16.0739  -14.9868  -14.3411 O   0  0  0  0  0  0  0  0  0  0  0  0
   16.3894   -7.7869  -18.4918 C   0  0  0  0  0  0  0  0  0  0  0  0
   17.1601   -7.2649  -17.2970 C   0  0  1  0  0  0  0  0  0  0  0  0
   16.2043   -6.8300  -16.3728 O   0  0  0  0  0  0  0  0  0  0  0  0
   17.8580   -8.4396  -16.6708 C   0  0  2  0  0  0  0  0  0  0  0  0
   16.9856   -9.4631  -16.1781 N   0  0  0  0  0  0  0  0  0  0  0  0
   18.7490   -7.9235  -15.5918 C   0  0  0  0  0  0  0  0  0  0  0  0
   18.2986   -7.8936  -14.4307 O   0  0  0  0  0  0  0  0  0  0  0  0
   23.3234  -10.0468  -14.3885 C   0  0  0  0  0  0  0  0  0  0  0  0
   22.0576   -9.2706  -14.4778 C   0  0  0  0  0  0  0  0  0  0  0  0
   22.1735   -7.8003  -14.6716 C   0  0  2  0  0  0  0  0  0  0  0  0
   23.1387   -7.2539  -13.6172 C   0  0  0  0  0  0  0  0  0  0  0  0
   20.9695   -6.9684  -14.7960 C   0  0  2  0  0  0  0  0  0  0  0  0
   20.0655   -7.4736  -15.8329 N   0  0  0  0  0  0  0  0  0  0  0  0
   21.1182   -5.5148  -14.9348 C   0  0  0  0  0  0  0  0  0  0  0  0
   21.0018   -4.8374  -15.9789 O   0  0  0  0  0  0  0  0  0  0  0  0
   21.4294   -4.7292  -13.7934 O   0  0  0  0  0  0  0  0  0  0  0  0
  2  1  1  6
  2  6  1  0
  3  2  1  0
  3  4  1  0
  4  5  2  0
  4  8  1  0
  6  7  2  0
 10  9  1  6
 10 12  1  0
 11 10  1  0
 12 14  1  0
 12 13  1  1
 13  6  1  0
 14 21  1  0
 15 14  2  0
 16 17  1  0
 18 19  1  1
 18 17  1  0
 20 21  1  6
 20 18  1  0
 22 20  1  0
 23 22  2  0
 24 22  1  0
M  END
$$$$
