DTI.pdb
     RDKit          3D

 24 23  0  0  1  0  0  0  0  0999 V2000
   19.1406  -13.0127  -16.8438 N   0  0  0  0  0  0  0  0  0  0  0  0
   20.2092  -12.1035  -17.2661 C   0  0  1  0  0  0  0  0  0  0  0  0
   20.5505  -12.3118  -18.7025 C   0  0  0  0  0  0  0  0  0  0  0  0
   21.0159  -13.6655  -19.0555 C   0  0  0  0  0  0  0  0  0  0  0  0
   21.1237  -14.5447  -18.1255 O   0  0  0  0  0  0  0  0  0  0  0  0
   19.8093  -10.7001  -16.9887 C   0  0  0  0  0  0  0  0  0  0  0  0
   19.3788  -10.0009  -17.9204 O   0  0  0  0  0  0  0  0  0  0  0  0
   21.3542  -14.0657  -20.3367 O   0  0  0  0  0  0  0  0  0  0  0  0
   17.1539   -9.3912  -14.9834 C   0  0  0  0  0  0  0  0  0  0  0  0
   18.3520   -8.6763  -14.3937 C   0  0  1  0  0  0  0  0  0  0  0  0
   18.7559   -9.4328  -13.2886 O   0  0  0  0  0  0  0  0  0  0  0  0
   19.4628   -8.7646  -15.4025 C   0  0  2  0  0  0  0  0  0  0  0  0
   19.8883  -10.0968  -15.7114 N   0  0  0  0  0  0  0  0  0  0  0  0
   20.5996   -7.9350  -14.9084 C   0  0  0  0  0  0  0  0  0  0  0  0
   21.6143   -8.5272  -14.4943 O   0  0  0  0  0  0  0  0  0  0  0  0
   21.9398   -3.4909  -17.6605 C   0  0  0  0  0  0  0  0  0  0  0  0
   22.0404   -4.7029  -16.8040 C   0  0  0  0  0  0  0  0  0  0  0  0
   21.8637   -4.5171  -15.3387 C   0  0  2  0  0  0  0  0  0  0  0  0
   22.9699   -3.5852  -14.8386 C   0  0  0  0  0  0  0  0  0  0  0  0
   21.6848   -5.6780  -14.4571 C   0  0  2  0  0  0  0  0  0  0  0  0
   20.5700   -6.5235  -14.8926 N   0  0  0  0  0  0  0  0  0  0  0  0
   21.6082   -5.4668  -13.0066 C   0  0  0  0  0  0  0  0  0  0  0  0
   20.5792   -5.4449  -12.2972 O   0  0  0  0  0  0  0  0  0  0  0  0
   22.8005   -5.2575  -12.2641 O   0  0  0  0  0  0  0  0  0  0  0  0
  2  1  1  6
  2  6  1  0
  3  2  1  0
  3  4  1  0
  4  5  2  0
  4  8  1  0
  6  7  2  0
 10  9  1  6
 10 12  1  0
 11 10  1  0
 12 14  1  0
 12 13  1  1
 13  6  1  0
 14 21  1  0
 15 14  2  0
 16 17  1  0
 18 19  1  1
 18 17  1  0
 20 21  1  6
 20 18  1  0
 22 20  1  0
 23 22  2  0
 24 22  1  0
M  END
$$$$
