DTI.pdb
     RDKit          3D

 24 23  0  0  1  0  0  0  0  0999 V2000
   29.8949  -24.3767  -17.3374 N   0  0  0  0  0  0  0  0  0  0  0  0
   28.4830  -24.0125  -17.1927 C   0  0  1  0  0  0  0  0  0  0  0  0
   27.6550  -25.2076  -16.8622 C   0  0  0  0  0  0  0  0  0  0  0  0
   27.5868  -26.2432  -17.9094 C   0  0  0  0  0  0  0  0  0  0  0  0
   27.2229  -25.9028  -19.0932 O   0  0  0  0  0  0  0  0  0  0  0  0
   28.3454  -22.9426  -16.1716 C   0  0  0  0  0  0  0  0  0  0  0  0
   29.1946  -22.8579  -15.2694 O   0  0  0  0  0  0  0  0  0  0  0  0
   27.8880  -27.5791  -17.7076 O   0  0  0  0  0  0  0  0  0  0  0  0
   28.0382  -19.2120  -16.6147 C   0  0  0  0  0  0  0  0  0  0  0  0
   26.8464  -19.5979  -15.7632 C   0  0  1  0  0  0  0  0  0  0  0  0
   25.7702  -19.7561  -16.6427 O   0  0  0  0  0  0  0  0  0  0  0  0
   27.1328  -20.9566  -15.1879 C   0  0  2  0  0  0  0  0  0  0  0  0
   27.2925  -21.9977  -16.1584 N   0  0  0  0  0  0  0  0  0  0  0  0
   26.0476  -21.2835  -14.2183 C   0  0  0  0  0  0  0  0  0  0  0  0
   25.1830  -22.1084  -14.5701 O   0  0  0  0  0  0  0  0  0  0  0  0
   26.8645  -20.1769   -8.7219 C   0  0  0  0  0  0  0  0  0  0  0  0
   26.4789  -20.8946   -9.9665 C   0  0  0  0  0  0  0  0  0  0  0  0
   25.2195  -20.4695  -10.6345 C   0  0  2  0  0  0  0  0  0  0  0  0
   24.0653  -20.6692   -9.6496 C   0  0  0  0  0  0  0  0  0  0  0  0
   24.8858  -20.9623  -11.9771 C   0  0  2  0  0  0  0  0  0  0  0  0
   25.9641  -20.7015  -12.9345 N   0  0  0  0  0  0  0  0  0  0  0  0
   23.5959  -20.5929  -12.5722 C   0  0  0  0  0  0  0  0  0  0  0  0
   23.3266  -19.5539  -13.2129 O   0  0  0  0  0  0  0  0  0  0  0  0
   22.4864  -21.4699  -12.4422 O   0  0  0  0  0  0  0  0  0  0  0  0
  2  1  1  1
  2  6  1  0
  3  2  1  0
  3  4  1  0
  4  5  2  0
  4  8  1  0
  6  7  2  0
 10  9  1  6
 10 12  1  0
 11 10  1  0
 12 14  1  0
 12 13  1  6
 13  6  1  0
 14 21  1  0
 15 14  2  0
 16 17  1  0
 18 19  1  1
 18 17  1  0
 20 21  1  6
 20 18  1  0
 22 20  1  0
 23 22  2  0
 24 22  1  0
M  END
$$$$
