DTI.pdb
     RDKit          3D

 24 23  0  0  1  0  0  0  0  0999 V2000
   16.6460  -12.2058  -15.3785 N   0  0  0  0  0  0  0  0  0  0  0  0
   15.8462  -11.1222  -14.8014 C   0  0  1  0  0  0  0  0  0  0  0  0
   14.4345  -11.5541  -14.5923 C   0  0  0  0  0  0  0  0  0  0  0  0
   13.6541  -11.7924  -15.8202 C   0  0  0  0  0  0  0  0  0  0  0  0
   13.9057  -11.0825  -16.8607 O   0  0  0  0  0  0  0  0  0  0  0  0
   16.4757  -10.6540  -13.5401 C   0  0  0  0  0  0  0  0  0  0  0  0
   16.8245  -11.4927  -12.6933 O   0  0  0  0  0  0  0  0  0  0  0  0
   12.6506  -12.7387  -15.9366 O   0  0  0  0  0  0  0  0  0  0  0  0
   19.5637   -9.1649  -12.6455 C   0  0  0  0  0  0  0  0  0  0  0  0
   18.5872   -8.1317  -12.1229 C   0  0  1  0  0  0  0  0  0  0  0  0
   18.4578   -7.1692  -13.1297 O   0  0  0  0  0  0  0  0  0  0  0  0
   17.2496   -8.8063  -12.0008 C   0  0  2  0  0  0  0  0  0  0  0  0
   16.7078   -9.2923  -13.2343 N   0  0  0  0  0  0  0  0  0  0  0  0
   16.3131   -7.8539  -11.3372 C   0  0  0  0  0  0  0  0  0  0  0  0
   15.6272   -7.1112  -12.0649 O   0  0  0  0  0  0  0  0  0  0  0  0
   12.4732   -9.1771   -8.0877 C   0  0  0  0  0  0  0  0  0  0  0  0
   13.3778   -8.4485   -9.0169 C   0  0  0  0  0  0  0  0  0  0  0  0
   14.3037   -7.4486   -8.4204 C   0  0  2  0  0  0  0  0  0  0  0  0
   13.4703   -6.4380   -7.6291 C   0  0  0  0  0  0  0  0  0  0  0  0
   15.3224   -6.7901   -9.2485 C   0  0  2  0  0  0  0  0  0  0  0  0
   16.1762   -7.7635   -9.9347 N   0  0  0  0  0  0  0  0  0  0  0  0
   16.1530   -5.7362   -8.6536 C   0  0  0  0  0  0  0  0  0  0  0  0
   17.2469   -5.8752   -8.0650 O   0  0  0  0  0  0  0  0  0  0  0  0
   15.7238   -4.3841   -8.7186 O   0  0  0  0  0  0  0  0  0  0  0  0
  2  1  1  1
  2  6  1  0
  3  2  1  0
  3  4  1  0
  4  5  2  0
  4  8  1  0
  6  7  2  0
 10  9  1  6
 10 12  1  0
 11 10  1  0
 12 14  1  0
 12 13  1  6
 13  6  1  0
 14 21  1  0
 15 14  2  0
 16 17  1  0
 18 19  1  6
 18 17  1  0
 20 21  1  1
 20 18  1  0
 22 20  1  0
 23 22  2  0
 24 22  1  0
M  END
$$$$
