DTI.pdb
     RDKit          3D

 24 23  0  0  1  0  0  0  0  0999 V2000
   15.7745  -13.9926  -18.3418 N   0  0  0  0  0  0  0  0  0  0  0  0
   16.4817  -13.6717  -17.0992 C   0  0  1  0  0  0  0  0  0  0  0  0
   17.2955  -14.8311  -16.6338 C   0  0  0  0  0  0  0  0  0  0  0  0
   16.5316  -16.0379  -16.2680 C   0  0  0  0  0  0  0  0  0  0  0  0
   17.0315  -17.1908  -16.5338 O   0  0  0  0  0  0  0  0  0  0  0  0
   17.3111  -12.4553  -17.2966 C   0  0  0  0  0  0  0  0  0  0  0  0
   18.1023  -12.4142  -18.2529 O   0  0  0  0  0  0  0  0  0  0  0  0
   15.2924  -16.0208  -15.6512 O   0  0  0  0  0  0  0  0  0  0  0  0
   16.1717   -9.0606  -17.9101 C   0  0  0  0  0  0  0  0  0  0  0  0
   17.1220   -8.8699  -16.7462 C   0  0  1  0  0  0  0  0  0  0  0  0
   16.3317   -8.8581  -15.5920 O   0  0  0  0  0  0  0  0  0  0  0  0
   17.9791  -10.1020  -16.6660 C   0  0  2  0  0  0  0  0  0  0  0  0
   17.2587  -11.3213  -16.4523 N   0  0  0  0  0  0  0  0  0  0  0  0
   18.9998   -9.8835  -15.6005 C   0  0  0  0  0  0  0  0  0  0  0  0
   18.7393  -10.2934  -14.4534 O   0  0  0  0  0  0  0  0  0  0  0  0
   23.7904  -11.7877  -15.8689 C   0  0  0  0  0  0  0  0  0  0  0  0
   22.4979  -11.1691  -15.4695 C   0  0  0  0  0  0  0  0  0  0  0  0
   22.5102   -9.7177  -15.1438 C   0  0  2  0  0  0  0  0  0  0  0  0
   23.5927   -9.4738  -14.0898 C   0  0  0  0  0  0  0  0  0  0  0  0
   21.2611   -9.0168  -14.8190 C   0  0  2  0  0  0  0  0  0  0  0  0
   20.2331   -9.2389  -15.8394 N   0  0  0  0  0  0  0  0  0  0  0  0
   21.3127   -7.5918  -14.4708 C   0  0  0  0  0  0  0  0  0  0  0  0
   21.7379   -7.0859  -13.4097 O   0  0  0  0  0  0  0  0  0  0  0  0
   20.8422   -6.6253  -15.3988 O   0  0  0  0  0  0  0  0  0  0  0  0
  2  1  1  6
  2  6  1  0
  3  2  1  0
  3  4  1  0
  4  5  2  0
  4  8  1  0
  6  7  2  0
 10  9  1  6
 10 12  1  0
 11 10  1  0
 12 14  1  0
 12 13  1  1
 13  6  1  0
 14 21  1  0
 15 14  2  0
 16 17  1  0
 18 19  1  1
 18 17  1  0
 20 21  1  6
 20 18  1  0
 22 20  1  0
 23 22  2  0
 24 22  1  0
M  END
$$$$
