DTI.pdb
     RDKit          3D

 24 23  0  0  1  0  0  0  0  0999 V2000
   16.2436  -11.2956  -17.8448 N   0  0  0  0  0  0  0  0  0  0  0  0
   16.2808  -10.2803  -16.7891 C   0  0  1  0  0  0  0  0  0  0  0  0
   15.9795  -10.8825  -15.4588 C   0  0  0  0  0  0  0  0  0  0  0  0
   14.6691  -11.5484  -15.3445 C   0  0  0  0  0  0  0  0  0  0  0  0
   13.6157  -10.9066  -15.7027 O   0  0  0  0  0  0  0  0  0  0  0  0
   17.5984   -9.5945  -16.8020 C   0  0  0  0  0  0  0  0  0  0  0  0
   18.6135  -10.2454  -17.0987 O   0  0  0  0  0  0  0  0  0  0  0  0
   14.4857  -12.8353  -14.8687 O   0  0  0  0  0  0  0  0  0  0  0  0
   18.5971   -6.5770  -18.7356 C   0  0  0  0  0  0  0  0  0  0  0  0
   18.9960   -6.2374  -17.3144 C   0  0  1  0  0  0  0  0  0  0  0  0
   17.9484   -5.4776  -16.7834 O   0  0  0  0  0  0  0  0  0  0  0  0
   19.0253   -7.5261  -16.5413 C   0  0  2  0  0  0  0  0  0  0  0  0
   17.7763   -8.2254  -16.4929 N   0  0  0  0  0  0  0  0  0  0  0  0
   19.5314   -7.2284  -15.1702 C   0  0  0  0  0  0  0  0  0  0  0  0
   18.6922   -7.0223  -14.2729 O   0  0  0  0  0  0  0  0  0  0  0  0
   22.0597   -9.2760  -10.7172 C   0  0  0  0  0  0  0  0  0  0  0  0
   22.6878   -8.3226  -11.6708 C   0  0  0  0  0  0  0  0  0  0  0  0
   22.1080   -8.2476  -13.0387 C   0  0  2  0  0  0  0  0  0  0  0  0
   23.1679   -8.7257  -14.0338 C   0  0  0  0  0  0  0  0  0  0  0  0
   21.4380   -7.0237  -13.4973 C   0  0  2  0  0  0  0  0  0  0  0  0
   20.9065   -7.1721  -14.8548 N   0  0  0  0  0  0  0  0  0  0  0  0
   22.1389   -5.7395  -13.3781 C   0  0  0  0  0  0  0  0  0  0  0  0
   22.4748   -5.1543  -12.3259 O   0  0  0  0  0  0  0  0  0  0  0  0
   22.5057   -5.0289  -14.5516 O   0  0  0  0  0  0  0  0  0  0  0  0
  2  1  1  6
  2  6  1  0
  3  2  1  0
  3  4  1  0
  4  5  2  0
  4  8  1  0
  6  7  2  0
 10  9  1  6
 10 12  1  0
 11 10  1  0
 12 14  1  0
 12 13  1  1
 13  6  1  0
 14 21  1  0
 15 14  2  0
 16 17  1  0
 18 19  1  6
 18 17  1  0
 20 21  1  6
 20 18  1  0
 22 20  1  0
 23 22  2  0
 24 22  1  0
M  END
$$$$
