DTI.pdb
     RDKit          3D

 24 23  0  0  1  0  0  0  0  0999 V2000
   20.3356  -16.3817  -17.1733 N   0  0  0  0  0  0  0  0  0  0  0  0
   20.4043  -15.0479  -17.7760 C   0  0  1  0  0  0  0  0  0  0  0  0
   19.0937  -14.6649  -18.3750 C   0  0  0  0  0  0  0  0  0  0  0  0
   18.5870  -15.5670  -19.4253 C   0  0  0  0  0  0  0  0  0  0  0  0
   19.3831  -15.9312  -20.3651 O   0  0  0  0  0  0  0  0  0  0  0  0
   20.8588  -14.0638  -16.7604 C   0  0  0  0  0  0  0  0  0  0  0  0
   20.3365  -14.0758  -15.6338 O   0  0  0  0  0  0  0  0  0  0  0  0
   17.2933  -16.0570  -19.4767 O   0  0  0  0  0  0  0  0  0  0  0  0
   24.4319  -13.2552  -15.6262 C   0  0  0  0  0  0  0  0  0  0  0  0
   23.8076  -11.9292  -16.0085 C   0  0  1  0  0  0  0  0  0  0  0  0
   24.2033  -11.6742  -17.3258 O   0  0  0  0  0  0  0  0  0  0  0  0
   22.3186  -12.1318  -16.0401 C   0  0  2  0  0  0  0  0  0  0  0  0
   21.8645  -13.0970  -16.9960 N   0  0  0  0  0  0  0  0  0  0  0  0
   21.6785  -10.8039  -16.2670 C   0  0  0  0  0  0  0  0  0  0  0  0
   21.4038  -10.4839  -17.4392 O   0  0  0  0  0  0  0  0  0  0  0  0
   17.0717   -7.5187  -15.8223 C   0  0  0  0  0  0  0  0  0  0  0  0
   18.5512   -7.3844  -15.7456 C   0  0  0  0  0  0  0  0  0  0  0  0
   19.3329   -8.6193  -15.4688 C   0  0  2  0  0  0  0  0  0  0  0  0
   18.7327   -9.2984  -14.2356 C   0  0  0  0  0  0  0  0  0  0  0  0
   20.7997   -8.5747  -15.4104 C   0  0  2  0  0  0  0  0  0  0  0  0
   21.3761   -9.9082  -15.2183 N   0  0  0  0  0  0  0  0  0  0  0  0
   21.4487   -7.6200  -14.5038 C   0  0  0  0  0  0  0  0  0  0  0  0
   22.0269   -7.8726  -13.4247 O   0  0  0  0  0  0  0  0  0  0  0  0
   21.4567   -6.2376  -14.8291 O   0  0  0  0  0  0  0  0  0  0  0  0
  2  1  1  1
  2  6  1  0
  3  2  1  0
  3  4  1  0
  4  5  2  0
  4  8  1  0
  6  7  2  0
 10  9  1  6
 10 12  1  0
 11 10  1  0
 12 14  1  0
 12 13  1  6
 13  6  1  0
 14 21  1  0
 15 14  2  0
 16 17  1  0
 18 19  1  1
 18 17  1  0
 20 21  1  1
 20 18  1  0
 22 20  1  0
 23 22  2  0
 24 22  1  0
M  END
$$$$
