DTI.pdb
     RDKit          3D

 24 23  0  0  1  0  0  0  0  0999 V2000
   15.9160  -13.9135  -17.9198 N   0  0  0  0  0  0  0  0  0  0  0  0
   16.1689  -12.9910  -16.8099 C   0  0  1  0  0  0  0  0  0  0  0  0
   16.4123  -13.7362  -15.5416 C   0  0  0  0  0  0  0  0  0  0  0  0
   15.3023  -14.5918  -15.0840 C   0  0  0  0  0  0  0  0  0  0  0  0
   14.1108  -14.1124  -15.0846 O   0  0  0  0  0  0  0  0  0  0  0  0
   17.3030  -12.0954  -17.1535 C   0  0  0  0  0  0  0  0  0  0  0  0
   18.3589  -12.5949  -17.5751 O   0  0  0  0  0  0  0  0  0  0  0  0
   15.4516  -15.8955  -14.6429 O   0  0  0  0  0  0  0  0  0  0  0  0
   17.2217   -9.0851  -19.4465 C   0  0  0  0  0  0  0  0  0  0  0  0
   17.8795   -8.5858  -18.1767 C   0  0  1  0  0  0  0  0  0  0  0  0
   16.8703   -7.9726  -17.4268 O   0  0  0  0  0  0  0  0  0  0  0  0
   18.3173   -9.7946  -17.3982 C   0  0  2  0  0  0  0  0  0  0  0  0
   17.2591  -10.6867  -17.0298 N   0  0  0  0  0  0  0  0  0  0  0  0
   19.0680   -9.3222  -16.1992 C   0  0  0  0  0  0  0  0  0  0  0  0
   18.4715   -9.3152  -15.1055 O   0  0  0  0  0  0  0  0  0  0  0  0
   23.6201  -11.4489  -14.6770 C   0  0  0  0  0  0  0  0  0  0  0  0
   22.3334  -10.7122  -14.7970 C   0  0  0  0  0  0  0  0  0  0  0  0
   22.4058   -9.2310  -14.9136 C   0  0  2  0  0  0  0  0  0  0  0  0
   23.2641   -8.7025  -13.7620 C   0  0  0  0  0  0  0  0  0  0  0  0
   21.1832   -8.4377  -15.0949 C   0  0  2  0  0  0  0  0  0  0  0  0
   20.4107   -8.8888  -16.2555 N   0  0  0  0  0  0  0  0  0  0  0  0
   21.2781   -6.9730  -15.1028 C   0  0  0  0  0  0  0  0  0  0  0  0
   21.4752   -6.2210  -14.1239 O   0  0  0  0  0  0  0  0  0  0  0  0
   21.1391   -6.2675  -16.3275 O   0  0  0  0  0  0  0  0  0  0  0  0
  2  1  1  6
  2  6  1  0
  3  2  1  0
  3  4  1  0
  4  5  2  0
  4  8  1  0
  6  7  2  0
 10  9  1  6
 10 12  1  0
 11 10  1  0
 12 14  1  0
 12 13  1  1
 13  6  1  0
 14 21  1  0
 15 14  2  0
 16 17  1  0
 18 19  1  1
 18 17  1  0
 20 21  1  6
 20 18  1  0
 22 20  1  0
 23 22  2  0
 24 22  1  0
M  END
$$$$
