DTI.pdb
     RDKit          3D

 24 23  0  0  1  0  0  0  0  0999 V2000
   24.7640  -18.3613  -16.6172 N   0  0  0  0  0  0  0  0  0  0  0  0
   25.8305  -18.4816  -15.6197 C   0  0  1  0  0  0  0  0  0  0  0  0
   26.6942  -17.2662  -15.6130 C   0  0  0  0  0  0  0  0  0  0  0  0
   27.5905  -17.1169  -16.7740 C   0  0  0  0  0  0  0  0  0  0  0  0
   27.0933  -17.2060  -17.9549 O   0  0  0  0  0  0  0  0  0  0  0  0
   25.2374  -18.7481  -14.2842 C   0  0  0  0  0  0  0  0  0  0  0  0
   24.3626  -17.9813  -13.8495 O   0  0  0  0  0  0  0  0  0  0  0  0
   28.9526  -16.8867  -16.6848 O   0  0  0  0  0  0  0  0  0  0  0  0
   23.1732  -21.3799  -13.5154 C   0  0  0  0  0  0  0  0  0  0  0  0
   24.1734  -21.5403  -12.3893 C   0  0  1  0  0  0  0  0  0  0  0  0
   25.0991  -22.4967  -12.8197 O   0  0  0  0  0  0  0  0  0  0  0  0
   24.9219  -20.2422  -12.2716 C   0  0  2  0  0  0  0  0  0  0  0  0
   25.6099  -19.8363  -13.4604 N   0  0  0  0  0  0  0  0  0  0  0  0
   25.8589  -20.3547  -11.1167 C   0  0  0  0  0  0  0  0  0  0  0  0
   27.0093  -20.7768  -11.3405 O   0  0  0  0  0  0  0  0  0  0  0  0
   27.4790  -17.3173   -7.0279 C   0  0  0  0  0  0  0  0  0  0  0  0
   27.3878  -18.4687   -7.9654 C   0  0  0  0  0  0  0  0  0  0  0  0
   26.4486  -19.5650   -7.6069 C   0  0  2  0  0  0  0  0  0  0  0  0
   26.9141  -20.1799   -6.2850 C   0  0  0  0  0  0  0  0  0  0  0  0
   26.0920  -20.5926   -8.5938 C   0  0  2  0  0  0  0  0  0  0  0  0
   25.4966  -20.0057   -9.7973 N   0  0  0  0  0  0  0  0  0  0  0  0
   25.2985  -21.7500   -8.1634 C   0  0  0  0  0  0  0  0  0  0  0  0
   25.6910  -22.7327   -7.4980 O   0  0  0  0  0  0  0  0  0  0  0  0
   23.9229  -21.8250   -8.5083 O   0  0  0  0  0  0  0  0  0  0  0  0
  2  1  1  6
  2  6  1  0
  3  2  1  0
  3  4  1  0
  4  5  2  0
  4  8  1  0
  6  7  2  0
 10  9  1  6
 10 12  1  0
 11 10  1  0
 12 14  1  0
 12 13  1  6
 13  6  1  0
 14 21  1  0
 15 14  2  0
 16 17  1  0
 18 19  1  1
 18 17  1  0
 20 21  1  6
 20 18  1  0
 22 20  1  0
 23 22  2  0
 24 22  1  0
M  END
$$$$
