DTI.pdb
     RDKit          3D

 24 23  0  0  1  0  0  0  0  0999 V2000
   20.0222  -15.0945  -19.2870 N   0  0  0  0  0  0  0  0  0  0  0  0
   21.4762  -14.9209  -19.2340 C   0  0  1  0  0  0  0  0  0  0  0  0
   22.1269  -15.4970  -20.4455 C   0  0  0  0  0  0  0  0  0  0  0  0
   21.9181  -16.9416  -20.6530 C   0  0  0  0  0  0  0  0  0  0  0  0
   21.2058  -17.5919  -19.8048 O   0  0  0  0  0  0  0  0  0  0  0  0
   21.8013  -13.4818  -19.0609 C   0  0  0  0  0  0  0  0  0  0  0  0
   22.9926  -13.1326  -19.0308 O   0  0  0  0  0  0  0  0  0  0  0  0
   22.4444  -17.6629  -21.7109 O   0  0  0  0  0  0  0  0  0  0  0  0
   19.4175  -10.5190  -20.4544 C   0  0  0  0  0  0  0  0  0  0  0  0
   19.9409  -10.1618  -19.0786 C   0  0  1  0  0  0  0  0  0  0  0  0
   18.9356  -10.5152  -18.1722 O   0  0  0  0  0  0  0  0  0  0  0  0
   21.1078  -11.0668  -18.7984 C   0  0  2  0  0  0  0  0  0  0  0  0
   20.8265  -12.4654  -18.9254 N   0  0  0  0  0  0  0  0  0  0  0  0
   21.6262  -10.7410  -17.4384 C   0  0  0  0  0  0  0  0  0  0  0  0
   21.2242  -11.4313  -16.4825 O   0  0  0  0  0  0  0  0  0  0  0  0
   26.6539  -10.4439  -14.5245 C   0  0  0  0  0  0  0  0  0  0  0  0
   25.2797   -9.8745  -14.5321 C   0  0  0  0  0  0  0  0  0  0  0  0
   24.5192   -9.9497  -15.8083 C   0  0  2  0  0  0  0  0  0  0  0  0
   25.4133   -9.4150  -16.9295 C   0  0  0  0  0  0  0  0  0  0  0  0
   23.1539   -9.4155  -15.8941 C   0  0  2  0  0  0  0  0  0  0  0  0
   22.5427   -9.6946  -17.1964 N   0  0  0  0  0  0  0  0  0  0  0  0
   22.9110   -8.0161  -15.5234 C   0  0  0  0  0  0  0  0  0  0  0  0
   23.0653   -7.4923  -14.3991 O   0  0  0  0  0  0  0  0  0  0  0  0
   22.4470   -7.1007  -16.5050 O   0  0  0  0  0  0  0  0  0  0  0  0
  2  1  1  6
  2  6  1  0
  3  2  1  0
  3  4  1  0
  4  5  2  0
  4  8  1  0
  6  7  2  0
 10  9  1  6
 10 12  1  0
 11 10  1  0
 12 14  1  0
 12 13  1  1
 13  6  1  0
 14 21  1  0
 15 14  2  0
 16 17  1  0
 18 19  1  6
 18 17  1  0
 20 21  1  6
 20 18  1  0
 22 20  1  0
 23 22  2  0
 24 22  1  0
M  END
$$$$
