DTI.pdb
     RDKit          3D

 24 23  0  0  1  0  0  0  0  0999 V2000
   20.0500  -15.4178  -20.1728 N   0  0  0  0  0  0  0  0  0  0  0  0
   19.3874  -14.5728  -19.1759 C   0  0  1  0  0  0  0  0  0  0  0  0
   19.2373  -15.2944  -17.8798 C   0  0  0  0  0  0  0  0  0  0  0  0
   18.4860  -16.5615  -17.9410 C   0  0  0  0  0  0  0  0  0  0  0  0
   17.5154  -16.6656  -18.7758 O   0  0  0  0  0  0  0  0  0  0  0  0
   20.1400  -13.3017  -19.0193 C   0  0  0  0  0  0  0  0  0  0  0  0
   21.3714  -13.3069  -19.1799 O   0  0  0  0  0  0  0  0  0  0  0  0
   18.7514  -17.6659  -17.1498 O   0  0  0  0  0  0  0  0  0  0  0  0
   19.2763  -10.0509  -20.7069 C   0  0  0  0  0  0  0  0  0  0  0  0
   19.5206   -9.6588  -19.2644 C   0  0  1  0  0  0  0  0  0  0  0  0
   18.2604   -9.5637  -18.6646 O   0  0  0  0  0  0  0  0  0  0  0  0
   20.2237  -10.8113  -18.6037 C   0  0  2  0  0  0  0  0  0  0  0  0
   19.5362  -12.0645  -18.6931 N   0  0  0  0  0  0  0  0  0  0  0  0
   20.4841  -10.4378  -17.1834 C   0  0  0  0  0  0  0  0  0  0  0  0
   19.6754  -10.8311  -16.3213 O   0  0  0  0  0  0  0  0  0  0  0  0
   24.9531  -11.5222  -14.7307 C   0  0  0  0  0  0  0  0  0  0  0  0
   23.5949  -11.1289  -15.1927 C   0  0  0  0  0  0  0  0  0  0  0  0
   23.1665   -9.7285  -14.9316 C   0  0  2  0  0  0  0  0  0  0  0  0
   23.3792   -9.4330  -13.4451 C   0  0  0  0  0  0  0  0  0  0  0  0
   21.8616   -9.2485  -15.4046 C   0  0  2  0  0  0  0  0  0  0  0  0
   21.5972   -9.6662  -16.7841 N   0  0  0  0  0  0  0  0  0  0  0  0
   21.5226   -7.8295  -15.2438 C   0  0  0  0  0  0  0  0  0  0  0  0
   21.7077   -6.9080  -16.0679 O   0  0  0  0  0  0  0  0  0  0  0  0
   20.9135   -7.3856  -14.0401 O   0  0  0  0  0  0  0  0  0  0  0  0
  2  1  1  6
  2  6  1  0
  3  2  1  0
  3  4  1  0
  4  5  2  0
  4  8  1  0
  6  7  2  0
 10  9  1  6
 10 12  1  0
 11 10  1  0
 12 14  1  0
 12 13  1  1
 13  6  1  0
 14 21  1  0
 15 14  2  0
 16 17  1  0
 18 19  1  1
 18 17  1  0
 20 21  1  6
 20 18  1  0
 22 20  1  0
 23 22  2  0
 24 22  1  0
M  END
$$$$
