DTI.pdb
     RDKit          3D

 24 23  0  0  1  0  0  0  0  0999 V2000
   19.9669  -20.1606  -14.9973 N   0  0  0  0  0  0  0  0  0  0  0  0
   19.6525  -20.9635  -13.8126 C   0  0  1  0  0  0  0  0  0  0  0  0
   18.5702  -21.9463  -14.1060 C   0  0  0  0  0  0  0  0  0  0  0  0
   17.2573  -21.3650  -14.4408 C   0  0  0  0  0  0  0  0  0  0  0  0
   17.2140  -20.3345  -15.2063 O   0  0  0  0  0  0  0  0  0  0  0  0
   20.8856  -21.6275  -13.3179 C   0  0  0  0  0  0  0  0  0  0  0  0
   20.8011  -22.4275  -12.3718 O   0  0  0  0  0  0  0  0  0  0  0  0
   16.0466  -21.8538  -13.9811 O   0  0  0  0  0  0  0  0  0  0  0  0
   22.9078  -24.0254  -14.9393 C   0  0  0  0  0  0  0  0  0  0  0  0
   23.9398  -22.9727  -14.5915 C   0  0  1  0  0  0  0  0  0  0  0  0
   24.0556  -22.1496  -15.7166 O   0  0  0  0  0  0  0  0  0  0  0  0
   23.3564  -22.1231  -13.4974 C   0  0  2  0  0  0  0  0  0  0  0  0
   22.1723  -21.4046  -13.8623 N   0  0  0  0  0  0  0  0  0  0  0  0
   24.4226  -21.1983  -13.0153 C   0  0  0  0  0  0  0  0  0  0  0  0
   24.2192  -19.9735  -13.1169 O   0  0  0  0  0  0  0  0  0  0  0  0
   26.3335  -20.8439   -8.0932 C   0  0  0  0  0  0  0  0  0  0  0  0
   25.9969  -20.5585   -9.5138 C   0  0  0  0  0  0  0  0  0  0  0  0
   26.9802  -20.9859  -10.5449 C   0  0  2  0  0  0  0  0  0  0  0  0
   28.3568  -20.4512  -10.1433 C   0  0  0  0  0  0  0  0  0  0  0  0
   26.7039  -20.7718  -11.9714 C   0  0  2  0  0  0  0  0  0  0  0  0
   25.6370  -21.6519  -12.4556 N   0  0  0  0  0  0  0  0  0  0  0  0
   27.8212  -20.7790  -12.9232 C   0  0  0  0  0  0  0  0  0  0  0  0
   28.3336  -21.7724  -13.4829 O   0  0  0  0  0  0  0  0  0  0  0  0
   28.4357  -19.5533  -13.2931 O   0  0  0  0  0  0  0  0  0  0  0  0
  2  1  1  6
  2  6  1  0
  3  2  1  0
  3  4  1  0
  4  5  2  0
  4  8  1  0
  6  7  2  0
 10  9  1  6
 10 12  1  0
 11 10  1  0
 12 14  1  0
 12 13  1  6
 13  6  1  0
 14 21  1  0
 15 14  2  0
 16 17  1  0
 18 19  1  1
 18 17  1  0
 20 21  1  6
 20 18  1  0
 22 20  1  0
 23 22  2  0
 24 22  1  0
M  END
$$$$
