AAW.pdb
     RDKit          3D

 25 26  0  0  1  0  0  0  0  0999 V2000
   29.9738  -21.4919  -19.2083 C   0  0  0  0  0  0  0  0  0  0  0  0
   28.5932  -21.7231  -18.5744 C   0  0  2  0  0  0  0  0  0  0  0  0
   27.6330  -20.9105  -19.2795 N   0  0  0  0  0  0  0  0  0  0  0  0
   28.6307  -21.2664  -17.1513 C   0  0  0  0  0  0  0  0  0  0  0  0
   29.3653  -21.8574  -16.2910 O   0  0  0  0  0  0  0  0  0  0  0  0
   27.5662  -18.2779  -15.1224 C   0  0  0  0  0  0  0  0  0  0  0  0
   27.8553  -19.7517  -15.2844 C   0  0  2  0  0  0  0  0  0  0  0  0
   27.8717  -20.1694  -16.6603 N   0  0  0  0  0  0  0  0  0  0  0  0
   26.8955  -20.4897  -14.4576 C   0  0  0  0  0  0  0  0  0  0  0  0
   25.8295  -20.8991  -14.9557 O   0  0  0  0  0  0  0  0  0  0  0  0
   27.1822  -20.7325  -13.1043 N   0  0  0  0  0  0  0  0  0  0  0  0
   26.2555  -21.4045  -12.1821 C   0  0  1  0  0  0  0  0  0  0  0  0
   27.0219  -21.6201  -10.9345 C   0  0  0  0  0  0  0  0  0  0  0  0
   26.6091  -20.9182   -9.7305 C   0  0  0  0  0  0  0  0  0  0  0  0
   25.3736  -20.3702   -9.4039 C   0  0  0  0  0  0  0  0  0  0  0  0
   25.4579  -19.7910   -8.1982 N   0  0  0  0  0  0  0  0  0  0  0  0
   26.6871  -19.9268   -7.7062 C   0  0  0  0  0  0  0  0  0  0  0  0
   27.3174  -19.5469   -6.5299 C   0  0  0  0  0  0  0  0  0  0  0  0
   28.6373  -19.8372   -6.2594 C   0  0  0  0  0  0  0  0  0  0  0  0
   29.3661  -20.5333   -7.1916 C   0  0  0  0  0  0  0  0  0  0  0  0
   28.7485  -20.9052   -8.3446 C   0  0  0  0  0  0  0  0  0  0  0  0
   27.4117  -20.6270   -8.6524 C   0  0  0  0  0  0  0  0  0  0  0  0
   25.0364  -20.6038  -12.1110 C   0  0  0  0  0  0  0  0  0  0  0  0
   23.8070  -21.2235  -11.9927 O   0  0  0  0  0  0  0  0  0  0  0  0
   25.0821  -19.3571  -12.1588 O   0  0  0  0  0  0  0  0  0  0  0  0
  2  1  1  6
  2  3  1  0
  4  8  1  0
  4  2  1  0
  5  4  2  0
  7  9  1  0
  7  6  1  6
  7  8  1  0
  9 11  1  0
 10  9  2  0
 11 12  1  0
 12 13  1  1
 13 14  1  0
 14 15  2  0
 16 15  1  0
 17 16  1  0
 18 17  2  0
 19 18  1  0
 20 21  1  0
 20 19  2  0
 21 22  2  0
 22 14  1  0
 22 17  1  0
 23 24  1  0
 23 12  1  0
 25 23  2  0
M  END
$$$$
