AAW.pdb
     RDKit          3D

 25 26  0  0  1  0  0  0  0  0999 V2000
   25.4865  -18.7533  -18.7554 C   0  0  0  0  0  0  0  0  0  0  0  0
   25.1958  -18.9601  -17.2607 C   0  0  2  0  0  0  0  0  0  0  0  0
   25.6796  -17.8056  -16.5447 N   0  0  0  0  0  0  0  0  0  0  0  0
   25.9547  -20.1552  -16.7801 C   0  0  0  0  0  0  0  0  0  0  0  0
   25.6432  -21.3306  -17.1679 O   0  0  0  0  0  0  0  0  0  0  0  0
   29.2498  -20.9761  -15.2519 C   0  0  0  0  0  0  0  0  0  0  0  0
   27.7638  -21.2190  -15.3742 C   0  0  2  0  0  0  0  0  0  0  0  0
   27.0511  -20.0765  -15.8787 N   0  0  0  0  0  0  0  0  0  0  0  0
   27.2781  -21.6869  -14.0725 C   0  0  0  0  0  0  0  0  0  0  0  0
   27.7216  -22.7443  -13.5854 O   0  0  0  0  0  0  0  0  0  0  0  0
   26.3124  -20.9397  -13.3785 N   0  0  0  0  0  0  0  0  0  0  0  0
   25.7803  -21.3178  -12.0615 C   0  0  1  0  0  0  0  0  0  0  0  0
   26.8908  -21.1031  -11.1069 C   0  0  0  0  0  0  0  0  0  0  0  0
   26.5740  -20.7228   -9.7403 C   0  0  0  0  0  0  0  0  0  0  0  0
   25.3380  -20.4748   -9.1534 C   0  0  0  0  0  0  0  0  0  0  0  0
   25.5250  -20.1246   -7.8732 N   0  0  0  0  0  0  0  0  0  0  0  0
   26.8231  -20.1280   -7.5790 C   0  0  0  0  0  0  0  0  0  0  0  0
   27.5681  -19.8674   -6.4378 C   0  0  0  0  0  0  0  0  0  0  0  0
   28.9425  -19.9626   -6.4022 C   0  0  0  0  0  0  0  0  0  0  0  0
   29.6100  -20.3314   -7.5437 C   0  0  0  0  0  0  0  0  0  0  0  0
   28.8799  -20.5863   -8.6623 C   0  0  0  0  0  0  0  0  0  0  0  0
   27.4849  -20.4989   -8.7345 C   0  0  0  0  0  0  0  0  0  0  0  0
   24.5395  -20.5772  -11.8511 C   0  0  0  0  0  0  0  0  0  0  0  0
   23.5803  -21.0654  -10.9844 O   0  0  0  0  0  0  0  0  0  0  0  0
   24.3233  -19.5020  -12.4474 O   0  0  0  0  0  0  0  0  0  0  0  0
  2  1  1  6
  2  3  1  0
  4  8  1  0
  4  2  1  0
  5  4  2  0
  7  9  1  0
  7  6  1  1
  7  8  1  0
  9 11  1  0
 10  9  2  0
 11 12  1  0
 12 13  1  1
 13 14  1  0
 14 15  2  0
 16 15  1  0
 17 16  1  0
 18 17  2  0
 19 18  1  0
 20 21  1  0
 20 19  2  0
 21 22  2  0
 22 14  1  0
 22 17  1  0
 23 24  1  0
 23 12  1  0
 25 23  2  0
M  END
$$$$
