AAW.pdb
     RDKit          3D

 25 26  0  0  1  0  0  0  0  0999 V2000
   29.9841  -20.7869  -19.1563 C   0  0  0  0  0  0  0  0  0  0  0  0
   28.7854  -21.3048  -18.3460 C   0  0  2  0  0  0  0  0  0  0  0  0
   27.5780  -20.8355  -18.9796 N   0  0  0  0  0  0  0  0  0  0  0  0
   28.8431  -20.7232  -16.9699 C   0  0  0  0  0  0  0  0  0  0  0  0
   29.8598  -20.0574  -16.5803 O   0  0  0  0  0  0  0  0  0  0  0  0
   27.5183  -18.5888  -15.1307 C   0  0  0  0  0  0  0  0  0  0  0  0
   27.6774  -20.0605  -14.8291 C   0  0  2  0  0  0  0  0  0  0  0  0
   27.7987  -20.8636  -16.0157 N   0  0  0  0  0  0  0  0  0  0  0  0
   26.5679  -20.4616  -13.9589 C   0  0  0  0  0  0  0  0  0  0  0  0
   25.4199  -20.5806  -14.4278 O   0  0  0  0  0  0  0  0  0  0  0  0
   26.8041  -20.7104  -12.5969 N   0  0  0  0  0  0  0  0  0  0  0  0
   25.9271  -21.5364  -11.7547 C   0  0  1  0  0  0  0  0  0  0  0  0
   26.7197  -21.8537  -10.5457 C   0  0  0  0  0  0  0  0  0  0  0  0
   26.7277  -20.9033   -9.4459 C   0  0  0  0  0  0  0  0  0  0  0  0
   25.7840  -19.9433   -9.0976 C   0  0  0  0  0  0  0  0  0  0  0  0
   26.2215  -19.2703   -8.0243 N   0  0  0  0  0  0  0  0  0  0  0  0
   27.4084  -19.7348   -7.6409 C   0  0  0  0  0  0  0  0  0  0  0  0
   28.2934  -19.4308   -6.6164 C   0  0  0  0  0  0  0  0  0  0  0  0
   29.4848  -20.0987   -6.4324 C   0  0  0  0  0  0  0  0  0  0  0  0
   29.8162  -21.1112   -7.2982 C   0  0  0  0  0  0  0  0  0  0  0  0
   28.9492  -21.4088   -8.3026 C   0  0  0  0  0  0  0  0  0  0  0  0
   27.7326  -20.7517   -8.5194 C   0  0  0  0  0  0  0  0  0  0  0  0
   24.6671  -20.8188  -11.5826 C   0  0  0  0  0  0  0  0  0  0  0  0
   23.5161  -21.5097  -11.2547 O   0  0  0  0  0  0  0  0  0  0  0  0
   24.6068  -19.5807  -11.7304 O   0  0  0  0  0  0  0  0  0  0  0  0
  2  1  1  6
  2  3  1  0
  4  8  1  0
  4  2  1  0
  5  4  2  0
  7  9  1  0
  7  6  1  6
  7  8  1  0
  9 11  1  0
 10  9  2  0
 11 12  1  0
 12 13  1  1
 13 14  1  0
 14 15  2  0
 16 15  1  0
 17 16  1  0
 18 17  2  0
 19 18  1  0
 20 21  1  0
 20 19  2  0
 21 22  2  0
 22 14  1  0
 22 17  1  0
 23 24  1  0
 23 12  1  0
 25 23  2  0
M  END
$$$$
