AAW.pdb
     RDKit          3D

 25 26  0  0  1  0  0  0  0  0999 V2000
   27.1837  -22.3407  -17.1969 C   0  0  0  0  0  0  0  0  0  0  0  0
   28.1448  -21.1741  -16.9199 C   0  0  2  0  0  0  0  0  0  0  0  0
   29.4838  -21.6120  -17.2278 N   0  0  0  0  0  0  0  0  0  0  0  0
   28.0906  -20.8367  -15.4644 C   0  0  0  0  0  0  0  0  0  0  0  0
   28.6267  -21.5995  -14.5929 O   0  0  0  0  0  0  0  0  0  0  0  0
   26.8696  -17.9243  -13.3293 C   0  0  0  0  0  0  0  0  0  0  0  0
   27.4575  -19.2957  -13.5656 C   0  0  2  0  0  0  0  0  0  0  0  0
   27.4548  -19.6724  -14.9534 N   0  0  0  0  0  0  0  0  0  0  0  0
   26.7490  -20.2419  -12.6984 C   0  0  0  0  0  0  0  0  0  0  0  0
   25.7915  -20.9010  -13.1465 O   0  0  0  0  0  0  0  0  0  0  0  0
   27.1534  -20.4017  -11.3629 N   0  0  0  0  0  0  0  0  0  0  0  0
   26.5124  -21.3321  -10.4225 C   0  0  1  0  0  0  0  0  0  0  0  0
   27.4154  -21.3998   -9.2518 C   0  0  0  0  0  0  0  0  0  0  0  0
   27.2601  -20.4178   -8.1916 C   0  0  0  0  0  0  0  0  0  0  0  0
   26.4781  -19.2685   -8.1559 C   0  0  0  0  0  0  0  0  0  0  0  0
   26.6687  -18.6470   -6.9838 N   0  0  0  0  0  0  0  0  0  0  0  0
   27.5376  -19.3254   -6.2380 C   0  0  0  0  0  0  0  0  0  0  0  0
   28.0786  -19.1587   -4.9712 C   0  0  0  0  0  0  0  0  0  0  0  0
   28.9747  -20.0467   -4.4163 C   0  0  0  0  0  0  0  0  0  0  0  0
   29.3524  -21.1474   -5.1445 C   0  0  0  0  0  0  0  0  0  0  0  0
   28.8225  -21.3106   -6.3862 C   0  0  0  0  0  0  0  0  0  0  0  0
   27.9119  -20.4295   -6.9806 C   0  0  0  0  0  0  0  0  0  0  0  0
   25.1414  -20.8775  -10.2085 C   0  0  0  0  0  0  0  0  0  0  0  0
   24.7931  -19.5706  -10.4917 O   0  0  0  0  0  0  0  0  0  0  0  0
   24.2684  -21.6529   -9.7668 O   0  0  0  0  0  0  0  0  0  0  0  0
  2  1  1  1
  2  3  1  0
  4  8  1  0
  4  2  1  0
  5  4  2  0
  7  9  1  0
  7  6  1  6
  7  8  1  0
  9 11  1  0
 10  9  2  0
 11 12  1  0
 12 13  1  1
 13 14  1  0
 14 15  2  0
 16 15  1  0
 17 16  1  0
 18 17  2  0
 19 18  1  0
 20 21  1  0
 20 19  2  0
 21 22  2  0
 22 14  1  0
 22 17  1  0
 23 24  1  0
 23 12  1  0
 25 23  2  0
M  END
$$$$
