AAW.pdb
     RDKit          3D

 25 26  0  0  1  0  0  0  0  0999 V2000
   29.1879  -22.0362  -16.1035 C   0  0  0  0  0  0  0  0  0  0  0  0
   27.9966  -21.1285  -16.4478 C   0  0  2  0  0  0  0  0  0  0  0  0
   28.4642  -20.0887  -17.3307 N   0  0  0  0  0  0  0  0  0  0  0  0
   27.5005  -20.4834  -15.1937 C   0  0  0  0  0  0  0  0  0  0  0  0
   28.2956  -19.8504  -14.4217 O   0  0  0  0  0  0  0  0  0  0  0  0
   24.2501  -19.2797  -13.8243 C   0  0  0  0  0  0  0  0  0  0  0  0
   25.6350  -19.8453  -13.6144 C   0  0  2  0  0  0  0  0  0  0  0  0
   26.1423  -20.5248  -14.7758 N   0  0  0  0  0  0  0  0  0  0  0  0
   25.5987  -20.6836  -12.4122 C   0  0  0  0  0  0  0  0  0  0  0  0
   25.4550  -21.9167  -12.5166 O   0  0  0  0  0  0  0  0  0  0  0  0
   25.7262  -20.0918  -11.1448 N   0  0  0  0  0  0  0  0  0  0  0  0
   25.7213  -20.8509   -9.8861 C   0  0  1  0  0  0  0  0  0  0  0  0
   26.7866  -20.2484   -9.0538 C   0  0  0  0  0  0  0  0  0  0  0  0
   26.7469  -20.4493   -7.6148 C   0  0  0  0  0  0  0  0  0  0  0  0
   25.8566  -21.1933   -6.8482 C   0  0  0  0  0  0  0  0  0  0  0  0
   26.1852  -21.0696   -5.5547 N   0  0  0  0  0  0  0  0  0  0  0  0
   27.2496  -20.2815   -5.4225 C   0  0  0  0  0  0  0  0  0  0  0  0
   28.0057  -19.8307   -4.3500 C   0  0  0  0  0  0  0  0  0  0  0  0
   29.1016  -19.0083   -4.4989 C   0  0  0  0  0  0  0  0  0  0  0  0
   29.4664  -18.6142   -5.7623 C   0  0  0  0  0  0  0  0  0  0  0  0
   28.7250  -19.0557   -6.8134 C   0  0  0  0  0  0  0  0  0  0  0  0
   27.6071  -19.8900   -6.6991 C   0  0  0  0  0  0  0  0  0  0  0  0
   24.3567  -20.8462   -9.3664 C   0  0  0  0  0  0  0  0  0  0  0  0
   23.5207  -19.7770   -9.6262 O   0  0  0  0  0  0  0  0  0  0  0  0
   23.9260  -21.7971   -8.6819 O   0  0  0  0  0  0  0  0  0  0  0  0
  2  1  1  1
  2  3  1  0
  4  8  1  0
  4  2  1  0
  5  4  2  0
  7  9  1  0
  7  6  1  6
  7  8  1  0
  9 11  1  0
 10  9  2  0
 11 12  1  0
 12 13  1  1
 13 14  1  0
 14 15  2  0
 16 15  1  0
 17 16  1  0
 18 17  2  0
 19 18  1  0
 20 21  1  0
 20 19  2  0
 21 22  2  0
 22 14  1  0
 22 17  1  0
 23 24  1  0
 23 12  1  0
 25 23  2  0
M  END
$$$$
