AAW.pdb
     RDKit          3D

 25 26  0  0  1  0  0  0  0  0999 V2000
   27.2314  -21.8102  -18.5530 C   0  0  0  0  0  0  0  0  0  0  0  0
   28.3760  -20.8509  -18.1909 C   0  0  2  0  0  0  0  0  0  0  0  0
   29.6251  -21.5231  -18.4505 N   0  0  0  0  0  0  0  0  0  0  0  0
   28.3087  -20.5461  -16.7288 C   0  0  0  0  0  0  0  0  0  0  0  0
   28.8650  -21.3113  -15.8721 O   0  0  0  0  0  0  0  0  0  0  0  0
   26.9180  -17.7820  -14.5037 C   0  0  0  0  0  0  0  0  0  0  0  0
   27.4901  -19.1508  -14.7887 C   0  0  2  0  0  0  0  0  0  0  0  0
   27.6380  -19.4121  -16.1950 N   0  0  0  0  0  0  0  0  0  0  0  0
   26.6591  -20.1372  -14.0919 C   0  0  0  0  0  0  0  0  0  0  0  0
   25.6842  -20.6519  -14.6722 O   0  0  0  0  0  0  0  0  0  0  0  0
   26.9659  -20.4987  -12.7698 N   0  0  0  0  0  0  0  0  0  0  0  0
   26.2056  -21.4927  -11.9987 C   0  0  1  0  0  0  0  0  0  0  0  0
   27.0222  -21.7736  -10.7967 C   0  0  0  0  0  0  0  0  0  0  0  0
   26.8063  -20.9736   -9.6026 C   0  0  0  0  0  0  0  0  0  0  0  0
   25.7043  -20.2092   -9.2354 C   0  0  0  0  0  0  0  0  0  0  0  0
   25.9562  -19.6165   -8.0599 N   0  0  0  0  0  0  0  0  0  0  0  0
   27.1700  -19.9489   -7.6266 C   0  0  0  0  0  0  0  0  0  0  0  0
   27.9228  -19.6483   -6.5005 C   0  0  0  0  0  0  0  0  0  0  0  0
   29.1864  -20.1555   -6.2865 C   0  0  0  0  0  0  0  0  0  0  0  0
   29.7297  -20.9962   -7.2259 C   0  0  0  0  0  0  0  0  0  0  0  0
   28.9921  -21.2904   -8.3298 C   0  0  0  0  0  0  0  0  0  0  0  0
   27.7077  -20.7935   -8.5796 C   0  0  0  0  0  0  0  0  0  0  0  0
   24.8551  -20.9718  -11.8066 C   0  0  0  0  0  0  0  0  0  0  0  0
   24.6286  -19.6088  -11.8322 O   0  0  0  0  0  0  0  0  0  0  0  0
   23.8905  -21.7406  -11.6142 O   0  0  0  0  0  0  0  0  0  0  0  0
  2  1  1  1
  2  3  1  0
  4  8  1  0
  4  2  1  0
  5  4  2  0
  7  9  1  0
  7  6  1  6
  7  8  1  0
  9 11  1  0
 10  9  2  0
 11 12  1  0
 12 13  1  1
 13 14  1  0
 14 15  2  0
 16 15  1  0
 17 16  1  0
 18 17  2  0
 19 18  1  0
 20 21  1  0
 20 19  2  0
 21 22  2  0
 22 14  1  0
 22 17  1  0
 23 24  1  0
 23 12  1  0
 25 23  2  0
M  END
$$$$
