AAW.pdb
     RDKit          3D

 25 26  0  0  1  0  0  0  0  0999 V2000
   29.0385  -23.4067  -15.7850 C   0  0  0  0  0  0  0  0  0  0  0  0
   28.1772  -22.3543  -16.5006 C   0  0  2  0  0  0  0  0  0  0  0  0
   29.0408  -21.5630  -17.3416 N   0  0  0  0  0  0  0  0  0  0  0  0
   27.5693  -21.4489  -15.4780 C   0  0  0  0  0  0  0  0  0  0  0  0
   28.2883  -20.8949  -14.5807 O   0  0  0  0  0  0  0  0  0  0  0  0
   24.4392  -19.4563  -15.0383 C   0  0  0  0  0  0  0  0  0  0  0  0
   25.5856  -20.2564  -14.4659 C   0  0  2  0  0  0  0  0  0  0  0  0
   26.1817  -21.1440  -15.4275 N   0  0  0  0  0  0  0  0  0  0  0  0
   25.0998  -20.9357  -13.2610 C   0  0  0  0  0  0  0  0  0  0  0  0
   24.5905  -22.0694  -13.3475 O   0  0  0  0  0  0  0  0  0  0  0  0
   25.2105  -20.3043  -12.0113 N   0  0  0  0  0  0  0  0  0  0  0  0
   24.7443  -20.9015  -10.7517 C   0  0  1  0  0  0  0  0  0  0  0  0
   25.4393  -20.1577   -9.6773 C   0  0  0  0  0  0  0  0  0  0  0  0
   26.8095  -20.5173   -9.3519 C   0  0  0  0  0  0  0  0  0  0  0  0
   27.6978  -21.3364  -10.0401 C   0  0  0  0  0  0  0  0  0  0  0  0
   28.8473  -21.4069   -9.3544 N   0  0  0  0  0  0  0  0  0  0  0  0
   28.7683  -20.6754   -8.2452 C   0  0  0  0  0  0  0  0  0  0  0  0
   29.6358  -20.3830   -7.2025 C   0  0  0  0  0  0  0  0  0  0  0  0
   29.2944  -19.5579   -6.1527 C   0  0  0  0  0  0  0  0  0  0  0  0
   28.0415  -18.9973   -6.1322 C   0  0  0  0  0  0  0  0  0  0  0  0
   27.1911  -19.2843   -7.1538 C   0  0  0  0  0  0  0  0  0  0  0  0
   27.5037  -20.1174   -8.2342 C   0  0  0  0  0  0  0  0  0  0  0  0
   23.2842  -20.8882  -10.7641 C   0  0  0  0  0  0  0  0  0  0  0  0
   22.5774  -21.9067  -10.1537 O   0  0  0  0  0  0  0  0  0  0  0  0
   22.6542  -19.9673  -11.3239 O   0  0  0  0  0  0  0  0  0  0  0  0
  2  1  1  1
  2  3  1  0
  4  8  1  0
  4  2  1  0
  5  4  2  0
  7  9  1  0
  7  6  1  6
  7  8  1  0
  9 11  1  0
 10  9  2  0
 11 12  1  0
 12 13  1  1
 13 14  1  0
 14 15  2  0
 16 15  1  0
 17 16  1  0
 18 17  2  0
 19 18  1  0
 20 21  1  0
 20 19  2  0
 21 22  2  0
 22 14  1  0
 22 17  1  0
 23 24  1  0
 23 12  1  0
 25 23  2  0
M  END
$$$$
