AAW.pdb
     RDKit          3D

 25 26  0  0  1  0  0  0  0  0999 V2000
   15.2404  -19.9562    1.6441 C   0  0  0  0  0  0  0  0  0  0  0  0
   16.0563  -20.0851    2.9400 C   0  0  2  0  0  0  0  0  0  0  0  0
   15.6563  -21.3011    3.6039 N   0  0  0  0  0  0  0  0  0  0  0  0
   15.7251  -18.9363    3.8375 C   0  0  0  0  0  0  0  0  0  0  0  0
   15.9574  -17.7339    3.4782 O   0  0  0  0  0  0  0  0  0  0  0  0
   13.8947  -18.3246    7.0979 C   0  0  0  0  0  0  0  0  0  0  0  0
   14.9396  -18.0110    6.0529 C   0  0  2  0  0  0  0  0  0  0  0  0
   15.1424  -19.0907    5.1250 N   0  0  0  0  0  0  0  0  0  0  0  0
   16.1611  -17.5987    6.7509 C   0  0  0  0  0  0  0  0  0  0  0  0
   17.1092  -18.3977    6.8723 O   0  0  0  0  0  0  0  0  0  0  0  0
   16.2576  -16.3017    7.2813 N   0  0  0  0  0  0  0  0  0  0  0  0
   17.4279  -15.8083    8.0213 C   0  0  1  0  0  0  0  0  0  0  0  0
   18.5207  -15.7229    7.0269 C   0  0  0  0  0  0  0  0  0  0  0  0
   18.5854  -14.5597    6.1578 C   0  0  0  0  0  0  0  0  0  0  0  0
   18.7494  -13.2179    6.4839 C   0  0  0  0  0  0  0  0  0  0  0  0
   18.7208  -12.4887    5.3597 N   0  0  0  0  0  0  0  0  0  0  0  0
   18.5468  -13.2781    4.3023 C   0  0  0  0  0  0  0  0  0  0  0  0
   18.4564  -13.0730    2.9330 C   0  0  0  0  0  0  0  0  0  0  0  0
   18.2857  -14.1010    2.0310 C   0  0  0  0  0  0  0  0  0  0  0  0
   18.2008  -15.3876    2.5024 C   0  0  0  0  0  0  0  0  0  0  0  0
   18.2889  -15.5884    3.8444 C   0  0  0  0  0  0  0  0  0  0  0  0
   18.4613  -14.5693    4.7882 C   0  0  0  0  0  0  0  0  0  0  0  0
   17.0341  -14.5867    8.7175 C   0  0  0  0  0  0  0  0  0  0  0  0
   17.8442  -14.0615    9.7062 O   0  0  0  0  0  0  0  0  0  0  0  0
   15.9673  -14.0021    8.4372 O   0  0  0  0  0  0  0  0  0  0  0  0
  2  1  1  6
  2  3  1  0
  4  8  1  0
  4  2  1  0
  5  4  2  0
  7  9  1  0
  7  6  1  1
  7  8  1  0
  9 11  1  0
 10  9  2  0
 11 12  1  0
 12 13  1  6
 13 14  1  0
 14 15  2  0
 16 15  1  0
 17 16  1  0
 18 17  2  0
 19 18  1  0
 20 21  1  0
 20 19  2  0
 21 22  2  0
 22 14  1  0
 22 17  1  0
 23 24  1  0
 23 12  1  0
 25 23  2  0
M  END
$$$$
