AAW.pdb
     RDKit          3D

 25 26  0  0  1  0  0  0  0  0999 V2000
   24.4155  -16.9698  -14.7720 C   0  0  0  0  0  0  0  0  0  0  0  0
   24.9301  -17.9674  -15.8215 C   0  0  2  0  0  0  0  0  0  0  0  0
   24.0450  -17.9197  -16.9590 N   0  0  0  0  0  0  0  0  0  0  0  0
   24.8737  -19.3468  -15.2477 C   0  0  0  0  0  0  0  0  0  0  0  0
   23.7579  -19.8863  -14.9430 O   0  0  0  0  0  0  0  0  0  0  0  0
   27.0253  -22.3859  -15.0437 C   0  0  0  0  0  0  0  0  0  0  0  0
   25.9900  -21.4648  -14.4422 C   0  0  2  0  0  0  0  0  0  0  0  0
   26.0268  -20.1415  -15.0037 N   0  0  0  0  0  0  0  0  0  0  0  0
   26.1599  -21.4904  -12.9863 C   0  0  0  0  0  0  0  0  0  0  0  0
   27.2850  -21.6994  -12.4939 O   0  0  0  0  0  0  0  0  0  0  0  0
   25.0511  -21.2788  -12.1506 N   0  0  0  0  0  0  0  0  0  0  0  0
   25.1317  -21.2373  -10.6835 C   0  0  1  0  0  0  0  0  0  0  0  0
   26.0772  -20.1433  -10.3675 C   0  0  0  0  0  0  0  0  0  0  0  0
   27.3424  -20.4745   -9.7333 C   0  0  0  0  0  0  0  0  0  0  0  0
   28.4264  -21.1855  -10.2363 C   0  0  0  0  0  0  0  0  0  0  0  0
   29.3692  -21.2731   -9.2877 N   0  0  0  0  0  0  0  0  0  0  0  0
   28.9670  -20.6555   -8.1793 C   0  0  0  0  0  0  0  0  0  0  0  0
   29.5243  -20.4282   -6.9291 C   0  0  0  0  0  0  0  0  0  0  0  0
   28.8775  -19.7229   -5.9374 C   0  0  0  0  0  0  0  0  0  0  0  0
   27.6257  -19.2202   -6.1919 C   0  0  0  0  0  0  0  0  0  0  0  0
   27.0793  -19.4433   -7.4170 C   0  0  0  0  0  0  0  0  0  0  0  0
   27.7065  -20.1549   -8.4462 C   0  0  0  0  0  0  0  0  0  0  0  0
   23.7706  -21.1420  -10.1633 C   0  0  0  0  0  0  0  0  0  0  0  0
   22.7333  -20.7787  -11.0009 O   0  0  0  0  0  0  0  0  0  0  0  0
   23.5224  -21.3812   -8.9635 O   0  0  0  0  0  0  0  0  0  0  0  0
  2  1  1  1
  2  3  1  0
  4  8  1  0
  4  2  1  0
  5  4  2  0
  7  9  1  0
  7  6  1  6
  7  8  1  0
  9 11  1  0
 10  9  2  0
 11 12  1  0
 12 13  1  6
 13 14  1  0
 14 15  2  0
 16 15  1  0
 17 16  1  0
 18 17  2  0
 19 18  1  0
 20 21  1  0
 20 19  2  0
 21 22  2  0
 22 14  1  0
 22 17  1  0
 23 24  1  0
 23 12  1  0
 25 23  2  0
M  END
$$$$
