AAW.pdb
     RDKit          3D

 25 26  0  0  1  0  0  0  0  0999 V2000
   31.7257  -34.1979  -17.8975 C   0  0  0  0  0  0  0  0  0  0  0  0
   33.0480  -33.7207  -17.2769 C   0  0  2  0  0  0  0  0  0  0  0  0
   33.1336  -34.2506  -15.9385 N   0  0  0  0  0  0  0  0  0  0  0  0
   33.0294  -32.2287  -17.1845 C   0  0  0  0  0  0  0  0  0  0  0  0
   32.5965  -31.6408  -16.1377 O   0  0  0  0  0  0  0  0  0  0  0  0
   34.2768  -29.2743  -19.2240 C   0  0  0  0  0  0  0  0  0  0  0  0
   33.4121  -29.9379  -18.1781 C   0  0  2  0  0  0  0  0  0  0  0  0
   33.4796  -31.3735  -18.2270 N   0  0  0  0  0  0  0  0  0  0  0  0
   32.0524  -29.4083  -18.3196 C   0  0  0  0  0  0  0  0  0  0  0  0
   31.2724  -29.9087  -19.1522 O   0  0  0  0  0  0  0  0  0  0  0  0
   31.6338  -28.3364  -17.5143 N   0  0  0  0  0  0  0  0  0  0  0  0
   30.2943  -27.7356  -17.5879 C   0  0  1  0  0  0  0  0  0  0  0  0
   30.1724  -26.8856  -16.3825 C   0  0  0  0  0  0  0  0  0  0  0  0
   28.9305  -26.1643  -16.1586 C   0  0  0  0  0  0  0  0  0  0  0  0
   27.6563  -26.6547  -15.8950 C   0  0  0  0  0  0  0  0  0  0  0  0
   26.8058  -25.6244  -15.7869 N   0  0  0  0  0  0  0  0  0  0  0  0
   27.4505  -24.4736  -15.9647 C   0  0  0  0  0  0  0  0  0  0  0  0
   27.0848  -23.1352  -15.9500 C   0  0  0  0  0  0  0  0  0  0  0  0
   27.9833  -22.1106  -16.1557 C   0  0  0  0  0  0  0  0  0  0  0  0
   29.3004  -22.4218  -16.3859 C   0  0  0  0  0  0  0  0  0  0  0  0
   29.6587  -23.7335  -16.4008 C   0  0  0  0  0  0  0  0  0  0  0  0
   28.7738  -24.7986  -16.1967 C   0  0  0  0  0  0  0  0  0  0  0  0
   30.1613  -27.0988  -18.8952 C   0  0  0  0  0  0  0  0  0  0  0  0
   28.9594  -27.1572  -19.5746 O   0  0  0  0  0  0  0  0  0  0  0  0
   31.1225  -26.4987  -19.4191 O   0  0  0  0  0  0  0  0  0  0  0  0
  2  1  1  1
  2  3  1  0
  4  8  1  0
  4  2  1  0
  5  4  2  0
  7  9  1  0
  7  6  1  6
  7  8  1  0
  9 11  1  0
 10  9  2  0
 11 12  1  0
 12 13  1  1
 13 14  1  0
 14 15  2  0
 16 15  1  0
 17 16  1  0
 18 17  2  0
 19 18  1  0
 20 21  1  0
 20 19  2  0
 21 22  2  0
 22 14  1  0
 22 17  1  0
 23 24  1  0
 23 12  1  0
 25 23  2  0
M  END
$$$$
