AAW.pdb
     RDKit          3D

 25 26  0  0  1  0  0  0  0  0999 V2000
   25.4972  -22.5714  -16.6652 C   0  0  0  0  0  0  0  0  0  0  0  0
   26.7284  -21.6530  -16.7099 C   0  0  2  0  0  0  0  0  0  0  0  0
   27.8399  -22.4157  -17.2221 N   0  0  0  0  0  0  0  0  0  0  0  0
   27.0633  -21.2233  -15.3177 C   0  0  0  0  0  0  0  0  0  0  0  0
   27.7605  -21.9677  -14.5504 O   0  0  0  0  0  0  0  0  0  0  0  0
   26.6240  -18.0961  -13.1880 C   0  0  0  0  0  0  0  0  0  0  0  0
   26.9919  -19.5403  -13.4353 C   0  0  2  0  0  0  0  0  0  0  0  0
   26.6422  -19.9869  -14.7567 N   0  0  0  0  0  0  0  0  0  0  0  0
   26.3931  -20.3443  -12.3656 C   0  0  0  0  0  0  0  0  0  0  0  0
   25.3174  -20.9410  -12.5623 O   0  0  0  0  0  0  0  0  0  0  0  0
   27.0360  -20.4386  -11.1204 N   0  0  0  0  0  0  0  0  0  0  0  0
   26.4853  -21.1720   -9.9717 C   0  0  1  0  0  0  0  0  0  0  0  0
   27.5632  -21.1911   -8.9576 C   0  0  0  0  0  0  0  0  0  0  0  0
   27.5542  -20.1847   -7.9090 C   0  0  0  0  0  0  0  0  0  0  0  0
   26.8860  -18.9664   -7.8559 C   0  0  0  0  0  0  0  0  0  0  0  0
   27.1929  -18.3499   -6.7060 N   0  0  0  0  0  0  0  0  0  0  0  0
   28.0310  -19.0972   -5.9915 C   0  0  0  0  0  0  0  0  0  0  0  0
   28.6486  -18.9654   -4.7560 C   0  0  0  0  0  0  0  0  0  0  0  0
   29.4845  -19.9265   -4.2297 C   0  0  0  0  0  0  0  0  0  0  0  0
   29.7203  -21.0676   -4.9555 C   0  0  0  0  0  0  0  0  0  0  0  0
   29.1154  -21.1967   -6.1665 C   0  0  0  0  0  0  0  0  0  0  0  0
   28.2623  -20.2416   -6.7315 C   0  0  0  0  0  0  0  0  0  0  0  0
   25.2137  -20.5504   -9.6124 C   0  0  0  0  0  0  0  0  0  0  0  0
   24.2449  -21.2853   -8.9559 O   0  0  0  0  0  0  0  0  0  0  0  0
   24.9797  -19.3565   -9.8922 O   0  0  0  0  0  0  0  0  0  0  0  0
  2  1  1  1
  2  3  1  0
  4  8  1  0
  4  2  1  0
  5  4  2  0
  7  9  1  0
  7  6  1  1
  7  8  1  0
  9 11  1  0
 10  9  2  0
 11 12  1  0
 12 13  1  1
 13 14  1  0
 14 15  2  0
 16 15  1  0
 17 16  1  0
 18 17  2  0
 19 18  1  0
 20 21  1  0
 20 19  2  0
 21 22  2  0
 22 14  1  0
 22 17  1  0
 23 24  1  0
 23 12  1  0
 25 23  2  0
M  END
$$$$
