AAW.pdb
     RDKit          3D

 25 26  0  0  1  0  0  0  0  0999 V2000
   27.0421  -31.8194  -14.7027 C   0  0  0  0  0  0  0  0  0  0  0  0
   27.4624  -32.1706  -16.1385 C   0  0  2  0  0  0  0  0  0  0  0  0
   28.8405  -31.7828  -16.3111 N   0  0  0  0  0  0  0  0  0  0  0  0
   26.6335  -31.3743  -17.0946 C   0  0  0  0  0  0  0  0  0  0  0  0
   27.0511  -30.2598  -17.5555 O   0  0  0  0  0  0  0  0  0  0  0  0
   23.4312  -31.8610  -19.0814 C   0  0  0  0  0  0  0  0  0  0  0  0
   24.5507  -31.0410  -18.4846 C   0  0  2  0  0  0  0  0  0  0  0  0
   25.3516  -31.7858  -17.5509 N   0  0  0  0  0  0  0  0  0  0  0  0
   23.9609  -29.8259  -17.9147 C   0  0  0  0  0  0  0  0  0  0  0  0
   23.6943  -29.7738  -16.6989 O   0  0  0  0  0  0  0  0  0  0  0  0
   23.6981  -28.7229  -18.7436 N   0  0  0  0  0  0  0  0  0  0  0  0
   23.0743  -27.4784  -18.2717 C   0  0  1  0  0  0  0  0  0  0  0  0
   23.6560  -26.4012  -19.1034 C   0  0  0  0  0  0  0  0  0  0  0  0
   23.1450  -25.0488  -18.9529 C   0  0  0  0  0  0  0  0  0  0  0  0
   23.6499  -23.9886  -18.2083 C   0  0  0  0  0  0  0  0  0  0  0  0
   22.8339  -22.9337  -18.3417 N   0  0  0  0  0  0  0  0  0  0  0  0
   21.8121  -23.2389  -19.1381 C   0  0  0  0  0  0  0  0  0  0  0  0
   20.7080  -22.5504  -19.6201 C   0  0  0  0  0  0  0  0  0  0  0  0
   19.7833  -23.1180  -20.4699 C   0  0  0  0  0  0  0  0  0  0  0  0
   19.9570  -24.4225  -20.8606 C   0  0  0  0  0  0  0  0  0  0  0  0
   21.0387  -25.0974  -20.3879 C   0  0  0  0  0  0  0  0  0  0  0  0
   21.9962  -24.5534  -19.5240 C   0  0  0  0  0  0  0  0  0  0  0  0
   21.6263  -27.6648  -18.3015 C   0  0  0  0  0  0  0  0  0  0  0  0
   21.0678  -28.6168  -19.1329 O   0  0  0  0  0  0  0  0  0  0  0  0
   20.8738  -26.9719  -17.5859 O   0  0  0  0  0  0  0  0  0  0  0  0
  2  1  1  1
  2  3  1  0
  4  8  1  0
  4  2  1  0
  5  4  2  0
  7  9  1  0
  7  6  1  1
  7  8  1  0
  9 11  1  0
 10  9  2  0
 11 12  1  0
 12 13  1  6
 13 14  1  0
 14 15  2  0
 16 15  1  0
 17 16  1  0
 18 17  2  0
 19 18  1  0
 20 21  1  0
 20 19  2  0
 21 22  2  0
 22 14  1  0
 22 17  1  0
 23 24  1  0
 23 12  1  0
 25 23  2  0
M  END
$$$$
