AAW.pdb
     RDKit          3D

 25 26  0  0  1  0  0  0  0  0999 V2000
   27.0365  -17.8636  -15.7095 C   0  0  0  0  0  0  0  0  0  0  0  0
   26.3922  -18.1464  -14.3434 C   0  0  2  0  0  0  0  0  0  0  0  0
   26.7534  -17.0770  -13.4460 N   0  0  0  0  0  0  0  0  0  0  0  0
   26.9537  -19.4197  -13.7970 C   0  0  0  0  0  0  0  0  0  0  0  0
   26.7710  -20.5299  -14.3994 O   0  0  0  0  0  0  0  0  0  0  0  0
   29.6176  -20.6054  -11.5182 C   0  0  0  0  0  0  0  0  0  0  0  0
   28.1967  -20.7146  -12.0196 C   0  0  2  0  0  0  0  0  0  0  0  0
   27.7130  -19.4898  -12.5973 N   0  0  0  0  0  0  0  0  0  0  0  0
   27.3694  -21.2107  -10.9157 C   0  0  0  0  0  0  0  0  0  0  0  0
   27.6492  -22.2923  -10.3645 O   0  0  0  0  0  0  0  0  0  0  0  0
   26.2620  -20.4628  -10.4830 N   0  0  0  0  0  0  0  0  0  0  0  0
   25.3493  -20.8996   -9.4167 C   0  0  1  0  0  0  0  0  0  0  0  0
   25.3382  -19.7994   -8.4268 C   0  0  0  0  0  0  0  0  0  0  0  0
   26.5922  -19.4039   -7.8074 C   0  0  0  0  0  0  0  0  0  0  0  0
   27.5066  -18.4326   -8.1996 C   0  0  0  0  0  0  0  0  0  0  0  0
   28.5377  -18.4324   -7.3432 N   0  0  0  0  0  0  0  0  0  0  0  0
   28.3546  -19.3543   -6.4008 C   0  0  0  0  0  0  0  0  0  0  0  0
   29.0712  -19.7715   -5.2883 C   0  0  0  0  0  0  0  0  0  0  0  0
   28.6322  -20.7694   -4.4452 C   0  0  0  0  0  0  0  0  0  0  0  0
   27.4330  -21.3818   -4.7128 C   0  0  0  0  0  0  0  0  0  0  0  0
   26.7310  -20.9733   -5.8035 C   0  0  0  0  0  0  0  0  0  0  0  0
   27.1464  -19.9648   -6.6806 C   0  0  0  0  0  0  0  0  0  0  0  0
   24.0836  -21.2782  -10.0388 C   0  0  0  0  0  0  0  0  0  0  0  0
   23.0440  -21.7511   -9.2609 O   0  0  0  0  0  0  0  0  0  0  0  0
   23.9206  -21.1856  -11.2730 O   0  0  0  0  0  0  0  0  0  0  0  0
  2  1  1  6
  2  3  1  0
  4  8  1  0
  4  2  1  0
  5  4  2  0
  7  9  1  0
  7  6  1  1
  7  8  1  0
  9 11  1  0
 10  9  2  0
 11 12  1  0
 12 13  1  1
 13 14  1  0
 14 15  2  0
 16 15  1  0
 17 16  1  0
 18 17  2  0
 19 18  1  0
 20 21  1  0
 20 19  2  0
 21 22  2  0
 22 14  1  0
 22 17  1  0
 23 24  1  0
 23 12  1  0
 25 23  2  0
M  END
$$$$
