AAW.pdb
     RDKit          3D

 25 26  0  0  1  0  0  0  0  0999 V2000
   16.8445  -21.2160    2.4774 C   0  0  0  0  0  0  0  0  0  0  0  0
   15.5350  -21.0655    3.2674 C   0  0  2  0  0  0  0  0  0  0  0  0
   14.5573  -20.4505    2.4041 N   0  0  0  0  0  0  0  0  0  0  0  0
   15.7706  -20.1510    4.4265 C   0  0  0  0  0  0  0  0  0  0  0  0
   15.8103  -18.8853    4.2670 O   0  0  0  0  0  0  0  0  0  0  0  0
   16.0544  -20.4646    8.2095 C   0  0  0  0  0  0  0  0  0  0  0  0
   16.1626  -19.7407    6.8880 C   0  0  2  0  0  0  0  0  0  0  0  0
   15.9637  -20.6083    5.7585 N   0  0  0  0  0  0  0  0  0  0  0  0
   17.4474  -19.0350    6.8680 C   0  0  0  0  0  0  0  0  0  0  0  0
   18.3835  -19.4648    6.1672 O   0  0  0  0  0  0  0  0  0  0  0  0
   17.6183  -17.8747    7.6408 N   0  0  0  0  0  0  0  0  0  0  0  0
   18.8766  -17.1179    7.7085 C   0  0  1  0  0  0  0  0  0  0  0  0
   18.4875  -15.7264    8.0291 C   0  0  0  0  0  0  0  0  0  0  0  0
   18.2587  -14.7953    6.9367 C   0  0  0  0  0  0  0  0  0  0  0  0
   17.2173  -14.7476    6.0165 C   0  0  0  0  0  0  0  0  0  0  0  0
   17.4315  -13.7334    5.1668 N   0  0  0  0  0  0  0  0  0  0  0  0
   18.5627  -13.1039    5.4761 C   0  0  0  0  0  0  0  0  0  0  0  0
   19.2464  -12.0117    4.9613 C   0  0  0  0  0  0  0  0  0  0  0  0
   20.4267  -11.5453    5.4988 C   0  0  0  0  0  0  0  0  0  0  0  0
   20.9543  -12.1857    6.5925 C   0  0  0  0  0  0  0  0  0  0  0  0
   20.2845  -13.2564    7.0966 C   0  0  0  0  0  0  0  0  0  0  0  0
   19.0855  -13.7571    6.5764 C   0  0  0  0  0  0  0  0  0  0  0  0
   19.7675  -17.8136    8.6329 C   0  0  0  0  0  0  0  0  0  0  0  0
   21.1372  -17.7241    8.4737 O   0  0  0  0  0  0  0  0  0  0  0  0
   19.3122  -18.4978    9.5726 O   0  0  0  0  0  0  0  0  0  0  0  0
  2  1  1  6
  2  3  1  0
  4  8  1  0
  4  2  1  0
  5  4  2  0
  7  9  1  0
  7  6  1  1
  7  8  1  0
  9 11  1  0
 10  9  2  0
 11 12  1  0
 12 13  1  1
 13 14  1  0
 14 15  2  0
 16 15  1  0
 17 16  1  0
 18 17  2  0
 19 18  1  0
 20 21  1  0
 20 19  2  0
 21 22  2  0
 22 14  1  0
 22 17  1  0
 23 24  1  0
 23 12  1  0
 25 23  2  0
M  END
$$$$
