AAW.pdb
     RDKit          3D

 25 26  0  0  1  0  0  0  0  0999 V2000
   28.4812  -21.2168  -16.8464 C   0  0  0  0  0  0  0  0  0  0  0  0
   27.3964  -21.9314  -16.0253 C   0  0  2  0  0  0  0  0  0  0  0  0
   26.1579  -21.8629  -16.7606 N   0  0  0  0  0  0  0  0  0  0  0  0
   27.2090  -21.2040  -14.7327 C   0  0  0  0  0  0  0  0  0  0  0  0
   28.1708  -21.0809  -13.9028 O   0  0  0  0  0  0  0  0  0  0  0  0
   24.5497  -19.0388  -13.1046 C   0  0  0  0  0  0  0  0  0  0  0  0
   25.7803  -19.9148  -13.0962 C   0  0  2  0  0  0  0  0  0  0  0  0
   25.9788  -20.6103  -14.3391 N   0  0  0  0  0  0  0  0  0  0  0  0
   25.6894  -20.8033  -11.9337 C   0  0  0  0  0  0  0  0  0  0  0  0
   25.0272  -21.8561  -12.0043 O   0  0  0  0  0  0  0  0  0  0  0  0
   26.3508  -20.4631  -10.7422 N   0  0  0  0  0  0  0  0  0  0  0  0
   26.3522  -21.3091   -9.5401 C   0  0  1  0  0  0  0  0  0  0  0  0
   27.6593  -21.0717   -8.8877 C   0  0  0  0  0  0  0  0  0  0  0  0
   27.7313  -20.1173   -7.7938 C   0  0  0  0  0  0  0  0  0  0  0  0
   27.1840  -18.8430   -7.6922 C   0  0  0  0  0  0  0  0  0  0  0  0
   27.5309  -18.3118   -6.5116 N   0  0  0  0  0  0  0  0  0  0  0  0
   28.2807  -19.1689   -5.8226 C   0  0  0  0  0  0  0  0  0  0  0  0
   28.8882  -19.1538   -4.5752 C   0  0  0  0  0  0  0  0  0  0  0  0
   29.6179  -20.2148   -4.0842 C   0  0  0  0  0  0  0  0  0  0  0  0
   29.7533  -21.3398   -4.8592 C   0  0  0  0  0  0  0  0  0  0  0  0
   29.1583  -21.3545   -6.0819 C   0  0  0  0  0  0  0  0  0  0  0  0
   28.4115  -20.2961   -6.6120 C   0  0  0  0  0  0  0  0  0  0  0  0
   25.1405  -21.0106   -8.7819 C   0  0  0  0  0  0  0  0  0  0  0  0
   24.7686  -21.8190   -7.7247 O   0  0  0  0  0  0  0  0  0  0  0  0
   24.4238  -20.0312   -9.0743 O   0  0  0  0  0  0  0  0  0  0  0  0
  2  1  1  6
  2  3  1  0
  4  8  1  0
  4  2  1  0
  5  4  2  0
  7  9  1  0
  7  6  1  6
  7  8  1  0
  9 11  1  0
 10  9  2  0
 11 12  1  0
 12 13  1  1
 13 14  1  0
 14 15  2  0
 16 15  1  0
 17 16  1  0
 18 17  2  0
 19 18  1  0
 20 21  1  0
 20 19  2  0
 21 22  2  0
 22 14  1  0
 22 17  1  0
 23 24  1  0
 23 12  1  0
 25 23  2  0
M  END
$$$$
