YGY.pdb
     RDKit          3D

 29 30  0  0  1  0  0  0  0  0999 V2000
    6.6647  -12.8257   17.0225 O   0  0  0  0  0  0  0  0  0  0  0  0
    7.4405  -13.2600   18.1047 C   0  0  0  0  0  0  0  0  0  0  0  0
    8.7020  -13.7912   17.9130 C   0  0  0  0  0  0  0  0  0  0  0  0
    9.4924  -14.2291   18.9650 C   0  0  0  0  0  0  0  0  0  0  0  0
    8.9890  -14.1264   20.2591 C   0  0  0  0  0  0  0  0  0  0  0  0
    9.8326  -14.5917   21.3583 C   0  0  0  0  0  0  0  0  0  0  0  0
    9.9316  -16.0737   21.4938 C   0  0  2  0  0  0  0  0  0  0  0  0
    9.0103  -16.7712   20.5957 N   0  0  0  0  0  0  0  0  0  0  0  0
    9.8092  -16.5576   22.8789 C   0  0  0  0  0  0  0  0  0  0  0  0
   10.6810  -16.1856   23.7068 O   0  0  0  0  0  0  0  0  0  0  0  0
    7.7309  -13.5996   20.4838 C   0  0  0  0  0  0  0  0  0  0  0  0
    6.9946  -13.1832   19.4096 C   0  0  0  0  0  0  0  0  0  0  0  0
    8.7885  -17.4073   23.3501 N   0  0  0  0  0  0  0  0  0  0  0  0
    8.7107  -17.9039   24.7018 C   0  0  0  0  0  0  0  0  0  0  0  0
    9.5206  -17.1092   25.6475 C   0  0  0  0  0  0  0  0  0  0  0  0
   10.5678  -16.5558   25.2379 O   0  0  0  0  0  0  0  0  0  0  0  0
    6.8359  -11.6200   24.9382 O   0  0  0  0  0  0  0  0  0  0  0  0
    7.2993  -12.5667   25.8561 C   0  0  0  0  0  0  0  0  0  0  0  0
    8.5190  -12.2791   26.4675 C   0  0  0  0  0  0  0  0  0  0  0  0
    8.9920  -13.1982   27.3738 C   0  0  0  0  0  0  0  0  0  0  0  0
    8.3099  -14.3706   27.6886 C   0  0  0  0  0  0  0  0  0  0  0  0
    8.8718  -15.3200   28.6532 C   0  0  0  0  0  0  0  0  0  0  0  0
    9.8889  -16.2045   27.9725 C   0  0  2  0  0  0  0  0  0  0  0  0
    9.1301  -16.9715   26.9842 N   0  0  0  0  0  0  0  0  0  0  0  0
   10.6221  -17.0756   28.8903 C   0  0  0  0  0  0  0  0  0  0  0  0
   11.6953  -16.6284   29.6745 O   0  0  0  0  0  0  0  0  0  0  0  0
    7.1209  -14.6062   27.0634 C   0  0  0  0  0  0  0  0  0  0  0  0
    6.6042  -13.7146   26.1464 C   0  0  0  0  0  0  0  0  0  0  0  0
   10.3269  -18.2878   29.0281 O   0  0  0  0  0  0  0  0  0  0  0  0
  2  1  1  0
  3  2  2  0
  4  3  1  0
  5  4  2  0
  5 11  1  0
  6  5  1  0
  7  6  1  0
  7  8  1  6
  9  7  1  0
  9 13  1  0
 10  9  2  0
 11 12  2  0
 12  2  1  0
 14 13  1  0
 15 14  1  0
 15 24  1  0
 16 15  2  0
 18 28  2  0
 18 17  1  0
 19 18  1  0
 20 21  1  0
 20 19  2  0
 21 27  2  0
 22 21  1  0
 23 24  1  0
 23 22  1  1
 25 23  1  0
 26 25  1  0
 27 28  1  0
 29 25  2  0
M  END
$$$$
