YGY.pdb
     RDKit          3D

 29 30  0  0  1  0  0  0  0  0999 V2000
    6.2535  -11.7022   27.5989 O   0  0  0  0  0  0  0  0  0  0  0  0
    6.6836  -12.4160   26.4731 C   0  0  0  0  0  0  0  0  0  0  0  0
    7.4470  -11.8122   25.4918 C   0  0  0  0  0  0  0  0  0  0  0  0
    7.8867  -12.4938   24.3670 C   0  0  0  0  0  0  0  0  0  0  0  0
    7.5420  -13.8357   24.2288 C   0  0  0  0  0  0  0  0  0  0  0  0
    8.0122  -14.5417   23.0384 C   0  0  0  0  0  0  0  0  0  0  0  0
    8.7590  -15.8044   23.3076 C   0  0  2  0  0  0  0  0  0  0  0  0
    9.4443  -15.7735   24.6004 N   0  0  0  0  0  0  0  0  0  0  0  0
    9.6682  -16.2053   22.2213 C   0  0  0  0  0  0  0  0  0  0  0  0
    9.1523  -16.5988   21.1430 O   0  0  0  0  0  0  0  0  0  0  0  0
    6.7796  -14.4682   25.1929 C   0  0  0  0  0  0  0  0  0  0  0  0
    6.3730  -13.7481   26.2817 C   0  0  0  0  0  0  0  0  0  0  0  0
   11.0752  -16.1822   22.2961 N   0  0  0  0  0  0  0  0  0  0  0  0
   11.8903  -17.3461   22.5428 C   0  0  0  0  0  0  0  0  0  0  0  0
   12.1779  -17.5456   23.9779 C   0  0  0  0  0  0  0  0  0  0  0  0
   13.2281  -17.0627   24.4621 O   0  0  0  0  0  0  0  0  0  0  0  0
    9.3793  -12.7517   27.5612 O   0  0  0  0  0  0  0  0  0  0  0  0
    9.5444  -14.1241   27.3549 C   0  0  0  0  0  0  0  0  0  0  0  0
   10.4277  -14.7700   28.2191 C   0  0  0  0  0  0  0  0  0  0  0  0
   10.6038  -16.1206   28.0325 C   0  0  0  0  0  0  0  0  0  0  0  0
    9.9466  -16.8391   27.0371 C   0  0  0  0  0  0  0  0  0  0  0  0
   10.1860  -18.2761   26.8779 C   0  0  0  0  0  0  0  0  0  0  0  0
   11.5240  -18.5050   26.2165 C   0  0  2  0  0  0  0  0  0  0  0  0
   11.2942  -18.2629   24.7920 N   0  0  0  0  0  0  0  0  0  0  0  0
   12.0825  -19.8347   26.4588 C   0  0  0  0  0  0  0  0  0  0  0  0
   12.2138  -20.8029   25.4528 O   0  0  0  0  0  0  0  0  0  0  0  0
    9.0928  -16.1615   26.2173 C   0  0  0  0  0  0  0  0  0  0  0  0
    8.8823  -14.8062   26.3643 C   0  0  0  0  0  0  0  0  0  0  0  0
   12.4804  -20.1868   27.5960 O   0  0  0  0  0  0  0  0  0  0  0  0
  2  1  1  0
  3  2  2  0
  4  3  1  0
  5  4  2  0
  5 11  1  0
  6  5  1  0
  7  6  1  0
  7  8  1  1
  9  7  1  0
  9 13  1  0
 10  9  2  0
 11 12  2  0
 12  2  1  0
 14 13  1  0
 15 14  1  0
 15 24  1  0
 16 15  2  0
 18 28  2  0
 18 17  1  0
 19 18  1  0
 20 21  1  0
 20 19  2  0
 21 27  2  0
 22 21  1  0
 23 24  1  0
 23 22  1  1
 25 23  1  0
 26 25  1  0
 27 28  1  0
 29 25  2  0
M  END
$$$$
