YGY.pdb
     RDKit          3D

 29 30  0  0  1  0  0  0  0  0999 V2000
    6.8012  -13.0495   16.0895 O   0  0  0  0  0  0  0  0  0  0  0  0
    7.5539  -13.5389   17.1646 C   0  0  0  0  0  0  0  0  0  0  0  0
    8.2124  -14.7514   17.0837 C   0  0  0  0  0  0  0  0  0  0  0  0
    8.9645  -15.2606   18.1317 C   0  0  0  0  0  0  0  0  0  0  0  0
    9.0546  -14.5166   19.3051 C   0  0  0  0  0  0  0  0  0  0  0  0
    9.8506  -15.0653   20.4014 C   0  0  0  0  0  0  0  0  0  0  0  0
    9.1927  -16.1594   21.1727 C   0  0  2  0  0  0  0  0  0  0  0  0
    7.8427  -15.7939   21.6037 N   0  0  0  0  0  0  0  0  0  0  0  0
    9.9997  -16.6710   22.2927 C   0  0  0  0  0  0  0  0  0  0  0  0
   11.0943  -17.2276   22.0176 O   0  0  0  0  0  0  0  0  0  0  0  0
    8.4076  -13.3002   19.4172 C   0  0  0  0  0  0  0  0  0  0  0  0
    7.6796  -12.8459   18.3527 C   0  0  0  0  0  0  0  0  0  0  0  0
    9.6399  -16.5853   23.6525 N   0  0  0  0  0  0  0  0  0  0  0  0
   10.3545  -17.2405   24.7201 C   0  0  0  0  0  0  0  0  0  0  0  0
   10.5195  -16.3777   25.9077 C   0  0  0  0  0  0  0  0  0  0  0  0
   11.2335  -15.3514   25.8212 O   0  0  0  0  0  0  0  0  0  0  0  0
    6.5070  -12.2589   24.7449 O   0  0  0  0  0  0  0  0  0  0  0  0
    7.0291  -13.1009   25.7307 C   0  0  0  0  0  0  0  0  0  0  0  0
    7.9013  -12.5071   26.6423 C   0  0  0  0  0  0  0  0  0  0  0  0
    8.4257  -13.3187   27.6201 C   0  0  0  0  0  0  0  0  0  0  0  0
    8.1206  -14.6735   27.7231 C   0  0  0  0  0  0  0  0  0  0  0  0
    8.7224  -15.4916   28.7796 C   0  0  0  0  0  0  0  0  0  0  0  0
   10.0982  -15.9480   28.3567 C   0  0  2  0  0  0  0  0  0  0  0  0
    9.8900  -16.6957   27.1164 N   0  0  0  0  0  0  0  0  0  0  0  0
   10.7902  -16.7498   29.3651 C   0  0  0  0  0  0  0  0  0  0  0  0
   11.1106  -18.1022   29.1777 O   0  0  0  0  0  0  0  0  0  0  0  0
    7.2622  -15.2070   26.8073 C   0  0  0  0  0  0  0  0  0  0  0  0
    6.7097  -14.4340   25.8073 C   0  0  0  0  0  0  0  0  0  0  0  0
   11.1399  -16.2646   30.4687 O   0  0  0  0  0  0  0  0  0  0  0  0
  2  1  1  0
  3  2  2  0
  4  3  1  0
  5  4  2  0
  5 11  1  0
  6  5  1  0
  7  6  1  0
  7  8  1  1
  9  7  1  0
  9 13  1  0
 10  9  2  0
 11 12  2  0
 12  2  1  0
 14 13  1  0
 15 14  1  0
 15 24  1  0
 16 15  2  0
 18 28  2  0
 18 17  1  0
 19 18  1  0
 20 21  1  0
 20 19  2  0
 21 27  2  0
 22 21  1  0
 23 24  1  0
 23 22  1  1
 25 23  1  0
 26 25  1  0
 27 28  1  0
 29 25  2  0
M  END
$$$$
