YGY.pdb
     RDKit          3D

 29 30  0  0  1  0  0  0  0  0999 V2000
    8.6686  -11.9361   18.0465 O   0  0  0  0  0  0  0  0  0  0  0  0
    8.1128  -12.8781   18.9216 C   0  0  0  0  0  0  0  0  0  0  0  0
    8.0733  -12.6524   20.2846 C   0  0  0  0  0  0  0  0  0  0  0  0
    7.5294  -13.5666   21.1743 C   0  0  0  0  0  0  0  0  0  0  0  0
    7.0060  -14.7531   20.6677 C   0  0  0  0  0  0  0  0  0  0  0  0
    6.4360  -15.7075   21.6168 C   0  0  0  0  0  0  0  0  0  0  0  0
    7.4274  -16.5929   22.2934 C   0  0  2  0  0  0  0  0  0  0  0  0
    8.4398  -17.0964   21.3642 N   0  0  0  0  0  0  0  0  0  0  0  0
    6.8207  -17.6820   23.0766 C   0  0  0  0  0  0  0  0  0  0  0  0
    6.8532  -18.8412   22.5878 O   0  0  0  0  0  0  0  0  0  0  0  0
    7.0306  -15.0083   19.3094 C   0  0  0  0  0  0  0  0  0  0  0  0
    7.5789  -14.0720   18.4776 C   0  0  0  0  0  0  0  0  0  0  0  0
    6.2048  -17.5259   24.3344 N   0  0  0  0  0  0  0  0  0  0  0  0
    6.6649  -18.1628   25.5437 C   0  0  0  0  0  0  0  0  0  0  0  0
    8.0868  -17.8822   25.8291 C   0  0  0  0  0  0  0  0  0  0  0  0
    8.9651  -18.6378   25.3516 O   0  0  0  0  0  0  0  0  0  0  0  0
    5.9020  -11.5441   27.0634 O   0  0  0  0  0  0  0  0  0  0  0  0
    6.9743  -12.4213   26.8784 C   0  0  0  0  0  0  0  0  0  0  0  0
    6.8488  -13.3260   25.8248 C   0  0  0  0  0  0  0  0  0  0  0  0
    7.8932  -14.1976   25.6262 C   0  0  0  0  0  0  0  0  0  0  0  0
    9.0362  -14.2027   26.4215 C   0  0  0  0  0  0  0  0  0  0  0  0
   10.1114  -15.1661   26.1696 C   0  0  0  0  0  0  0  0  0  0  0  0
    9.8446  -16.4451   26.9267 C   0  0  2  0  0  0  0  0  0  0  0  0
    8.4556  -16.7891   26.6211 N   0  0  0  0  0  0  0  0  0  0  0  0
   10.0736  -16.3373   28.3670 C   0  0  0  0  0  0  0  0  0  0  0  0
    9.0728  -16.5770   29.3197 O   0  0  0  0  0  0  0  0  0  0  0  0
    9.1110  -13.2980   27.4395 C   0  0  0  0  0  0  0  0  0  0  0  0
    8.0893  -12.4028   27.6792 C   0  0  0  0  0  0  0  0  0  0  0  0
   11.1940  -16.0200   28.8357 O   0  0  0  0  0  0  0  0  0  0  0  0
  2  1  1  0
  3  2  2  0
  4  3  1  0
  5  4  2  0
  5 11  1  0
  6  5  1  0
  7  6  1  0
  7  8  1  6
  9  7  1  0
  9 13  1  0
 10  9  2  0
 11 12  2  0
 12  2  1  0
 14 13  1  0
 15 14  1  0
 15 24  1  0
 16 15  2  0
 18 28  2  0
 18 17  1  0
 19 18  1  0
 20 21  1  0
 20 19  2  0
 21 27  2  0
 22 21  1  0
 23 24  1  0
 23 22  1  6
 25 23  1  0
 26 25  1  0
 27 28  1  0
 29 25  2  0
M  END
$$$$
