YGY.pdb
     RDKit          3D

 29 30  0  0  1  0  0  0  0  0999 V2000
    8.4892  -11.8167   20.1740 O   0  0  0  0  0  0  0  0  0  0  0  0
    8.1107  -13.1322   20.4708 C   0  0  0  0  0  0  0  0  0  0  0  0
    8.7161  -14.2083   19.8496 C   0  0  0  0  0  0  0  0  0  0  0  0
    8.3620  -15.5208   20.1235 C   0  0  0  0  0  0  0  0  0  0  0  0
    7.3586  -15.7545   21.0600 C   0  0  0  0  0  0  0  0  0  0  0  0
    6.9956  -17.1427   21.3389 C   0  0  0  0  0  0  0  0  0  0  0  0
    7.2046  -17.5783   22.7500 C   0  0  2  0  0  0  0  0  0  0  0  0
    6.4857  -16.7286   23.7004 N   0  0  0  0  0  0  0  0  0  0  0  0
    8.6197  -17.7344   23.1248 C   0  0  0  0  0  0  0  0  0  0  0  0
    9.3528  -18.4203   22.3660 O   0  0  0  0  0  0  0  0  0  0  0  0
    6.7339  -14.6996   21.6985 C   0  0  0  0  0  0  0  0  0  0  0  0
    7.1226  -13.4256   21.3902 C   0  0  0  0  0  0  0  0  0  0  0  0
    9.2181  -17.1734   24.2707 N   0  0  0  0  0  0  0  0  0  0  0  0
   10.6323  -17.2215   24.5493 C   0  0  0  0  0  0  0  0  0  0  0  0
   10.9853  -16.5529   25.8182 C   0  0  0  0  0  0  0  0  0  0  0  0
   12.1832  -16.2587   26.0397 O   0  0  0  0  0  0  0  0  0  0  0  0
    6.7261  -12.0525   24.2238 O   0  0  0  0  0  0  0  0  0  0  0  0
    7.3264  -12.7449   25.2791 C   0  0  0  0  0  0  0  0  0  0  0  0
    6.6747  -13.9040   25.6985 C   0  0  0  0  0  0  0  0  0  0  0  0
    7.2496  -14.5997   26.7356 C   0  0  0  0  0  0  0  0  0  0  0  0
    8.4263  -14.1929   27.3593 C   0  0  0  0  0  0  0  0  0  0  0  0
    8.9840  -14.9690   28.4703 C   0  0  0  0  0  0  0  0  0  0  0  0
   10.2856  -15.6084   28.0494 C   0  0  2  0  0  0  0  0  0  0  0  0
   10.0008  -16.2489   26.7651 N   0  0  0  0  0  0  0  0  0  0  0  0
   10.8188  -16.5590   29.0245 C   0  0  0  0  0  0  0  0  0  0  0  0
   10.8799  -17.9403   28.7901 O   0  0  0  0  0  0  0  0  0  0  0  0
    9.0255  -13.0522   26.9124 C   0  0  0  0  0  0  0  0  0  0  0  0
    8.4878  -12.3192   25.8749 C   0  0  0  0  0  0  0  0  0  0  0  0
   11.2570  -16.1853   30.1398 O   0  0  0  0  0  0  0  0  0  0  0  0
  2  1  1  0
  3  2  2  0
  4  3  1  0
  5  4  2  0
  5 11  1  0
  6  5  1  0
  7  6  1  0
  7  8  1  1
  9  7  1  0
  9 13  1  0
 10  9  2  0
 11 12  2  0
 12  2  1  0
 14 13  1  0
 15 14  1  0
 15 24  1  0
 16 15  2  0
 18 28  2  0
 18 17  1  0
 19 18  1  0
 20 21  1  0
 20 19  2  0
 21 27  2  0
 22 21  1  0
 23 24  1  0
 23 22  1  1
 25 23  1  0
 26 25  1  0
 27 28  1  0
 29 25  2  0
M  END
$$$$
