YGY.pdb
     RDKit          3D

 29 30  0  0  1  0  0  0  0  0999 V2000
    8.1953  -27.1493   23.9264 O   0  0  0  0  0  0  0  0  0  0  0  0
    7.7245  -25.8310   23.9720 C   0  0  0  0  0  0  0  0  0  0  0  0
    7.9742  -24.9461   22.9401 C   0  0  0  0  0  0  0  0  0  0  0  0
    7.5208  -23.6356   22.9580 C   0  0  0  0  0  0  0  0  0  0  0  0
    6.7877  -23.2034   24.0599 C   0  0  0  0  0  0  0  0  0  0  0  0
    6.3162  -21.8199   24.0655 C   0  0  0  0  0  0  0  0  0  0  0  0
    7.3800  -20.7914   24.2530 C   0  0  2  0  0  0  0  0  0  0  0  0
    8.0294  -20.9033   25.5598 N   0  0  0  0  0  0  0  0  0  0  0  0
    6.9349  -19.4140   23.9847 C   0  0  0  0  0  0  0  0  0  0  0  0
    6.4986  -19.1549   22.8331 O   0  0  0  0  0  0  0  0  0  0  0  0
    6.5213  -24.0643   25.1081 C   0  0  0  0  0  0  0  0  0  0  0  0
    6.9926  -25.3458   25.0381 C   0  0  0  0  0  0  0  0  0  0  0  0
    6.9598  -18.3607   24.9205 N   0  0  0  0  0  0  0  0  0  0  0  0
    6.5712  -17.0046   24.6210 C   0  0  0  0  0  0  0  0  0  0  0  0
    7.7290  -16.1259   24.3575 C   0  0  0  0  0  0  0  0  0  0  0  0
    7.5269  -14.9441   23.9926 O   0  0  0  0  0  0  0  0  0  0  0  0
    8.1182  -13.8078   29.7207 O   0  0  0  0  0  0  0  0  0  0  0  0
    8.8561  -14.3556   28.6677 C   0  0  0  0  0  0  0  0  0  0  0  0
    9.2659  -13.4618   27.6790 C   0  0  0  0  0  0  0  0  0  0  0  0
    9.9932  -13.9811   26.6344 C   0  0  0  0  0  0  0  0  0  0  0  0
   10.3218  -15.3309   26.5384 C   0  0  0  0  0  0  0  0  0  0  0  0
   11.0881  -15.8286   25.3926 C   0  0  0  0  0  0  0  0  0  0  0  0
   10.2243  -15.8233   24.1540 C   0  0  2  0  0  0  0  0  0  0  0  0
    9.0367  -16.5997   24.5113 N   0  0  0  0  0  0  0  0  0  0  0  0
   10.8894  -16.3619   22.9682 C   0  0  0  0  0  0  0  0  0  0  0  0
   10.4440  -17.5106   22.2982 O   0  0  0  0  0  0  0  0  0  0  0  0
    9.8975  -16.1645   27.5310 C   0  0  0  0  0  0  0  0  0  0  0  0
    9.1651  -15.6915   28.5999 C   0  0  0  0  0  0  0  0  0  0  0  0
   11.9092  -15.8180   22.4785 O   0  0  0  0  0  0  0  0  0  0  0  0
  2  1  1  0
  3  2  2  0
  4  3  1  0
  5  4  2  0
  5 11  1  0
  6  5  1  0
  7  6  1  0
  7  8  1  1
  9  7  1  0
  9 13  1  0
 10  9  2  0
 11 12  2  0
 12  2  1  0
 14 13  1  0
 15 14  1  0
 15 24  1  0
 16 15  2  0
 18 28  2  0
 18 17  1  0
 19 18  1  0
 20 21  1  0
 20 19  2  0
 21 27  2  0
 22 21  1  0
 23 24  1  0
 23 22  1  1
 25 23  1  0
 26 25  1  0
 27 28  1  0
 29 25  2  0
M  END
$$$$
