YGY.pdb
     RDKit          3D

 29 30  0  0  1  0  0  0  0  0999 V2000
    7.8385  -11.1097   18.1059 O   0  0  0  0  0  0  0  0  0  0  0  0
    8.1358  -12.3144   18.7556 C   0  0  0  0  0  0  0  0  0  0  0  0
    7.1519  -13.0429   19.3971 C   0  0  0  0  0  0  0  0  0  0  0  0
    7.4169  -14.2384   20.0482 C   0  0  0  0  0  0  0  0  0  0  0  0
    8.7250  -14.7153   20.0510 C   0  0  0  0  0  0  0  0  0  0  0  0
    8.9899  -15.9764   20.7410 C   0  0  0  0  0  0  0  0  0  0  0  0
    9.4920  -17.0784   19.8704 C   0  0  2  0  0  0  0  0  0  0  0  0
    8.6341  -17.2929   18.7042 N   0  0  0  0  0  0  0  0  0  0  0  0
    9.7549  -18.3363   20.5889 C   0  0  0  0  0  0  0  0  0  0  0  0
    8.7728  -19.0826   20.8385 O   0  0  0  0  0  0  0  0  0  0  0  0
    9.7314  -14.0098   19.4183 C   0  0  0  0  0  0  0  0  0  0  0  0
    9.4138  -12.8368   18.7917 C   0  0  0  0  0  0  0  0  0  0  0  0
   11.0246  -18.7700   21.0196 N   0  0  0  0  0  0  0  0  0  0  0  0
   11.2754  -19.3931   22.2958 C   0  0  0  0  0  0  0  0  0  0  0  0
   11.6634  -18.4203   23.3375 C   0  0  0  0  0  0  0  0  0  0  0  0
   12.8797  -18.1938   23.5374 O   0  0  0  0  0  0  0  0  0  0  0  0
   10.3378  -13.7932   30.7037 O   0  0  0  0  0  0  0  0  0  0  0  0
   10.1803  -14.5763   29.5568 C   0  0  0  0  0  0  0  0  0  0  0  0
    9.9565  -13.8816   28.3687 C   0  0  0  0  0  0  0  0  0  0  0  0
    9.7990  -14.6340   27.2290 C   0  0  0  0  0  0  0  0  0  0  0  0
    9.8548  -16.0254   27.2271 C   0  0  0  0  0  0  0  0  0  0  0  0
    9.6651  -16.7741   25.9817 C   0  0  0  0  0  0  0  0  0  0  0  0
   10.9954  -16.9814   25.2978 C   0  0  2  0  0  0  0  0  0  0  0  0
   10.6916  -17.7567   24.0947 N   0  0  0  0  0  0  0  0  0  0  0  0
   11.9926  -17.6465   26.1357 C   0  0  0  0  0  0  0  0  0  0  0  0
   13.1428  -17.0010   26.6123 O   0  0  0  0  0  0  0  0  0  0  0  0
   10.0760  -16.6581   28.4149 C   0  0  0  0  0  0  0  0  0  0  0  0
   10.2404  -15.9476   29.5858 C   0  0  0  0  0  0  0  0  0  0  0  0
   11.8718  -18.8479   26.4786 O   0  0  0  0  0  0  0  0  0  0  0  0
  2  1  1  0
  3  2  2  0
  4  3  1  0
  5  4  2  0
  5 11  1  0
  6  5  1  0
  7  6  1  0
  7  8  1  6
  9  7  1  0
  9 13  1  0
 10  9  2  0
 11 12  2  0
 12  2  1  0
 14 13  1  0
 15 14  1  0
 15 24  1  0
 16 15  2  0
 18 28  2  0
 18 17  1  0
 19 18  1  0
 20 21  1  0
 20 19  2  0
 21 27  2  0
 22 21  1  0
 23 24  1  0
 23 22  1  1
 25 23  1  0
 26 25  1  0
 27 28  1  0
 29 25  2  0
M  END
$$$$
