YGY.pdb
     RDKit          3D

 29 30  0  0  1  0  0  0  0  0999 V2000
   12.1091  -19.0195   30.7996 O   0  0  0  0  0  0  0  0  0  0  0  0
   10.9925  -18.9526   29.9565 C   0  0  0  0  0  0  0  0  0  0  0  0
   10.6203  -17.7651   29.3552 C   0  0  0  0  0  0  0  0  0  0  0  0
    9.5202  -17.6692   28.5163 C   0  0  0  0  0  0  0  0  0  0  0  0
    8.7682  -18.8161   28.2762 C   0  0  0  0  0  0  0  0  0  0  0  0
    7.6115  -18.7005   27.3901 C   0  0  0  0  0  0  0  0  0  0  0  0
    7.8575  -19.1041   25.9755 C   0  0  2  0  0  0  0  0  0  0  0  0
    9.0506  -18.4637   25.4201 N   0  0  0  0  0  0  0  0  0  0  0  0
    6.6910  -18.9354   25.0934 C   0  0  0  0  0  0  0  0  0  0  0  0
    6.0401  -19.9665   24.7820 O   0  0  0  0  0  0  0  0  0  0  0  0
    9.1147  -20.0189   28.8628 C   0  0  0  0  0  0  0  0  0  0  0  0
   10.2091  -20.0563   29.6814 C   0  0  0  0  0  0  0  0  0  0  0  0
    6.2461  -17.7052   24.5695 N   0  0  0  0  0  0  0  0  0  0  0  0
    6.2912  -17.3593   23.1702 C   0  0  0  0  0  0  0  0  0  0  0  0
    7.3835  -16.4172   22.8519 C   0  0  0  0  0  0  0  0  0  0  0  0
    7.4995  -15.9921   21.6787 O   0  0  0  0  0  0  0  0  0  0  0  0
    4.5878  -12.0658   26.0792 O   0  0  0  0  0  0  0  0  0  0  0  0
    5.8351  -12.5775   25.7109 C   0  0  0  0  0  0  0  0  0  0  0  0
    6.2762  -13.6882   26.4294 C   0  0  0  0  0  0  0  0  0  0  0  0
    7.5012  -14.2067   26.0821 C   0  0  0  0  0  0  0  0  0  0  0  0
    8.2888  -13.6717   25.0660 C   0  0  0  0  0  0  0  0  0  0  0  0
    9.5935  -14.2599   24.7506 C   0  0  0  0  0  0  0  0  0  0  0  0
    9.4668  -15.1893   23.5672 C   0  0  2  0  0  0  0  0  0  0  0  0
    8.2805  -16.0005   23.8418 N   0  0  0  0  0  0  0  0  0  0  0  0
   10.6501  -16.0173   23.3376 C   0  0  0  0  0  0  0  0  0  0  0  0
   11.8953  -15.4855   22.9723 O   0  0  0  0  0  0  0  0  0  0  0  0
    7.8130  -12.5852   24.3929 C   0  0  0  0  0  0  0  0  0  0  0  0
    6.5898  -12.0284   24.7040 C   0  0  0  0  0  0  0  0  0  0  0  0
   10.6155  -17.2664   23.4564 O   0  0  0  0  0  0  0  0  0  0  0  0
  2  1  1  0
  3  2  2  0
  4  3  1  0
  5  4  2  0
  5 11  1  0
  6  5  1  0
  7  6  1  0
  7  8  1  6
  9  7  1  0
  9 13  1  0
 10  9  2  0
 11 12  2  0
 12  2  1  0
 14 13  1  0
 15 14  1  0
 15 24  1  0
 16 15  2  0
 18 28  2  0
 18 17  1  0
 19 18  1  0
 20 21  1  0
 20 19  2  0
 21 27  2  0
 22 21  1  0
 23 24  1  0
 23 22  1  1
 25 23  1  0
 26 25  1  0
 27 28  1  0
 29 25  2  0
M  END
$$$$
