YGY.pdb
     RDKit          3D

 29 30  0  0  1  0  0  0  0  0999 V2000
   12.0980  -20.6264   13.7724 O   0  0  0  0  0  0  0  0  0  0  0  0
   11.3716  -20.2938   14.9228 C   0  0  0  0  0  0  0  0  0  0  0  0
   10.7890  -19.0486   15.0659 C   0  0  0  0  0  0  0  0  0  0  0  0
   10.0645  -18.6916   16.1932 C   0  0  0  0  0  0  0  0  0  0  0  0
    9.9235  -19.6279   17.2140 C   0  0  0  0  0  0  0  0  0  0  0  0
    9.1575  -19.2382   18.3962 C   0  0  0  0  0  0  0  0  0  0  0  0
    9.8195  -18.2290   19.2725 C   0  0  2  0  0  0  0  0  0  0  0  0
   11.1068  -18.7030   19.7825 N   0  0  0  0  0  0  0  0  0  0  0  0
    8.9609  -17.7214   20.3554 C   0  0  0  0  0  0  0  0  0  0  0  0
    7.8474  -17.2295   20.0360 O   0  0  0  0  0  0  0  0  0  0  0  0
   10.4943  -20.8818   17.1009 C   0  0  0  0  0  0  0  0  0  0  0  0
   11.1981  -21.1805   15.9674 C   0  0  0  0  0  0  0  0  0  0  0  0
    9.2906  -17.7440   21.7252 N   0  0  0  0  0  0  0  0  0  0  0  0
    8.4038  -17.3111   22.7769 C   0  0  0  0  0  0  0  0  0  0  0  0
    9.1140  -16.6161   23.8699 C   0  0  0  0  0  0  0  0  0  0  0  0
   10.3606  -16.5017   23.8111 O   0  0  0  0  0  0  0  0  0  0  0  0
    5.7602  -10.4926   25.4042 O   0  0  0  0  0  0  0  0  0  0  0  0
    6.3293  -11.6882   25.8515 C   0  0  0  0  0  0  0  0  0  0  0  0
    5.5593  -12.8365   25.6711 C   0  0  0  0  0  0  0  0  0  0  0  0
    6.1017  -14.0231   26.1046 C   0  0  0  0  0  0  0  0  0  0  0  0
    7.3578  -14.1082   26.6996 C   0  0  0  0  0  0  0  0  0  0  0  0
    7.8773  -15.4007   27.1548 C   0  0  0  0  0  0  0  0  0  0  0  0
    9.0175  -15.8389   26.2670 C   0  0  2  0  0  0  0  0  0  0  0  0
    8.4109  -16.0900   24.9594 N   0  0  0  0  0  0  0  0  0  0  0  0
    9.7379  -17.0097   26.7659 C   0  0  0  0  0  0  0  0  0  0  0  0
    9.4799  -18.3133   26.3180 O   0  0  0  0  0  0  0  0  0  0  0  0
    8.0718  -12.9565   26.8536 C   0  0  0  0  0  0  0  0  0  0  0  0
    7.5710  -11.7413   26.4349 C   0  0  0  0  0  0  0  0  0  0  0  0
   10.6389  -16.9103   27.6341 O   0  0  0  0  0  0  0  0  0  0  0  0
  2  1  1  0
  3  2  2  0
  4  3  1  0
  5  4  2  0
  5 11  1  0
  6  5  1  0
  7  6  1  0
  7  8  1  1
  9  7  1  0
  9 13  1  0
 10  9  2  0
 11 12  2  0
 12  2  1  0
 14 13  1  0
 15 14  1  0
 15 24  1  0
 16 15  2  0
 18 28  2  0
 18 17  1  0
 19 18  1  0
 20 21  1  0
 20 19  2  0
 21 27  2  0
 22 21  1  0
 23 24  1  0
 23 22  1  1
 25 23  1  0
 26 25  1  0
 27 28  1  0
 29 25  2  0
M  END
$$$$
