YGY.pdb
     RDKit          3D

 29 30  0  0  1  0  0  0  0  0999 V2000
    8.5294  -13.0143   17.5209 O   0  0  0  0  0  0  0  0  0  0  0  0
    8.0425  -13.5851   18.7037 C   0  0  0  0  0  0  0  0  0  0  0  0
    7.7510  -14.9340   18.7800 C   0  0  0  0  0  0  0  0  0  0  0  0
    7.2680  -15.5262   19.9372 C   0  0  0  0  0  0  0  0  0  0  0  0
    7.0722  -14.7253   21.0592 C   0  0  0  0  0  0  0  0  0  0  0  0
    6.5626  -15.3626   22.2719 C   0  0  0  0  0  0  0  0  0  0  0  0
    7.4957  -15.3417   23.4353 C   0  0  2  0  0  0  0  0  0  0  0  0
    8.8924  -15.4880   23.0233 N   0  0  0  0  0  0  0  0  0  0  0  0
    7.1428  -16.2923   24.5028 C   0  0  0  0  0  0  0  0  0  0  0  0
    5.9797  -16.2301   24.9792 O   0  0  0  0  0  0  0  0  0  0  0  0
    7.3543  -13.3728   21.0148 C   0  0  0  0  0  0  0  0  0  0  0  0
    7.8284  -12.8413   19.8477 C   0  0  0  0  0  0  0  0  0  0  0  0
    8.0093  -17.2687   25.0333 N   0  0  0  0  0  0  0  0  0  0  0  0
    7.6765  -18.1264   26.1440 C   0  0  0  0  0  0  0  0  0  0  0  0
    8.3877  -17.7534   27.3838 C   0  0  0  0  0  0  0  0  0  0  0  0
    8.4638  -18.5863   28.3171 O   0  0  0  0  0  0  0  0  0  0  0  0
   11.9954  -16.5669   22.3501 O   0  0  0  0  0  0  0  0  0  0  0  0
   11.7523  -16.2474   23.6888 C   0  0  0  0  0  0  0  0  0  0  0  0
   10.8330  -15.2238   23.9155 C   0  0  0  0  0  0  0  0  0  0  0  0
   10.5800  -14.8944   25.2260 C   0  0  0  0  0  0  0  0  0  0  0  0
   11.1957  -15.5333   26.2992 C   0  0  0  0  0  0  0  0  0  0  0  0
   10.8958  -15.1283   27.6753 C   0  0  0  0  0  0  0  0  0  0  0  0
   10.1270  -16.2217   28.3779 C   0  0  2  0  0  0  0  0  0  0  0  0
    8.9711  -16.4890   27.5215 N   0  0  0  0  0  0  0  0  0  0  0  0
    9.7253  -15.8783   29.7415 C   0  0  0  0  0  0  0  0  0  0  0  0
   10.6145  -15.8913   30.8259 O   0  0  0  0  0  0  0  0  0  0  0  0
   12.0874  -16.5281   26.0250 C   0  0  0  0  0  0  0  0  0  0  0  0
   12.3750  -16.8952   24.7268 C   0  0  0  0  0  0  0  0  0  0  0  0
    8.5465  -15.5488   30.0197 O   0  0  0  0  0  0  0  0  0  0  0  0
  2  1  1  0
  3  2  2  0
  4  3  1  0
  5  4  2  0
  5 11  1  0
  6  5  1  0
  7  6  1  0
  7  8  1  6
  9  7  1  0
  9 13  1  0
 10  9  2  0
 11 12  2  0
 12  2  1  0
 14 13  1  0
 15 14  1  0
 15 24  1  0
 16 15  2  0
 18 28  2  0
 18 17  1  0
 19 18  1  0
 20 21  1  0
 20 19  2  0
 21 27  2  0
 22 21  1  0
 23 24  1  0
 23 22  1  6
 25 23  1  0
 26 25  1  0
 27 28  1  0
 29 25  2  0
M  END
$$$$
