YGY.pdb
     RDKit          3D

 29 30  0  0  1  0  0  0  0  0999 V2000
    8.1753  -11.6837   17.0926 O   0  0  0  0  0  0  0  0  0  0  0  0
    7.9625  -12.5979   18.1322 C   0  0  0  0  0  0  0  0  0  0  0  0
    8.6385  -12.4862   19.3326 C   0  0  0  0  0  0  0  0  0  0  0  0
    8.4481  -13.3763   20.3789 C   0  0  0  0  0  0  0  0  0  0  0  0
    7.5407  -14.4180   20.2056 C   0  0  0  0  0  0  0  0  0  0  0  0
    7.3500  -15.3485   21.3166 C   0  0  0  0  0  0  0  0  0  0  0  0
    8.0445  -16.6600   21.1674 C   0  0  2  0  0  0  0  0  0  0  0  0
    7.6060  -17.3821   19.9723 N   0  0  0  0  0  0  0  0  0  0  0  0
    7.9827  -17.5100   22.3679 C   0  0  0  0  0  0  0  0  0  0  0  0
    6.9234  -18.1585   22.5705 O   0  0  0  0  0  0  0  0  0  0  0  0
    6.8490  -14.5568   19.0168 C   0  0  0  0  0  0  0  0  0  0  0  0
    7.0757  -13.6506   18.0184 C   0  0  0  0  0  0  0  0  0  0  0  0
    9.0209  -17.6537   23.3098 N   0  0  0  0  0  0  0  0  0  0  0  0
    8.8103  -17.7864   24.7303 C   0  0  0  0  0  0  0  0  0  0  0  0
    9.6977  -16.9097   25.5214 C   0  0  0  0  0  0  0  0  0  0  0  0
   10.6888  -16.3829   24.9641 O   0  0  0  0  0  0  0  0  0  0  0  0
    6.0297  -11.7562   25.2678 O   0  0  0  0  0  0  0  0  0  0  0  0
    6.8694  -12.5275   26.0761 C   0  0  0  0  0  0  0  0  0  0  0  0
    6.3641  -13.7631   26.4785 C   0  0  0  0  0  0  0  0  0  0  0  0
    7.1750  -14.5371   27.2743 C   0  0  0  0  0  0  0  0  0  0  0  0
    8.4460  -14.1352   27.6771 C   0  0  0  0  0  0  0  0  0  0  0  0
    9.2592  -14.9983   28.5381 C   0  0  0  0  0  0  0  0  0  0  0  0
   10.2514  -15.7714   27.7025 C   0  0  2  0  0  0  0  0  0  0  0  0
    9.4415  -16.6662   26.8754 N   0  0  0  0  0  0  0  0  0  0  0  0
   11.2407  -16.5060   28.4901 C   0  0  0  0  0  0  0  0  0  0  0  0
   11.2957  -17.9067   28.5328 O   0  0  0  0  0  0  0  0  0  0  0  0
    8.8949  -12.9178   27.2569 C   0  0  0  0  0  0  0  0  0  0  0  0
    8.1187  -12.1046   26.4574 C   0  0  0  0  0  0  0  0  0  0  0  0
   12.1065  -15.9149   29.1803 O   0  0  0  0  0  0  0  0  0  0  0  0
  2  1  1  0
  3  2  2  0
  4  3  1  0
  5  4  2  0
  5 11  1  0
  6  5  1  0
  7  6  1  0
  7  8  1  6
  9  7  1  0
  9 13  1  0
 10  9  2  0
 11 12  2  0
 12  2  1  0
 14 13  1  0
 15 14  1  0
 15 24  1  0
 16 15  2  0
 18 28  2  0
 18 17  1  0
 19 18  1  0
 20 21  1  0
 20 19  2  0
 21 27  2  0
 22 21  1  0
 23 24  1  0
 23 22  1  1
 25 23  1  0
 26 25  1  0
 27 28  1  0
 29 25  2  0
M  END
$$$$
