YGY.pdb
     RDKit          3D

 29 30  0  0  1  0  0  0  0  0999 V2000
    6.1546  -12.3656   18.1616 O   0  0  0  0  0  0  0  0  0  0  0  0
    7.0912  -13.2515   18.7091 C   0  0  0  0  0  0  0  0  0  0  0  0
    6.7371  -14.5411   19.0583 C   0  0  0  0  0  0  0  0  0  0  0  0
    7.6428  -15.4396   19.6021 C   0  0  0  0  0  0  0  0  0  0  0  0
    8.9552  -15.0191   19.8004 C   0  0  0  0  0  0  0  0  0  0  0  0
    9.8990  -15.9764   20.3743 C   0  0  0  0  0  0  0  0  0  0  0  0
    9.2925  -17.2546   20.8464 C   0  0  2  0  0  0  0  0  0  0  0  0
    8.3029  -17.7758   19.9025 N   0  0  0  0  0  0  0  0  0  0  0  0
    8.7556  -17.1924   22.2159 C   0  0  0  0  0  0  0  0  0  0  0  0
    9.5129  -16.7551   23.1209 O   0  0  0  0  0  0  0  0  0  0  0  0
    9.3405  -13.7355   19.4614 C   0  0  0  0  0  0  0  0  0  0  0  0
    8.4063  -12.8912   18.9287 C   0  0  0  0  0  0  0  0  0  0  0  0
    7.4559  -17.5859   22.5922 N   0  0  0  0  0  0  0  0  0  0  0  0
    6.9376  -17.4837   23.9342 C   0  0  0  0  0  0  0  0  0  0  0  0
    7.9806  -17.1402   24.9222 C   0  0  0  0  0  0  0  0  0  0  0  0
    9.1789  -17.1064   24.5571 O   0  0  0  0  0  0  0  0  0  0  0  0
    7.1006  -10.9393   24.8736 O   0  0  0  0  0  0  0  0  0  0  0  0
    7.2717  -12.0652   25.6837 C   0  0  0  0  0  0  0  0  0  0  0  0
    8.5885  -12.3914   26.0063 C   0  0  0  0  0  0  0  0  0  0  0  0
    8.7780  -13.4958   26.8026 C   0  0  0  0  0  0  0  0  0  0  0  0
    7.7265  -14.2733   27.2810 C   0  0  0  0  0  0  0  0  0  0  0  0
    7.9920  -15.4486   28.1152 C   0  0  0  0  0  0  0  0  0  0  0  0
    8.6278  -16.5371   27.2838 C   0  0  2  0  0  0  0  0  0  0  0  0
    7.6426  -16.8551   26.2499 N   0  0  0  0  0  0  0  0  0  0  0  0
    9.0097  -17.7206   28.0532 C   0  0  0  0  0  0  0  0  0  0  0  0
   10.1409  -17.7612   28.8812 O   0  0  0  0  0  0  0  0  0  0  0  0
    6.4568  -13.9128   26.9373 C   0  0  0  0  0  0  0  0  0  0  0  0
    6.2148  -12.8129   26.1406 C   0  0  0  0  0  0  0  0  0  0  0  0
    8.3367  -18.7794   28.0140 O   0  0  0  0  0  0  0  0  0  0  0  0
  2  1  1  0
  3  2  2  0
  4  3  1  0
  5  4  2  0
  5 11  1  0
  6  5  1  0
  7  6  1  0
  7  8  1  6
  9  7  1  0
  9 13  1  0
 10  9  2  0
 11 12  2  0
 12  2  1  0
 14 13  1  0
 15 14  1  0
 15 24  1  0
 16 15  2  0
 18 28  2  0
 18 17  1  0
 19 18  1  0
 20 21  1  0
 20 19  2  0
 21 27  2  0
 22 21  1  0
 23 24  1  0
 23 22  1  1
 25 23  1  0
 26 25  1  0
 27 28  1  0
 29 25  2  0
M  END
$$$$
