YGY.pdb
     RDKit          3D

 29 30  0  0  1  0  0  0  0  0999 V2000
    8.1150  -12.3492   16.8471 O   0  0  0  0  0  0  0  0  0  0  0  0
    7.8131  -13.1226   17.9752 C   0  0  0  0  0  0  0  0  0  0  0  0
    8.1480  -12.6950   19.2461 C   0  0  0  0  0  0  0  0  0  0  0  0
    7.8618  -13.4394   20.3807 C   0  0  0  0  0  0  0  0  0  0  0  0
    7.2130  -14.6614   20.2250 C   0  0  0  0  0  0  0  0  0  0  0  0
    6.9177  -15.4353   21.4292 C   0  0  0  0  0  0  0  0  0  0  0  0
    8.0835  -16.1554   22.0182 C   0  0  2  0  0  0  0  0  0  0  0  0
    8.8571  -16.8724   21.0036 N   0  0  0  0  0  0  0  0  0  0  0  0
    7.7375  -17.0274   23.1529 C   0  0  0  0  0  0  0  0  0  0  0  0
    8.0350  -18.2470   23.0642 O   0  0  0  0  0  0  0  0  0  0  0  0
    6.8649  -15.1167   18.9671 C   0  0  0  0  0  0  0  0  0  0  0  0
    7.1713  -14.3420   17.8829 C   0  0  0  0  0  0  0  0  0  0  0  0
    7.0974  -16.6004   24.3334 N   0  0  0  0  0  0  0  0  0  0  0  0
    7.3579  -17.1543   25.6393 C   0  0  0  0  0  0  0  0  0  0  0  0
    8.6767  -16.7570   26.1730 C   0  0  0  0  0  0  0  0  0  0  0  0
    9.6938  -16.9024   25.4555 O   0  0  0  0  0  0  0  0  0  0  0  0
    6.2433  -11.8911   24.8118 O   0  0  0  0  0  0  0  0  0  0  0  0
    7.0822  -12.4780   25.7631 C   0  0  0  0  0  0  0  0  0  0  0  0
    8.2461  -13.0674   25.2708 C   0  0  0  0  0  0  0  0  0  0  0  0
    9.0848  -13.6503   26.1910 C   0  0  0  0  0  0  0  0  0  0  0  0
    8.8141  -13.6685   27.5568 C   0  0  0  0  0  0  0  0  0  0  0  0
    9.7401  -14.3182   28.4885 C   0  0  0  0  0  0  0  0  0  0  0  0
   10.0533  -15.7165   28.0121 C   0  0  2  0  0  0  0  0  0  0  0  0
    8.7965  -16.2247   27.4617 N   0  0  0  0  0  0  0  0  0  0  0  0
   10.5822  -16.5917   29.0575 C   0  0  0  0  0  0  0  0  0  0  0  0
   11.8742  -16.4563   29.5858 O   0  0  0  0  0  0  0  0  0  0  0  0
    7.6626  -13.0786   27.9883 C   0  0  0  0  0  0  0  0  0  0  0  0
    6.7888  -12.4805   27.1043 C   0  0  0  0  0  0  0  0  0  0  0  0
    9.8992  -17.5248   29.5458 O   0  0  0  0  0  0  0  0  0  0  0  0
  2  1  1  0
  3  2  2  0
  4  3  1  0
  5  4  2  0
  5 11  1  0
  6  5  1  0
  7  6  1  0
  7  8  1  6
  9  7  1  0
  9 13  1  0
 10  9  2  0
 11 12  2  0
 12  2  1  0
 14 13  1  0
 15 14  1  0
 15 24  1  0
 16 15  2  0
 18 28  2  0
 18 17  1  0
 19 18  1  0
 20 21  1  0
 20 19  2  0
 21 27  2  0
 22 21  1  0
 23 24  1  0
 23 22  1  1
 25 23  1  0
 26 25  1  0
 27 28  1  0
 29 25  2  0
M  END
$$$$
