YGY.pdb
     RDKit          3D

 29 30  0  0  1  0  0  0  0  0999 V2000
    8.7266  -11.5011   18.5534 O   0  0  0  0  0  0  0  0  0  0  0  0
    8.3031  -12.6650   19.2075 C   0  0  0  0  0  0  0  0  0  0  0  0
    8.8330  -13.0317   20.4302 C   0  0  0  0  0  0  0  0  0  0  0  0
    8.4330  -14.1779   21.1005 C   0  0  0  0  0  0  0  0  0  0  0  0
    7.4613  -14.9837   20.5132 C   0  0  0  0  0  0  0  0  0  0  0  0
    7.0493  -16.1886   21.2307 C   0  0  0  0  0  0  0  0  0  0  0  0
    8.0615  -17.2837   21.2583 C   0  0  2  0  0  0  0  0  0  0  0  0
    7.8970  -18.2133   20.1399 N   0  0  0  0  0  0  0  0  0  0  0  0
    8.1411  -17.9930   22.5459 C   0  0  0  0  0  0  0  0  0  0  0  0
    7.4419  -19.0300   22.6857 O   0  0  0  0  0  0  0  0  0  0  0  0
    6.9119  -14.6442   19.2910 C   0  0  0  0  0  0  0  0  0  0  0  0
    7.3432  -13.5028   18.6742 C   0  0  0  0  0  0  0  0  0  0  0  0
    8.9419  -17.5993   23.6365 N   0  0  0  0  0  0  0  0  0  0  0  0
    9.2081  -16.2265   23.9893 C   0  0  0  0  0  0  0  0  0  0  0  0
   10.1045  -16.1027   25.1568 C   0  0  0  0  0  0  0  0  0  0  0  0
   11.3229  -15.8772   24.9688 O   0  0  0  0  0  0  0  0  0  0  0  0
    6.2007  -11.4653   25.6906 O   0  0  0  0  0  0  0  0  0  0  0  0
    7.0127  -12.3558   26.3984 C   0  0  0  0  0  0  0  0  0  0  0  0
    6.4401  -13.5880   26.7117 C   0  0  0  0  0  0  0  0  0  0  0  0
    7.2229  -14.4781   27.4079 C   0  0  0  0  0  0  0  0  0  0  0  0
    8.5294  -14.1937   27.7968 C   0  0  0  0  0  0  0  0  0  0  0  0
    9.3106  -15.1784   28.5503 C   0  0  0  0  0  0  0  0  0  0  0  0
   10.3436  -15.8138   27.6506 C   0  0  2  0  0  0  0  0  0  0  0  0
    9.6072  -16.2341   26.4582 N   0  0  0  0  0  0  0  0  0  0  0  0
   11.0591  -16.9292   28.2689 C   0  0  0  0  0  0  0  0  0  0  0  0
   12.0463  -16.7538   29.2494 O   0  0  0  0  0  0  0  0  0  0  0  0
    9.0438  -12.9746   27.4664 C   0  0  0  0  0  0  0  0  0  0  0  0
    8.2983  -12.0472   26.7686 C   0  0  0  0  0  0  0  0  0  0  0  0
   10.8255  -18.1210   27.9515 O   0  0  0  0  0  0  0  0  0  0  0  0
  2  1  1  0
  3  2  2  0
  4  3  1  0
  5  4  2  0
  5 11  1  0
  6  5  1  0
  7  6  1  0
  7  8  1  6
  9  7  1  0
  9 13  1  0
 10  9  2  0
 11 12  2  0
 12  2  1  0
 14 13  1  0
 15 14  1  0
 15 24  1  0
 16 15  2  0
 18 28  2  0
 18 17  1  0
 19 18  1  0
 20 21  1  0
 20 19  2  0
 21 27  2  0
 22 21  1  0
 23 24  1  0
 23 22  1  1
 25 23  1  0
 26 25  1  0
 27 28  1  0
 29 25  2  0
M  END
$$$$
