YGY.pdb
     RDKit          3D

 29 30  0  0  1  0  0  0  0  0999 V2000
    7.9091  -12.2122   16.8741 O   0  0  0  0  0  0  0  0  0  0  0  0
    8.0354  -12.9538   18.0556 C   0  0  0  0  0  0  0  0  0  0  0  0
    7.1060  -13.9178   18.3979 C   0  0  0  0  0  0  0  0  0  0  0  0
    7.2055  -14.6670   19.5607 C   0  0  0  0  0  0  0  0  0  0  0  0
    8.2844  -14.4332   20.4090 C   0  0  0  0  0  0  0  0  0  0  0  0
    8.3767  -15.2301   21.6310 C   0  0  0  0  0  0  0  0  0  0  0  0
    9.5846  -16.0997   21.7274 C   0  0  2  0  0  0  0  0  0  0  0  0
    9.8444  -16.8207   20.4805 N   0  0  0  0  0  0  0  0  0  0  0  0
    9.5782  -17.0066   22.8871 C   0  0  0  0  0  0  0  0  0  0  0  0
    9.9066  -18.2058   22.6926 O   0  0  0  0  0  0  0  0  0  0  0  0
    9.2308  -13.4759   20.0947 C   0  0  0  0  0  0  0  0  0  0  0  0
    9.0835  -12.7663   18.9353 C   0  0  0  0  0  0  0  0  0  0  0  0
    9.2318  -16.6344   24.2013 N   0  0  0  0  0  0  0  0  0  0  0  0
    8.7025  -17.5455   25.1860 C   0  0  0  0  0  0  0  0  0  0  0  0
    8.5396  -16.9172   26.5129 C   0  0  0  0  0  0  0  0  0  0  0  0
    7.5545  -16.1699   26.7169 O   0  0  0  0  0  0  0  0  0  0  0  0
    6.3234  -12.1352   25.2491 O   0  0  0  0  0  0  0  0  0  0  0  0
    6.9966  -12.9414   26.1711 C   0  0  0  0  0  0  0  0  0  0  0  0
    8.2977  -12.5524   26.4875 C   0  0  0  0  0  0  0  0  0  0  0  0
    8.9769  -13.3326   27.3929 C   0  0  0  0  0  0  0  0  0  0  0  0
    8.4207  -14.4640   27.9842 C   0  0  0  0  0  0  0  0  0  0  0  0
    9.1997  -15.2649   28.9326 C   0  0  0  0  0  0  0  0  0  0  0  0
   10.2281  -16.0851   28.1911 C   0  0  2  0  0  0  0  0  0  0  0  0
    9.4687  -17.1488   27.5334 N   0  0  0  0  0  0  0  0  0  0  0  0
   11.2849  -16.6215   29.0479 C   0  0  0  0  0  0  0  0  0  0  0  0
   12.2466  -15.8134   29.6714 O   0  0  0  0  0  0  0  0  0  0  0  0
    7.1448  -14.8028   27.6416 C   0  0  0  0  0  0  0  0  0  0  0  0
    6.4219  -14.0520   26.7380 C   0  0  0  0  0  0  0  0  0  0  0  0
   11.3903  -17.8515   29.2751 O   0  0  0  0  0  0  0  0  0  0  0  0
  2  1  1  0
  3  2  2  0
  4  3  1  0
  5  4  2  0
  5 11  1  0
  6  5  1  0
  7  6  1  0
  7  8  1  6
  9  7  1  0
  9 13  1  0
 10  9  2  0
 11 12  2  0
 12  2  1  0
 14 13  1  0
 15 14  1  0
 15 24  1  0
 16 15  2  0
 18 28  2  0
 18 17  1  0
 19 18  1  0
 20 21  1  0
 20 19  2  0
 21 27  2  0
 22 21  1  0
 23 24  1  0
 23 22  1  1
 25 23  1  0
 26 25  1  0
 27 28  1  0
 29 25  2  0
M  END
$$$$
