YGY.pdb
     RDKit          3D

 29 30  0  0  1  0  0  0  0  0999 V2000
    7.3932  -12.7912   16.4116 O   0  0  0  0  0  0  0  0  0  0  0  0
    7.7702  -13.2988   17.6614 C   0  0  0  0  0  0  0  0  0  0  0  0
    9.0698  -13.6991   17.9086 C   0  0  0  0  0  0  0  0  0  0  0  0
    9.4714  -14.2052   19.1357 C   0  0  0  0  0  0  0  0  0  0  0  0
    8.5243  -14.3107   20.1508 C   0  0  0  0  0  0  0  0  0  0  0  0
    8.9615  -14.8458   21.4388 C   0  0  0  0  0  0  0  0  0  0  0  0
    9.2966  -16.2992   21.4373 C   0  0  2  0  0  0  0  0  0  0  0  0
    8.2065  -17.1145   20.8999 N   0  0  0  0  0  0  0  0  0  0  0  0
    9.7635  -16.8072   22.7378 C   0  0  0  0  0  0  0  0  0  0  0  0
   10.7853  -16.2722   23.2412 O   0  0  0  0  0  0  0  0  0  0  0  0
    7.2165  -13.9187   19.9349 C   0  0  0  0  0  0  0  0  0  0  0  0
    6.8753  -13.4267   18.7057 C   0  0  0  0  0  0  0  0  0  0  0  0
    9.1528  -17.8489   23.4642 N   0  0  0  0  0  0  0  0  0  0  0  0
    9.6516  -18.3608   24.7168 C   0  0  0  0  0  0  0  0  0  0  0  0
   10.4770  -17.3761   25.4455 C   0  0  0  0  0  0  0  0  0  0  0  0
   11.6019  -17.0661   24.9883 O   0  0  0  0  0  0  0  0  0  0  0  0
    5.7155  -12.5052   26.9474 O   0  0  0  0  0  0  0  0  0  0  0  0
    7.0193  -13.0059   27.0000 C   0  0  0  0  0  0  0  0  0  0  0  0
    7.3666  -13.9121   25.9988 C   0  0  0  0  0  0  0  0  0  0  0  0
    8.6451  -14.4163   26.0330 C   0  0  0  0  0  0  0  0  0  0  0  0
    9.5735  -14.0594   27.0076 C   0  0  0  0  0  0  0  0  0  0  0  0
   10.9183  -14.6417   27.0003 C   0  0  0  0  0  0  0  0  0  0  0  0
   10.8740  -16.0468   27.5514 C   0  0  2  0  0  0  0  0  0  0  0  0
   10.0157  -16.7931   26.6310 N   0  0  0  0  0  0  0  0  0  0  0  0
   10.3911  -16.1255   28.9296 C   0  0  0  0  0  0  0  0  0  0  0  0
   11.0607  -15.5305   30.0087 O   0  0  0  0  0  0  0  0  0  0  0  0
    9.1850  -13.1694   27.9653 C   0  0  0  0  0  0  0  0  0  0  0  0
    7.9132  -12.6354   27.9739 C   0  0  0  0  0  0  0  0  0  0  0  0
    9.3365  -16.7382   29.2260 O   0  0  0  0  0  0  0  0  0  0  0  0
  2  1  1  0
  3  2  2  0
  4  3  1  0
  5  4  2  0
  5 11  1  0
  6  5  1  0
  7  6  1  0
  7  8  1  1
  9  7  1  0
  9 13  1  0
 10  9  2  0
 11 12  2  0
 12  2  1  0
 14 13  1  0
 15 14  1  0
 15 24  1  0
 16 15  2  0
 18 28  2  0
 18 17  1  0
 19 18  1  0
 20 21  1  0
 20 19  2  0
 21 27  2  0
 22 21  1  0
 23 24  1  0
 23 22  1  6
 25 23  1  0
 26 25  1  0
 27 28  1  0
 29 25  2  0
M  END
$$$$
