VYT.pdb
     RDKit          3D

 27 27  0  0  1  0  0  0  0  0999 V2000
   17.1562  -10.0345  -18.4148 C   0  0  0  0  0  0  0  0  0  0  0  0
   17.6021  -11.3440  -17.8047 C   0  0  1  0  0  0  0  0  0  0  0  0
   17.5296  -12.3946  -18.9163 C   0  0  0  0  0  0  0  0  0  0  0  0
   19.0437  -11.1758  -17.3690 C   0  0  2  0  0  0  0  0  0  0  0  0
   19.5199  -12.4457  -16.8416 N   0  0  0  0  0  0  0  0  0  0  0  0
   19.1485  -10.1543  -16.2983 C   0  0  0  0  0  0  0  0  0  0  0  0
   18.7800  -10.3588  -15.1206 O   0  0  0  0  0  0  0  0  0  0  0  0
   24.5137  -11.9331  -14.3470 O   0  0  0  0  0  0  0  0  0  0  0  0
   23.7361  -10.8260  -14.6711 C   0  0  0  0  0  0  0  0  0  0  0  0
   23.6327  -10.3740  -15.9702 C   0  0  0  0  0  0  0  0  0  0  0  0
   22.8470   -9.2693  -16.2411 C   0  0  0  0  0  0  0  0  0  0  0  0
   22.1594   -8.6001  -15.2508 C   0  0  0  0  0  0  0  0  0  0  0  0
   21.3176   -7.4120  -15.5594 C   0  0  0  0  0  0  0  0  0  0  0  0
   19.8491   -7.8400  -15.5875 C   0  0  2  0  0  0  0  0  0  0  0  0
   19.6962   -8.8667  -16.6130 N   0  0  0  0  0  0  0  0  0  0  0  0
   18.9907   -6.6884  -15.9101 C   0  0  0  0  0  0  0  0  0  0  0  0
   19.0275   -6.1677  -17.0494 O   0  0  0  0  0  0  0  0  0  0  0  0
   22.2759   -9.0722  -13.9400 C   0  0  0  0  0  0  0  0  0  0  0  0
   23.0574  -10.1685  -13.6819 C   0  0  0  0  0  0  0  0  0  0  0  0
   15.3153   -6.5094  -16.1071 C   0  0  0  0  0  0  0  0  0  0  0  0
   15.7429   -5.5021  -15.0980 C   0  0  1  0  0  0  0  0  0  0  0  0
   15.5288   -5.9707  -13.8216 O   0  0  0  0  0  0  0  0  0  0  0  0
   17.1889   -5.0803  -15.2351 C   0  0  2  0  0  0  0  0  0  0  0  0
   18.1075   -6.1451  -14.9443 N   0  0  0  0  0  0  0  0  0  0  0  0
   17.4838   -3.8510  -14.4531 C   0  0  0  0  0  0  0  0  0  0  0  0
   18.3662   -3.8257  -13.5569 O   0  0  0  0  0  0  0  0  0  0  0  0
   16.7942   -2.6687  -14.6785 O   0  0  0  0  0  0  0  0  0  0  0  0
  2  4  1  0
  2  1  1  6
  3  2  1  0
  4  6  1  0
  4  5  1  1
  6  7  2  0
  9 10  2  0
  9  8  1  0
 11 10  1  0
 12 11  2  0
 14 13  1  6
 13 12  1  0
 15 14  1  0
 15  6  1  0
 16 14  1  0
 16 17  2  0
 18 12  1  0
 18 19  2  0
 19  9  1  0
 21 20  1  6
 21 23  1  0
 22 21  1  0
 23 24  1  1
 23 25  1  0
 24 16  1  0
 25 26  2  0
 25 27  1  0
M  END
$$$$
