VYT.pdb
     RDKit          3D

 27 27  0  0  1  0  0  0  0  0999 V2000
   20.7819  -12.8700  -20.8914 C   0  0  0  0  0  0  0  0  0  0  0  0
   20.1219  -11.8605  -19.9798 C   0  0  1  0  0  0  0  0  0  0  0  0
   19.4086  -12.6573  -18.8840 C   0  0  0  0  0  0  0  0  0  0  0  0
   21.2205  -11.0242  -19.3553 C   0  0  2  0  0  0  0  0  0  0  0  0
   22.1658  -11.9154  -18.6997 N   0  0  0  0  0  0  0  0  0  0  0  0
   20.6590  -10.1039  -18.3360 C   0  0  0  0  0  0  0  0  0  0  0  0
   19.8126   -9.2227  -18.6036 O   0  0  0  0  0  0  0  0  0  0  0  0
   15.2805  -13.0166  -15.9015 O   0  0  0  0  0  0  0  0  0  0  0  0
   16.4897  -12.3864  -15.6260 C   0  0  0  0  0  0  0  0  0  0  0  0
   17.6934  -13.0455  -15.7653 C   0  0  0  0  0  0  0  0  0  0  0  0
   18.8682  -12.3753  -15.4791 C   0  0  0  0  0  0  0  0  0  0  0  0
   18.8773  -11.0627  -15.0567 C   0  0  0  0  0  0  0  0  0  0  0  0
   20.1512  -10.3555  -14.7527 C   0  0  0  0  0  0  0  0  0  0  0  0
   20.4880   -9.4209  -15.9160 C   0  0  2  0  0  0  0  0  0  0  0  0
   21.0978  -10.2178  -16.9753 N   0  0  0  0  0  0  0  0  0  0  0  0
   21.4320   -8.3810  -15.4750 C   0  0  0  0  0  0  0  0  0  0  0  0
   22.5814   -8.6908  -15.0834 O   0  0  0  0  0  0  0  0  0  0  0  0
   17.6481  -10.4106  -14.9213 C   0  0  0  0  0  0  0  0  0  0  0  0
   16.4889  -11.0840  -15.2075 C   0  0  0  0  0  0  0  0  0  0  0  0
   22.8331   -5.5593  -17.4519 C   0  0  0  0  0  0  0  0  0  0  0  0
   22.1857   -4.9672  -16.2495 C   0  0  1  0  0  0  0  0  0  0  0  0
   20.9807   -4.3898  -16.5800 O   0  0  0  0  0  0  0  0  0  0  0  0
   21.9695   -5.9566  -15.1261 C   0  0  2  0  0  0  0  0  0  0  0  0
   21.0641   -7.0126  -15.4832 N   0  0  0  0  0  0  0  0  0  0  0  0
   21.5785   -5.2815  -13.8609 C   0  0  0  0  0  0  0  0  0  0  0  0
   20.4744   -5.5024  -13.3000 O   0  0  0  0  0  0  0  0  0  0  0  0
   22.4198   -4.3713  -13.2379 O   0  0  0  0  0  0  0  0  0  0  0  0
  2  4  1  0
  2  1  1  6
  3  2  1  0
  4  6  1  0
  4  5  1  1
  6  7  2  0
  9 10  2  0
  9  8  1  0
 11 10  1  0
 12 11  2  0
 14 13  1  1
 13 12  1  0
 15 14  1  0
 15  6  1  0
 16 14  1  0
 16 17  2  0
 18 12  1  0
 18 19  2  0
 19  9  1  0
 21 20  1  6
 21 23  1  0
 22 21  1  0
 23 24  1  6
 23 25  1  0
 24 16  1  0
 25 26  2  0
 25 27  1  0
M  END
$$$$
