VYT.pdb
     RDKit          3D

 27 27  0  0  1  0  0  0  0  0999 V2000
   22.4374  -22.2451  -14.6816 C   0  0  0  0  0  0  0  0  0  0  0  0
   21.6740  -21.1243  -14.0131 C   0  0  1  0  0  0  0  0  0  0  0  0
   20.2179  -21.5859  -13.9068 C   0  0  0  0  0  0  0  0  0  0  0  0
   22.2464  -20.9505  -12.6208 C   0  0  2  0  0  0  0  0  0  0  0  0
   21.4659  -19.9410  -11.9212 N   0  0  0  0  0  0  0  0  0  0  0  0
   23.6549  -20.4897  -12.6903 C   0  0  0  0  0  0  0  0  0  0  0  0
   23.9787  -19.3327  -13.0381 O   0  0  0  0  0  0  0  0  0  0  0  0
   26.1655  -19.1410   -6.4139 O   0  0  0  0  0  0  0  0  0  0  0  0
   26.3203  -19.7972   -7.6309 C   0  0  0  0  0  0  0  0  0  0  0  0
   25.3466  -20.6413   -8.1229 C   0  0  0  0  0  0  0  0  0  0  0  0
   25.5478  -21.2701   -9.3375 C   0  0  0  0  0  0  0  0  0  0  0  0
   26.6955  -21.0809  -10.0780 C   0  0  0  0  0  0  0  0  0  0  0  0
   26.8966  -21.7656  -11.3841 C   0  0  0  0  0  0  0  0  0  0  0  0
   26.1086  -21.0178  -12.4612 C   0  0  2  0  0  0  0  0  0  0  0  0
   24.7059  -21.4026  -12.3455 N   0  0  0  0  0  0  0  0  0  0  0  0
   26.6101  -21.3760  -13.7981 C   0  0  0  0  0  0  0  0  0  0  0  0
   26.6098  -22.5702  -14.1780 O   0  0  0  0  0  0  0  0  0  0  0  0
   27.6715  -20.2219   -9.5638 C   0  0  0  0  0  0  0  0  0  0  0  0
   27.4624  -19.6032   -8.3585 C   0  0  0  0  0  0  0  0  0  0  0  0
   25.6861  -22.4185  -16.3649 C   0  0  0  0  0  0  0  0  0  0  0  0
   26.2689  -21.1425  -16.8626 C   0  0  1  0  0  0  0  0  0  0  0  0
   25.3112  -20.1549  -16.9078 O   0  0  0  0  0  0  0  0  0  0  0  0
   27.4467  -20.6540  -16.0491 C   0  0  2  0  0  0  0  0  0  0  0  0
   27.1023  -20.3834  -14.6814 N   0  0  0  0  0  0  0  0  0  0  0  0
   28.1289  -19.5036  -16.6977 C   0  0  0  0  0  0  0  0  0  0  0  0
   28.1778  -18.3672  -16.1604 O   0  0  0  0  0  0  0  0  0  0  0  0
   28.7464  -19.6329  -17.9331 O   0  0  0  0  0  0  0  0  0  0  0  0
  2  4  1  0
  2  1  1  6
  3  2  1  0
  4  6  1  0
  4  5  1  1
  6  7  2  0
  9 10  2  0
  9  8  1  0
 11 10  1  0
 12 11  2  0
 14 13  1  1
 13 12  1  0
 15 14  1  0
 15  6  1  0
 16 14  1  0
 16 17  2  0
 18 12  1  0
 18 19  2  0
 19  9  1  0
 21 20  1  1
 21 23  1  0
 22 21  1  0
 23 24  1  1
 23 25  1  0
 24 16  1  0
 25 26  2  0
 25 27  1  0
M  END
$$$$
