VYT.pdb
     RDKit          3D

 27 27  0  0  1  0  0  0  0  0999 V2000
   22.8404  -11.9887  -19.5107 C   0  0  0  0  0  0  0  0  0  0  0  0
   22.9368  -12.4859  -18.0861 C   0  0  1  0  0  0  0  0  0  0  0  0
   24.0082  -13.5798  -18.0735 C   0  0  0  0  0  0  0  0  0  0  0  0
   23.3979  -11.3246  -17.2287 C   0  0  2  0  0  0  0  0  0  0  0  0
   23.7467  -11.8316  -15.9100 N   0  0  0  0  0  0  0  0  0  0  0  0
   22.3109  -10.3266  -17.0752 C   0  0  0  0  0  0  0  0  0  0  0  0
   21.7833   -9.7367  -18.0438 O   0  0  0  0  0  0  0  0  0  0  0  0
   16.2912  -12.8725  -17.7397 O   0  0  0  0  0  0  0  0  0  0  0  0
   17.1235  -12.0462  -16.9914 C   0  0  0  0  0  0  0  0  0  0  0  0
   17.0821  -10.6737  -17.1222 C   0  0  0  0  0  0  0  0  0  0  0  0
   17.9299   -9.8957  -16.3558 C   0  0  0  0  0  0  0  0  0  0  0  0
   18.8205  -10.4486  -15.4601 C   0  0  0  0  0  0  0  0  0  0  0  0
   19.7266   -9.5967  -14.6424 C   0  0  0  0  0  0  0  0  0  0  0  0
   20.8013   -9.0008  -15.5536 C   0  0  2  0  0  0  0  0  0  0  0  0
   21.8318  -10.0129  -15.7603 N   0  0  0  0  0  0  0  0  0  0  0  0
   21.3973   -7.8107  -14.9248 C   0  0  0  0  0  0  0  0  0  0  0  0
   22.1067   -7.9224  -13.8978 O   0  0  0  0  0  0  0  0  0  0  0  0
   18.8486  -11.8414  -15.3408 C   0  0  0  0  0  0  0  0  0  0  0  0
   18.0039  -12.6038  -16.1053 C   0  0  0  0  0  0  0  0  0  0  0  0
   23.9217   -5.5734  -16.3490 C   0  0  0  0  0  0  0  0  0  0  0  0
   22.7656   -4.7121  -15.9783 C   0  0  1  0  0  0  0  0  0  0  0  0
   22.0406   -4.3634  -17.0951 O   0  0  0  0  0  0  0  0  0  0  0  0
   21.8389   -5.3425  -14.9627 C   0  0  2  0  0  0  0  0  0  0  0  0
   21.1834   -6.5179  -15.4640 N   0  0  0  0  0  0  0  0  0  0  0  0
   20.8785   -4.3563  -14.4019 C   0  0  0  0  0  0  0  0  0  0  0  0
   21.2598   -3.3437  -13.7603 O   0  0  0  0  0  0  0  0  0  0  0  0
   19.5092   -4.5099  -14.5624 O   0  0  0  0  0  0  0  0  0  0  0  0
  2  4  1  0
  2  1  1  6
  3  2  1  0
  4  6  1  0
  4  5  1  1
  6  7  2  0
  9 10  2  0
  9  8  1  0
 11 10  1  0
 12 11  2  0
 14 13  1  1
 13 12  1  0
 15 14  1  0
 15  6  1  0
 16 14  1  0
 16 17  2  0
 18 12  1  0
 18 19  2  0
 19  9  1  0
 21 20  1  6
 21 23  1  0
 22 21  1  0
 23 24  1  6
 23 25  1  0
 24 16  1  0
 25 26  2  0
 25 27  1  0
M  END
$$$$
