VYT.pdb
     RDKit          3D

 27 27  0  0  1  0  0  0  0  0999 V2000
   27.4178  -18.4670  -18.3020 C   0  0  0  0  0  0  0  0  0  0  0  0
   27.7428  -19.7686  -18.9991 C   0  0  1  0  0  0  0  0  0  0  0  0
   28.6402  -19.4181  -20.1893 C   0  0  0  0  0  0  0  0  0  0  0  0
   28.5209  -20.6265  -18.0219 C   0  0  2  0  0  0  0  0  0  0  0  0
   28.8780  -21.8734  -18.6819 N   0  0  0  0  0  0  0  0  0  0  0  0
   27.6917  -20.9453  -16.8337 C   0  0  0  0  0  0  0  0  0  0  0  0
   26.6842  -21.6850  -16.8824 O   0  0  0  0  0  0  0  0  0  0  0  0
   24.7392  -20.6630   -8.5554 O   0  0  0  0  0  0  0  0  0  0  0  0
   25.5444  -20.5598   -9.6851 C   0  0  0  0  0  0  0  0  0  0  0  0
   26.0971  -21.6750  -10.2798 C   0  0  0  0  0  0  0  0  0  0  0  0
   26.8905  -21.5200  -11.4012 C   0  0  0  0  0  0  0  0  0  0  0  0
   27.1496  -20.2812  -11.9485 C   0  0  0  0  0  0  0  0  0  0  0  0
   28.0062  -20.1316  -13.1564 C   0  0  0  0  0  0  0  0  0  0  0  0
   27.2213  -20.6051  -14.3812 C   0  0  2  0  0  0  0  0  0  0  0  0
   28.0497  -20.3865  -15.5623 N   0  0  0  0  0  0  0  0  0  0  0  0
   25.9692  -19.8413  -14.5082 C   0  0  0  0  0  0  0  0  0  0  0  0
   25.9965  -18.6108  -14.7439 O   0  0  0  0  0  0  0  0  0  0  0  0
   26.5811  -19.1621  -11.3326 C   0  0  0  0  0  0  0  0  0  0  0  0
   25.7959  -19.3266  -10.2210 C   0  0  0  0  0  0  0  0  0  0  0  0
   22.5719  -21.1002  -16.3659 C   0  0  0  0  0  0  0  0  0  0  0  0
   22.8740  -19.7471  -15.8241 C   0  0  1  0  0  0  0  0  0  0  0  0
   21.7451  -18.9596  -15.8243 O   0  0  0  0  0  0  0  0  0  0  0  0
   23.4639  -19.7677  -14.4316 C   0  0  2  0  0  0  0  0  0  0  0  0
   24.7108  -20.4772  -14.3675 N   0  0  0  0  0  0  0  0  0  0  0  0
   22.4859  -20.2528  -13.4228 C   0  0  0  0  0  0  0  0  0  0  0  0
   22.7714  -21.1588  -12.5981 O   0  0  0  0  0  0  0  0  0  0  0  0
   21.2056  -19.7242  -13.3454 O   0  0  0  0  0  0  0  0  0  0  0  0
  2  4  1  0
  2  1  1  1
  3  2  1  0
  4  6  1  0
  4  5  1  6
  6  7  2  0
  9 10  2  0
  9  8  1  0
 11 10  1  0
 12 11  2  0
 14 13  1  1
 13 12  1  0
 15 14  1  0
 15  6  1  0
 16 14  1  0
 16 17  2  0
 18 12  1  0
 18 19  2  0
 19  9  1  0
 21 20  1  1
 21 23  1  0
 22 21  1  0
 23 24  1  6
 23 25  1  0
 24 16  1  0
 25 26  2  0
 25 27  1  0
M  END
$$$$
