VYT.pdb
     RDKit          3D

 27 27  0  0  1  0  0  0  0  0999 V2000
   28.0083  -18.6312  -17.1681 C   0  0  0  0  0  0  0  0  0  0  0  0
   26.9448  -18.5725  -16.0952 C   0  0  1  0  0  0  0  0  0  0  0  0
   25.6786  -19.1888  -16.6965 C   0  0  0  0  0  0  0  0  0  0  0  0
   27.4172  -19.4298  -14.9383 C   0  0  2  0  0  0  0  0  0  0  0  0
   27.5264  -20.8069  -15.3960 N   0  0  0  0  0  0  0  0  0  0  0  0
   26.4411  -19.3824  -13.8221 C   0  0  0  0  0  0  0  0  0  0  0  0
   26.0899  -18.3182  -13.2664 O   0  0  0  0  0  0  0  0  0  0  0  0
   20.3406  -19.0963  -16.3530 O   0  0  0  0  0  0  0  0  0  0  0  0
   21.1965  -19.7214  -15.4518 C   0  0  0  0  0  0  0  0  0  0  0  0
   22.1207  -20.6574  -15.8670 C   0  0  0  0  0  0  0  0  0  0  0  0
   22.9489  -21.2505  -14.9324 C   0  0  0  0  0  0  0  0  0  0  0  0
   22.8820  -20.9361  -13.5915 C   0  0  0  0  0  0  0  0  0  0  0  0
   23.7812  -21.5840  -12.5980 C   0  0  0  0  0  0  0  0  0  0  0  0
   24.9088  -20.6125  -12.2439 C   0  0  2  0  0  0  0  0  0  0  0  0
   25.8642  -20.6063  -13.3467 N   0  0  0  0  0  0  0  0  0  0  0  0
   25.5830  -21.0456  -11.0091 C   0  0  0  0  0  0  0  0  0  0  0  0
   26.1779  -22.1475  -10.9627 O   0  0  0  0  0  0  0  0  0  0  0  0
   21.9394  -19.9853  -13.1888 C   0  0  0  0  0  0  0  0  0  0  0  0
   21.1228  -19.4030  -14.1234 C   0  0  0  0  0  0  0  0  0  0  0  0
   28.2318  -19.5959   -8.5794 C   0  0  0  0  0  0  0  0  0  0  0  0
   26.9386  -19.7657   -7.8622 C   0  0  1  0  0  0  0  0  0  0  0  0
   26.3233  -18.5490   -7.6734 O   0  0  0  0  0  0  0  0  0  0  0  0
   25.9774  -20.7049   -8.5562 C   0  0  2  0  0  0  0  0  0  0  0  0
   25.5746  -20.2300   -9.8503 N   0  0  0  0  0  0  0  0  0  0  0  0
   24.8160  -21.0458   -7.6934 C   0  0  0  0  0  0  0  0  0  0  0  0
   23.6312  -20.8124   -8.0461 O   0  0  0  0  0  0  0  0  0  0  0  0
   24.9882  -21.6407   -6.4521 O   0  0  0  0  0  0  0  0  0  0  0  0
  2  4  1  0
  2  1  1  6
  3  2  1  0
  4  6  1  0
  4  5  1  6
  6  7  2  0
  9 10  2  0
  9  8  1  0
 11 10  1  0
 12 11  2  0
 14 13  1  6
 13 12  1  0
 15 14  1  0
 15  6  1  0
 16 14  1  0
 16 17  2  0
 18 12  1  0
 18 19  2  0
 19  9  1  0
 21 20  1  6
 21 23  1  0
 22 21  1  0
 23 24  1  6
 23 25  1  0
 24 16  1  0
 25 26  2  0
 25 27  1  0
M  END
$$$$
