VYT.pdb
     RDKit          3D

 27 27  0  0  1  0  0  0  0  0999 V2000
   23.3646  -11.9440  -22.6271 C   0  0  0  0  0  0  0  0  0  0  0  0
   22.0948  -11.2134  -22.2533 C   0  0  1  0  0  0  0  0  0  0  0  0
   20.9295  -12.0773  -22.7435 C   0  0  0  0  0  0  0  0  0  0  0  0
   22.0494  -11.1238  -20.7413 C   0  0  2  0  0  0  0  0  0  0  0  0
   21.9770  -12.4722  -20.1988 N   0  0  0  0  0  0  0  0  0  0  0  0
   20.8470  -10.3753  -20.2997 C   0  0  0  0  0  0  0  0  0  0  0  0
   19.7075  -10.5700  -20.7773 O   0  0  0  0  0  0  0  0  0  0  0  0
   15.7547  -13.3754  -19.1797 O   0  0  0  0  0  0  0  0  0  0  0  0
   16.6271  -12.3658  -18.7858 C   0  0  0  0  0  0  0  0  0  0  0  0
   17.8351  -12.6519  -18.1845 C   0  0  0  0  0  0  0  0  0  0  0  0
   18.6672  -11.6130  -17.8112 C   0  0  0  0  0  0  0  0  0  0  0  0
   18.3285  -10.2929  -18.0209 C   0  0  0  0  0  0  0  0  0  0  0  0
   19.2360   -9.1859  -17.6130 C   0  0  0  0  0  0  0  0  0  0  0  0
   19.8462   -8.5586  -18.8679 C   0  0  2  0  0  0  0  0  0  0  0  0
   20.9817   -9.3782  -19.2776 N   0  0  0  0  0  0  0  0  0  0  0  0
   20.3039   -7.1895  -18.5798 C   0  0  0  0  0  0  0  0  0  0  0  0
   21.4334   -6.9900  -18.0749 O   0  0  0  0  0  0  0  0  0  0  0  0
   17.1004  -10.0218  -18.6317 C   0  0  0  0  0  0  0  0  0  0  0  0
   16.2825  -11.0591  -18.9980 C   0  0  0  0  0  0  0  0  0  0  0  0
   19.7122   -2.3184  -19.3024 C   0  0  0  0  0  0  0  0  0  0  0  0
   19.3141   -3.7266  -19.5746 C   0  0  1  0  0  0  0  0  0  0  0  0
   19.6897   -4.1018  -20.8445 O   0  0  0  0  0  0  0  0  0  0  0  0
   19.8720   -4.7193  -18.5791 C   0  0  2  0  0  0  0  0  0  0  0  0
   19.4817   -6.0714  -18.8656 N   0  0  0  0  0  0  0  0  0  0  0  0
   19.5676   -4.3289  -17.1775 C   0  0  0  0  0  0  0  0  0  0  0  0
   19.9883   -3.2539  -16.6776 O   0  0  0  0  0  0  0  0  0  0  0  0
   18.8004   -5.1384  -16.3526 O   0  0  0  0  0  0  0  0  0  0  0  0
  2  4  1  0
  2  1  1  1
  3  2  1  0
  4  6  1  0
  4  5  1  1
  6  7  2  0
  9 10  2  0
  9  8  1  0
 11 10  1  0
 12 11  2  0
 14 13  1  1
 13 12  1  0
 15 14  1  0
 15  6  1  0
 16 14  1  0
 16 17  2  0
 18 12  1  0
 18 19  2  0
 19  9  1  0
 21 20  1  1
 21 23  1  0
 22 21  1  0
 23 24  1  6
 23 25  1  0
 24 16  1  0
 25 26  2  0
 25 27  1  0
M  END
$$$$
