VYT.pdb
     RDKit          3D

 27 27  0  0  1  0  0  0  0  0999 V2000
   29.0265  -21.5389  -19.0268 C   0  0  0  0  0  0  0  0  0  0  0  0
   27.9034  -21.6766  -18.0241 C   0  0  1  0  0  0  0  0  0  0  0  0
   26.8867  -22.6465  -18.6326 C   0  0  0  0  0  0  0  0  0  0  0  0
   28.4878  -22.2887  -16.7670 C   0  0  2  0  0  0  0  0  0  0  0  0
   28.9492  -23.6334  -17.0773 N   0  0  0  0  0  0  0  0  0  0  0  0
   27.4567  -22.3800  -15.7042 C   0  0  0  0  0  0  0  0  0  0  0  0
   26.7590  -23.4009  -15.5152 O   0  0  0  0  0  0  0  0  0  0  0  0
   23.1564  -20.7186   -8.2738 O   0  0  0  0  0  0  0  0  0  0  0  0
   24.0061  -20.6058   -9.3696 C   0  0  0  0  0  0  0  0  0  0  0  0
   23.6087  -19.9685  -10.5265 C   0  0  0  0  0  0  0  0  0  0  0  0
   24.4902  -19.8826  -11.5880 C   0  0  0  0  0  0  0  0  0  0  0  0
   25.7605  -20.4155  -11.5289 C   0  0  0  0  0  0  0  0  0  0  0  0
   26.6975  -20.3144  -12.6810 C   0  0  0  0  0  0  0  0  0  0  0  0
   26.2634  -21.3078  -13.7604 C   0  0  2  0  0  0  0  0  0  0  0  0
   27.2380  -21.2528  -14.8449 N   0  0  0  0  0  0  0  0  0  0  0  0
   24.9317  -20.9488  -14.2748 C   0  0  0  0  0  0  0  0  0  0  0  0
   24.7571  -19.8704  -14.8888 O   0  0  0  0  0  0  0  0  0  0  0  0
   26.1462  -21.0579  -10.3485 C   0  0  0  0  0  0  0  0  0  0  0  0
   25.2647  -21.1377   -9.3017 C   0  0  0  0  0  0  0  0  0  0  0  0
   22.7862  -22.4063  -16.8351 C   0  0  0  0  0  0  0  0  0  0  0  0
   21.9743  -22.4147  -15.5876 C   0  0  1  0  0  0  0  0  0  0  0  0
   21.8894  -23.6875  -15.0706 O   0  0  0  0  0  0  0  0  0  0  0  0
   22.4929  -21.4789  -14.5185 C   0  0  2  0  0  0  0  0  0  0  0  0
   23.8223  -21.8104  -14.0882 N   0  0  0  0  0  0  0  0  0  0  0  0
   21.5446  -21.3586  -13.3802 C   0  0  0  0  0  0  0  0  0  0  0  0
   20.4149  -20.8200  -13.5065 O   0  0  0  0  0  0  0  0  0  0  0  0
   21.8657  -21.8385  -12.1188 O   0  0  0  0  0  0  0  0  0  0  0  0
  2  4  1  0
  2  1  1  6
  3  2  1  0
  4  6  1  0
  4  5  1  6
  6  7  2  0
  9 10  2  0
  9  8  1  0
 11 10  1  0
 12 11  2  0
 14 13  1  1
 13 12  1  0
 15 14  1  0
 15  6  1  0
 16 14  1  0
 16 17  2  0
 18 12  1  0
 18 19  2  0
 19  9  1  0
 21 20  1  6
 21 23  1  0
 22 21  1  0
 23 24  1  1
 23 25  1  0
 24 16  1  0
 25 26  2  0
 25 27  1  0
M  END
$$$$
