VYT.pdb
     RDKit          3D

 27 27  0  0  1  0  0  0  0  0999 V2000
   40.5722   -4.7582  -11.5285 C   0  0  0  0  0  0  0  0  0  0  0  0
   39.2596   -5.4856  -11.3448 C   0  0  1  0  0  0  0  0  0  0  0  0
   38.4640   -5.2912  -12.6385 C   0  0  0  0  0  0  0  0  0  0  0  0
   39.5753   -6.9572  -11.1683 C   0  0  2  0  0  0  0  0  0  0  0  0
   38.3233   -7.6972  -11.1181 N   0  0  0  0  0  0  0  0  0  0  0  0
   40.3058   -7.1845   -9.8972 C   0  0  0  0  0  0  0  0  0  0  0  0
   39.7749   -7.0565   -8.7718 O   0  0  0  0  0  0  0  0  0  0  0  0
   37.6554  -11.5450   -6.5569 O   0  0  0  0  0  0  0  0  0  0  0  0
   38.8472  -11.0330   -7.0597 C   0  0  0  0  0  0  0  0  0  0  0  0
   39.7741  -10.4266   -6.2376 C   0  0  0  0  0  0  0  0  0  0  0  0
   40.9436   -9.9336   -6.7856 C   0  0  0  0  0  0  0  0  0  0  0  0
   41.2164  -10.0280   -8.1339 C   0  0  0  0  0  0  0  0  0  0  0  0
   42.4806   -9.4919   -8.7081 C   0  0  0  0  0  0  0  0  0  0  0  0
   42.4025   -7.9643   -8.7362 C   0  0  2  0  0  0  0  0  0  0  0  0
   41.6865   -7.5696   -9.9448 N   0  0  0  0  0  0  0  0  0  0  0  0
   43.7565   -7.3869   -8.7537 C   0  0  0  0  0  0  0  0  0  0  0  0
   44.5098   -7.5630   -9.7396 O   0  0  0  0  0  0  0  0  0  0  0  0
   40.2655  -10.6457   -8.9520 C   0  0  0  0  0  0  0  0  0  0  0  0
   39.1091  -11.1313   -8.3988 C   0  0  0  0  0  0  0  0  0  0  0  0
   44.6852   -3.6396   -7.8822 C   0  0  0  0  0  0  0  0  0  0  0  0
   45.4950   -4.5962   -7.0792 C   0  0  1  0  0  0  0  0  0  0  0  0
   45.0383   -4.6512   -5.7820 O   0  0  0  0  0  0  0  0  0  0  0  0
   45.5283   -5.9953   -7.6527 C   0  0  2  0  0  0  0  0  0  0  0  0
   44.2364   -6.6224   -7.6615 N   0  0  0  0  0  0  0  0  0  0  0  0
   46.5608   -6.8388   -6.9956 C   0  0  0  0  0  0  0  0  0  0  0  0
   46.2693   -7.9076   -6.3996 O   0  0  0  0  0  0  0  0  0  0  0  0
   47.9014   -6.4825   -7.0105 O   0  0  0  0  0  0  0  0  0  0  0  0
  2  4  1  0
  2  1  1  6
  3  2  1  0
  4  6  1  0
  4  5  1  1
  6  7  2  0
  9 10  2  0
  9  8  1  0
 11 10  1  0
 12 11  2  0
 14 13  1  6
 13 12  1  0
 15 14  1  0
 15  6  1  0
 16 14  1  0
 16 17  2  0
 18 12  1  0
 18 19  2  0
 19  9  1  0
 21 20  1  6
 21 23  1  0
 22 21  1  0
 23 24  1  1
 23 25  1  0
 24 16  1  0
 25 26  2  0
 25 27  1  0
M  END
$$$$
