VYT.pdb
     RDKit          3D

 27 27  0  0  1  0  0  0  0  0999 V2000
   28.9252  -21.3851  -19.1291 C   0  0  0  0  0  0  0  0  0  0  0  0
   27.8330  -21.4404  -18.0852 C   0  0  1  0  0  0  0  0  0  0  0  0
   26.7012  -22.2852  -18.6769 C   0  0  0  0  0  0  0  0  0  0  0  0
   28.4001  -22.1453  -16.8696 C   0  0  2  0  0  0  0  0  0  0  0  0
   28.7928  -23.4922  -17.2558 N   0  0  0  0  0  0  0  0  0  0  0  0
   27.3770  -22.2434  -15.7998 C   0  0  0  0  0  0  0  0  0  0  0  0
   26.5851  -23.2063  -15.6981 O   0  0  0  0  0  0  0  0  0  0  0  0
   23.2110  -20.8413   -8.2421 O   0  0  0  0  0  0  0  0  0  0  0  0
   24.0574  -20.6904   -9.3359 C   0  0  0  0  0  0  0  0  0  0  0  0
   23.7108  -19.8983  -10.4107 C   0  0  0  0  0  0  0  0  0  0  0  0
   24.5866  -19.7807  -11.4739 C   0  0  0  0  0  0  0  0  0  0  0  0
   25.8017  -20.4321  -11.4964 C   0  0  0  0  0  0  0  0  0  0  0  0
   26.7333  -20.2948  -12.6490 C   0  0  0  0  0  0  0  0  0  0  0  0
   26.2802  -21.2367  -13.7662 C   0  0  2  0  0  0  0  0  0  0  0  0
   27.2792  -21.1924  -14.8288 N   0  0  0  0  0  0  0  0  0  0  0  0
   24.9763  -20.8055  -14.2962 C   0  0  0  0  0  0  0  0  0  0  0  0
   24.8623  -19.7061  -14.8867 O   0  0  0  0  0  0  0  0  0  0  0  0
   26.1362  -21.2306  -10.3985 C   0  0  0  0  0  0  0  0  0  0  0  0
   25.2609  -21.3407   -9.3493 C   0  0  0  0  0  0  0  0  0  0  0  0
   22.8421  -21.8340  -16.9823 C   0  0  0  0  0  0  0  0  0  0  0  0
   22.0083  -21.9926  -15.7595 C   0  0  1  0  0  0  0  0  0  0  0  0
   21.9032  -23.3199  -15.4108 O   0  0  0  0  0  0  0  0  0  0  0  0
   22.5163  -21.2066  -14.5713 C   0  0  2  0  0  0  0  0  0  0  0  0
   23.8259  -21.6200  -14.1513 N   0  0  0  0  0  0  0  0  0  0  0  0
   21.5392  -21.2027  -13.4511 C   0  0  0  0  0  0  0  0  0  0  0  0
   21.8130  -21.6918  -12.3249 O   0  0  0  0  0  0  0  0  0  0  0  0
   20.2730  -20.6556  -13.5989 O   0  0  0  0  0  0  0  0  0  0  0  0
  2  4  1  0
  2  1  1  6
  3  2  1  0
  4  6  1  0
  4  5  1  6
  6  7  2  0
  9 10  2  0
  9  8  1  0
 11 10  1  0
 12 11  2  0
 14 13  1  1
 13 12  1  0
 15 14  1  0
 15  6  1  0
 16 14  1  0
 16 17  2  0
 18 12  1  0
 18 19  2  0
 19  9  1  0
 21 20  1  6
 21 23  1  0
 22 21  1  0
 23 24  1  1
 23 25  1  0
 24 16  1  0
 25 26  2  0
 25 27  1  0
M  END
$$$$
