VYT.pdb
     RDKit          3D

 27 27  0  0  1  0  0  0  0  0999 V2000
   20.0916  -27.8401  -15.9274 C   0  0  0  0  0  0  0  0  0  0  0  0
   20.1480  -26.3496  -16.1741 C   0  0  1  0  0  0  0  0  0  0  0  0
   18.7125  -25.8297  -16.0577 C   0  0  0  0  0  0  0  0  0  0  0  0
   20.9921  -25.7376  -15.0744 C   0  0  2  0  0  0  0  0  0  0  0  0
   20.3867  -26.0604  -13.7911 N   0  0  0  0  0  0  0  0  0  0  0  0
   21.0380  -24.2613  -15.2134 C   0  0  0  0  0  0  0  0  0  0  0  0
   20.4441  -23.4830  -14.4347 O   0  0  0  0  0  0  0  0  0  0  0  0
   25.1937  -22.7723  -10.9018 O   0  0  0  0  0  0  0  0  0  0  0  0
   24.7752  -22.5584  -12.2112 C   0  0  0  0  0  0  0  0  0  0  0  0
   24.1043  -21.4091  -12.5742 C   0  0  0  0  0  0  0  0  0  0  0  0
   23.7092  -21.2435  -13.8886 C   0  0  0  0  0  0  0  0  0  0  0  0
   23.9646  -22.1938  -14.8545 C   0  0  0  0  0  0  0  0  0  0  0  0
   23.5323  -22.0000  -16.2655 C   0  0  0  0  0  0  0  0  0  0  0  0
   22.0252  -22.2452  -16.3593 C   0  0  2  0  0  0  0  0  0  0  0  0
   21.7950  -23.6842  -16.2862 N   0  0  0  0  0  0  0  0  0  0  0  0
   21.5047  -21.7262  -17.6347 C   0  0  0  0  0  0  0  0  0  0  0  0
   21.7804  -22.3000  -18.7142 O   0  0  0  0  0  0  0  0  0  0  0  0
   24.6456  -23.3523  -14.4685 C   0  0  0  0  0  0  0  0  0  0  0  0
   25.0330  -23.5069  -13.1627 C   0  0  0  0  0  0  0  0  0  0  0  0
   18.6659  -18.3421  -17.7705 C   0  0  0  0  0  0  0  0  0  0  0  0
   18.7672  -19.4690  -18.7376 C   0  0  1  0  0  0  0  0  0  0  0  0
   18.2921  -19.0938  -19.9737 O   0  0  0  0  0  0  0  0  0  0  0  0
   20.1694  -20.0149  -18.8903 C   0  0  2  0  0  0  0  0  0  0  0  0
   20.6840  -20.5716  -17.6707 N   0  0  0  0  0  0  0  0  0  0  0  0
   21.0918  -19.0135  -19.4870 C   0  0  0  0  0  0  0  0  0  0  0  0
   22.1007  -18.5844  -18.8702 O   0  0  0  0  0  0  0  0  0  0  0  0
   20.8794  -18.5040  -20.7596 O   0  0  0  0  0  0  0  0  0  0  0  0
  2  4  1  0
  2  1  1  1
  3  2  1  0
  4  6  1  0
  4  5  1  1
  6  7  2  0
  9 10  2  0
  9  8  1  0
 11 10  1  0
 12 11  2  0
 14 13  1  6
 13 12  1  0
 15 14  1  0
 15  6  1  0
 16 14  1  0
 16 17  2  0
 18 12  1  0
 18 19  2  0
 19  9  1  0
 21 20  1  1
 21 23  1  0
 22 21  1  0
 23 24  1  1
 23 25  1  0
 24 16  1  0
 25 26  2  0
 25 27  1  0
M  END
$$$$
