VYT.pdb
     RDKit          3D

 27 27  0  0  1  0  0  0  0  0999 V2000
   21.7687  -23.0230  -13.8728 C   0  0  0  0  0  0  0  0  0  0  0  0
   22.7176  -22.0107  -14.4734 C   0  0  1  0  0  0  0  0  0  0  0  0
   22.1242  -21.5981  -15.8233 C   0  0  0  0  0  0  0  0  0  0  0  0
   22.7449  -20.8088  -13.5509 C   0  0  2  0  0  0  0  0  0  0  0  0
   21.3841  -20.3207  -13.3849 N   0  0  0  0  0  0  0  0  0  0  0  0
   23.5653  -19.7206  -14.1372 C   0  0  0  0  0  0  0  0  0  0  0  0
   23.0795  -18.7875  -14.8139 O   0  0  0  0  0  0  0  0  0  0  0  0
   28.3264  -22.1414   -9.8229 O   0  0  0  0  0  0  0  0  0  0  0  0
   27.8962  -21.1384  -10.6856 C   0  0  0  0  0  0  0  0  0  0  0  0
   26.6979  -20.4841  -10.4886 C   0  0  0  0  0  0  0  0  0  0  0  0
   26.3146  -19.4942  -11.3742 C   0  0  0  0  0  0  0  0  0  0  0  0
   27.0941  -19.1368  -12.4540 C   0  0  0  0  0  0  0  0  0  0  0  0
   26.6668  -18.0685  -13.3983 C   0  0  0  0  0  0  0  0  0  0  0  0
   25.8384  -18.7008  -14.5183 C   0  0  2  0  0  0  0  0  0  0  0  0
   24.9840  -19.7251  -13.9268 N   0  0  0  0  0  0  0  0  0  0  0  0
   26.7246  -19.3153  -15.5203 C   0  0  0  0  0  0  0  0  0  0  0  0
   27.4562  -20.2849  -15.2122 O   0  0  0  0  0  0  0  0  0  0  0  0
   28.3053  -19.8105  -12.6380 C   0  0  0  0  0  0  0  0  0  0  0  0
   28.6762  -20.7905  -11.7541 C   0  0  0  0  0  0  0  0  0  0  0  0
   26.5657  -21.7493  -17.8314 C   0  0  0  0  0  0  0  0  0  0  0  0
   26.8007  -20.5161  -18.6312 C   0  0  1  0  0  0  0  0  0  0  0  0
   25.6100  -19.9968  -19.0863 O   0  0  0  0  0  0  0  0  0  0  0  0
   27.5564  -19.4408  -17.8826 C   0  0  2  0  0  0  0  0  0  0  0  0
   26.7701  -18.8268  -16.8496 N   0  0  0  0  0  0  0  0  0  0  0  0
   28.1565  -18.4413  -18.8048 C   0  0  0  0  0  0  0  0  0  0  0  0
   27.7872  -17.2389  -18.8177 O   0  0  0  0  0  0  0  0  0  0  0  0
   29.1575  -18.7927  -19.6986 O   0  0  0  0  0  0  0  0  0  0  0  0
  2  4  1  0
  2  1  1  1
  3  2  1  0
  4  6  1  0
  4  5  1  6
  6  7  2  0
  9 10  2  0
  9  8  1  0
 11 10  1  0
 12 11  2  0
 14 13  1  1
 13 12  1  0
 15 14  1  0
 15  6  1  0
 16 14  1  0
 16 17  2  0
 18 12  1  0
 18 19  2  0
 19  9  1  0
 21 20  1  1
 21 23  1  0
 22 21  1  0
 23 24  1  1
 23 25  1  0
 24 16  1  0
 25 26  2  0
 25 27  1  0
M  END
$$$$
