VYT.pdb
     RDKit          3D

 27 27  0  0  1  0  0  0  0  0999 V2000
   26.5851  -18.1248  -13.7306 C   0  0  0  0  0  0  0  0  0  0  0  0
   27.6133  -19.0942  -14.2680 C   0  0  1  0  0  0  0  0  0  0  0  0
   28.8946  -18.2901  -14.5053 C   0  0  0  0  0  0  0  0  0  0  0  0
   27.8662  -20.1320  -13.1931 C   0  0  2  0  0  0  0  0  0  0  0  0
   28.9111  -21.0332  -13.6553 N   0  0  0  0  0  0  0  0  0  0  0  0
   26.6400  -20.9271  -12.9378 C   0  0  0  0  0  0  0  0  0  0  0  0
   26.2807  -21.8805  -13.6634 O   0  0  0  0  0  0  0  0  0  0  0  0
   28.8607  -19.1981   -7.4283 O   0  0  0  0  0  0  0  0  0  0  0  0
   27.7621  -19.7542   -8.0760 C   0  0  0  0  0  0  0  0  0  0  0  0
   27.7570  -21.0724   -8.4821 C   0  0  0  0  0  0  0  0  0  0  0  0
   26.6408  -21.5783   -9.1220 C   0  0  0  0  0  0  0  0  0  0  0  0
   25.5262  -20.8051   -9.3694 C   0  0  0  0  0  0  0  0  0  0  0  0
   24.3324  -21.3652  -10.0597 C   0  0  0  0  0  0  0  0  0  0  0  0
   24.5530  -21.2870  -11.5715 C   0  0  2  0  0  0  0  0  0  0  0  0
   25.8176  -20.5991  -11.8096 N   0  0  0  0  0  0  0  0  0  0  0  0
   23.4564  -20.5380  -12.2066 C   0  0  0  0  0  0  0  0  0  0  0  0
   23.3611  -19.2980  -12.0528 O   0  0  0  0  0  0  0  0  0  0  0  0
   25.5492  -19.4713   -8.9508 C   0  0  0  0  0  0  0  0  0  0  0  0
   26.6608  -18.9794   -8.3171 C   0  0  0  0  0  0  0  0  0  0  0  0
   22.7014  -19.7285  -15.6649 C   0  0  0  0  0  0  0  0  0  0  0  0
   21.5425  -20.5164  -15.1631 C   0  0  1  0  0  0  0  0  0  0  0  0
   21.6109  -21.8181  -15.6053 O   0  0  0  0  0  0  0  0  0  0  0  0
   21.4105  -20.5111  -13.6564 C   0  0  2  0  0  0  0  0  0  0  0  0
   22.4882  -21.1991  -13.0025 N   0  0  0  0  0  0  0  0  0  0  0  0
   20.0781  -21.0006  -13.2153 C   0  0  0  0  0  0  0  0  0  0  0  0
   19.9488  -22.0132  -12.4802 O   0  0  0  0  0  0  0  0  0  0  0  0
   18.9096  -20.3581  -13.5975 O   0  0  0  0  0  0  0  0  0  0  0  0
  2  4  1  0
  2  1  1  1
  3  2  1  0
  4  6  1  0
  4  5  1  6
  6  7  2  0
  9 10  2  0
  9  8  1  0
 11 10  1  0
 12 11  2  0
 14 13  1  1
 13 12  1  0
 15 14  1  0
 15  6  1  0
 16 14  1  0
 16 17  2  0
 18 12  1  0
 18 19  2  0
 19  9  1  0
 21 20  1  1
 21 23  1  0
 22 21  1  0
 23 24  1  1
 23 25  1  0
 24 16  1  0
 25 26  2  0
 25 27  1  0
M  END
$$$$
