VYT.pdb
     RDKit          3D

 27 27  0  0  1  0  0  0  0  0999 V2000
   21.8787  -10.7827  -19.3400 C   0  0  0  0  0  0  0  0  0  0  0  0
   21.3166  -12.1131  -18.8932 C   0  0  1  0  0  0  0  0  0  0  0  0
   21.3915  -13.0506  -20.1015 C   0  0  0  0  0  0  0  0  0  0  0  0
   22.2161  -12.6414  -17.7940 C   0  0  2  0  0  0  0  0  0  0  0  0
   21.6978  -13.9260  -17.3479 N   0  0  0  0  0  0  0  0  0  0  0  0
   22.2261  -11.7124  -16.6374 C   0  0  0  0  0  0  0  0  0  0  0  0
   21.2366  -11.5386  -15.8921 O   0  0  0  0  0  0  0  0  0  0  0  0
   28.9829  -11.9458  -17.6734 O   0  0  0  0  0  0  0  0  0  0  0  0
   27.9288  -11.5266  -16.8679 C   0  0  0  0  0  0  0  0  0  0  0  0
   27.6441  -10.1882  -16.6933 C   0  0  0  0  0  0  0  0  0  0  0  0
   26.5857   -9.8224  -15.8826 C   0  0  0  0  0  0  0  0  0  0  0  0
   25.8006  -10.7556  -15.2390 C   0  0  0  0  0  0  0  0  0  0  0  0
   24.6645  -10.3450  -14.3695 C   0  0  0  0  0  0  0  0  0  0  0  0
   23.4622  -10.0072  -15.2531 C   0  0  2  0  0  0  0  0  0  0  0  0
   23.4193  -10.9714  -16.3474 N   0  0  0  0  0  0  0  0  0  0  0  0
   23.5994   -8.6469  -15.7988 C   0  0  0  0  0  0  0  0  0  0  0  0
   24.3928   -8.4172  -16.7412 O   0  0  0  0  0  0  0  0  0  0  0  0
   26.1039  -12.1074  -15.4276 C   0  0  0  0  0  0  0  0  0  0  0  0
   27.1554  -12.4596  -16.2335 C   0  0  0  0  0  0  0  0  0  0  0  0
   21.9677   -6.9098  -18.0687 C   0  0  0  0  0  0  0  0  0  0  0  0
   21.8222   -6.0221  -16.8828 C   0  0  1  0  0  0  0  0  0  0  0  0
   20.5765   -6.1677  -16.3158 O   0  0  0  0  0  0  0  0  0  0  0  0
   22.8782   -6.2453  -15.8232 C   0  0  2  0  0  0  0  0  0  0  0  0
   22.8410   -7.5714  -15.2733 N   0  0  0  0  0  0  0  0  0  0  0  0
   22.8372   -5.1964  -14.7707 C   0  0  0  0  0  0  0  0  0  0  0  0
   22.5550   -5.4623  -13.5740 O   0  0  0  0  0  0  0  0  0  0  0  0
   23.1104   -3.8683  -15.0635 O   0  0  0  0  0  0  0  0  0  0  0  0
  2  4  1  0
  2  1  1  6
  3  2  1  0
  4  6  1  0
  4  5  1  1
  6  7  2  0
  9 10  2  0
  9  8  1  0
 11 10  1  0
 12 11  2  0
 14 13  1  1
 13 12  1  0
 15 14  1  0
 15  6  1  0
 16 14  1  0
 16 17  2  0
 18 12  1  0
 18 19  2  0
 19  9  1  0
 21 20  1  6
 21 23  1  0
 22 21  1  0
 23 24  1  1
 23 25  1  0
 24 16  1  0
 25 26  2  0
 25 27  1  0
M  END
$$$$
