VYT.pdb
     RDKit          3D

 27 27  0  0  1  0  0  0  0  0999 V2000
   25.8406  -20.3128  -17.7853 C   0  0  0  0  0  0  0  0  0  0  0  0
   26.0548  -21.7691  -18.1299 C   0  0  1  0  0  0  0  0  0  0  0  0
   26.8151  -21.7997  -19.4587 C   0  0  0  0  0  0  0  0  0  0  0  0
   26.9227  -22.3713  -17.0434 C   0  0  2  0  0  0  0  0  0  0  0  0
   27.2032  -23.7569  -17.3886 N   0  0  0  0  0  0  0  0  0  0  0  0
   26.2164  -22.3466  -15.7390 C   0  0  0  0  0  0  0  0  0  0  0  0
   25.2179  -23.0574  -15.4892 O   0  0  0  0  0  0  0  0  0  0  0  0
   24.5007  -20.5413   -7.3211 O   0  0  0  0  0  0  0  0  0  0  0  0
   25.0986  -20.6077   -8.5756 C   0  0  0  0  0  0  0  0  0  0  0  0
   25.1962  -21.7987   -9.2646 C   0  0  0  0  0  0  0  0  0  0  0  0
   25.7993  -21.8126  -10.5085 C   0  0  0  0  0  0  0  0  0  0  0  0
   26.3095  -20.6696  -11.0869 C   0  0  0  0  0  0  0  0  0  0  0  0
   26.9560  -20.7017  -12.4272 C   0  0  0  0  0  0  0  0  0  0  0  0
   26.0147  -21.3950  -13.4139 C   0  0  2  0  0  0  0  0  0  0  0  0
   26.6889  -21.4715  -14.7057 N   0  0  0  0  0  0  0  0  0  0  0  0
   24.7678  -20.6249  -13.5527 C   0  0  0  0  0  0  0  0  0  0  0  0
   24.7765  -19.4928  -14.0901 O   0  0  0  0  0  0  0  0  0  0  0  0
   26.2017  -19.4716  -10.3741 C   0  0  0  0  0  0  0  0  0  0  0  0
   25.6019  -19.4685   -9.1415 C   0  0  0  0  0  0  0  0  0  0  0  0
   22.9799  -19.3791  -15.3745 C   0  0  0  0  0  0  0  0  0  0  0  0
   21.9263  -20.1266  -14.6350 C   0  0  1  0  0  0  0  0  0  0  0  0
   21.6172  -21.3010  -15.2828 O   0  0  0  0  0  0  0  0  0  0  0  0
   22.2925  -20.4335  -13.1999 C   0  0  2  0  0  0  0  0  0  0  0  0
   23.5353  -21.1437  -13.0841 N   0  0  0  0  0  0  0  0  0  0  0  0
   21.1846  -21.1132  -12.4788 C   0  0  0  0  0  0  0  0  0  0  0  0
   21.3262  -22.2481  -11.9550 O   0  0  0  0  0  0  0  0  0  0  0  0
   19.9363  -20.5220  -12.3505 O   0  0  0  0  0  0  0  0  0  0  0  0
  2  4  1  0
  2  1  1  1
  3  2  1  0
  4  6  1  0
  4  5  1  6
  6  7  2  0
  9 10  2  0
  9  8  1  0
 11 10  1  0
 12 11  2  0
 14 13  1  1
 13 12  1  0
 15 14  1  0
 15  6  1  0
 16 14  1  0
 16 17  2  0
 18 12  1  0
 18 19  2  0
 19  9  1  0
 21 20  1  6
 21 23  1  0
 22 21  1  0
 23 24  1  6
 23 25  1  0
 24 16  1  0
 25 26  2  0
 25 27  1  0
M  END
$$$$
