VHP.pdb
     RDKit          3D

 25 26  0  0  1  0  0  0  0  0999 V2000
    8.5964  -13.4446   18.2167 C   0  0  0  0  0  0  0  0  0  0  0  0
    7.6532  -13.6998   19.3981 C   0  0  2  0  0  0  0  0  0  0  0  0
    7.7930  -12.5138   20.3070 C   0  0  0  0  0  0  0  0  0  0  0  0
    8.1074  -14.9991   20.0119 C   0  0  2  0  0  0  0  0  0  0  0  0
    7.7191  -16.0396   19.0423 N   0  0  0  0  0  0  0  0  0  0  0  0
    7.4329  -15.3180   21.2924 C   0  0  0  0  0  0  0  0  0  0  0  0
    6.3779  -16.0422   21.3253 O   0  0  0  0  0  0  0  0  0  0  0  0
    7.8895  -14.8601   22.5441 N   0  0  0  0  0  0  0  0  0  0  0  0
    7.2242  -15.3104   23.8322 C   0  0  1  0  0  0  0  0  0  0  0  0
    7.6615  -16.7537   23.8593 C   0  0  0  0  0  0  0  0  0  0  0  0
    7.3946  -17.5536   25.0329 C   0  0  0  0  0  0  0  0  0  0  0  0
    6.7199  -17.4057   26.2058 C   0  0  0  0  0  0  0  0  0  0  0  0
    6.7386  -18.5277   26.9388 N   0  0  0  0  0  0  0  0  0  0  0  0
    7.4392  -19.4085   26.2153 C   0  0  0  0  0  0  0  0  0  0  0  0
    7.8376  -18.8649   25.0897 N   0  0  0  0  0  0  0  0  0  0  0  0
    8.0255  -14.5615   24.8636 C   0  0  0  0  0  0  0  0  0  0  0  0
    9.3020  -14.5735   24.6688 O   0  0  0  0  0  0  0  0  0  0  0  0
    7.5832  -13.8656   25.9747 N   0  0  0  0  0  0  0  0  0  0  0  0
    6.2806  -13.6875   26.5968 C   0  0  0  0  0  0  0  0  0  0  0  0
    6.3256  -12.1906   26.9123 C   0  0  0  0  0  0  0  0  0  0  0  0
    7.6826  -12.0843   27.5480 C   0  0  0  0  0  0  0  0  0  0  0  0
    8.5131  -13.0867   26.8251 C   0  0  1  0  0  0  0  0  0  0  0  0
    9.2030  -13.9832   27.7708 C   0  0  0  0  0  0  0  0  0  0  0  0
   10.1130  -13.5635   28.5138 O   0  0  0  0  0  0  0  0  0  0  0  0
    8.8283  -15.3089   27.8279 O   0  0  0  0  0  0  0  0  0  0  0  0
  2  3  1  1
  2  1  1  0
  4  2  1  0
  4  5  1  6
  6  7  2  0
  6  4  1  0
  8  6  1  0
  9 10  1  1
  9  8  1  0
 11 10  1  0
 11 15  1  0
 12 11  2  0
 13 12  1  0
 13 14  1  0
 14 15  2  0
 16  9  1  0
 17 16  2  0
 18 19  1  0
 18 16  1  0
 20 19  1  0
 21 22  1  0
 21 20  1  0
 22 18  1  0
 23 25  1  0
 22 23  1  1
 24 23  2  0
M  END
$$$$
