VHP.pdb
     RDKit          3D

 25 26  0  0  1  0  0  0  0  0999 V2000
    8.9903  -12.8649   20.3533 C   0  0  0  0  0  0  0  0  0  0  0  0
    8.2718  -13.8126   19.3858 C   0  0  2  0  0  0  0  0  0  0  0  0
    6.8716  -13.2893   19.2522 C   0  0  0  0  0  0  0  0  0  0  0  0
    8.3575  -15.1804   20.0126 C   0  0  2  0  0  0  0  0  0  0  0  0
    7.7615  -16.0959   19.0224 N   0  0  0  0  0  0  0  0  0  0  0  0
    7.5705  -15.3110   21.2615 C   0  0  0  0  0  0  0  0  0  0  0  0
    6.3823  -15.7871   21.2513 O   0  0  0  0  0  0  0  0  0  0  0  0
    8.0572  -14.9308   22.5278 N   0  0  0  0  0  0  0  0  0  0  0  0
    7.3459  -15.3568   23.7995 C   0  0  1  0  0  0  0  0  0  0  0  0
    7.7863  -16.7976   23.8729 C   0  0  0  0  0  0  0  0  0  0  0  0
    7.4483  -17.5839   25.0372 C   0  0  0  0  0  0  0  0  0  0  0  0
    7.2335  -17.3586   26.3622 C   0  0  0  0  0  0  0  0  0  0  0  0
    6.8725  -18.4764   27.0080 N   0  0  0  0  0  0  0  0  0  0  0  0
    6.8560  -19.4328   26.0725 C   0  0  0  0  0  0  0  0  0  0  0  0
    7.1898  -18.9384   24.9040 N   0  0  0  0  0  0  0  0  0  0  0  0
    8.1063  -14.5837   24.8440 C   0  0  0  0  0  0  0  0  0  0  0  0
    9.3914  -14.6479   24.7343 O   0  0  0  0  0  0  0  0  0  0  0  0
    7.6194  -13.8180   25.8886 N   0  0  0  0  0  0  0  0  0  0  0  0
    6.2820  -13.4771   26.3472 C   0  0  0  0  0  0  0  0  0  0  0  0
    6.4646  -11.9893   26.6556 C   0  0  0  0  0  0  0  0  0  0  0  0
    7.7391  -12.0278   27.4502 C   0  0  0  0  0  0  0  0  0  0  0  0
    8.5262  -13.1346   26.8400 C   0  0  1  0  0  0  0  0  0  0  0  0
    8.9879  -14.0850   27.8684 C   0  0  0  0  0  0  0  0  0  0  0  0
    8.4982  -15.2288   27.9591 O   0  0  0  0  0  0  0  0  0  0  0  0
    9.9802  -13.6932   28.7418 O   0  0  0  0  0  0  0  0  0  0  0  0
  2  3  1  1
  2  1  1  0
  4  2  1  0
  4  5  1  6
  6  7  2  0
  6  4  1  0
  8  6  1  0
  9 10  1  1
  9  8  1  0
 11 10  1  0
 11 15  1  0
 12 11  2  0
 13 12  1  0
 13 14  1  0
 14 15  2  0
 16  9  1  0
 17 16  2  0
 18 19  1  0
 18 16  1  0
 20 19  1  0
 21 22  1  0
 21 20  1  0
 22 18  1  0
 23 25  1  0
 22 23  1  1
 24 23  2  0
M  END
$$$$
