VHP.pdb
     RDKit          3D

 25 26  0  0  1  0  0  0  0  0999 V2000
    7.1052  -13.0641   19.7799 C   0  0  0  0  0  0  0  0  0  0  0  0
    8.5936  -13.4317   19.7725 C   0  0  2  0  0  0  0  0  0  0  0  0
    9.1208  -13.0093   18.4325 C   0  0  0  0  0  0  0  0  0  0  0  0
    8.6496  -14.9186   20.0120 C   0  0  2  0  0  0  0  0  0  0  0  0
    7.9370  -15.5199   18.8700 N   0  0  0  0  0  0  0  0  0  0  0  0
    7.9466  -15.3480   21.2440 C   0  0  0  0  0  0  0  0  0  0  0  0
    6.9163  -16.1057   21.1913 O   0  0  0  0  0  0  0  0  0  0  0  0
    8.3481  -14.9650   22.5391 N   0  0  0  0  0  0  0  0  0  0  0  0
    7.5955  -15.4471   23.7661 C   0  0  1  0  0  0  0  0  0  0  0  0
    8.0229  -16.8935   23.7810 C   0  0  0  0  0  0  0  0  0  0  0  0
    7.7661  -17.6968   24.9545 C   0  0  0  0  0  0  0  0  0  0  0  0
    8.5013  -18.2963   25.9306 C   0  0  0  0  0  0  0  0  0  0  0  0
    7.7253  -18.8855   26.8511 N   0  0  0  0  0  0  0  0  0  0  0  0
    6.4694  -18.6541   26.4522 C   0  0  0  0  0  0  0  0  0  0  0  0
    6.4614  -17.9574   25.3405 N   0  0  0  0  0  0  0  0  0  0  0  0
    8.3293  -14.7333   24.8701 C   0  0  0  0  0  0  0  0  0  0  0  0
    9.6158  -14.8292   24.8133 O   0  0  0  0  0  0  0  0  0  0  0  0
    7.8173  -13.9922   25.9204 N   0  0  0  0  0  0  0  0  0  0  0  0
    6.4720  -13.6100   26.3196 C   0  0  0  0  0  0  0  0  0  0  0  0
    6.7017  -12.1471   26.7060 C   0  0  0  0  0  0  0  0  0  0  0  0
    7.9255  -12.2793   27.5673 C   0  0  0  0  0  0  0  0  0  0  0  0
    8.6971  -13.3936   26.9511 C   0  0  1  0  0  0  0  0  0  0  0  0
    9.0570  -14.4085   27.9584 C   0  0  0  0  0  0  0  0  0  0  0  0
    8.4938  -15.5212   27.9859 O   0  0  0  0  0  0  0  0  0  0  0  0
   10.0359  -14.1128   28.8833 O   0  0  0  0  0  0  0  0  0  0  0  0
  2  3  1  6
  2  1  1  0
  4  2  1  0
  4  5  1  6
  6  7  2  0
  6  4  1  0
  8  6  1  0
  9 10  1  1
  9  8  1  0
 11 10  1  0
 11 15  1  0
 12 11  2  0
 13 12  1  0
 13 14  1  0
 14 15  2  0
 16  9  1  0
 17 16  2  0
 18 19  1  0
 18 16  1  0
 20 19  1  0
 21 22  1  0
 21 20  1  0
 22 18  1  0
 23 25  1  0
 22 23  1  1
 24 23  2  0
M  END
$$$$
