VHP.pdb
     RDKit          3D

 25 26  0  0  1  0  0  0  0  0999 V2000
   10.6363  -21.1419   18.4575 C   0  0  0  0  0  0  0  0  0  0  0  0
    9.1229  -20.9381   18.5932 C   0  0  2  0  0  0  0  0  0  0  0  0
    8.4819  -21.9914   17.7376 C   0  0  0  0  0  0  0  0  0  0  0  0
    8.8562  -19.5283   18.1320 C   0  0  2  0  0  0  0  0  0  0  0  0
    9.4429  -19.4473   16.7819 N   0  0  0  0  0  0  0  0  0  0  0  0
    9.5212  -18.4967   18.9627 C   0  0  0  0  0  0  0  0  0  0  0  0
   10.6815  -18.0477   18.6617 O   0  0  0  0  0  0  0  0  0  0  0  0
    8.9417  -17.9424   20.1211 N   0  0  0  0  0  0  0  0  0  0  0  0
    9.6385  -16.8354   20.8915 C   0  0  1  0  0  0  0  0  0  0  0  0
    8.4762  -15.8988   21.1083 C   0  0  0  0  0  0  0  0  0  0  0  0
    8.2063  -14.8662   20.1341 C   0  0  0  0  0  0  0  0  0  0  0  0
    8.7232  -14.4641   18.9408 C   0  0  0  0  0  0  0  0  0  0  0  0
    8.0251  -13.4509   18.4090 N   0  0  0  0  0  0  0  0  0  0  0  0
    7.0422  -13.2047   19.2826 C   0  0  0  0  0  0  0  0  0  0  0  0
    7.1225  -14.0209   20.3066 N   0  0  0  0  0  0  0  0  0  0  0  0
    9.9360  -17.5190   22.1995 C   0  0  0  0  0  0  0  0  0  0  0  0
    9.2586  -18.5978   22.4112 O   0  0  0  0  0  0  0  0  0  0  0  0
   10.8311  -17.1549   23.1899 N   0  0  0  0  0  0  0  0  0  0  0  0
   11.7097  -16.0116   23.3803 C   0  0  0  0  0  0  0  0  0  0  0  0
   12.9742  -16.7132   23.8812 C   0  0  0  0  0  0  0  0  0  0  0  0
   12.3893  -17.6213   24.9255 C   0  0  0  0  0  0  0  0  0  0  0  0
   11.0552  -18.0015   24.3846 C   0  0  1  0  0  0  0  0  0  0  0  0
    9.9933  -17.7621   25.3792 C   0  0  0  0  0  0  0  0  0  0  0  0
    9.1544  -16.8519   25.2239 O   0  0  0  0  0  0  0  0  0  0  0  0
    9.9344  -18.5646   26.4988 O   0  0  0  0  0  0  0  0  0  0  0  0
  2  3  1  6
  2  1  1  0
  4  2  1  0
  4  5  1  6
  6  7  2  0
  6  4  1  0
  8  6  1  0
  9 10  1  1
  9  8  1  0
 11 10  1  0
 11 15  1  0
 12 11  2  0
 13 12  1  0
 13 14  1  0
 14 15  2  0
 16  9  1  0
 17 16  2  0
 18 19  1  0
 18 16  1  0
 20 19  1  0
 21 22  1  0
 21 20  1  0
 22 18  1  0
 23 25  1  0
 22 23  1  1
 24 23  2  0
M  END
$$$$
