VHP.pdb
     RDKit          3D

 25 26  0  0  1  0  0  0  0  0999 V2000
    8.9637  -13.4393   18.4895 C   0  0  0  0  0  0  0  0  0  0  0  0
    7.9654  -13.7381   19.6141 C   0  0  2  0  0  0  0  0  0  0  0  0
    8.0175  -12.5597   20.5420 C   0  0  0  0  0  0  0  0  0  0  0  0
    8.4260  -15.0303   20.2382 C   0  0  2  0  0  0  0  0  0  0  0  0
    8.0935  -16.0745   19.2520 N   0  0  0  0  0  0  0  0  0  0  0  0
    7.7150  -15.3691   21.4936 C   0  0  0  0  0  0  0  0  0  0  0  0
    6.6535  -16.0845   21.4837 O   0  0  0  0  0  0  0  0  0  0  0  0
    8.1419  -14.9409   22.7662 N   0  0  0  0  0  0  0  0  0  0  0  0
    7.4116  -15.3760   24.0238 C   0  0  1  0  0  0  0  0  0  0  0  0
    7.8517  -16.8170   24.0940 C   0  0  0  0  0  0  0  0  0  0  0  0
    6.9306  -17.8596   23.7029 C   0  0  0  0  0  0  0  0  0  0  0  0
    5.6869  -17.9348   23.1551 C   0  0  0  0  0  0  0  0  0  0  0  0
    5.3132  -19.2030   22.9342 N   0  0  0  0  0  0  0  0  0  0  0  0
    6.3426  -19.9501   23.3492 C   0  0  0  0  0  0  0  0  0  0  0  0
    7.3083  -19.1885   23.8059 N   0  0  0  0  0  0  0  0  0  0  0  0
    8.1554  -14.6098   25.0852 C   0  0  0  0  0  0  0  0  0  0  0  0
    9.4418  -14.6544   24.9819 O   0  0  0  0  0  0  0  0  0  0  0  0
    7.6521  -13.8681   26.1393 N   0  0  0  0  0  0  0  0  0  0  0  0
    6.3076  -13.5363   26.5839 C   0  0  0  0  0  0  0  0  0  0  0  0
    6.4865  -12.0564   26.9300 C   0  0  0  0  0  0  0  0  0  0  0  0
    7.7477  -12.1151   27.7442 C   0  0  0  0  0  0  0  0  0  0  0  0
    8.5437  -13.2083   27.1212 C   0  0  1  0  0  0  0  0  0  0  0  0
    8.9877  -14.1831   28.1344 C   0  0  0  0  0  0  0  0  0  0  0  0
    8.5152  -15.3370   28.1731 O   0  0  0  0  0  0  0  0  0  0  0  0
    9.9437  -13.8030   29.0524 O   0  0  0  0  0  0  0  0  0  0  0  0
  2  3  1  1
  2  1  1  0
  4  2  1  0
  4  5  1  6
  6  7  2  0
  6  4  1  0
  8  6  1  0
  9 10  1  1
  9  8  1  0
 11 10  1  0
 11 15  1  0
 12 11  2  0
 13 12  1  0
 13 14  1  0
 14 15  2  0
 16  9  1  0
 17 16  2  0
 18 19  1  0
 18 16  1  0
 20 19  1  0
 21 22  1  0
 21 20  1  0
 22 18  1  0
 23 25  1  0
 22 23  1  1
 24 23  2  0
M  END
$$$$
