VHP.pdb
     RDKit          3D

 25 26  0  0  1  0  0  0  0  0999 V2000
    8.9823  -13.5079   18.3186 C   0  0  0  0  0  0  0  0  0  0  0  0
    7.9557  -13.6977   19.4414 C   0  0  2  0  0  0  0  0  0  0  0  0
    8.0455  -12.4705   20.3005 C   0  0  0  0  0  0  0  0  0  0  0  0
    8.3506  -14.9697   20.1469 C   0  0  2  0  0  0  0  0  0  0  0  0
    8.0088  -16.0532   19.2074 N   0  0  0  0  0  0  0  0  0  0  0  0
    7.5916  -15.2153   21.3959 C   0  0  0  0  0  0  0  0  0  0  0  0
    6.4023  -15.6878   21.3686 O   0  0  0  0  0  0  0  0  0  0  0  0
    8.1079  -14.9546   22.6806 N   0  0  0  0  0  0  0  0  0  0  0  0
    7.3090  -15.2889   23.9274 C   0  0  1  0  0  0  0  0  0  0  0  0
    7.5983  -16.7655   24.0328 C   0  0  0  0  0  0  0  0  0  0  0  0
    6.6631  -17.7132   23.4710 C   0  0  0  0  0  0  0  0  0  0  0  0
    5.5464  -17.6683   22.6941 C   0  0  0  0  0  0  0  0  0  0  0  0
    5.0886  -18.8944   22.4044 N   0  0  0  0  0  0  0  0  0  0  0  0
    5.9337  -19.7370   23.0092 C   0  0  0  0  0  0  0  0  0  0  0  0
    6.8699  -19.0721   23.6437 N   0  0  0  0  0  0  0  0  0  0  0  0
    8.1030  -14.5817   24.9933 C   0  0  0  0  0  0  0  0  0  0  0  0
    9.3844  -14.6769   24.8647 O   0  0  0  0  0  0  0  0  0  0  0  0
    7.6501  -13.8471   26.0749 N   0  0  0  0  0  0  0  0  0  0  0  0
    6.3280  -13.5125   26.5804 C   0  0  0  0  0  0  0  0  0  0  0  0
    6.5299  -12.0367   26.9315 C   0  0  0  0  0  0  0  0  0  0  0  0
    7.8250  -12.1092   27.6896 C   0  0  0  0  0  0  0  0  0  0  0  0
    8.5872  -13.2007   27.0228 C   0  0  1  0  0  0  0  0  0  0  0  0
    9.0695  -14.1870   28.0071 C   0  0  0  0  0  0  0  0  0  0  0  0
    8.5663  -15.3261   28.0818 O   0  0  0  0  0  0  0  0  0  0  0  0
   10.0965  -13.8344   28.8568 O   0  0  0  0  0  0  0  0  0  0  0  0
  2  3  1  1
  2  1  1  0
  4  2  1  0
  4  5  1  6
  6  7  2  0
  6  4  1  0
  8  6  1  0
  9 10  1  1
  9  8  1  0
 11 10  1  0
 11 15  1  0
 12 11  2  0
 13 12  1  0
 13 14  1  0
 14 15  2  0
 16  9  1  0
 17 16  2  0
 18 19  1  0
 18 16  1  0
 20 19  1  0
 21 22  1  0
 21 20  1  0
 22 18  1  0
 23 25  1  0
 22 23  1  1
 24 23  2  0
M  END
$$$$
