VHP.pdb
     RDKit          3D

 25 26  0  0  1  0  0  0  0  0999 V2000
   12.7975  -15.2947   19.7126 C   0  0  0  0  0  0  0  0  0  0  0  0
   11.7376  -15.0341   20.7892 C   0  0  2  0  0  0  0  0  0  0  0  0
   12.4900  -14.6715   22.0360 C   0  0  0  0  0  0  0  0  0  0  0  0
   10.9449  -16.3110   20.9015 C   0  0  2  0  0  0  0  0  0  0  0  0
   10.2947  -16.4774   19.5888 N   0  0  0  0  0  0  0  0  0  0  0  0
    9.8701  -16.2543   21.9203 C   0  0  0  0  0  0  0  0  0  0  0  0
    8.7477  -15.6914   21.6714 O   0  0  0  0  0  0  0  0  0  0  0  0
    9.9965  -16.8030   23.2117 N   0  0  0  0  0  0  0  0  0  0  0  0
    8.8655  -16.7011   24.2192 C   0  0  1  0  0  0  0  0  0  0  0  0
    8.8230  -18.1279   24.7068 C   0  0  0  0  0  0  0  0  0  0  0  0
    8.0904  -18.4440   25.9116 C   0  0  0  0  0  0  0  0  0  0  0  0
    6.7855  -18.5320   26.2888 C   0  0  0  0  0  0  0  0  0  0  0  0
    6.6581  -18.9425   27.5584 N   0  0  0  0  0  0  0  0  0  0  0  0
    7.9094  -19.1209   27.9973 C   0  0  0  0  0  0  0  0  0  0  0  0
    8.7730  -18.8362   27.0515 N   0  0  0  0  0  0  0  0  0  0  0  0
    9.4959  -15.8594   25.2966 C   0  0  0  0  0  0  0  0  0  0  0  0
   10.7720  -16.0111   25.4230 O   0  0  0  0  0  0  0  0  0  0  0  0
    8.9002  -14.9517   26.1544 N   0  0  0  0  0  0  0  0  0  0  0  0
    7.5411  -14.4579   26.3101 C   0  0  0  0  0  0  0  0  0  0  0  0
    7.8094  -12.9656   26.5172 C   0  0  0  0  0  0  0  0  0  0  0  0
    8.9021  -13.0231   27.5467 C   0  0  0  0  0  0  0  0  0  0  0  0
    9.6759  -14.2475   27.2018 C   0  0  1  0  0  0  0  0  0  0  0  0
    9.8400  -15.1190   28.3798 C   0  0  0  0  0  0  0  0  0  0  0  0
   10.5141  -14.7557   29.3647 O   0  0  0  0  0  0  0  0  0  0  0  0
    9.2333  -16.3571   28.3837 O   0  0  0  0  0  0  0  0  0  0  0  0
  2  3  1  1
  2  1  1  0
  4  2  1  0
  4  5  1  6
  6  7  2  0
  6  4  1  0
  8  6  1  0
  9 10  1  1
  9  8  1  0
 11 10  1  0
 11 15  1  0
 12 11  2  0
 13 12  1  0
 13 14  1  0
 14 15  2  0
 16  9  1  0
 17 16  2  0
 18 19  1  0
 18 16  1  0
 20 19  1  0
 21 22  1  0
 21 20  1  0
 22 18  1  0
 23 25  1  0
 22 23  1  1
 24 23  2  0
M  END
$$$$
