VHP.pdb
     RDKit          3D

 25 26  0  0  1  0  0  0  0  0999 V2000
    7.1903  -13.0976   19.9225 C   0  0  0  0  0  0  0  0  0  0  0  0
    8.6276  -13.6127   20.0617 C   0  0  2  0  0  0  0  0  0  0  0  0
    9.2715  -13.4201   18.7199 C   0  0  0  0  0  0  0  0  0  0  0  0
    8.5072  -15.0550   20.4822 C   0  0  2  0  0  0  0  0  0  0  0  0
    7.7777  -15.7164   19.3849 N   0  0  0  0  0  0  0  0  0  0  0  0
    7.7120  -15.2482   21.7178 C   0  0  0  0  0  0  0  0  0  0  0  0
    6.4328  -15.2065   21.6980 O   0  0  0  0  0  0  0  0  0  0  0  0
    8.2882  -15.4878   22.9809 N   0  0  0  0  0  0  0  0  0  0  0  0
    7.4254  -15.6098   24.2240 C   0  0  1  0  0  0  0  0  0  0  0  0
    7.6568  -17.0622   24.5588 C   0  0  0  0  0  0  0  0  0  0  0  0
    6.8334  -18.0734   23.9359 C   0  0  0  0  0  0  0  0  0  0  0  0
    5.8506  -18.1160   22.9953 C   0  0  0  0  0  0  0  0  0  0  0  0
    5.4603  -19.3718   22.7357 N   0  0  0  0  0  0  0  0  0  0  0  0
    6.2127  -20.1443   23.5277 C   0  0  0  0  0  0  0  0  0  0  0  0
    7.0296  -19.4096   24.2446 N   0  0  0  0  0  0  0  0  0  0  0  0
    8.1982  -14.7756   25.2108 C   0  0  0  0  0  0  0  0  0  0  0  0
    9.4820  -14.8666   25.1061 O   0  0  0  0  0  0  0  0  0  0  0  0
    7.7236  -13.9304   26.1981 N   0  0  0  0  0  0  0  0  0  0  0  0
    6.3930  -13.5083   26.6065 C   0  0  0  0  0  0  0  0  0  0  0  0
    6.6324  -12.0137   26.8319 C   0  0  0  0  0  0  0  0  0  0  0  0
    7.8882  -12.0576   27.6554 C   0  0  0  0  0  0  0  0  0  0  0  0
    8.6396  -13.2298   27.1280 C   0  0  1  0  0  0  0  0  0  0  0  0
    9.0405  -14.1361   28.2199 C   0  0  0  0  0  0  0  0  0  0  0  0
    8.4789  -15.2377   28.3856 O   0  0  0  0  0  0  0  0  0  0  0  0
   10.0562  -13.7502   29.0686 O   0  0  0  0  0  0  0  0  0  0  0  0
  2  3  1  6
  2  1  1  0
  4  2  1  0
  4  5  1  6
  6  7  2  0
  6  4  1  0
  8  6  1  0
  9 10  1  1
  9  8  1  0
 11 10  1  0
 11 15  1  0
 12 11  2  0
 13 12  1  0
 13 14  1  0
 14 15  2  0
 16  9  1  0
 17 16  2  0
 18 19  1  0
 18 16  1  0
 20 19  1  0
 21 22  1  0
 21 20  1  0
 22 18  1  0
 23 25  1  0
 22 23  1  1
 24 23  2  0
M  END
$$$$
