VHP.pdb
     RDKit          3D

 25 26  0  0  1  0  0  0  0  0999 V2000
    8.6157  -13.4694   18.2572 C   0  0  0  0  0  0  0  0  0  0  0  0
    7.7184  -13.7196   19.4750 C   0  0  2  0  0  0  0  0  0  0  0  0
    7.9395  -12.5596   20.4012 C   0  0  0  0  0  0  0  0  0  0  0  0
    8.1552  -15.0467   20.0401 C   0  0  2  0  0  0  0  0  0  0  0  0
    7.7177  -16.0491   19.0514 N   0  0  0  0  0  0  0  0  0  0  0  0
    7.5044  -15.3863   21.3275 C   0  0  0  0  0  0  0  0  0  0  0  0
    6.3836  -16.0036   21.3631 O   0  0  0  0  0  0  0  0  0  0  0  0
    8.0557  -15.0640   22.5834 N   0  0  0  0  0  0  0  0  0  0  0  0
    7.3365  -15.4275   23.8700 C   0  0  1  0  0  0  0  0  0  0  0  0
    7.6954  -16.8896   23.9637 C   0  0  0  0  0  0  0  0  0  0  0  0
    7.2910  -17.6459   25.1267 C   0  0  0  0  0  0  0  0  0  0  0  0
    6.5383  -17.4324   26.2405 C   0  0  0  0  0  0  0  0  0  0  0  0
    6.4326  -18.5369   26.9925 N   0  0  0  0  0  0  0  0  0  0  0  0
    7.1323  -19.4734   26.3417 C   0  0  0  0  0  0  0  0  0  0  0  0
    7.6483  -18.9795   25.2412 N   0  0  0  0  0  0  0  0  0  0  0  0
    8.1518  -14.6815   24.8926 C   0  0  0  0  0  0  0  0  0  0  0  0
    9.4302  -14.7726   24.7349 O   0  0  0  0  0  0  0  0  0  0  0  0
    7.7207  -13.9158   25.9614 N   0  0  0  0  0  0  0  0  0  0  0  0
    6.4166  -13.6547   26.5502 C   0  0  0  0  0  0  0  0  0  0  0  0
    6.5191  -12.1477   26.7958 C   0  0  0  0  0  0  0  0  0  0  0  0
    7.8687  -12.0672   27.4509 C   0  0  0  0  0  0  0  0  0  0  0  0
    8.6682  -13.1361   26.7913 C   0  0  1  0  0  0  0  0  0  0  0  0
    9.3042  -14.0141   27.7908 C   0  0  0  0  0  0  0  0  0  0  0  0
    8.9124  -15.1856   27.9657 O   0  0  0  0  0  0  0  0  0  0  0  0
   10.3509  -13.5223   28.5414 O   0  0  0  0  0  0  0  0  0  0  0  0
  2  3  1  1
  2  1  1  0
  4  2  1  0
  4  5  1  6
  6  7  2  0
  6  4  1  0
  8  6  1  0
  9 10  1  1
  9  8  1  0
 11 10  1  0
 11 15  1  0
 12 11  2  0
 13 12  1  0
 13 14  1  0
 14 15  2  0
 16  9  1  0
 17 16  2  0
 18 19  1  0
 18 16  1  0
 20 19  1  0
 21 22  1  0
 21 20  1  0
 22 18  1  0
 23 25  1  0
 22 23  1  1
 24 23  2  0
M  END
$$$$
