VHP.pdb
     RDKit          3D

 25 26  0  0  1  0  0  0  0  0999 V2000
   12.3353  -18.1965   26.8366 C   0  0  0  0  0  0  0  0  0  0  0  0
   11.1957  -19.0622   26.2868 C   0  0  2  0  0  0  0  0  0  0  0  0
   11.5532  -20.4817   26.6178 C   0  0  0  0  0  0  0  0  0  0  0  0
   11.1382  -18.7736   24.8087 C   0  0  2  0  0  0  0  0  0  0  0  0
   12.5045  -19.0233   24.3141 N   0  0  0  0  0  0  0  0  0  0  0  0
   10.8068  -17.3643   24.4919 C   0  0  0  0  0  0  0  0  0  0  0  0
   11.6672  -16.4289   24.6450 O   0  0  0  0  0  0  0  0  0  0  0  0
    9.5488  -16.9536   24.0085 N   0  0  0  0  0  0  0  0  0  0  0  0
    9.2838  -15.5022   23.6512 C   0  0  1  0  0  0  0  0  0  0  0  0
    8.6022  -15.6835   22.3179 C   0  0  0  0  0  0  0  0  0  0  0  0
    8.0145  -14.5386   21.6605 C   0  0  0  0  0  0  0  0  0  0  0  0
    6.7685  -14.0154   21.4977 C   0  0  0  0  0  0  0  0  0  0  0  0
    6.7964  -12.8558   20.8259 N   0  0  0  0  0  0  0  0  0  0  0  0
    8.0886  -12.6364   20.5573 C   0  0  0  0  0  0  0  0  0  0  0  0
    8.8288  -13.6083   21.0356 N   0  0  0  0  0  0  0  0  0  0  0  0
    8.2340  -15.1289   24.6639 C   0  0  0  0  0  0  0  0  0  0  0  0
    7.6347  -16.1313   25.2149 O   0  0  0  0  0  0  0  0  0  0  0  0
    7.8347  -13.8722   25.0831 N   0  0  0  0  0  0  0  0  0  0  0  0
    8.1041  -12.5226   24.6126 C   0  0  0  0  0  0  0  0  0  0  0  0
    8.3287  -11.8034   25.9447 C   0  0  0  0  0  0  0  0  0  0  0  0
    7.1448  -12.2972   26.7267 C   0  0  0  0  0  0  0  0  0  0  0  0
    6.9336  -13.6901   26.2447 C   0  0  1  0  0  0  0  0  0  0  0  0
    5.5331  -13.9016   25.8350 C   0  0  0  0  0  0  0  0  0  0  0  0
    5.2251  -14.0492   24.6351 O   0  0  0  0  0  0  0  0  0  0  0  0
    4.5523  -13.9354   26.8035 O   0  0  0  0  0  0  0  0  0  0  0  0
  2  3  1  6
  2  1  1  0
  4  2  1  0
  4  5  1  1
  6  7  2  0
  6  4  1  0
  8  6  1  0
  9 10  1  6
  9  8  1  0
 11 10  1  0
 11 15  1  0
 12 11  2  0
 13 12  1  0
 13 14  1  0
 14 15  2  0
 16  9  1  0
 17 16  2  0
 18 19  1  0
 18 16  1  0
 20 19  1  0
 21 22  1  0
 21 20  1  0
 22 18  1  0
 23 25  1  0
 22 23  1  6
 24 23  2  0
M  END
$$$$
