VHP.pdb
     RDKit          3D

 25 26  0  0  1  0  0  0  0  0999 V2000
    6.8907  -13.1744   19.7410 C   0  0  0  0  0  0  0  0  0  0  0  0
    8.3522  -13.6374   19.7321 C   0  0  2  0  0  0  0  0  0  0  0  0
    8.8709  -13.3543   18.3526 C   0  0  0  0  0  0  0  0  0  0  0  0
    8.3203  -15.1020   20.0861 C   0  0  2  0  0  0  0  0  0  0  0  0
    7.5643  -15.7453   18.9960 N   0  0  0  0  0  0  0  0  0  0  0  0
    7.6017  -15.3914   21.3495 C   0  0  0  0  0  0  0  0  0  0  0  0
    6.5206  -16.0767   21.3570 O   0  0  0  0  0  0  0  0  0  0  0  0
    8.0422  -14.9458   22.6114 N   0  0  0  0  0  0  0  0  0  0  0  0
    7.3692  -15.4194   23.8870 C   0  0  1  0  0  0  0  0  0  0  0  0
    7.7897  -16.8680   23.8798 C   0  0  0  0  0  0  0  0  0  0  0  0
    7.6568  -17.6510   25.0871 C   0  0  0  0  0  0  0  0  0  0  0  0
    8.4778  -18.3616   25.9078 C   0  0  0  0  0  0  0  0  0  0  0  0
    7.8207  -18.8582   26.9653 N   0  0  0  0  0  0  0  0  0  0  0  0
    6.5546  -18.4529   26.8142 C   0  0  0  0  0  0  0  0  0  0  0  0
    6.4276  -17.7410   25.7195 N   0  0  0  0  0  0  0  0  0  0  0  0
    8.1772  -14.7053   24.9377 C   0  0  0  0  0  0  0  0  0  0  0  0
    9.4530  -14.7172   24.7384 O   0  0  0  0  0  0  0  0  0  0  0  0
    7.7416  -14.0406   26.0704 N   0  0  0  0  0  0  0  0  0  0  0  0
    6.4307  -13.7951   26.6505 C   0  0  0  0  0  0  0  0  0  0  0  0
    6.5770  -12.3270   27.0570 C   0  0  0  0  0  0  0  0  0  0  0  0
    7.9091  -12.3653   27.7507 C   0  0  0  0  0  0  0  0  0  0  0  0
    8.6907  -13.3878   27.0019 C   0  0  1  0  0  0  0  0  0  0  0  0
    9.2673  -14.3887   27.9183 C   0  0  0  0  0  0  0  0  0  0  0  0
    8.8223  -15.5531   27.9678 O   0  0  0  0  0  0  0  0  0  0  0  0
   10.3180  -14.0213   28.7321 O   0  0  0  0  0  0  0  0  0  0  0  0
  2  3  1  6
  2  1  1  0
  4  2  1  0
  4  5  1  6
  6  7  2  0
  6  4  1  0
  8  6  1  0
  9 10  1  1
  9  8  1  0
 11 10  1  0
 11 15  1  0
 12 11  2  0
 13 12  1  0
 13 14  1  0
 14 15  2  0
 16  9  1  0
 17 16  2  0
 18 19  1  0
 18 16  1  0
 20 19  1  0
 21 22  1  0
 21 20  1  0
 22 18  1  0
 23 25  1  0
 22 23  1  1
 24 23  2  0
M  END
$$$$
