CNV.pdb
     RDKit          3D

 22 21  0  0  1  0  0  0  0  0999 V2000
    7.3360  -15.1222   18.3539 N   0  0  0  0  0  0  0  0  0  0  0  0
    8.0250  -14.4247   19.3951 C   0  0  1  0  0  0  0  0  0  0  0  0
    7.6517  -12.9716   19.4543 C   0  0  0  0  0  0  0  0  0  0  0  0
    8.5615  -12.1183   20.7716 S   0  0  0  0  0  0  0  0  0  0  0  0
    7.8027  -15.0173   20.7384 C   0  0  0  0  0  0  0  0  0  0  0  0
    6.6038  -15.3013   21.0330 O   0  0  0  0  0  0  0  0  0  0  0  0
   10.2920  -18.3909   21.1719 N   0  0  0  0  0  0  0  0  0  0  0  0
    9.2121  -18.1621   22.0683 C   0  0  0  0  0  0  0  0  0  0  0  0
    8.1673  -18.8309   21.8900 O   0  0  0  0  0  0  0  0  0  0  0  0
    9.3989  -17.1673   23.1282 C   0  0  0  0  0  0  0  0  0  0  0  0
    8.5979  -15.9112   22.9374 C   0  0  2  0  0  0  0  0  0  0  0  0
    8.8339  -15.2700   21.6712 N   0  0  0  0  0  0  0  0  0  0  0  0
    8.8361  -14.9297   24.0285 C   0  0  0  0  0  0  0  0  0  0  0  0
    9.9212  -14.2528   24.0587 O   0  0  0  0  0  0  0  0  0  0  0  0
    5.8454  -13.3890   26.8135 C   0  0  0  0  0  0  0  0  0  0  0  0
    7.1564  -12.7848   26.4254 C   0  0  2  0  0  0  0  0  0  0  0  0
    7.0464  -11.8523   25.2468 C   0  0  0  0  0  0  0  0  0  0  0  0
    8.2309  -13.8184   26.1786 C   0  0  2  0  0  0  0  0  0  0  0  0
    7.9257  -14.6793   25.0684 N   0  0  0  0  0  0  0  0  0  0  0  0
    8.5832  -14.5584   27.4024 C   0  0  0  0  0  0  0  0  0  0  0  0
    9.1006  -13.8889   28.4845 O   0  0  0  0  0  0  0  0  0  0  0  0
    8.4115  -15.7896   27.4541 O   0  0  0  0  0  0  0  0  0  0  0  0
  2  1  1  6
  2  5  1  0
  2  3  1  0
  3  4  1  0
  5 12  1  0
  6  5  2  0
  7  8  1  0
  8 10  1  0
  9  8  2  0
 11 10  1  1
 11 13  1  0
 12 11  1  0
 13 14  2  0
 13 19  1  0
 16 15  1  6
 16 17  1  0
 18 16  1  0
 18 20  1  0
 18 19  1  6
 20 21  1  0
 22 20  2  0
M  END
$$$$
