CNV.pdb
     RDKit          3D

 22 21  0  0  1  0  0  0  0  0999 V2000
    7.9120  -15.0732   18.1020 N   0  0  0  0  0  0  0  0  0  0  0  0
    8.3946  -14.3358   19.2284 C   0  0  1  0  0  0  0  0  0  0  0  0
    7.9107  -12.9146   19.2315 C   0  0  0  0  0  0  0  0  0  0  0  0
    8.6011  -11.9942   20.6341 S   0  0  0  0  0  0  0  0  0  0  0  0
    8.0299  -14.9543   20.5282 C   0  0  0  0  0  0  0  0  0  0  0  0
    6.7948  -15.1550   20.7252 O   0  0  0  0  0  0  0  0  0  0  0  0
    9.3588  -17.3449   20.5672 N   0  0  0  0  0  0  0  0  0  0  0  0
    9.5234  -17.9976   21.8197 C   0  0  0  0  0  0  0  0  0  0  0  0
    9.9193  -19.1865   21.7991 O   0  0  0  0  0  0  0  0  0  0  0  0
    9.2198  -17.2370   23.0351 C   0  0  0  0  0  0  0  0  0  0  0  0
    8.5828  -15.9012   22.7788 C   0  0  2  0  0  0  0  0  0  0  0  0
    8.9676  -15.3167   21.5216 N   0  0  0  0  0  0  0  0  0  0  0  0
    8.8667  -14.9321   23.8699 C   0  0  0  0  0  0  0  0  0  0  0  0
    9.9422  -14.2397   23.8510 O   0  0  0  0  0  0  0  0  0  0  0  0
    6.0273  -13.5567   26.8642 C   0  0  0  0  0  0  0  0  0  0  0  0
    7.3155  -12.9068   26.4736 C   0  0  2  0  0  0  0  0  0  0  0  0
    7.1470  -11.8767   25.3868 C   0  0  0  0  0  0  0  0  0  0  0  0
    8.3854  -13.9033   26.0912 C   0  0  2  0  0  0  0  0  0  0  0  0
    8.0113  -14.7103   24.9618 N   0  0  0  0  0  0  0  0  0  0  0  0
    8.8418  -14.6997   27.2431 C   0  0  0  0  0  0  0  0  0  0  0  0
    9.4209  -14.0770   28.3220 O   0  0  0  0  0  0  0  0  0  0  0  0
    8.7021  -15.9360   27.2371 O   0  0  0  0  0  0  0  0  0  0  0  0
  2  1  1  6
  2  5  1  0
  2  3  1  0
  3  4  1  0
  5 12  1  0
  6  5  2  0
  7  8  1  0
  8 10  1  0
  9  8  2  0
 11 10  1  1
 11 13  1  0
 12 11  1  0
 13 14  2  0
 13 19  1  0
 16 15  1  6
 16 17  1  0
 18 16  1  0
 18 20  1  0
 18 19  1  6
 20 21  1  0
 22 20  2  0
M  END
$$$$
