CNV.pdb
     RDKit          3D

 22 21  0  0  1  0  0  0  0  0999 V2000
    8.2616  -15.1271   17.7408 N   0  0  0  0  0  0  0  0  0  0  0  0
    8.5416  -14.3743   18.9241 C   0  0  1  0  0  0  0  0  0  0  0  0
    8.2234  -12.9159   18.7628 C   0  0  0  0  0  0  0  0  0  0  0  0
    8.4910  -12.0150   20.3146 S   0  0  0  0  0  0  0  0  0  0  0  0
    7.8191  -14.8788   20.1193 C   0  0  0  0  0  0  0  0  0  0  0  0
    6.6754  -15.3817   19.9105 O   0  0  0  0  0  0  0  0  0  0  0  0
    5.8425  -18.1097   23.6800 N   0  0  0  0  0  0  0  0  0  0  0  0
    7.1412  -17.5362   23.7602 C   0  0  0  0  0  0  0  0  0  0  0  0
    7.7280  -17.5978   24.8659 O   0  0  0  0  0  0  0  0  0  0  0  0
    7.6948  -16.9191   22.5516 C   0  0  0  0  0  0  0  0  0  0  0  0
    7.6587  -15.4177   22.5588 C   0  0  2  0  0  0  0  0  0  0  0  0
    8.3331  -14.8247   21.4347 N   0  0  0  0  0  0  0  0  0  0  0  0
    8.2233  -14.8547   23.8137 C   0  0  0  0  0  0  0  0  0  0  0  0
    9.4780  -14.9385   24.0484 O   0  0  0  0  0  0  0  0  0  0  0  0
    5.8251  -12.9349   26.9557 C   0  0  0  0  0  0  0  0  0  0  0  0
    7.2491  -12.6060   26.6419 C   0  0  2  0  0  0  0  0  0  0  0  0
    7.3902  -11.3909   25.7620 C   0  0  0  0  0  0  0  0  0  0  0  0
    8.0064  -13.7728   26.0512 C   0  0  2  0  0  0  0  0  0  0  0  0
    7.4546  -14.2134   24.7989 N   0  0  0  0  0  0  0  0  0  0  0  0
    8.1854  -14.8680   27.0197 C   0  0  0  0  0  0  0  0  0  0  0  0
    8.9025  -14.6552   28.1719 O   0  0  0  0  0  0  0  0  0  0  0  0
    7.6865  -15.9849   26.7925 O   0  0  0  0  0  0  0  0  0  0  0  0
  2  1  1  6
  2  5  1  0
  2  3  1  0
  3  4  1  0
  5 12  1  0
  6  5  2  0
  7  8  1  0
  8 10  1  0
  9  8  2  0
 11 10  1  1
 11 13  1  0
 12 11  1  0
 13 14  2  0
 13 19  1  0
 16 15  1  6
 16 17  1  0
 18 16  1  0
 18 20  1  0
 18 19  1  6
 20 21  1  0
 22 20  2  0
M  END
$$$$
