CNV.pdb
     RDKit          3D

 22 21  0  0  1  0  0  0  0  0999 V2000
    7.5160  -15.1439   18.1915 N   0  0  0  0  0  0  0  0  0  0  0  0
    8.1364  -14.4427   19.2727 C   0  0  1  0  0  0  0  0  0  0  0  0
    7.7957  -12.9805   19.2764 C   0  0  0  0  0  0  0  0  0  0  0  0
    8.6066  -12.1261   20.6562 S   0  0  0  0  0  0  0  0  0  0  0  0
    7.7925  -15.0040   20.6037 C   0  0  0  0  0  0  0  0  0  0  0  0
    6.5585  -15.1622   20.8421 O   0  0  0  0  0  0  0  0  0  0  0  0
    9.4073  -18.7507   21.1336 N   0  0  0  0  0  0  0  0  0  0  0  0
    8.5019  -18.3088   22.1371 C   0  0  0  0  0  0  0  0  0  0  0  0
    7.3586  -18.8221   22.1441 O   0  0  0  0  0  0  0  0  0  0  0  0
    8.9692  -17.2920   23.0834 C   0  0  0  0  0  0  0  0  0  0  0  0
    8.3859  -15.9272   22.8538 C   0  0  2  0  0  0  0  0  0  0  0  0
    8.7481  -15.3577   21.5830 N   0  0  0  0  0  0  0  0  0  0  0  0
    8.7576  -14.9755   23.9339 C   0  0  0  0  0  0  0  0  0  0  0  0
    9.9439  -14.5005   23.9921 O   0  0  0  0  0  0  0  0  0  0  0  0
    5.9519  -13.1430   26.7454 C   0  0  0  0  0  0  0  0  0  0  0  0
    7.2924  -12.6180   26.3432 C   0  0  2  0  0  0  0  0  0  0  0  0
    7.2201  -11.6396   25.1994 C   0  0  0  0  0  0  0  0  0  0  0  0
    8.2855  -13.7145   26.0341 C   0  0  2  0  0  0  0  0  0  0  0  0
    7.8714  -14.5416   24.9336 N   0  0  0  0  0  0  0  0  0  0  0  0
    8.6504  -14.4892   27.2325 C   0  0  0  0  0  0  0  0  0  0  0  0
    9.2847  -13.8712   28.2826 O   0  0  0  0  0  0  0  0  0  0  0  0
    8.3833  -15.7029   27.2918 O   0  0  0  0  0  0  0  0  0  0  0  0
  2  1  1  6
  2  5  1  0
  2  3  1  0
  3  4  1  0
  5 12  1  0
  6  5  2  0
  7  8  1  0
  8 10  1  0
  9  8  2  0
 11 10  1  1
 11 13  1  0
 12 11  1  0
 13 14  2  0
 13 19  1  0
 16 15  1  6
 16 17  1  0
 18 16  1  0
 18 20  1  0
 18 19  1  6
 20 21  1  0
 22 20  2  0
M  END
$$$$
