CNV.pdb
     RDKit          3D

 22 21  0  0  1  0  0  0  0  0999 V2000
    7.5521  -15.3039   18.3812 N   0  0  0  0  0  0  0  0  0  0  0  0
    8.0377  -14.5820   19.5163 C   0  0  1  0  0  0  0  0  0  0  0  0
    7.7871  -13.1058   19.4053 C   0  0  0  0  0  0  0  0  0  0  0  0
    8.8906  -12.3478   18.1811 S   0  0  0  0  0  0  0  0  0  0  0  0
    7.4594  -15.0570   20.7989 C   0  0  0  0  0  0  0  0  0  0  0  0
    6.2155  -15.2962   20.7970 O   0  0  0  0  0  0  0  0  0  0  0  0
    8.0129  -18.6743   25.3388 N   0  0  0  0  0  0  0  0  0  0  0  0
    7.2286  -17.6931   24.6724 C   0  0  0  0  0  0  0  0  0  0  0  0
    6.1847  -17.3058   25.2475 O   0  0  0  0  0  0  0  0  0  0  0  0
    7.6957  -17.2098   23.3699 C   0  0  0  0  0  0  0  0  0  0  0  0
    7.6227  -15.7184   23.2078 C   0  0  2  0  0  0  0  0  0  0  0  0
    8.2095  -15.2477   21.9814 N   0  0  0  0  0  0  0  0  0  0  0  0
    8.2515  -15.0043   24.3503 C   0  0  0  0  0  0  0  0  0  0  0  0
    9.5254  -14.9287   24.4385 O   0  0  0  0  0  0  0  0  0  0  0  0
    5.9754  -13.0020   27.4818 C   0  0  0  0  0  0  0  0  0  0  0  0
    7.3484  -12.5958   27.0525 C   0  0  2  0  0  0  0  0  0  0  0  0
    7.3421  -11.4478   26.0764 C   0  0  0  0  0  0  0  0  0  0  0  0
    8.1583  -13.7475   26.5034 C   0  0  2  0  0  0  0  0  0  0  0  0
    7.5255  -14.3824   25.3795 N   0  0  0  0  0  0  0  0  0  0  0  0
    8.5566  -14.6993   27.5546 C   0  0  0  0  0  0  0  0  0  0  0  0
    9.3251  -14.2737   28.6107 O   0  0  0  0  0  0  0  0  0  0  0  0
    8.1961  -15.8880   27.4843 O   0  0  0  0  0  0  0  0  0  0  0  0
  2  1  1  6
  2  5  1  0
  2  3  1  0
  3  4  1  0
  5 12  1  0
  6  5  2  0
  7  8  1  0
  8 10  1  0
  9  8  2  0
 11 10  1  1
 11 13  1  0
 12 11  1  0
 13 14  2  0
 13 19  1  0
 16 15  1  6
 16 17  1  0
 18 16  1  0
 18 20  1  0
 18 19  1  6
 20 21  1  0
 22 20  2  0
M  END
$$$$
