CNV.pdb
     RDKit          3D

 22 21  0  0  1  0  0  0  0  0999 V2000
    7.6370  -15.3065   18.1920 N   0  0  0  0  0  0  0  0  0  0  0  0
    8.1666  -14.6420   19.3424 C   0  0  1  0  0  0  0  0  0  0  0  0
    7.8075  -13.1845   19.3769 C   0  0  0  0  0  0  0  0  0  0  0  0
    8.7222  -12.2581   18.1135 S   0  0  0  0  0  0  0  0  0  0  0  0
    7.7325  -15.2585   20.6217 C   0  0  0  0  0  0  0  0  0  0  0  0
    6.5721  -15.7662   20.6325 O   0  0  0  0  0  0  0  0  0  0  0  0
    9.2521  -18.7528   25.0849 N   0  0  0  0  0  0  0  0  0  0  0  0
    8.2558  -18.0006   24.4041 C   0  0  0  0  0  0  0  0  0  0  0  0
    7.1197  -17.9450   24.9303 O   0  0  0  0  0  0  0  0  0  0  0  0
    8.6282  -17.3498   23.1448 C   0  0  0  0  0  0  0  0  0  0  0  0
    8.1013  -15.9509   22.9991 C   0  0  2  0  0  0  0  0  0  0  0  0
    8.5294  -15.3025   21.7881 N   0  0  0  0  0  0  0  0  0  0  0  0
    8.4656  -15.0966   24.1601 C   0  0  0  0  0  0  0  0  0  0  0  0
    9.6762  -14.7173   24.3243 O   0  0  0  0  0  0  0  0  0  0  0  0
    6.1471  -12.1822   25.5530 C   0  0  0  0  0  0  0  0  0  0  0  0
    6.7969  -12.9138   26.6831 C   0  0  2  0  0  0  0  0  0  0  0  0
    7.2703  -11.9963   27.7807 C   0  0  0  0  0  0  0  0  0  0  0  0
    7.9220  -13.8157   26.2308 C   0  0  2  0  0  0  0  0  0  0  0  0
    7.5467  -14.6573   25.1273 N   0  0  0  0  0  0  0  0  0  0  0  0
    8.5196  -14.5642   27.3498 C   0  0  0  0  0  0  0  0  0  0  0  0
    9.5235  -13.9973   28.0966 O   0  0  0  0  0  0  0  0  0  0  0  0
    8.1138  -15.7097   27.6170 O   0  0  0  0  0  0  0  0  0  0  0  0
  2  1  1  6
  2  5  1  0
  2  3  1  0
  3  4  1  0
  5 12  1  0
  6  5  2  0
  7  8  1  0
  8 10  1  0
  9  8  2  0
 11 10  1  1
 11 13  1  0
 12 11  1  0
 13 14  2  0
 13 19  1  0
 16 15  1  6
 16 17  1  0
 18 16  1  0
 18 20  1  0
 18 19  1  6
 20 21  1  0
 22 20  2  0
M  END
$$$$
