CNV.pdb
     RDKit          3D

 22 21  0  0  1  0  0  0  0  0999 V2000
    8.1315  -15.3599   18.2566 N   0  0  0  0  0  0  0  0  0  0  0  0
    8.8968  -14.8373   19.3460 C   0  0  1  0  0  0  0  0  0  0  0  0
    9.0188  -13.3417   19.2936 C   0  0  0  0  0  0  0  0  0  0  0  0
    7.3938  -12.5497   19.4462 S   0  0  0  0  0  0  0  0  0  0  0  0
    8.3498  -15.2132   20.6744 C   0  0  0  0  0  0  0  0  0  0  0  0
    7.0924  -15.3499   20.7432 O   0  0  0  0  0  0  0  0  0  0  0  0
   11.2313  -17.8209   22.3659 N   0  0  0  0  0  0  0  0  0  0  0  0
   10.5051  -17.4405   23.5278 C   0  0  0  0  0  0  0  0  0  0  0  0
   11.1615  -17.2548   24.5790 O   0  0  0  0  0  0  0  0  0  0  0  0
    9.0514  -17.2946   23.4114 C   0  0  0  0  0  0  0  0  0  0  0  0
    8.6010  -15.9037   23.0675 C   0  0  2  0  0  0  0  0  0  0  0  0
    9.1427  -15.4183   21.8261 N   0  0  0  0  0  0  0  0  0  0  0  0
    8.9215  -14.9334   24.1475 C   0  0  0  0  0  0  0  0  0  0  0  0
   10.0486  -14.3283   24.1543 O   0  0  0  0  0  0  0  0  0  0  0  0
    6.0327  -13.4498   27.0230 C   0  0  0  0  0  0  0  0  0  0  0  0
    7.2943  -12.7595   26.6151 C   0  0  2  0  0  0  0  0  0  0  0  0
    7.0870  -11.7720   25.4959 C   0  0  0  0  0  0  0  0  0  0  0  0
    8.4058  -13.7222   26.2668 C   0  0  2  0  0  0  0  0  0  0  0  0
    8.0477  -14.6183   25.2011 N   0  0  0  0  0  0  0  0  0  0  0  0
    8.9318  -14.4184   27.4534 C   0  0  0  0  0  0  0  0  0  0  0  0
    8.9376  -15.7914   27.4975 O   0  0  0  0  0  0  0  0  0  0  0  0
    9.3703  -13.7613   28.4147 O   0  0  0  0  0  0  0  0  0  0  0  0
  2  1  1  6
  2  5  1  0
  2  3  1  0
  3  4  1  0
  5 12  1  0
  6  5  2  0
  7  8  1  0
  8 10  1  0
  9  8  2  0
 11 10  1  1
 11 13  1  0
 12 11  1  0
 13 14  2  0
 13 19  1  0
 16 15  1  6
 16 17  1  0
 18 16  1  0
 18 20  1  0
 18 19  1  6
 20 21  1  0
 22 20  2  0
M  END
$$$$
