CNV.pdb
     RDKit          3D

 22 21  0  0  1  0  0  0  0  0999 V2000
    7.7206  -15.0122   18.4765 N   0  0  0  0  0  0  0  0  0  0  0  0
    8.3485  -14.3495   19.5774 C   0  0  1  0  0  0  0  0  0  0  0  0
    7.8967  -12.9249   19.7206 C   0  0  0  0  0  0  0  0  0  0  0  0
    8.5625  -11.8929   18.3853 S   0  0  0  0  0  0  0  0  0  0  0  0
    8.1292  -15.0397   20.8738 C   0  0  0  0  0  0  0  0  0  0  0  0
    6.9476  -15.4332   21.1051 O   0  0  0  0  0  0  0  0  0  0  0  0
    8.3383  -19.1415   22.3707 N   0  0  0  0  0  0  0  0  0  0  0  0
    9.4184  -18.2473   22.1343 C   0  0  0  0  0  0  0  0  0  0  0  0
   10.0414  -18.3733   21.0542 O   0  0  0  0  0  0  0  0  0  0  0  0
    9.7220  -17.2503   23.1648 C   0  0  0  0  0  0  0  0  0  0  0  0
    8.9147  -15.9887   23.0532 C   0  0  2  0  0  0  0  0  0  0  0  0
    9.1455  -15.2693   21.8286 N   0  0  0  0  0  0  0  0  0  0  0  0
    9.1502  -15.0753   24.2025 C   0  0  0  0  0  0  0  0  0  0  0  0
   10.2950  -14.5281   24.3647 O   0  0  0  0  0  0  0  0  0  0  0  0
    6.0610  -13.5927   26.9486 C   0  0  0  0  0  0  0  0  0  0  0  0
    7.3756  -12.9576   26.6278 C   0  0  2  0  0  0  0  0  0  0  0  0
    7.2819  -11.9447   25.5161 C   0  0  0  0  0  0  0  0  0  0  0  0
    8.4596  -13.9671   26.3283 C   0  0  2  0  0  0  0  0  0  0  0  0
    8.1740  -14.7553   25.1604 N   0  0  0  0  0  0  0  0  0  0  0  0
    8.8008  -14.7836   27.5057 C   0  0  0  0  0  0  0  0  0  0  0  0
    9.2978  -14.1830   28.6369 O   0  0  0  0  0  0  0  0  0  0  0  0
    8.6383  -16.0167   27.4740 O   0  0  0  0  0  0  0  0  0  0  0  0
  2  1  1  6
  2  5  1  0
  2  3  1  0
  3  4  1  0
  5 12  1  0
  6  5  2  0
  7  8  1  0
  8 10  1  0
  9  8  2  0
 11 10  1  1
 11 13  1  0
 12 11  1  0
 13 14  2  0
 13 19  1  0
 16 15  1  6
 16 17  1  0
 18 16  1  0
 18 20  1  0
 18 19  1  6
 20 21  1  0
 22 20  2  0
M  END
$$$$
