CNV.pdb
     RDKit          3D

 22 21  0  0  1  0  0  0  0  0999 V2000
    7.6646  -14.9489   18.2781 N   0  0  0  0  0  0  0  0  0  0  0  0
    8.4574  -14.4418   19.3550 C   0  0  1  0  0  0  0  0  0  0  0  0
    8.3277  -12.9540   19.5095 C   0  0  0  0  0  0  0  0  0  0  0  0
    8.9844  -12.0885   18.0566 S   0  0  0  0  0  0  0  0  0  0  0  0
    8.1390  -15.0746   20.6601 C   0  0  0  0  0  0  0  0  0  0  0  0
    6.9190  -15.3446   20.8679 O   0  0  0  0  0  0  0  0  0  0  0  0
   10.3000  -18.6384   21.1146 N   0  0  0  0  0  0  0  0  0  0  0  0
    9.2792  -18.3570   22.0637 C   0  0  0  0  0  0  0  0  0  0  0  0
    8.2138  -19.0103   21.9706 O   0  0  0  0  0  0  0  0  0  0  0  0
    9.5463  -17.3301   23.0747 C   0  0  0  0  0  0  0  0  0  0  0  0
    8.7758  -16.0568   22.8730 C   0  0  2  0  0  0  0  0  0  0  0  0
    9.1037  -15.3788   21.6471 N   0  0  0  0  0  0  0  0  0  0  0  0
    8.9531  -15.1145   24.0093 C   0  0  0  0  0  0  0  0  0  0  0  0
   10.1232  -14.7122   24.3342 O   0  0  0  0  0  0  0  0  0  0  0  0
    7.2799  -11.7008   27.1081 C   0  0  0  0  0  0  0  0  0  0  0  0
    6.9747  -12.7468   26.0848 C   0  0  2  0  0  0  0  0  0  0  0  0
    5.6744  -13.4618   26.3467 C   0  0  0  0  0  0  0  0  0  0  0  0
    8.0965  -13.7443   25.9100 C   0  0  2  0  0  0  0  0  0  0  0  0
    7.8933  -14.6132   24.7829 N   0  0  0  0  0  0  0  0  0  0  0  0
    8.3917  -14.4740   27.1549 C   0  0  0  0  0  0  0  0  0  0  0  0
    8.9542  -13.8142   28.2205 O   0  0  0  0  0  0  0  0  0  0  0  0
    8.1311  -15.6876   27.2395 O   0  0  0  0  0  0  0  0  0  0  0  0
  2  1  1  6
  2  5  1  0
  2  3  1  0
  3  4  1  0
  5 12  1  0
  6  5  2  0
  7  8  1  0
  8 10  1  0
  9  8  2  0
 11 10  1  1
 11 13  1  0
 12 11  1  0
 13 14  2  0
 13 19  1  0
 16 15  1  1
 16 17  1  0
 18 16  1  0
 18 20  1  0
 18 19  1  6
 20 21  1  0
 22 20  2  0
M  END
$$$$
