CNV.pdb
     RDKit          3D

 22 21  0  0  1  0  0  0  0  0999 V2000
    7.2018  -15.4403   18.5413 N   0  0  0  0  0  0  0  0  0  0  0  0
    7.7609  -14.7126   19.6383 C   0  0  1  0  0  0  0  0  0  0  0  0
    7.4658  -13.2426   19.5591 C   0  0  0  0  0  0  0  0  0  0  0  0
    8.5788  -12.4167   18.3886 S   0  0  0  0  0  0  0  0  0  0  0  0
    7.3015  -15.2089   20.9603 C   0  0  0  0  0  0  0  0  0  0  0  0
    6.0518  -15.3656   21.0954 O   0  0  0  0  0  0  0  0  0  0  0  0
    6.2337  -17.8614   25.3011 N   0  0  0  0  0  0  0  0  0  0  0  0
    7.5949  -17.8928   24.8908 C   0  0  0  0  0  0  0  0  0  0  0  0
    8.4348  -18.3104   25.7219 O   0  0  0  0  0  0  0  0  0  0  0  0
    7.9136  -17.4372   23.5348 C   0  0  0  0  0  0  0  0  0  0  0  0
    7.6908  -15.9685   23.3137 C   0  0  2  0  0  0  0  0  0  0  0  0
    8.1669  -15.5042   22.0378 N   0  0  0  0  0  0  0  0  0  0  0  0
    8.3061  -15.1456   24.3883 C   0  0  0  0  0  0  0  0  0  0  0  0
    9.5782  -15.0329   24.4630 O   0  0  0  0  0  0  0  0  0  0  0  0
    6.0403  -12.8196   27.3431 C   0  0  0  0  0  0  0  0  0  0  0  0
    7.4227  -12.5167   26.8617 C   0  0  2  0  0  0  0  0  0  0  0  0
    7.4470  -11.4983   25.7514 C   0  0  0  0  0  0  0  0  0  0  0  0
    8.1891  -13.7544   26.4559 C   0  0  2  0  0  0  0  0  0  0  0  0
    7.5690  -14.4561   25.3651 N   0  0  0  0  0  0  0  0  0  0  0  0
    8.4896  -14.6250   27.6053 C   0  0  0  0  0  0  0  0  0  0  0  0
    9.2701  -14.1580   28.6347 O   0  0  0  0  0  0  0  0  0  0  0  0
    8.0357  -15.7829   27.6420 O   0  0  0  0  0  0  0  0  0  0  0  0
  2  1  1  6
  2  5  1  0
  2  3  1  0
  3  4  1  0
  5 12  1  0
  6  5  2  0
  7  8  1  0
  8 10  1  0
  9  8  2  0
 11 10  1  1
 11 13  1  0
 12 11  1  0
 13 14  2  0
 13 19  1  0
 16 15  1  6
 16 17  1  0
 18 16  1  0
 18 20  1  0
 18 19  1  6
 20 21  1  0
 22 20  2  0
M  END
$$$$
