CNV.pdb
     RDKit          3D

 22 21  0  0  1  0  0  0  0  0999 V2000
    7.5275  -15.0786   18.4629 N   0  0  0  0  0  0  0  0  0  0  0  0
    8.5515  -14.8105   19.4246 C   0  0  1  0  0  0  0  0  0  0  0  0
    8.9617  -13.3662   19.4359 C   0  0  0  0  0  0  0  0  0  0  0  0
    7.5495  -12.2908   19.8107 S   0  0  0  0  0  0  0  0  0  0  0  0
    8.1674  -15.1959   20.8063 C   0  0  0  0  0  0  0  0  0  0  0  0
    6.9250  -15.2766   21.0395 O   0  0  0  0  0  0  0  0  0  0  0  0
    7.9001  -19.2008   22.8063 N   0  0  0  0  0  0  0  0  0  0  0  0
    9.0479  -18.4169   22.5063 C   0  0  0  0  0  0  0  0  0  0  0  0
    9.6925  -18.7154   21.4739 O   0  0  0  0  0  0  0  0  0  0  0  0
    9.3908  -17.3241   23.4209 C   0  0  0  0  0  0  0  0  0  0  0  0
    8.7068  -16.0245   23.1062 C   0  0  2  0  0  0  0  0  0  0  0  0
    9.0948  -15.4674   21.8376 N   0  0  0  0  0  0  0  0  0  0  0  0
    8.9287  -15.0087   24.1689 C   0  0  0  0  0  0  0  0  0  0  0  0
   10.0395  -14.3774   24.2329 O   0  0  0  0  0  0  0  0  0  0  0  0
    5.8560  -13.3620   26.8355 C   0  0  0  0  0  0  0  0  0  0  0  0
    7.1550  -12.7484   26.4227 C   0  0  2  0  0  0  0  0  0  0  0  0
    7.0288  -11.8730   25.2026 C   0  0  0  0  0  0  0  0  0  0  0  0
    8.2519  -13.7690   26.2254 C   0  0  2  0  0  0  0  0  0  0  0  0
    7.9752  -14.6765   25.1453 N   0  0  0  0  0  0  0  0  0  0  0  0
    8.6055  -14.4558   27.4795 C   0  0  0  0  0  0  0  0  0  0  0  0
    9.1206  -13.7398   28.5327 O   0  0  0  0  0  0  0  0  0  0  0  0
    8.4370  -15.6842   27.5830 O   0  0  0  0  0  0  0  0  0  0  0  0
  2  1  1  6
  2  5  1  0
  2  3  1  0
  3  4  1  0
  5 12  1  0
  6  5  2  0
  7  8  1  0
  8 10  1  0
  9  8  2  0
 11 10  1  1
 11 13  1  0
 12 11  1  0
 13 14  2  0
 13 19  1  0
 16 15  1  6
 16 17  1  0
 18 16  1  0
 18 20  1  0
 18 19  1  6
 20 21  1  0
 22 20  2  0
M  END
$$$$
