CNV.pdb
     RDKit          3D

 22 21  0  0  1  0  0  0  0  0999 V2000
    7.6719  -15.5202   18.2089 N   0  0  0  0  0  0  0  0  0  0  0  0
    8.1230  -14.7952   19.3563 C   0  0  1  0  0  0  0  0  0  0  0  0
    7.9565  -13.3116   19.1972 C   0  0  0  0  0  0  0  0  0  0  0  0
    9.2027  -12.6337   18.0664 S   0  0  0  0  0  0  0  0  0  0  0  0
    7.4424  -15.2079   20.6099 C   0  0  0  0  0  0  0  0  0  0  0  0
    6.2661  -15.6611   20.4847 O   0  0  0  0  0  0  0  0  0  0  0  0
    7.6197  -18.7867   24.9511 N   0  0  0  0  0  0  0  0  0  0  0  0
    6.8891  -17.7105   24.3766 C   0  0  0  0  0  0  0  0  0  0  0  0
    5.8762  -17.3096   24.9962 O   0  0  0  0  0  0  0  0  0  0  0  0
    7.3713  -17.1525   23.1100 C   0  0  0  0  0  0  0  0  0  0  0  0
    7.4000  -15.6513   23.0734 C   0  0  2  0  0  0  0  0  0  0  0  0
    8.0286  -15.1207   21.8929 N   0  0  0  0  0  0  0  0  0  0  0  0
    8.0646  -15.0792   24.2740 C   0  0  0  0  0  0  0  0  0  0  0  0
    9.3057  -15.3025   24.4895 O   0  0  0  0  0  0  0  0  0  0  0  0
    5.9552  -12.9523   27.4629 C   0  0  0  0  0  0  0  0  0  0  0  0
    7.3289  -12.5878   27.0000 C   0  0  2  0  0  0  0  0  0  0  0  0
    7.3382  -11.4083   26.0622 C   0  0  0  0  0  0  0  0  0  0  0  0
    8.0718  -13.7521   26.3866 C   0  0  2  0  0  0  0  0  0  0  0  0
    7.4086  -14.2817   25.2262 N   0  0  0  0  0  0  0  0  0  0  0  0
    8.4064  -14.7855   27.3814 C   0  0  0  0  0  0  0  0  0  0  0  0
    9.2115  -14.4744   28.4501 O   0  0  0  0  0  0  0  0  0  0  0  0
    7.9590  -15.9392   27.2522 O   0  0  0  0  0  0  0  0  0  0  0  0
  2  1  1  6
  2  5  1  0
  2  3  1  0
  3  4  1  0
  5 12  1  0
  6  5  2  0
  7  8  1  0
  8 10  1  0
  9  8  2  0
 11 10  1  1
 11 13  1  0
 12 11  1  0
 13 14  2  0
 13 19  1  0
 16 15  1  6
 16 17  1  0
 18 16  1  0
 18 20  1  0
 18 19  1  6
 20 21  1  0
 22 20  2  0
M  END
$$$$
