DTM.pdb
     RDKit          3D

 24 23  0  0  1  0  0  0  0  0999 V2000
   24.6560  -14.8029  -19.2684 N   0  0  0  0  0  0  0  0  0  0  0  0
   23.9496  -14.0252  -20.2496 C   0  0  1  0  0  0  0  0  0  0  0  0
   22.4760  -13.9919  -19.9856 C   0  0  0  0  0  0  0  0  0  0  0  0
   22.0185  -15.2591  -19.3787 C   0  0  0  0  0  0  0  0  0  0  0  0
   22.4777  -16.3892  -19.6790 O   0  0  0  0  0  0  0  0  0  0  0  0
   24.4748  -12.6527  -20.3274 C   0  0  0  0  0  0  0  0  0  0  0  0
   23.8550  -11.7942  -21.0473 O   0  0  0  0  0  0  0  0  0  0  0  0
   21.0122  -15.2557  -18.4025 O   0  0  0  0  0  0  0  0  0  0  0  0
   24.6570  -10.3159  -17.8055 C   0  0  0  0  0  0  0  0  0  0  0  0
   24.9689  -10.0010  -19.2462 C   0  0  1  0  0  0  0  0  0  0  0  0
   25.4517   -8.6738  -19.3118 O   0  0  0  0  0  0  0  0  0  0  0  0
   26.1097  -10.8678  -19.7236 C   0  0  2  0  0  0  0  0  0  0  0  0
   25.6345  -12.2596  -19.6380 N   0  0  0  0  0  0  0  0  0  0  0  0
   27.3434  -10.7495  -18.9293 C   0  0  0  0  0  0  0  0  0  0  0  0
   27.4158  -11.4333  -17.8551 O   0  0  0  0  0  0  0  0  0  0  0  0
   34.9977   -9.8102  -18.7836 C   0  0  0  0  0  0  0  0  0  0  0  0
   33.4760   -9.8111  -19.7992 S   0  0  0  0  0  0  0  0  0  0  0  0
   32.0822   -9.8782  -18.5982 C   0  0  0  0  0  0  0  0  0  0  0  0
   30.7963   -9.8890  -19.3677 C   0  0  0  0  0  0  0  0  0  0  0  0
   29.6007   -9.9083  -18.4531 C   0  0  2  0  0  0  0  0  0  0  0  0
   28.4197   -9.9215  -19.3218 N   0  0  0  0  0  0  0  0  0  0  0  0
   29.5680   -8.6764  -17.6476 C   0  0  0  0  0  0  0  0  0  0  0  0
   28.8768   -7.6784  -17.9505 O   0  0  0  0  0  0  0  0  0  0  0  0
   30.3304   -8.5910  -16.4921 O   0  0  0  0  0  0  0  0  0  0  0  0
  2  1  1  1
  2  3  1  0
  3  4  1  0
  4  5  2  0
  4  8  1  0
  6 13  1  0
  6  2  1  0
  7  6  2  0
 10  9  1  1
 10 12  1  0
 11 10  1  0
 12 13  1  1
 12 14  1  0
 14 21  1  0
 14 15  2  0
 17 16  1  0
 17 18  1  0
 18 19  1  0
 20 19  1  6
 21 20  1  0
 22 20  1  0
 22 24  1  0
 23 22  2  0
M  END
$$$$
