DTM.pdb
     RDKit          3D

 24 23  0  0  1  0  0  0  0  0999 V2000
   14.2220   -9.8373  -16.1430 N   0  0  0  0  0  0  0  0  0  0  0  0
   15.3520   -9.7202  -15.2624 C   0  0  1  0  0  0  0  0  0  0  0  0
   16.2144  -10.9441  -15.2889 C   0  0  0  0  0  0  0  0  0  0  0  0
   15.5591  -12.0682  -14.5885 C   0  0  0  0  0  0  0  0  0  0  0  0
   14.5433  -11.9466  -13.8593 O   0  0  0  0  0  0  0  0  0  0  0  0
   16.1603   -8.5322  -15.5801 C   0  0  0  0  0  0  0  0  0  0  0  0
   16.4188   -8.2710  -16.8067 O   0  0  0  0  0  0  0  0  0  0  0  0
   16.0619  -13.3711  -14.7118 O   0  0  0  0  0  0  0  0  0  0  0  0
   15.5273   -5.1605  -15.5002 C   0  0  0  0  0  0  0  0  0  0  0  0
   16.7132   -5.2939  -14.5794 C   0  0  1  0  0  0  0  0  0  0  0  0
   16.2304   -5.5236  -13.2706 O   0  0  0  0  0  0  0  0  0  0  0  0
   17.5032   -6.5298  -14.9390 C   0  0  2  0  0  0  0  0  0  0  0  0
   16.6564   -7.6803  -14.5787 N   0  0  0  0  0  0  0  0  0  0  0  0
   18.7890   -6.6620  -14.2347 C   0  0  0  0  0  0  0  0  0  0  0  0
   18.8680   -7.5496  -13.3222 O   0  0  0  0  0  0  0  0  0  0  0  0
   24.9997   -9.9857  -13.8697 C   0  0  0  0  0  0  0  0  0  0  0  0
   23.4323   -9.4933  -14.6746 S   0  0  0  0  0  0  0  0  0  0  0  0
   22.9568   -7.8965  -13.8913 C   0  0  0  0  0  0  0  0  0  0  0  0
   21.5846   -7.5274  -14.3677 C   0  0  0  0  0  0  0  0  0  0  0  0
   21.1663   -6.1722  -13.8630 C   0  0  2  0  0  0  0  0  0  0  0  0
   19.9065   -5.8526  -14.5414 N   0  0  0  0  0  0  0  0  0  0  0  0
   22.1676   -5.1644  -14.2492 C   0  0  0  0  0  0  0  0  0  0  0  0
   22.0676   -4.4589  -15.2777 O   0  0  0  0  0  0  0  0  0  0  0  0
   23.2854   -4.9664  -13.4523 O   0  0  0  0  0  0  0  0  0  0  0  0
  2  1  1  6
  2  3  1  0
  3  4  1  0
  4  5  2  0
  4  8  1  0
  6 13  1  0
  6  2  1  0
  7  6  2  0
 10  9  1  6
 10 12  1  0
 11 10  1  0
 12 13  1  1
 12 14  1  0
 14 21  1  0
 14 15  2  0
 17 16  1  0
 17 18  1  0
 18 19  1  0
 20 19  1  6
 21 20  1  0
 22 20  1  0
 22 24  1  0
 23 22  2  0
M  END
$$$$
