DTM.pdb
     RDKit          3D

 24 23  0  0  1  0  0  0  0  0999 V2000
   19.5603  -20.3463  -15.9639 N   0  0  0  0  0  0  0  0  0  0  0  0
   20.0878  -19.8060  -14.7407 C   0  0  1  0  0  0  0  0  0  0  0  0
   19.0119  -19.5396  -13.7339 C   0  0  0  0  0  0  0  0  0  0  0  0
   18.3257  -18.2622  -14.0184 C   0  0  0  0  0  0  0  0  0  0  0  0
   17.1245  -18.0301  -13.7330 O   0  0  0  0  0  0  0  0  0  0  0  0
   21.1093  -20.6911  -14.1586 C   0  0  0  0  0  0  0  0  0  0  0  0
   20.7385  -21.7927  -13.6216 O   0  0  0  0  0  0  0  0  0  0  0  0
   19.0120  -17.2119  -14.6439 O   0  0  0  0  0  0  0  0  0  0  0  0
   23.4707  -22.6734  -15.6610 C   0  0  0  0  0  0  0  0  0  0  0  0
   24.3000  -21.7771  -14.7772 C   0  0  1  0  0  0  0  0  0  0  0  0
   24.6271  -20.6148  -15.5126 O   0  0  0  0  0  0  0  0  0  0  0  0
   23.4675  -21.2951  -13.6129 C   0  0  2  0  0  0  0  0  0  0  0  0
   22.4753  -20.3615  -14.1735 N   0  0  0  0  0  0  0  0  0  0  0  0
   24.2266  -20.5914  -12.5663 C   0  0  0  0  0  0  0  0  0  0  0  0
   24.3408  -19.3259  -12.6767 O   0  0  0  0  0  0  0  0  0  0  0  0
   28.1993  -18.6480   -6.9298 C   0  0  0  0  0  0  0  0  0  0  0  0
   26.6871  -19.3861   -7.6478 S   0  0  0  0  0  0  0  0  0  0  0  0
   27.2716  -20.7725   -8.7088 C   0  0  0  0  0  0  0  0  0  0  0  0
   26.0994  -21.3079   -9.4738 C   0  0  0  0  0  0  0  0  0  0  0  0
   25.9178  -20.5928  -10.7860 C   0  0  2  0  0  0  0  0  0  0  0  0
   24.8114  -21.2677  -11.4715 N   0  0  0  0  0  0  0  0  0  0  0  0
   27.1301  -20.7416  -11.6080 C   0  0  0  0  0  0  0  0  0  0  0  0
   27.4272  -21.8006  -12.2044 O   0  0  0  0  0  0  0  0  0  0  0  0
   28.0023  -19.6719  -11.7453 O   0  0  0  0  0  0  0  0  0  0  0  0
  2  1  1  6
  2  3  1  0
  3  4  1  0
  4  5  2  0
  4  8  1  0
  6 13  1  0
  6  2  1  0
  7  6  2  0
 10  9  1  6
 10 12  1  0
 11 10  1  0
 12 13  1  6
 12 14  1  0
 14 21  1  0
 14 15  2  0
 17 16  1  0
 17 18  1  0
 18 19  1  0
 20 19  1  1
 21 20  1  0
 22 20  1  0
 22 24  1  0
 23 22  2  0
M  END
$$$$
