DTM.pdb
     RDKit          3D

 24 23  0  0  1  0  0  0  0  0999 V2000
   24.1812   -9.9630  -19.4428 N   0  0  0  0  0  0  0  0  0  0  0  0
   25.1801   -9.9174  -18.4101 C   0  0  1  0  0  0  0  0  0  0  0  0
   26.5667  -10.0306  -18.9640 C   0  0  0  0  0  0  0  0  0  0  0  0
   26.7057  -11.2420  -19.7987 C   0  0  0  0  0  0  0  0  0  0  0  0
   25.7597  -12.0238  -20.0671 O   0  0  0  0  0  0  0  0  0  0  0  0
   25.0627   -8.6929  -17.6025 C   0  0  0  0  0  0  0  0  0  0  0  0
   26.0409   -8.3538  -16.8491 O   0  0  0  0  0  0  0  0  0  0  0  0
   27.9483  -11.5856  -20.3494 O   0  0  0  0  0  0  0  0  0  0  0  0
   26.2807   -6.3380  -17.5665 C   0  0  0  0  0  0  0  0  0  0  0  0
   24.9096   -5.7216  -17.6773 C   0  0  1  0  0  0  0  0  0  0  0  0
   24.5220   -5.7520  -19.0366 O   0  0  0  0  0  0  0  0  0  0  0  0
   23.9021   -6.5823  -16.9527 C   0  0  2  0  0  0  0  0  0  0  0  0
   23.9105   -7.8890  -17.6330 N   0  0  0  0  0  0  0  0  0  0  0  0
   22.5259   -6.0602  -16.9685 C   0  0  0  0  0  0  0  0  0  0  0  0
   21.7736   -6.4221  -17.9328 O   0  0  0  0  0  0  0  0  0  0  0  0
   17.3684   -8.6174  -17.9341 C   0  0  0  0  0  0  0  0  0  0  0  0
   18.0342   -7.8751  -16.4002 S   0  0  0  0  0  0  0  0  0  0  0  0
   19.2074   -6.5688  -16.9542 C   0  0  0  0  0  0  0  0  0  0  0  0
   19.7733   -5.8970  -15.7399 C   0  0  0  0  0  0  0  0  0  0  0  0
   20.6501   -4.7299  -16.1075 C   0  0  2  0  0  0  0  0  0  0  0  0
   22.0332   -5.1948  -15.9653 N   0  0  0  0  0  0  0  0  0  0  0  0
   20.4343   -3.6247  -15.1591 C   0  0  0  0  0  0  0  0  0  0  0  0
   21.2806   -3.2815  -14.3038 O   0  0  0  0  0  0  0  0  0  0  0  0
   19.2447   -2.9124  -15.1936 O   0  0  0  0  0  0  0  0  0  0  0  0
  2  1  1  6
  2  3  1  0
  3  4  1  0
  4  5  2  0
  4  8  1  0
  6 13  1  0
  6  2  1  0
  7  6  2  0
 10  9  1  6
 10 12  1  0
 11 10  1  0
 12 13  1  6
 12 14  1  0
 14 21  1  0
 14 15  2  0
 17 16  1  0
 17 18  1  0
 18 19  1  0
 20 19  1  1
 21 20  1  0
 22 20  1  0
 22 24  1  0
 23 22  2  0
M  END
$$$$
