DTM.pdb
     RDKit          3D

 24 23  0  0  1  0  0  0  0  0999 V2000
   24.4299  -22.8496  -16.7367 N   0  0  0  0  0  0  0  0  0  0  0  0
   24.0465  -22.3407  -15.4482 C   0  0  1  0  0  0  0  0  0  0  0  0
   23.0723  -23.2421  -14.7550 C   0  0  0  0  0  0  0  0  0  0  0  0
   21.7434  -23.1792  -15.3982 C   0  0  0  0  0  0  0  0  0  0  0  0
   21.4804  -22.4710  -16.4020 O   0  0  0  0  0  0  0  0  0  0  0  0
   25.2195  -22.1165  -14.5882 C   0  0  0  0  0  0  0  0  0  0  0  0
   26.2649  -22.8331  -14.7703 O   0  0  0  0  0  0  0  0  0  0  0  0
   20.6757  -23.9369  -14.8968 O   0  0  0  0  0  0  0  0  0  0  0  0
   27.4761  -19.4725  -14.3693 C   0  0  0  0  0  0  0  0  0  0  0  0
   26.9144  -19.5686  -12.9738 C   0  0  1  0  0  0  0  0  0  0  0  0
   25.7712  -18.7399  -12.9016 O   0  0  0  0  0  0  0  0  0  0  0  0
   26.4116  -20.9700  -12.7205 C   0  0  2  0  0  0  0  0  0  0  0  0
   25.2239  -21.1430  -13.5748 N   0  0  0  0  0  0  0  0  0  0  0  0
   26.0232  -21.2393  -11.3264 C   0  0  0  0  0  0  0  0  0  0  0  0
   24.8609  -21.7246  -11.1259 O   0  0  0  0  0  0  0  0  0  0  0  0
   28.1864  -18.2776   -5.5818 C   0  0  0  0  0  0  0  0  0  0  0  0
   28.2608  -20.0990   -5.4271 S   0  0  0  0  0  0  0  0  0  0  0  0
   26.9186  -20.7406   -6.5117 C   0  0  0  0  0  0  0  0  0  0  0  0
   27.3780  -20.6490   -7.9354 C   0  0  0  0  0  0  0  0  0  0  0  0
   26.3297  -21.1518   -8.8917 C   0  0  2  0  0  0  0  0  0  0  0  0
   26.8868  -20.9826  -10.2372 N   0  0  0  0  0  0  0  0  0  0  0  0
   25.1178  -20.3226   -8.7857 C   0  0  0  0  0  0  0  0  0  0  0  0
   24.9578  -19.2591   -9.4252 O   0  0  0  0  0  0  0  0  0  0  0  0
   24.0880  -20.7159   -7.9440 O   0  0  0  0  0  0  0  0  0  0  0  0
  2  1  1  6
  2  3  1  0
  3  4  1  0
  4  5  2  0
  4  8  1  0
  6 13  1  0
  6  2  1  0
  7  6  2  0
 10  9  1  6
 10 12  1  0
 11 10  1  0
 12 13  1  6
 12 14  1  0
 14 21  1  0
 14 15  2  0
 17 16  1  0
 17 18  1  0
 18 19  1  0
 20 19  1  1
 21 20  1  0
 22 20  1  0
 22 24  1  0
 23 22  2  0
M  END
$$$$
