DTM.pdb
     RDKit          3D

 24 23  0  0  1  0  0  0  0  0999 V2000
   16.5571  -12.1154  -17.6672 N   0  0  0  0  0  0  0  0  0  0  0  0
   17.1334  -11.5059  -16.4999 C   0  0  1  0  0  0  0  0  0  0  0  0
   17.8670  -12.4983  -15.6518 C   0  0  0  0  0  0  0  0  0  0  0  0
   16.9236  -13.3436  -14.8908 C   0  0  0  0  0  0  0  0  0  0  0  0
   15.6751  -13.2078  -14.9216 O   0  0  0  0  0  0  0  0  0  0  0  0
   18.0303  -10.3963  -16.8601 C   0  0  0  0  0  0  0  0  0  0  0  0
   18.8307  -10.5450  -17.8485 O   0  0  0  0  0  0  0  0  0  0  0  0
   17.3992  -14.3749  -14.0687 O   0  0  0  0  0  0  0  0  0  0  0  0
   17.3105   -7.2695  -18.2097 C   0  0  0  0  0  0  0  0  0  0  0  0
   18.0637   -6.9330  -16.9481 C   0  0  1  0  0  0  0  0  0  0  0  0
   17.1259   -6.7970  -15.8988 O   0  0  0  0  0  0  0  0  0  0  0  0
   18.9435   -8.0951  -16.5526 C   0  0  2  0  0  0  0  0  0  0  0  0
   18.0348   -9.1829  -16.1512 N   0  0  0  0  0  0  0  0  0  0  0  0
   19.8582   -7.8182  -15.4330 C   0  0  0  0  0  0  0  0  0  0  0  0
   19.6041   -8.3804  -14.3168 O   0  0  0  0  0  0  0  0  0  0  0  0
   26.4093   -9.3945  -15.8376 C   0  0  0  0  0  0  0  0  0  0  0  0
   24.8914   -9.5767  -14.8326 S   0  0  0  0  0  0  0  0  0  0  0  0
   23.9462   -8.0164  -15.0806 C   0  0  0  0  0  0  0  0  0  0  0  0
   22.6534   -8.1234  -14.3300 C   0  0  0  0  0  0  0  0  0  0  0  0
   21.8620   -6.8448  -14.3999 C   0  0  2  0  0  0  0  0  0  0  0  0
   20.9815   -6.9704  -15.5655 N   0  0  0  0  0  0  0  0  0  0  0  0
   22.7690   -5.7075  -14.6265 C   0  0  0  0  0  0  0  0  0  0  0  0
   23.5169   -5.2408  -13.7386 O   0  0  0  0  0  0  0  0  0  0  0  0
   22.8171   -5.1056  -15.8752 O   0  0  0  0  0  0  0  0  0  0  0  0
  2  1  1  6
  2  3  1  0
  3  4  1  0
  4  5  2  0
  4  8  1  0
  6 13  1  0
  6  2  1  0
  7  6  2  0
 10  9  1  6
 10 12  1  0
 11 10  1  0
 12 13  1  1
 12 14  1  0
 14 21  1  0
 14 15  2  0
 17 16  1  0
 17 18  1  0
 18 19  1  0
 20 19  1  6
 21 20  1  0
 22 20  1  0
 22 24  1  0
 23 22  2  0
M  END
$$$$
