DTM.pdb
     RDKit          3D

 24 23  0  0  1  0  0  0  0  0999 V2000
   21.0444   -8.3090  -14.6909 N   0  0  0  0  0  0  0  0  0  0  0  0
   21.8621   -8.1574  -15.8633 C   0  0  1  0  0  0  0  0  0  0  0  0
   21.7102   -6.8029  -16.4833 C   0  0  0  0  0  0  0  0  0  0  0  0
   20.3223   -6.5831  -16.9406 C   0  0  0  0  0  0  0  0  0  0  0  0
   19.7412   -5.4696  -16.9152 O   0  0  0  0  0  0  0  0  0  0  0  0
   23.2802   -8.4153  -15.5666 C   0  0  0  0  0  0  0  0  0  0  0  0
   23.8374   -7.7738  -14.6087 O   0  0  0  0  0  0  0  0  0  0  0  0
   19.5632   -7.6495  -17.4426 O   0  0  0  0  0  0  0  0  0  0  0  0
   24.5120  -11.2799  -14.2116 C   0  0  0  0  0  0  0  0  0  0  0  0
   25.3594  -11.1364  -15.4500 C   0  0  1  0  0  0  0  0  0  0  0  0
   24.7130  -11.8178  -16.5068 O   0  0  0  0  0  0  0  0  0  0  0  0
   25.4041   -9.6875  -15.8738 C   0  0  2  0  0  0  0  0  0  0  0  0
   24.0383   -9.3409  -16.3036 N   0  0  0  0  0  0  0  0  0  0  0  0
   26.3263   -9.4021  -16.9850 C   0  0  0  0  0  0  0  0  0  0  0  0
   25.8112   -9.0520  -18.0980 O   0  0  0  0  0  0  0  0  0  0  0  0
   33.6602   -8.1805  -19.4195 C   0  0  0  0  0  0  0  0  0  0  0  0
   32.6048   -8.6850  -18.0128 S   0  0  0  0  0  0  0  0  0  0  0  0
   30.8980   -8.7987  -18.6935 C   0  0  0  0  0  0  0  0  0  0  0  0
   29.9519   -9.0418  -17.5569 C   0  0  0  0  0  0  0  0  0  0  0  0
   28.5365   -9.2169  -18.0388 C   0  0  2  0  0  0  0  0  0  0  0  0
   27.7298   -9.5010  -16.8481 N   0  0  0  0  0  0  0  0  0  0  0  0
   28.4555  -10.3784  -18.9397 C   0  0  0  0  0  0  0  0  0  0  0  0
   28.2280  -11.5415  -18.5385 O   0  0  0  0  0  0  0  0  0  0  0  0
   28.6360  -10.2035  -20.3038 O   0  0  0  0  0  0  0  0  0  0  0  0
  2  1  1  1
  2  3  1  0
  3  4  1  0
  4  5  2  0
  4  8  1  0
  6 13  1  0
  6  2  1  0
  7  6  2  0
 10  9  1  1
 10 12  1  0
 11 10  1  0
 12 13  1  6
 12 14  1  0
 14 21  1  0
 14 15  2  0
 17 16  1  0
 17 18  1  0
 18 19  1  0
 20 19  1  1
 21 20  1  0
 22 20  1  0
 22 24  1  0
 23 22  2  0
M  END
$$$$
