DTM.pdb
     RDKit          3D

 24 23  0  0  1  0  0  0  0  0999 V2000
   19.2939  -20.1365  -14.2174 N   0  0  0  0  0  0  0  0  0  0  0  0
   20.6092  -19.5704  -14.0913 C   0  0  1  0  0  0  0  0  0  0  0  0
   20.5692  -18.1655  -13.5748 C   0  0  0  0  0  0  0  0  0  0  0  0
   20.0200  -17.2438  -14.5909 C   0  0  0  0  0  0  0  0  0  0  0  0
   20.5210  -17.0734  -15.7303 O   0  0  0  0  0  0  0  0  0  0  0  0
   21.4692  -20.3960  -13.2285 C   0  0  0  0  0  0  0  0  0  0  0  0
   20.9278  -21.0859  -12.2955 O   0  0  0  0  0  0  0  0  0  0  0  0
   18.8706  -16.4892  -14.3172 O   0  0  0  0  0  0  0  0  0  0  0  0
   24.8870  -22.0833  -14.7094 C   0  0  0  0  0  0  0  0  0  0  0  0
   23.9406  -22.5633  -13.6389 C   0  0  1  0  0  0  0  0  0  0  0  0
   24.5984  -23.5630  -12.8861 O   0  0  0  0  0  0  0  0  0  0  0  0
   23.6616  -21.4442  -12.6639 C   0  0  2  0  0  0  0  0  0  0  0  0
   22.8633  -20.4469  -13.3977 N   0  0  0  0  0  0  0  0  0  0  0  0
   24.8630  -20.7782  -12.1350 C   0  0  0  0  0  0  0  0  0  0  0  0
   25.2933  -19.7579  -12.7680 O   0  0  0  0  0  0  0  0  0  0  0  0
   27.1769  -18.9503   -6.2644 C   0  0  0  0  0  0  0  0  0  0  0  0
   28.2767  -20.3079   -6.8071 S   0  0  0  0  0  0  0  0  0  0  0  0
   28.2746  -20.2378   -8.6469 C   0  0  0  0  0  0  0  0  0  0  0  0
   26.9898  -20.8310   -9.1402 C   0  0  0  0  0  0  0  0  0  0  0  0
   26.7617  -20.5306  -10.5976 C   0  0  2  0  0  0  0  0  0  0  0  0
   25.5287  -21.2296  -10.9726 N   0  0  0  0  0  0  0  0  0  0  0  0
   27.8668  -21.0803  -11.3999 C   0  0  0  0  0  0  0  0  0  0  0  0
   28.7804  -20.3741  -11.8818 O   0  0  0  0  0  0  0  0  0  0  0  0
   27.9227  -22.4437  -11.6490 O   0  0  0  0  0  0  0  0  0  0  0  0
  2  1  1  1
  2  3  1  0
  3  4  1  0
  4  5  2  0
  4  8  1  0
  6 13  1  0
  6  2  1  0
  7  6  2  0
 10  9  1  6
 10 12  1  0
 11 10  1  0
 12 13  1  6
 12 14  1  0
 14 21  1  0
 14 15  2  0
 17 16  1  0
 17 18  1  0
 18 19  1  0
 20 19  1  1
 21 20  1  0
 22 20  1  0
 22 24  1  0
 23 22  2  0
M  END
$$$$
