DTM.pdb
     RDKit          3D

 24 23  0  0  1  0  0  0  0  0999 V2000
   16.5239  -11.8082  -16.5764 N   0  0  0  0  0  0  0  0  0  0  0  0
   17.6849  -11.4567  -15.8051 C   0  0  1  0  0  0  0  0  0  0  0  0
   18.9117  -12.1737  -16.2774 C   0  0  0  0  0  0  0  0  0  0  0  0
   18.7651  -13.6353  -16.1165 C   0  0  0  0  0  0  0  0  0  0  0  0
   18.1512  -14.1803  -15.1656 O   0  0  0  0  0  0  0  0  0  0  0  0
   17.9189  -10.0038  -15.8178 C   0  0  0  0  0  0  0  0  0  0  0  0
   17.9954   -9.4004  -16.9445 O   0  0  0  0  0  0  0  0  0  0  0  0
   19.3268  -14.5124  -17.0549 O   0  0  0  0  0  0  0  0  0  0  0  0
   15.8219   -7.4871  -14.1876 C   0  0  0  0  0  0  0  0  0  0  0  0
   17.2261   -7.2289  -13.7043 C   0  0  1  0  0  0  0  0  0  0  0  0
   17.4210   -7.9581  -12.5089 O   0  0  0  0  0  0  0  0  0  0  0  0
   18.2188   -7.7992  -14.6894 C   0  0  2  0  0  0  0  0  0  0  0  0
   18.0624   -9.2629  -14.6324 N   0  0  0  0  0  0  0  0  0  0  0  0
   19.6248   -7.4716  -14.4020 C   0  0  0  0  0  0  0  0  0  0  0  0
   20.4315   -8.4460  -14.2399 O   0  0  0  0  0  0  0  0  0  0  0  0
   26.0339   -6.5809  -17.1255 C   0  0  0  0  0  0  0  0  0  0  0  0
   24.2470   -6.9724  -17.0961 S   0  0  0  0  0  0  0  0  0  0  0  0
   23.5994   -6.2026  -15.5542 C   0  0  0  0  0  0  0  0  0  0  0  0
   22.1409   -6.5283  -15.4407 C   0  0  0  0  0  0  0  0  0  0  0  0
   21.5358   -5.9439  -14.1923 C   0  0  2  0  0  0  0  0  0  0  0  0
   20.0874   -6.1392  -14.3081 N   0  0  0  0  0  0  0  0  0  0  0  0
   21.8040   -4.4974  -14.1370 C   0  0  0  0  0  0  0  0  0  0  0  0
   21.0441   -3.6404  -14.6407 O   0  0  0  0  0  0  0  0  0  0  0  0
   22.9470   -4.0346  -13.5020 O   0  0  0  0  0  0  0  0  0  0  0  0
  2  1  1  6
  2  3  1  0
  3  4  1  0
  4  5  2  0
  4  8  1  0
  6 13  1  0
  6  2  1  0
  7  6  2  0
 10  9  1  6
 10 12  1  0
 11 10  1  0
 12 13  1  1
 12 14  1  0
 14 21  1  0
 14 15  2  0
 17 16  1  0
 17 18  1  0
 18 19  1  0
 20 19  1  6
 21 20  1  0
 22 20  1  0
 22 24  1  0
 23 22  2  0
M  END
$$$$
