DTM.pdb
     RDKit          3D

 24 23  0  0  1  0  0  0  0  0999 V2000
   22.5094  -12.0508  -18.9816 N   0  0  0  0  0  0  0  0  0  0  0  0
   21.5952  -11.0457  -18.5123 C   0  0  1  0  0  0  0  0  0  0  0  0
   20.4719  -11.6352  -17.7166 C   0  0  0  0  0  0  0  0  0  0  0  0
   19.6299  -12.5106  -18.5583 C   0  0  0  0  0  0  0  0  0  0  0  0
   19.3757  -12.2900  -19.7686 O   0  0  0  0  0  0  0  0  0  0  0  0
   22.2870  -10.0195  -17.7162 C   0  0  0  0  0  0  0  0  0  0  0  0
   23.2135  -10.3832  -16.9107 O   0  0  0  0  0  0  0  0  0  0  0  0
   19.0552  -13.6714  -18.0219 O   0  0  0  0  0  0  0  0  0  0  0  0
   24.2674   -7.2599  -18.7881 C   0  0  0  0  0  0  0  0  0  0  0  0
   23.2182   -6.6305  -17.9077 C   0  0  1  0  0  0  0  0  0  0  0  0
   22.1368   -6.2333  -18.7271 O   0  0  0  0  0  0  0  0  0  0  0  0
   22.6506   -7.6675  -16.9678 C   0  0  2  0  0  0  0  0  0  0  0  0
   21.9593   -8.6564  -17.8131 N   0  0  0  0  0  0  0  0  0  0  0  0
   21.6875   -7.1431  -15.9858 C   0  0  0  0  0  0  0  0  0  0  0  0
   20.4584   -7.4380  -16.1562 O   0  0  0  0  0  0  0  0  0  0  0  0
   17.8949   -7.9715  -10.0556 C   0  0  0  0  0  0  0  0  0  0  0  0
   19.1331   -8.4337  -11.3206 S   0  0  0  0  0  0  0  0  0  0  0  0
   19.5577   -6.8673  -12.1898 C   0  0  0  0  0  0  0  0  0  0  0  0
   20.5970   -7.1695  -13.2263 C   0  0  0  0  0  0  0  0  0  0  0  0
   21.0337   -5.9269  -13.9552 C   0  0  2  0  0  0  0  0  0  0  0  0
   22.0843   -6.3460  -14.8879 N   0  0  0  0  0  0  0  0  0  0  0  0
   21.6172   -4.9680  -13.0027 C   0  0  0  0  0  0  0  0  0  0  0  0
   22.8466   -4.7530  -12.9139 O   0  0  0  0  0  0  0  0  0  0  0  0
   20.7870   -4.2545  -12.1508 O   0  0  0  0  0  0  0  0  0  0  0  0
  2  1  1  1
  2  3  1  0
  3  4  1  0
  4  5  2  0
  4  8  1  0
  6 13  1  0
  6  2  1  0
  7  6  2  0
 10  9  1  6
 10 12  1  0
 11 10  1  0
 12 13  1  6
 12 14  1  0
 14 21  1  0
 14 15  2  0
 17 16  1  0
 17 18  1  0
 18 19  1  0
 20 19  1  1
 21 20  1  0
 22 20  1  0
 22 24  1  0
 23 22  2  0
M  END
$$$$
