DTM.pdb
     RDKit          3D

 24 23  0  0  1  0  0  0  0  0999 V2000
   18.9001  -12.7565  -16.8760 N   0  0  0  0  0  0  0  0  0  0  0  0
   19.4236  -11.5117  -17.3686 C   0  0  1  0  0  0  0  0  0  0  0  0
   18.4021  -10.7406  -18.1458 C   0  0  0  0  0  0  0  0  0  0  0  0
   17.9860  -11.4824  -19.3542 C   0  0  0  0  0  0  0  0  0  0  0  0
   16.8962  -12.0981  -19.4613 O   0  0  0  0  0  0  0  0  0  0  0  0
   19.9521  -10.6806  -16.2752 C   0  0  0  0  0  0  0  0  0  0  0  0
   19.2926  -10.6084  -15.1800 O   0  0  0  0  0  0  0  0  0  0  0  0
   18.8221  -11.5337  -20.4784 O   0  0  0  0  0  0  0  0  0  0  0  0
   22.6733  -11.3359  -14.4271 C   0  0  0  0  0  0  0  0  0  0  0  0
   22.9758   -9.9230  -14.8564 C   0  0  1  0  0  0  0  0  0  0  0  0
   23.7506   -9.9784  -16.0377 O   0  0  0  0  0  0  0  0  0  0  0  0
   21.6962   -9.2226  -15.2475 C   0  0  2  0  0  0  0  0  0  0  0  0
   21.1549   -9.9646  -16.3993 N   0  0  0  0  0  0  0  0  0  0  0  0
   21.8639   -7.8140  -15.6409 C   0  0  0  0  0  0  0  0  0  0  0  0
   21.7055   -7.5276  -16.8735 O   0  0  0  0  0  0  0  0  0  0  0  0
   19.2359   -1.5537  -17.4117 C   0  0  0  0  0  0  0  0  0  0  0  0
   19.1822   -3.2690  -16.7778 S   0  0  0  0  0  0  0  0  0  0  0  0
   20.8927   -3.6362  -16.2046 C   0  0  0  0  0  0  0  0  0  0  0  0
   20.9456   -5.0675  -15.7636 C   0  0  0  0  0  0  0  0  0  0  0  0
   22.3028   -5.4340  -15.2251 C   0  0  2  0  0  0  0  0  0  0  0  0
   22.1839   -6.8009  -14.7085 N   0  0  0  0  0  0  0  0  0  0  0  0
   22.6523   -4.5454  -14.1046 C   0  0  0  0  0  0  0  0  0  0  0  0
   22.5411   -4.8808  -12.9043 O   0  0  0  0  0  0  0  0  0  0  0  0
   23.1305   -3.2694  -14.3634 O   0  0  0  0  0  0  0  0  0  0  0  0
  2  1  1  1
  2  3  1  0
  3  4  1  0
  4  5  2  0
  4  8  1  0
  6 13  1  0
  6  2  1  0
  7  6  2  0
 10  9  1  6
 10 12  1  0
 11 10  1  0
 12 13  1  6
 12 14  1  0
 14 21  1  0
 14 15  2  0
 17 16  1  0
 17 18  1  0
 18 19  1  0
 20 19  1  1
 21 20  1  0
 22 20  1  0
 22 24  1  0
 23 22  2  0
M  END
$$$$
