GNA.pdb
     RDKit          3D

 18 17  0  0  1  0  0  0  0  0999 V2000
   28.5478  -21.1364  -16.9495 N   0  0  0  0  0  0  0  0  0  0  0  0
   28.1714  -20.1747  -15.9482 C   0  0  0  0  0  0  0  0  0  0  0  0
   27.3532  -20.8289  -14.8675 C   0  0  0  0  0  0  0  0  0  0  0  0
   26.9271  -21.9979  -15.0016 O   0  0  0  0  0  0  0  0  0  0  0  0
   24.8498  -21.7167  -10.1355 N   0  0  0  0  0  0  0  0  0  0  0  0
   25.8880  -20.7659  -10.1150 C   0  0  0  0  0  0  0  0  0  0  0  0
   26.2703  -20.3400   -8.9706 O   0  0  0  0  0  0  0  0  0  0  0  0
   26.5940  -20.1993  -11.2665 C   0  0  0  0  0  0  0  0  0  0  0  0
   26.2308  -20.7815  -12.5962 C   0  0  2  0  0  0  0  0  0  0  0  0
   27.0369  -20.1470  -13.6637 N   0  0  0  0  0  0  0  0  0  0  0  0
   24.8224  -20.4947  -13.0012 C   0  0  0  0  0  0  0  0  0  0  0  0
   24.4981  -19.3074  -13.2114 O   0  0  0  0  0  0  0  0  0  0  0  0
   21.9284  -22.4526  -14.3662 C   0  0  0  0  0  0  0  0  0  0  0  0
   22.4856  -21.2454  -13.6340 C   0  0  2  0  0  0  0  0  0  0  0  0
   23.8291  -21.4929  -13.1617 N   0  0  0  0  0  0  0  0  0  0  0  0
   21.5734  -20.9330  -12.4903 C   0  0  0  0  0  0  0  0  0  0  0  0
   20.4316  -20.1838  -12.6658 O   0  0  0  0  0  0  0  0  0  0  0  0
   21.8141  -21.3430  -11.3222 O   0  0  0  0  0  0  0  0  0  0  0  0
  2  1  1  0
  3  2  1  0
  4  3  2  0
  5  6  1  0
  6  8  1  0
  6  7  2  0
  9  8  1  1
  9 10  1  0
 10  3  1  0
 11  9  1  0
 11 12  2  0
 14 13  1  1
 14 15  1  0
 15 11  1  0
 16 14  1  0
 17 16  1  0
 18 16  2  0
M  END
$$$$
