GNA.pdb
     RDKit          3D

 18 17  0  0  1  0  0  0  0  0999 V2000
   12.4130  -10.1375   -8.5803 N   0  0  0  0  0  0  0  0  0  0  0  0
   13.8026   -9.8051   -8.4142 C   0  0  0  0  0  0  0  0  0  0  0  0
   14.1572   -8.5905   -9.2294 C   0  0  0  0  0  0  0  0  0  0  0  0
   13.3441   -8.1049  -10.0474 O   0  0  0  0  0  0  0  0  0  0  0  0
   14.0212   -4.5721   -9.0366 N   0  0  0  0  0  0  0  0  0  0  0  0
   15.3638   -4.6894   -8.6290 C   0  0  0  0  0  0  0  0  0  0  0  0
   15.7981   -3.8289   -7.7875 O   0  0  0  0  0  0  0  0  0  0  0  0
   16.3362   -5.6963   -9.0597 C   0  0  0  0  0  0  0  0  0  0  0  0
   15.7937   -6.7869   -9.9289 C   0  0  2  0  0  0  0  0  0  0  0  0
   15.4199   -7.9556   -9.1005 N   0  0  0  0  0  0  0  0  0  0  0  0
   16.8025   -7.3390  -10.8816 C   0  0  0  0  0  0  0  0  0  0  0  0
   17.8662   -7.7977  -10.4157 O   0  0  0  0  0  0  0  0  0  0  0  0
   16.9329   -8.2093  -14.5653 C   0  0  0  0  0  0  0  0  0  0  0  0
   17.5798   -7.9202  -13.2230 C   0  0  2  0  0  0  0  0  0  0  0  0
   16.6236   -7.3734  -12.2872 N   0  0  0  0  0  0  0  0  0  0  0  0
   18.7067   -6.9620  -13.4464 C   0  0  0  0  0  0  0  0  0  0  0  0
   19.9331   -7.3890  -13.9041 O   0  0  0  0  0  0  0  0  0  0  0  0
   18.5777   -5.7272  -13.2245 O   0  0  0  0  0  0  0  0  0  0  0  0
  2  1  1  0
  3  2  1  0
  4  3  2  0
  5  6  1  0
  6  8  1  0
  6  7  2  0
  9  8  1  1
  9 10  1  0
 10  3  1  0
 11  9  1  0
 11 12  2  0
 14 13  1  6
 14 15  1  0
 15 11  1  0
 16 14  1  0
 17 16  1  0
 18 16  2  0
M  END
$$$$
