GNA.pdb
     RDKit          3D

 18 17  0  0  1  0  0  0  0  0999 V2000
   18.2120  -11.2494  -18.5187 N   0  0  0  0  0  0  0  0  0  0  0  0
   19.6367  -11.1846  -18.7067 C   0  0  0  0  0  0  0  0  0  0  0  0
   20.2977  -10.5346  -17.5209 C   0  0  0  0  0  0  0  0  0  0  0  0
   19.9085  -10.7742  -16.3559 O   0  0  0  0  0  0  0  0  0  0  0  0
   22.9755  -10.0172  -13.9047 N   0  0  0  0  0  0  0  0  0  0  0  0
   23.8007   -9.9505  -15.0436 C   0  0  0  0  0  0  0  0  0  0  0  0
   25.0078  -10.3555  -14.9173 O   0  0  0  0  0  0  0  0  0  0  0  0
   23.4344   -9.4664  -16.3765 C   0  0  0  0  0  0  0  0  0  0  0  0
   22.0278   -8.9766  -16.5210 C   0  0  2  0  0  0  0  0  0  0  0  0
   21.3806   -9.6313  -17.6805 N   0  0  0  0  0  0  0  0  0  0  0  0
   21.9400   -7.5213  -16.8444 C   0  0  0  0  0  0  0  0  0  0  0  0
   22.1731   -7.1615  -18.0170 O   0  0  0  0  0  0  0  0  0  0  0  0
   20.2136   -4.7007  -16.7495 C   0  0  0  0  0  0  0  0  0  0  0  0
   21.5611   -5.1049  -16.1796 C   0  0  2  0  0  0  0  0  0  0  0  0
   21.6068   -6.5216  -15.8965 N   0  0  0  0  0  0  0  0  0  0  0  0
   21.7970   -4.3101  -14.9345 C   0  0  0  0  0  0  0  0  0  0  0  0
   22.0841   -2.9644  -14.9845 O   0  0  0  0  0  0  0  0  0  0  0  0
   21.7424   -4.8408  -13.7917 O   0  0  0  0  0  0  0  0  0  0  0  0
  2  1  1  0
  3  2  1  0
  4  3  2  0
  5  6  1  0
  6  8  1  0
  6  7  2  0
  9  8  1  6
  9 10  1  0
 10  3  1  0
 11  9  1  0
 11 12  2  0
 14 13  1  1
 14 15  1  0
 15 11  1  0
 16 14  1  0
 17 16  1  0
 18 16  2  0
M  END
$$$$
