GNA.pdb
     RDKit          3D

 18 17  0  0  1  0  0  0  0  0999 V2000
   12.1113  -12.4194  -10.5916 N   0  0  0  0  0  0  0  0  0  0  0  0
   12.8323  -11.6138  -11.5405 C   0  0  0  0  0  0  0  0  0  0  0  0
   13.9803  -10.9075  -10.8707 C   0  0  0  0  0  0  0  0  0  0  0  0
   14.1673  -11.0099   -9.6375 O   0  0  0  0  0  0  0  0  0  0  0  0
   18.4719   -7.9731  -10.0961 N   0  0  0  0  0  0  0  0  0  0  0  0
   18.2829   -8.4531  -11.4062 C   0  0  0  0  0  0  0  0  0  0  0  0
   19.2353   -8.2700  -12.2407 O   0  0  0  0  0  0  0  0  0  0  0  0
   17.1074   -9.1493  -11.9341 C   0  0  0  0  0  0  0  0  0  0  0  0
   15.9999   -9.3795  -10.9546 C   0  0  2  0  0  0  0  0  0  0  0  0
   14.8873  -10.1041  -11.6096 N   0  0  0  0  0  0  0  0  0  0  0  0
   15.3634   -8.1162  -10.4758 C   0  0  0  0  0  0  0  0  0  0  0  0
   14.6036   -7.5050  -11.2556 O   0  0  0  0  0  0  0  0  0  0  0  0
   15.1548   -6.1964   -7.2033 C   0  0  0  0  0  0  0  0  0  0  0  0
   14.9529   -6.3557   -8.6992 C   0  0  2  0  0  0  0  0  0  0  0  0
   15.5714   -7.5683   -9.1854 N   0  0  0  0  0  0  0  0  0  0  0  0
   15.5364   -5.1570   -9.3778 C   0  0  0  0  0  0  0  0  0  0  0  0
   14.8260   -3.9839   -9.5005 O   0  0  0  0  0  0  0  0  0  0  0  0
   16.7002   -5.1739   -9.8634 O   0  0  0  0  0  0  0  0  0  0  0  0
  2  1  1  0
  3  2  1  0
  4  3  2  0
  5  6  1  0
  6  8  1  0
  6  7  2  0
  9  8  1  6
  9 10  1  0
 10  3  1  0
 11  9  1  0
 11 12  2  0
 14 13  1  1
 14 15  1  0
 15 11  1  0
 16 14  1  0
 17 16  1  0
 18 16  2  0
M  END
$$$$
