GNA.pdb
     RDKit          3D

 18 17  0  0  1  0  0  0  0  0999 V2000
   17.2713  -13.4011  -15.6720 N   0  0  0  0  0  0  0  0  0  0  0  0
   17.1408  -12.0807  -16.2276 C   0  0  0  0  0  0  0  0  0  0  0  0
   17.5768  -11.0415  -15.2300 C   0  0  0  0  0  0  0  0  0  0  0  0
   17.1106  -11.0288  -14.0687 O   0  0  0  0  0  0  0  0  0  0  0  0
   22.3091   -8.1745  -15.6826 N   0  0  0  0  0  0  0  0  0  0  0  0
   21.3257   -9.1478  -15.4219 C   0  0  0  0  0  0  0  0  0  0  0  0
   21.2006  -10.0968  -16.2709 O   0  0  0  0  0  0  0  0  0  0  0  0
   20.4162   -9.2040  -14.2752 C   0  0  0  0  0  0  0  0  0  0  0  0
   18.9655   -9.0201  -14.5927 C   0  0  2  0  0  0  0  0  0  0  0  0
   18.5273  -10.0435  -15.5687 N   0  0  0  0  0  0  0  0  0  0  0  0
   18.6713   -7.7282  -15.2815 C   0  0  0  0  0  0  0  0  0  0  0  0
   18.8356   -7.6669  -16.5177 O   0  0  0  0  0  0  0  0  0  0  0  0
   16.7894   -4.5815  -14.4739 C   0  0  0  0  0  0  0  0  0  0  0  0
   17.8377   -5.3346  -15.2725 C   0  0  2  0  0  0  0  0  0  0  0  0
   18.2154   -6.5643  -14.6135 N   0  0  0  0  0  0  0  0  0  0  0  0
   19.0249   -4.4403  -15.4417 C   0  0  0  0  0  0  0  0  0  0  0  0
   20.2584   -4.7794  -14.9324 O   0  0  0  0  0  0  0  0  0  0  0  0
   18.9426   -3.3423  -16.0567 O   0  0  0  0  0  0  0  0  0  0  0  0
  2  1  1  0
  3  2  1  0
  4  3  2  0
  5  6  1  0
  6  8  1  0
  6  7  2  0
  9  8  1  6
  9 10  1  0
 10  3  1  0
 11  9  1  0
 11 12  2  0
 14 13  1  1
 14 15  1  0
 15 11  1  0
 16 14  1  0
 17 16  1  0
 18 16  2  0
M  END
$$$$
