GNA.pdb
     RDKit          3D

 18 17  0  0  1  0  0  0  0  0999 V2000
   25.0730  -12.2912  -15.9026 N   0  0  0  0  0  0  0  0  0  0  0  0
   24.9891  -10.8655  -15.7311 C   0  0  0  0  0  0  0  0  0  0  0  0
   23.6509  -10.3549  -16.1937 C   0  0  0  0  0  0  0  0  0  0  0  0
   23.3705  -10.2970  -17.4120 O   0  0  0  0  0  0  0  0  0  0  0  0
   20.4208  -12.2503  -16.2720 N   0  0  0  0  0  0  0  0  0  0  0  0
   19.8954  -11.4742  -15.2212 C   0  0  0  0  0  0  0  0  0  0  0  0
   18.9921  -12.0110  -14.4911 O   0  0  0  0  0  0  0  0  0  0  0  0
   20.2675  -10.1048  -14.8587 C   0  0  0  0  0  0  0  0  0  0  0  0
   21.3237   -9.4759  -15.7120 C   0  0  2  0  0  0  0  0  0  0  0  0
   22.6641   -9.9228  -15.2698 N   0  0  0  0  0  0  0  0  0  0  0  0
   21.3853   -7.9901  -15.5754 C   0  0  0  0  0  0  0  0  0  0  0  0
   21.7030   -7.5113  -14.4669 O   0  0  0  0  0  0  0  0  0  0  0  0
   20.9514   -4.9847  -17.8709 C   0  0  0  0  0  0  0  0  0  0  0  0
   21.1804   -5.6493  -16.5257 C   0  0  2  0  0  0  0  0  0  0  0  0
   21.1039   -7.0888  -16.6324 N   0  0  0  0  0  0  0  0  0  0  0  0
   20.1495   -5.1354  -15.5712 C   0  0  0  0  0  0  0  0  0  0  0  0
   20.3503   -3.9796  -14.8504 O   0  0  0  0  0  0  0  0  0  0  0  0
   19.0576   -5.7398  -15.3897 O   0  0  0  0  0  0  0  0  0  0  0  0
  2  1  1  0
  3  2  1  0
  4  3  2  0
  5  6  1  0
  6  8  1  0
  6  7  2  0
  9  8  1  1
  9 10  1  0
 10  3  1  0
 11  9  1  0
 11 12  2  0
 14 13  1  6
 14 15  1  0
 15 11  1  0
 16 14  1  0
 17 16  1  0
 18 16  2  0
M  END
$$$$
