GNA.pdb
     RDKit          3D

 18 17  0  0  1  0  0  0  0  0999 V2000
   22.2805  -10.8437  -19.2452 N   0  0  0  0  0  0  0  0  0  0  0  0
   22.3667   -9.4430  -19.5613 C   0  0  0  0  0  0  0  0  0  0  0  0
   21.6154   -8.6244  -18.5460 C   0  0  0  0  0  0  0  0  0  0  0  0
   20.3783   -8.7509  -18.4056 O   0  0  0  0  0  0  0  0  0  0  0  0
   20.3735   -8.9692  -14.8809 N   0  0  0  0  0  0  0  0  0  0  0  0
   21.5112   -8.2167  -14.5320 C   0  0  0  0  0  0  0  0  0  0  0  0
   22.0433   -8.4527  -13.3926 O   0  0  0  0  0  0  0  0  0  0  0  0
   22.1684   -7.1810  -15.3323 C   0  0  0  0  0  0  0  0  0  0  0  0
   21.5591   -6.9182  -16.6735 C   0  0  2  0  0  0  0  0  0  0  0  0
   22.2794   -7.6844  -17.7156 N   0  0  0  0  0  0  0  0  0  0  0  0
   21.7010   -5.4997  -17.1184 C   0  0  0  0  0  0  0  0  0  0  0  0
   22.8301   -5.1020  -17.4734 O   0  0  0  0  0  0  0  0  0  0  0  0
   19.4021   -2.5615  -17.8147 C   0  0  0  0  0  0  0  0  0  0  0  0
   20.7567   -3.1837  -17.5290 C   0  0  2  0  0  0  0  0  0  0  0  0
   20.6273   -4.5757  -17.1617 N   0  0  0  0  0  0  0  0  0  0  0  0
   21.4033   -2.4052  -16.4272 C   0  0  0  0  0  0  0  0  0  0  0  0
   21.8665   -1.1243  -16.6284 O   0  0  0  0  0  0  0  0  0  0  0  0
   21.5492   -2.8911  -15.2726 O   0  0  0  0  0  0  0  0  0  0  0  0
  2  1  1  0
  3  2  1  0
  4  3  2  0
  5  6  1  0
  6  8  1  0
  6  7  2  0
  9  8  1  1
  9 10  1  0
 10  3  1  0
 11  9  1  0
 11 12  2  0
 14 13  1  1
 14 15  1  0
 15 11  1  0
 16 14  1  0
 17 16  1  0
 18 16  2  0
M  END
$$$$
