GNA.pdb
     RDKit          3D

 18 17  0  0  1  0  0  0  0  0999 V2000
   15.1618   -7.2799   -7.1436 N   0  0  0  0  0  0  0  0  0  0  0  0
   15.6287   -6.7859   -8.4114 C   0  0  0  0  0  0  0  0  0  0  0  0
   16.4977   -7.8101   -9.0907 C   0  0  0  0  0  0  0  0  0  0  0  0
   16.5196   -8.9979   -8.6974 O   0  0  0  0  0  0  0  0  0  0  0  0
   17.6152  -10.3182  -13.5838 N   0  0  0  0  0  0  0  0  0  0  0  0
   16.4274   -9.7888  -13.0441 C   0  0  0  0  0  0  0  0  0  0  0  0
   15.3233  -10.1915  -13.5500 O   0  0  0  0  0  0  0  0  0  0  0  0
   16.3045   -8.8181  -11.9543 C   0  0  0  0  0  0  0  0  0  0  0  0
   17.5881   -8.4231  -11.2943 C   0  0  2  0  0  0  0  0  0  0  0  0
   17.3192   -7.4674  -10.1959 N   0  0  0  0  0  0  0  0  0  0  0  0
   18.5090   -7.6709  -12.1977 C   0  0  0  0  0  0  0  0  0  0  0  0
   18.1355   -6.5611  -12.6312 O   0  0  0  0  0  0  0  0  0  0  0  0
   21.9895   -8.1923  -13.6534 C   0  0  0  0  0  0  0  0  0  0  0  0
   20.6952   -7.4244  -13.4563 C   0  0  2  0  0  0  0  0  0  0  0  0
   19.7854   -8.1432  -12.5933 N   0  0  0  0  0  0  0  0  0  0  0  0
   20.0793   -7.1978  -14.8007 C   0  0  0  0  0  0  0  0  0  0  0  0
   20.4934   -6.1689  -15.6166 O   0  0  0  0  0  0  0  0  0  0  0  0
   19.1579   -7.9392  -15.2387 O   0  0  0  0  0  0  0  0  0  0  0  0
  2  1  1  0
  3  2  1  0
  4  3  2  0
  5  6  1  0
  6  8  1  0
  6  7  2  0
  9  8  1  6
  9 10  1  0
 10  3  1  0
 11  9  1  0
 11 12  2  0
 14 13  1  6
 14 15  1  0
 15 11  1  0
 16 14  1  0
 17 16  1  0
 18 16  2  0
M  END
$$$$
