GNA.pdb
     RDKit          3D

 18 17  0  0  1  0  0  0  0  0999 V2000
   28.2561  -21.2923  -15.6169 N   0  0  0  0  0  0  0  0  0  0  0  0
   27.4316  -20.3480  -14.9115 C   0  0  0  0  0  0  0  0  0  0  0  0
   26.2101  -21.0266  -14.3520 C   0  0  0  0  0  0  0  0  0  0  0  0
   25.7699  -22.0815  -14.8615 O   0  0  0  0  0  0  0  0  0  0  0  0
   26.0534  -20.6557   -9.2887 N   0  0  0  0  0  0  0  0  0  0  0  0
   25.4212  -21.3445  -10.3415 C   0  0  0  0  0  0  0  0  0  0  0  0
   25.8658  -22.5089  -10.6305 O   0  0  0  0  0  0  0  0  0  0  0  0
   24.2966  -20.8790  -11.1561 C   0  0  0  0  0  0  0  0  0  0  0  0
   24.3756  -21.2087  -12.6136 C   0  0  2  0  0  0  0  0  0  0  0  0
   25.5171  -20.4973  -13.2323 N   0  0  0  0  0  0  0  0  0  0  0  0
   23.1964  -20.7263  -13.3925 C   0  0  0  0  0  0  0  0  0  0  0  0
   22.9900  -19.4963  -13.4510 O   0  0  0  0  0  0  0  0  0  0  0  0
   20.9606  -22.1144  -16.0516 C   0  0  0  0  0  0  0  0  0  0  0  0
   21.2164  -21.1340  -14.9215 C   0  0  2  0  0  0  0  0  0  0  0  0
   22.2951  -21.5841  -14.0711 N   0  0  0  0  0  0  0  0  0  0  0  0
   19.9512  -20.9885  -14.1365 C   0  0  0  0  0  0  0  0  0  0  0  0
   19.7841  -21.6128  -12.9207 O   0  0  0  0  0  0  0  0  0  0  0  0
   18.9896  -20.2893  -14.5570 O   0  0  0  0  0  0  0  0  0  0  0  0
  2  1  1  0
  3  2  1  0
  4  3  2  0
  5  6  1  0
  6  8  1  0
  6  7  2  0
  9  8  1  1
  9 10  1  0
 10  3  1  0
 11  9  1  0
 11 12  2  0
 14 13  1  6
 14 15  1  0
 15 11  1  0
 16 14  1  0
 17 16  1  0
 18 16  2  0
M  END
$$$$
