GNA.pdb
     RDKit          3D

 18 17  0  0  1  0  0  0  0  0999 V2000
   27.6898  -22.5806  -16.2163 N   0  0  0  0  0  0  0  0  0  0  0  0
   27.1192  -21.3507  -15.7356 C   0  0  0  0  0  0  0  0  0  0  0  0
   25.9050  -21.6259  -14.8897 C   0  0  0  0  0  0  0  0  0  0  0  0
   25.2877  -22.7104  -14.9837 O   0  0  0  0  0  0  0  0  0  0  0  0
   25.6992  -22.8609  -11.4022 N   0  0  0  0  0  0  0  0  0  0  0  0
   25.2869  -21.5932  -10.9490 C   0  0  0  0  0  0  0  0  0  0  0  0
   25.6103  -21.2636   -9.7558 O   0  0  0  0  0  0  0  0  0  0  0  0
   24.5212  -20.5914  -11.6941 C   0  0  0  0  0  0  0  0  0  0  0  0
   24.2278  -20.9336  -13.1210 C   0  0  2  0  0  0  0  0  0  0  0  0
   25.4190  -20.6702  -13.9599 N   0  0  0  0  0  0  0  0  0  0  0  0
   23.1713  -20.0712  -13.7294 C   0  0  0  0  0  0  0  0  0  0  0  0
   22.0262  -20.1003  -13.2326 O   0  0  0  0  0  0  0  0  0  0  0  0
   23.0373  -17.2161  -16.1990 C   0  0  0  0  0  0  0  0  0  0  0  0
   22.3942  -18.3460  -15.4159 C   0  0  2  0  0  0  0  0  0  0  0  0
   23.3919  -19.2192  -14.8404 N   0  0  0  0  0  0  0  0  0  0  0  0
   21.5003  -19.1057  -16.3442 C   0  0  0  0  0  0  0  0  0  0  0  0
   20.2960  -18.5884  -16.7659 O   0  0  0  0  0  0  0  0  0  0  0  0
   21.8144  -20.2481  -16.7763 O   0  0  0  0  0  0  0  0  0  0  0  0
  2  1  1  0
  3  2  1  0
  4  3  2  0
  5  6  1  0
  6  8  1  0
  6  7  2  0
  9  8  1  1
  9 10  1  0
 10  3  1  0
 11  9  1  0
 11 12  2  0
 14 13  1  6
 14 15  1  0
 15 11  1  0
 16 14  1  0
 17 16  1  0
 18 16  2  0
M  END
$$$$
