KSC.pdb
     RDKit          3D

 22 21  0  0  1  0  0  0  0  0999 V2000
   15.1069  -11.7295  -13.9595 N   0  0  0  0  0  0  0  0  0  0  0  0
   15.2255  -10.3651  -13.5402 C   0  0  1  0  0  0  0  0  0  0  0  0
   15.4053  -10.2684  -12.0191 C   0  0  0  0  0  0  0  0  0  0  0  0
   14.1081  -10.7611  -11.4144 C   0  0  0  0  0  0  0  0  0  0  0  0
   13.1601   -9.6177  -11.1227 C   0  0  0  0  0  0  0  0  0  0  0  0
   11.8859  -10.2369  -10.5570 C   0  0  0  0  0  0  0  0  0  0  0  0
   10.8354   -9.2411  -10.4515 N   0  0  0  0  0  0  0  0  0  0  0  0
   16.3721   -9.7272  -14.2021 C   0  0  0  0  0  0  0  0  0  0  0  0
   17.4599  -10.3596  -14.2414 O   0  0  0  0  0  0  0  0  0  0  0  0
   15.9224   -5.9804  -15.7342 O   0  0  0  0  0  0  0  0  0  0  0  0
   16.8362   -6.7720  -16.4103 C   0  0  0  0  0  0  0  0  0  0  0  0
   17.3698   -7.8346  -15.4572 C   0  0  2  0  0  0  0  0  0  0  0  0
   16.2332   -8.4386  -14.7714 N   0  0  0  0  0  0  0  0  0  0  0  0
   18.2116   -7.1502  -14.4432 C   0  0  0  0  0  0  0  0  0  0  0  0
   17.7058   -6.7972  -13.3206 O   0  0  0  0  0  0  0  0  0  0  0  0
   19.5774   -6.8743  -14.6866 N   0  0  0  0  0  0  0  0  0  0  0  0
   20.3339   -6.0614  -13.7332 C   0  0  1  0  0  0  0  0  0  0  0  0
   21.6488   -6.7583  -13.4595 C   0  0  0  0  0  0  0  0  0  0  0  0
   22.7472   -5.7588  -12.4461 S   0  0  0  0  0  0  0  0  0  0  0  0
   20.5979   -4.7451  -14.3630 C   0  0  0  0  0  0  0  0  0  0  0  0
   20.7099   -3.5908  -13.6059 O   0  0  0  0  0  0  0  0  0  0  0  0
   20.7304   -4.6240  -15.6071 O   0  0  0  0  0  0  0  0  0  0  0  0
  2  1  1  6
  2  3  1  0
  2  8  1  0
  3  4  1  0
  5  4  1  0
  5  6  1  0
  6  7  1  0
  8 13  1  0
  9  8  2  0
 12 11  1  6
 11 10  1  0
 12 14  1  0
 13 12  1  0
 14 16  1  0
 14 15  2  0
 16 17  1  0
 17 18  1  6
 17 20  1  0
 18 19  1  0
 20 21  1  0
 22 20  2  0
M  END
$$$$
