KSC.pdb
     RDKit          3D

 22 21  0  0  1  0  0  0  0  0999 V2000
   17.5821  -12.4127  -16.1537 N   0  0  0  0  0  0  0  0  0  0  0  0
   18.6401  -11.5946  -16.6662 C   0  0  1  0  0  0  0  0  0  0  0  0
   18.4958  -11.3894  -18.1803 C   0  0  0  0  0  0  0  0  0  0  0  0
   19.3208  -12.4803  -18.8288 C   0  0  0  0  0  0  0  0  0  0  0  0
   18.4926  -13.3100  -19.7864 C   0  0  0  0  0  0  0  0  0  0  0  0
   19.4310  -14.3490  -20.3921 C   0  0  0  0  0  0  0  0  0  0  0  0
   19.3937  -15.5814  -19.6264 N   0  0  0  0  0  0  0  0  0  0  0  0
   18.6384  -10.2844  -16.0005 C   0  0  0  0  0  0  0  0  0  0  0  0
   17.5343   -9.6987  -15.8496 O   0  0  0  0  0  0  0  0  0  0  0  0
   20.9797   -7.2279  -13.1671 O   0  0  0  0  0  0  0  0  0  0  0  0
   21.0341   -8.3948  -13.9116 C   0  0  0  0  0  0  0  0  0  0  0  0
   19.8309   -8.4414  -14.8457 C   0  0  2  0  0  0  0  0  0  0  0  0
   19.8551   -9.7178  -15.5508 N   0  0  0  0  0  0  0  0  0  0  0  0
   19.9940   -7.3567  -15.8466 C   0  0  0  0  0  0  0  0  0  0  0  0
   20.8298   -7.4899  -16.8081 O   0  0  0  0  0  0  0  0  0  0  0  0
   19.2394   -6.1629  -15.7667 N   0  0  0  0  0  0  0  0  0  0  0  0
   19.4473   -5.1061  -16.7576 C   0  0  1  0  0  0  0  0  0  0  0  0
   18.1523   -4.3374  -16.9050 C   0  0  0  0  0  0  0  0  0  0  0  0
   16.7863   -5.3990  -17.3945 S   0  0  0  0  0  0  0  0  0  0  0  0
   20.5011   -4.1982  -16.2436 C   0  0  0  0  0  0  0  0  0  0  0  0
   21.0682   -4.3831  -14.9937 O   0  0  0  0  0  0  0  0  0  0  0  0
   20.9213   -3.2258  -16.9204 O   0  0  0  0  0  0  0  0  0  0  0  0
  2  1  1  1
  2  3  1  0
  2  8  1  0
  3  4  1  0
  5  4  1  0
  5  6  1  0
  6  7  1  0
  8 13  1  0
  9  8  2  0
 12 11  1  1
 11 10  1  0
 12 14  1  0
 13 12  1  0
 14 16  1  0
 14 15  2  0
 16 17  1  0
 17 18  1  1
 17 20  1  0
 18 19  1  0
 20 21  1  0
 22 20  2  0
M  END
$$$$
