KSC.pdb
     RDKit          3D

 22 21  0  0  1  0  0  0  0  0999 V2000
   18.7294  -18.9998  -15.7931 N   0  0  0  0  0  0  0  0  0  0  0  0
   18.4444  -17.9218  -16.6919 C   0  0  1  0  0  0  0  0  0  0  0  0
   17.9798  -18.4485  -18.0566 C   0  0  0  0  0  0  0  0  0  0  0  0
   17.7765  -19.9381  -17.8806 C   0  0  0  0  0  0  0  0  0  0  0  0
   18.9579  -20.7270  -18.4033 C   0  0  0  0  0  0  0  0  0  0  0  0
   18.3923  -21.9843  -19.0562 C   0  0  0  0  0  0  0  0  0  0  0  0
   19.0580  -23.1695  -18.5479 N   0  0  0  0  0  0  0  0  0  0  0  0
   17.4004  -17.0534  -16.1303 C   0  0  0  0  0  0  0  0  0  0  0  0
   16.5441  -17.5741  -15.3684 O   0  0  0  0  0  0  0  0  0  0  0  0
   17.4507  -13.3418  -17.3549 O   0  0  0  0  0  0  0  0  0  0  0  0
   16.6878  -13.3756  -16.1992 C   0  0  0  0  0  0  0  0  0  0  0  0
   16.3416  -14.8245  -15.8779 C   0  0  2  0  0  0  0  0  0  0  0  0
   17.3785  -15.6748  -16.4512 N   0  0  0  0  0  0  0  0  0  0  0  0
   15.0574  -15.1422  -16.5524 C   0  0  0  0  0  0  0  0  0  0  0  0
   15.0560  -15.6016  -17.7481 O   0  0  0  0  0  0  0  0  0  0  0  0
   13.8170  -14.9497  -15.9002 N   0  0  0  0  0  0  0  0  0  0  0  0
   12.5715  -15.2457  -16.6094 C   0  0  1  0  0  0  0  0  0  0  0  0
   11.7229  -16.1298  -15.7216 C   0  0  0  0  0  0  0  0  0  0  0  0
   10.0995  -16.4411  -16.4286 S   0  0  0  0  0  0  0  0  0  0  0  0
   11.8640  -13.9641  -16.8456 C   0  0  0  0  0  0  0  0  0  0  0  0
   12.1072  -12.8487  -16.0614 O   0  0  0  0  0  0  0  0  0  0  0  0
   11.0165  -13.8384  -17.7654 O   0  0  0  0  0  0  0  0  0  0  0  0
  2  1  1  1
  2  3  1  0
  2  8  1  0
  3  4  1  0
  5  4  1  0
  5  6  1  0
  6  7  1  0
  8 13  1  0
  9  8  2  0
 12 11  1  6
 11 10  1  0
 12 14  1  0
 13 12  1  0
 14 16  1  0
 14 15  2  0
 16 17  1  0
 17 18  1  1
 17 20  1  0
 18 19  1  0
 20 21  1  0
 22 20  2  0
M  END
$$$$
