KSC.pdb
     RDKit          3D

 22 21  0  0  1  0  0  0  0  0999 V2000
   16.6006   -9.7851  -10.6289 N   0  0  0  0  0  0  0  0  0  0  0  0
   16.8312   -9.3874  -11.9853 C   0  0  1  0  0  0  0  0  0  0  0  0
   15.7989   -8.3461  -12.4388 C   0  0  0  0  0  0  0  0  0  0  0  0
   14.5343   -9.1196  -12.7451 C   0  0  0  0  0  0  0  0  0  0  0  0
   13.3266   -8.5000  -12.0752 C   0  0  0  0  0  0  0  0  0  0  0  0
   12.1130   -9.3088  -12.5225 C   0  0  0  0  0  0  0  0  0  0  0  0
   10.8929   -8.7500  -11.9699 N   0  0  0  0  0  0  0  0  0  0  0  0
   18.1800   -8.8217  -12.1276 C   0  0  0  0  0  0  0  0  0  0  0  0
   18.6791   -8.2252  -11.1376 O   0  0  0  0  0  0  0  0  0  0  0  0
   20.1546   -9.6432  -15.4926 O   0  0  0  0  0  0  0  0  0  0  0  0
   20.9998   -9.2879  -14.4543 C   0  0  0  0  0  0  0  0  0  0  0  0
   20.2300   -8.4209  -13.4653 C   0  0  2  0  0  0  0  0  0  0  0  0
   18.8782   -8.9560  -13.3516 N   0  0  0  0  0  0  0  0  0  0  0  0
   20.1399   -7.0538  -14.0381 C   0  0  0  0  0  0  0  0  0  0  0  0
   19.1057   -6.7050  -14.7087 O   0  0  0  0  0  0  0  0  0  0  0  0
   21.1799   -6.1118  -13.8596 N   0  0  0  0  0  0  0  0  0  0  0  0
   21.0858   -4.7983  -14.4983 C   0  0  1  0  0  0  0  0  0  0  0  0
   22.0169   -3.8532  -13.7708 C   0  0  0  0  0  0  0  0  0  0  0  0
   21.4354   -2.1528  -13.8264 S   0  0  0  0  0  0  0  0  0  0  0  0
   21.5323   -4.9409  -15.9052 C   0  0  0  0  0  0  0  0  0  0  0  0
   21.1595   -4.0284  -16.8781 O   0  0  0  0  0  0  0  0  0  0  0  0
   22.2659   -5.8940  -16.2709 O   0  0  0  0  0  0  0  0  0  0  0  0
  2  1  1  1
  2  3  1  0
  2  8  1  0
  3  4  1  0
  5  4  1  0
  5  6  1  0
  6  7  1  0
  8 13  1  0
  9  8  2  0
 12 11  1  6
 11 10  1  0
 12 14  1  0
 13 12  1  0
 14 16  1  0
 14 15  2  0
 16 17  1  0
 17 18  1  1
 17 20  1  0
 18 19  1  0
 20 21  1  0
 22 20  2  0
M  END
$$$$
