KSC.pdb
     RDKit          3D

 22 21  0  0  1  0  0  0  0  0999 V2000
   21.2032  -12.3572  -17.7493 N   0  0  0  0  0  0  0  0  0  0  0  0
   20.2085  -11.8619  -16.8456 C   0  0  1  0  0  0  0  0  0  0  0  0
   19.4360  -13.0142  -16.1891 C   0  0  0  0  0  0  0  0  0  0  0  0
   18.6160  -13.6476  -17.2925 C   0  0  0  0  0  0  0  0  0  0  0  0
   17.4885  -12.7415  -17.7387 C   0  0  0  0  0  0  0  0  0  0  0  0
   16.7600  -13.4684  -18.8647 C   0  0  0  0  0  0  0  0  0  0  0  0
   15.6734  -12.6562  -19.3803 N   0  0  0  0  0  0  0  0  0  0  0  0
   20.8349  -11.0438  -15.7978 C   0  0  0  0  0  0  0  0  0  0  0  0
   20.2059  -10.8798  -14.7197 O   0  0  0  0  0  0  0  0  0  0  0  0
   24.8422  -10.4638  -14.7728 O   0  0  0  0  0  0  0  0  0  0  0  0
   24.1510   -9.3909  -15.3111 C   0  0  0  0  0  0  0  0  0  0  0  0
   22.6655   -9.5628  -15.0178 C   0  0  2  0  0  0  0  0  0  0  0  0
   22.1089  -10.4672  -16.0174 N   0  0  0  0  0  0  0  0  0  0  0  0
   22.0165   -8.2372  -15.1808 C   0  0  0  0  0  0  0  0  0  0  0  0
   21.7557   -7.7891  -16.3521 O   0  0  0  0  0  0  0  0  0  0  0  0
   21.6723   -7.4444  -14.0610 N   0  0  0  0  0  0  0  0  0  0  0  0
   20.9748   -6.1732  -14.2597 C   0  0  1  0  0  0  0  0  0  0  0  0
   19.9778   -6.0022  -13.1343 C   0  0  0  0  0  0  0  0  0  0  0  0
   18.7620   -7.3262  -13.0995 S   0  0  0  0  0  0  0  0  0  0  0  0
   21.9799   -5.0849  -14.1943 C   0  0  0  0  0  0  0  0  0  0  0  0
   21.6534   -3.7785  -14.5182 O   0  0  0  0  0  0  0  0  0  0  0  0
   23.1668   -5.3037  -13.8428 O   0  0  0  0  0  0  0  0  0  0  0  0
  2  1  1  6
  2  3  1  0
  2  8  1  0
  3  4  1  0
  5  4  1  0
  5  6  1  0
  6  7  1  0
  8 13  1  0
  9  8  2  0
 12 11  1  6
 11 10  1  0
 12 14  1  0
 13 12  1  0
 14 16  1  0
 14 15  2  0
 16 17  1  0
 17 18  1  1
 17 20  1  0
 18 19  1  0
 20 21  1  0
 22 20  2  0
M  END
$$$$
