KSC.pdb
     RDKit          3D

 22 21  0  0  1  0  0  0  0  0999 V2000
   23.5075  -19.9845  -14.3391 N   0  0  0  0  0  0  0  0  0  0  0  0
   23.0656  -19.2667  -15.4970 C   0  0  1  0  0  0  0  0  0  0  0  0
   21.6124  -18.7998  -15.3362 C   0  0  0  0  0  0  0  0  0  0  0  0
   20.7500  -19.9730  -15.7500 C   0  0  0  0  0  0  0  0  0  0  0  0
   20.7370  -20.1518  -17.2530 C   0  0  0  0  0  0  0  0  0  0  0  0
   19.7880  -21.3088  -17.5496 C   0  0  0  0  0  0  0  0  0  0  0  0
   19.8580  -21.6828  -18.9501 N   0  0  0  0  0  0  0  0  0  0  0  0
   23.9241  -18.0969  -15.7291 C   0  0  0  0  0  0  0  0  0  0  0  0
   24.1702  -17.3404  -14.7533 O   0  0  0  0  0  0  0  0  0  0  0  0
   27.3177  -16.0000  -18.2339 O   0  0  0  0  0  0  0  0  0  0  0  0
   26.4361  -17.0645  -18.1424 C   0  0  0  0  0  0  0  0  0  0  0  0
   25.2731  -16.6667  -17.2416 C   0  0  2  0  0  0  0  0  0  0  0  0
   24.4475  -17.8484  -17.0207 N   0  0  0  0  0  0  0  0  0  0  0  0
   24.4583  -15.6631  -17.9725 C   0  0  0  0  0  0  0  0  0  0  0  0
   23.5912  -16.0444  -18.8348 O   0  0  0  0  0  0  0  0  0  0  0  0
   24.6153  -14.2770  -17.7382 N   0  0  0  0  0  0  0  0  0  0  0  0
   23.7855  -13.3195  -18.4707 C   0  0  1  0  0  0  0  0  0  0  0  0
   23.4515  -12.1758  -17.5379 C   0  0  0  0  0  0  0  0  0  0  0  0
   22.4945  -10.8921  -18.3556 S   0  0  0  0  0  0  0  0  0  0  0  0
   24.5800  -12.8054  -19.6124 C   0  0  0  0  0  0  0  0  0  0  0  0
   23.9727  -12.2156  -20.7085 O   0  0  0  0  0  0  0  0  0  0  0  0
   25.8344  -12.8841  -19.6315 O   0  0  0  0  0  0  0  0  0  0  0  0
  2  1  1  1
  2  3  1  0
  2  8  1  0
  3  4  1  0
  5  4  1  0
  5  6  1  0
  6  7  1  0
  8 13  1  0
  9  8  2  0
 12 11  1  6
 11 10  1  0
 12 14  1  0
 13 12  1  0
 14 16  1  0
 14 15  2  0
 16 17  1  0
 17 18  1  1
 17 20  1  0
 18 19  1  0
 20 21  1  0
 22 20  2  0
M  END
$$$$
