KSC.pdb
     RDKit          3D

 22 21  0  0  1  0  0  0  0  0999 V2000
   30.4261  -31.1805  -17.1451 N   0  0  0  0  0  0  0  0  0  0  0  0
   29.1186  -31.0872  -16.5680 C   0  0  1  0  0  0  0  0  0  0  0  0
   28.1045  -30.5418  -17.5828 C   0  0  0  0  0  0  0  0  0  0  0  0
   28.5948  -29.1601  -17.9597 C   0  0  0  0  0  0  0  0  0  0  0  0
   28.1691  -28.1219  -16.9437 C   0  0  0  0  0  0  0  0  0  0  0  0
   28.5993  -26.7660  -17.4946 C   0  0  0  0  0  0  0  0  0  0  0  0
   28.2519  -25.7034  -16.5691 N   0  0  0  0  0  0  0  0  0  0  0  0
   28.6718  -32.4079  -16.1035 C   0  0  0  0  0  0  0  0  0  0  0  0
   29.3376  -33.4161  -16.4573 O   0  0  0  0  0  0  0  0  0  0  0  0
   25.2313  -32.5130  -14.1767 O   0  0  0  0  0  0  0  0  0  0  0  0
   25.9470  -33.6530  -13.8500 C   0  0  0  0  0  0  0  0  0  0  0  0
   27.0696  -33.8391  -14.8637 C   0  0  2  0  0  0  0  0  0  0  0  0
   27.5236  -32.5181  -15.2830 N   0  0  0  0  0  0  0  0  0  0  0  0
   26.4988  -34.5297  -16.0479 C   0  0  0  0  0  0  0  0  0  0  0  0
   25.8643  -33.8614  -16.9376 O   0  0  0  0  0  0  0  0  0  0  0  0
   26.6400  -35.9261  -16.2235 N   0  0  0  0  0  0  0  0  0  0  0  0
   26.1128  -36.5618  -17.4318 C   0  0  1  0  0  0  0  0  0  0  0  0
   27.0018  -37.7383  -17.7711 C   0  0  0  0  0  0  0  0  0  0  0  0
   28.6812  -37.2283  -18.1607 S   0  0  0  0  0  0  0  0  0  0  0  0
   24.7452  -37.0505  -17.1319 C   0  0  0  0  0  0  0  0  0  0  0  0
   23.8325  -37.3095  -18.1409 O   0  0  0  0  0  0  0  0  0  0  0  0
   24.3598  -37.2491  -15.9521 O   0  0  0  0  0  0  0  0  0  0  0  0
  2  1  1  6
  2  3  1  0
  2  8  1  0
  3  4  1  0
  5  4  1  0
  5  6  1  0
  6  7  1  0
  8 13  1  0
  9  8  2  0
 12 11  1  1
 11 10  1  0
 12 14  1  0
 13 12  1  0
 14 16  1  0
 14 15  2  0
 16 17  1  0
 17 18  1  1
 17 20  1  0
 18 19  1  0
 20 21  1  0
 22 20  2  0
M  END
$$$$
