KSC.pdb
     RDKit          3D

 22 21  0  0  1  0  0  0  0  0999 V2000
   16.0417  -13.4359  -15.4267 N   0  0  0  0  0  0  0  0  0  0  0  0
   17.1048  -12.5270  -15.7350 C   0  0  1  0  0  0  0  0  0  0  0  0
   17.8739  -12.9797  -16.9837 C   0  0  0  0  0  0  0  0  0  0  0  0
   17.9216  -14.4912  -16.9180 C   0  0  0  0  0  0  0  0  0  0  0  0
   19.2188  -14.9815  -16.3114 C   0  0  0  0  0  0  0  0  0  0  0  0
   19.1901  -16.5050  -16.3852 C   0  0  0  0  0  0  0  0  0  0  0  0
   20.3596  -17.0714  -15.7389 N   0  0  0  0  0  0  0  0  0  0  0  0
   16.5706  -11.1770  -15.9618 C   0  0  0  0  0  0  0  0  0  0  0  0
   15.4848  -11.0679  -16.5895 O   0  0  0  0  0  0  0  0  0  0  0  0
   16.9436   -8.5876  -13.3436 O   0  0  0  0  0  0  0  0  0  0  0  0
   16.1050   -8.2383  -14.3893 C   0  0  0  0  0  0  0  0  0  0  0  0
   16.7225   -8.7152  -15.6983 C   0  0  2  0  0  0  0  0  0  0  0  0
   17.2740  -10.0474  -15.4791 N   0  0  0  0  0  0  0  0  0  0  0  0
   17.8434   -7.7990  -16.0291 C   0  0  0  0  0  0  0  0  0  0  0  0
   18.9855   -7.9530  -15.4700 O   0  0  0  0  0  0  0  0  0  0  0  0
   17.6821   -6.7460  -16.9596 N   0  0  0  0  0  0  0  0  0  0  0  0
   18.7979   -5.8373  -17.2267 C   0  0  1  0  0  0  0  0  0  0  0  0
   18.5452   -5.1593  -18.5557 C   0  0  0  0  0  0  0  0  0  0  0  0
   18.3301   -6.3443  -19.8906 S   0  0  0  0  0  0  0  0  0  0  0  0
   18.8233   -4.8160  -16.1518 C   0  0  0  0  0  0  0  0  0  0  0  0
   19.8343   -3.8726  -16.0746 O   0  0  0  0  0  0  0  0  0  0  0  0
   17.9298   -4.7654  -15.2691 O   0  0  0  0  0  0  0  0  0  0  0  0
  2  1  1  6
  2  3  1  0
  2  8  1  0
  3  4  1  0
  5  4  1  0
  5  6  1  0
  6  7  1  0
  8 13  1  0
  9  8  2  0
 12 11  1  1
 11 10  1  0
 12 14  1  0
 13 12  1  0
 14 16  1  0
 14 15  2  0
 16 17  1  0
 17 18  1  6
 17 20  1  0
 18 19  1  0
 20 21  1  0
 22 20  2  0
M  END
$$$$
