KSC.pdb
     RDKit          3D

 22 21  0  0  1  0  0  0  0  0999 V2000
   22.0769  -14.4115  -17.3822 N   0  0  0  0  0  0  0  0  0  0  0  0
   21.1429  -13.3277  -17.3154 C   0  0  1  0  0  0  0  0  0  0  0  0
   19.8605  -13.7479  -16.5844 C   0  0  0  0  0  0  0  0  0  0  0  0
   19.2045  -14.7926  -17.4617 C   0  0  0  0  0  0  0  0  0  0  0  0
   17.8286  -15.1638  -16.9517 C   0  0  0  0  0  0  0  0  0  0  0  0
   17.2151  -16.1024  -17.9859 C   0  0  0  0  0  0  0  0  0  0  0  0
   15.8490  -16.4368  -17.6279 N   0  0  0  0  0  0  0  0  0  0  0  0
   21.7419  -12.1820  -16.6166 C   0  0  0  0  0  0  0  0  0  0  0  0
   22.5612  -12.4164  -15.6899 O   0  0  0  0  0  0  0  0  0  0  0  0
   22.0130   -8.7078  -18.4825 O   0  0  0  0  0  0  0  0  0  0  0  0
   22.8504   -8.9858  -17.4147 C   0  0  0  0  0  0  0  0  0  0  0  0
   22.0603   -9.7366  -16.3497 C   0  0  2  0  0  0  0  0  0  0  0  0
   21.3924  -10.8627  -16.9921 N   0  0  0  0  0  0  0  0  0  0  0  0
   21.0179   -8.8165  -15.8282 C   0  0  0  0  0  0  0  0  0  0  0  0
   19.9254   -8.6502  -16.4760 O   0  0  0  0  0  0  0  0  0  0  0  0
   21.2007   -8.1092  -14.6170 N   0  0  0  0  0  0  0  0  0  0  0  0
   20.1942   -7.1381  -14.1856 C   0  0  1  0  0  0  0  0  0  0  0  0
   20.2671   -7.0224  -12.6786 C   0  0  0  0  0  0  0  0  0  0  0  0
   19.7190   -8.5245  -11.8566 S   0  0  0  0  0  0  0  0  0  0  0  0
   20.5311   -5.8289  -14.7951 C   0  0  0  0  0  0  0  0  0  0  0  0
   21.6575   -5.6674  -15.5846 O   0  0  0  0  0  0  0  0  0  0  0  0
   19.8093   -4.8148  -14.6201 O   0  0  0  0  0  0  0  0  0  0  0  0
  2  1  1  1
  2  3  1  0
  2  8  1  0
  3  4  1  0
  5  4  1  0
  5  6  1  0
  6  7  1  0
  8 13  1  0
  9  8  2  0
 12 11  1  6
 11 10  1  0
 12 14  1  0
 13 12  1  0
 14 16  1  0
 14 15  2  0
 16 17  1  0
 17 18  1  1
 17 20  1  0
 18 19  1  0
 20 21  1  0
 22 20  2  0
M  END
$$$$
