KSC.pdb
     RDKit          3D

 22 21  0  0  1  0  0  0  0  0999 V2000
   17.2364  -12.3628  -14.0819 N   0  0  0  0  0  0  0  0  0  0  0  0
   17.7020  -11.5277  -15.1483 C   0  0  1  0  0  0  0  0  0  0  0  0
   16.5933  -11.2801  -16.1804 C   0  0  0  0  0  0  0  0  0  0  0  0
   15.8279  -12.5815  -16.2895 C   0  0  0  0  0  0  0  0  0  0  0  0
   15.6136  -12.9820  -17.7334 C   0  0  0  0  0  0  0  0  0  0  0  0
   14.7536  -14.2419  -17.7168 C   0  0  0  0  0  0  0  0  0  0  0  0
   14.6484  -14.8080  -19.0489 N   0  0  0  0  0  0  0  0  0  0  0  0
   18.1642  -10.2370  -14.6193 C   0  0  0  0  0  0  0  0  0  0  0  0
   17.4599   -9.6699  -13.7435 O   0  0  0  0  0  0  0  0  0  0  0  0
   21.8353   -9.0943  -15.6015 O   0  0  0  0  0  0  0  0  0  0  0  0
   21.3602   -8.4556  -14.4678 C   0  0  0  0  0  0  0  0  0  0  0  0
   19.8382   -8.4089  -14.5283 C   0  0  2  0  0  0  0  0  0  0  0  0
   19.3694   -9.6677  -15.0961 N   0  0  0  0  0  0  0  0  0  0  0  0
   19.4565   -7.3128  -15.4547 C   0  0  0  0  0  0  0  0  0  0  0  0
   19.3019   -7.5517  -16.7036 O   0  0  0  0  0  0  0  0  0  0  0  0
   19.2548   -5.9927  -14.9883 N   0  0  0  0  0  0  0  0  0  0  0  0
   18.8717   -4.9412  -15.9315 C   0  0  1  0  0  0  0  0  0  0  0  0
   17.3717   -4.7597  -15.8506 C   0  0  0  0  0  0  0  0  0  0  0  0
   16.8263   -3.2546  -16.6689 S   0  0  0  0  0  0  0  0  0  0  0  0
   19.5412   -3.6858  -15.5135 C   0  0  0  0  0  0  0  0  0  0  0  0
   19.9135   -2.7229  -16.4367 O   0  0  0  0  0  0  0  0  0  0  0  0
   19.7973   -3.4454  -14.3066 O   0  0  0  0  0  0  0  0  0  0  0  0
  2  1  1  1
  2  3  1  0
  2  8  1  0
  3  4  1  0
  5  4  1  0
  5  6  1  0
  6  7  1  0
  8 13  1  0
  9  8  2  0
 12 11  1  6
 11 10  1  0
 12 14  1  0
 13 12  1  0
 14 16  1  0
 14 15  2  0
 16 17  1  0
 17 18  1  1
 17 20  1  0
 18 19  1  0
 20 21  1  0
 22 20  2  0
M  END
$$$$
