KSC.pdb
     RDKit          3D

 22 21  0  0  1  0  0  0  0  0999 V2000
   18.9473  -13.3363  -16.5722 N   0  0  0  0  0  0  0  0  0  0  0  0
   19.7233  -12.3293  -17.2319 C   0  0  1  0  0  0  0  0  0  0  0  0
   18.9872  -11.7830  -18.4630 C   0  0  0  0  0  0  0  0  0  0  0  0
   17.7901  -12.6865  -18.6671 C   0  0  0  0  0  0  0  0  0  0  0  0
   18.0555  -13.7309  -19.7302 C   0  0  0  0  0  0  0  0  0  0  0  0
   16.7479  -14.4886  -19.9378 C   0  0  0  0  0  0  0  0  0  0  0  0
   16.9496  -15.6281  -20.8137 N   0  0  0  0  0  0  0  0  0  0  0  0
   20.0080  -11.2209  -16.3101 C   0  0  0  0  0  0  0  0  0  0  0  0
   19.1533  -10.9524  -15.4255 O   0  0  0  0  0  0  0  0  0  0  0  0
   23.5876   -9.3244  -16.6076 O   0  0  0  0  0  0  0  0  0  0  0  0
   23.0315   -9.3377  -15.3390 C   0  0  0  0  0  0  0  0  0  0  0  0
   21.5164   -9.4425  -15.4648 C   0  0  2  0  0  0  0  0  0  0  0  0
   21.2145  -10.4909  -16.4326 N   0  0  0  0  0  0  0  0  0  0  0  0
   21.0182   -8.1535  -16.0084 C   0  0  0  0  0  0  0  0  0  0  0  0
   20.8376   -8.0147  -17.2690 O   0  0  0  0  0  0  0  0  0  0  0  0
   20.7322   -7.0589  -15.1594 N   0  0  0  0  0  0  0  0  0  0  0  0
   20.3467   -5.7722  -15.7404 C   0  0  1  0  0  0  0  0  0  0  0  0
   18.8620   -5.5815  -15.5191 C   0  0  0  0  0  0  0  0  0  0  0  0
   18.3342   -3.9004  -15.8762 S   0  0  0  0  0  0  0  0  0  0  0  0
   21.0902   -4.7066  -15.0257 C   0  0  0  0  0  0  0  0  0  0  0  0
   21.4943   -3.5496  -15.6709 O   0  0  0  0  0  0  0  0  0  0  0  0
   21.3831   -4.8101  -13.8077 O   0  0  0  0  0  0  0  0  0  0  0  0
  2  1  1  1
  2  3  1  0
  2  8  1  0
  3  4  1  0
  5  4  1  0
  5  6  1  0
  6  7  1  0
  8 13  1  0
  9  8  2  0
 12 11  1  6
 11 10  1  0
 12 14  1  0
 13 12  1  0
 14 16  1  0
 14 15  2  0
 16 17  1  0
 17 18  1  1
 17 20  1  0
 18 19  1  0
 20 21  1  0
 22 20  2  0
M  END
$$$$
