KSC.pdb
     RDKit          3D

 22 21  0  0  1  0  0  0  0  0999 V2000
   18.8126  -19.2973  -15.2883 N   0  0  0  0  0  0  0  0  0  0  0  0
   18.6946  -18.1997  -16.2009 C   0  0  1  0  0  0  0  0  0  0  0  0
   17.3464  -18.2329  -16.9335 C   0  0  0  0  0  0  0  0  0  0  0  0
   17.3441  -19.5117  -17.7435 C   0  0  0  0  0  0  0  0  0  0  0  0
   16.4289  -20.5535  -17.1367 C   0  0  0  0  0  0  0  0  0  0  0  0
   16.3880  -21.7247  -18.1133 C   0  0  0  0  0  0  0  0  0  0  0  0
   15.4955  -22.7627  -17.6315 N   0  0  0  0  0  0  0  0  0  0  0  0
   18.8205  -16.9243  -15.4819 C   0  0  0  0  0  0  0  0  0  0  0  0
   18.1433  -16.7672  -14.4323 O   0  0  0  0  0  0  0  0  0  0  0  0
   22.0496  -14.9012  -16.1095 O   0  0  0  0  0  0  0  0  0  0  0  0
   21.3675  -14.5079  -14.9698 C   0  0  0  0  0  0  0  0  0  0  0  0
   19.8727  -14.6960  -15.1991 C   0  0  2  0  0  0  0  0  0  0  0  0
   19.6842  -15.9168  -15.9743 N   0  0  0  0  0  0  0  0  0  0  0  0
   19.3934  -13.5513  -16.0146 C   0  0  0  0  0  0  0  0  0  0  0  0
   19.4521  -13.6040  -17.2931 O   0  0  0  0  0  0  0  0  0  0  0  0
   18.8647  -12.3874  -15.4090 N   0  0  0  0  0  0  0  0  0  0  0  0
   18.4916  -11.2428  -16.2413 C   0  0  1  0  0  0  0  0  0  0  0  0
   17.7369  -10.2574  -15.3758 C   0  0  0  0  0  0  0  0  0  0  0  0
   17.3500   -8.7391  -16.2574 S   0  0  0  0  0  0  0  0  0  0  0  0
   19.7388  -10.6091  -16.7331 C   0  0  0  0  0  0  0  0  0  0  0  0
   20.8560  -10.4876  -15.9235 O   0  0  0  0  0  0  0  0  0  0  0  0
   19.8323  -10.1574  -17.9024 O   0  0  0  0  0  0  0  0  0  0  0  0
  2  1  1  1
  2  3  1  0
  2  8  1  0
  3  4  1  0
  5  4  1  0
  5  6  1  0
  6  7  1  0
  8 13  1  0
  9  8  2  0
 12 11  1  6
 11 10  1  0
 12 14  1  0
 13 12  1  0
 14 16  1  0
 14 15  2  0
 16 17  1  0
 17 18  1  1
 17 20  1  0
 18 19  1  0
 20 21  1  0
 22 20  2  0
M  END
$$$$
