KSC.pdb
     RDKit          3D

 22 21  0  0  1  0  0  0  0  0999 V2000
   19.9967  -14.1278  -16.6925 N   0  0  0  0  0  0  0  0  0  0  0  0
   19.6394  -12.8358  -17.1970 C   0  0  1  0  0  0  0  0  0  0  0  0
   18.1852  -12.8172  -17.6876 C   0  0  0  0  0  0  0  0  0  0  0  0
   18.1482  -13.7036  -18.9140 C   0  0  0  0  0  0  0  0  0  0  0  0
   17.2868  -14.9280  -18.6904 C   0  0  0  0  0  0  0  0  0  0  0  0
   17.2832  -15.7080  -20.0014 C   0  0  0  0  0  0  0  0  0  0  0  0
   16.5996  -16.9781  -19.8400 N   0  0  0  0  0  0  0  0  0  0  0  0
   19.8078  -11.8168  -16.1517 C   0  0  0  0  0  0  0  0  0  0  0  0
   19.6296  -12.1622  -14.9542 O   0  0  0  0  0  0  0  0  0  0  0  0
   21.0386   -8.0073  -17.1738 O   0  0  0  0  0  0  0  0  0  0  0  0
   21.4994   -8.5518  -15.9863 C   0  0  0  0  0  0  0  0  0  0  0  0
   20.4571   -9.5271  -15.4528 C   0  0  2  0  0  0  0  0  0  0  0  0
   20.1604  -10.4922  -16.5051 N   0  0  0  0  0  0  0  0  0  0  0  0
   19.2199   -8.7560  -15.1700 C   0  0  0  0  0  0  0  0  0  0  0  0
   18.3184   -8.6342  -16.0719 O   0  0  0  0  0  0  0  0  0  0  0  0
   19.0060   -8.1442  -13.9127 N   0  0  0  0  0  0  0  0  0  0  0  0
   17.7867   -7.3684  -13.6821 C   0  0  1  0  0  0  0  0  0  0  0  0
   17.5548   -7.2885  -12.1889 C   0  0  0  0  0  0  0  0  0  0  0  0
   17.2084   -8.8996  -11.4701 S   0  0  0  0  0  0  0  0  0  0  0  0
   18.0049   -6.0032  -14.2184 C   0  0  0  0  0  0  0  0  0  0  0  0
   16.9874   -5.0639  -14.2408 O   0  0  0  0  0  0  0  0  0  0  0  0
   19.1203   -5.6440  -14.6735 O   0  0  0  0  0  0  0  0  0  0  0  0
  2  1  1  1
  2  3  1  0
  2  8  1  0
  3  4  1  0
  5  4  1  0
  5  6  1  0
  6  7  1  0
  8 13  1  0
  9  8  2  0
 12 11  1  6
 11 10  1  0
 12 14  1  0
 13 12  1  0
 14 16  1  0
 14 15  2  0
 16 17  1  0
 17 18  1  1
 17 20  1  0
 18 19  1  0
 20 21  1  0
 22 20  2  0
M  END
$$$$
