MMQ.pdb
     RDKit          3D

 26 25  0  0  1  0  0  0  0  0999 V2000
    6.3870  -11.9655   26.7269 C   0  0  0  0  0  0  0  0  0  0  0  0
    7.0227  -13.4917   26.0678 S   0  0  0  0  0  0  0  0  0  0  0  0
    6.8339  -14.9338   27.0873 C   0  0  0  0  0  0  0  0  0  0  0  0
    7.4239  -16.1465   26.4317 C   0  0  0  0  0  0  0  0  0  0  0  0
    6.6666  -16.6564   25.2498 C   0  0  2  0  0  0  0  0  0  0  0  0
    6.1243  -17.9709   25.4995 N   0  0  0  0  0  0  0  0  0  0  0  0
    7.6434  -16.7067   24.1085 C   0  0  0  0  0  0  0  0  0  0  0  0
    8.3375  -17.7272   23.9818 O   0  0  0  0  0  0  0  0  0  0  0  0
    8.4114  -12.5741   18.8774 C   0  0  0  0  0  0  0  0  0  0  0  0
    6.8604  -13.3833   19.3619 S   0  0  0  0  0  0  0  0  0  0  0  0
    7.2648  -14.7346   20.5016 C   0  0  0  0  0  0  0  0  0  0  0  0
    8.4944  -14.3613   21.3125 C   0  0  0  0  0  0  0  0  0  0  0  0
    8.7954  -15.5228   22.2197 C   0  0  2  0  0  0  0  0  0  0  0  0
    7.7566  -15.6220   23.2184 N   0  0  0  0  0  0  0  0  0  0  0  0
   10.1351  -15.3819   22.8803 C   0  0  0  0  0  0  0  0  0  0  0  0
   10.2803  -14.7042   23.9191 O   0  0  0  0  0  0  0  0  0  0  0  0
   11.2765  -19.9311   25.5927 N   0  0  0  0  0  0  0  0  0  0  0  0
   12.2548  -18.9793   26.0314 C   0  0  0  0  0  0  0  0  0  0  0  0
   12.5582  -18.9345   27.2486 O   0  0  0  0  0  0  0  0  0  0  0  0
   12.8473  -18.1061   25.0192 C   0  0  0  0  0  0  0  0  0  0  0  0
   11.8589  -17.5363   24.0648 C   0  0  0  0  0  0  0  0  0  0  0  0
   12.3802  -16.5182   23.1088 C   0  0  2  0  0  0  0  0  0  0  0  0
   11.2540  -16.0368   22.3048 N   0  0  0  0  0  0  0  0  0  0  0  0
   13.4136  -17.0617   22.2041 C   0  0  0  0  0  0  0  0  0  0  0  0
   14.7571  -16.7757   22.4343 O   0  0  0  0  0  0  0  0  0  0  0  0
   13.1555  -17.7835   21.2150 O   0  0  0  0  0  0  0  0  0  0  0  0
  2  1  1  0
  3  2  1  0
  4  3  1  0
  4  5  1  0
  5  6  1  1
  7  5  1  0
  7  8  2  0
 10  9  1  0
 11 10  1  0
 12 11  1  0
 13 12  1  6
 13 14  1  0
 14  7  1  0
 15 13  1  0
 16 15  2  0
 18 17  1  0
 18 19  2  0
 20 18  1  0
 21 20  1  0
 22 21  1  1
 22 24  1  0
 22 23  1  0
 23 15  1  0
 24 25  1  0
 26 24  2  0
M  END
$$$$
