MMQ.pdb
     RDKit          3D

 26 25  0  0  1  0  0  0  0  0999 V2000
    7.3629  -20.6200   21.5922 C   0  0  0  0  0  0  0  0  0  0  0  0
    7.3433  -20.2615   19.8489 S   0  0  0  0  0  0  0  0  0  0  0  0
    7.4117  -18.5464   19.3927 C   0  0  0  0  0  0  0  0  0  0  0  0
    8.0109  -17.7142   20.4867 C   0  0  0  0  0  0  0  0  0  0  0  0
    8.0092  -16.2424   20.2332 C   0  0  2  0  0  0  0  0  0  0  0  0
    8.8698  -15.8982   19.1263 N   0  0  0  0  0  0  0  0  0  0  0  0
    8.5033  -15.5931   21.4955 C   0  0  0  0  0  0  0  0  0  0  0  0
    9.7289  -15.5393   21.6805 O   0  0  0  0  0  0  0  0  0  0  0  0
    6.5417  -11.5708   27.9543 C   0  0  0  0  0  0  0  0  0  0  0  0
    5.9198  -12.3153   26.4200 S   0  0  0  0  0  0  0  0  0  0  0  0
    7.2947  -13.1878   25.6223 C   0  0  0  0  0  0  0  0  0  0  0  0
    6.8324  -13.7465   24.2870 C   0  0  0  0  0  0  0  0  0  0  0  0
    7.9965  -14.4904   23.6918 C   0  0  2  0  0  0  0  0  0  0  0  0
    7.5922  -15.0662   22.4303 N   0  0  0  0  0  0  0  0  0  0  0  0
    8.5016  -15.5632   24.6109 C   0  0  0  0  0  0  0  0  0  0  0  0
    7.8212  -16.5805   24.8597 O   0  0  0  0  0  0  0  0  0  0  0  0
   14.2694  -16.7261   23.8515 N   0  0  0  0  0  0  0  0  0  0  0  0
   14.1218  -17.5772   24.9958 C   0  0  0  0  0  0  0  0  0  0  0  0
   15.0857  -18.3014   25.3449 O   0  0  0  0  0  0  0  0  0  0  0  0
   12.8383  -17.5492   25.6958 C   0  0  0  0  0  0  0  0  0  0  0  0
   11.8744  -16.5601   25.1433 C   0  0  0  0  0  0  0  0  0  0  0  0
   10.5230  -16.5379   25.7719 C   0  0  2  0  0  0  0  0  0  0  0  0
    9.7806  -15.4094   25.2046 N   0  0  0  0  0  0  0  0  0  0  0  0
   10.5791  -16.3817   27.2397 C   0  0  0  0  0  0  0  0  0  0  0  0
   11.0552  -17.4245   28.0306 O   0  0  0  0  0  0  0  0  0  0  0  0
   10.2169  -15.3442   27.8383 O   0  0  0  0  0  0  0  0  0  0  0  0
  2  1  1  0
  3  2  1  0
  4  3  1  0
  4  5  1  0
  5  6  1  6
  7  5  1  0
  7  8  2  0
 10  9  1  0
 11 10  1  0
 12 11  1  0
 13 12  1  1
 13 14  1  0
 14  7  1  0
 15 13  1  0
 16 15  2  0
 18 17  1  0
 18 19  2  0
 20 18  1  0
 21 20  1  0
 22 21  1  6
 22 24  1  0
 22 23  1  0
 23 15  1  0
 24 25  1  0
 26 24  2  0
M  END
$$$$
