MMQ.pdb
     RDKit          3D

 26 25  0  0  1  0  0  0  0  0999 V2000
    5.6787  -18.0148   18.1042 C   0  0  0  0  0  0  0  0  0  0  0  0
    6.4360  -16.4042   18.1223 S   0  0  0  0  0  0  0  0  0  0  0  0
    8.1855  -16.3554   18.4248 C   0  0  0  0  0  0  0  0  0  0  0  0
    8.4976  -15.6455   19.7082 C   0  0  0  0  0  0  0  0  0  0  0  0
    8.6200  -16.5301   20.9052 C   0  0  2  0  0  0  0  0  0  0  0  0
    7.3920  -17.2461   21.1581 N   0  0  0  0  0  0  0  0  0  0  0  0
    8.9451  -15.6323   22.0659 C   0  0  0  0  0  0  0  0  0  0  0  0
   10.0421  -15.0529   22.0634 O   0  0  0  0  0  0  0  0  0  0  0  0
    6.5390  -11.2434   27.9956 C   0  0  0  0  0  0  0  0  0  0  0  0
    6.0373  -12.2075   26.5416 S   0  0  0  0  0  0  0  0  0  0  0  0
    7.4587  -13.1992   26.0083 C   0  0  0  0  0  0  0  0  0  0  0  0
    7.0887  -13.9828   24.7601 C   0  0  0  0  0  0  0  0  0  0  0  0
    8.3226  -14.7221   24.3200 C   0  0  2  0  0  0  0  0  0  0  0  0
    8.0237  -15.4632   23.1167 N   0  0  0  0  0  0  0  0  0  0  0  0
    8.8270  -15.6497   25.3858 C   0  0  0  0  0  0  0  0  0  0  0  0
    8.1773  -16.6588   25.7310 O   0  0  0  0  0  0  0  0  0  0  0  0
   14.8024  -16.0522   25.6566 N   0  0  0  0  0  0  0  0  0  0  0  0
   13.8887  -16.5827   24.6874 C   0  0  0  0  0  0  0  0  0  0  0  0
   14.2853  -16.7614   23.5100 O   0  0  0  0  0  0  0  0  0  0  0  0
   12.5308  -16.8870   25.1367 C   0  0  0  0  0  0  0  0  0  0  0  0
   12.2038  -16.3334   26.4779 C   0  0  0  0  0  0  0  0  0  0  0  0
   10.7623  -16.3384   26.8571 C   0  0  2  0  0  0  0  0  0  0  0  0
   10.0696  -15.3656   26.0082 N   0  0  0  0  0  0  0  0  0  0  0  0
   10.5434  -15.9766   28.2725 C   0  0  0  0  0  0  0  0  0  0  0  0
   10.9985  -16.8206   29.2825 O   0  0  0  0  0  0  0  0  0  0  0  0
    9.9592  -14.9314   28.6360 O   0  0  0  0  0  0  0  0  0  0  0  0
  2  1  1  0
  3  2  1  0
  4  3  1  0
  4  5  1  0
  5  6  1  1
  7  5  1  0
  7  8  2  0
 10  9  1  0
 11 10  1  0
 12 11  1  0
 13 12  1  1
 13 14  1  0
 14  7  1  0
 15 13  1  0
 16 15  2  0
 18 17  1  0
 18 19  2  0
 20 18  1  0
 21 20  1  0
 22 21  1  6
 22 24  1  0
 22 23  1  0
 23 15  1  0
 24 25  1  0
 26 24  2  0
M  END
$$$$
