MMQ.pdb
     RDKit          3D

 26 25  0  0  1  0  0  0  0  0999 V2000
    7.2420  -20.1927   21.0493 C   0  0  0  0  0  0  0  0  0  0  0  0
    7.0342  -19.5050   19.4209 S   0  0  0  0  0  0  0  0  0  0  0  0
    7.0365  -17.7327   19.3038 C   0  0  0  0  0  0  0  0  0  0  0  0
    7.4694  -17.1014   20.5932 C   0  0  0  0  0  0  0  0  0  0  0  0
    7.3694  -15.6117   20.6314 C   0  0  2  0  0  0  0  0  0  0  0  0
    7.9142  -15.0170   19.4340 N   0  0  0  0  0  0  0  0  0  0  0  0
    8.1511  -15.1639   21.8345 C   0  0  0  0  0  0  0  0  0  0  0  0
    9.3727  -14.9920   21.7033 O   0  0  0  0  0  0  0  0  0  0  0  0
    6.5092  -12.4723   27.7838 C   0  0  0  0  0  0  0  0  0  0  0  0
    5.8115  -11.9885   26.1793 S   0  0  0  0  0  0  0  0  0  0  0  0
    6.8154  -12.7535   24.8773 C   0  0  0  0  0  0  0  0  0  0  0  0
    7.2313  -14.1484   25.3133 C   0  0  0  0  0  0  0  0  0  0  0  0
    8.2107  -14.6577   24.2915 C   0  0  2  0  0  0  0  0  0  0  0  0
    7.5039  -14.9498   23.0662 N   0  0  0  0  0  0  0  0  0  0  0  0
    8.9351  -15.8798   24.7738 C   0  0  0  0  0  0  0  0  0  0  0  0
    8.3831  -17.0000   24.7885 O   0  0  0  0  0  0  0  0  0  0  0  0
   14.8556  -15.7966   23.5627 N   0  0  0  0  0  0  0  0  0  0  0  0
   14.8771  -17.0022   24.3384 C   0  0  0  0  0  0  0  0  0  0  0  0
   15.9655  -17.6081   24.4925 O   0  0  0  0  0  0  0  0  0  0  0  0
   13.6111  -17.4587   24.9102 C   0  0  0  0  0  0  0  0  0  0  0  0
   12.4866  -16.5041   24.7185 C   0  0  0  0  0  0  0  0  0  0  0  0
   11.1822  -16.8953   25.3245 C   0  0  2  0  0  0  0  0  0  0  0  0
   10.2751  -15.7494   25.2201 N   0  0  0  0  0  0  0  0  0  0  0  0
   11.3053  -17.2775   26.7460 C   0  0  0  0  0  0  0  0  0  0  0  0
   11.9822  -18.4437   27.0946 O   0  0  0  0  0  0  0  0  0  0  0  0
   10.8281  -16.6038   27.6863 O   0  0  0  0  0  0  0  0  0  0  0  0
  2  1  1  0
  3  2  1  0
  4  3  1  0
  4  5  1  0
  5  6  1  6
  7  5  1  0
  7  8  2  0
 10  9  1  0
 11 10  1  0
 12 11  1  0
 13 12  1  1
 13 14  1  0
 14  7  1  0
 15 13  1  0
 16 15  2  0
 18 17  1  0
 18 19  2  0
 20 18  1  0
 21 20  1  0
 22 21  1  1
 22 24  1  0
 22 23  1  0
 23 15  1  0
 24 25  1  0
 26 24  2  0
M  END
$$$$
