MMQ.pdb
     RDKit          3D

 26 25  0  0  1  0  0  0  0  0999 V2000
    8.5105  -11.7574   19.3485 C   0  0  0  0  0  0  0  0  0  0  0  0
    7.8223  -13.2375   18.6388 S   0  0  0  0  0  0  0  0  0  0  0  0
    7.8428  -14.6894   19.6615 C   0  0  0  0  0  0  0  0  0  0  0  0
    8.5931  -14.4476   20.9372 C   0  0  0  0  0  0  0  0  0  0  0  0
    8.8094  -15.6602   21.7817 C   0  0  2  0  0  0  0  0  0  0  0  0
    7.6662  -16.5410   21.7403 N   0  0  0  0  0  0  0  0  0  0  0  0
    9.0335  -15.1673   23.1838 C   0  0  0  0  0  0  0  0  0  0  0  0
   10.1495  -14.7043   23.4659 O   0  0  0  0  0  0  0  0  0  0  0  0
    7.4411  -11.2112   27.7626 C   0  0  0  0  0  0  0  0  0  0  0  0
    6.1019  -11.6938   26.6361 S   0  0  0  0  0  0  0  0  0  0  0  0
    6.7872  -12.8378   25.4074 C   0  0  0  0  0  0  0  0  0  0  0  0
    6.8840  -14.2291   26.0105 C   0  0  0  0  0  0  0  0  0  0  0  0
    8.1678  -14.8374   25.5158 C   0  0  2  0  0  0  0  0  0  0  0  0
    8.0001  -15.2349   24.1373 N   0  0  0  0  0  0  0  0  0  0  0  0
    8.5830  -16.0158   26.3463 C   0  0  0  0  0  0  0  0  0  0  0  0
    8.6114  -15.9554   27.5934 O   0  0  0  0  0  0  0  0  0  0  0  0
    5.9010  -21.0101   25.7381 N   0  0  0  0  0  0  0  0  0  0  0  0
    6.9588  -21.5706   26.5270 C   0  0  0  0  0  0  0  0  0  0  0  0
    6.8421  -22.7442   26.9568 O   0  0  0  0  0  0  0  0  0  0  0  0
    8.1255  -20.7282   26.7867 C   0  0  0  0  0  0  0  0  0  0  0  0
    8.0340  -19.3726   26.1813 C   0  0  0  0  0  0  0  0  0  0  0  0
    9.1932  -18.4666   26.4208 C   0  0  2  0  0  0  0  0  0  0  0  0
    8.9488  -17.2197   25.6913 N   0  0  0  0  0  0  0  0  0  0  0  0
   10.4730  -19.0440   25.9620 C   0  0  0  0  0  0  0  0  0  0  0  0
   11.2059  -19.8690   26.8115 O   0  0  0  0  0  0  0  0  0  0  0  0
   10.9575  -18.8356   24.8272 O   0  0  0  0  0  0  0  0  0  0  0  0
  2  1  1  0
  3  2  1  0
  4  3  1  0
  4  5  1  0
  5  6  1  1
  7  5  1  0
  7  8  2  0
 10  9  1  0
 11 10  1  0
 12 11  1  0
 13 12  1  1
 13 14  1  0
 14  7  1  0
 15 13  1  0
 16 15  2  0
 18 17  1  0
 18 19  2  0
 20 18  1  0
 21 20  1  0
 22 21  1  6
 22 24  1  0
 22 23  1  0
 23 15  1  0
 24 25  1  0
 26 24  2  0
M  END
$$$$
