MMQ.pdb
     RDKit          3D

 26 25  0  0  1  0  0  0  0  0999 V2000
    7.4158  -11.3825   19.7972 C   0  0  0  0  0  0  0  0  0  0  0  0
    7.1505  -12.8175   18.7783 S   0  0  0  0  0  0  0  0  0  0  0  0
    7.7687  -14.3595   19.4063 C   0  0  0  0  0  0  0  0  0  0  0  0
    8.5269  -14.1632   20.6850 C   0  0  0  0  0  0  0  0  0  0  0  0
    9.0392  -15.4172   21.3139 C   0  0  2  0  0  0  0  0  0  0  0  0
    8.0102  -16.4270   21.3882 N   0  0  0  0  0  0  0  0  0  0  0  0
    9.4991  -15.0429   22.6951 C   0  0  0  0  0  0  0  0  0  0  0  0
   10.0750  -13.9538   22.8410 O   0  0  0  0  0  0  0  0  0  0  0  0
    7.2286  -11.0599   26.1148 C   0  0  0  0  0  0  0  0  0  0  0  0
    6.4088  -12.6358   26.4885 S   0  0  0  0  0  0  0  0  0  0  0  0
    7.6704  -13.9383   26.4890 C   0  0  0  0  0  0  0  0  0  0  0  0
    7.9135  -14.4075   25.0643 C   0  0  0  0  0  0  0  0  0  0  0  0
    8.9982  -15.4482   25.1202 C   0  0  2  0  0  0  0  0  0  0  0  0
    9.2763  -15.9111   23.7806 N   0  0  0  0  0  0  0  0  0  0  0  0
    8.6173  -16.6041   25.9975 C   0  0  0  0  0  0  0  0  0  0  0  0
    8.2303  -16.4299   27.1720 O   0  0  0  0  0  0  0  0  0  0  0  0
   11.6369  -19.0433   21.8392 N   0  0  0  0  0  0  0  0  0  0  0  0
   12.4882  -19.3786   22.9430 C   0  0  0  0  0  0  0  0  0  0  0  0
   13.4780  -20.1245   22.7443 O   0  0  0  0  0  0  0  0  0  0  0  0
   12.1458  -18.8233   24.2516 C   0  0  0  0  0  0  0  0  0  0  0  0
   10.7701  -18.2622   24.3246 C   0  0  0  0  0  0  0  0  0  0  0  0
    9.9461  -18.6924   25.4898 C   0  0  2  0  0  0  0  0  0  0  0  0
    8.7019  -17.9189   25.4719 N   0  0  0  0  0  0  0  0  0  0  0  0
   10.6262  -18.4709   26.7823 C   0  0  0  0  0  0  0  0  0  0  0  0
   10.8694  -19.5476   27.6315 O   0  0  0  0  0  0  0  0  0  0  0  0
   11.0101  -17.3474   27.1772 O   0  0  0  0  0  0  0  0  0  0  0  0
  2  1  1  0
  3  2  1  0
  4  3  1  0
  4  5  1  0
  5  6  1  1
  7  5  1  0
  7  8  2  0
 10  9  1  0
 11 10  1  0
 12 11  1  0
 13 12  1  6
 13 14  1  0
 14  7  1  0
 15 13  1  0
 16 15  2  0
 18 17  1  0
 18 19  2  0
 20 18  1  0
 21 20  1  0
 22 21  1  6
 22 24  1  0
 22 23  1  0
 23 15  1  0
 24 25  1  0
 26 24  2  0
M  END
$$$$
