MMQ.pdb
     RDKit          3D

 26 25  0  0  1  0  0  0  0  0999 V2000
    8.2471  -11.2466   19.6673 C   0  0  0  0  0  0  0  0  0  0  0  0
    7.4772  -12.5033   18.6695 S   0  0  0  0  0  0  0  0  0  0  0  0
    7.5062  -14.1567   19.3175 C   0  0  0  0  0  0  0  0  0  0  0  0
    8.3345  -14.2394   20.5648 C   0  0  0  0  0  0  0  0  0  0  0  0
    8.4801  -15.6116   21.1359 C   0  0  2  0  0  0  0  0  0  0  0  0
    7.2267  -16.3278   21.1106 N   0  0  0  0  0  0  0  0  0  0  0  0
    8.9476  -15.4347   22.5534 C   0  0  0  0  0  0  0  0  0  0  0  0
   10.1458  -15.1742   22.7422 O   0  0  0  0  0  0  0  0  0  0  0  0
    7.2421  -11.9675   27.6978 C   0  0  0  0  0  0  0  0  0  0  0  0
    6.1419  -12.3201   26.2977 S   0  0  0  0  0  0  0  0  0  0  0  0
    7.0442  -13.3689   25.1254 C   0  0  0  0  0  0  0  0  0  0  0  0
    7.2710  -14.7385   25.7431 C   0  0  0  0  0  0  0  0  0  0  0  0
    8.4188  -15.3720   25.0055 C   0  0  2  0  0  0  0  0  0  0  0  0
    8.0428  -15.5634   23.6241 N   0  0  0  0  0  0  0  0  0  0  0  0
    8.8205  -16.6815   25.6177 C   0  0  0  0  0  0  0  0  0  0  0  0
    7.9765  -17.5650   25.8761 O   0  0  0  0  0  0  0  0  0  0  0  0
   14.3129  -19.0157   24.4097 N   0  0  0  0  0  0  0  0  0  0  0  0
   13.9078  -19.9926   25.3778 C   0  0  0  0  0  0  0  0  0  0  0  0
   14.6377  -20.9947   25.5742 O   0  0  0  0  0  0  0  0  0  0  0  0
   12.6506  -19.7583   26.0867 C   0  0  0  0  0  0  0  0  0  0  0  0
   11.9750  -18.4885   25.7077 C   0  0  0  0  0  0  0  0  0  0  0  0
   10.6839  -18.2007   26.3946 C   0  0  2  0  0  0  0  0  0  0  0  0
   10.1904  -16.9111   25.9048 N   0  0  0  0  0  0  0  0  0  0  0  0
   10.8224  -18.1311   27.8636 C   0  0  0  0  0  0  0  0  0  0  0  0
   10.7811  -19.2995   28.6204 O   0  0  0  0  0  0  0  0  0  0  0  0
   10.9791  -17.0608   28.4927 O   0  0  0  0  0  0  0  0  0  0  0  0
  2  1  1  0
  3  2  1  0
  4  3  1  0
  4  5  1  0
  5  6  1  1
  7  5  1  0
  7  8  2  0
 10  9  1  0
 11 10  1  0
 12 11  1  0
 13 12  1  1
 13 14  1  0
 14  7  1  0
 15 13  1  0
 16 15  2  0
 18 17  1  0
 18 19  2  0
 20 18  1  0
 21 20  1  0
 22 21  1  6
 22 24  1  0
 22 23  1  0
 23 15  1  0
 24 25  1  0
 26 24  2  0
M  END
$$$$
