MMQ.pdb
     RDKit          3D

 26 25  0  0  1  0  0  0  0  0999 V2000
    8.1740  -11.7118   18.8355 C   0  0  0  0  0  0  0  0  0  0  0  0
    7.5732  -13.1303   17.9441 S   0  0  0  0  0  0  0  0  0  0  0  0
    7.8395  -14.7136   18.7037 C   0  0  0  0  0  0  0  0  0  0  0  0
    8.9458  -14.6548   19.7142 C   0  0  0  0  0  0  0  0  0  0  0  0
    9.1252  -15.8951   20.5266 C   0  0  2  0  0  0  0  0  0  0  0  0
    7.9169  -16.6848   20.5550 N   0  0  0  0  0  0  0  0  0  0  0  0
    9.4835  -15.4455   21.9153 C   0  0  0  0  0  0  0  0  0  0  0  0
   10.5870  -14.9043   22.0846 O   0  0  0  0  0  0  0  0  0  0  0  0
    6.9789  -11.7347   28.0513 C   0  0  0  0  0  0  0  0  0  0  0  0
    6.4971  -12.6315   26.5484 S   0  0  0  0  0  0  0  0  0  0  0  0
    7.8741  -13.7119   26.0741 C   0  0  0  0  0  0  0  0  0  0  0  0
    7.5506  -14.3939   24.7553 C   0  0  0  0  0  0  0  0  0  0  0  0
    8.7996  -15.1009   24.3048 C   0  0  2  0  0  0  0  0  0  0  0  0
    8.5851  -15.6389   22.9816 N   0  0  0  0  0  0  0  0  0  0  0  0
    9.1918  -16.1973   25.2508 C   0  0  0  0  0  0  0  0  0  0  0  0
    8.4917  -17.2229   25.3845 O   0  0  0  0  0  0  0  0  0  0  0  0
   10.2930  -14.2457   29.0096 N   0  0  0  0  0  0  0  0  0  0  0  0
   10.9370  -15.4121   29.5393 C   0  0  0  0  0  0  0  0  0  0  0  0
   12.0836  -15.3014   30.0379 O   0  0  0  0  0  0  0  0  0  0  0  0
   10.2080  -16.6774   29.4644 C   0  0  0  0  0  0  0  0  0  0  0  0
    9.7433  -17.0226   28.0942 C   0  0  0  0  0  0  0  0  0  0  0  0
   10.7853  -17.0253   27.0283 C   0  0  2  0  0  0  0  0  0  0  0  0
   10.3852  -16.0566   26.0045 N   0  0  0  0  0  0  0  0  0  0  0  0
   10.9487  -18.3491   26.3936 C   0  0  0  0  0  0  0  0  0  0  0  0
   12.1780  -18.7093   25.8471 O   0  0  0  0  0  0  0  0  0  0  0  0
   10.0294  -19.1940   26.3115 O   0  0  0  0  0  0  0  0  0  0  0  0
  2  1  1  0
  3  2  1  0
  4  3  1  0
  4  5  1  0
  5  6  1  1
  7  5  1  0
  7  8  2  0
 10  9  1  0
 11 10  1  0
 12 11  1  0
 13 12  1  1
 13 14  1  0
 14  7  1  0
 15 13  1  0
 16 15  2  0
 18 17  1  0
 18 19  2  0
 20 18  1  0
 21 20  1  0
 22 21  1  1
 22 24  1  0
 22 23  1  0
 23 15  1  0
 24 25  1  0
 26 24  2  0
M  END
$$$$
