MMQ.pdb
     RDKit          3D

 26 25  0  0  1  0  0  0  0  0999 V2000
    8.4031  -11.2465   19.7400 C   0  0  0  0  0  0  0  0  0  0  0  0
    7.5673  -12.4258   18.7016 S   0  0  0  0  0  0  0  0  0  0  0  0
    7.6679  -14.1283   19.1974 C   0  0  0  0  0  0  0  0  0  0  0  0
    8.3207  -14.2679   20.5401 C   0  0  0  0  0  0  0  0  0  0  0  0
    8.4454  -15.6702   21.0386 C   0  0  2  0  0  0  0  0  0  0  0  0
    7.1787  -16.3610   20.9886 N   0  0  0  0  0  0  0  0  0  0  0  0
    8.9285  -15.5752   22.4587 C   0  0  0  0  0  0  0  0  0  0  0  0
   10.1407  -15.3921   22.6495 O   0  0  0  0  0  0  0  0  0  0  0  0
    6.2882  -10.8999   26.4219 C   0  0  0  0  0  0  0  0  0  0  0  0
    6.2852  -12.6836   26.7587 S   0  0  0  0  0  0  0  0  0  0  0  0
    7.1843  -13.5093   25.4178 C   0  0  0  0  0  0  0  0  0  0  0  0
    7.2465  -15.0020   25.6948 C   0  0  0  0  0  0  0  0  0  0  0  0
    8.4099  -15.5488   24.9136 C   0  0  2  0  0  0  0  0  0  0  0  0
    8.0223  -15.6920   23.5296 N   0  0  0  0  0  0  0  0  0  0  0  0
    8.8773  -16.8664   25.4580 C   0  0  0  0  0  0  0  0  0  0  0  0
    8.0740  -17.7900   25.7056 O   0  0  0  0  0  0  0  0  0  0  0  0
   13.6815  -19.7625   23.7768 N   0  0  0  0  0  0  0  0  0  0  0  0
   13.7166  -20.3407   25.0883 C   0  0  0  0  0  0  0  0  0  0  0  0
   14.4317  -21.3526   25.2890 O   0  0  0  0  0  0  0  0  0  0  0  0
   12.9049  -19.7072   26.1264 C   0  0  0  0  0  0  0  0  0  0  0  0
   12.1647  -18.5044   25.6595 C   0  0  0  0  0  0  0  0  0  0  0  0
   10.8026  -18.3078   26.2322 C   0  0  2  0  0  0  0  0  0  0  0  0
   10.2631  -17.0570   25.6926 N   0  0  0  0  0  0  0  0  0  0  0  0
   10.8103  -18.2262   27.7071 C   0  0  0  0  0  0  0  0  0  0  0  0
   11.0193  -19.3763   28.4643 O   0  0  0  0  0  0  0  0  0  0  0  0
   10.6366  -17.1614   28.3410 O   0  0  0  0  0  0  0  0  0  0  0  0
  2  1  1  0
  3  2  1  0
  4  3  1  0
  4  5  1  0
  5  6  1  1
  7  5  1  0
  7  8  2  0
 10  9  1  0
 11 10  1  0
 12 11  1  0
 13 12  1  1
 13 14  1  0
 14  7  1  0
 15 13  1  0
 16 15  2  0
 18 17  1  0
 18 19  2  0
 20 18  1  0
 21 20  1  0
 22 21  1  6
 22 24  1  0
 22 23  1  0
 23 15  1  0
 24 25  1  0
 26 24  2  0
M  END
$$$$
