MMQ.pdb
     RDKit          3D

 26 25  0  0  1  0  0  0  0  0999 V2000
    8.6437  -11.3168   19.5378 C   0  0  0  0  0  0  0  0  0  0  0  0
    7.6546  -12.5584   18.7329 S   0  0  0  0  0  0  0  0  0  0  0  0
    7.8398  -14.2233   19.3231 C   0  0  0  0  0  0  0  0  0  0  0  0
    8.5020  -14.2548   20.6681 C   0  0  0  0  0  0  0  0  0  0  0  0
    8.5761  -15.6043   21.3037 C   0  0  2  0  0  0  0  0  0  0  0  0
    7.3072  -16.2894   21.2335 N   0  0  0  0  0  0  0  0  0  0  0  0
    8.9645  -15.3780   22.7379 C   0  0  0  0  0  0  0  0  0  0  0  0
   10.1408  -15.0661   22.9794 O   0  0  0  0  0  0  0  0  0  0  0  0
    6.2959  -12.0876   27.6013 C   0  0  0  0  0  0  0  0  0  0  0  0
    6.3329  -11.8102   25.8078 S   0  0  0  0  0  0  0  0  0  0  0  0
    7.4794  -13.0106   25.0780 C   0  0  0  0  0  0  0  0  0  0  0  0
    7.2838  -14.3640   25.7404 C   0  0  0  0  0  0  0  0  0  0  0  0
    8.3139  -15.2938   25.1599 C   0  0  2  0  0  0  0  0  0  0  0  0
    8.0126  -15.5190   23.7653 N   0  0  0  0  0  0  0  0  0  0  0  0
    8.3633  -16.6006   25.8952 C   0  0  0  0  0  0  0  0  0  0  0  0
    7.4344  -17.4309   25.8095 O   0  0  0  0  0  0  0  0  0  0  0  0
   11.2756  -19.3629   22.9125 N   0  0  0  0  0  0  0  0  0  0  0  0
   11.5842  -20.3026   23.9505 C   0  0  0  0  0  0  0  0  0  0  0  0
   12.1488  -21.3819   23.6470 O   0  0  0  0  0  0  0  0  0  0  0  0
   11.2163  -19.9410   25.3187 C   0  0  0  0  0  0  0  0  0  0  0  0
   10.5611  -18.6105   25.4326 C   0  0  0  0  0  0  0  0  0  0  0  0
   10.0723  -18.2328   26.7892 C   0  0  2  0  0  0  0  0  0  0  0  0
    9.4937  -16.8896   26.7019 N   0  0  0  0  0  0  0  0  0  0  0  0
   11.1485  -18.2231   27.8010 C   0  0  0  0  0  0  0  0  0  0  0  0
   11.3931  -19.3621   28.5642 O   0  0  0  0  0  0  0  0  0  0  0  0
   11.8769  -17.2307   28.0252 O   0  0  0  0  0  0  0  0  0  0  0  0
  2  1  1  0
  3  2  1  0
  4  3  1  0
  4  5  1  0
  5  6  1  1
  7  5  1  0
  7  8  2  0
 10  9  1  0
 11 10  1  0
 12 11  1  0
 13 12  1  1
 13 14  1  0
 14  7  1  0
 15 13  1  0
 16 15  2  0
 18 17  1  0
 18 19  2  0
 20 18  1  0
 21 20  1  0
 22 21  1  6
 22 24  1  0
 22 23  1  0
 23 15  1  0
 24 25  1  0
 26 24  2  0
M  END
$$$$
