MMQ.pdb
     RDKit          3D

 26 25  0  0  1  0  0  0  0  0999 V2000
    8.1385  -12.0278   19.1849 C   0  0  0  0  0  0  0  0  0  0  0  0
    7.0754  -13.4119   18.8359 S   0  0  0  0  0  0  0  0  0  0  0  0
    7.2628  -14.8369   19.8795 C   0  0  0  0  0  0  0  0  0  0  0  0
    8.7070  -15.1086   20.1778 C   0  0  0  0  0  0  0  0  0  0  0  0
    8.9529  -16.2055   21.1610 C   0  0  2  0  0  0  0  0  0  0  0  0
    7.7311  -16.9006   21.4902 N   0  0  0  0  0  0  0  0  0  0  0  0
    9.5264  -15.5552   22.3887 C   0  0  0  0  0  0  0  0  0  0  0  0
   10.6817  -15.1076   22.3238 O   0  0  0  0  0  0  0  0  0  0  0  0
    4.9641  -12.7504   27.2549 C   0  0  0  0  0  0  0  0  0  0  0  0
    6.5572  -12.3426   26.4861 S   0  0  0  0  0  0  0  0  0  0  0  0
    7.1786  -13.8319   25.6590 C   0  0  0  0  0  0  0  0  0  0  0  0
    8.4630  -13.5002   24.9181 C   0  0  0  0  0  0  0  0  0  0  0  0
    9.2264  -14.7864   24.7584 C   0  0  2  0  0  0  0  0  0  0  0  0
    8.7648  -15.4637   23.5691 N   0  0  0  0  0  0  0  0  0  0  0  0
    9.0714  -15.6792   25.9542 C   0  0  0  0  0  0  0  0  0  0  0  0
    9.2222  -15.2441   27.1150 O   0  0  0  0  0  0  0  0  0  0  0  0
    5.8649  -20.9574   25.7586 N   0  0  0  0  0  0  0  0  0  0  0  0
    6.4407  -21.1110   27.0626 C   0  0  0  0  0  0  0  0  0  0  0  0
    6.1112  -22.1002   27.7614 O   0  0  0  0  0  0  0  0  0  0  0  0
    7.3899  -20.0905   27.5050 C   0  0  0  0  0  0  0  0  0  0  0  0
    7.6078  -19.0030   26.5137 C   0  0  0  0  0  0  0  0  0  0  0  0
    8.6592  -18.0033   26.8557 C   0  0  2  0  0  0  0  0  0  0  0  0
    8.7460  -17.0448   25.7510 N   0  0  0  0  0  0  0  0  0  0  0  0
    9.9869  -18.6183   27.0583 C   0  0  0  0  0  0  0  0  0  0  0  0
   10.9063  -18.6438   26.0126 O   0  0  0  0  0  0  0  0  0  0  0  0
   10.3520  -19.1333   28.1387 O   0  0  0  0  0  0  0  0  0  0  0  0
  2  1  1  0
  3  2  1  0
  4  3  1  0
  4  5  1  0
  5  6  1  1
  7  5  1  0
  7  8  2  0
 10  9  1  0
 11 10  1  0
 12 11  1  0
 13 12  1  1
 13 14  1  0
 14  7  1  0
 15 13  1  0
 16 15  2  0
 18 17  1  0
 18 19  2  0
 20 18  1  0
 21 20  1  0
 22 21  1  6
 22 24  1  0
 22 23  1  0
 23 15  1  0
 24 25  1  0
 26 24  2  0
M  END
$$$$
