MMQ.pdb
     RDKit          3D

 26 25  0  0  1  0  0  0  0  0999 V2000
    7.1774  -11.9795   19.1223 C   0  0  0  0  0  0  0  0  0  0  0  0
    7.5900  -13.2833   17.9830 S   0  0  0  0  0  0  0  0  0  0  0  0
    7.9394  -14.8735   18.6926 C   0  0  0  0  0  0  0  0  0  0  0  0
    8.8857  -14.7584   19.8501 C   0  0  0  0  0  0  0  0  0  0  0  0
    9.0797  -16.0146   20.6341 C   0  0  2  0  0  0  0  0  0  0  0  0
    7.8862  -16.8270   20.6300 N   0  0  0  0  0  0  0  0  0  0  0  0
    9.4148  -15.5926   22.0373 C   0  0  0  0  0  0  0  0  0  0  0  0
   10.5197  -15.0650   22.2376 O   0  0  0  0  0  0  0  0  0  0  0  0
    7.6029  -11.9654   28.3018 C   0  0  0  0  0  0  0  0  0  0  0  0
    6.8154  -12.9336   26.9836 S   0  0  0  0  0  0  0  0  0  0  0  0
    8.0249  -14.1394   26.3742 C   0  0  0  0  0  0  0  0  0  0  0  0
    7.6567  -14.5541   24.9595 C   0  0  0  0  0  0  0  0  0  0  0  0
    8.7637  -15.4393   24.4557 C   0  0  2  0  0  0  0  0  0  0  0  0
    8.4937  -15.7958   23.0823 N   0  0  0  0  0  0  0  0  0  0  0  0
    8.9121  -16.6768   25.2908 C   0  0  0  0  0  0  0  0  0  0  0  0
    7.9656  -17.4775   25.4415 O   0  0  0  0  0  0  0  0  0  0  0  0
   14.1176  -18.3757   24.8604 N   0  0  0  0  0  0  0  0  0  0  0  0
   13.0447  -18.6999   23.9664 C   0  0  0  0  0  0  0  0  0  0  0  0
   13.2839  -18.7987   22.7381 O   0  0  0  0  0  0  0  0  0  0  0  0
   11.7181  -18.8977   24.5489 C   0  0  0  0  0  0  0  0  0  0  0  0
   11.6872  -18.7671   26.0303 C   0  0  0  0  0  0  0  0  0  0  0  0
   10.4418  -18.1919   26.6132 C   0  0  2  0  0  0  0  0  0  0  0  0
   10.1581  -16.9338   25.9180 N   0  0  0  0  0  0  0  0  0  0  0  0
   10.5618  -17.9201   28.0602 C   0  0  0  0  0  0  0  0  0  0  0  0
   10.7881  -18.9701   28.9467 O   0  0  0  0  0  0  0  0  0  0  0  0
   10.4713  -16.7756   28.5579 O   0  0  0  0  0  0  0  0  0  0  0  0
  2  1  1  0
  3  2  1  0
  4  3  1  0
  4  5  1  0
  5  6  1  1
  7  5  1  0
  7  8  2  0
 10  9  1  0
 11 10  1  0
 12 11  1  0
 13 12  1  1
 13 14  1  0
 14  7  1  0
 15 13  1  0
 16 15  2  0
 18 17  1  0
 18 19  2  0
 20 18  1  0
 21 20  1  0
 22 21  1  6
 22 24  1  0
 22 23  1  0
 23 15  1  0
 24 25  1  0
 26 24  2  0
M  END
$$$$
