RNL.pdb
     RDKit          3D

 28 27  0  0  1  0  0  0  0  0999 V2000
   33.0162  -25.4955  -18.2688 N   0  0  0  0  0  0  0  0  0  0  0  0
   32.7525  -25.7816  -16.8940 C   0  0  0  0  0  0  0  0  0  0  0  0
   33.5623  -26.5414  -16.2426 N   0  0  0  0  0  0  0  0  0  0  0  0
   31.6270  -25.2573  -16.2197 N   0  0  0  0  0  0  0  0  0  0  0  0
   30.6998  -24.3265  -16.8863 C   0  0  0  0  0  0  0  0  0  0  0  0
   30.7704  -23.0268  -16.1331 C   0  0  0  0  0  0  0  0  0  0  0  0
   29.4740  -22.3935  -15.7999 C   0  0  0  0  0  0  0  0  0  0  0  0
   28.4926  -22.2206  -16.9048 C   0  0  2  0  0  0  0  0  0  0  0  0
   29.1048  -21.4738  -17.9810 N   0  0  0  0  0  0  0  0  0  0  0  0
   27.2298  -21.5679  -16.4485 C   0  0  0  0  0  0  0  0  0  0  0  0
   27.2152  -20.3130  -16.4183 O   0  0  0  0  0  0  0  0  0  0  0  0
   33.3716  -26.8409  -15.2655 N   0  0  0  0  0  0  0  0  0  0  0  0
   21.8531  -20.2875  -16.2299 C   0  0  0  0  0  0  0  0  0  0  0  0
   22.4424  -21.4741  -15.7742 O   0  0  0  0  0  0  0  0  0  0  0  0
   21.8495  -22.0685  -14.8201 C   0  0  0  0  0  0  0  0  0  0  0  0
   23.6678  -22.0739  -16.3019 C   0  0  1  0  0  0  0  0  0  0  0  0
   24.9140  -21.6544  -15.5754 N   0  0  0  0  0  0  0  0  0  0  0  0
   26.0840  -22.3166  -16.0612 C   0  0  0  0  0  0  0  0  0  0  0  0
   24.7614  -21.7599  -14.0997 O   0  0  0  0  0  0  0  0  0  0  0  0
   25.2275  -22.7431  -13.4705 C   0  0  0  0  0  0  0  0  0  0  0  0
   25.2975  -21.6403   -8.9479 C   0  0  2  0  0  0  0  0  0  0  0  0
   25.0342  -20.3390   -9.6603 C   0  0  0  0  0  0  0  0  0  0  0  0
   25.8080  -19.2272   -8.9951 C   0  0  0  0  0  0  0  0  0  0  0  0
   25.1104  -20.3769  -11.1215 C   0  0  1  0  0  0  0  0  0  0  0  0
   23.9117  -20.8017  -11.8989 N   0  0  0  0  0  0  0  0  0  0  0  0
   24.0970  -20.7807  -13.3349 C   0  0  0  0  0  0  0  0  0  0  0  0
   22.6332  -20.2789  -11.4423 O   0  0  0  0  0  0  0  0  0  0  0  0
   21.4938  -20.0667  -12.2041 O   0  0  0  0  0  0  0  0  0  0  0  0
  1  2  1  0
  2  4  1  0
  3  2  2  0
  4  5  1  0
  5  6  1  0
  7  6  1  0
  8  9  1  6
  8  7  1  0
 10  8  1  0
 10 11  2  0
 13 12  1  0
 13 15  1  0
 14 13  2  0
 16 15  1  6
 16 17  1  0
 16 18  1  0
 17 10  1  0
 18 25  1  0
 19 18  2  0
 21 20  1  1
 21 23  1  0
 22 21  1  0
 24 23  1  1
 24 26  1  0
 25 24  1  0
 26 28  2  0
 26 27  1  0
M  END
$$$$
