RNL.pdb
     RDKit          3D

 28 27  0  0  1  0  0  0  0  0999 V2000
   19.6788  -30.2389  -11.2025 N   0  0  0  0  0  0  0  0  0  0  0  0
   20.8302  -29.6685  -10.5779 C   0  0  0  0  0  0  0  0  0  0  0  0
   22.0024  -30.0212  -10.9768 N   0  0  0  0  0  0  0  0  0  0  0  0
   20.7276  -28.7253   -9.5309 N   0  0  0  0  0  0  0  0  0  0  0  0
   19.4171  -28.2542   -9.0503 C   0  0  0  0  0  0  0  0  0  0  0  0
   18.9077  -27.2704  -10.0672 C   0  0  0  0  0  0  0  0  0  0  0  0
   17.6170  -26.6157   -9.7536 C   0  0  0  0  0  0  0  0  0  0  0  0
   17.6571  -25.1879   -9.3370 C   0  0  2  0  0  0  0  0  0  0  0  0
   18.8904  -24.5869   -9.7935 N   0  0  0  0  0  0  0  0  0  0  0  0
   17.4907  -25.0194   -7.8630 C   0  0  0  0  0  0  0  0  0  0  0  0
   18.4986  -24.6460   -7.2144 O   0  0  0  0  0  0  0  0  0  0  0  0
   22.8680  -29.6868  -10.5080 N   0  0  0  0  0  0  0  0  0  0  0  0
   13.3065  -22.8940   -6.7791 C   0  0  0  0  0  0  0  0  0  0  0  0
   14.4023  -23.2034   -5.9625 O   0  0  0  0  0  0  0  0  0  0  0  0
   15.1668  -22.2363   -5.6537 C   0  0  0  0  0  0  0  0  0  0  0  0
   14.7310  -24.5316   -5.4451 C   0  0  2  0  0  0  0  0  0  0  0  0
   16.1109  -25.0026   -5.8067 N   0  0  0  0  0  0  0  0  0  0  0  0
   16.2543  -25.2660   -7.2044 C   0  0  0  0  0  0  0  0  0  0  0  0
   16.5523  -26.1402   -4.9563 O   0  0  0  0  0  0  0  0  0  0  0  0
   16.2529  -27.3241   -5.2543 C   0  0  0  0  0  0  0  0  0  0  0  0
   20.5935  -29.0357   -2.3900 C   0  0  2  0  0  0  0  0  0  0  0  0
   19.8161  -27.9486   -1.6944 C   0  0  0  0  0  0  0  0  0  0  0  0
   20.6019  -27.4352   -0.5126 C   0  0  0  0  0  0  0  0  0  0  0  0
   19.2285  -26.9228   -2.5575 C   0  0  1  0  0  0  0  0  0  0  0  0
   17.7807  -27.0076   -2.9014 N   0  0  0  0  0  0  0  0  0  0  0  0
   17.3185  -25.9598   -3.7877 C   0  0  0  0  0  0  0  0  0  0  0  0
   16.8781  -27.3185   -1.8036 O   0  0  0  0  0  0  0  0  0  0  0  0
   16.4104  -28.5701   -1.4316 O   0  0  0  0  0  0  0  0  0  0  0  0
  1  2  1  0
  2  4  1  0
  3  2  2  0
  4  5  1  0
  5  6  1  0
  7  6  1  0
  8  9  1  1
  8  7  1  0
 10  8  1  0
 10 11  2  0
 13 12  1  0
 13 15  1  0
 14 13  2  0
 16 15  1  6
 16 17  1  0
 16 18  1  0
 17 10  1  0
 18 25  1  0
 19 18  2  0
 21 20  1  1
 21 23  1  0
 22 21  1  0
 24 23  1  6
 24 26  1  0
 25 24  1  0
 26 28  2  0
 26 27  1  0
M  END
$$$$
