RNL.pdb
     RDKit          3D

 28 27  0  0  1  0  0  0  0  0999 V2000
   30.2534  -19.9694  -18.8584 N   0  0  0  0  0  0  0  0  0  0  0  0
   29.7190  -21.2699  -18.6048 C   0  0  0  0  0  0  0  0  0  0  0  0
   30.3875  -22.3076  -18.9707 N   0  0  0  0  0  0  0  0  0  0  0  0
   28.4747  -21.4590  -17.9627 N   0  0  0  0  0  0  0  0  0  0  0  0
   27.6616  -20.3145  -17.5160 C   0  0  0  0  0  0  0  0  0  0  0  0
   28.3971  -19.6787  -16.3687 C   0  0  0  0  0  0  0  0  0  0  0  0
   27.5671  -19.2396  -15.2236 C   0  0  0  0  0  0  0  0  0  0  0  0
   26.0978  -19.4529  -15.3217 C   0  0  2  0  0  0  0  0  0  0  0  0
   25.5368  -18.5161  -16.2695 N   0  0  0  0  0  0  0  0  0  0  0  0
   25.4172  -19.3494  -13.9970 C   0  0  0  0  0  0  0  0  0  0  0  0
   25.1466  -18.1954  -13.5836 O   0  0  0  0  0  0  0  0  0  0  0  0
   30.0204  -23.2722  -18.8454 N   0  0  0  0  0  0  0  0  0  0  0  0
   22.7283  -19.9737   -9.6327 C   0  0  0  0  0  0  0  0  0  0  0  0
   22.2859  -20.7171  -10.7349 O   0  0  0  0  0  0  0  0  0  0  0  0
   21.1568  -21.2876  -10.6142 C   0  0  0  0  0  0  0  0  0  0  0  0
   23.0102  -20.8859  -11.9946 C   0  0  1  0  0  0  0  0  0  0  0  0
   24.4143  -20.3525  -11.9670 N   0  0  0  0  0  0  0  0  0  0  0  0
   25.0822  -20.4947  -13.2228 C   0  0  0  0  0  0  0  0  0  0  0  0
   25.1982  -20.9046  -10.8300 O   0  0  0  0  0  0  0  0  0  0  0  0
   25.6684  -22.0694  -10.8745 C   0  0  0  0  0  0  0  0  0  0  0  0
   29.0889  -21.0448   -6.9464 C   0  0  2  0  0  0  0  0  0  0  0  0
   27.9044  -20.1394   -6.7292 C   0  0  0  0  0  0  0  0  0  0  0  0
   28.2859  -19.0139   -5.7990 C   0  0  0  0  0  0  0  0  0  0  0  0
   27.1652  -19.7453   -7.9296 C   0  0  1  0  0  0  0  0  0  0  0  0
   26.1182  -20.6592   -8.4684 N   0  0  0  0  0  0  0  0  0  0  0  0
   25.4548  -20.1665   -9.6576 C   0  0  0  0  0  0  0  0  0  0  0  0
   25.2350  -21.2711   -7.4877 O   0  0  0  0  0  0  0  0  0  0  0  0
   23.8487  -21.3062   -7.5144 O   0  0  0  0  0  0  0  0  0  0  0  0
  1  2  1  0
  2  4  1  0
  3  2  2  0
  4  5  1  0
  5  6  1  0
  7  6  1  0
  8  9  1  6
  8  7  1  0
 10  8  1  0
 10 11  2  0
 13 12  1  0
 13 15  1  0
 14 13  2  0
 16 15  1  6
 16 17  1  0
 16 18  1  0
 17 10  1  0
 18 25  1  0
 19 18  2  0
 21 20  1  1
 21 23  1  0
 22 21  1  0
 24 23  1  6
 24 26  1  0
 25 24  1  0
 26 28  2  0
 26 27  1  0
M  END
$$$$
