RNL.pdb
     RDKit          3D

 28 27  0  0  1  0  0  0  0  0999 V2000
   29.6649  -27.3671  -16.4422 N   0  0  0  0  0  0  0  0  0  0  0  0
   28.5373  -27.2828  -17.3154 C   0  0  0  0  0  0  0  0  0  0  0  0
   28.0542  -28.3616  -17.8257 N   0  0  0  0  0  0  0  0  0  0  0  0
   27.9297  -26.0496  -17.6414 N   0  0  0  0  0  0  0  0  0  0  0  0
   28.7294  -24.8251  -17.8192 C   0  0  0  0  0  0  0  0  0  0  0  0
   29.1643  -24.3856  -16.4484 C   0  0  0  0  0  0  0  0  0  0  0  0
   28.8149  -22.9984  -16.0655 C   0  0  0  0  0  0  0  0  0  0  0  0
   27.3771  -22.6179  -16.1090 C   0  0  2  0  0  0  0  0  0  0  0  0
   27.0092  -22.2773  -17.4652 N   0  0  0  0  0  0  0  0  0  0  0  0
   27.0536  -21.5044  -15.1687 C   0  0  0  0  0  0  0  0  0  0  0  0
   27.1708  -20.3345  -15.6086 O   0  0  0  0  0  0  0  0  0  0  0  0
   27.2141  -28.3535  -18.4381 N   0  0  0  0  0  0  0  0  0  0  0  0
   23.1563  -18.5764  -13.4592 C   0  0  0  0  0  0  0  0  0  0  0  0
   23.4112  -19.9275  -13.1893 O   0  0  0  0  0  0  0  0  0  0  0  0
   22.7219  -20.4576  -12.2625 C   0  0  0  0  0  0  0  0  0  0  0  0
   24.3933  -20.7635  -13.8796 C   0  0  1  0  0  0  0  0  0  0  0  0
   25.7250  -20.8372  -13.1882 N   0  0  0  0  0  0  0  0  0  0  0  0
   26.6301  -21.7377  -13.8310 C   0  0  0  0  0  0  0  0  0  0  0  0
   25.5830  -21.1025  -11.7317 O   0  0  0  0  0  0  0  0  0  0  0  0
   24.9158  -22.0831  -11.3155 C   0  0  0  0  0  0  0  0  0  0  0  0
   28.1498  -20.6257   -6.4816 C   0  0  2  0  0  0  0  0  0  0  0  0
   27.0777  -19.7519   -7.0791 C   0  0  0  0  0  0  0  0  0  0  0  0
   27.0117  -18.4420   -6.3325 C   0  0  0  0  0  0  0  0  0  0  0  0
   27.0688  -19.6493   -8.5392 C   0  0  1  0  0  0  0  0  0  0  0  0
   26.1124  -20.4857   -9.3186 N   0  0  0  0  0  0  0  0  0  0  0  0
   26.1781  -20.2843  -10.7511 C   0  0  0  0  0  0  0  0  0  0  0  0
   24.7652  -20.5899   -8.7796 O   0  0  0  0  0  0  0  0  0  0  0  0
   24.3316  -21.4269   -7.7622 O   0  0  0  0  0  0  0  0  0  0  0  0
  1  2  1  0
  2  4  1  0
  3  2  2  0
  4  5  1  0
  5  6  1  0
  7  6  1  0
  8  9  1  6
  8  7  1  0
 10  8  1  0
 10 11  2  0
 13 12  1  0
 13 15  1  0
 14 13  2  0
 16 15  1  6
 16 17  1  0
 16 18  1  0
 17 10  1  0
 18 25  1  0
 19 18  2  0
 21 20  1  1
 21 23  1  0
 22 21  1  0
 24 23  1  6
 24 26  1  0
 25 24  1  0
 26 28  2  0
 26 27  1  0
M  END
$$$$
