RNL.pdb
     RDKit          3D

 28 27  0  0  1  0  0  0  0  0999 V2000
   23.9051  -22.0496  -11.7576 N   0  0  0  0  0  0  0  0  0  0  0  0
   24.3822  -21.1319  -10.7719 C   0  0  0  0  0  0  0  0  0  0  0  0
   23.5898  -20.7497   -9.8319 N   0  0  0  0  0  0  0  0  0  0  0  0
   25.7009  -20.6253  -10.7924 N   0  0  0  0  0  0  0  0  0  0  0  0
   26.7619  -21.2828  -11.5751 C   0  0  0  0  0  0  0  0  0  0  0  0
   27.2378  -20.2817  -12.5914 C   0  0  0  0  0  0  0  0  0  0  0  0
   27.5286  -20.8111  -13.9435 C   0  0  0  0  0  0  0  0  0  0  0  0
   26.5384  -21.7485  -14.5391 C   0  0  2  0  0  0  0  0  0  0  0  0
   27.2000  -22.6012  -15.5013 N   0  0  0  0  0  0  0  0  0  0  0  0
   25.3809  -21.0373  -15.1578 C   0  0  0  0  0  0  0  0  0  0  0  0
   25.5562  -20.5502  -16.3015 O   0  0  0  0  0  0  0  0  0  0  0  0
   23.9078  -20.1279   -9.0618 N   0  0  0  0  0  0  0  0  0  0  0  0
   19.3709  -19.6441  -14.7272 C   0  0  0  0  0  0  0  0  0  0  0  0
   20.5828  -20.0127  -15.3261 O   0  0  0  0  0  0  0  0  0  0  0  0
   20.7024  -19.7525  -16.5643 C   0  0  0  0  0  0  0  0  0  0  0  0
   21.7044  -20.6635  -14.6491 C   0  0  2  0  0  0  0  0  0  0  0  0
   23.0533  -20.1928  -15.1136 N   0  0  0  0  0  0  0  0  0  0  0  0
   24.1278  -20.9066  -14.4976 C   0  0  0  0  0  0  0  0  0  0  0  0
   23.1990  -18.7171  -14.9983 O   0  0  0  0  0  0  0  0  0  0  0  0
   23.0731  -18.1401  -13.8888 C   0  0  0  0  0  0  0  0  0  0  0  0
   26.9468  -14.3722  -15.4421 C   0  0  2  0  0  0  0  0  0  0  0  0
   25.5149  -14.6794  -15.7963 C   0  0  0  0  0  0  0  0  0  0  0  0
   25.1192  -13.9120  -17.0340 C   0  0  0  0  0  0  0  0  0  0  0  0
   25.1356  -16.0930  -15.7799 C   0  0  1  0  0  0  0  0  0  0  0  0
   23.7224  -16.4675  -16.0701 N   0  0  0  0  0  0  0  0  0  0  0  0
   23.4819  -17.8950  -16.1070 C   0  0  0  0  0  0  0  0  0  0  0  0
   23.0622  -15.7114  -17.1232 O   0  0  0  0  0  0  0  0  0  0  0  0
   22.3307  -14.5414  -16.9829 O   0  0  0  0  0  0  0  0  0  0  0  0
  1  2  1  0
  2  4  1  0
  3  2  2  0
  4  5  1  0
  5  6  1  0
  7  6  1  0
  8  9  1  6
  8  7  1  0
 10  8  1  0
 10 11  2  0
 13 12  1  0
 13 15  1  0
 14 13  2  0
 16 15  1  6
 16 17  1  0
 16 18  1  0
 17 10  1  0
 18 25  1  0
 19 18  2  0
 21 20  1  1
 21 23  1  0
 22 21  1  0
 24 23  1  1
 24 26  1  0
 25 24  1  0
 26 28  2  0
 26 27  1  0
M  END
$$$$
