RNL.pdb
     RDKit          3D

 28 27  0  0  1  0  0  0  0  0999 V2000
   20.2909  -27.1534  -12.3454 N   0  0  0  0  0  0  0  0  0  0  0  0
   20.5325  -28.3445  -11.5943 C   0  0  0  0  0  0  0  0  0  0  0  0
   21.4428  -29.1644  -11.9900 N   0  0  0  0  0  0  0  0  0  0  0  0
   19.8030  -28.6568  -10.4253 N   0  0  0  0  0  0  0  0  0  0  0  0
   18.7642  -27.7505   -9.9057 C   0  0  0  0  0  0  0  0  0  0  0  0
   19.4769  -26.6251   -9.2078 C   0  0  0  0  0  0  0  0  0  0  0  0
   18.9454  -26.2384   -7.8808 C   0  0  0  0  0  0  0  0  0  0  0  0
   17.8985  -25.1817   -7.8442 C   0  0  2  0  0  0  0  0  0  0  0  0
   18.1140  -24.2517   -8.9302 N   0  0  0  0  0  0  0  0  0  0  0  0
   17.8499  -24.4727   -6.5314 C   0  0  0  0  0  0  0  0  0  0  0  0
   18.2020  -23.2678   -6.5207 O   0  0  0  0  0  0  0  0  0  0  0  0
   21.6630  -30.0368  -11.4692 N   0  0  0  0  0  0  0  0  0  0  0  0
   14.4329  -22.9852   -3.0674 C   0  0  0  0  0  0  0  0  0  0  0  0
   14.2172  -23.4351   -4.3767 O   0  0  0  0  0  0  0  0  0  0  0  0
   13.0830  -23.1698   -4.8849 C   0  0  0  0  0  0  0  0  0  0  0  0
   15.1799  -24.1749   -5.1927 C   0  0  2  0  0  0  0  0  0  0  0  0
   16.4625  -24.4975   -4.4802 N   0  0  0  0  0  0  0  0  0  0  0  0
   17.4269  -25.1158   -5.3352 C   0  0  0  0  0  0  0  0  0  0  0  0
   16.2268  -25.2629   -3.2269 O   0  0  0  0  0  0  0  0  0  0  0  0
   15.4382  -24.8345   -2.3468 C   0  0  0  0  0  0  0  0  0  0  0  0
   19.1988  -30.1519   -2.6436 C   0  0  2  0  0  0  0  0  0  0  0  0
   18.0821  -29.1509   -2.7884 C   0  0  0  0  0  0  0  0  0  0  0  0
   16.8903  -29.8065   -3.4422 C   0  0  0  0  0  0  0  0  0  0  0  0
   17.7883  -28.3372   -1.6077 C   0  0  2  0  0  0  0  0  0  0  0  0
   16.7917  -27.2343   -1.7175 N   0  0  0  0  0  0  0  0  0  0  0  0
   16.8627  -26.4911   -2.9584 C   0  0  0  0  0  0  0  0  0  0  0  0
   16.6060  -26.4172   -0.5283 O   0  0  0  0  0  0  0  0  0  0  0  0
   16.3930  -26.8603    0.7685 O   0  0  0  0  0  0  0  0  0  0  0  0
  1  2  1  0
  2  4  1  0
  3  2  2  0
  4  5  1  0
  5  6  1  0
  7  6  1  0
  8  9  1  6
  8  7  1  0
 10  8  1  0
 10 11  2  0
 13 12  1  0
 13 15  1  0
 14 13  2  0
 16 15  1  6
 16 17  1  0
 16 18  1  0
 17 10  1  0
 18 25  1  0
 19 18  2  0
 21 20  1  6
 21 23  1  0
 22 21  1  0
 24 23  1  6
 24 26  1  0
 25 24  1  0
 26 28  2  0
 26 27  1  0
M  END
$$$$
