RNL.pdb
     RDKit          3D

 28 27  0  0  1  0  0  0  0  0999 V2000
   16.4294  -17.5433  -13.2930 N   0  0  0  0  0  0  0  0  0  0  0  0
   17.1844  -17.4874  -14.5047 C   0  0  0  0  0  0  0  0  0  0  0  0
   17.0807  -18.4478  -15.3558 N   0  0  0  0  0  0  0  0  0  0  0  0
   18.0464  -16.4088  -14.8041 N   0  0  0  0  0  0  0  0  0  0  0  0
   17.6597  -15.0166  -14.5164 C   0  0  0  0  0  0  0  0  0  0  0  0
   16.8987  -14.5191  -15.7143 C   0  0  0  0  0  0  0  0  0  0  0  0
   16.4333  -13.1146  -15.6556 C   0  0  0  0  0  0  0  0  0  0  0  0
   15.1084  -12.8582  -15.0290 C   0  0  2  0  0  0  0  0  0  0  0  0
   14.0711  -13.4766  -15.8242 N   0  0  0  0  0  0  0  0  0  0  0  0
   14.8413  -11.4021  -14.8361 C   0  0  0  0  0  0  0  0  0  0  0  0
   14.5339  -10.7387  -15.8566 O   0  0  0  0  0  0  0  0  0  0  0  0
   17.5984  -18.4437  -16.2574 N   0  0  0  0  0  0  0  0  0  0  0  0
   11.9326  -10.2399  -11.0945 C   0  0  0  0  0  0  0  0  0  0  0  0
   12.5381   -9.5032  -12.1211 O   0  0  0  0  0  0  0  0  0  0  0  0
   11.8003   -9.2039  -13.1116 C   0  0  0  0  0  0  0  0  0  0  0  0
   13.9314   -9.0581  -12.1425 C   0  0  2  0  0  0  0  0  0  0  0  0
   14.6547   -9.3796  -13.4193 N   0  0  0  0  0  0  0  0  0  0  0  0
   14.9263  -10.7758  -13.5618 C   0  0  0  0  0  0  0  0  0  0  0  0
   15.8646   -8.5342  -13.6027 O   0  0  0  0  0  0  0  0  0  0  0  0
   16.7519   -8.4744  -12.7144 C   0  0  0  0  0  0  0  0  0  0  0  0
   18.2535   -8.5433  -18.3341 C   0  0  1  0  0  0  0  0  0  0  0  0
   18.1665   -8.3769  -16.8391 C   0  0  0  0  0  0  0  0  0  0  0  0
   19.3671   -9.0142  -16.1837 C   0  0  0  0  0  0  0  0  0  0  0  0
   17.8189   -7.0387  -16.3585 C   0  0  2  0  0  0  0  0  0  0  0  0
   17.2105   -6.8900  -15.0059 N   0  0  0  0  0  0  0  0  0  0  0  0
   16.0824   -7.7648  -14.7628 C   0  0  0  0  0  0  0  0  0  0  0  0
   17.0386   -5.5273  -14.5266 O   0  0  0  0  0  0  0  0  0  0  0  0
   15.8969   -4.9730  -13.9671 O   0  0  0  0  0  0  0  0  0  0  0  0
  1  2  1  0
  2  4  1  0
  3  2  2  0
  4  5  1  0
  5  6  1  0
  7  6  1  0
  8  9  1  6
  8  7  1  0
 10  8  1  0
 10 11  2  0
 13 12  1  0
 13 15  1  0
 14 13  2  0
 16 15  1  6
 16 17  1  0
 16 18  1  0
 17 10  1  0
 18 25  1  0
 19 18  2  0
 21 20  1  1
 21 23  1  0
 22 21  1  0
 24 23  1  1
 24 26  1  0
 25 24  1  0
 26 28  2  0
 26 27  1  0
M  END
$$$$
