RNL.pdb
     RDKit          3D

 28 27  0  0  1  0  0  0  0  0999 V2000
   30.4758  -18.6206  -18.5584 N   0  0  0  0  0  0  0  0  0  0  0  0
   29.3267  -17.7774  -18.4587 C   0  0  0  0  0  0  0  0  0  0  0  0
   29.2898  -16.6814  -19.1332 N   0  0  0  0  0  0  0  0  0  0  0  0
   28.2225  -18.1054  -17.6406 N   0  0  0  0  0  0  0  0  0  0  0  0
   28.1897  -19.3569  -16.8640 C   0  0  0  0  0  0  0  0  0  0  0  0
   27.3854  -20.3449  -17.6632 C   0  0  0  0  0  0  0  0  0  0  0  0
   26.1696  -20.8794  -17.0084 C   0  0  0  0  0  0  0  0  0  0  0  0
   26.3594  -21.7296  -15.8021 C   0  0  2  0  0  0  0  0  0  0  0  0
   26.7516  -23.0609  -16.2074 N   0  0  0  0  0  0  0  0  0  0  0  0
   25.1447  -21.7679  -14.9350 C   0  0  0  0  0  0  0  0  0  0  0  0
   24.3294  -22.7009  -15.1367 O   0  0  0  0  0  0  0  0  0  0  0  0
   28.4643  -16.0497  -19.1136 N   0  0  0  0  0  0  0  0  0  0  0  0
   21.4880  -21.0102  -11.2812 C   0  0  0  0  0  0  0  0  0  0  0  0
   22.7459  -20.5518  -10.8678 O   0  0  0  0  0  0  0  0  0  0  0  0
   22.8648  -20.2648   -9.6355 C   0  0  0  0  0  0  0  0  0  0  0  0
   23.9154  -20.3801  -11.7296 C   0  0  2  0  0  0  0  0  0  0  0  0
   23.7060  -20.8472  -13.1419 N   0  0  0  0  0  0  0  0  0  0  0  0
   24.9038  -20.8001  -13.9208 C   0  0  0  0  0  0  0  0  0  0  0  0
   22.5645  -20.1528  -13.7954 O   0  0  0  0  0  0  0  0  0  0  0  0
   22.5960  -18.9138  -14.0047 C   0  0  0  0  0  0  0  0  0  0  0  0
   20.0951  -21.4314  -18.5202 C   0  0  1  0  0  0  0  0  0  0  0  0
   20.5857  -20.7090  -17.2923 C   0  0  0  0  0  0  0  0  0  0  0  0
   20.9293  -19.2819  -17.6427 C   0  0  0  0  0  0  0  0  0  0  0  0
   19.7893  -20.8883  -16.0774 C   0  0  2  0  0  0  0  0  0  0  0  0
   20.2331  -20.2291  -14.8163 N   0  0  0  0  0  0  0  0  0  0  0  0
   21.4020  -20.8321  -14.2106 C   0  0  0  0  0  0  0  0  0  0  0  0
   19.1817  -19.8639  -13.8795 O   0  0  0  0  0  0  0  0  0  0  0  0
   18.3535  -18.7531  -13.9399 O   0  0  0  0  0  0  0  0  0  0  0  0
  1  2  1  0
  2  4  1  0
  3  2  2  0
  4  5  1  0
  5  6  1  0
  7  6  1  0
  8  9  1  6
  8  7  1  0
 10  8  1  0
 10 11  2  0
 13 12  1  0
 13 15  1  0
 14 13  2  0
 16 15  1  1
 16 17  1  0
 16 18  1  0
 17 10  1  0
 18 25  1  0
 19 18  2  0
 21 20  1  6
 21 23  1  0
 22 21  1  0
 24 23  1  6
 24 26  1  0
 25 24  1  0
 26 28  2  0
 26 27  1  0
M  END
$$$$
