RNL.pdb
     RDKit          3D

 28 27  0  0  1  0  0  0  0  0999 V2000
   20.0816  -21.9437  -12.8239 N   0  0  0  0  0  0  0  0  0  0  0  0
   18.6983  -22.2825  -12.9383 C   0  0  0  0  0  0  0  0  0  0  0  0
   17.9634  -21.6502  -13.7855 N   0  0  0  0  0  0  0  0  0  0  0  0
   18.1042  -23.2930  -12.1496 N   0  0  0  0  0  0  0  0  0  0  0  0
   18.8420  -23.9396  -11.0504 C   0  0  0  0  0  0  0  0  0  0  0  0
   17.9643  -23.8625   -9.8317 C   0  0  0  0  0  0  0  0  0  0  0  0
   18.5368  -24.4061   -8.5788 C   0  0  0  0  0  0  0  0  0  0  0  0
   18.3255  -25.8525   -8.3008 C   0  0  2  0  0  0  0  0  0  0  0  0
   17.6711  -26.4704   -9.4324 N   0  0  0  0  0  0  0  0  0  0  0  0
   17.5561  -26.0845   -7.0426 C   0  0  0  0  0  0  0  0  0  0  0  0
   16.3116  -26.2088   -7.1501 O   0  0  0  0  0  0  0  0  0  0  0  0
   16.9444  -21.8348  -13.8769 N   0  0  0  0  0  0  0  0  0  0  0  0
   17.7976  -26.5048   -0.9359 C   0  0  0  0  0  0  0  0  0  0  0  0
   17.4114  -26.9851   -2.1942 O   0  0  0  0  0  0  0  0  0  0  0  0
   16.2912  -27.5826   -2.2506 C   0  0  0  0  0  0  0  0  0  0  0  0
   18.1840  -26.8551   -3.4295 C   0  0  2  0  0  0  0  0  0  0  0  0
   17.4047  -26.2817   -4.5787 N   0  0  0  0  0  0  0  0  0  0  0  0
   18.1862  -26.1642   -5.7699 C   0  0  0  0  0  0  0  0  0  0  0  0
   16.7192  -25.0143   -4.2102 O   0  0  0  0  0  0  0  0  0  0  0  0
   17.3512  -23.9290   -4.1593 C   0  0  0  0  0  0  0  0  0  0  0  0
   12.8513  -21.3184   -5.0713 C   0  0  2  0  0  0  0  0  0  0  0  0
   12.4830  -22.4470   -4.1435 C   0  0  0  0  0  0  0  0  0  0  0  0
   10.9854  -22.6326   -4.1346 C   0  0  0  0  0  0  0  0  0  0  0  0
   13.2718  -23.6730   -4.2745 C   0  0  1  0  0  0  0  0  0  0  0  0
   14.5911  -23.7627   -3.5867 N   0  0  0  0  0  0  0  0  0  0  0  0
   15.3454  -24.9579   -3.9025 C   0  0  0  0  0  0  0  0  0  0  0  0
   14.6088  -23.3850   -2.1820 O   0  0  0  0  0  0  0  0  0  0  0  0
   14.9395  -22.1473   -1.6506 O   0  0  0  0  0  0  0  0  0  0  0  0
  1  2  1  0
  2  4  1  0
  3  2  2  0
  4  5  1  0
  5  6  1  0
  7  6  1  0
  8  9  1  6
  8  7  1  0
 10  8  1  0
 10 11  2  0
 13 12  1  0
 13 15  1  0
 14 13  2  0
 16 15  1  6
 16 17  1  0
 16 18  1  0
 17 10  1  0
 18 25  1  0
 19 18  2  0
 21 20  1  1
 21 23  1  0
 22 21  1  0
 24 23  1  6
 24 26  1  0
 25 24  1  0
 26 28  2  0
 26 27  1  0
M  END
$$$$
