RNL.pdb
     RDKit          3D

 28 27  0  0  1  0  0  0  0  0999 V2000
   17.1974  -25.2013   -5.3485 N   0  0  0  0  0  0  0  0  0  0  0  0
   17.3015  -25.0135   -3.9359 C   0  0  0  0  0  0  0  0  0  0  0  0
   18.2038  -25.6565   -3.2803 N   0  0  0  0  0  0  0  0  0  0  0  0
   16.4436  -24.1419   -3.2284 N   0  0  0  0  0  0  0  0  0  0  0  0
   15.3859  -23.3822   -3.9173 C   0  0  0  0  0  0  0  0  0  0  0  0
   14.7512  -22.4876   -2.8885 C   0  0  0  0  0  0  0  0  0  0  0  0
   14.6844  -23.0227   -1.5093 C   0  0  0  0  0  0  0  0  0  0  0  0
   13.4494  -22.7461   -0.7269 C   0  0  2  0  0  0  0  0  0  0  0  0
   12.4192  -22.2496   -1.6116 N   0  0  0  0  0  0  0  0  0  0  0  0
   13.6901  -21.7995    0.4022 C   0  0  0  0  0  0  0  0  0  0  0  0
   13.6453  -20.5732    0.1374 O   0  0  0  0  0  0  0  0  0  0  0  0
   18.2430  -25.6458   -2.2414 N   0  0  0  0  0  0  0  0  0  0  0  0
   13.4260  -21.2057    6.5628 C   0  0  0  0  0  0  0  0  0  0  0  0
   13.7206  -20.9232    5.2224 O   0  0  0  0  0  0  0  0  0  0  0  0
   14.0061  -19.7152    4.9499 C   0  0  0  0  0  0  0  0  0  0  0  0
   13.7253  -21.8942    4.1284 C   0  0  2  0  0  0  0  0  0  0  0  0
   14.0963  -21.3092    2.7954 N   0  0  0  0  0  0  0  0  0  0  0  0
   13.9597  -22.2470    1.7252 C   0  0  0  0  0  0  0  0  0  0  0  0
   15.4327  -20.6572    2.8250 O   0  0  0  0  0  0  0  0  0  0  0  0
   16.4779  -21.3149    2.5903 C   0  0  0  0  0  0  0  0  0  0  0  0
   19.3515  -17.1824    1.3191 C   0  0  2  0  0  0  0  0  0  0  0  0
   18.2743  -16.7002    2.2556 C   0  0  0  0  0  0  0  0  0  0  0  0
   18.1206  -15.2042    2.1301 C   0  0  0  0  0  0  0  0  0  0  0  0
   17.0274  -17.4669    2.2535 C   0  0  1  0  0  0  0  0  0  0  0  0
   16.8654  -18.5896    3.2203 N   0  0  0  0  0  0  0  0  0  0  0  0
   15.6016  -19.2884    3.1128 C   0  0  0  0  0  0  0  0  0  0  0  0
   17.3038  -18.3304    4.5831 O   0  0  0  0  0  0  0  0  0  0  0  0
   18.6061  -18.3346    5.0600 O   0  0  0  0  0  0  0  0  0  0  0  0
  1  2  1  0
  2  4  1  0
  3  2  2  0
  4  5  1  0
  5  6  1  0
  7  6  1  0
  8  9  1  6
  8  7  1  0
 10  8  1  0
 10 11  2  0
 13 12  1  0
 13 15  1  0
 14 13  2  0
 16 15  1  6
 16 17  1  0
 16 18  1  0
 17 10  1  0
 18 25  1  0
 19 18  2  0
 21 20  1  1
 21 23  1  0
 22 21  1  0
 24 23  1  6
 24 26  1  0
 25 24  1  0
 26 28  2  0
 26 27  1  0
M  END
$$$$
