RNL.pdb
     RDKit          3D

 28 27  0  0  1  0  0  0  0  0999 V2000
   31.1432  -26.0331  -18.3857 N   0  0  0  0  0  0  0  0  0  0  0  0
   31.9064  -25.1825  -17.5282 C   0  0  0  0  0  0  0  0  0  0  0  0
   33.1327  -24.9263  -17.8250 N   0  0  0  0  0  0  0  0  0  0  0  0
   31.3598  -24.6090  -16.3584 N   0  0  0  0  0  0  0  0  0  0  0  0
   29.9133  -24.3606  -16.2310 C   0  0  0  0  0  0  0  0  0  0  0  0
   29.6158  -23.1086  -17.0092 C   0  0  0  0  0  0  0  0  0  0  0  0
   28.6219  -22.1881  -16.4109 C   0  0  0  0  0  0  0  0  0  0  0  0
   27.7968  -22.7082  -15.2873 C   0  0  2  0  0  0  0  0  0  0  0  0
   26.6110  -23.3457  -15.8147 N   0  0  0  0  0  0  0  0  0  0  0  0
   27.4417  -21.6450  -14.3012 C   0  0  0  0  0  0  0  0  0  0  0  0
   28.2590  -20.7027  -14.1597 O   0  0  0  0  0  0  0  0  0  0  0  0
   33.7179  -24.2893  -17.2483 N   0  0  0  0  0  0  0  0  0  0  0  0
   22.3313  -20.3766  -11.9179 C   0  0  0  0  0  0  0  0  0  0  0  0
   23.4481  -20.7704  -12.6669 O   0  0  0  0  0  0  0  0  0  0  0  0
   23.4158  -21.9439  -13.1536 C   0  0  0  0  0  0  0  0  0  0  0  0
   24.6304  -19.9499  -12.9289 C   0  0  1  0  0  0  0  0  0  0  0  0
   25.9301  -20.6365  -12.6188 N   0  0  0  0  0  0  0  0  0  0  0  0
   26.2366  -21.6801  -13.5463 C   0  0  0  0  0  0  0  0  0  0  0  0
   26.0002  -21.0839  -11.2021 O   0  0  0  0  0  0  0  0  0  0  0  0
   25.7391  -22.2721  -10.8860 C   0  0  0  0  0  0  0  0  0  0  0  0
   28.1145  -20.9259   -6.0664 C   0  0  2  0  0  0  0  0  0  0  0  0
   27.1825  -19.8048   -6.4469 C   0  0  0  0  0  0  0  0  0  0  0  0
   27.4559  -18.5982   -5.5827 C   0  0  0  0  0  0  0  0  0  0  0  0
   27.0447  -19.5390   -7.8796 C   0  0  1  0  0  0  0  0  0  0  0  0
   26.3539  -20.5416   -8.7394 N   0  0  0  0  0  0  0  0  0  0  0  0
   26.3574  -20.2167  -10.1506 C   0  0  0  0  0  0  0  0  0  0  0  0
   25.0892  -21.0550   -8.2360 O   0  0  0  0  0  0  0  0  0  0  0  0
   24.8955  -22.1770   -7.4441 O   0  0  0  0  0  0  0  0  0  0  0  0
  1  2  1  0
  2  4  1  0
  3  2  2  0
  4  5  1  0
  5  6  1  0
  7  6  1  0
  8  9  1  6
  8  7  1  0
 10  8  1  0
 10 11  2  0
 13 12  1  0
 13 15  1  0
 14 13  2  0
 16 15  1  6
 16 17  1  0
 16 18  1  0
 17 10  1  0
 18 25  1  0
 19 18  2  0
 21 20  1  1
 21 23  1  0
 22 21  1  0
 24 23  1  6
 24 26  1  0
 25 24  1  0
 26 28  2  0
 26 27  1  0
M  END
$$$$
