RLA.pdb
     RDKit          3D

 25 24  0  0  1  0  0  0  0  0999 V2000
    8.0735  -12.8929   16.5434 N   0  0  0  0  0  0  0  0  0  0  0  0
    8.5012  -14.2170   16.2180 C   0  0  0  0  0  0  0  0  0  0  0  0
    8.4628  -14.5533   14.9793 N   0  0  0  0  0  0  0  0  0  0  0  0
    8.9494  -15.1420   17.1739 N   0  0  0  0  0  0  0  0  0  0  0  0
    8.0626  -16.0701   17.8541 C   0  0  0  0  0  0  0  0  0  0  0  0
    7.2273  -15.2476   18.8039 C   0  0  0  0  0  0  0  0  0  0  0  0
    7.8907  -15.2323   20.1535 C   0  0  0  0  0  0  0  0  0  0  0  0
    6.8724  -15.6356   21.1878 C   0  0  2  0  0  0  0  0  0  0  0  0
    5.5614  -15.4573   20.5554 N   0  0  0  0  0  0  0  0  0  0  0  0
    7.0173  -14.6552   22.3207 C   0  0  0  0  0  0  0  0  0  0  0  0
    6.9519  -13.4196   22.1199 O   0  0  0  0  0  0  0  0  0  0  0  0
    8.7481  -15.4726   14.6036 C   0  0  0  0  0  0  0  0  0  0  0  0
    5.9309  -12.9196   27.8400 C   0  0  1  0  0  0  0  0  0  0  0  0
    7.0081  -13.0973   26.8137 C   0  0  0  0  0  0  0  0  0  0  0  0
    7.3427  -11.7167   26.2540 C   0  0  0  0  0  0  0  0  0  0  0  0
    6.6128  -13.9493   25.6510 C   0  0  2  0  0  0  0  0  0  0  0  0
    7.7303  -14.1618   24.6430 N   0  0  0  0  0  0  0  0  0  0  0  0
    7.2325  -15.0871   23.6513 C   0  0  0  0  0  0  0  0  0  0  0  0
    8.9105  -14.7956   25.3012 O   0  0  0  0  0  0  0  0  0  0  0  0
    9.5510  -14.2274   26.2240 C   0  0  0  0  0  0  0  0  0  0  0  0
   10.3469  -18.1341   25.7860 C   0  0  2  0  0  0  0  0  0  0  0  0
   10.5354  -16.6446   25.4747 N   0  0  0  0  0  0  0  0  0  0  0  0
    9.3473  -16.0735   24.8987 C   0  0  0  0  0  0  0  0  0  0  0  0
   11.6393  -16.4462   24.5087 O   0  0  0  0  0  0  0  0  0  0  0  0
   12.9565  -16.7571   24.8832 O   0  0  0  0  0  0  0  0  0  0  0  0
  1  2  1  0
  2  3  2  0
  4  5  1  0
  4  2  1  0
  6  7  1  0
  6  5  1  0
  7  8  1  0
  8  9  1  6
 10  8  1  0
 10 17  1  0
 11 10  2  0
 13 12  1  1
 13 14  1  0
 16 15  1  6
 15 13  1  0
 16 17  1  0
 18 16  1  0
 19 18  2  0
 21 20  1  1
 21 22  1  0
 21 23  1  0
 22 18  1  0
 23 24  1  0
 25 23  2  0
M  END
$$$$
