RLA.pdb
     RDKit          3D

 25 24  0  0  1  0  0  0  0  0999 V2000
    9.1887  -12.7872   17.8193 N   0  0  0  0  0  0  0  0  0  0  0  0
    8.6130  -13.6639   16.8488 C   0  0  0  0  0  0  0  0  0  0  0  0
    9.2281  -13.7751   15.7272 N   0  0  0  0  0  0  0  0  0  0  0  0
    7.4312  -14.3894   17.0663 N   0  0  0  0  0  0  0  0  0  0  0  0
    6.7043  -14.3599   18.3238 C   0  0  0  0  0  0  0  0  0  0  0  0
    7.3718  -15.3657   19.2290 C   0  0  0  0  0  0  0  0  0  0  0  0
    7.7953  -14.6785   20.4979 C   0  0  0  0  0  0  0  0  0  0  0  0
    8.2987  -15.7238   21.4588 C   0  0  2  0  0  0  0  0  0  0  0  0
    7.1788  -16.6451   21.6769 N   0  0  0  0  0  0  0  0  0  0  0  0
    8.6051  -14.9985   22.7417 C   0  0  0  0  0  0  0  0  0  0  0  0
    9.5866  -14.2238   22.8290 O   0  0  0  0  0  0  0  0  0  0  0  0
    8.9108  -14.3500   14.9295 C   0  0  0  0  0  0  0  0  0  0  0  0
    5.4501  -12.5410   27.2921 C   0  0  1  0  0  0  0  0  0  0  0  0
    6.7817  -12.9661   26.7523 C   0  0  0  0  0  0  0  0  0  0  0  0
    7.5505  -11.7017   26.3759 C   0  0  0  0  0  0  0  0  0  0  0  0
    6.7034  -13.8060   25.5184 C   0  0  2  0  0  0  0  0  0  0  0  0
    8.0468  -14.3581   25.0705 N   0  0  0  0  0  0  0  0  0  0  0  0
    7.8011  -15.1616   23.8951 C   0  0  0  0  0  0  0  0  0  0  0  0
    8.6169  -15.2535   26.1198 O   0  0  0  0  0  0  0  0  0  0  0  0
    8.8344  -14.8583   27.2949 C   0  0  0  0  0  0  0  0  0  0  0  0
    9.1996  -18.9124   26.5781 C   0  0  2  0  0  0  0  0  0  0  0  0
    9.5382  -17.4354   26.8123 N   0  0  0  0  0  0  0  0  0  0  0  0
    8.9325  -16.5929   25.8159 C   0  0  0  0  0  0  0  0  0  0  0  0
   11.0009  -17.2167   26.7522 O   0  0  0  0  0  0  0  0  0  0  0  0
   11.8374  -17.8410   27.6915 O   0  0  0  0  0  0  0  0  0  0  0  0
  1  2  1  0
  2  3  2  0
  4  5  1  0
  4  2  1  0
  6  7  1  0
  6  5  1  0
  7  8  1  0
  8  9  1  1
 10  8  1  0
 10 17  1  0
 11 10  2  0
 13 12  1  1
 13 14  1  0
 16 15  1  6
 15 13  1  0
 16 17  1  0
 18 16  1  0
 19 18  2  0
 21 20  1  1
 21 22  1  0
 21 23  1  0
 22 18  1  0
 23 24  1  0
 25 23  2  0
M  END
$$$$
