RLA.pdb
     RDKit          3D

 25 24  0  0  1  0  0  0  0  0999 V2000
    6.6899  -13.7198   16.3734 N   0  0  0  0  0  0  0  0  0  0  0  0
    8.1186  -13.6951   16.3880 C   0  0  0  0  0  0  0  0  0  0  0  0
    8.7157  -13.8930   15.2686 N   0  0  0  0  0  0  0  0  0  0  0  0
    8.8765  -13.4697   17.5477 N   0  0  0  0  0  0  0  0  0  0  0  0
    8.8212  -14.3385   18.7108 C   0  0  0  0  0  0  0  0  0  0  0  0
    7.8420  -13.7088   19.6705 C   0  0  0  0  0  0  0  0  0  0  0  0
    8.4759  -13.6220   21.0316 C   0  0  0  0  0  0  0  0  0  0  0  0
    8.4815  -14.9993   21.6416 C   0  0  2  0  0  0  0  0  0  0  0  0
    7.1063  -15.4962   21.5304 N   0  0  0  0  0  0  0  0  0  0  0  0
    8.8280  -14.8111   23.0943 C   0  0  0  0  0  0  0  0  0  0  0  0
    9.9738  -14.4425   23.4441 O   0  0  0  0  0  0  0  0  0  0  0  0
    9.7399  -13.9439   15.1419 C   0  0  0  0  0  0  0  0  0  0  0  0
    8.0067  -11.6973   26.0052 C   0  0  2  0  0  0  0  0  0  0  0  0
    6.8971  -12.6154   25.5912 C   0  0  0  0  0  0  0  0  0  0  0  0
    5.6002  -12.0636   26.1783 C   0  0  0  0  0  0  0  0  0  0  0  0
    7.0380  -14.0147   26.0972 C   0  0  2  0  0  0  0  0  0  0  0  0
    8.2150  -14.7650   25.4957 N   0  0  0  0  0  0  0  0  0  0  0  0
    7.8784  -15.0417   24.1183 C   0  0  0  0  0  0  0  0  0  0  0  0
    8.4051  -16.0741   26.1870 O   0  0  0  0  0  0  0  0  0  0  0  0
    8.5526  -16.1605   27.4341 C   0  0  0  0  0  0  0  0  0  0  0  0
    8.0727  -19.7013   25.3471 C   0  0  2  0  0  0  0  0  0  0  0  0
    8.6978  -18.5229   26.1030 N   0  0  0  0  0  0  0  0  0  0  0  0
    8.4244  -17.2726   25.4460 C   0  0  0  0  0  0  0  0  0  0  0  0
   10.1683  -18.6720   26.1838 O   0  0  0  0  0  0  0  0  0  0  0  0
   10.9982  -17.7687   25.5003 O   0  0  0  0  0  0  0  0  0  0  0  0
  1  2  1  0
  2  3  2  0
  4  5  1  0
  4  2  1  0
  6  7  1  0
  6  5  1  0
  7  8  1  0
  8  9  1  1
 10  8  1  0
 10 17  1  0
 11 10  2  0
 13 12  1  6
 13 14  1  0
 16 15  1  6
 15 13  1  0
 16 17  1  0
 18 16  1  0
 19 18  2  0
 21 20  1  1
 21 22  1  0
 21 23  1  0
 22 18  1  0
 23 24  1  0
 25 23  2  0
M  END
$$$$
