RLA.pdb
     RDKit          3D

 25 24  0  0  1  0  0  0  0  0999 V2000
    7.9668  -14.5952   16.6801 N   0  0  0  0  0  0  0  0  0  0  0  0
    8.3320  -14.4529   18.0543 C   0  0  0  0  0  0  0  0  0  0  0  0
    8.2419  -13.2768   18.5619 N   0  0  0  0  0  0  0  0  0  0  0  0
    8.7750  -15.5199   18.8514 N   0  0  0  0  0  0  0  0  0  0  0  0
    7.8692  -16.4439   19.5121 C   0  0  0  0  0  0  0  0  0  0  0  0
    6.9490  -15.6063   20.3654 C   0  0  0  0  0  0  0  0  0  0  0  0
    7.7001  -15.1343   21.5797 C   0  0  0  0  0  0  0  0  0  0  0  0
    6.9249  -15.5411   22.8056 C   0  0  2  0  0  0  0  0  0  0  0  0
    5.5842  -14.9694   22.6441 N   0  0  0  0  0  0  0  0  0  0  0  0
    7.6114  -14.8816   23.9715 C   0  0  0  0  0  0  0  0  0  0  0  0
    7.5461  -13.6418   24.1445 O   0  0  0  0  0  0  0  0  0  0  0  0
    8.5329  -13.0184   19.5190 C   0  0  0  0  0  0  0  0  0  0  0  0
    9.8148  -15.3903   29.5708 C   0  0  1  0  0  0  0  0  0  0  0  0
    9.9871  -14.8378   28.1887 C   0  0  0  0  0  0  0  0  0  0  0  0
    9.7644  -13.3292   28.2652 C   0  0  0  0  0  0  0  0  0  0  0  0
    9.0089  -15.3674   27.1903 C   0  0  2  0  0  0  0  0  0  0  0  0
    9.3286  -14.9761   25.7568 N   0  0  0  0  0  0  0  0  0  0  0  0
    8.3547  -15.6313   24.9143 C   0  0  0  0  0  0  0  0  0  0  0  0
   10.6775  -15.4832   25.3680 O   0  0  0  0  0  0  0  0  0  0  0  0
   11.7311  -15.0956   25.9374 C   0  0  0  0  0  0  0  0  0  0  0  0
   12.2096  -18.4358   24.1197 C   0  0  2  0  0  0  0  0  0  0  0  0
   12.1114  -16.9141   23.9589 N   0  0  0  0  0  0  0  0  0  0  0  0
   10.8093  -16.4292   24.3318 C   0  0  0  0  0  0  0  0  0  0  0  0
   12.3486  -16.5188   22.5523 O   0  0  0  0  0  0  0  0  0  0  0  0
   13.6136  -16.7194   21.9767 O   0  0  0  0  0  0  0  0  0  0  0  0
  1  2  1  0
  2  3  2  0
  4  5  1  0
  4  2  1  0
  6  7  1  0
  6  5  1  0
  7  8  1  0
  8  9  1  6
 10  8  1  0
 10 17  1  0
 11 10  2  0
 13 12  1  1
 13 14  1  0
 16 15  1  1
 15 13  1  0
 16 17  1  0
 18 16  1  0
 19 18  2  0
 21 20  1  1
 21 22  1  0
 21 23  1  0
 22 18  1  0
 23 24  1  0
 25 23  2  0
M  END
$$$$
