RLA.pdb
     RDKit          3D

 25 24  0  0  1  0  0  0  0  0999 V2000
    6.9194  -13.5285   16.3566 N   0  0  0  0  0  0  0  0  0  0  0  0
    8.1889  -14.0399   16.7674 C   0  0  0  0  0  0  0  0  0  0  0  0
    9.0164  -13.2018   17.2788 N   0  0  0  0  0  0  0  0  0  0  0  0
    8.5588  -15.3876   16.6368 N   0  0  0  0  0  0  0  0  0  0  0  0
    8.7835  -16.2609   17.7759 C   0  0  0  0  0  0  0  0  0  0  0  0
    8.7764  -15.3793   19.0004 C   0  0  0  0  0  0  0  0  0  0  0  0
    9.2713  -16.1722   20.1786 C   0  0  0  0  0  0  0  0  0  0  0  0
    8.1560  -16.2716   21.1863 C   0  0  2  0  0  0  0  0  0  0  0  0
    6.9949  -15.6219   20.5696 N   0  0  0  0  0  0  0  0  0  0  0  0
    8.6000  -15.4703   22.3807 C   0  0  0  0  0  0  0  0  0  0  0  0
    9.6881  -14.8480   22.3747 O   0  0  0  0  0  0  0  0  0  0  0  0
    9.9849  -13.4213   17.5643 C   0  0  0  0  0  0  0  0  0  0  0  0
    6.0362  -12.4059   27.0031 C   0  0  1  0  0  0  0  0  0  0  0  0
    7.2653  -12.9981   26.3834 C   0  0  0  0  0  0  0  0  0  0  0  0
    8.1281  -11.8438   25.8791 C   0  0  0  0  0  0  0  0  0  0  0  0
    6.9951  -13.8799   25.2072 C   0  0  2  0  0  0  0  0  0  0  0  0
    8.2375  -14.5622   24.6586 N   0  0  0  0  0  0  0  0  0  0  0  0
    7.8106  -15.3881   23.5526 C   0  0  0  0  0  0  0  0  0  0  0  0
    8.8355  -15.4604   25.6898 O   0  0  0  0  0  0  0  0  0  0  0  0
    9.4322  -15.0149   26.7047 C   0  0  0  0  0  0  0  0  0  0  0  0
   11.0315  -17.7558   25.4949 C   0  0  1  0  0  0  0  0  0  0  0  0
    9.6852  -17.7139   26.2274 N   0  0  0  0  0  0  0  0  0  0  0  0
    8.7453  -16.8600   25.5513 C   0  0  0  0  0  0  0  0  0  0  0  0
    9.8522  -17.1927   27.6027 O   0  0  0  0  0  0  0  0  0  0  0  0
   10.6039  -17.9229   28.5374 O   0  0  0  0  0  0  0  0  0  0  0  0
  1  2  1  0
  2  3  2  0
  4  5  1  0
  4  2  1  0
  6  7  1  0
  6  5  1  0
  7  8  1  0
  8  9  1  6
 10  8  1  0
 10 17  1  0
 11 10  2  0
 13 12  1  1
 13 14  1  0
 16 15  1  6
 15 13  1  0
 16 17  1  0
 18 16  1  0
 19 18  2  0
 21 20  1  6
 21 22  1  0
 21 23  1  0
 22 18  1  0
 23 24  1  0
 25 23  2  0
M  END
$$$$
