RLA.pdb
     RDKit          3D

 25 24  0  0  1  0  0  0  0  0999 V2000
    9.8382  -14.7851   17.3581 N   0  0  0  0  0  0  0  0  0  0  0  0
    8.7134  -13.9757   17.0092 C   0  0  0  0  0  0  0  0  0  0  0  0
    8.4025  -13.9163   15.7648 N   0  0  0  0  0  0  0  0  0  0  0  0
    7.9543  -13.2603   17.9484 N   0  0  0  0  0  0  0  0  0  0  0  0
    8.3053  -13.1824   19.3560 C   0  0  0  0  0  0  0  0  0  0  0  0
    8.2645  -14.5940   19.8872 C   0  0  0  0  0  0  0  0  0  0  0  0
    7.5882  -14.5935   21.2304 C   0  0  0  0  0  0  0  0  0  0  0  0
    8.1945  -15.6890   22.0679 C   0  0  2  0  0  0  0  0  0  0  0  0
    7.0928  -16.5959   22.4061 N   0  0  0  0  0  0  0  0  0  0  0  0
    8.6975  -15.0258   23.3220 C   0  0  0  0  0  0  0  0  0  0  0  0
    9.7607  -14.3618   23.3216 O   0  0  0  0  0  0  0  0  0  0  0  0
    7.6339  -13.3495   15.3704 C   0  0  0  0  0  0  0  0  0  0  0  0
    7.4681  -11.4602   25.5778 C   0  0  2  0  0  0  0  0  0  0  0  0
    6.5872  -12.6699   25.6557 C   0  0  0  0  0  0  0  0  0  0  0  0
    5.3334  -12.2767   26.4334 C   0  0  0  0  0  0  0  0  0  0  0  0
    7.1972  -13.8272   26.3786 C   0  0  2  0  0  0  0  0  0  0  0  0
    8.4399  -14.3821   25.7020 N   0  0  0  0  0  0  0  0  0  0  0  0
    7.9937  -15.1251   24.5460 C   0  0  0  0  0  0  0  0  0  0  0  0
    9.1436  -15.3360   26.6090 O   0  0  0  0  0  0  0  0  0  0  0  0
    8.5456  -16.2837   27.1825 C   0  0  0  0  0  0  0  0  0  0  0  0
   10.4569  -14.6483   29.2445 C   0  0  1  0  0  0  0  0  0  0  0  0
   11.0667  -15.5244   28.1439 N   0  0  0  0  0  0  0  0  0  0  0  0
   10.5249  -15.1979   26.8517 C   0  0  0  0  0  0  0  0  0  0  0  0
   10.7858  -16.9556   28.3966 O   0  0  0  0  0  0  0  0  0  0  0  0
   11.3709  -17.5953   29.5013 O   0  0  0  0  0  0  0  0  0  0  0  0
  1  2  1  0
  2  3  2  0
  4  5  1  0
  4  2  1  0
  6  7  1  0
  6  5  1  0
  7  8  1  0
  8  9  1  1
 10  8  1  0
 10 17  1  0
 11 10  2  0
 13 12  1  6
 13 14  1  0
 16 15  1  6
 15 13  1  0
 16 17  1  0
 18 16  1  0
 19 18  2  0
 21 20  1  6
 21 22  1  0
 21 23  1  0
 22 18  1  0
 23 24  1  0
 25 23  2  0
M  END
$$$$
