RLA.pdb
     RDKit          3D

 25 24  0  0  1  0  0  0  0  0999 V2000
    6.9851  -14.7722   15.9986 N   0  0  0  0  0  0  0  0  0  0  0  0
    8.3300  -15.1909   15.7576 C   0  0  0  0  0  0  0  0  0  0  0  0
    8.8642  -14.8238   14.6491 N   0  0  0  0  0  0  0  0  0  0  0  0
    9.0716  -15.9685   16.6606 N   0  0  0  0  0  0  0  0  0  0  0  0
    8.5723  -16.3541   17.9692 C   0  0  0  0  0  0  0  0  0  0  0  0
    8.0931  -15.0882   18.6358 C   0  0  0  0  0  0  0  0  0  0  0  0
    8.5889  -15.0632   20.0554 C   0  0  0  0  0  0  0  0  0  0  0  0
    7.9955  -13.8624   20.7446 C   0  0  2  0  0  0  0  0  0  0  0  0
    8.5722  -12.6891   20.0804 N   0  0  0  0  0  0  0  0  0  0  0  0
    8.4791  -13.9173   22.1690 C   0  0  0  0  0  0  0  0  0  0  0  0
    9.6858  -13.7283   22.4507 O   0  0  0  0  0  0  0  0  0  0  0  0
    9.8201  -15.0661   14.3407 C   0  0  0  0  0  0  0  0  0  0  0  0
    8.1474  -11.5438   26.0740 C   0  0  2  0  0  0  0  0  0  0  0  0
    6.9363  -12.2208   25.5081 C   0  0  0  0  0  0  0  0  0  0  0  0
    5.7459  -11.8442   26.3870 C   0  0  0  0  0  0  0  0  0  0  0  0
    7.0138  -13.7134   25.5042 C   0  0  2  0  0  0  0  0  0  0  0  0
    8.0984  -14.2652   24.5936 N   0  0  0  0  0  0  0  0  0  0  0  0
    7.5951  -14.1835   23.2418 C   0  0  0  0  0  0  0  0  0  0  0  0
    8.3491  -15.7050   24.8969 O   0  0  0  0  0  0  0  0  0  0  0  0
    7.4298  -16.5648   24.8829 C   0  0  0  0  0  0  0  0  0  0  0  0
   11.1825  -17.9956   24.6946 C   0  0  2  0  0  0  0  0  0  0  0  0
    9.9038  -17.5502   25.4140 N   0  0  0  0  0  0  0  0  0  0  0  0
    9.6488  -16.1487   25.2130 C   0  0  0  0  0  0  0  0  0  0  0  0
   10.0156  -17.7785   26.8722 O   0  0  0  0  0  0  0  0  0  0  0  0
   10.2346  -19.0775   27.3587 O   0  0  0  0  0  0  0  0  0  0  0  0
  1  2  1  0
  2  3  2  0
  4  5  1  0
  4  2  1  0
  6  7  1  0
  6  5  1  0
  7  8  1  0
  8  9  1  6
 10  8  1  0
 10 17  1  0
 11 10  2  0
 13 12  1  6
 13 14  1  0
 16 15  1  6
 15 13  1  0
 16 17  1  0
 18 16  1  0
 19 18  2  0
 21 20  1  6
 21 22  1  0
 21 23  1  0
 22 18  1  0
 23 24  1  0
 25 23  2  0
M  END
$$$$
