RLA.pdb
     RDKit          3D

 25 24  0  0  1  0  0  0  0  0999 V2000
    8.4349  -18.8532   18.7249 N   0  0  0  0  0  0  0  0  0  0  0  0
    9.0267  -20.0482   19.2383 C   0  0  0  0  0  0  0  0  0  0  0  0
    8.8511  -21.1234   18.5586 N   0  0  0  0  0  0  0  0  0  0  0  0
    9.7729  -20.0931   20.4263 N   0  0  0  0  0  0  0  0  0  0  0  0
   10.1042  -18.9079   21.1983 C   0  0  0  0  0  0  0  0  0  0  0  0
    8.9051  -18.6109   22.0645 C   0  0  0  0  0  0  0  0  0  0  0  0
    9.2704  -17.5434   23.0589 C   0  0  0  0  0  0  0  0  0  0  0  0
    8.6597  -16.2431   22.6056 C   0  0  2  0  0  0  0  0  0  0  0  0
    9.3098  -15.9132   21.3332 N   0  0  0  0  0  0  0  0  0  0  0  0
    9.0414  -15.2194   23.6410 C   0  0  0  0  0  0  0  0  0  0  0  0
   10.1249  -14.5937   23.5642 O   0  0  0  0  0  0  0  0  0  0  0  0
    9.2391  -22.0499   18.8006 C   0  0  0  0  0  0  0  0  0  0  0  0
    7.4513  -11.0456   25.2264 C   0  0  2  0  0  0  0  0  0  0  0  0
    6.5891  -12.2558   25.4196 C   0  0  0  0  0  0  0  0  0  0  0  0
    5.3406  -11.8147   26.1798 C   0  0  0  0  0  0  0  0  0  0  0  0
    7.2257  -13.3394   26.2288 C   0  0  2  0  0  0  0  0  0  0  0  0
    8.5322  -13.8499   25.6435 N   0  0  0  0  0  0  0  0  0  0  0  0
    8.1965  -14.9240   24.7374 C   0  0  0  0  0  0  0  0  0  0  0  0
    9.3966  -14.4187   26.7192 O   0  0  0  0  0  0  0  0  0  0  0  0
    9.7765  -13.7371   27.7069 C   0  0  0  0  0  0  0  0  0  0  0  0
   10.7501  -15.3779   28.8956 C   0  0  2  0  0  0  0  0  0  0  0  0
   10.6975  -16.2904   27.6645 N   0  0  0  0  0  0  0  0  0  0  0  0
    9.8184  -15.7618   26.6558 C   0  0  0  0  0  0  0  0  0  0  0  0
   10.1997  -17.6357   28.0295 O   0  0  0  0  0  0  0  0  0  0  0  0
   10.9607  -18.4520   28.8818 O   0  0  0  0  0  0  0  0  0  0  0  0
  1  2  1  0
  2  3  2  0
  4  5  1  0
  4  2  1  0
  6  7  1  0
  6  5  1  0
  7  8  1  0
  8  9  1  6
 10  8  1  0
 10 17  1  0
 11 10  2  0
 13 12  1  6
 13 14  1  0
 16 15  1  6
 15 13  1  0
 16 17  1  0
 18 16  1  0
 19 18  2  0
 21 20  1  6
 21 22  1  0
 21 23  1  0
 22 18  1  0
 23 24  1  0
 25 23  2  0
M  END
$$$$
