RLA.pdb
     RDKit          3D

 25 24  0  0  1  0  0  0  0  0999 V2000
    8.4298  -12.0947   18.6567 N   0  0  0  0  0  0  0  0  0  0  0  0
    8.4296  -13.1637   17.7084 C   0  0  0  0  0  0  0  0  0  0  0  0
    7.6536  -13.0408   16.6928 N   0  0  0  0  0  0  0  0  0  0  0  0
    9.2230  -14.3142   17.8395 N   0  0  0  0  0  0  0  0  0  0  0  0
    9.0400  -15.2848   18.9049 C   0  0  0  0  0  0  0  0  0  0  0  0
    8.1300  -14.6400   19.9211 C   0  0  0  0  0  0  0  0  0  0  0  0
    7.1818  -15.6765   20.4582 C   0  0  0  0  0  0  0  0  0  0  0  0
    7.9151  -16.5078   21.4783 C   0  0  2  0  0  0  0  0  0  0  0  0
    6.9288  -17.4508   22.0155 N   0  0  0  0  0  0  0  0  0  0  0  0
    8.3393  -15.5566   22.5650 C   0  0  0  0  0  0  0  0  0  0  0  0
    9.3905  -14.8819   22.4608 O   0  0  0  0  0  0  0  0  0  0  0  0
    7.6338  -13.6774   15.8791 C   0  0  0  0  0  0  0  0  0  0  0  0
    5.8511  -12.2014   27.0228 C   0  0  1  0  0  0  0  0  0  0  0  0
    7.0740  -12.7447   26.3484 C   0  0  0  0  0  0  0  0  0  0  0  0
    7.8103  -11.5676   25.7131 C   0  0  0  0  0  0  0  0  0  0  0  0
    6.7876  -13.7172   25.2501 C   0  0  2  0  0  0  0  0  0  0  0  0
    8.0148  -14.4757   24.7720 N   0  0  0  0  0  0  0  0  0  0  0  0
    7.5719  -15.3870   23.7422 C   0  0  0  0  0  0  0  0  0  0  0  0
    8.5870  -15.2918   25.8831 O   0  0  0  0  0  0  0  0  0  0  0  0
    9.0004  -14.7742   26.9534 C   0  0  0  0  0  0  0  0  0  0  0  0
    8.1962  -18.6768   27.1241 C   0  0  2  0  0  0  0  0  0  0  0  0
    9.1291  -17.4861   26.8734 N   0  0  0  0  0  0  0  0  0  0  0  0
    8.6809  -16.6926   25.7603 C   0  0  0  0  0  0  0  0  0  0  0  0
   10.5009  -17.9498   26.5669 O   0  0  0  0  0  0  0  0  0  0  0  0
   11.2191  -18.6816   27.5264 O   0  0  0  0  0  0  0  0  0  0  0  0
  1  2  1  0
  2  3  2  0
  4  5  1  0
  4  2  1  0
  6  7  1  0
  6  5  1  0
  7  8  1  0
  8  9  1  1
 10  8  1  0
 10 17  1  0
 11 10  2  0
 13 12  1  1
 13 14  1  0
 16 15  1  6
 15 13  1  0
 16 17  1  0
 18 16  1  0
 19 18  2  0
 21 20  1  1
 21 22  1  0
 21 23  1  0
 22 18  1  0
 23 24  1  0
 25 23  2  0
M  END
$$$$
