DID.pdb
     RDKit          3D

 25 24  0  0  1  0  0  0  0  0999 V2000
    8.0175  -14.6472   19.9962 N   0  0  0  0  0  0  0  0  0  0  0  0
    7.4443  -15.3585   21.1180 C   0  0  1  0  0  0  0  0  0  0  0  0
    7.5833  -16.8490   20.8074 C   0  0  0  0  0  0  0  0  0  0  0  0
    6.7967  -17.1739   19.5907 C   0  0  0  0  0  0  0  0  0  0  0  0
    5.5618  -16.9650   19.4752 O   0  0  0  0  0  0  0  0  0  0  0  0
    8.1748  -15.0563   22.3762 C   0  0  0  0  0  0  0  0  0  0  0  0
    9.4500  -15.0010   22.3984 O   0  0  0  0  0  0  0  0  0  0  0  0
    7.4512  -17.7389   18.5182 O   0  0  0  0  0  0  0  0  0  0  0  0
    6.0260  -11.6207   26.0743 C   0  0  0  0  0  0  0  0  0  0  0  0
    7.0155  -12.3170   25.1428 C   0  0  0  0  0  0  0  0  0  0  0  0
    7.3805  -13.6282   25.7146 C   0  0  2  0  0  0  0  0  0  0  0  0
    8.1947  -13.3769   26.9913 C   0  0  0  0  0  0  0  0  0  0  0  0
    8.1927  -14.5265   24.8512 C   0  0  2  0  0  0  0  0  0  0  0  0
    7.5105  -14.8152   23.6079 N   0  0  0  0  0  0  0  0  0  0  0  0
    8.6637  -15.7571   25.4479 C   0  0  0  0  0  0  0  0  0  0  0  0
    7.9237  -16.6811   25.9053 O   0  0  0  0  0  0  0  0  0  0  0  0
   10.0602  -15.9808   25.5450 N   0  0  0  0  0  0  0  0  0  0  0  0
   10.5870  -17.2539   26.0550 C   0  0  1  0  0  0  0  0  0  0  0  0
   11.9479  -17.5106   25.5029 C   0  0  0  0  0  0  0  0  0  0  0  0
   12.6641  -18.6666   26.0365 C   0  0  0  0  0  0  0  0  0  0  0  0
   13.7620  -18.4387   26.6552 O   0  0  0  0  0  0  0  0  0  0  0  0
   10.6231  -17.2032   27.5412 C   0  0  0  0  0  0  0  0  0  0  0  0
   10.6674  -18.2476   28.2481 O   0  0  0  0  0  0  0  0  0  0  0  0
   12.2647  -19.9855   25.9312 O   0  0  0  0  0  0  0  0  0  0  0  0
   10.6092  -15.9979   28.1920 O   0  0  0  0  0  0  0  0  0  0  0  0
  2  1  1  6
  3  2  1  0
  3  4  1  0
  4  5  2  0
  6  2  1  0
  6  7  2  0
  8  4  1  0
  9 10  1  0
 10 11  1  0
 11 13  1  0
 11 12  1  1
 13 14  1  6
 14  6  1  0
 15 13  1  0
 15 16  2  0
 17 18  1  0
 17 15  1  0
 18 19  1  6
 19 20  1  0
 20 24  1  0
 21 20  2  0
 22 18  1  0
 23 22  2  0
 25 22  1  0
M  END
$$$$
