DID.pdb
     RDKit          3D

 25 24  0  0  1  0  0  0  0  0999 V2000
    8.3590  -15.7868   20.8473 N   0  0  0  0  0  0  0  0  0  0  0  0
    7.6871  -16.0221   22.1067 C   0  0  1  0  0  0  0  0  0  0  0  0
    7.7415  -17.5295   22.3560 C   0  0  0  0  0  0  0  0  0  0  0  0
    7.2337  -18.2454   21.1583 C   0  0  0  0  0  0  0  0  0  0  0  0
    6.2323  -17.8782   20.4917 O   0  0  0  0  0  0  0  0  0  0  0  0
    8.3752  -15.3221   23.2222 C   0  0  0  0  0  0  0  0  0  0  0  0
    9.6069  -14.9982   23.1343 O   0  0  0  0  0  0  0  0  0  0  0  0
    7.8935  -19.3819   20.7448 O   0  0  0  0  0  0  0  0  0  0  0  0
    5.6152  -11.6212   26.1549 C   0  0  0  0  0  0  0  0  0  0  0  0
    6.7175  -12.3062   25.3504 C   0  0  0  0  0  0  0  0  0  0  0  0
    7.3527  -13.3458   26.1841 C   0  0  2  0  0  0  0  0  0  0  0  0
    8.0959  -12.6444   27.3294 C   0  0  0  0  0  0  0  0  0  0  0  0
    8.3364  -14.2317   25.5062 C   0  0  2  0  0  0  0  0  0  0  0  0
    7.7162  -14.9774   24.4319 N   0  0  0  0  0  0  0  0  0  0  0  0
    9.0980  -15.1284   26.3478 C   0  0  0  0  0  0  0  0  0  0  0  0
    9.9033  -14.7707   27.2611 O   0  0  0  0  0  0  0  0  0  0  0  0
    8.9564  -16.5268   26.1636 N   0  0  0  0  0  0  0  0  0  0  0  0
    9.6442  -17.4779   27.0471 C   0  0  1  0  0  0  0  0  0  0  0  0
    9.0323  -18.8322   26.9283 C   0  0  0  0  0  0  0  0  0  0  0  0
    9.6583  -19.9040   27.6987 C   0  0  0  0  0  0  0  0  0  0  0  0
   10.8678  -20.2050   27.4045 O   0  0  0  0  0  0  0  0  0  0  0  0
   11.0868  -17.5188   26.6864 C   0  0  0  0  0  0  0  0  0  0  0  0
   11.9870  -17.7430   27.5419 O   0  0  0  0  0  0  0  0  0  0  0  0
    9.0612  -20.6249   28.7156 O   0  0  0  0  0  0  0  0  0  0  0  0
   11.4813  -17.3105   25.3912 O   0  0  0  0  0  0  0  0  0  0  0  0
  2  1  1  6
  3  2  1  0
  3  4  1  0
  4  5  2  0
  6  2  1  0
  6  7  2  0
  8  4  1  0
  9 10  1  0
 10 11  1  0
 11 13  1  0
 11 12  1  1
 13 14  1  6
 14  6  1  0
 15 13  1  0
 15 16  2  0
 17 18  1  0
 17 15  1  0
 18 19  1  6
 19 20  1  0
 20 24  1  0
 21 20  2  0
 22 18  1  0
 23 22  2  0
 25 22  1  0
M  END
$$$$
