DID.pdb
     RDKit          3D

 25 24  0  0  1  0  0  0  0  0999 V2000
    9.3987  -14.8856   20.4631 N   0  0  0  0  0  0  0  0  0  0  0  0
    8.3760  -15.4489   21.3174 C   0  0  1  0  0  0  0  0  0  0  0  0
    8.2674  -16.9292   20.9511 C   0  0  0  0  0  0  0  0  0  0  0  0
    7.7185  -17.0576   19.5774 C   0  0  0  0  0  0  0  0  0  0  0  0
    8.1939  -16.4696   18.5724 O   0  0  0  0  0  0  0  0  0  0  0  0
    8.7483  -15.3313   22.7511 C   0  0  0  0  0  0  0  0  0  0  0  0
    9.9471  -15.5388   23.1376 O   0  0  0  0  0  0  0  0  0  0  0  0
    6.6217  -17.8682   19.3826 O   0  0  0  0  0  0  0  0  0  0  0  0
    6.2345  -11.6065   25.8524 C   0  0  0  0  0  0  0  0  0  0  0  0
    7.2936  -12.4756   25.1782 C   0  0  0  0  0  0  0  0  0  0  0  0
    7.3048  -13.8081   25.8137 C   0  0  2  0  0  0  0  0  0  0  0  0
    7.8287  -13.6437   27.2471 C   0  0  0  0  0  0  0  0  0  0  0  0
    8.1440  -14.8482   25.1611 C   0  0  2  0  0  0  0  0  0  0  0  0
    7.8099  -14.9873   23.7598 N   0  0  0  0  0  0  0  0  0  0  0  0
    8.1757  -16.1514   25.7881 C   0  0  0  0  0  0  0  0  0  0  0  0
    7.1660  -16.8932   25.9901 O   0  0  0  0  0  0  0  0  0  0  0  0
    9.4202  -16.6719   26.2239 N   0  0  0  0  0  0  0  0  0  0  0  0
    9.5030  -17.9889   26.8696 C   0  0  1  0  0  0  0  0  0  0  0  0
   10.2355  -18.9498   25.9962 C   0  0  0  0  0  0  0  0  0  0  0  0
   11.5787  -18.5595   25.5748 C   0  0  0  0  0  0  0  0  0  0  0  0
   12.0333  -17.4507   26.0265 O   0  0  0  0  0  0  0  0  0  0  0  0
   10.1879  -17.8434   28.1820 C   0  0  0  0  0  0  0  0  0  0  0  0
   10.7231  -16.7594   28.5439 O   0  0  0  0  0  0  0  0  0  0  0  0
   12.4027  -19.2785   24.7296 O   0  0  0  0  0  0  0  0  0  0  0  0
   10.2556  -18.9031   29.0474 O   0  0  0  0  0  0  0  0  0  0  0  0
  2  1  1  6
  3  2  1  0
  3  4  1  0
  4  5  2  0
  6  2  1  0
  6  7  2  0
  8  4  1  0
  9 10  1  0
 10 11  1  0
 11 13  1  0
 11 12  1  1
 13 14  1  6
 14  6  1  0
 15 13  1  0
 15 16  2  0
 17 18  1  0
 17 15  1  0
 18 19  1  6
 19 20  1  0
 20 24  1  0
 21 20  2  0
 22 18  1  0
 23 22  2  0
 25 22  1  0
M  END
$$$$
