DID.pdb
     RDKit          3D

 25 24  0  0  1  0  0  0  0  0999 V2000
    7.2665  -16.8432   22.2052 N   0  0  0  0  0  0  0  0  0  0  0  0
    8.6240  -16.3840   22.0071 C   0  0  1  0  0  0  0  0  0  0  0  0
    8.6152  -15.5277   20.7406 C   0  0  0  0  0  0  0  0  0  0  0  0
    8.2580  -16.3757   19.5752 C   0  0  0  0  0  0  0  0  0  0  0  0
    8.6875  -17.5444   19.3982 O   0  0  0  0  0  0  0  0  0  0  0  0
    9.0826  -15.5527   23.1500 C   0  0  0  0  0  0  0  0  0  0  0  0
   10.2229  -14.9792   23.1294 O   0  0  0  0  0  0  0  0  0  0  0  0
    7.4048  -15.8588   18.6251 O   0  0  0  0  0  0  0  0  0  0  0  0
    5.8318  -12.0927   25.5778 C   0  0  0  0  0  0  0  0  0  0  0  0
    7.0799  -12.7390   24.9812 C   0  0  0  0  0  0  0  0  0  0  0  0
    7.6465  -13.6920   25.9560 C   0  0  2  0  0  0  0  0  0  0  0  0
    8.2291  -12.8835   27.1234 C   0  0  0  0  0  0  0  0  0  0  0  0
    8.7298  -14.5830   25.4614 C   0  0  2  0  0  0  0  0  0  0  0  0
    8.2942  -15.3494   24.3135 N   0  0  0  0  0  0  0  0  0  0  0  0
    9.3476  -15.4616   26.4302 C   0  0  0  0  0  0  0  0  0  0  0  0
    9.8932  -15.0905   27.5143 O   0  0  0  0  0  0  0  0  0  0  0  0
    9.3620  -16.8567   26.1788 N   0  0  0  0  0  0  0  0  0  0  0  0
    9.9449  -17.7926   27.1497 C   0  0  1  0  0  0  0  0  0  0  0  0
    9.3146  -19.1371   27.0171 C   0  0  0  0  0  0  0  0  0  0  0  0
    9.9365  -20.2287   27.7626 C   0  0  0  0  0  0  0  0  0  0  0  0
    9.9118  -20.1514   29.0407 O   0  0  0  0  0  0  0  0  0  0  0  0
   11.4128  -17.8749   26.9228 C   0  0  0  0  0  0  0  0  0  0  0  0
   11.9367  -17.5999   25.8083 O   0  0  0  0  0  0  0  0  0  0  0  0
   10.5521  -21.3370   27.2122 O   0  0  0  0  0  0  0  0  0  0  0  0
   12.2484  -18.2584   27.9383 O   0  0  0  0  0  0  0  0  0  0  0  0
  2  1  1  1
  3  2  1  0
  3  4  1  0
  4  5  2  0
  6  2  1  0
  6  7  2  0
  8  4  1  0
  9 10  1  0
 10 11  1  0
 11 13  1  0
 11 12  1  1
 13 14  1  6
 14  6  1  0
 15 13  1  0
 15 16  2  0
 17 18  1  0
 17 15  1  0
 18 19  1  6
 19 20  1  0
 20 24  1  0
 21 20  2  0
 22 18  1  0
 23 22  2  0
 25 22  1  0
M  END
$$$$
