DID.pdb
     RDKit          3D

 25 24  0  0  1  0  0  0  0  0999 V2000
    7.3528  -16.8649   22.1838 N   0  0  0  0  0  0  0  0  0  0  0  0
    8.6348  -16.2363   21.9513 C   0  0  1  0  0  0  0  0  0  0  0  0
    8.4522  -15.3005   20.7562 C   0  0  0  0  0  0  0  0  0  0  0  0
    8.3302  -16.1054   19.5144 C   0  0  0  0  0  0  0  0  0  0  0  0
    8.9966  -17.1467   19.2832 O   0  0  0  0  0  0  0  0  0  0  0  0
    9.0640  -15.4387   23.1291 C   0  0  0  0  0  0  0  0  0  0  0  0
   10.1769  -14.8133   23.1288 O   0  0  0  0  0  0  0  0  0  0  0  0
    7.4348  -15.6941   18.5516 O   0  0  0  0  0  0  0  0  0  0  0  0
    5.5876  -12.3426   25.8488 C   0  0  0  0  0  0  0  0  0  0  0  0
    6.8707  -12.8332   25.1822 C   0  0  0  0  0  0  0  0  0  0  0  0
    7.5201  -13.8317   26.0545 C   0  0  2  0  0  0  0  0  0  0  0  0
    8.0365  -13.1037   27.3032 C   0  0  0  0  0  0  0  0  0  0  0  0
    8.6731  -14.5707   25.4745 C   0  0  2  0  0  0  0  0  0  0  0  0
    8.2765  -15.3259   24.3053 N   0  0  0  0  0  0  0  0  0  0  0  0
    9.4251  -15.4191   26.3729 C   0  0  0  0  0  0  0  0  0  0  0  0
    9.9810  -15.0385   27.4484 O   0  0  0  0  0  0  0  0  0  0  0  0
    9.5721  -16.7929   26.0556 N   0  0  0  0  0  0  0  0  0  0  0  0
   10.2196  -17.7192   26.9942 C   0  0  1  0  0  0  0  0  0  0  0  0
    9.4195  -18.9706   27.1231 C   0  0  0  0  0  0  0  0  0  0  0  0
    9.9556  -20.0029   28.0068 C   0  0  0  0  0  0  0  0  0  0  0  0
   10.8147  -19.6340   28.8819 O   0  0  0  0  0  0  0  0  0  0  0  0
   11.5930  -18.0204   26.5086 C   0  0  0  0  0  0  0  0  0  0  0  0
   12.0025  -17.6442   25.3758 O   0  0  0  0  0  0  0  0  0  0  0  0
    9.6208  -21.3437   27.9817 O   0  0  0  0  0  0  0  0  0  0  0  0
   12.4643  -18.7271   27.2947 O   0  0  0  0  0  0  0  0  0  0  0  0
  2  1  1  1
  3  2  1  0
  3  4  1  0
  4  5  2  0
  6  2  1  0
  6  7  2  0
  8  4  1  0
  9 10  1  0
 10 11  1  0
 11 13  1  0
 11 12  1  1
 13 14  1  6
 14  6  1  0
 15 13  1  0
 15 16  2  0
 17 18  1  0
 17 15  1  0
 18 19  1  6
 19 20  1  0
 20 24  1  0
 21 20  2  0
 22 18  1  0
 23 22  2  0
 25 22  1  0
M  END
$$$$
