DID.pdb
     RDKit          3D

 25 24  0  0  1  0  0  0  0  0999 V2000
    9.3008  -15.3465   20.6803 N   0  0  0  0  0  0  0  0  0  0  0  0
    8.3106  -15.6761   21.6821 C   0  0  1  0  0  0  0  0  0  0  0  0
    8.0343  -17.1736   21.5472 C   0  0  0  0  0  0  0  0  0  0  0  0
    7.3518  -17.4340   20.2544 C   0  0  0  0  0  0  0  0  0  0  0  0
    7.6171  -16.8279   19.1848 O   0  0  0  0  0  0  0  0  0  0  0  0
    8.8180  -15.3992   23.0510 C   0  0  0  0  0  0  0  0  0  0  0  0
   10.0574  -15.5241   23.3300 O   0  0  0  0  0  0  0  0  0  0  0  0
    6.3668  -18.3964   20.2150 O   0  0  0  0  0  0  0  0  0  0  0  0
    6.0860  -11.8072   26.1778 C   0  0  0  0  0  0  0  0  0  0  0  0
    7.2657  -12.4985   25.4982 C   0  0  0  0  0  0  0  0  0  0  0  0
    7.5254  -13.7876   26.1692 C   0  0  2  0  0  0  0  0  0  0  0  0
    8.1659  -13.4904   27.5321 C   0  0  0  0  0  0  0  0  0  0  0  0
    8.4284  -14.7345   25.4621 C   0  0  2  0  0  0  0  0  0  0  0  0
    7.9700  -14.9863   24.1126 N   0  0  0  0  0  0  0  0  0  0  0  0
    8.7097  -15.9889   26.1252 C   0  0  0  0  0  0  0  0  0  0  0  0
    7.8686  -16.9179   26.3251 O   0  0  0  0  0  0  0  0  0  0  0  0
   10.0221  -16.2321   26.6028 N   0  0  0  0  0  0  0  0  0  0  0  0
   10.3774  -17.5220   27.2096 C   0  0  1  0  0  0  0  0  0  0  0  0
   11.5382  -18.1284   26.4970 C   0  0  0  0  0  0  0  0  0  0  0  0
   12.0994  -19.3462   27.0766 C   0  0  0  0  0  0  0  0  0  0  0  0
   13.1321  -19.2156   27.8227 O   0  0  0  0  0  0  0  0  0  0  0  0
   10.6948  -17.3105   28.6474 C   0  0  0  0  0  0  0  0  0  0  0  0
   10.8639  -16.1592   29.1358 O   0  0  0  0  0  0  0  0  0  0  0  0
   11.6176  -20.6281   26.8899 O   0  0  0  0  0  0  0  0  0  0  0  0
   10.8134  -18.3812   29.4936 O   0  0  0  0  0  0  0  0  0  0  0  0
  2  1  1  6
  3  2  1  0
  3  4  1  0
  4  5  2  0
  6  2  1  0
  6  7  2  0
  8  4  1  0
  9 10  1  0
 10 11  1  0
 11 13  1  0
 11 12  1  1
 13 14  1  6
 14  6  1  0
 15 13  1  0
 15 16  2  0
 17 18  1  0
 17 15  1  0
 18 19  1  6
 19 20  1  0
 20 24  1  0
 21 20  2  0
 22 18  1  0
 23 22  2  0
 25 22  1  0
M  END
$$$$
