DID.pdb
     RDKit          3D

 25 24  0  0  1  0  0  0  0  0999 V2000
    9.7650  -17.8448   16.2105 N   0  0  0  0  0  0  0  0  0  0  0  0
    8.9718  -17.8614   17.4202 C   0  0  1  0  0  0  0  0  0  0  0  0
    9.0922  -19.2700   18.0022 C   0  0  0  0  0  0  0  0  0  0  0  0
    8.3917  -20.2315   17.1136 C   0  0  0  0  0  0  0  0  0  0  0  0
    8.7174  -21.4400   16.9897 O   0  0  0  0  0  0  0  0  0  0  0  0
    9.4850  -16.8822   18.4131 C   0  0  0  0  0  0  0  0  0  0  0  0
   10.6993  -16.4897   18.3815 O   0  0  0  0  0  0  0  0  0  0  0  0
    7.3186  -19.7812   16.3764 O   0  0  0  0  0  0  0  0  0  0  0  0
    6.5417  -12.6320   20.2163 C   0  0  0  0  0  0  0  0  0  0  0  0
    7.7075  -13.4877   19.7262 C   0  0  0  0  0  0  0  0  0  0  0  0
    8.1189  -14.4104   20.8028 C   0  0  2  0  0  0  0  0  0  0  0  0
    8.6859  -13.5694   21.9549 C   0  0  0  0  0  0  0  0  0  0  0  0
    9.1527  -15.4207   20.4527 C   0  0  2  0  0  0  0  0  0  0  0  0
    8.6703  -16.3338   19.4387 N   0  0  0  0  0  0  0  0  0  0  0  0
    9.7343  -16.1675   21.5466 C   0  0  0  0  0  0  0  0  0  0  0  0
    9.1680  -17.1168   22.1699 O   0  0  0  0  0  0  0  0  0  0  0  0
   11.0422  -15.8373   21.9825 N   0  0  0  0  0  0  0  0  0  0  0  0
   11.7038  -16.6136   23.0398 C   0  0  1  0  0  0  0  0  0  0  0  0
   13.1578  -16.2879   23.0900 C   0  0  0  0  0  0  0  0  0  0  0  0
   13.9361  -16.9262   24.1488 C   0  0  0  0  0  0  0  0  0  0  0  0
   13.4946  -18.0364   24.6097 O   0  0  0  0  0  0  0  0  0  0  0  0
   11.0519  -16.3126   24.3426 C   0  0  0  0  0  0  0  0  0  0  0  0
   10.7412  -15.1378   24.6828 O   0  0  0  0  0  0  0  0  0  0  0  0
   15.1056  -16.4379   24.7002 O   0  0  0  0  0  0  0  0  0  0  0  0
   10.7668  -17.3233   25.2223 O   0  0  0  0  0  0  0  0  0  0  0  0
  2  1  1  6
  3  2  1  0
  3  4  1  0
  4  5  2  0
  6  2  1  0
  6  7  2  0
  8  4  1  0
  9 10  1  0
 10 11  1  0
 11 13  1  0
 11 12  1  1
 13 14  1  6
 14  6  1  0
 15 13  1  0
 15 16  2  0
 17 18  1  0
 17 15  1  0
 18 19  1  1
 19 20  1  0
 20 24  1  0
 21 20  2  0
 22 18  1  0
 23 22  2  0
 25 22  1  0
M  END
$$$$
