DID.pdb
     RDKit          3D

 25 24  0  0  1  0  0  0  0  0999 V2000
    9.1563  -15.6599   20.5947 N   0  0  0  0  0  0  0  0  0  0  0  0
    8.3749  -16.0361   21.7526 C   0  0  1  0  0  0  0  0  0  0  0  0
    8.5621  -17.5423   21.9354 C   0  0  0  0  0  0  0  0  0  0  0  0
    8.0349  -18.2525   20.7427 C   0  0  0  0  0  0  0  0  0  0  0  0
    6.8174  -18.2934   20.4299 O   0  0  0  0  0  0  0  0  0  0  0  0
    8.8529  -15.3374   22.9738 C   0  0  0  0  0  0  0  0  0  0  0  0
   10.0569  -14.9229   23.0648 O   0  0  0  0  0  0  0  0  0  0  0  0
    8.9266  -18.9092   19.9232 O   0  0  0  0  0  0  0  0  0  0  0  0
    6.7125  -11.4678   27.0597 C   0  0  0  0  0  0  0  0  0  0  0  0
    7.8201  -12.4919   26.8231 C   0  0  0  0  0  0  0  0  0  0  0  0
    7.4650  -13.3320   25.6623 C   0  0  2  0  0  0  0  0  0  0  0  0
    6.1389  -14.0377   25.9777 C   0  0  0  0  0  0  0  0  0  0  0  0
    8.4405  -14.3890   25.2840 C   0  0  2  0  0  0  0  0  0  0  0  0
    8.0144  -15.0930   24.0935 N   0  0  0  0  0  0  0  0  0  0  0  0
    8.8049  -15.3405   26.3109 C   0  0  0  0  0  0  0  0  0  0  0  0
    9.2403  -15.0434   27.4653 O   0  0  0  0  0  0  0  0  0  0  0  0
    8.6771  -16.7257   26.0378 N   0  0  0  0  0  0  0  0  0  0  0  0
    8.9524  -17.7281   27.0758 C   0  0  1  0  0  0  0  0  0  0  0  0
    8.7918  -19.1038   26.5242 C   0  0  0  0  0  0  0  0  0  0  0  0
    7.6022  -19.3497   25.7127 C   0  0  0  0  0  0  0  0  0  0  0  0
    7.7615  -20.0126   24.6287 O   0  0  0  0  0  0  0  0  0  0  0  0
   10.3330  -17.5258   27.5913 C   0  0  0  0  0  0  0  0  0  0  0  0
   11.2825  -17.1616   26.8441 O   0  0  0  0  0  0  0  0  0  0  0  0
    6.3195  -18.9284   26.0085 O   0  0  0  0  0  0  0  0  0  0  0  0
   10.6133  -17.7337   28.9160 O   0  0  0  0  0  0  0  0  0  0  0  0
  2  1  1  6
  3  2  1  0
  3  4  1  0
  4  5  2  0
  6  2  1  0
  6  7  2  0
  8  4  1  0
  9 10  1  0
 10 11  1  0
 11 13  1  0
 11 12  1  1
 13 14  1  6
 14  6  1  0
 15 13  1  0
 15 16  2  0
 17 18  1  0
 17 15  1  0
 18 19  1  6
 19 20  1  0
 20 24  1  0
 21 20  2  0
 22 18  1  0
 23 22  2  0
 25 22  1  0
M  END
$$$$
