DID.pdb
     RDKit          3D

 25 24  0  0  1  0  0  0  0  0999 V2000
    8.2269  -14.8507   20.0392 N   0  0  0  0  0  0  0  0  0  0  0  0
    7.5274  -15.4412   21.1594 C   0  0  1  0  0  0  0  0  0  0  0  0
    7.6147  -16.9568   20.9791 C   0  0  0  0  0  0  0  0  0  0  0  0
    6.8864  -17.3489   19.7459 C   0  0  0  0  0  0  0  0  0  0  0  0
    5.6458  -17.2146   19.5893 O   0  0  0  0  0  0  0  0  0  0  0  0
    8.1662  -15.0697   22.4485 C   0  0  0  0  0  0  0  0  0  0  0  0
    9.4363  -15.0719   22.5770 O   0  0  0  0  0  0  0  0  0  0  0  0
    7.6056  -17.8936   18.7048 O   0  0  0  0  0  0  0  0  0  0  0  0
    5.8154  -11.3754   25.7638 C   0  0  0  0  0  0  0  0  0  0  0  0
    6.8315  -12.1552   24.9325 C   0  0  0  0  0  0  0  0  0  0  0  0
    7.1704  -13.4103   25.6320 C   0  0  2  0  0  0  0  0  0  0  0  0
    7.9447  -13.0469   26.9064 C   0  0  0  0  0  0  0  0  0  0  0  0
    8.0045  -14.3854   24.8800 C   0  0  2  0  0  0  0  0  0  0  0  0
    7.4160  -14.6967   23.5950 N   0  0  0  0  0  0  0  0  0  0  0  0
    8.3580  -15.6093   25.5654 C   0  0  0  0  0  0  0  0  0  0  0  0
    7.5348  -16.4783   25.9869 O   0  0  0  0  0  0  0  0  0  0  0  0
    9.7270  -15.8914   25.8015 N   0  0  0  0  0  0  0  0  0  0  0  0
   10.1399  -17.1524   26.4321 C   0  0  1  0  0  0  0  0  0  0  0  0
   11.4322  -17.6220   25.8555 C   0  0  0  0  0  0  0  0  0  0  0  0
   12.0326  -18.8037   26.4696 C   0  0  0  0  0  0  0  0  0  0  0  0
   11.3663  -19.3819   27.3979 O   0  0  0  0  0  0  0  0  0  0  0  0
   10.2638  -16.9430   27.8996 C   0  0  0  0  0  0  0  0  0  0  0  0
   10.5220  -15.8125   28.3974 O   0  0  0  0  0  0  0  0  0  0  0  0
   13.2576  -19.3529   26.1405 O   0  0  0  0  0  0  0  0  0  0  0  0
   10.0969  -17.9926   28.7639 O   0  0  0  0  0  0  0  0  0  0  0  0
  2  1  1  6
  3  2  1  0
  3  4  1  0
  4  5  2  0
  6  2  1  0
  6  7  2  0
  8  4  1  0
  9 10  1  0
 10 11  1  0
 11 13  1  0
 11 12  1  1
 13 14  1  6
 14  6  1  0
 15 13  1  0
 15 16  2  0
 17 18  1  0
 17 15  1  0
 18 19  1  6
 19 20  1  0
 20 24  1  0
 21 20  2  0
 22 18  1  0
 23 22  2  0
 25 22  1  0
M  END
$$$$
