DID.pdb
     RDKit          3D

 25 24  0  0  1  0  0  0  0  0999 V2000
    8.1824  -14.8212   20.3589 N   0  0  0  0  0  0  0  0  0  0  0  0
    7.6261  -15.5514   21.4770 C   0  0  1  0  0  0  0  0  0  0  0  0
    7.8724  -17.0340   21.1965 C   0  0  0  0  0  0  0  0  0  0  0  0
    7.1573  -17.4259   19.9556 C   0  0  0  0  0  0  0  0  0  0  0  0
    6.0131  -17.0085   19.6418 O   0  0  0  0  0  0  0  0  0  0  0  0
    8.2990  -15.1814   22.7491 C   0  0  0  0  0  0  0  0  0  0  0  0
    9.5613  -14.9967   22.7950 O   0  0  0  0  0  0  0  0  0  0  0  0
    7.7774  -18.2994   19.0894 O   0  0  0  0  0  0  0  0  0  0  0  0
    6.0236  -11.6431   26.0839 C   0  0  0  0  0  0  0  0  0  0  0  0
    7.0060  -12.4473   25.2356 C   0  0  0  0  0  0  0  0  0  0  0  0
    7.3986  -13.6657   25.9710 C   0  0  2  0  0  0  0  0  0  0  0  0
    8.2209  -13.2353   27.1935 C   0  0  0  0  0  0  0  0  0  0  0  0
    8.2172  -14.6576   25.2241 C   0  0  2  0  0  0  0  0  0  0  0  0
    7.5914  -15.0141   23.9688 N   0  0  0  0  0  0  0  0  0  0  0  0
    8.6028  -15.8563   25.9361 C   0  0  0  0  0  0  0  0  0  0  0  0
    7.8005  -16.7075   26.4284 O   0  0  0  0  0  0  0  0  0  0  0  0
    9.9815  -16.1326   26.1162 N   0  0  0  0  0  0  0  0  0  0  0  0
   10.4229  -17.3479   26.8136 C   0  0  1  0  0  0  0  0  0  0  0  0
   11.7441  -17.7966   26.2883 C   0  0  0  0  0  0  0  0  0  0  0  0
   11.8429  -17.9922   24.8440 C   0  0  0  0  0  0  0  0  0  0  0  0
   10.8603  -18.5746   24.2651 O   0  0  0  0  0  0  0  0  0  0  0  0
   10.5043  -17.0676   28.2722 C   0  0  0  0  0  0  0  0  0  0  0  0
   10.4640  -15.8939   28.7340 O   0  0  0  0  0  0  0  0  0  0  0  0
   12.9037  -17.6074   24.0459 O   0  0  0  0  0  0  0  0  0  0  0  0
   10.6269  -18.0969   29.1678 O   0  0  0  0  0  0  0  0  0  0  0  0
  2  1  1  6
  3  2  1  0
  3  4  1  0
  4  5  2  0
  6  2  1  0
  6  7  2  0
  8  4  1  0
  9 10  1  0
 10 11  1  0
 11 13  1  0
 11 12  1  1
 13 14  1  6
 14  6  1  0
 15 13  1  0
 15 16  2  0
 17 18  1  0
 17 15  1  0
 18 19  1  6
 19 20  1  0
 20 24  1  0
 21 20  2  0
 22 18  1  0
 23 22  2  0
 25 22  1  0
M  END
$$$$
