DID.pdb
     RDKit          3D

 25 24  0  0  1  0  0  0  0  0999 V2000
    8.1537  -16.3763   16.0028 N   0  0  0  0  0  0  0  0  0  0  0  0
    8.0695  -17.0011   17.3049 C   0  0  1  0  0  0  0  0  0  0  0  0
    8.5840  -18.4310   17.1374 C   0  0  0  0  0  0  0  0  0  0  0  0
    7.6456  -19.1944   16.2763 C   0  0  0  0  0  0  0  0  0  0  0  0
    6.3949  -19.1722   16.4072 O   0  0  0  0  0  0  0  0  0  0  0  0
    8.9205  -16.2939   18.2967 C   0  0  0  0  0  0  0  0  0  0  0  0
   10.1204  -15.9618   18.0145 O   0  0  0  0  0  0  0  0  0  0  0  0
    8.1679  -19.9772   15.2702 O   0  0  0  0  0  0  0  0  0  0  0  0
    6.7376  -12.9784   22.3655 C   0  0  0  0  0  0  0  0  0  0  0  0
    7.2403  -14.2843   21.7547 C   0  0  0  0  0  0  0  0  0  0  0  0
    8.5311  -14.0401   21.0810 C   0  0  2  0  0  0  0  0  0  0  0  0
    8.2692  -13.1288   19.8740 C   0  0  0  0  0  0  0  0  0  0  0  0
    9.2522  -15.2376   20.5729 C   0  0  2  0  0  0  0  0  0  0  0  0
    8.4587  -15.9509   19.5949 N   0  0  0  0  0  0  0  0  0  0  0  0
    9.7591  -16.1642   21.5612 C   0  0  0  0  0  0  0  0  0  0  0  0
    9.2579  -17.2990   21.8283 O   0  0  0  0  0  0  0  0  0  0  0  0
   10.9083  -15.8061   22.3101 N   0  0  0  0  0  0  0  0  0  0  0  0
   11.4351  -16.6943   23.3551 C   0  0  1  0  0  0  0  0  0  0  0  0
   12.8914  -16.4488   23.5589 C   0  0  0  0  0  0  0  0  0  0  0  0
   13.7343  -16.4789   22.3662 C   0  0  0  0  0  0  0  0  0  0  0  0
   13.6606  -17.5208   21.6252 O   0  0  0  0  0  0  0  0  0  0  0  0
   10.6807  -16.4609   24.6157 C   0  0  0  0  0  0  0  0  0  0  0  0
    9.8500  -15.5187   24.7368 O   0  0  0  0  0  0  0  0  0  0  0  0
   14.6070  -15.4845   21.9665 O   0  0  0  0  0  0  0  0  0  0  0  0
   10.8725  -17.2793   25.6973 O   0  0  0  0  0  0  0  0  0  0  0  0
  2  1  1  6
  3  2  1  0
  3  4  1  0
  4  5  2  0
  6  2  1  0
  6  7  2  0
  8  4  1  0
  9 10  1  0
 10 11  1  0
 11 13  1  0
 11 12  1  6
 13 14  1  6
 14  6  1  0
 15 13  1  0
 15 16  2  0
 17 18  1  0
 17 15  1  0
 18 19  1  1
 19 20  1  0
 20 24  1  0
 21 20  2  0
 22 18  1  0
 23 22  2  0
 25 22  1  0
M  END
$$$$
