DID.pdb
     RDKit          3D

 25 24  0  0  1  0  0  0  0  0999 V2000
    7.6068  -14.4994   20.2922 N   0  0  0  0  0  0  0  0  0  0  0  0
    7.2917  -15.3440   21.4237 C   0  0  1  0  0  0  0  0  0  0  0  0
    7.7453  -16.7565   21.0543 C   0  0  0  0  0  0  0  0  0  0  0  0
    6.9650  -17.2343   19.8849 C   0  0  0  0  0  0  0  0  0  0  0  0
    7.4442  -17.3773   18.7309 O   0  0  0  0  0  0  0  0  0  0  0  0
    8.0206  -14.9048   22.6418 C   0  0  0  0  0  0  0  0  0  0  0  0
    9.2366  -14.5217   22.5775 O   0  0  0  0  0  0  0  0  0  0  0  0
    5.6344  -17.5421   20.0659 O   0  0  0  0  0  0  0  0  0  0  0  0
    5.7487  -11.6531   26.1379 C   0  0  0  0  0  0  0  0  0  0  0  0
    6.7955  -12.3385   25.2628 C   0  0  0  0  0  0  0  0  0  0  0  0
    7.2793  -13.5543   25.9464 C   0  0  2  0  0  0  0  0  0  0  0  0
    8.1362  -13.1152   27.1418 C   0  0  0  0  0  0  0  0  0  0  0  0
    8.1086  -14.4863   25.1366 C   0  0  2  0  0  0  0  0  0  0  0  0
    7.4193  -14.8852   23.9281 N   0  0  0  0  0  0  0  0  0  0  0  0
    8.6278  -15.6553   25.8121 C   0  0  0  0  0  0  0  0  0  0  0  0
    7.9301  -16.6232   26.2444 O   0  0  0  0  0  0  0  0  0  0  0  0
   10.0255  -15.7594   26.0247 N   0  0  0  0  0  0  0  0  0  0  0  0
   10.6059  -16.9516   26.6571 C   0  0  1  0  0  0  0  0  0  0  0  0
   11.9946  -17.1767   26.1635 C   0  0  0  0  0  0  0  0  0  0  0  0
   12.1892  -17.1424   24.7161 C   0  0  0  0  0  0  0  0  0  0  0  0
   11.4541  -17.9174   24.0096 O   0  0  0  0  0  0  0  0  0  0  0  0
   10.5951  -16.7712   28.1336 C   0  0  0  0  0  0  0  0  0  0  0  0
   10.3375  -15.6597   28.6727 O   0  0  0  0  0  0  0  0  0  0  0  0
   13.0980  -16.3503   24.0401 O   0  0  0  0  0  0  0  0  0  0  0  0
   10.8695  -17.8281   28.9609 O   0  0  0  0  0  0  0  0  0  0  0  0
  2  1  1  6
  3  2  1  0
  3  4  1  0
  4  5  2  0
  6  2  1  0
  6  7  2  0
  8  4  1  0
  9 10  1  0
 10 11  1  0
 11 13  1  0
 11 12  1  1
 13 14  1  6
 14  6  1  0
 15 13  1  0
 15 16  2  0
 17 18  1  0
 17 15  1  0
 18 19  1  6
 19 20  1  0
 20 24  1  0
 21 20  2  0
 22 18  1  0
 23 22  2  0
 25 22  1  0
M  END
$$$$
