DID.pdb
     RDKit          3D

 25 24  0  0  1  0  0  0  0  0999 V2000
    8.3177  -15.1861   20.6396 N   0  0  0  0  0  0  0  0  0  0  0  0
    7.9829  -15.9445   21.8251 C   0  0  1  0  0  0  0  0  0  0  0  0
    8.5396  -17.3528   21.6146 C   0  0  0  0  0  0  0  0  0  0  0  0
    7.8799  -17.9723   20.4375 C   0  0  0  0  0  0  0  0  0  0  0  0
    6.6506  -18.2308   20.3756 O   0  0  0  0  0  0  0  0  0  0  0  0
    8.6084  -15.3531   23.0362 C   0  0  0  0  0  0  0  0  0  0  0  0
    9.8064  -14.9131   23.0086 O   0  0  0  0  0  0  0  0  0  0  0  0
    8.6538  -18.2864   19.3419 O   0  0  0  0  0  0  0  0  0  0  0  0
    5.7028  -12.0430   26.0074 C   0  0  0  0  0  0  0  0  0  0  0  0
    6.8359  -12.7152   25.2356 C   0  0  0  0  0  0  0  0  0  0  0  0
    7.4875  -13.7162   26.1034 C   0  0  2  0  0  0  0  0  0  0  0  0
    8.2259  -12.9648   27.2197 C   0  0  0  0  0  0  0  0  0  0  0  0
    8.4800  -14.6132   25.4535 C   0  0  2  0  0  0  0  0  0  0  0  0
    7.9236  -15.2435   24.2754 N   0  0  0  0  0  0  0  0  0  0  0  0
    9.1074  -15.6111   26.2920 C   0  0  0  0  0  0  0  0  0  0  0  0
    8.5078  -16.5751   26.8593 O   0  0  0  0  0  0  0  0  0  0  0  0
   10.5046  -15.5351   26.5188 N   0  0  0  0  0  0  0  0  0  0  0  0
   11.1792  -16.4959   27.4020 C   0  0  1  0  0  0  0  0  0  0  0  0
   12.6476  -16.4958   27.1436 C   0  0  0  0  0  0  0  0  0  0  0  0
   13.0666  -16.4996   25.7442 C   0  0  0  0  0  0  0  0  0  0  0  0
   14.0508  -15.7439   25.4273 O   0  0  0  0  0  0  0  0  0  0  0  0
   10.8940  -16.1369   28.8171 C   0  0  0  0  0  0  0  0  0  0  0  0
   10.3087  -15.0645   29.1332 O   0  0  0  0  0  0  0  0  0  0  0  0
   12.4943  -17.2438   24.7299 O   0  0  0  0  0  0  0  0  0  0  0  0
   11.2666  -16.9782   29.8320 O   0  0  0  0  0  0  0  0  0  0  0  0
  2  1  1  6
  3  2  1  0
  3  4  1  0
  4  5  2  0
  6  2  1  0
  6  7  2  0
  8  4  1  0
  9 10  1  0
 10 11  1  0
 11 13  1  0
 11 12  1  1
 13 14  1  6
 14  6  1  0
 15 13  1  0
 15 16  2  0
 17 18  1  0
 17 15  1  0
 18 19  1  1
 19 20  1  0
 20 24  1  0
 21 20  2  0
 22 18  1  0
 23 22  2  0
 25 22  1  0
M  END
$$$$
