FRN.pdb
     RDKit          3D

 31 31  0  0  1  0  0  0  0  0999 V2000
   27.7594  -19.8668   -9.9100 N   0  0  0  0  0  0  0  0  0  0  0  0
   26.6834  -20.8275   -9.9436 C   0  0  1  0  0  0  0  0  0  0  0  0
   26.0125  -20.9380   -8.5735 C   0  0  0  0  0  0  0  0  0  0  0  0
   27.0082  -20.6708   -7.5159 C   0  0  0  0  0  0  0  0  0  0  0  0
   28.0783  -21.4979   -7.3580 C   0  0  0  0  0  0  0  0  0  0  0  0
   29.0282  -21.2715   -6.3743 C   0  0  0  0  0  0  0  0  0  0  0  0
   28.8825  -20.1813   -5.5373 C   0  0  0  0  0  0  0  0  0  0  0  0
   27.7934  -19.3225   -5.6830 C   0  0  0  0  0  0  0  0  0  0  0  0
   26.8646  -19.5867   -6.6825 C   0  0  0  0  0  0  0  0  0  0  0  0
   25.6150  -20.4267  -10.8977 C   0  0  0  0  0  0  0  0  0  0  0  0
   24.8338  -19.5112  -10.5373 O   0  0  0  0  0  0  0  0  0  0  0  0
   28.7787  -23.0135  -15.1827 N   0  0  0  0  0  0  0  0  0  0  0  0
   27.5596  -23.2638  -15.8632 C   0  0  0  0  0  0  0  0  0  0  0  0
   27.2190  -24.4902  -16.0762 N   0  0  0  0  0  0  0  0  0  0  0  0
   26.7698  -22.1776  -16.2797 N   0  0  0  0  0  0  0  0  0  0  0  0
   27.0583  -20.8521  -15.7550 C   0  0  0  0  0  0  0  0  0  0  0  0
   26.4766  -20.7938  -14.3580 C   0  0  0  0  0  0  0  0  0  0  0  0
   24.9820  -20.6480  -14.4971 C   0  0  0  0  0  0  0  0  0  0  0  0
   24.3964  -20.6161  -13.0978 C   0  0  2  0  0  0  0  0  0  0  0  0
   25.4303  -21.0069  -12.1665 N   0  0  0  0  0  0  0  0  0  0  0  0
   23.3123  -21.6271  -13.0456 C   0  0  0  0  0  0  0  0  0  0  0  0
   23.3784  -22.6360  -12.3041 O   0  0  0  0  0  0  0  0  0  0  0  0
   26.3328  -24.7464  -16.5581 N   0  0  0  0  0  0  0  0  0  0  0  0
   18.6833  -23.2592  -12.6235 C   0  0  0  0  0  0  0  0  0  0  0  0
   19.2232  -22.2566  -11.7403 O   0  0  0  0  0  0  0  0  0  0  0  0
   18.6370  -22.0507  -10.6563 C   0  0  0  0  0  0  0  0  0  0  0  0
   20.4291  -21.5385  -12.1688 C   0  0  2  0  0  0  0  0  0  0  0  0
   20.9242  -22.0974  -13.4825 N   0  0  0  0  0  0  0  0  0  0  0  0
   22.1515  -21.4572  -13.8608 C   0  0  0  0  0  0  0  0  0  0  0  0
   19.8772  -21.8297  -14.5292 O   0  0  0  0  0  0  0  0  0  0  0  0
   19.8542  -20.6308  -15.2408 O   0  0  0  0  0  0  0  0  0  0  0  0
  2  1  1  1
  2  3  1  0
  2 10  1  0
  3  4  1  0
  4  5  2  0
  5  6  1  0
  7  6  2  0
  8  7  1  0
  9  4  1  0
  9  8  2  0
 10 11  2  0
 10 20  1  0
 13 15  1  0
 13 12  1  0
 14 13  2  0
 16 15  1  0
 16 17  1  0
 18 17  1  0
 19 18  1  6
 20 19  1  0
 21 19  1  0
 21 22  2  0
 24 23  1  0
 24 26  1  0
 25 24  2  0
 27 26  1  1
 27 28  1  0
 28 21  1  0
 29 27  1  0
 30 29  1  0
 31 29  2  0
M  END
$$$$
