FRN.pdb
     RDKit          3D

 31 31  0  0  1  0  0  0  0  0999 V2000
   24.0271  -13.2688  -18.3613 N   0  0  0  0  0  0  0  0  0  0  0  0
   23.7080  -12.8667  -17.0129 C   0  0  1  0  0  0  0  0  0  0  0  0
   24.9816  -12.5653  -16.2214 C   0  0  0  0  0  0  0  0  0  0  0  0
   25.7982  -13.7917  -16.1190 C   0  0  0  0  0  0  0  0  0  0  0  0
   26.8342  -13.9984  -16.9782 C   0  0  0  0  0  0  0  0  0  0  0  0
   27.6173  -15.1396  -16.9054 C   0  0  0  0  0  0  0  0  0  0  0  0
   27.3375  -16.0864  -15.9380 C   0  0  0  0  0  0  0  0  0  0  0  0
   26.2807  -15.8931  -15.0488 C   0  0  0  0  0  0  0  0  0  0  0  0
   25.5210  -14.7344  -15.1572 C   0  0  0  0  0  0  0  0  0  0  0  0
   22.8978  -11.6196  -16.9857 C   0  0  0  0  0  0  0  0  0  0  0  0
   23.2193  -10.7054  -17.7852 O   0  0  0  0  0  0  0  0  0  0  0  0
   15.2726  -13.3111  -14.6436 N   0  0  0  0  0  0  0  0  0  0  0  0
   15.9247  -13.9111  -15.7512 C   0  0  0  0  0  0  0  0  0  0  0  0
   15.3645  -14.9293  -16.3124 N   0  0  0  0  0  0  0  0  0  0  0  0
   17.1488  -13.3818  -16.1969 N   0  0  0  0  0  0  0  0  0  0  0  0
   17.7029  -12.2184  -15.5225 C   0  0  0  0  0  0  0  0  0  0  0  0
   19.0077  -11.8859  -16.2157 C   0  0  0  0  0  0  0  0  0  0  0  0
   19.5967  -10.6859  -15.5176 C   0  0  0  0  0  0  0  0  0  0  0  0
   20.8694  -10.3114  -16.2537 C   0  0  2  0  0  0  0  0  0  0  0  0
   21.8039  -11.4065  -16.1261 N   0  0  0  0  0  0  0  0  0  0  0  0
   21.4435   -9.1241  -15.5750 C   0  0  0  0  0  0  0  0  0  0  0  0
   22.4566   -9.2026  -14.8404 O   0  0  0  0  0  0  0  0  0  0  0  0
   15.8182  -15.4589  -17.0850 N   0  0  0  0  0  0  0  0  0  0  0  0
   22.7333   -4.4568  -14.4538 C   0  0  0  0  0  0  0  0  0  0  0  0
   23.4249   -5.2188  -15.4626 O   0  0  0  0  0  0  0  0  0  0  0  0
   24.5109   -4.7754  -15.8928 C   0  0  0  0  0  0  0  0  0  0  0  0
   22.8106   -6.4695  -15.9229 C   0  0  1  0  0  0  0  0  0  0  0  0
   21.4797   -6.6746  -15.2375 N   0  0  0  0  0  0  0  0  0  0  0  0
   20.8321   -7.8457  -15.7559 C   0  0  0  0  0  0  0  0  0  0  0  0
   20.6229   -5.4680  -15.5088 O   0  0  0  0  0  0  0  0  0  0  0  0
   20.7130   -4.3231  -14.7182 O   0  0  0  0  0  0  0  0  0  0  0  0
  2  1  1  6
  2  3  1  0
  2 10  1  0
  3  4  1  0
  4  5  2  0
  5  6  1  0
  7  6  2  0
  8  7  1  0
  9  4  1  0
  9  8  2  0
 10 11  2  0
 10 20  1  0
 13 15  1  0
 13 12  1  0
 14 13  2  0
 16 15  1  0
 16 17  1  0
 18 17  1  0
 19 18  1  1
 20 19  1  0
 21 19  1  0
 21 22  2  0
 24 23  1  0
 24 26  1  0
 25 24  2  0
 27 26  1  1
 27 28  1  0
 28 21  1  0
 29 27  1  0
 30 29  1  0
 31 29  2  0
M  END
$$$$
