FRN.pdb
     RDKit          3D

 31 31  0  0  1  0  0  0  0  0999 V2000
   27.7497  -20.0408  -17.1499 N   0  0  0  0  0  0  0  0  0  0  0  0
   27.1931  -19.2244  -16.0984 C   0  0  1  0  0  0  0  0  0  0  0  0
   26.2483  -18.1686  -16.6745 C   0  0  0  0  0  0  0  0  0  0  0  0
   27.0314  -16.9963  -17.1147 C   0  0  0  0  0  0  0  0  0  0  0  0
   27.2654  -15.9669  -16.2546 C   0  0  0  0  0  0  0  0  0  0  0  0
   27.9970  -14.8545  -16.6402 C   0  0  0  0  0  0  0  0  0  0  0  0
   28.4984  -14.7926  -17.9267 C   0  0  0  0  0  0  0  0  0  0  0  0
   28.2695  -15.8367  -18.8225 C   0  0  0  0  0  0  0  0  0  0  0  0
   27.5308  -16.9332  -18.3942 C   0  0  0  0  0  0  0  0  0  0  0  0
   26.3838  -20.0291  -15.1444 C   0  0  0  0  0  0  0  0  0  0  0  0
   25.8222  -21.0602  -15.5915 O   0  0  0  0  0  0  0  0  0  0  0  0
   29.3679  -22.1606  -10.4189 N   0  0  0  0  0  0  0  0  0  0  0  0
   28.9068  -21.8246   -9.1203 C   0  0  0  0  0  0  0  0  0  0  0  0
   29.7747  -21.4531   -8.2405 N   0  0  0  0  0  0  0  0  0  0  0  0
   27.5320  -21.9070   -8.8370 N   0  0  0  0  0  0  0  0  0  0  0  0
   26.6434  -20.8718   -9.3412 C   0  0  0  0  0  0  0  0  0  0  0  0
   26.2281  -21.2875  -10.7369 C   0  0  0  0  0  0  0  0  0  0  0  0
   25.7534  -20.0489  -11.4544 C   0  0  0  0  0  0  0  0  0  0  0  0
   25.3842  -20.4563  -12.8685 C   0  0  2  0  0  0  0  0  0  0  0  0
   26.2125  -19.7064  -13.7853 N   0  0  0  0  0  0  0  0  0  0  0  0
   23.9700  -20.0672  -13.0893 C   0  0  0  0  0  0  0  0  0  0  0  0
   23.6547  -19.0663  -13.7755 O   0  0  0  0  0  0  0  0  0  0  0  0
   29.5052  -21.1812   -7.2726 N   0  0  0  0  0  0  0  0  0  0  0  0
   21.7592  -19.4038  -16.3867 C   0  0  0  0  0  0  0  0  0  0  0  0
   21.0654  -19.7657  -15.1767 O   0  0  0  0  0  0  0  0  0  0  0  0
   20.1222  -19.0380  -14.7996 C   0  0  0  0  0  0  0  0  0  0  0  0
   21.5097  -20.9673  -14.4610 C   0  0  2  0  0  0  0  0  0  0  0  0
   21.5794  -20.6892  -12.9774 N   0  0  0  0  0  0  0  0  0  0  0  0
   22.9257  -20.8491  -12.5073 C   0  0  0  0  0  0  0  0  0  0  0  0
   20.6841  -21.6731  -12.2745 O   0  0  0  0  0  0  0  0  0  0  0  0
   19.4078  -21.3122  -11.8444 O   0  0  0  0  0  0  0  0  0  0  0  0
  2  1  1  6
  2  3  1  0
  2 10  1  0
  3  4  1  0
  4  5  2  0
  5  6  1  0
  7  6  2  0
  8  7  1  0
  9  4  1  0
  9  8  2  0
 10 11  2  0
 10 20  1  0
 13 15  1  0
 13 12  1  0
 14 13  2  0
 16 15  1  0
 16 17  1  0
 18 17  1  0
 19 18  1  1
 20 19  1  0
 21 19  1  0
 21 22  2  0
 24 23  1  0
 24 26  1  0
 25 24  2  0
 27 26  1  6
 27 28  1  0
 28 21  1  0
 29 27  1  0
 30 29  1  0
 31 29  2  0
M  END
$$$$
