FRN.pdb
     RDKit          3D

 31 31  0  0  1  0  0  0  0  0999 V2000
   25.3191  -11.2198  -18.2833 N   0  0  0  0  0  0  0  0  0  0  0  0
   24.8938  -10.9740  -16.9266 C   0  0  1  0  0  0  0  0  0  0  0  0
   25.9742  -10.2221  -16.1477 C   0  0  0  0  0  0  0  0  0  0  0  0
   27.2160  -11.0216  -16.1335 C   0  0  0  0  0  0  0  0  0  0  0  0
   28.3284  -10.5705  -16.7762 C   0  0  0  0  0  0  0  0  0  0  0  0
   29.5072  -11.2995  -16.7795 C   0  0  0  0  0  0  0  0  0  0  0  0
   29.5507  -12.5104  -16.1147 C   0  0  0  0  0  0  0  0  0  0  0  0
   28.4219  -12.9897  -15.4505 C   0  0  0  0  0  0  0  0  0  0  0  0
   27.2607  -12.2265  -15.4725 C   0  0  0  0  0  0  0  0  0  0  0  0
   23.6762  -10.1211  -16.8756 C   0  0  0  0  0  0  0  0  0  0  0  0
   23.5664   -9.2201  -17.7443 O   0  0  0  0  0  0  0  0  0  0  0  0
   15.5127  -11.8857  -14.2675 N   0  0  0  0  0  0  0  0  0  0  0  0
   15.4470  -10.7448  -15.1076 C   0  0  0  0  0  0  0  0  0  0  0  0
   14.2861  -10.3424  -15.5025 N   0  0  0  0  0  0  0  0  0  0  0  0
   16.6377  -10.0959  -15.4792 N   0  0  0  0  0  0  0  0  0  0  0  0
   17.9115  -10.6746  -15.0817 C   0  0  0  0  0  0  0  0  0  0  0  0
   18.9956   -9.7471  -15.5894 C   0  0  0  0  0  0  0  0  0  0  0  0
   20.3168  -10.4480  -15.3953 C   0  0  0  0  0  0  0  0  0  0  0  0
   21.3973   -9.5456  -15.9608 C   0  0  2  0  0  0  0  0  0  0  0  0
   22.6513  -10.2632  -15.9217 N   0  0  0  0  0  0  0  0  0  0  0  0
   21.5046   -8.3659  -15.0682 C   0  0  0  0  0  0  0  0  0  0  0  0
   22.3556   -8.3017  -14.1496 O   0  0  0  0  0  0  0  0  0  0  0  0
   14.1686   -9.5690  -16.1890 N   0  0  0  0  0  0  0  0  0  0  0  0
   21.5362   -3.6155  -13.6236 C   0  0  0  0  0  0  0  0  0  0  0  0
   22.5222   -4.1736  -14.5140 O   0  0  0  0  0  0  0  0  0  0  0  0
   23.5555   -3.5079  -14.7386 C   0  0  0  0  0  0  0  0  0  0  0  0
   22.2519   -5.4902  -15.1029 C   0  0  1  0  0  0  0  0  0  0  0  0
   20.9146   -6.0059  -14.6243 N   0  0  0  0  0  0  0  0  0  0  0  0
   20.6163   -7.2620  -15.2506 C   0  0  0  0  0  0  0  0  0  0  0  0
   19.8629   -4.9976  -14.9998 O   0  0  0  0  0  0  0  0  0  0  0  0
   19.3513   -4.1011  -14.0624 O   0  0  0  0  0  0  0  0  0  0  0  0
  2  1  1  6
  2  3  1  0
  2 10  1  0
  3  4  1  0
  4  5  2  0
  5  6  1  0
  7  6  2  0
  8  7  1  0
  9  4  1  0
  9  8  2  0
 10 11  2  0
 10 20  1  0
 13 15  1  0
 13 12  1  0
 14 13  2  0
 16 15  1  0
 16 17  1  0
 18 17  1  0
 19 18  1  1
 20 19  1  0
 21 19  1  0
 21 22  2  0
 24 23  1  0
 24 26  1  0
 25 24  2  0
 27 26  1  1
 27 28  1  0
 28 21  1  0
 29 27  1  0
 30 29  1  0
 31 29  2  0
M  END
$$$$
