FRN.pdb
     RDKit          3D

 31 31  0  0  1  0  0  0  0  0999 V2000
   25.7215  -18.7098   -7.9550 N   0  0  0  0  0  0  0  0  0  0  0  0
   26.4351  -19.7277   -8.6874 C   0  0  1  0  0  0  0  0  0  0  0  0
   26.5098  -21.0246   -7.8801 C   0  0  0  0  0  0  0  0  0  0  0  0
   27.3371  -20.8069   -6.6761 C   0  0  0  0  0  0  0  0  0  0  0  0
   26.7621  -20.8013   -5.4419 C   0  0  0  0  0  0  0  0  0  0  0  0
   27.5137  -20.5997   -4.2949 C   0  0  0  0  0  0  0  0  0  0  0  0
   28.8765  -20.4003   -4.4106 C   0  0  0  0  0  0  0  0  0  0  0  0
   29.4842  -20.4025   -5.6659 C   0  0  0  0  0  0  0  0  0  0  0  0
   28.6929  -20.6085   -6.7897 C   0  0  0  0  0  0  0  0  0  0  0  0
   25.7515  -20.0718   -9.9629 C   0  0  0  0  0  0  0  0  0  0  0  0
   24.4953  -20.0798   -9.9600 O   0  0  0  0  0  0  0  0  0  0  0  0
   26.9684  -19.2465  -17.2765 N   0  0  0  0  0  0  0  0  0  0  0  0
   28.3355  -19.3644  -16.9171 C   0  0  0  0  0  0  0  0  0  0  0  0
   29.1456  -19.9056  -17.7635 N   0  0  0  0  0  0  0  0  0  0  0  0
   28.7590  -18.8924  -15.6622 N   0  0  0  0  0  0  0  0  0  0  0  0
   27.7907  -18.2560  -14.7831 C   0  0  0  0  0  0  0  0  0  0  0  0
   27.9303  -18.9106  -13.4246 C   0  0  0  0  0  0  0  0  0  0  0  0
   27.1147  -20.1789  -13.4487 C   0  0  0  0  0  0  0  0  0  0  0  0
   25.9653  -19.9985  -12.4750 C   0  0  2  0  0  0  0  0  0  0  0  0
   26.4227  -20.3852  -11.1596 N   0  0  0  0  0  0  0  0  0  0  0  0
   24.8834  -20.9261  -12.8862 C   0  0  0  0  0  0  0  0  0  0  0  0
   24.9980  -22.1703  -12.7814 O   0  0  0  0  0  0  0  0  0  0  0  0
   30.1289  -20.1436  -17.5192 N   0  0  0  0  0  0  0  0  0  0  0  0
   19.8383  -22.0635  -11.2684 C   0  0  0  0  0  0  0  0  0  0  0  0
   20.9164  -22.5042  -12.1170 O   0  0  0  0  0  0  0  0  0  0  0  0
   20.7263  -23.5088  -12.8353 C   0  0  0  0  0  0  0  0  0  0  0  0
   22.1722  -21.7458  -12.0851 C   0  0  2  0  0  0  0  0  0  0  0  0
   22.4987  -21.2282  -13.4668 N   0  0  0  0  0  0  0  0  0  0  0  0
   23.6681  -20.3977  -13.4198 C   0  0  0  0  0  0  0  0  0  0  0  0
   21.3281  -20.4165  -13.9509 O   0  0  0  0  0  0  0  0  0  0  0  0
   21.3957  -19.0264  -14.0351 O   0  0  0  0  0  0  0  0  0  0  0  0
  2  1  1  1
  2  3  1  0
  2 10  1  0
  3  4  1  0
  4  5  2  0
  5  6  1  0
  7  6  2  0
  8  7  1  0
  9  4  1  0
  9  8  2  0
 10 11  2  0
 10 20  1  0
 13 15  1  0
 13 12  1  0
 14 13  2  0
 16 15  1  0
 16 17  1  0
 18 17  1  0
 19 18  1  6
 20 19  1  0
 21 19  1  0
 21 22  2  0
 24 23  1  0
 24 26  1  0
 25 24  2  0
 27 26  1  6
 27 28  1  0
 28 21  1  0
 29 27  1  0
 30 29  1  0
 31 29  2  0
M  END
$$$$
