FRN.pdb
     RDKit          3D

 31 31  0  0  1  0  0  0  0  0999 V2000
   21.2808  -21.8131  -17.1431 N   0  0  0  0  0  0  0  0  0  0  0  0
   21.0594  -21.7236  -15.7201 C   0  0  1  0  0  0  0  0  0  0  0  0
   20.5993  -20.3179  -15.3305 C   0  0  0  0  0  0  0  0  0  0  0  0
   21.6412  -19.3393  -15.7021 C   0  0  0  0  0  0  0  0  0  0  0  0
   21.3943  -18.4081  -16.6644 C   0  0  0  0  0  0  0  0  0  0  0  0
   22.3531  -17.4776  -17.0332 C   0  0  0  0  0  0  0  0  0  0  0  0
   23.5856  -17.4985  -16.4081 C   0  0  0  0  0  0  0  0  0  0  0  0
   23.8579  -18.4443  -15.4201 C   0  0  0  0  0  0  0  0  0  0  0  0
   22.8679  -19.3588  -15.0811 C   0  0  0  0  0  0  0  0  0  0  0  0
   19.9877  -22.6510  -15.2687 C   0  0  0  0  0  0  0  0  0  0  0  0
   18.8936  -22.6115  -15.8849 O   0  0  0  0  0  0  0  0  0  0  0  0
   20.5093  -29.2194  -14.2847 N   0  0  0  0  0  0  0  0  0  0  0  0
   21.6648  -28.8535  -15.0215 C   0  0  0  0  0  0  0  0  0  0  0  0
   22.4920  -29.7834  -15.3631 N   0  0  0  0  0  0  0  0  0  0  0  0
   21.8693  -27.5023  -15.3521 N   0  0  0  0  0  0  0  0  0  0  0  0
   21.5541  -26.4786  -14.3681 C   0  0  0  0  0  0  0  0  0  0  0  0
   20.1128  -26.6918  -13.9552 C   0  0  0  0  0  0  0  0  0  0  0  0
   19.7540  -25.5943  -12.9851 C   0  0  0  0  0  0  0  0  0  0  0  0
   19.0968  -24.4819  -13.7802 C   0  0  2  0  0  0  0  0  0  0  0  0
   20.1264  -23.5600  -14.2032 N   0  0  0  0  0  0  0  0  0  0  0  0
   18.1739  -23.7661  -12.8659 C   0  0  0  0  0  0  0  0  0  0  0  0
   18.5846  -23.1509  -11.8536 O   0  0  0  0  0  0  0  0  0  0  0  0
   23.3954  -29.5784  -15.8373 N   0  0  0  0  0  0  0  0  0  0  0  0
   15.5871  -20.6504  -14.8327 C   0  0  0  0  0  0  0  0  0  0  0  0
   15.6891  -21.0104  -13.4411 O   0  0  0  0  0  0  0  0  0  0  0  0
   16.4011  -20.2994  -12.7005 C   0  0  0  0  0  0  0  0  0  0  0  0
   14.9501  -22.1911  -12.9792 C   0  0  2  0  0  0  0  0  0  0  0  0
   15.8752  -23.1177  -12.2251 N   0  0  0  0  0  0  0  0  0  0  0  0
   16.7712  -23.7706  -13.1363 C   0  0  0  0  0  0  0  0  0  0  0  0
   15.0343  -24.1501  -11.5247 O   0  0  0  0  0  0  0  0  0  0  0  0
   15.2108  -25.5123  -11.7645 O   0  0  0  0  0  0  0  0  0  0  0  0
  2  1  1  6
  2  3  1  0
  2 10  1  0
  3  4  1  0
  4  5  2  0
  5  6  1  0
  7  6  2  0
  8  7  1  0
  9  4  1  0
  9  8  2  0
 10 11  2  0
 10 20  1  0
 13 15  1  0
 13 12  1  0
 14 13  2  0
 16 15  1  0
 16 17  1  0
 18 17  1  0
 19 18  1  1
 20 19  1  0
 21 19  1  0
 21 22  2  0
 24 23  1  0
 24 26  1  0
 25 24  2  0
 27 26  1  1
 27 28  1  0
 28 21  1  0
 29 27  1  0
 30 29  1  0
 31 29  2  0
M  END
$$$$
