FRN.pdb
     RDKit          3D

 31 31  0  0  1  0  0  0  0  0999 V2000
   18.0677   -8.4651  -19.6649 N   0  0  0  0  0  0  0  0  0  0  0  0
   17.3725   -8.7875  -18.4424 C   0  0  1  0  0  0  0  0  0  0  0  0
   15.9420   -8.2471  -18.4736 C   0  0  0  0  0  0  0  0  0  0  0  0
   15.9733   -6.7712  -18.4251 C   0  0  0  0  0  0  0  0  0  0  0  0
   16.1651   -6.1289  -17.2399 C   0  0  0  0  0  0  0  0  0  0  0  0
   16.1991   -4.7453  -17.1645 C   0  0  0  0  0  0  0  0  0  0  0  0
   16.0343   -4.0049  -18.3198 C   0  0  0  0  0  0  0  0  0  0  0  0
   15.8365   -4.6441  -19.5435 C   0  0  0  0  0  0  0  0  0  0  0  0
   15.8094   -6.0333  -19.5736 C   0  0  0  0  0  0  0  0  0  0  0  0
   17.2565  -10.2572  -18.2443 C   0  0  0  0  0  0  0  0  0  0  0  0
   16.9420  -10.9507  -19.2435 O   0  0  0  0  0  0  0  0  0  0  0  0
   21.9749  -16.3295  -15.2916 N   0  0  0  0  0  0  0  0  0  0  0  0
   20.9451  -16.9711  -16.0263 C   0  0  0  0  0  0  0  0  0  0  0  0
   21.0137  -18.2499  -16.1861 N   0  0  0  0  0  0  0  0  0  0  0  0
   19.8933  -16.1999  -16.5517 N   0  0  0  0  0  0  0  0  0  0  0  0
   19.9884  -14.7494  -16.5038 C   0  0  0  0  0  0  0  0  0  0  0  0
   18.6864  -14.2404  -15.9215 C   0  0  0  0  0  0  0  0  0  0  0  0
   18.6923  -12.7376  -16.0478 C   0  0  0  0  0  0  0  0  0  0  0  0
   17.4610  -12.3434  -16.8418 C   0  0  2  0  0  0  0  0  0  0  0  0
   17.4764  -10.9088  -17.0164 N   0  0  0  0  0  0  0  0  0  0  0  0
   16.2732  -12.7039  -16.0298 C   0  0  0  0  0  0  0  0  0  0  0  0
   15.6718  -11.8628  -15.3207 O   0  0  0  0  0  0  0  0  0  0  0  0
   20.3555  -18.7703  -16.8019 N   0  0  0  0  0  0  0  0  0  0  0  0
   11.9323  -13.0254  -13.8448 C   0  0  0  0  0  0  0  0  0  0  0  0
   12.2447  -13.8324  -14.9971 O   0  0  0  0  0  0  0  0  0  0  0  0
   11.4707  -14.7698  -15.2858 C   0  0  0  0  0  0  0  0  0  0  0  0
   13.4537  -13.5034  -15.7610 C   0  0  1  0  0  0  0  0  0  0  0  0
   14.6012  -14.3799  -15.3155 N   0  0  0  0  0  0  0  0  0  0  0  0
   15.7898  -14.0480  -16.0479 C   0  0  0  0  0  0  0  0  0  0  0  0
   14.2292  -15.8120  -15.5881 O   0  0  0  0  0  0  0  0  0  0  0  0
   13.7642  -16.6457  -14.5719 O   0  0  0  0  0  0  0  0  0  0  0  0
  2  1  1  6
  2  3  1  0
  2 10  1  0
  3  4  1  0
  4  5  2  0
  5  6  1  0
  7  6  2  0
  8  7  1  0
  9  4  1  0
  9  8  2  0
 10 11  2  0
 10 20  1  0
 13 15  1  0
 13 12  1  0
 14 13  2  0
 16 15  1  0
 16 17  1  0
 18 17  1  0
 19 18  1  1
 20 19  1  0
 21 19  1  0
 21 22  2  0
 24 23  1  0
 24 26  1  0
 25 24  2  0
 27 26  1  1
 27 28  1  0
 28 21  1  0
 29 27  1  0
 30 29  1  0
 31 29  2  0
M  END
$$$$
