FRN.pdb
     RDKit          3D

 31 31  0  0  1  0  0  0  0  0999 V2000
   27.9509  -16.4614  -19.1140 N   0  0  0  0  0  0  0  0  0  0  0  0
   26.7287  -16.4202  -18.3484 C   0  0  1  0  0  0  0  0  0  0  0  0
   26.1823  -14.9935  -18.2760 C   0  0  0  0  0  0  0  0  0  0  0  0
   27.0784  -14.1658  -17.4434 C   0  0  0  0  0  0  0  0  0  0  0  0
   27.0643  -14.2922  -16.0877 C   0  0  0  0  0  0  0  0  0  0  0  0
   27.8942  -13.5288  -15.2816 C   0  0  0  0  0  0  0  0  0  0  0  0
   28.7535  -12.6205  -15.8705 C   0  0  0  0  0  0  0  0  0  0  0  0
   28.7829  -12.4762  -17.2574 C   0  0  0  0  0  0  0  0  0  0  0  0
   27.9339  -13.2617  -18.0278 C   0  0  0  0  0  0  0  0  0  0  0  0
   25.6583  -17.2433  -18.9723 C   0  0  0  0  0  0  0  0  0  0  0  0
   25.5422  -17.1871  -20.2220 O   0  0  0  0  0  0  0  0  0  0  0  0
   27.3420  -22.2253  -16.6869 N   0  0  0  0  0  0  0  0  0  0  0  0
   26.0967  -22.7870  -17.0685 C   0  0  0  0  0  0  0  0  0  0  0  0
   25.4227  -23.4390  -16.1819 N   0  0  0  0  0  0  0  0  0  0  0  0
   25.6420  -22.6169  -18.3881 N   0  0  0  0  0  0  0  0  0  0  0  0
   26.2554  -21.5940  -19.2205 C   0  0  0  0  0  0  0  0  0  0  0  0
   25.6888  -20.2626  -18.7738 C   0  0  0  0  0  0  0  0  0  0  0  0
   24.2776  -20.1737  -19.2984 C   0  0  0  0  0  0  0  0  0  0  0  0
   23.7096  -18.8400  -18.8508 C   0  0  2  0  0  0  0  0  0  0  0  0
   24.7778  -18.0722  -18.2523 N   0  0  0  0  0  0  0  0  0  0  0  0
   22.6908  -19.1167  -17.8090 C   0  0  0  0  0  0  0  0  0  0  0  0
   23.0033  -19.3391  -16.6152 O   0  0  0  0  0  0  0  0  0  0  0  0
   24.5442  -23.9471  -16.4127 N   0  0  0  0  0  0  0  0  0  0  0  0
   18.8088  -18.8208  -19.9702 C   0  0  0  0  0  0  0  0  0  0  0  0
   18.4042  -19.2398  -18.6521 O   0  0  0  0  0  0  0  0  0  0  0  0
   17.5276  -20.1254  -18.5599 C   0  0  0  0  0  0  0  0  0  0  0  0
   19.0470  -18.6000  -17.4984 C   0  0  1  0  0  0  0  0  0  0  0  0
   20.3193  -19.3337  -17.1429 N   0  0  0  0  0  0  0  0  0  0  0  0
   21.3072  -19.1333  -18.1642 C   0  0  0  0  0  0  0  0  0  0  0  0
   19.9997  -20.8000  -17.0370 O   0  0  0  0  0  0  0  0  0  0  0  0
   19.3045  -21.3128  -15.9425 O   0  0  0  0  0  0  0  0  0  0  0  0
  2  1  1  6
  2  3  1  0
  2 10  1  0
  3  4  1  0
  4  5  2  0
  5  6  1  0
  7  6  2  0
  8  7  1  0
  9  4  1  0
  9  8  2  0
 10 11  2  0
 10 20  1  0
 13 15  1  0
 13 12  1  0
 14 13  2  0
 16 15  1  0
 16 17  1  0
 18 17  1  0
 19 18  1  1
 20 19  1  0
 21 19  1  0
 21 22  2  0
 24 23  1  0
 24 26  1  0
 25 24  2  0
 27 26  1  1
 27 28  1  0
 28 21  1  0
 29 27  1  0
 30 29  1  0
 31 29  2  0
M  END
$$$$
