FRN.pdb
     RDKit          3D

 31 31  0  0  1  0  0  0  0  0999 V2000
   25.4706  -17.1481  -20.8725 N   0  0  0  0  0  0  0  0  0  0  0  0
   25.1828  -17.0736  -19.4606 C   0  0  1  0  0  0  0  0  0  0  0  0
   23.9634  -16.1872  -19.2020 C   0  0  0  0  0  0  0  0  0  0  0  0
   24.2506  -14.8117  -19.6568 C   0  0  0  0  0  0  0  0  0  0  0  0
   24.8991  -13.9403  -18.8357 C   0  0  0  0  0  0  0  0  0  0  0  0
   25.1819  -12.6438  -19.2359 C   0  0  0  0  0  0  0  0  0  0  0  0
   24.7956  -12.2300  -20.4968 C   0  0  0  0  0  0  0  0  0  0  0  0
   24.1303  -13.1076  -21.3526 C   0  0  0  0  0  0  0  0  0  0  0  0
   23.8669  -14.3987  -20.9109 C   0  0  0  0  0  0  0  0  0  0  0  0
   24.8533  -18.4084  -18.8931 C   0  0  0  0  0  0  0  0  0  0  0  0
   23.9907  -19.0945  -19.4961 O   0  0  0  0  0  0  0  0  0  0  0  0
   30.2450  -23.4688  -16.2172 N   0  0  0  0  0  0  0  0  0  0  0  0
   28.9520  -24.0114  -16.4307 C   0  0  0  0  0  0  0  0  0  0  0  0
   28.6743  -25.1558  -15.9026 N   0  0  0  0  0  0  0  0  0  0  0  0
   28.0240  -23.2915  -17.2038 N   0  0  0  0  0  0  0  0  0  0  0  0
   28.3897  -21.9748  -17.7016 C   0  0  0  0  0  0  0  0  0  0  0  0
   27.1018  -21.2690  -18.0713 C   0  0  0  0  0  0  0  0  0  0  0  0
   26.3836  -20.9382  -16.7871 C   0  0  0  0  0  0  0  0  0  0  0  0
   25.0987  -20.2212  -17.1567 C   0  0  2  0  0  0  0  0  0  0  0  0
   25.4450  -18.9418  -17.7329 N   0  0  0  0  0  0  0  0  0  0  0  0
   24.3456  -19.9813  -15.9016 C   0  0  0  0  0  0  0  0  0  0  0  0
   24.4823  -18.9286  -15.2344 O   0  0  0  0  0  0  0  0  0  0  0  0
   27.7690  -25.6412  -16.0696 N   0  0  0  0  0  0  0  0  0  0  0  0
   19.1793  -19.5293  -14.3152 C   0  0  0  0  0  0  0  0  0  0  0  0
   20.5332  -19.0744  -14.1240 O   0  0  0  0  0  0  0  0  0  0  0  0
   20.7738  -18.3410  -13.1415 C   0  0  0  0  0  0  0  0  0  0  0  0
   21.5468  -19.5008  -15.0957 C   0  0  2  0  0  0  0  0  0  0  0  0
   22.4009  -20.5980  -14.5041 N   0  0  0  0  0  0  0  0  0  0  0  0
   23.4331  -20.9732  -15.4277 C   0  0  0  0  0  0  0  0  0  0  0  0
   21.5166  -21.7846  -14.2333 O   0  0  0  0  0  0  0  0  0  0  0  0
   21.4371  -22.8486  -15.1310 O   0  0  0  0  0  0  0  0  0  0  0  0
  2  1  1  6
  2  3  1  0
  2 10  1  0
  3  4  1  0
  4  5  2  0
  5  6  1  0
  7  6  2  0
  8  7  1  0
  9  4  1  0
  9  8  2  0
 10 11  2  0
 10 20  1  0
 13 15  1  0
 13 12  1  0
 14 13  2  0
 16 15  1  0
 16 17  1  0
 18 17  1  0
 19 18  1  1
 20 19  1  0
 21 19  1  0
 21 22  2  0
 24 23  1  0
 24 26  1  0
 25 24  2  0
 27 26  1  1
 27 28  1  0
 28 21  1  0
 29 27  1  0
 30 29  1  0
 31 29  2  0
M  END
$$$$
