FRN.pdb
     RDKit          3D

 31 31  0  0  1  0  0  0  0  0999 V2000
   28.7170  -21.0492   -8.9795 N   0  0  0  0  0  0  0  0  0  0  0  0
   27.2890  -20.8946   -8.8430 C   0  0  1  0  0  0  0  0  0  0  0  0
   26.9563  -19.7025   -7.9443 C   0  0  0  0  0  0  0  0  0  0  0  0
   27.5428  -19.9173   -6.6060 C   0  0  0  0  0  0  0  0  0  0  0  0
   26.8839  -20.6701   -5.6823 C   0  0  0  0  0  0  0  0  0  0  0  0
   27.4103  -20.8885   -4.4188 C   0  0  0  0  0  0  0  0  0  0  0  0
   28.6312  -20.3284   -4.0932 C   0  0  0  0  0  0  0  0  0  0  0  0
   29.3216  -19.5543   -5.0254 C   0  0  0  0  0  0  0  0  0  0  0  0
   28.7573  -19.3607   -6.2806 C   0  0  0  0  0  0  0  0  0  0  0  0
   26.6354  -20.6230  -10.1513 C   0  0  0  0  0  0  0  0  0  0  0  0
   27.0190  -19.6104  -10.7884 O   0  0  0  0  0  0  0  0  0  0  0  0
   24.2448  -26.2573  -14.6151 N   0  0  0  0  0  0  0  0  0  0  0  0
   23.1540  -25.4191  -14.9611 C   0  0  0  0  0  0  0  0  0  0  0  0
   21.9898  -25.9579  -15.1021 N   0  0  0  0  0  0  0  0  0  0  0  0
   23.3751  -24.0418  -15.1377 N   0  0  0  0  0  0  0  0  0  0  0  0
   24.7215  -23.5159  -14.9760 C   0  0  0  0  0  0  0  0  0  0  0  0
   24.6014  -22.2306  -14.1842 C   0  0  0  0  0  0  0  0  0  0  0  0
   25.1317  -22.5024  -12.7989 C   0  0  0  0  0  0  0  0  0  0  0  0
   25.0389  -21.2071  -12.0145 C   0  0  2  0  0  0  0  0  0  0  0  0
   25.6238  -21.4255  -10.7110 N   0  0  0  0  0  0  0  0  0  0  0  0
   23.5995  -20.8966  -11.8361 C   0  0  0  0  0  0  0  0  0  0  0  0
   23.0470  -20.9256  -10.7110 O   0  0  0  0  0  0  0  0  0  0  0  0
   21.1609  -25.4165  -15.4232 N   0  0  0  0  0  0  0  0  0  0  0  0
   18.9947  -19.1409  -12.4548 C   0  0  0  0  0  0  0  0  0  0  0  0
   20.0154  -18.1413  -12.6432 O   0  0  0  0  0  0  0  0  0  0  0  0
   19.6699  -16.9405  -12.6408 C   0  0  0  0  0  0  0  0  0  0  0  0
   21.3987  -18.5953  -12.8267 C   0  0  1  0  0  0  0  0  0  0  0  0
   21.4573  -20.1047  -12.7841 N   0  0  0  0  0  0  0  0  0  0  0  0
   22.8074  -20.5524  -12.9740 C   0  0  0  0  0  0  0  0  0  0  0  0
   20.5928  -20.6379  -13.8940 O   0  0  0  0  0  0  0  0  0  0  0  0
   19.3200  -21.1474  -13.6398 O   0  0  0  0  0  0  0  0  0  0  0  0
  2  1  1  6
  2  3  1  0
  2 10  1  0
  3  4  1  0
  4  5  2  0
  5  6  1  0
  7  6  2  0
  8  7  1  0
  9  4  1  0
  9  8  2  0
 10 11  2  0
 10 20  1  0
 13 15  1  0
 13 12  1  0
 14 13  2  0
 16 15  1  0
 16 17  1  0
 18 17  1  0
 19 18  1  6
 20 19  1  0
 21 19  1  0
 21 22  2  0
 24 23  1  0
 24 26  1  0
 25 24  2  0
 27 26  1  1
 27 28  1  0
 28 21  1  0
 29 27  1  0
 30 29  1  0
 31 29  2  0
M  END
$$$$
