FRN.pdb
     RDKit          3D

 31 31  0  0  1  0  0  0  0  0999 V2000
   19.3591  -20.7281  -14.5990 N   0  0  0  0  0  0  0  0  0  0  0  0
   20.6970  -20.2668  -14.8798 C   0  0  1  0  0  0  0  0  0  0  0  0
   20.8544  -18.7945  -14.4966 C   0  0  0  0  0  0  0  0  0  0  0  0
   20.1958  -17.9492  -15.5130 C   0  0  0  0  0  0  0  0  0  0  0  0
   20.7155  -17.8570  -16.7682 C   0  0  0  0  0  0  0  0  0  0  0  0
   20.1187  -17.0718  -17.7420 C   0  0  0  0  0  0  0  0  0  0  0  0
   18.9710  -16.3684  -17.4284 C   0  0  0  0  0  0  0  0  0  0  0  0
   18.4233  -16.4496  -16.1484 C   0  0  0  0  0  0  0  0  0  0  0  0
   19.0540  -17.2488  -15.2024 C   0  0  0  0  0  0  0  0  0  0  0  0
   21.7148  -21.0118  -14.0912 C   0  0  0  0  0  0  0  0  0  0  0  0
   21.4628  -21.2242  -12.8789 O   0  0  0  0  0  0  0  0  0  0  0  0
   27.3606  -25.9013  -16.2909 N   0  0  0  0  0  0  0  0  0  0  0  0
   26.0895  -26.5051  -16.4683 C   0  0  0  0  0  0  0  0  0  0  0  0
   25.9931  -27.7830  -16.3162 N   0  0  0  0  0  0  0  0  0  0  0  0
   24.9865  -25.6990  -16.8011 N   0  0  0  0  0  0  0  0  0  0  0  0
   25.1362  -24.2524  -16.7785 C   0  0  0  0  0  0  0  0  0  0  0  0
   24.1553  -23.7229  -15.7534 C   0  0  0  0  0  0  0  0  0  0  0  0
   24.9199  -22.8135  -14.8246 C   0  0  0  0  0  0  0  0  0  0  0  0
   23.9211  -22.2108  -13.8546 C   0  0  2  0  0  0  0  0  0  0  0  0
   22.9300  -21.4874  -14.6183 N   0  0  0  0  0  0  0  0  0  0  0  0
   24.6551  -21.2427  -13.0037 C   0  0  0  0  0  0  0  0  0  0  0  0
   24.8549  -20.0584  -13.3635 O   0  0  0  0  0  0  0  0  0  0  0  0
   25.1223  -28.3066  -16.5417 N   0  0  0  0  0  0  0  0  0  0  0  0
   28.3881  -20.1549   -9.3077 C   0  0  0  0  0  0  0  0  0  0  0  0
   27.0562  -20.3989   -8.8149 O   0  0  0  0  0  0  0  0  0  0  0  0
   26.7047  -19.8253   -7.7620 C   0  0  0  0  0  0  0  0  0  0  0  0
   26.1940  -21.3067   -9.5803 C   0  0  2  0  0  0  0  0  0  0  0  0
   26.0019  -20.7776  -10.9826 N   0  0  0  0  0  0  0  0  0  0  0  0
   25.1549  -21.6607  -11.7323 C   0  0  0  0  0  0  0  0  0  0  0  0
   27.3519  -20.6997  -11.6422 O   0  0  0  0  0  0  0  0  0  0  0  0
   28.1814  -19.5929  -11.4662 O   0  0  0  0  0  0  0  0  0  0  0  0
  2  1  1  1
  2  3  1  0
  2 10  1  0
  3  4  1  0
  4  5  2  0
  5  6  1  0
  7  6  2  0
  8  7  1  0
  9  4  1  0
  9  8  2  0
 10 11  2  0
 10 20  1  0
 13 15  1  0
 13 12  1  0
 14 13  2  0
 16 15  1  0
 16 17  1  0
 18 17  1  0
 19 18  1  6
 20 19  1  0
 21 19  1  0
 21 22  2  0
 24 23  1  0
 24 26  1  0
 25 24  2  0
 27 26  1  1
 27 28  1  0
 28 21  1  0
 29 27  1  0
 30 29  1  0
 31 29  2  0
M  END
$$$$
