DPQ.pdb
     RDKit          3D

 25 25  0  0  1  0  0  0  0  0999 V2000
   28.9965  -23.3784  -16.7777 N   0  0  0  0  0  0  0  0  0  0  0  0
   28.1919  -22.3113  -17.3214 C   0  0  1  0  0  0  0  0  0  0  0  0
   27.7398  -22.6836  -18.7388 C   0  0  0  0  0  0  0  0  0  0  0  0
   27.0830  -21.5188  -19.3760 C   0  0  0  0  0  0  0  0  0  0  0  0
   27.5373  -20.3754  -19.1291 O   0  0  0  0  0  0  0  0  0  0  0  0
   27.0677  -21.8811  -16.5037 C   0  0  0  0  0  0  0  0  0  0  0  0
   26.1004  -22.6571  -16.3535 O   0  0  0  0  0  0  0  0  0  0  0  0
   25.9958  -21.6474  -20.2262 O   0  0  0  0  0  0  0  0  0  0  0  0
   27.0264  -20.5898  -15.8586 N   0  0  0  0  0  0  0  0  0  0  0  0
   28.0834  -19.6431  -15.9929 C   0  0  0  0  0  0  0  0  0  0  0  0
   27.7350  -18.5072  -15.0592 C   0  0  0  0  0  0  0  0  0  0  0  0
   26.2411  -18.6163  -14.8725 C   0  0  0  0  0  0  0  0  0  0  0  0
   25.9856  -20.0862  -15.0354 C   0  0  1  0  0  0  0  0  0  0  0  0
   24.6125  -20.3303  -15.5639 C   0  0  0  0  0  0  0  0  0  0  0  0
   24.3028  -20.5496  -16.7354 O   0  0  0  0  0  0  0  0  0  0  0  0
   18.1823  -22.7001  -12.7712 N   0  0  0  0  0  0  0  0  0  0  0  0
   19.5734  -22.5855  -13.0460 C   0  0  0  0  0  0  0  0  0  0  0  0
   20.4077  -23.2196  -12.3650 O   0  0  0  0  0  0  0  0  0  0  0  0
   20.0895  -21.7048  -14.1565 C   0  0  0  0  0  0  0  0  0  0  0  0
   21.5259  -21.4124  -13.9214 C   0  0  0  0  0  0  0  0  0  0  0  0
   22.1634  -20.5611  -14.9807 C   0  0  2  0  0  0  0  0  0  0  0  0
   23.5677  -20.3033  -14.6034 N   0  0  0  0  0  0  0  0  0  0  0  0
   21.4923  -19.2501  -15.0462 C   0  0  0  0  0  0  0  0  0  0  0  0
   21.9260  -18.3143  -14.3061 O   0  0  0  0  0  0  0  0  0  0  0  0
   20.4122  -18.9824  -15.8752 O   0  0  0  0  0  0  0  0  0  0  0  0
  2  1  1  1
  2  3  1  0
  3  4  1  0
  4  8  1  0
  5  4  2  0
  6  2  1  0
  6  7  2  0
  9  6  1  0
 10  9  1  0
 11 10  1  0
 12 11  1  0
 12 13  1  0
 13  9  1  0
 14 22  1  0
 13 14  1  6
 15 14  2  0
 16 17  1  0
 17 19  1  0
 18 17  2  0
 20 19  1  0
 21 20  1  1
 21 22  1  0
 21 23  1  0
 23 25  1  0
 24 23  2  0
M  END
$$$$
