DPQ.pdb
     RDKit          3D

 25 25  0  0  1  0  0  0  0  0999 V2000
   18.1854  -12.6024  -15.6324 N   0  0  0  0  0  0  0  0  0  0  0  0
   19.1263  -11.6584  -16.1848 C   0  0  1  0  0  0  0  0  0  0  0  0
   18.4627  -10.8880  -17.3330 C   0  0  0  0  0  0  0  0  0  0  0  0
   17.9440  -11.8416  -18.3407 C   0  0  0  0  0  0  0  0  0  0  0  0
   18.7532  -12.6421  -18.8691 O   0  0  0  0  0  0  0  0  0  0  0  0
   19.7532  -10.7531  -15.2336 C   0  0  0  0  0  0  0  0  0  0  0  0
   19.0286  -10.1197  -14.4373 O   0  0  0  0  0  0  0  0  0  0  0  0
   16.6102  -11.8794  -18.7159 O   0  0  0  0  0  0  0  0  0  0  0  0
   21.1828  -10.5575  -15.1746 N   0  0  0  0  0  0  0  0  0  0  0  0
   22.0929  -11.4208  -15.8515 C   0  0  0  0  0  0  0  0  0  0  0  0
   23.4720  -10.9788  -15.4203 C   0  0  0  0  0  0  0  0  0  0  0  0
   23.2869   -9.5506  -14.9682 C   0  0  0  0  0  0  0  0  0  0  0  0
   21.8702   -9.5326  -14.4733 C   0  0  1  0  0  0  0  0  0  0  0  0
   21.2717   -8.1755  -14.6281 C   0  0  0  0  0  0  0  0  0  0  0  0
   20.7293   -7.7206  -15.6358 O   0  0  0  0  0  0  0  0  0  0  0  0
   17.3323   -5.8886  -10.9801 N   0  0  0  0  0  0  0  0  0  0  0  0
   18.5191   -6.4590  -10.4415 C   0  0  0  0  0  0  0  0  0  0  0  0
   18.5247   -6.9354   -9.2862 O   0  0  0  0  0  0  0  0  0  0  0  0
   19.8013   -6.5103  -11.2341 C   0  0  0  0  0  0  0  0  0  0  0  0
   19.5584   -5.9644  -12.5932 C   0  0  0  0  0  0  0  0  0  0  0  0
   20.7639   -5.9771  -13.4874 C   0  0  2  0  0  0  0  0  0  0  0  0
   21.3438   -7.3353  -13.4863 N   0  0  0  0  0  0  0  0  0  0  0  0
   21.7979   -5.0720  -12.9535 C   0  0  0  0  0  0  0  0  0  0  0  0
   21.5821   -3.8216  -12.9934 O   0  0  0  0  0  0  0  0  0  0  0  0
   22.9948   -5.5130  -12.4071 O   0  0  0  0  0  0  0  0  0  0  0  0
  2  1  1  1
  2  3  1  0
  3  4  1  0
  4  8  1  0
  5  4  2  0
  6  2  1  0
  6  7  2  0
  9  6  1  0
 10  9  1  0
 11 10  1  0
 12 11  1  0
 12 13  1  0
 13  9  1  0
 14 22  1  0
 13 14  1  6
 15 14  2  0
 16 17  1  0
 17 19  1  0
 18 17  2  0
 20 19  1  0
 21 20  1  1
 21 22  1  0
 21 23  1  0
 23 25  1  0
 24 23  2  0
M  END
$$$$
