DPQ.pdb
     RDKit          3D

 25 25  0  0  1  0  0  0  0  0999 V2000
   18.6614  -12.6969  -16.2522 N   0  0  0  0  0  0  0  0  0  0  0  0
   19.8837  -12.1109  -16.7461 C   0  0  1  0  0  0  0  0  0  0  0  0
   19.6824  -11.6556  -18.1967 C   0  0  0  0  0  0  0  0  0  0  0  0
   19.2234  -12.7981  -19.0201 C   0  0  0  0  0  0  0  0  0  0  0  0
   19.8838  -13.8642  -18.9729 O   0  0  0  0  0  0  0  0  0  0  0  0
   20.4545  -11.0477  -15.9328 C   0  0  0  0  0  0  0  0  0  0  0  0
   19.7230  -10.0970  -15.5844 O   0  0  0  0  0  0  0  0  0  0  0  0
   18.1018  -12.7308  -19.8317 O   0  0  0  0  0  0  0  0  0  0  0  0
   21.8361  -11.0486  -15.5126 N   0  0  0  0  0  0  0  0  0  0  0  0
   22.6698  -12.1957  -15.6569 C   0  0  0  0  0  0  0  0  0  0  0  0
   23.9690  -11.8449  -14.9695 C   0  0  0  0  0  0  0  0  0  0  0  0
   23.9983  -10.3358  -14.9643 C   0  0  0  0  0  0  0  0  0  0  0  0
   22.5437   -9.9686  -14.9230 C   0  0  1  0  0  0  0  0  0  0  0  0
   22.3107   -8.6505  -15.5804 C   0  0  0  0  0  0  0  0  0  0  0  0
   22.1581   -8.4454  -16.7851 O   0  0  0  0  0  0  0  0  0  0  0  0
   18.0977   -5.7345  -16.7883 N   0  0  0  0  0  0  0  0  0  0  0  0
   18.2174   -6.0237  -15.4005 C   0  0  0  0  0  0  0  0  0  0  0  0
   17.1987   -6.1117  -14.6820 O   0  0  0  0  0  0  0  0  0  0  0  0
   19.5622   -6.2329  -14.7502 C   0  0  0  0  0  0  0  0  0  0  0  0
   20.6280   -6.0907  -15.7738 C   0  0  0  0  0  0  0  0  0  0  0  0
   22.0234   -6.1638  -15.2255 C   0  0  2  0  0  0  0  0  0  0  0  0
   22.2630   -7.5280  -14.7129 N   0  0  0  0  0  0  0  0  0  0  0  0
   22.1640   -5.2473  -14.0794 C   0  0  0  0  0  0  0  0  0  0  0  0
   22.1982   -5.7445  -12.9118 O   0  0  0  0  0  0  0  0  0  0  0  0
   22.2631   -3.8691  -14.2075 O   0  0  0  0  0  0  0  0  0  0  0  0
  2  1  1  1
  2  3  1  0
  3  4  1  0
  4  8  1  0
  5  4  2  0
  6  2  1  0
  6  7  2  0
  9  6  1  0
 10  9  1  0
 11 10  1  0
 12 11  1  0
 12 13  1  0
 13  9  1  0
 14 22  1  0
 13 14  1  6
 15 14  2  0
 16 17  1  0
 17 19  1  0
 18 17  2  0
 20 19  1  0
 21 20  1  1
 21 22  1  0
 21 23  1  0
 23 25  1  0
 24 23  2  0
M  END
$$$$
