DPQ.pdb
     RDKit          3D

 25 25  0  0  1  0  0  0  0  0999 V2000
   25.4160  -20.2046  -18.1909 N   0  0  0  0  0  0  0  0  0  0  0  0
   25.8628  -19.3892  -17.0877 C   0  0  1  0  0  0  0  0  0  0  0  0
   25.0137  -18.1139  -17.0183 C   0  0  0  0  0  0  0  0  0  0  0  0
   25.2633  -17.2812  -18.2176 C   0  0  0  0  0  0  0  0  0  0  0  0
   24.3090  -16.6110  -18.6814 O   0  0  0  0  0  0  0  0  0  0  0  0
   25.9303  -20.0504  -15.7932 C   0  0  0  0  0  0  0  0  0  0  0  0
   24.9320  -20.6814  -15.3863 O   0  0  0  0  0  0  0  0  0  0  0  0
   26.5010  -17.2178  -18.8382 O   0  0  0  0  0  0  0  0  0  0  0  0
   27.1082  -20.0051  -14.9591 N   0  0  0  0  0  0  0  0  0  0  0  0
   28.3760  -19.5915  -15.4624 C   0  0  0  0  0  0  0  0  0  0  0  0
   29.3582  -19.8285  -14.3387 C   0  0  0  0  0  0  0  0  0  0  0  0
   28.5096  -19.8365  -13.0905 C   0  0  0  0  0  0  0  0  0  0  0  0
   27.1865  -20.3453  -13.5833 C   0  0  1  0  0  0  0  0  0  0  0  0
   26.0695  -19.8084  -12.7538 C   0  0  0  0  0  0  0  0  0  0  0  0
   25.4607  -18.7531  -12.9332 O   0  0  0  0  0  0  0  0  0  0  0  0
   20.9811  -21.3724  -12.8586 N   0  0  0  0  0  0  0  0  0  0  0  0
   20.8275  -20.7449  -11.5911 C   0  0  0  0  0  0  0  0  0  0  0  0
   19.6886  -20.5506  -11.1147 O   0  0  0  0  0  0  0  0  0  0  0  0
   22.0188  -20.2951  -10.7826 C   0  0  0  0  0  0  0  0  0  0  0  0
   23.2628  -20.6021  -11.5322 C   0  0  0  0  0  0  0  0  0  0  0  0
   24.5260  -20.2514  -10.8011 C   0  0  2  0  0  0  0  0  0  0  0  0
   25.6817  -20.6093  -11.6479 N   0  0  0  0  0  0  0  0  0  0  0  0
   24.6356  -21.0539   -9.5694 C   0  0  0  0  0  0  0  0  0  0  0  0
   25.3008  -22.1343   -9.6122 O   0  0  0  0  0  0  0  0  0  0  0  0
   24.0522  -20.6913   -8.3636 O   0  0  0  0  0  0  0  0  0  0  0  0
  2  1  1  6
  2  3  1  0
  3  4  1  0
  4  8  1  0
  5  4  2  0
  6  2  1  0
  6  7  2  0
  9  6  1  0
 10  9  1  0
 11 10  1  0
 12 11  1  0
 12 13  1  0
 13  9  1  0
 14 22  1  0
 13 14  1  1
 15 14  2  0
 16 17  1  0
 17 19  1  0
 18 17  2  0
 20 19  1  0
 21 20  1  6
 21 22  1  0
 21 23  1  0
 23 25  1  0
 24 23  2  0
M  END
$$$$
