DPQ.pdb
     RDKit          3D

 25 25  0  0  1  0  0  0  0  0999 V2000
   18.9842  -10.8879  -15.6246 N   0  0  0  0  0  0  0  0  0  0  0  0
   19.1014   -9.4887  -15.2931 C   0  0  1  0  0  0  0  0  0  0  0  0
   18.1641   -8.6708  -16.1902 C   0  0  0  0  0  0  0  0  0  0  0  0
   18.5233   -8.8811  -17.6118 C   0  0  0  0  0  0  0  0  0  0  0  0
   17.6281   -9.2809  -18.3951 O   0  0  0  0  0  0  0  0  0  0  0  0
   18.9196   -9.1490  -13.8899 C   0  0  0  0  0  0  0  0  0  0  0  0
   17.9827   -9.6811  -13.2578 O   0  0  0  0  0  0  0  0  0  0  0  0
   19.8001   -8.6539  -18.1008 O   0  0  0  0  0  0  0  0  0  0  0  0
   19.7811   -8.2189  -13.1985 N   0  0  0  0  0  0  0  0  0  0  0  0
   21.0506   -7.8333  -13.7195 C   0  0  0  0  0  0  0  0  0  0  0  0
   21.6921   -6.9860  -12.6452 C   0  0  0  0  0  0  0  0  0  0  0  0
   20.5337   -6.4832  -11.8184 C   0  0  0  0  0  0  0  0  0  0  0  0
   19.5157   -7.5768  -11.9609 C   0  0  1  0  0  0  0  0  0  0  0  0
   18.1327   -7.0332  -11.8355 C   0  0  0  0  0  0  0  0  0  0  0  0
   17.3604   -6.7659  -12.7568 O   0  0  0  0  0  0  0  0  0  0  0  0
   12.8372   -8.3747  -10.0258 N   0  0  0  0  0  0  0  0  0  0  0  0
   13.9696   -8.9598   -9.3938 C   0  0  0  0  0  0  0  0  0  0  0  0
   13.8418   -9.9812   -8.6851 O   0  0  0  0  0  0  0  0  0  0  0  0
   15.3518   -8.3773   -9.5526 C   0  0  0  0  0  0  0  0  0  0  0  0
   15.2888   -7.2112  -10.4692 C   0  0  0  0  0  0  0  0  0  0  0  0
   16.3629   -6.1879  -10.2401 C   0  0  2  0  0  0  0  0  0  0  0  0
   17.6761   -6.8070  -10.5107 N   0  0  0  0  0  0  0  0  0  0  0  0
   16.3710   -5.7727   -8.8257 C   0  0  0  0  0  0  0  0  0  0  0  0
   17.2815   -6.2310   -8.0690 O   0  0  0  0  0  0  0  0  0  0  0  0
   15.4376   -4.9053   -8.2760 O   0  0  0  0  0  0  0  0  0  0  0  0
  2  1  1  1
  2  3  1  0
  3  4  1  0
  4  8  1  0
  5  4  2  0
  6  2  1  0
  6  7  2  0
  9  6  1  0
 10  9  1  0
 11 10  1  0
 12 11  1  0
 12 13  1  0
 13  9  1  0
 14 22  1  0
 13 14  1  6
 15 14  2  0
 16 17  1  0
 17 19  1  0
 18 17  2  0
 20 19  1  0
 21 20  1  1
 21 22  1  0
 21 23  1  0
 23 25  1  0
 24 23  2  0
M  END
$$$$
