DPQ.pdb
     RDKit          3D

 25 25  0  0  1  0  0  0  0  0999 V2000
   21.4433  -21.6558  -14.1777 N   0  0  0  0  0  0  0  0  0  0  0  0
   21.4800  -20.8601  -12.9748 C   0  0  1  0  0  0  0  0  0  0  0  0
   20.4306  -19.7454  -13.0673 C   0  0  0  0  0  0  0  0  0  0  0  0
   19.0730  -20.3374  -13.0864 C   0  0  0  0  0  0  0  0  0  0  0  0
   18.3326  -20.1513  -12.0903 O   0  0  0  0  0  0  0  0  0  0  0  0
   21.3643  -21.5925  -11.7227 C   0  0  0  0  0  0  0  0  0  0  0  0
   20.6772  -22.6353  -11.6961 O   0  0  0  0  0  0  0  0  0  0  0  0
   18.5977  -21.0816  -14.1547 O   0  0  0  0  0  0  0  0  0  0  0  0
   22.0134  -21.1596  -10.5075 N   0  0  0  0  0  0  0  0  0  0  0  0
   22.9994  -20.1303  -10.5021 C   0  0  0  0  0  0  0  0  0  0  0  0
   23.5330  -20.0839   -9.0891 C   0  0  0  0  0  0  0  0  0  0  0  0
   22.4380  -20.6982   -8.2513 C   0  0  0  0  0  0  0  0  0  0  0  0
   21.7856  -21.6614   -9.1995 C   0  0  1  0  0  0  0  0  0  0  0  0
   20.3466  -21.8504   -8.8567 C   0  0  0  0  0  0  0  0  0  0  0  0
   19.4012  -21.1625   -9.2435 O   0  0  0  0  0  0  0  0  0  0  0  0
   17.6285  -25.8230  -11.0804 N   0  0  0  0  0  0  0  0  0  0  0  0
   16.9939  -24.5538  -10.9796 C   0  0  0  0  0  0  0  0  0  0  0  0
   16.1743  -24.1850  -11.8479 O   0  0  0  0  0  0  0  0  0  0  0  0
   17.2820  -23.6151   -9.8346 C   0  0  0  0  0  0  0  0  0  0  0  0
   18.2395  -24.2609   -8.9018 C   0  0  0  0  0  0  0  0  0  0  0  0
   18.6687  -23.3893   -7.7575 C   0  0  2  0  0  0  0  0  0  0  0  0
   20.0553  -22.9400   -7.9949 N   0  0  0  0  0  0  0  0  0  0  0  0
   18.6819  -24.1691   -6.5065 C   0  0  0  0  0  0  0  0  0  0  0  0
   17.5707  -24.4497   -5.9604 O   0  0  0  0  0  0  0  0  0  0  0  0
   19.8441  -24.6154   -5.8935 O   0  0  0  0  0  0  0  0  0  0  0  0
  2  1  1  6
  2  3  1  0
  3  4  1  0
  4  8  1  0
  5  4  2  0
  6  2  1  0
  6  7  2  0
  9  6  1  0
 10  9  1  0
 11 10  1  0
 12 11  1  0
 12 13  1  0
 13  9  1  0
 14 22  1  0
 13 14  1  1
 15 14  2  0
 16 17  1  0
 17 19  1  0
 18 17  2  0
 20 19  1  0
 21 20  1  6
 21 22  1  0
 21 23  1  0
 23 25  1  0
 24 23  2  0
M  END
$$$$
