DPQ.pdb
     RDKit          3D

 25 25  0  0  1  0  0  0  0  0999 V2000
   23.2722  -20.5421  -10.1587 N   0  0  0  0  0  0  0  0  0  0  0  0
   23.5015  -21.0117  -11.5036 C   0  0  1  0  0  0  0  0  0  0  0  0
   22.1603  -21.1357  -12.2370 C   0  0  0  0  0  0  0  0  0  0  0  0
   21.1794  -21.8302  -11.3713 C   0  0  0  0  0  0  0  0  0  0  0  0
   20.1087  -21.2363  -11.0961 O   0  0  0  0  0  0  0  0  0  0  0  0
   24.4646  -20.2532  -12.2876 C   0  0  0  0  0  0  0  0  0  0  0  0
   24.2437  -19.0435  -12.5068 O   0  0  0  0  0  0  0  0  0  0  0  0
   21.4013  -23.0994  -10.8604 O   0  0  0  0  0  0  0  0  0  0  0  0
   25.6675  -20.8458  -12.8235 N   0  0  0  0  0  0  0  0  0  0  0  0
   26.2931  -21.9715  -12.2128 C   0  0  0  0  0  0  0  0  0  0  0  0
   27.5820  -22.1840  -12.9723 C   0  0  0  0  0  0  0  0  0  0  0  0
   27.3462  -21.5235  -14.3089 C   0  0  0  0  0  0  0  0  0  0  0  0
   26.3778  -20.4256  -13.9783 C   0  0  1  0  0  0  0  0  0  0  0  0
   25.5117  -20.1117  -15.1511 C   0  0  0  0  0  0  0  0  0  0  0  0
   24.3986  -20.5809  -15.3909 O   0  0  0  0  0  0  0  0  0  0  0  0
   22.1791  -16.2127  -15.3648 N   0  0  0  0  0  0  0  0  0  0  0  0
   21.9941  -16.5911  -16.7236 C   0  0  0  0  0  0  0  0  0  0  0  0
   20.9723  -16.2321  -17.3473 O   0  0  0  0  0  0  0  0  0  0  0  0
   23.0115  -17.4300  -17.4558 C   0  0  0  0  0  0  0  0  0  0  0  0
   24.1248  -17.7649  -16.5325 C   0  0  0  0  0  0  0  0  0  0  0  0
   25.2110  -18.5955  -17.1518 C   0  0  2  0  0  0  0  0  0  0  0  0
   26.0409  -19.1736  -16.0756 N   0  0  0  0  0  0  0  0  0  0  0  0
   26.0986  -17.7424  -17.9627 C   0  0  0  0  0  0  0  0  0  0  0  0
   25.7362  -17.4472  -19.1430 O   0  0  0  0  0  0  0  0  0  0  0  0
   27.3092  -17.2421  -17.5048 O   0  0  0  0  0  0  0  0  0  0  0  0
  2  1  1  1
  2  3  1  0
  3  4  1  0
  4  8  1  0
  5  4  2  0
  6  2  1  0
  6  7  2  0
  9  6  1  0
 10  9  1  0
 11 10  1  0
 12 11  1  0
 12 13  1  0
 13  9  1  0
 14 22  1  0
 13 14  1  6
 15 14  2  0
 16 17  1  0
 17 19  1  0
 18 17  2  0
 20 19  1  0
 21 20  1  1
 21 22  1  0
 21 23  1  0
 23 25  1  0
 24 23  2  0
M  END
$$$$
