DPQ.pdb
     RDKit          3D

 25 25  0  0  1  0  0  0  0  0999 V2000
   18.6692  -13.2005  -15.6372 N   0  0  0  0  0  0  0  0  0  0  0  0
   19.4526  -12.1972  -16.3163 C   0  0  1  0  0  0  0  0  0  0  0  0
   18.9611  -12.0574  -17.7624 C   0  0  0  0  0  0  0  0  0  0  0  0
   18.9994  -13.3775  -18.4332 C   0  0  0  0  0  0  0  0  0  0  0  0
   20.0857  -14.0057  -18.4408 O   0  0  0  0  0  0  0  0  0  0  0  0
   19.5365  -10.9017  -15.6589 C   0  0  0  0  0  0  0  0  0  0  0  0
   18.4794  -10.2914  -15.3934 O   0  0  0  0  0  0  0  0  0  0  0  0
   17.8888  -13.9362  -19.0459 O   0  0  0  0  0  0  0  0  0  0  0  0
   20.7962  -10.2929  -15.3014 N   0  0  0  0  0  0  0  0  0  0  0  0
   22.0287  -11.0048  -15.3770 C   0  0  0  0  0  0  0  0  0  0  0  0
   23.0689  -10.0840  -14.7821 C   0  0  0  0  0  0  0  0  0  0  0  0
   22.4726   -8.7039  -14.9158 C   0  0  0  0  0  0  0  0  0  0  0  0
   20.9962   -8.9641  -14.8444 C   0  0  1  0  0  0  0  0  0  0  0  0
   20.2383   -7.9317  -15.6083 C   0  0  0  0  0  0  0  0  0  0  0  0
   19.5050   -8.1246  -16.5787 O   0  0  0  0  0  0  0  0  0  0  0  0
   15.5041   -6.5667  -15.6114 N   0  0  0  0  0  0  0  0  0  0  0  0
   15.7994   -5.1997  -15.8723 C   0  0  0  0  0  0  0  0  0  0  0  0
   14.8871   -4.4019  -16.1774 O   0  0  0  0  0  0  0  0  0  0  0  0
   17.2080   -4.6664  -15.7918 C   0  0  0  0  0  0  0  0  0  0  0  0
   18.1275   -5.7688  -15.4136 C   0  0  0  0  0  0  0  0  0  0  0  0
   19.5736   -5.4944  -15.7084 C   0  0  2  0  0  0  0  0  0  0  0  0
   20.3895   -6.5947  -15.1563 N   0  0  0  0  0  0  0  0  0  0  0  0
   20.0028   -4.2610  -15.0246 C   0  0  0  0  0  0  0  0  0  0  0  0
   20.2829   -4.3248  -13.7879 O   0  0  0  0  0  0  0  0  0  0  0  0
   20.1196   -3.0330  -15.6601 O   0  0  0  0  0  0  0  0  0  0  0  0
  2  1  1  1
  2  3  1  0
  3  4  1  0
  4  8  1  0
  5  4  2  0
  6  2  1  0
  6  7  2  0
  9  6  1  0
 10  9  1  0
 11 10  1  0
 12 11  1  0
 12 13  1  0
 13  9  1  0
 14 22  1  0
 13 14  1  6
 15 14  2  0
 16 17  1  0
 17 19  1  0
 18 17  2  0
 20 19  1  0
 21 20  1  1
 21 22  1  0
 21 23  1  0
 23 25  1  0
 24 23  2  0
M  END
$$$$
