DPQ.pdb
     RDKit          3D

 25 25  0  0  1  0  0  0  0  0999 V2000
   19.1932  -11.1978  -14.8467 N   0  0  0  0  0  0  0  0  0  0  0  0
   18.0949  -10.3242  -15.1814 C   0  0  1  0  0  0  0  0  0  0  0  0
   16.8339  -11.1610  -15.4298 C   0  0  0  0  0  0  0  0  0  0  0  0
   17.0981  -12.1603  -16.4907 C   0  0  0  0  0  0  0  0  0  0  0  0
   17.0931  -11.7715  -17.6839 O   0  0  0  0  0  0  0  0  0  0  0  0
   17.8345   -9.2409  -14.2453 C   0  0  0  0  0  0  0  0  0  0  0  0
   17.6044   -9.5201  -13.0497 O   0  0  0  0  0  0  0  0  0  0  0  0
   17.3478  -13.4952  -16.2137 O   0  0  0  0  0  0  0  0  0  0  0  0
   17.8312   -7.8533  -14.6455 N   0  0  0  0  0  0  0  0  0  0  0  0
   18.3400   -7.4289  -15.9074 C   0  0  0  0  0  0  0  0  0  0  0  0
   18.2985   -5.9187  -15.8771 C   0  0  0  0  0  0  0  0  0  0  0  0
   17.2596   -5.5901  -14.8326 C   0  0  0  0  0  0  0  0  0  0  0  0
   17.3477   -6.7540  -13.8890 C   0  0  1  0  0  0  0  0  0  0  0  0
   16.0358   -6.9969  -13.2228 C   0  0  0  0  0  0  0  0  0  0  0  0
   15.1854   -7.8248  -13.5514 O   0  0  0  0  0  0  0  0  0  0  0  0
   15.3615   -8.4497   -7.7563 N   0  0  0  0  0  0  0  0  0  0  0  0
   14.0192   -8.0208   -7.9514 C   0  0  0  0  0  0  0  0  0  0  0  0
   13.1477   -8.2549   -7.0867 O   0  0  0  0  0  0  0  0  0  0  0  0
   13.6004   -7.2759   -9.1942 C   0  0  0  0  0  0  0  0  0  0  0  0
   14.7780   -7.1045  -10.0818 C   0  0  0  0  0  0  0  0  0  0  0  0
   14.4993   -6.3217  -11.3320 C   0  0  2  0  0  0  0  0  0  0  0  0
   15.7554   -6.1808  -12.0958 N   0  0  0  0  0  0  0  0  0  0  0  0
   14.0561   -4.9590  -10.9858 C   0  0  0  0  0  0  0  0  0  0  0  0
   14.9396   -4.0627  -10.8196 O   0  0  0  0  0  0  0  0  0  0  0  0
   12.7239   -4.6017  -10.8336 O   0  0  0  0  0  0  0  0  0  0  0  0
  2  1  1  1
  2  3  1  0
  3  4  1  0
  4  8  1  0
  5  4  2  0
  6  2  1  0
  6  7  2  0
  9  6  1  0
 10  9  1  0
 11 10  1  0
 12 11  1  0
 12 13  1  0
 13  9  1  0
 14 22  1  0
 13 14  1  6
 15 14  2  0
 16 17  1  0
 17 19  1  0
 18 17  2  0
 20 19  1  0
 21 20  1  1
 21 22  1  0
 21 23  1  0
 23 25  1  0
 24 23  2  0
M  END
$$$$
