DPQ.pdb
     RDKit          3D

 25 25  0  0  1  0  0  0  0  0999 V2000
   22.0822  -13.3968  -17.5600 N   0  0  0  0  0  0  0  0  0  0  0  0
   23.0998  -12.3971  -17.7759 C   0  0  1  0  0  0  0  0  0  0  0  0
   22.9445  -11.8053  -19.1823 C   0  0  0  0  0  0  0  0  0  0  0  0
   22.9661  -12.8931  -20.1875 C   0  0  0  0  0  0  0  0  0  0  0  0
   23.7785  -13.8352  -20.0221 O   0  0  0  0  0  0  0  0  0  0  0  0
   23.1884  -11.3504  -16.7689 C   0  0  0  0  0  0  0  0  0  0  0  0
   22.1329  -10.8743  -16.3004 O   0  0  0  0  0  0  0  0  0  0  0  0
   22.1291  -12.9057  -21.2922 O   0  0  0  0  0  0  0  0  0  0  0  0
   24.4512  -10.8394  -16.2896 N   0  0  0  0  0  0  0  0  0  0  0  0
   25.6760  -11.5405  -16.4902 C   0  0  0  0  0  0  0  0  0  0  0  0
   26.7202  -10.7662  -15.7197 C   0  0  0  0  0  0  0  0  0  0  0  0
   26.1420   -9.3780  -15.5900 C   0  0  0  0  0  0  0  0  0  0  0  0
   24.6619   -9.6266  -15.5831 C   0  0  1  0  0  0  0  0  0  0  0  0
   23.9250   -8.4558  -16.1402 C   0  0  0  0  0  0  0  0  0  0  0  0
   23.6663   -8.2450  -17.3256 O   0  0  0  0  0  0  0  0  0  0  0  0
   18.7273   -7.8466  -16.3798 N   0  0  0  0  0  0  0  0  0  0  0  0
   18.9106   -6.4369  -16.4354 C   0  0  0  0  0  0  0  0  0  0  0  0
   17.9508   -5.6838  -16.7066 O   0  0  0  0  0  0  0  0  0  0  0  0
   20.2542   -5.8039  -16.1725 C   0  0  0  0  0  0  0  0  0  0  0  0
   21.2405   -6.8656  -15.8505 C   0  0  0  0  0  0  0  0  0  0  0  0
   22.6278   -6.3583  -15.5839 C   0  0  2  0  0  0  0  0  0  0  0  0
   23.4840   -7.4960  -15.1920 N   0  0  0  0  0  0  0  0  0  0  0  0
   22.6130   -5.4238  -14.4438 C   0  0  0  0  0  0  0  0  0  0  0  0
   22.3413   -4.2042  -14.6687 O   0  0  0  0  0  0  0  0  0  0  0  0
   22.8782   -5.8054  -13.1362 O   0  0  0  0  0  0  0  0  0  0  0  0
  2  1  1  1
  2  3  1  0
  3  4  1  0
  4  8  1  0
  5  4  2  0
  6  2  1  0
  6  7  2  0
  9  6  1  0
 10  9  1  0
 11 10  1  0
 12 11  1  0
 12 13  1  0
 13  9  1  0
 14 22  1  0
 13 14  1  6
 15 14  2  0
 16 17  1  0
 17 19  1  0
 18 17  2  0
 20 19  1  0
 21 20  1  1
 21 22  1  0
 21 23  1  0
 23 25  1  0
 24 23  2  0
M  END
$$$$
