EYE.pdb
     RDKit          3D

 31 31  0  0  1  0  0  0  0  0999 V2000
    9.4819  -18.4384   20.2669 N   0  0  0  0  0  0  0  0  0  0  0  0
   10.7013  -17.6119   20.2642 C   0  0  1  0  0  0  0  0  0  0  0  0
   10.9261  -17.2523   18.8168 C   0  0  0  0  0  0  0  0  0  0  0  0
    9.7693  -17.6938   17.9873 C   0  0  0  0  0  0  0  0  0  0  0  0
   10.0219  -17.4058   16.5434 C   0  0  0  0  0  0  0  0  0  0  0  0
   10.2160  -16.2299   16.1219 O   0  0  0  0  0  0  0  0  0  0  0  0
   10.5434  -16.4603   21.1712 C   0  0  0  0  0  0  0  0  0  0  0  0
   11.4507  -15.5974   21.2371 O   0  0  0  0  0  0  0  0  0  0  0  0
   10.0542  -18.4169   15.6032 O   0  0  0  0  0  0  0  0  0  0  0  0
    6.5774  -11.8351   27.6136 O   0  0  0  0  0  0  0  0  0  0  0  0
    6.8696  -12.6755   26.5466 C   0  0  0  0  0  0  0  0  0  0  0  0
    7.5548  -12.1953   25.4524 C   0  0  0  0  0  0  0  0  0  0  0  0
    7.8359  -13.0355   24.4073 C   0  0  0  0  0  0  0  0  0  0  0  0
    7.4464  -14.3549   24.4281 C   0  0  0  0  0  0  0  0  0  0  0  0
    7.7270  -15.2966   23.3232 C   0  0  0  0  0  0  0  0  0  0  0  0
    9.2058  -15.2896   22.9559 C   0  0  2  0  0  0  0  0  0  0  0  0
    9.3760  -16.3141   21.9654 N   0  0  0  0  0  0  0  0  0  0  0  0
   10.0344  -15.5937   24.1417 C   0  0  0  0  0  0  0  0  0  0  0  0
   10.3725  -14.6335   24.8653 O   0  0  0  0  0  0  0  0  0  0  0  0
    6.7562  -14.8225   25.5395 C   0  0  0  0  0  0  0  0  0  0  0  0
    6.4670  -13.9879   26.5975 C   0  0  0  0  0  0  0  0  0  0  0  0
   10.4412  -16.8990   24.4687 N   0  0  0  0  0  0  0  0  0  0  0  0
   11.0797  -17.3630   25.6407 C   0  0  1  0  0  0  0  0  0  0  0  0
   10.4028  -16.9050   26.9372 C   0  0  0  0  0  0  0  0  0  0  0  0
   11.1721  -17.3917   28.1351 C   0  0  0  0  0  0  0  0  0  0  0  0
   10.5622  -16.8434   29.3740 C   0  0  0  0  0  0  0  0  0  0  0  0
    9.6407  -17.4550   29.9427 O   0  0  0  0  0  0  0  0  0  0  0  0
   11.4658  -18.7572   25.7014 C   0  0  0  0  0  0  0  0  0  0  0  0
   11.0212  -19.7426   24.8147 O   0  0  0  0  0  0  0  0  0  0  0  0
   11.0272  -15.6492   29.8887 O   0  0  0  0  0  0  0  0  0  0  0  0
   12.2534  -19.1400   26.6014 O   0  0  0  0  0  0  0  0  0  0  0  0
  2  1  1  6
  2  3  1  0
  3  4  1  0
  4  5  1  0
  5  9  1  0
  6  5  2  0
  7  8  2  0
  7  2  1  0
 10 11  1  0
 11 12  2  0
 12 13  1  0
 14 13  2  0
 14 15  1  0
 16 15  1  1
 16 17  1  0
 17  7  1  0
 18 22  1  0
 18 16  1  0
 19 18  2  0
 20 14  1  0
 21 11  1  0
 21 20  2  0
 23 22  1  0
 23 28  1  0
 23 24  1  1
 25 24  1  0
 26 25  1  0
 27 26  2  0
 28 29  1  0
 30 26  1  0
 31 28  2  0
M  END
$$$$
