EYE.pdb
     RDKit          3D

 31 31  0  0  1  0  0  0  0  0999 V2000
    7.7823  -15.1359   18.8975 N   0  0  0  0  0  0  0  0  0  0  0  0
    7.5918  -15.9941   20.0796 C   0  0  1  0  0  0  0  0  0  0  0  0
    7.9685  -17.3804   19.6205 C   0  0  0  0  0  0  0  0  0  0  0  0
    7.4538  -17.6283   18.2439 C   0  0  0  0  0  0  0  0  0  0  0  0
    7.6679  -19.0548   17.8553 C   0  0  0  0  0  0  0  0  0  0  0  0
    8.8222  -19.5189   17.6311 O   0  0  0  0  0  0  0  0  0  0  0  0
    8.3782  -15.4834   21.2173 C   0  0  0  0  0  0  0  0  0  0  0  0
    9.5814  -15.1745   21.0471 O   0  0  0  0  0  0  0  0  0  0  0  0
    6.6087  -19.9312   17.7238 O   0  0  0  0  0  0  0  0  0  0  0  0
    9.9116  -13.9000   29.7766 O   0  0  0  0  0  0  0  0  0  0  0  0
    9.3121  -14.1227   28.5433 C   0  0  0  0  0  0  0  0  0  0  0  0
    9.0955  -15.4084   28.0990 C   0  0  0  0  0  0  0  0  0  0  0  0
    8.5033  -15.6130   26.8805 C   0  0  0  0  0  0  0  0  0  0  0  0
    8.1187  -14.5562   26.0879 C   0  0  0  0  0  0  0  0  0  0  0  0
    7.4778  -14.7299   24.7667 C   0  0  0  0  0  0  0  0  0  0  0  0
    8.5179  -14.9461   23.6743 C   0  0  2  0  0  0  0  0  0  0  0  0
    7.7890  -15.3324   22.5000 N   0  0  0  0  0  0  0  0  0  0  0  0
    9.4567  -16.0209   24.0598 C   0  0  0  0  0  0  0  0  0  0  0  0
    9.0170  -17.1899   24.0664 O   0  0  0  0  0  0  0  0  0  0  0  0
    8.3446  -13.2662   26.5516 C   0  0  0  0  0  0  0  0  0  0  0  0
    8.9394  -13.0465   27.7753 C   0  0  0  0  0  0  0  0  0  0  0  0
   10.7951  -15.7702   24.4096 N   0  0  0  0  0  0  0  0  0  0  0  0
   11.8624  -16.6852   24.5515 C   0  0  1  0  0  0  0  0  0  0  0  0
   13.1474  -16.2532   23.8366 C   0  0  0  0  0  0  0  0  0  0  0  0
   14.2281  -17.2829   24.0246 C   0  0  0  0  0  0  0  0  0  0  0  0
   15.5002  -16.7803   23.4446 C   0  0  0  0  0  0  0  0  0  0  0  0
   16.5910  -17.1265   23.9314 O   0  0  0  0  0  0  0  0  0  0  0  0
   12.1356  -17.2160   25.8706 C   0  0  0  0  0  0  0  0  0  0  0  0
   12.7063  -18.4681   26.1191 O   0  0  0  0  0  0  0  0  0  0  0  0
   15.4612  -15.9254   22.3606 O   0  0  0  0  0  0  0  0  0  0  0  0
   11.8518  -16.5288   26.8824 O   0  0  0  0  0  0  0  0  0  0  0  0
  2  1  1  6
  2  3  1  0
  3  4  1  0
  4  5  1  0
  5  9  1  0
  6  5  2  0
  7  8  2  0
  7  2  1  0
 10 11  1  0
 11 12  2  0
 12 13  1  0
 14 13  2  0
 14 15  1  0
 16 15  1  1
 16 17  1  0
 17  7  1  0
 18 22  1  0
 18 16  1  0
 19 18  2  0
 20 14  1  0
 21 11  1  0
 21 20  2  0
 23 22  1  0
 23 28  1  0
 23 24  1  1
 25 24  1  0
 26 25  1  0
 27 26  2  0
 28 29  1  0
 30 26  1  0
 31 28  2  0
M  END
$$$$
