EYE.pdb
     RDKit          3D

 31 31  0  0  1  0  0  0  0  0999 V2000
    9.3399  -16.6892   18.1895 N   0  0  0  0  0  0  0  0  0  0  0  0
    8.5446  -17.1691   19.3329 C   0  0  1  0  0  0  0  0  0  0  0  0
    8.8271  -18.6485   19.4115 C   0  0  0  0  0  0  0  0  0  0  0  0
    8.3844  -19.3279   18.1610 C   0  0  0  0  0  0  0  0  0  0  0  0
    9.4937  -20.1520   17.5936 C   0  0  0  0  0  0  0  0  0  0  0  0
    9.3084  -20.9442   16.6261 O   0  0  0  0  0  0  0  0  0  0  0  0
    8.8834  -16.4084   20.5496 C   0  0  0  0  0  0  0  0  0  0  0  0
   10.0872  -16.2332   20.8531 O   0  0  0  0  0  0  0  0  0  0  0  0
   10.7750  -20.0830   18.1045 O   0  0  0  0  0  0  0  0  0  0  0  0
    7.1934  -11.8294   27.9260 O   0  0  0  0  0  0  0  0  0  0  0  0
    7.1076  -12.4650   26.6937 C   0  0  0  0  0  0  0  0  0  0  0  0
    7.5991  -11.8533   25.5616 C   0  0  0  0  0  0  0  0  0  0  0  0
    7.5077  -12.4920   24.3528 C   0  0  0  0  0  0  0  0  0  0  0  0
    6.9327  -13.7373   24.2458 C   0  0  0  0  0  0  0  0  0  0  0  0
    6.8118  -14.4626   22.9630 C   0  0  0  0  0  0  0  0  0  0  0  0
    8.1192  -15.1536   22.5957 C   0  0  2  0  0  0  0  0  0  0  0  0
    7.8646  -15.8682   21.3775 N   0  0  0  0  0  0  0  0  0  0  0  0
    8.5207  -16.0989   23.6589 C   0  0  0  0  0  0  0  0  0  0  0  0
    7.7770  -17.0816   23.8619 O   0  0  0  0  0  0  0  0  0  0  0  0
    6.4423  -14.3397   25.3977 C   0  0  0  0  0  0  0  0  0  0  0  0
    6.5279  -13.7082   26.6198 C   0  0  0  0  0  0  0  0  0  0  0  0
    9.6856  -15.9271   24.4270 N   0  0  0  0  0  0  0  0  0  0  0  0
   10.2408  -16.7852   25.4027 C   0  0  1  0  0  0  0  0  0  0  0  0
   11.7715  -16.8522   25.3692 C   0  0  0  0  0  0  0  0  0  0  0  0
   12.2473  -17.4047   24.0531 C   0  0  0  0  0  0  0  0  0  0  0  0
   13.6120  -16.8938   23.7636 C   0  0  0  0  0  0  0  0  0  0  0  0
   14.6121  -17.5544   24.0955 O   0  0  0  0  0  0  0  0  0  0  0  0
    9.7379  -16.6943   26.7574 C   0  0  0  0  0  0  0  0  0  0  0  0
   10.0877  -17.5657   27.7934 O   0  0  0  0  0  0  0  0  0  0  0  0
   13.7608  -15.6794   23.1229 O   0  0  0  0  0  0  0  0  0  0  0  0
    8.9296  -15.7805   27.0547 O   0  0  0  0  0  0  0  0  0  0  0  0
  2  1  1  6
  2  3  1  0
  3  4  1  0
  4  5  1  0
  5  9  1  0
  6  5  2  0
  7  8  2  0
  7  2  1  0
 10 11  1  0
 11 12  2  0
 12 13  1  0
 14 13  2  0
 14 15  1  0
 16 15  1  1
 16 17  1  0
 17  7  1  0
 18 22  1  0
 18 16  1  0
 19 18  2  0
 20 14  1  0
 21 11  1  0
 21 20  2  0
 23 22  1  0
 23 28  1  0
 23 24  1  1
 25 24  1  0
 26 25  1  0
 27 26  2  0
 28 29  1  0
 30 26  1  0
 31 28  2  0
M  END
$$$$
