EYE.pdb
     RDKit          3D

 31 31  0  0  1  0  0  0  0  0999 V2000
    8.1563  -18.3508   21.3741 N   0  0  0  0  0  0  0  0  0  0  0  0
    8.9553  -17.2352   20.8384 C   0  0  1  0  0  0  0  0  0  0  0  0
    8.1564  -16.7067   19.6734 C   0  0  0  0  0  0  0  0  0  0  0  0
    8.9382  -15.6756   18.9338 C   0  0  0  0  0  0  0  0  0  0  0  0
    8.1534  -15.1585   17.7726 C   0  0  0  0  0  0  0  0  0  0  0  0
    7.5821  -14.0313   17.8028 O   0  0  0  0  0  0  0  0  0  0  0  0
    9.2337  -16.2478   21.8972 C   0  0  0  0  0  0  0  0  0  0  0  0
    9.9639  -15.2604   21.6441 O   0  0  0  0  0  0  0  0  0  0  0  0
    8.0181  -15.8937   16.6114 O   0  0  0  0  0  0  0  0  0  0  0  0
    6.2154  -10.3359   26.6494 O   0  0  0  0  0  0  0  0  0  0  0  0
    6.5723  -11.6291   26.2883 C   0  0  0  0  0  0  0  0  0  0  0  0
    5.6015  -12.5565   25.9800 C   0  0  0  0  0  0  0  0  0  0  0  0
    5.9681  -13.8282   25.6256 C   0  0  0  0  0  0  0  0  0  0  0  0
    7.2916  -14.2000   25.5711 C   0  0  0  0  0  0  0  0  0  0  0  0
    7.7328  -15.5603   25.1951 C   0  0  0  0  0  0  0  0  0  0  0  0
    8.9578  -15.5116   24.2903 C   0  0  2  0  0  0  0  0  0  0  0  0
    8.6815  -16.3983   23.1962 N   0  0  0  0  0  0  0  0  0  0  0  0
   10.1581  -15.9719   25.0200 C   0  0  0  0  0  0  0  0  0  0  0  0
   10.5712  -15.2526   25.9538 O   0  0  0  0  0  0  0  0  0  0  0  0
    8.2575  -13.2521   25.8851 C   0  0  0  0  0  0  0  0  0  0  0  0
    7.9024  -11.9694   26.2431 C   0  0  0  0  0  0  0  0  0  0  0  0
   10.8293  -17.1651   24.7007 N   0  0  0  0  0  0  0  0  0  0  0  0
   11.8402  -17.8366   25.4243 C   0  0  1  0  0  0  0  0  0  0  0  0
   11.3137  -18.9527   26.3331 C   0  0  0  0  0  0  0  0  0  0  0  0
   11.4527  -18.5652   27.7802 C   0  0  0  0  0  0  0  0  0  0  0  0
   10.9465  -19.6656   28.6405 C   0  0  0  0  0  0  0  0  0  0  0  0
   10.4233  -20.6712   28.1288 O   0  0  0  0  0  0  0  0  0  0  0  0
   13.0336  -18.2435   24.7124 C   0  0  0  0  0  0  0  0  0  0  0  0
   14.1460  -18.8456   25.3083 O   0  0  0  0  0  0  0  0  0  0  0  0
   11.0618  -19.5626   30.0129 O   0  0  0  0  0  0  0  0  0  0  0  0
   13.1059  -18.0561   23.4729 O   0  0  0  0  0  0  0  0  0  0  0  0
  2  1  1  1
  2  3  1  0
  3  4  1  0
  4  5  1  0
  5  9  1  0
  6  5  2  0
  7  8  2  0
  7  2  1  0
 10 11  1  0
 11 12  2  0
 12 13  1  0
 14 13  2  0
 14 15  1  0
 16 15  1  1
 16 17  1  0
 17  7  1  0
 18 22  1  0
 18 16  1  0
 19 18  2  0
 20 14  1  0
 21 11  1  0
 21 20  2  0
 23 22  1  0
 23 28  1  0
 23 24  1  6
 25 24  1  0
 26 25  1  0
 27 26  2  0
 28 29  1  0
 30 26  1  0
 31 28  2  0
M  END
$$$$
