EYE.pdb
     RDKit          3D

 31 31  0  0  1  0  0  0  0  0999 V2000
    8.1907  -16.7019   18.4552 N   0  0  0  0  0  0  0  0  0  0  0  0
    9.1125  -17.2767   19.4503 C   0  0  1  0  0  0  0  0  0  0  0  0
   10.3778  -17.5730   18.6850 C   0  0  0  0  0  0  0  0  0  0  0  0
   10.6085  -19.0438   18.6143 C   0  0  0  0  0  0  0  0  0  0  0  0
   10.7605  -19.4810   17.1940 C   0  0  0  0  0  0  0  0  0  0  0  0
   11.8913  -19.5421   16.6324 O   0  0  0  0  0  0  0  0  0  0  0  0
    9.2788  -16.3552   20.5890 C   0  0  0  0  0  0  0  0  0  0  0  0
   10.3359  -15.6893   20.6951 O   0  0  0  0  0  0  0  0  0  0  0  0
    9.6666  -19.8388   16.4306 O   0  0  0  0  0  0  0  0  0  0  0  0
    6.9543  -11.7998   27.7563 O   0  0  0  0  0  0  0  0  0  0  0  0
    6.9496  -12.5864   26.6111 C   0  0  0  0  0  0  0  0  0  0  0  0
    6.5380  -13.8995   26.6729 C   0  0  0  0  0  0  0  0  0  0  0  0
    6.5387  -14.6635   25.5356 C   0  0  0  0  0  0  0  0  0  0  0  0
    6.9437  -14.1442   24.3276 C   0  0  0  0  0  0  0  0  0  0  0  0
    6.9618  -14.9315   23.0762 C   0  0  0  0  0  0  0  0  0  0  0  0
    8.3754  -15.3828   22.7299 C   0  0  2  0  0  0  0  0  0  0  0  0
    8.2560  -16.2089   21.5624 N   0  0  0  0  0  0  0  0  0  0  0  0
    8.9554  -16.1648   23.8422 C   0  0  0  0  0  0  0  0  0  0  0  0
    8.3628  -17.2126   24.1754 O   0  0  0  0  0  0  0  0  0  0  0  0
    7.3556  -12.8180   24.2835 C   0  0  0  0  0  0  0  0  0  0  0  0
    7.3598  -12.0385   25.4201 C   0  0  0  0  0  0  0  0  0  0  0  0
   10.1245  -15.7724   24.5171 N   0  0  0  0  0  0  0  0  0  0  0  0
   10.8151  -16.4351   25.5565 C   0  0  1  0  0  0  0  0  0  0  0  0
   12.3405  -16.3293   25.4522 C   0  0  0  0  0  0  0  0  0  0  0  0
   12.7968  -16.6383   24.0522 C   0  0  0  0  0  0  0  0  0  0  0  0
   14.2734  -16.4974   23.9680 C   0  0  0  0  0  0  0  0  0  0  0  0
   14.9081  -15.9811   24.9046 O   0  0  0  0  0  0  0  0  0  0  0  0
   10.3559  -16.2376   26.9154 C   0  0  0  0  0  0  0  0  0  0  0  0
   10.8014  -16.9732   28.0179 O   0  0  0  0  0  0  0  0  0  0  0  0
   14.9350  -16.9444   22.8412 O   0  0  0  0  0  0  0  0  0  0  0  0
    9.4982  -15.3520   27.1536 O   0  0  0  0  0  0  0  0  0  0  0  0
  2  1  1  6
  2  3  1  0
  3  4  1  0
  4  5  1  0
  5  9  1  0
  6  5  2  0
  7  8  2  0
  7  2  1  0
 10 11  1  0
 11 12  2  0
 12 13  1  0
 14 13  2  0
 14 15  1  0
 16 15  1  1
 16 17  1  0
 17  7  1  0
 18 22  1  0
 18 16  1  0
 19 18  2  0
 20 14  1  0
 21 11  1  0
 21 20  2  0
 23 22  1  0
 23 28  1  0
 23 24  1  1
 25 24  1  0
 26 25  1  0
 27 26  2  0
 28 29  1  0
 30 26  1  0
 31 28  2  0
M  END
$$$$
