EYE.pdb
     RDKit          3D

 31 31  0  0  1  0  0  0  0  0999 V2000
    9.2580  -18.4942   20.8425 N   0  0  0  0  0  0  0  0  0  0  0  0
   10.4157  -17.5868   20.7614 C   0  0  1  0  0  0  0  0  0  0  0  0
   10.5183  -17.2141   19.3036 C   0  0  0  0  0  0  0  0  0  0  0  0
    9.7274  -18.1625   18.4691 C   0  0  0  0  0  0  0  0  0  0  0  0
    9.7104  -17.7152   17.0439 C   0  0  0  0  0  0  0  0  0  0  0  0
    8.9043  -16.8331   16.6314 O   0  0  0  0  0  0  0  0  0  0  0  0
   10.2412  -16.4479   21.6811 C   0  0  0  0  0  0  0  0  0  0  0  0
   11.1397  -15.5772   21.7631 O   0  0  0  0  0  0  0  0  0  0  0  0
   10.5789  -18.2488   16.1121 O   0  0  0  0  0  0  0  0  0  0  0  0
    5.9644  -11.1187   27.2498 O   0  0  0  0  0  0  0  0  0  0  0  0
    6.3188  -12.0461   26.2780 C   0  0  0  0  0  0  0  0  0  0  0  0
    6.2144  -13.3953   26.5353 C   0  0  0  0  0  0  0  0  0  0  0  0
    6.5676  -14.2986   25.5676 C   0  0  0  0  0  0  0  0  0  0  0  0
    7.0264  -13.8842   24.3385 C   0  0  0  0  0  0  0  0  0  0  0  0
    7.4195  -14.8228   23.2656 C   0  0  0  0  0  0  0  0  0  0  0  0
    8.8619  -15.2828   23.4377 C   0  0  2  0  0  0  0  0  0  0  0  0
    9.0676  -16.3223   22.4697 N   0  0  0  0  0  0  0  0  0  0  0  0
    9.0759  -15.8149   24.8002 C   0  0  0  0  0  0  0  0  0  0  0  0
    8.9631  -15.0138   25.7517 O   0  0  0  0  0  0  0  0  0  0  0  0
    7.1254  -12.5198   24.0959 C   0  0  0  0  0  0  0  0  0  0  0  0
    6.7734  -11.6006   25.0606 C   0  0  0  0  0  0  0  0  0  0  0  0
    9.3939  -17.1617   25.0477 N   0  0  0  0  0  0  0  0  0  0  0  0
    9.7751  -17.7756   26.2619 C   0  0  1  0  0  0  0  0  0  0  0  0
    9.0797  -19.1162   26.5228 C   0  0  0  0  0  0  0  0  0  0  0  0
    7.5886  -18.9741   26.3809 C   0  0  0  0  0  0  0  0  0  0  0  0
    6.9500  -20.3118   26.4813 C   0  0  0  0  0  0  0  0  0  0  0  0
    6.8176  -20.8616   27.5889 O   0  0  0  0  0  0  0  0  0  0  0  0
   11.1853  -17.8316   26.5852 C   0  0  0  0  0  0  0  0  0  0  0  0
   12.2100  -17.9697   25.6439 O   0  0  0  0  0  0  0  0  0  0  0  0
    6.5046  -20.9394   25.3345 O   0  0  0  0  0  0  0  0  0  0  0  0
   11.5461  -17.7534   27.7854 O   0  0  0  0  0  0  0  0  0  0  0  0
  2  1  1  6
  2  3  1  0
  3  4  1  0
  4  5  1  0
  5  9  1  0
  6  5  2  0
  7  8  2  0
  7  2  1  0
 10 11  1  0
 11 12  2  0
 12 13  1  0
 14 13  2  0
 14 15  1  0
 16 15  1  1
 16 17  1  0
 17  7  1  0
 18 22  1  0
 18 16  1  0
 19 18  2  0
 20 14  1  0
 21 11  1  0
 21 20  2  0
 23 22  1  0
 23 28  1  0
 23 24  1  6
 25 24  1  0
 26 25  1  0
 27 26  2  0
 28 29  1  0
 30 26  1  0
 31 28  2  0
M  END
$$$$
