EYE.pdb
     RDKit          3D

 31 31  0  0  1  0  0  0  0  0999 V2000
    8.0022  -12.7407   19.3327 N   0  0  0  0  0  0  0  0  0  0  0  0
    7.6475  -13.9508   20.0944 C   0  0  1  0  0  0  0  0  0  0  0  0
    7.8004  -15.0875   19.1151 C   0  0  0  0  0  0  0  0  0  0  0  0
    7.5615  -14.6089   17.7239 C   0  0  0  0  0  0  0  0  0  0  0  0
    7.6095  -15.7516   16.7630 C   0  0  0  0  0  0  0  0  0  0  0  0
    8.6468  -16.0137   16.0897 O   0  0  0  0  0  0  0  0  0  0  0  0
    8.4827  -14.0593   21.3045 C   0  0  0  0  0  0  0  0  0  0  0  0
    9.7310  -14.0952   21.1920 O   0  0  0  0  0  0  0  0  0  0  0  0
    6.5173  -16.5741   16.5684 O   0  0  0  0  0  0  0  0  0  0  0  0
   10.1232  -15.0521   29.9282 O   0  0  0  0  0  0  0  0  0  0  0  0
    9.5214  -14.8111   28.6995 C   0  0  0  0  0  0  0  0  0  0  0  0
    8.8518  -15.8213   28.0446 C   0  0  0  0  0  0  0  0  0  0  0  0
    8.2631  -15.5693   26.8334 C   0  0  0  0  0  0  0  0  0  0  0  0
    8.3269  -14.3226   26.2549 C   0  0  0  0  0  0  0  0  0  0  0  0
    7.7077  -14.0059   24.9500 C   0  0  0  0  0  0  0  0  0  0  0  0
    8.6230  -14.3981   23.7966 C   0  0  2  0  0  0  0  0  0  0  0  0
    7.8918  -14.1180   22.5939 N   0  0  0  0  0  0  0  0  0  0  0  0
    8.9499  -15.8382   23.8628 C   0  0  0  0  0  0  0  0  0  0  0  0
    8.2145  -16.6219   23.2265 O   0  0  0  0  0  0  0  0  0  0  0  0
    9.0061  -13.3154   26.9292 C   0  0  0  0  0  0  0  0  0  0  0  0
    9.6028  -13.5556   28.1481 C   0  0  0  0  0  0  0  0  0  0  0  0
   10.0369  -16.3365   24.6020 N   0  0  0  0  0  0  0  0  0  0  0  0
   10.8877  -17.4252   24.3063 C   0  0  1  0  0  0  0  0  0  0  0  0
   11.3481  -17.4719   22.8452 C   0  0  0  0  0  0  0  0  0  0  0  0
   12.1904  -18.6934   22.5958 C   0  0  0  0  0  0  0  0  0  0  0  0
   12.6245  -18.7163   21.1751 C   0  0  0  0  0  0  0  0  0  0  0  0
   13.5708  -19.4412   20.8205 O   0  0  0  0  0  0  0  0  0  0  0  0
   11.9742  -17.7102   25.2199 C   0  0  0  0  0  0  0  0  0  0  0  0
   12.3389  -16.8965   26.2970 O   0  0  0  0  0  0  0  0  0  0  0  0
   11.9685  -17.9261   20.2517 O   0  0  0  0  0  0  0  0  0  0  0  0
   12.6557  -18.7528   25.0609 O   0  0  0  0  0  0  0  0  0  0  0  0
  2  1  1  6
  2  3  1  0
  3  4  1  0
  4  5  1  0
  5  9  1  0
  6  5  2  0
  7  8  2  0
  7  2  1  0
 10 11  1  0
 11 12  2  0
 12 13  1  0
 14 13  2  0
 14 15  1  0
 16 15  1  1
 16 17  1  0
 17  7  1  0
 18 22  1  0
 18 16  1  0
 19 18  2  0
 20 14  1  0
 21 11  1  0
 21 20  2  0
 23 22  1  0
 23 28  1  0
 23 24  1  6
 25 24  1  0
 26 25  1  0
 27 26  2  0
 28 29  1  0
 30 26  1  0
 31 28  2  0
M  END
$$$$
