EYE.pdb
     RDKit          3D

 31 31  0  0  1  0  0  0  0  0999 V2000
   11.2088  -17.2001   19.2236 N   0  0  0  0  0  0  0  0  0  0  0  0
    9.8627  -17.1554   19.8204 C   0  0  1  0  0  0  0  0  0  0  0  0
    9.4176  -18.5949   19.8882 C   0  0  0  0  0  0  0  0  0  0  0  0
   10.5992  -19.4997   19.9683 C   0  0  0  0  0  0  0  0  0  0  0  0
   10.1613  -20.9265   20.0306 C   0  0  0  0  0  0  0  0  0  0  0  0
    9.2503  -21.3778   19.2793 O   0  0  0  0  0  0  0  0  0  0  0  0
    9.8990  -16.4566   21.1181 C   0  0  0  0  0  0  0  0  0  0  0  0
   10.9892  -16.3406   21.7265 O   0  0  0  0  0  0  0  0  0  0  0  0
   10.7358  -21.8173   20.9159 O   0  0  0  0  0  0  0  0  0  0  0  0
    6.7381  -11.6503   27.8021 O   0  0  0  0  0  0  0  0  0  0  0  0
    6.8733  -12.3646   26.6182 C   0  0  0  0  0  0  0  0  0  0  0  0
    6.2078  -13.5587   26.4483 C   0  0  0  0  0  0  0  0  0  0  0  0
    6.3505  -14.2525   25.2755 C   0  0  0  0  0  0  0  0  0  0  0  0
    7.1482  -13.7793   24.2593 C   0  0  0  0  0  0  0  0  0  0  0  0
    7.3322  -14.4945   22.9783 C   0  0  0  0  0  0  0  0  0  0  0  0
    8.6819  -15.2000   22.9304 C   0  0  2  0  0  0  0  0  0  0  0  0
    8.7174  -15.9097   21.6836 N   0  0  0  0  0  0  0  0  0  0  0  0
    8.8080  -16.1516   24.0547 C   0  0  0  0  0  0  0  0  0  0  0  0
    8.0253  -17.1247   24.0714 O   0  0  0  0  0  0  0  0  0  0  0  0
    7.8120  -12.5734   24.4476 C   0  0  0  0  0  0  0  0  0  0  0  0
    7.6772  -11.8655   25.6224 C   0  0  0  0  0  0  0  0  0  0  0  0
    9.7594  -15.9957   25.0778 N   0  0  0  0  0  0  0  0  0  0  0  0
    9.9597  -16.7854   26.2323 C   0  0  1  0  0  0  0  0  0  0  0  0
   11.2893  -17.5476   26.2379 C   0  0  0  0  0  0  0  0  0  0  0  0
   11.4606  -18.3202   24.9583 C   0  0  0  0  0  0  0  0  0  0  0  0
   12.7838  -18.9957   24.9587 C   0  0  0  0  0  0  0  0  0  0  0  0
   12.8856  -20.1751   24.5774 O   0  0  0  0  0  0  0  0  0  0  0  0
    9.6764  -16.1925   27.5225 C   0  0  0  0  0  0  0  0  0  0  0  0
    9.7035  -16.8851   28.7368 O   0  0  0  0  0  0  0  0  0  0  0  0
   13.8997  -18.3031   25.3858 O   0  0  0  0  0  0  0  0  0  0  0  0
    9.3826  -14.9735   27.5894 O   0  0  0  0  0  0  0  0  0  0  0  0
  2  1  1  1
  2  3  1  0
  3  4  1  0
  4  5  1  0
  5  9  1  0
  6  5  2  0
  7  8  2  0
  7  2  1  0
 10 11  1  0
 11 12  2  0
 12 13  1  0
 14 13  2  0
 14 15  1  0
 16 15  1  1
 16 17  1  0
 17  7  1  0
 18 22  1  0
 18 16  1  0
 19 18  2  0
 20 14  1  0
 21 11  1  0
 21 20  2  0
 23 22  1  0
 23 28  1  0
 23 24  1  1
 25 24  1  0
 26 25  1  0
 27 26  2  0
 28 29  1  0
 30 26  1  0
 31 28  2  0
M  END
$$$$
