EYE.pdb
     RDKit          3D

 31 31  0  0  1  0  0  0  0  0999 V2000
    9.5810  -18.2170   20.2501 N   0  0  0  0  0  0  0  0  0  0  0  0
   10.4656  -17.0650   20.0041 C   0  0  1  0  0  0  0  0  0  0  0  0
   10.1721  -16.6431   18.5862 C   0  0  0  0  0  0  0  0  0  0  0  0
    8.9743  -17.3632   18.0684 C   0  0  0  0  0  0  0  0  0  0  0  0
    8.6140  -16.8658   16.7067 C   0  0  0  0  0  0  0  0  0  0  0  0
    7.9565  -15.7993   16.5386 O   0  0  0  0  0  0  0  0  0  0  0  0
   10.2427  -16.0200   21.0199 C   0  0  0  0  0  0  0  0  0  0  0  0
   10.9114  -14.9605   20.9728 O   0  0  0  0  0  0  0  0  0  0  0  0
    8.9857  -17.5534   15.5681 O   0  0  0  0  0  0  0  0  0  0  0  0
    6.3092  -11.5889   27.4694 O   0  0  0  0  0  0  0  0  0  0  0  0
    6.6114  -12.4618   26.4316 C   0  0  0  0  0  0  0  0  0  0  0  0
    6.3183  -13.8029   26.5452 C   0  0  0  0  0  0  0  0  0  0  0  0
    6.6220  -14.6522   25.5138 C   0  0  0  0  0  0  0  0  0  0  0  0
    7.2163  -14.1913   24.3618 C   0  0  0  0  0  0  0  0  0  0  0  0
    7.5625  -15.0710   23.2249 C   0  0  0  0  0  0  0  0  0  0  0  0
    9.0701  -15.2643   23.1173 C   0  0  2  0  0  0  0  0  0  0  0  0
    9.2777  -16.1963   22.0460 N   0  0  0  0  0  0  0  0  0  0  0  0
    9.6116  -15.8171   24.3769 C   0  0  0  0  0  0  0  0  0  0  0  0
    8.9440  -15.6331   25.4164 O   0  0  0  0  0  0  0  0  0  0  0  0
    7.5049  -12.8357   24.2641 C   0  0  0  0  0  0  0  0  0  0  0  0
    7.2047  -11.9707   25.2942 C   0  0  0  0  0  0  0  0  0  0  0  0
   10.8245  -16.5254   24.4353 N   0  0  0  0  0  0  0  0  0  0  0  0
   11.4092  -17.1966   25.5327 C   0  0  1  0  0  0  0  0  0  0  0  0
   10.4065  -17.9866   26.3809 C   0  0  0  0  0  0  0  0  0  0  0  0
   11.0926  -18.6093   27.5662 C   0  0  0  0  0  0  0  0  0  0  0  0
   10.2328  -18.4675   28.7695 C   0  0  0  0  0  0  0  0  0  0  0  0
    9.0614  -18.0647   28.6589 O   0  0  0  0  0  0  0  0  0  0  0  0
   12.6262  -17.9469   25.3043 C   0  0  0  0  0  0  0  0  0  0  0  0
   13.5174  -18.3376   26.3084 O   0  0  0  0  0  0  0  0  0  0  0  0
   10.7452  -18.7866   30.0117 O   0  0  0  0  0  0  0  0  0  0  0  0
   12.9311  -18.2854   24.1341 O   0  0  0  0  0  0  0  0  0  0  0  0
  2  1  1  1
  2  3  1  0
  3  4  1  0
  4  5  1  0
  5  9  1  0
  6  5  2  0
  7  8  2  0
  7  2  1  0
 10 11  1  0
 11 12  2  0
 12 13  1  0
 14 13  2  0
 14 15  1  0
 16 15  1  1
 16 17  1  0
 17  7  1  0
 18 22  1  0
 18 16  1  0
 19 18  2  0
 20 14  1  0
 21 11  1  0
 21 20  2  0
 23 22  1  0
 23 28  1  0
 23 24  1  6
 25 24  1  0
 26 25  1  0
 27 26  2  0
 28 29  1  0
 30 26  1  0
 31 28  2  0
M  END
$$$$
