EYE.pdb
     RDKit          3D

 31 31  0  0  1  0  0  0  0  0999 V2000
    7.8889  -12.6364   19.2278 N   0  0  0  0  0  0  0  0  0  0  0  0
    7.7191  -13.8835   19.9934 C   0  0  1  0  0  0  0  0  0  0  0  0
    8.1764  -14.9785   19.0625 C   0  0  0  0  0  0  0  0  0  0  0  0
    7.2754  -15.0619   17.8781 C   0  0  0  0  0  0  0  0  0  0  0  0
    7.5887  -16.2774   17.0682 C   0  0  0  0  0  0  0  0  0  0  0  0
    7.0024  -16.5195   15.9747 O   0  0  0  0  0  0  0  0  0  0  0  0
    8.4547  -13.8076   21.2688 C   0  0  0  0  0  0  0  0  0  0  0  0
    9.6878  -13.5808   21.2578 O   0  0  0  0  0  0  0  0  0  0  0  0
    8.5366  -17.1927   17.4818 O   0  0  0  0  0  0  0  0  0  0  0  0
    9.7376  -14.6660   29.9461 O   0  0  0  0  0  0  0  0  0  0  0  0
    9.1685  -14.5095   28.6884 C   0  0  0  0  0  0  0  0  0  0  0  0
    8.6200  -15.5912   28.0354 C   0  0  0  0  0  0  0  0  0  0  0  0
    8.0623  -15.4222   26.7954 C   0  0  0  0  0  0  0  0  0  0  0  0
    8.0385  -14.1889   26.1861 C   0  0  0  0  0  0  0  0  0  0  0  0
    7.4487  -13.9604   24.8496 C   0  0  0  0  0  0  0  0  0  0  0  0
    8.4514  -14.2703   23.7449 C   0  0  2  0  0  0  0  0  0  0  0  0
    7.7838  -13.9825   22.5075 N   0  0  0  0  0  0  0  0  0  0  0  0
    8.8418  -15.6955   23.7861 C   0  0  0  0  0  0  0  0  0  0  0  0
    8.1492  -16.4981   23.1257 O   0  0  0  0  0  0  0  0  0  0  0  0
    8.5962  -13.1088   26.8589 C   0  0  0  0  0  0  0  0  0  0  0  0
    9.1604  -13.2651   28.1066 C   0  0  0  0  0  0  0  0  0  0  0  0
    9.9420  -16.1598   24.5280 N   0  0  0  0  0  0  0  0  0  0  0  0
   10.5148  -17.4513   24.5533 C   0  0  1  0  0  0  0  0  0  0  0  0
   10.7223  -18.0639   23.1639 C   0  0  0  0  0  0  0  0  0  0  0  0
   11.7031  -17.2468   22.3676 C   0  0  0  0  0  0  0  0  0  0  0  0
   12.0071  -17.9415   21.0899 C   0  0  0  0  0  0  0  0  0  0  0  0
   11.6589  -19.1234   20.9208 O   0  0  0  0  0  0  0  0  0  0  0  0
   11.6581  -17.6741   25.4134 C   0  0  0  0  0  0  0  0  0  0  0  0
   12.3342  -16.6682   26.1106 O   0  0  0  0  0  0  0  0  0  0  0  0
   12.6796  -17.2639   20.0919 O   0  0  0  0  0  0  0  0  0  0  0  0
   12.0974  -18.8407   25.5646 O   0  0  0  0  0  0  0  0  0  0  0  0
  2  1  1  6
  2  3  1  0
  3  4  1  0
  4  5  1  0
  5  9  1  0
  6  5  2  0
  7  8  2  0
  7  2  1  0
 10 11  1  0
 11 12  2  0
 12 13  1  0
 14 13  2  0
 14 15  1  0
 16 15  1  1
 16 17  1  0
 17  7  1  0
 18 22  1  0
 18 16  1  0
 19 18  2  0
 20 14  1  0
 21 11  1  0
 21 20  2  0
 23 22  1  0
 23 28  1  0
 23 24  1  6
 25 24  1  0
 26 25  1  0
 27 26  2  0
 28 29  1  0
 30 26  1  0
 31 28  2  0
M  END
$$$$
