EYE.pdb
     RDKit          3D

 31 31  0  0  1  0  0  0  0  0999 V2000
    7.5891  -18.2778   19.8674 N   0  0  0  0  0  0  0  0  0  0  0  0
    8.4850  -17.1946   19.4266 C   0  0  1  0  0  0  0  0  0  0  0  0
    7.9308  -16.7461   18.0975 C   0  0  0  0  0  0  0  0  0  0  0  0
    8.9985  -16.7644   17.0578 C   0  0  0  0  0  0  0  0  0  0  0  0
    8.4529  -16.3177   15.7409 C   0  0  0  0  0  0  0  0  0  0  0  0
    9.1777  -15.7439   14.8787 O   0  0  0  0  0  0  0  0  0  0  0  0
    8.5601  -16.1400   20.4540 C   0  0  0  0  0  0  0  0  0  0  0  0
    8.3735  -14.9442   20.1262 O   0  0  0  0  0  0  0  0  0  0  0  0
    7.1270  -16.5137   15.4079 O   0  0  0  0  0  0  0  0  0  0  0  0
    6.7142  -11.6942   27.4711 O   0  0  0  0  0  0  0  0  0  0  0  0
    6.8792  -12.4988   26.3506 C   0  0  0  0  0  0  0  0  0  0  0  0
    6.2627  -13.7287   26.2825 C   0  0  0  0  0  0  0  0  0  0  0  0
    6.4345  -14.5117   25.1714 C   0  0  0  0  0  0  0  0  0  0  0  0
    7.2134  -14.0931   24.1174 C   0  0  0  0  0  0  0  0  0  0  0  0
    7.4275  -14.9047   22.9000 C   0  0  0  0  0  0  0  0  0  0  0  0
    8.8289  -15.5025   22.8761 C   0  0  2  0  0  0  0  0  0  0  0  0
    8.8355  -16.4619   21.8088 N   0  0  0  0  0  0  0  0  0  0  0  0
    9.1261  -16.1747   24.1587 C   0  0  0  0  0  0  0  0  0  0  0  0
    8.2547  -16.9425   24.6179 O   0  0  0  0  0  0  0  0  0  0  0  0
    7.8278  -12.8500   24.2028 C   0  0  0  0  0  0  0  0  0  0  0  0
    7.6633  -12.0525   25.3148 C   0  0  0  0  0  0  0  0  0  0  0  0
   10.3306  -15.9791   24.8567 N   0  0  0  0  0  0  0  0  0  0  0  0
   11.0345  -16.8826   25.6842 C   0  0  1  0  0  0  0  0  0  0  0  0
   12.5533  -16.8535   25.4812 C   0  0  0  0  0  0  0  0  0  0  0  0
   13.2247  -17.8632   26.3719 C   0  0  0  0  0  0  0  0  0  0  0  0
   14.6924  -17.8294   26.1439 C   0  0  0  0  0  0  0  0  0  0  0  0
   15.4782  -17.9598   27.0989 O   0  0  0  0  0  0  0  0  0  0  0  0
   10.6824  -16.9391   27.0875 C   0  0  0  0  0  0  0  0  0  0  0  0
   10.9406  -18.0272   27.9268 O   0  0  0  0  0  0  0  0  0  0  0  0
   15.1766  -17.6521   24.8627 O   0  0  0  0  0  0  0  0  0  0  0  0
   10.1040  -15.9588   27.6178 O   0  0  0  0  0  0  0  0  0  0  0  0
  2  1  1  1
  2  3  1  0
  3  4  1  0
  4  5  1  0
  5  9  1  0
  6  5  2  0
  7  8  2  0
  7  2  1  0
 10 11  1  0
 11 12  2  0
 12 13  1  0
 14 13  2  0
 14 15  1  0
 16 15  1  1
 16 17  1  0
 17  7  1  0
 18 22  1  0
 18 16  1  0
 19 18  2  0
 20 14  1  0
 21 11  1  0
 21 20  2  0
 23 22  1  0
 23 28  1  0
 23 24  1  1
 25 24  1  0
 26 25  1  0
 27 26  2  0
 28 29  1  0
 30 26  1  0
 31 28  2  0
M  END
$$$$
