EYE.pdb
     RDKit          3D

 31 31  0  0  1  0  0  0  0  0999 V2000
    7.9361  -18.2511   18.9549 N   0  0  0  0  0  0  0  0  0  0  0  0
    9.1258  -17.4113   18.7325 C   0  0  1  0  0  0  0  0  0  0  0  0
    8.9142  -16.7856   17.3766 C   0  0  0  0  0  0  0  0  0  0  0  0
    8.8077  -17.8410   16.3296 C   0  0  0  0  0  0  0  0  0  0  0  0
    8.5230  -17.2281   14.9973 C   0  0  0  0  0  0  0  0  0  0  0  0
    7.3418  -17.0486   14.5845 O   0  0  0  0  0  0  0  0  0  0  0  0
    9.2908  -16.4508   19.8388 C   0  0  0  0  0  0  0  0  0  0  0  0
   10.2973  -15.7034   19.8626 O   0  0  0  0  0  0  0  0  0  0  0  0
    9.5433  -16.8297   14.1561 O   0  0  0  0  0  0  0  0  0  0  0  0
    7.2174  -12.3209   27.3500 O   0  0  0  0  0  0  0  0  0  0  0  0
    7.1761  -13.0727   26.1824 C   0  0  0  0  0  0  0  0  0  0  0  0
    6.9534  -14.4309   26.2391 C   0  0  0  0  0  0  0  0  0  0  0  0
    6.9154  -15.1597   25.0795 C   0  0  0  0  0  0  0  0  0  0  0  0
    7.0957  -14.5606   23.8542 C   0  0  0  0  0  0  0  0  0  0  0  0
    7.0639  -15.3074   22.5784 C   0  0  0  0  0  0  0  0  0  0  0  0
    8.4699  -15.5280   22.0342 C   0  0  2  0  0  0  0  0  0  0  0  0
    8.3229  -16.3584   20.8730 N   0  0  0  0  0  0  0  0  0  0  0  0
    9.3116  -16.2122   23.0386 C   0  0  0  0  0  0  0  0  0  0  0  0
    8.8434  -17.2390   23.5739 O   0  0  0  0  0  0  0  0  0  0  0  0
    7.3192  -13.1899   23.8155 C   0  0  0  0  0  0  0  0  0  0  0  0
    7.3599  -12.4451   24.9744 C   0  0  0  0  0  0  0  0  0  0  0  0
   10.5902  -15.7515   23.3979 N   0  0  0  0  0  0  0  0  0  0  0  0
   11.5295  -16.3344   24.2780 C   0  0  1  0  0  0  0  0  0  0  0  0
   12.8649  -15.5853   24.3428 C   0  0  0  0  0  0  0  0  0  0  0  0
   13.8575  -16.3467   25.1789 C   0  0  0  0  0  0  0  0  0  0  0  0
   15.2318  -15.8713   24.8748 C   0  0  0  0  0  0  0  0  0  0  0  0
   15.4063  -14.9045   24.1123 O   0  0  0  0  0  0  0  0  0  0  0  0
   11.0754  -16.7351   25.5932 C   0  0  0  0  0  0  0  0  0  0  0  0
   10.5912  -15.8562   26.5669 O   0  0  0  0  0  0  0  0  0  0  0  0
   16.3138  -16.5119   25.4460 O   0  0  0  0  0  0  0  0  0  0  0  0
   11.1059  -17.9492   25.9124 O   0  0  0  0  0  0  0  0  0  0  0  0
  2  1  1  1
  2  3  1  0
  3  4  1  0
  4  5  1  0
  5  9  1  0
  6  5  2  0
  7  8  2  0
  7  2  1  0
 10 11  1  0
 11 12  2  0
 12 13  1  0
 14 13  2  0
 14 15  1  0
 16 15  1  1
 16 17  1  0
 17  7  1  0
 18 22  1  0
 18 16  1  0
 19 18  2  0
 20 14  1  0
 21 11  1  0
 21 20  2  0
 23 22  1  0
 23 28  1  0
 23 24  1  1
 25 24  1  0
 26 25  1  0
 27 26  2  0
 28 29  1  0
 30 26  1  0
 31 28  2  0
M  END
$$$$
