EYE.pdb
     RDKit          3D

 31 31  0  0  1  0  0  0  0  0999 V2000
    7.8407  -15.2524   19.0442 N   0  0  0  0  0  0  0  0  0  0  0  0
    7.3104  -15.8568   20.2786 C   0  0  1  0  0  0  0  0  0  0  0  0
    7.1429  -17.3205   19.9559 C   0  0  0  0  0  0  0  0  0  0  0  0
    8.4729  -17.9631   19.7571 C   0  0  0  0  0  0  0  0  0  0  0  0
    8.3149  -19.4309   19.5288 C   0  0  0  0  0  0  0  0  0  0  0  0
    8.3887  -20.2649   20.4760 O   0  0  0  0  0  0  0  0  0  0  0  0
    8.2047  -15.5716   21.4155 C   0  0  0  0  0  0  0  0  0  0  0  0
    9.4457  -15.5587   21.2368 O   0  0  0  0  0  0  0  0  0  0  0  0
    8.0803  -19.9415   18.2673 O   0  0  0  0  0  0  0  0  0  0  0  0
   10.2980  -14.1571   29.8683 O   0  0  0  0  0  0  0  0  0  0  0  0
    9.6127  -14.2971   28.6680 C   0  0  0  0  0  0  0  0  0  0  0  0
    9.2616  -13.1846   27.9354 C   0  0  0  0  0  0  0  0  0  0  0  0
    8.5858  -13.3377   26.7534 C   0  0  0  0  0  0  0  0  0  0  0  0
    8.2491  -14.5852   26.2807 C   0  0  0  0  0  0  0  0  0  0  0  0
    7.5199  -14.7975   25.0121 C   0  0  0  0  0  0  0  0  0  0  0  0
    8.4840  -14.9627   23.8437 C   0  0  2  0  0  0  0  0  0  0  0  0
    7.6784  -15.3065   22.7069 N   0  0  0  0  0  0  0  0  0  0  0  0
    9.4513  -16.0457   24.1208 C   0  0  0  0  0  0  0  0  0  0  0  0
    9.0128  -17.2150   24.1346 O   0  0  0  0  0  0  0  0  0  0  0  0
    8.6111  -15.6962   27.0322 C   0  0  0  0  0  0  0  0  0  0  0  0
    9.2910  -15.5562   28.2229 C   0  0  0  0  0  0  0  0  0  0  0  0
   10.8146  -15.8020   24.3625 N   0  0  0  0  0  0  0  0  0  0  0  0
   11.8692  -16.7299   24.5155 C   0  0  1  0  0  0  0  0  0  0  0  0
   13.1638  -16.3182   23.8060 C   0  0  0  0  0  0  0  0  0  0  0  0
   14.2263  -17.3664   23.9957 C   0  0  0  0  0  0  0  0  0  0  0  0
   15.4627  -16.9559   23.2815 C   0  0  0  0  0  0  0  0  0  0  0  0
   15.4429  -15.9900   22.4984 O   0  0  0  0  0  0  0  0  0  0  0  0
   12.1278  -17.2573   25.8389 C   0  0  0  0  0  0  0  0  0  0  0  0
   12.7226  -18.4962   26.0966 O   0  0  0  0  0  0  0  0  0  0  0  0
   16.6341  -17.6559   23.4944 O   0  0  0  0  0  0  0  0  0  0  0  0
   11.8071  -16.5794   26.8460 O   0  0  0  0  0  0  0  0  0  0  0  0
  2  1  1  6
  2  3  1  0
  3  4  1  0
  4  5  1  0
  5  9  1  0
  6  5  2  0
  7  8  2  0
  7  2  1  0
 10 11  1  0
 11 12  2  0
 12 13  1  0
 14 13  2  0
 14 15  1  0
 16 15  1  1
 16 17  1  0
 17  7  1  0
 18 22  1  0
 18 16  1  0
 19 18  2  0
 20 14  1  0
 21 11  1  0
 21 20  2  0
 23 22  1  0
 23 28  1  0
 23 24  1  1
 25 24  1  0
 26 25  1  0
 27 26  2  0
 28 29  1  0
 30 26  1  0
 31 28  2  0
M  END
$$$$
