EYE.pdb
     RDKit          3D

 31 31  0  0  1  0  0  0  0  0999 V2000
   10.1892  -16.1106   18.5763 N   0  0  0  0  0  0  0  0  0  0  0  0
    9.5171  -16.7445   19.7238 C   0  0  1  0  0  0  0  0  0  0  0  0
   10.1425  -18.1123   19.8358 C   0  0  0  0  0  0  0  0  0  0  0  0
   10.3132  -18.7165   18.4841 C   0  0  0  0  0  0  0  0  0  0  0  0
   10.8931  -20.0887   18.5948 C   0  0  0  0  0  0  0  0  0  0  0  0
   11.5568  -20.4525   19.6073 O   0  0  0  0  0  0  0  0  0  0  0  0
    9.6501  -15.9023   20.9265 C   0  0  0  0  0  0  0  0  0  0  0  0
   10.7633  -15.3980   21.2071 O   0  0  0  0  0  0  0  0  0  0  0  0
   10.7280  -21.0226   17.5909 O   0  0  0  0  0  0  0  0  0  0  0  0
    6.7386  -11.9018   28.2726 O   0  0  0  0  0  0  0  0  0  0  0  0
    6.8636  -12.4898   27.0201 C   0  0  0  0  0  0  0  0  0  0  0  0
    7.6050  -11.8748   26.0355 C   0  0  0  0  0  0  0  0  0  0  0  0
    7.7195  -12.4662   24.8049 C   0  0  0  0  0  0  0  0  0  0  0  0
    7.1067  -13.6671   24.5308 C   0  0  0  0  0  0  0  0  0  0  0  0
    7.2021  -14.3406   23.2180 C   0  0  0  0  0  0  0  0  0  0  0  0
    8.6026  -14.8931   22.9830 C   0  0  2  0  0  0  0  0  0  0  0  0
    8.5337  -15.6514   21.7665 N   0  0  0  0  0  0  0  0  0  0  0  0
    9.0059  -15.7718   24.1013 C   0  0  0  0  0  0  0  0  0  0  0  0
    8.3141  -16.7911   24.3066 O   0  0  0  0  0  0  0  0  0  0  0  0
    6.3628  -14.2735   25.5354 C   0  0  0  0  0  0  0  0  0  0  0  0
    6.2396  -13.6893   26.7776 C   0  0  0  0  0  0  0  0  0  0  0  0
   10.1173  -15.4991   24.9179 N   0  0  0  0  0  0  0  0  0  0  0  0
   10.6606  -16.2747   25.9666 C   0  0  1  0  0  0  0  0  0  0  0  0
   12.1843  -16.4253   25.8999 C   0  0  0  0  0  0  0  0  0  0  0  0
   12.5957  -17.0615   24.6001 C   0  0  0  0  0  0  0  0  0  0  0  0
   14.0784  -17.1026   24.5140 C   0  0  0  0  0  0  0  0  0  0  0  0
   14.6591  -18.1569   24.2010 O   0  0  0  0  0  0  0  0  0  0  0  0
   10.2067  -16.0115   27.3161 C   0  0  0  0  0  0  0  0  0  0  0  0
    9.3325  -14.9799   27.6719 O   0  0  0  0  0  0  0  0  0  0  0  0
   14.8062  -15.9604   24.7843 O   0  0  0  0  0  0  0  0  0  0  0  0
   10.6079  -16.7426   28.2549 O   0  0  0  0  0  0  0  0  0  0  0  0
  2  1  1  6
  2  3  1  0
  3  4  1  0
  4  5  1  0
  5  9  1  0
  6  5  2  0
  7  8  2  0
  7  2  1  0
 10 11  1  0
 11 12  2  0
 12 13  1  0
 14 13  2  0
 14 15  1  0
 16 15  1  1
 16 17  1  0
 17  7  1  0
 18 22  1  0
 18 16  1  0
 19 18  2  0
 20 14  1  0
 21 11  1  0
 21 20  2  0
 23 22  1  0
 23 28  1  0
 23 24  1  1
 25 24  1  0
 26 25  1  0
 27 26  2  0
 28 29  1  0
 30 26  1  0
 31 28  2  0
M  END
$$$$
