LVS.pdb
     RDKit          3D

 22 21  0  0  1  0  0  0  0  0999 V2000
    5.9934  -12.3905   26.2503 C   0  0  0  0  0  0  0  0  0  0  0  0
    6.8817  -13.1585   27.2044 C   0  0  2  0  0  0  0  0  0  0  0  0
    7.8482  -12.2097   27.8357 C   0  0  0  0  0  0  0  0  0  0  0  0
    7.6097  -14.2508   26.4138 C   0  0  0  0  0  0  0  0  0  0  0  0
    6.5895  -15.0114   25.5932 C   0  0  2  0  0  0  0  0  0  0  0  0
    5.8642  -15.9024   26.4542 N   0  0  0  0  0  0  0  0  0  0  0  0
    7.3858  -15.8053   24.5774 C   0  0  0  0  0  0  0  0  0  0  0  0
    7.6991  -16.9648   24.8380 O   0  0  0  0  0  0  0  0  0  0  0  0
    6.9891  -14.6253   20.5516 C   0  0  0  0  0  0  0  0  0  0  0  0
    8.4001  -14.9749   20.9875 C   0  0  2  0  0  0  0  0  0  0  0  0
    9.0086  -15.6802   19.8075 C   0  0  0  0  0  0  0  0  0  0  0  0
    8.4450  -15.7873   22.2157 C   0  0  2  0  0  0  0  0  0  0  0  0
    7.7728  -15.2762   23.3708 N   0  0  0  0  0  0  0  0  0  0  0  0
    9.8327  -16.0009   22.6866 C   0  0  0  0  0  0  0  0  0  0  0  0
   10.5383  -15.0129   23.1187 O   0  0  0  0  0  0  0  0  0  0  0  0
   10.9946  -19.5268   23.5985 O   0  0  0  0  0  0  0  0  0  0  0  0
   12.0208  -18.6617   24.0119 C   0  0  0  0  0  0  0  0  0  0  0  0
   11.8728  -17.3959   23.1597 C   0  0  2  0  0  0  0  0  0  0  0  0
   10.4991  -17.2386   22.7205 N   0  0  0  0  0  0  0  0  0  0  0  0
   12.8565  -17.3627   22.0743 C   0  0  0  0  0  0  0  0  0  0  0  0
   12.4704  -17.3237   20.8865 O   0  0  0  0  0  0  0  0  0  0  0  0
   14.2121  -17.3734   22.3338 O   0  0  0  0  0  0  0  0  0  0  0  0
  2  1  1  6
  2  4  1  0
  2  3  1  0
  4  5  1  0
  5  7  1  0
  5  6  1  1
  7  8  2  0
 10  9  1  6
 10 12  1  0
 11 10  1  0
 12 14  1  0
 12 13  1  1
 13  7  1  0
 14 15  2  0
 16 17  1  0
 18 17  1  6
 18 20  1  0
 19 14  1  0
 19 18  1  0
 20 21  2  0
 20 22  1  0
M  END
$$$$
