LVS.pdb
     RDKit          3D

 22 21  0  0  1  0  0  0  0  0999 V2000
    8.0047  -14.6607   18.9896 C   0  0  0  0  0  0  0  0  0  0  0  0
    7.4112  -13.5421   19.8178 C   0  0  2  0  0  0  0  0  0  0  0  0
    7.3752  -12.2963   18.9933 C   0  0  0  0  0  0  0  0  0  0  0  0
    8.2754  -13.3565   21.0695 C   0  0  0  0  0  0  0  0  0  0  0  0
    8.1434  -14.5935   21.9326 C   0  0  2  0  0  0  0  0  0  0  0  0
    6.7511  -14.8892   22.1200 N   0  0  0  0  0  0  0  0  0  0  0  0
    8.7820  -14.2403   23.2606 C   0  0  0  0  0  0  0  0  0  0  0  0
    9.9183  -13.7720   23.2714 O   0  0  0  0  0  0  0  0  0  0  0  0
    6.0768  -13.9048   26.5732 C   0  0  0  0  0  0  0  0  0  0  0  0
    7.4815  -13.3308   26.5893 C   0  0  2  0  0  0  0  0  0  0  0  0
    7.3386  -11.9365   26.0458 C   0  0  0  0  0  0  0  0  0  0  0  0
    8.4486  -14.1382   25.8255 C   0  0  2  0  0  0  0  0  0  0  0  0
    8.1366  -14.4243   24.4586 N   0  0  0  0  0  0  0  0  0  0  0  0
    8.6459  -15.4777   26.4252 C   0  0  0  0  0  0  0  0  0  0  0  0
    7.6582  -16.2976   26.5391 O   0  0  0  0  0  0  0  0  0  0  0  0
   11.9671  -17.6444   26.3415 O   0  0  0  0  0  0  0  0  0  0  0  0
   10.7439  -18.2579   26.6572 C   0  0  0  0  0  0  0  0  0  0  0  0
    9.9986  -17.2695   27.5617 C   0  0  2  0  0  0  0  0  0  0  0  0
    9.8673  -15.9822   26.9057 N   0  0  0  0  0  0  0  0  0  0  0  0
   10.6020  -17.2037   28.8953 C   0  0  0  0  0  0  0  0  0  0  0  0
   11.0515  -16.1184   29.3213 O   0  0  0  0  0  0  0  0  0  0  0  0
   10.6872  -18.3216   29.7004 O   0  0  0  0  0  0  0  0  0  0  0  0
  2  1  1  6
  2  4  1  0
  2  3  1  0
  4  5  1  0
  5  7  1  0
  5  6  1  1
  7  8  2  0
 10  9  1  6
 10 12  1  0
 11 10  1  0
 12 14  1  0
 12 13  1  6
 13  7  1  0
 14 15  2  0
 16 17  1  0
 18 17  1  6
 18 20  1  0
 19 14  1  0
 19 18  1  0
 20 21  2  0
 20 22  1  0
M  END
$$$$
