LVS.pdb
     RDKit          3D

 22 21  0  0  1  0  0  0  0  0999 V2000
    8.2295  -12.4889   27.2074 C   0  0  0  0  0  0  0  0  0  0  0  0
    7.2287  -13.2766   26.3906 C   0  0  2  0  0  0  0  0  0  0  0  0
    5.8891  -12.6245   26.5067 C   0  0  0  0  0  0  0  0  0  0  0  0
    7.1961  -14.7138   26.9210 C   0  0  0  0  0  0  0  0  0  0  0  0
    6.4307  -15.5724   25.9364 C   0  0  2  0  0  0  0  0  0  0  0  0
    5.9362  -16.7374   26.6143 N   0  0  0  0  0  0  0  0  0  0  0  0
    7.4334  -15.9767   24.8746 C   0  0  0  0  0  0  0  0  0  0  0  0
    8.1712  -16.9370   25.0844 O   0  0  0  0  0  0  0  0  0  0  0  0
    6.7161  -14.4283   20.8932 C   0  0  0  0  0  0  0  0  0  0  0  0
    8.1428  -14.5219   21.4017 C   0  0  2  0  0  0  0  0  0  0  0  0
    8.9673  -14.8538   20.1892 C   0  0  0  0  0  0  0  0  0  0  0  0
    8.3108  -15.5058   22.4854 C   0  0  2  0  0  0  0  0  0  0  0  0
    7.5500  -15.3079   23.6810 N   0  0  0  0  0  0  0  0  0  0  0  0
    9.7095  -15.5628   22.9682 C   0  0  0  0  0  0  0  0  0  0  0  0
   10.2693  -14.5219   23.4819 O   0  0  0  0  0  0  0  0  0  0  0  0
   11.5679  -19.0114   23.4425 O   0  0  0  0  0  0  0  0  0  0  0  0
   12.2517  -17.9871   24.1174 C   0  0  0  0  0  0  0  0  0  0  0  0
   11.9225  -16.6936   23.3630 C   0  0  2  0  0  0  0  0  0  0  0  0
   10.5380  -16.6983   22.9295 N   0  0  0  0  0  0  0  0  0  0  0  0
   12.8860  -16.4398   22.2887 C   0  0  0  0  0  0  0  0  0  0  0  0
   12.5036  -16.4356   21.0991 O   0  0  0  0  0  0  0  0  0  0  0  0
   14.2183  -16.2031   22.5608 O   0  0  0  0  0  0  0  0  0  0  0  0
  2  1  1  1
  2  4  1  0
  2  3  1  0
  4  5  1  0
  5  7  1  0
  5  6  1  1
  7  8  2  0
 10  9  1  6
 10 12  1  0
 11 10  1  0
 12 14  1  0
 12 13  1  1
 13  7  1  0
 14 15  2  0
 16 17  1  0
 18 17  1  6
 18 20  1  0
 19 14  1  0
 19 18  1  0
 20 21  2  0
 20 22  1  0
M  END
$$$$
