LVS.pdb
     RDKit          3D

 22 21  0  0  1  0  0  0  0  0999 V2000
    5.9251  -12.9141   26.0716 C   0  0  0  0  0  0  0  0  0  0  0  0
    6.8861  -13.3233   27.1663 C   0  0  2  0  0  0  0  0  0  0  0  0
    7.8662  -12.2172   27.3882 C   0  0  0  0  0  0  0  0  0  0  0  0
    7.5911  -14.6132   26.7335 C   0  0  0  0  0  0  0  0  0  0  0  0
    6.6217  -15.4394   25.9148 C   0  0  2  0  0  0  0  0  0  0  0  0
    6.1291  -16.5207   26.7206 N   0  0  0  0  0  0  0  0  0  0  0  0
    7.4243  -15.9839   24.7505 C   0  0  0  0  0  0  0  0  0  0  0  0
    7.9051  -17.1121   24.8320 O   0  0  0  0  0  0  0  0  0  0  0  0
    6.7192  -14.2905   20.8414 C   0  0  0  0  0  0  0  0  0  0  0  0
    8.1516  -14.5061   21.2938 C   0  0  2  0  0  0  0  0  0  0  0  0
    8.9030  -14.8749   20.0450 C   0  0  0  0  0  0  0  0  0  0  0  0
    8.2807  -15.5234   22.3517 C   0  0  2  0  0  0  0  0  0  0  0  0
    7.6363  -15.2615   23.6021 N   0  0  0  0  0  0  0  0  0  0  0  0
    9.6942  -15.7515   22.7295 C   0  0  0  0  0  0  0  0  0  0  0  0
   10.3686  -14.8337   23.3324 O   0  0  0  0  0  0  0  0  0  0  0  0
   11.2636  -19.3649   22.6156 O   0  0  0  0  0  0  0  0  0  0  0  0
   12.0745  -18.5090   23.3787 C   0  0  0  0  0  0  0  0  0  0  0  0
   11.8182  -17.0964   22.8409 C   0  0  2  0  0  0  0  0  0  0  0  0
   10.4193  -16.9329   22.4928 N   0  0  0  0  0  0  0  0  0  0  0  0
   12.7481  -16.7574   21.7606 C   0  0  0  0  0  0  0  0  0  0  0  0
   12.3091  -16.5129   20.6165 O   0  0  0  0  0  0  0  0  0  0  0  0
   14.1100  -16.7010   21.9774 O   0  0  0  0  0  0  0  0  0  0  0  0
  2  1  1  6
  2  4  1  0
  2  3  1  0
  4  5  1  0
  5  7  1  0
  5  6  1  1
  7  8  2  0
 10  9  1  6
 10 12  1  0
 11 10  1  0
 12 14  1  0
 12 13  1  1
 13  7  1  0
 14 15  2  0
 16 17  1  0
 18 17  1  6
 18 20  1  0
 19 14  1  0
 19 18  1  0
 20 21  2  0
 20 22  1  0
M  END
$$$$
