LVS.pdb
     RDKit          3D

 22 21  0  0  1  0  0  0  0  0999 V2000
    5.3745  -16.7970   20.4701 C   0  0  0  0  0  0  0  0  0  0  0  0
    6.7992  -17.2913   20.5934 C   0  0  2  0  0  0  0  0  0  0  0  0
    6.7909  -18.7850   20.6391 C   0  0  0  0  0  0  0  0  0  0  0  0
    7.4078  -16.6987   21.8687 C   0  0  0  0  0  0  0  0  0  0  0  0
    7.3103  -15.1897   21.7918 C   0  0  2  0  0  0  0  0  0  0  0  0
    7.9402  -14.7393   20.5828 N   0  0  0  0  0  0  0  0  0  0  0  0
    8.0652  -14.6653   22.9965 C   0  0  0  0  0  0  0  0  0  0  0  0
    9.2892  -14.5699   22.9395 O   0  0  0  0  0  0  0  0  0  0  0  0
    6.3883  -11.7662   25.4835 C   0  0  0  0  0  0  0  0  0  0  0  0
    6.8916  -13.0012   26.2074 C   0  0  2  0  0  0  0  0  0  0  0  0
    7.4729  -12.4878   27.4953 C   0  0  0  0  0  0  0  0  0  0  0  0
    7.8629  -13.7813   25.4209 C   0  0  2  0  0  0  0  0  0  0  0  0
    7.4310  -14.2906   24.1554 N   0  0  0  0  0  0  0  0  0  0  0  0
    8.3176  -14.9898   26.1458 C   0  0  0  0  0  0  0  0  0  0  0  0
    7.4707  -15.8814   26.5310 O   0  0  0  0  0  0  0  0  0  0  0  0
   12.0792  -16.4630   26.0120 O   0  0  0  0  0  0  0  0  0  0  0  0
   11.0183  -17.3204   26.3460 C   0  0  0  0  0  0  0  0  0  0  0  0
   10.0515  -16.4836   27.1919 C   0  0  2  0  0  0  0  0  0  0  0  0
    9.6523  -15.2890   26.4720 N   0  0  0  0  0  0  0  0  0  0  0  0
   10.5946  -16.2249   28.5279 C   0  0  0  0  0  0  0  0  0  0  0  0
   10.9382  -17.1813   29.2551 O   0  0  0  0  0  0  0  0  0  0  0  0
   10.7373  -14.9387   29.0078 O   0  0  0  0  0  0  0  0  0  0  0  0
  2  1  1  1
  2  4  1  0
  2  3  1  0
  4  5  1  0
  5  7  1  0
  5  6  1  6
  7  8  2  0
 10  9  1  6
 10 12  1  0
 11 10  1  0
 12 14  1  0
 12 13  1  6
 13  7  1  0
 14 15  2  0
 16 17  1  0
 18 17  1  6
 18 20  1  0
 19 14  1  0
 19 18  1  0
 20 21  2  0
 20 22  1  0
M  END
$$$$
