LVS.pdb
     RDKit          3D

 22 21  0  0  1  0  0  0  0  0999 V2000
    8.3807  -12.1914   27.3883 C   0  0  0  0  0  0  0  0  0  0  0  0
    7.5763  -12.7487   26.2344 C   0  0  2  0  0  0  0  0  0  0  0  0
    6.8133  -11.6348   25.5939 C   0  0  0  0  0  0  0  0  0  0  0  0
    6.6344  -13.8280   26.7783 C   0  0  0  0  0  0  0  0  0  0  0  0
    5.9170  -14.4727   25.6111 C   0  0  2  0  0  0  0  0  0  0  0  0
    4.9041  -15.3576   26.1132 N   0  0  0  0  0  0  0  0  0  0  0  0
    6.9720  -15.2628   24.8636 C   0  0  0  0  0  0  0  0  0  0  0  0
    7.4370  -16.2765   25.3803 O   0  0  0  0  0  0  0  0  0  0  0  0
    6.9253  -14.6990   20.6358 C   0  0  0  0  0  0  0  0  0  0  0  0
    8.2837  -14.8585   21.2933 C   0  0  2  0  0  0  0  0  0  0  0  0
    9.1077  -15.6319   20.3020 C   0  0  0  0  0  0  0  0  0  0  0  0
    8.2191  -15.5169   22.6097 C   0  0  2  0  0  0  0  0  0  0  0  0
    7.4309  -14.8879   23.6249 N   0  0  0  0  0  0  0  0  0  0  0  0
    9.5568  -15.6386   23.2330 C   0  0  0  0  0  0  0  0  0  0  0  0
   10.1943  -14.5907   23.6283 O   0  0  0  0  0  0  0  0  0  0  0  0
   10.9288  -18.2705   25.7694 O   0  0  0  0  0  0  0  0  0  0  0  0
   11.8303  -18.2468   24.6928 C   0  0  0  0  0  0  0  0  0  0  0  0
   11.5960  -16.9114   23.9772 C   0  0  2  0  0  0  0  0  0  0  0  0
   10.2428  -16.8452   23.4583 N   0  0  0  0  0  0  0  0  0  0  0  0
   12.6346  -16.6497   22.9774 C   0  0  0  0  0  0  0  0  0  0  0  0
   12.4149  -16.8995   21.7729 O   0  0  0  0  0  0  0  0  0  0  0  0
   13.8615  -16.1292   23.3365 O   0  0  0  0  0  0  0  0  0  0  0  0
  2  1  1  1
  2  4  1  0
  2  3  1  0
  4  5  1  0
  5  7  1  0
  5  6  1  1
  7  8  2  0
 10  9  1  6
 10 12  1  0
 11 10  1  0
 12 14  1  0
 12 13  1  1
 13  7  1  0
 14 15  2  0
 16 17  1  0
 18 17  1  6
 18 20  1  0
 19 14  1  0
 19 18  1  0
 20 21  2  0
 20 22  1  0
M  END
$$$$
