LVS.pdb
     RDKit          3D

 22 21  0  0  1  0  0  0  0  0999 V2000
    6.1639  -11.5119   26.0664 C   0  0  0  0  0  0  0  0  0  0  0  0
    6.7238  -12.5661   26.9962 C   0  0  2  0  0  0  0  0  0  0  0  0
    7.7591  -11.9384   27.8720 C   0  0  0  0  0  0  0  0  0  0  0  0
    7.3220  -13.6920   26.1460 C   0  0  0  0  0  0  0  0  0  0  0  0
    6.2518  -14.2051   25.2059 C   0  0  2  0  0  0  0  0  0  0  0  0
    5.2487  -14.8943   25.9675 N   0  0  0  0  0  0  0  0  0  0  0  0
    6.9513  -15.1733   24.2733 C   0  0  0  0  0  0  0  0  0  0  0  0
    7.0387  -16.3560   24.5960 O   0  0  0  0  0  0  0  0  0  0  0  0
    7.1044  -14.1605   20.1463 C   0  0  0  0  0  0  0  0  0  0  0  0
    8.3874  -14.6890   20.7607 C   0  0  2  0  0  0  0  0  0  0  0  0
    9.0208  -15.5232   19.6823 C   0  0  0  0  0  0  0  0  0  0  0  0
    8.1675  -15.4469   22.0049 C   0  0  2  0  0  0  0  0  0  0  0  0
    7.4940  -14.7779   23.0755 N   0  0  0  0  0  0  0  0  0  0  0  0
    9.4423  -15.8870   22.6165 C   0  0  0  0  0  0  0  0  0  0  0  0
   10.2249  -15.0363   23.1860 O   0  0  0  0  0  0  0  0  0  0  0  0
   10.3642  -19.7330   22.7516 O   0  0  0  0  0  0  0  0  0  0  0  0
   11.1736  -19.0486   23.6730 C   0  0  0  0  0  0  0  0  0  0  0  0
   11.1999  -17.5884   23.2065 C   0  0  2  0  0  0  0  0  0  0  0  0
    9.9143  -17.2111   22.6499 N   0  0  0  0  0  0  0  0  0  0  0  0
   12.3364  -17.3299   22.3186 C   0  0  0  0  0  0  0  0  0  0  0  0
   12.1344  -17.0013   21.1300 O   0  0  0  0  0  0  0  0  0  0  0  0
   13.6370  -17.4416   22.7668 O   0  0  0  0  0  0  0  0  0  0  0  0
  2  1  1  6
  2  4  1  0
  2  3  1  0
  4  5  1  0
  5  7  1  0
  5  6  1  1
  7  8  2  0
 10  9  1  6
 10 12  1  0
 11 10  1  0
 12 14  1  0
 12 13  1  1
 13  7  1  0
 14 15  2  0
 16 17  1  0
 18 17  1  6
 18 20  1  0
 19 14  1  0
 19 18  1  0
 20 21  2  0
 20 22  1  0
M  END
$$$$
