LVS.pdb
     RDKit          3D

 22 21  0  0  1  0  0  0  0  0999 V2000
    8.5738  -13.5804   28.3694 C   0  0  0  0  0  0  0  0  0  0  0  0
    9.4309  -14.7424   28.8217 C   0  0  2  0  0  0  0  0  0  0  0  0
   10.7398  -14.2154   29.3139 C   0  0  0  0  0  0  0  0  0  0  0  0
    9.6240  -15.6916   27.6343 C   0  0  0  0  0  0  0  0  0  0  0  0
    8.2619  -16.0485   27.0777 C   0  0  2  0  0  0  0  0  0  0  0  0
    7.7180  -17.1422   27.8321 N   0  0  0  0  0  0  0  0  0  0  0  0
    8.5010  -16.4757   25.6437 C   0  0  0  0  0  0  0  0  0  0  0  0
    8.8153  -17.6411   25.4119 O   0  0  0  0  0  0  0  0  0  0  0  0
    6.6429  -14.1769   22.5404 C   0  0  0  0  0  0  0  0  0  0  0  0
    8.0977  -14.5650   22.3515 C   0  0  2  0  0  0  0  0  0  0  0  0
    8.2447  -14.8187   20.8770 C   0  0  0  0  0  0  0  0  0  0  0  0
    8.5012  -15.7239   23.1668 C   0  0  2  0  0  0  0  0  0  0  0  0
    8.3795  -15.6064   24.5877 N   0  0  0  0  0  0  0  0  0  0  0  0
    9.9270  -16.0705   22.9670 C   0  0  0  0  0  0  0  0  0  0  0  0
   10.8569  -15.3601   23.5067 O   0  0  0  0  0  0  0  0  0  0  0  0
   13.4740  -19.0956   22.3996 O   0  0  0  0  0  0  0  0  0  0  0  0
   12.1010  -18.8817   22.6033 C   0  0  0  0  0  0  0  0  0  0  0  0
   11.8100  -17.4757   22.0658 C   0  0  2  0  0  0  0  0  0  0  0  0
   10.4020  -17.1584   22.2132 N   0  0  0  0  0  0  0  0  0  0  0  0
   12.3233  -17.3056   20.7041 C   0  0  0  0  0  0  0  0  0  0  0  0
   11.5618  -17.4724   19.7274 O   0  0  0  0  0  0  0  0  0  0  0  0
   13.6397  -16.9626   20.4710 O   0  0  0  0  0  0  0  0  0  0  0  0
  2  1  1  6
  2  4  1  0
  2  3  1  0
  4  5  1  0
  5  7  1  0
  5  6  1  1
  7  8  2  0
 10  9  1  6
 10 12  1  0
 11 10  1  0
 12 14  1  0
 12 13  1  1
 13  7  1  0
 14 15  2  0
 16 17  1  0
 18 17  1  6
 18 20  1  0
 19 14  1  0
 19 18  1  0
 20 21  2  0
 20 22  1  0
M  END
$$$$
