LVS.pdb
     RDKit          3D

 22 21  0  0  1  0  0  0  0  0999 V2000
    8.3340  -12.6354   27.1384 C   0  0  0  0  0  0  0  0  0  0  0  0
    7.3364  -13.4804   26.3768 C   0  0  2  0  0  0  0  0  0  0  0  0
    5.9953  -12.8246   26.4445 C   0  0  0  0  0  0  0  0  0  0  0  0
    7.3055  -14.8771   27.0064 C   0  0  0  0  0  0  0  0  0  0  0  0
    6.5857  -15.8150   26.0605 C   0  0  2  0  0  0  0  0  0  0  0  0
    6.2387  -17.0171   26.7646 N   0  0  0  0  0  0  0  0  0  0  0  0
    7.5755  -16.1278   24.9566 C   0  0  0  0  0  0  0  0  0  0  0  0
    8.3391  -17.0815   25.0914 O   0  0  0  0  0  0  0  0  0  0  0  0
    6.7041  -14.5188   21.0195 C   0  0  0  0  0  0  0  0  0  0  0  0
    8.1286  -14.4822   21.5414 C   0  0  2  0  0  0  0  0  0  0  0  0
    8.9934  -14.6723   20.3265 C   0  0  0  0  0  0  0  0  0  0  0  0
    8.3919  -15.4883   22.5850 C   0  0  2  0  0  0  0  0  0  0  0  0
    7.6527  -15.3830   23.8056 N   0  0  0  0  0  0  0  0  0  0  0  0
    9.8040  -15.4663   23.0302 C   0  0  0  0  0  0  0  0  0  0  0  0
   10.2969  -14.4196   23.5977 O   0  0  0  0  0  0  0  0  0  0  0  0
   11.7608  -18.6512   23.9986 O   0  0  0  0  0  0  0  0  0  0  0  0
   12.4234  -17.4735   24.3811 C   0  0  0  0  0  0  0  0  0  0  0  0
   12.1090  -16.4413   23.2920 C   0  0  2  0  0  0  0  0  0  0  0  0
   10.7155  -16.5288   22.8980 N   0  0  0  0  0  0  0  0  0  0  0  0
   13.0543  -16.5347   22.1764 C   0  0  0  0  0  0  0  0  0  0  0  0
   12.6369  -16.7994   21.0286 O   0  0  0  0  0  0  0  0  0  0  0  0
   14.4072  -16.3357   22.3635 O   0  0  0  0  0  0  0  0  0  0  0  0
  2  1  1  1
  2  4  1  0
  2  3  1  0
  4  5  1  0
  5  7  1  0
  5  6  1  1
  7  8  2  0
 10  9  1  6
 10 12  1  0
 11 10  1  0
 12 14  1  0
 12 13  1  1
 13  7  1  0
 14 15  2  0
 16 17  1  0
 18 17  1  1
 18 20  1  0
 19 14  1  0
 19 18  1  0
 20 21  2  0
 20 22  1  0
M  END
$$$$
