LVS.pdb
     RDKit          3D

 22 21  0  0  1  0  0  0  0  0999 V2000
    5.2327  -12.5283   26.2563 C   0  0  0  0  0  0  0  0  0  0  0  0
    6.3420  -13.1144   27.1021 C   0  0  2  0  0  0  0  0  0  0  0  0
    7.0865  -12.0002   27.7636 C   0  0  0  0  0  0  0  0  0  0  0  0
    7.2616  -13.9352   26.1919 C   0  0  0  0  0  0  0  0  0  0  0  0
    6.4300  -14.9907   25.4940 C   0  0  2  0  0  0  0  0  0  0  0  0
    6.0844  -16.0161   26.4376 N   0  0  0  0  0  0  0  0  0  0  0  0
    7.3172  -15.5634   24.4073 C   0  0  0  0  0  0  0  0  0  0  0  0
    7.7959  -16.6856   24.5564 O   0  0  0  0  0  0  0  0  0  0  0  0
    6.8083  -13.7249   20.5955 C   0  0  0  0  0  0  0  0  0  0  0  0
    8.2094  -14.1903   20.9463 C   0  0  2  0  0  0  0  0  0  0  0  0
    8.7859  -14.6982   19.6541 C   0  0  0  0  0  0  0  0  0  0  0  0
    8.2351  -15.2054   22.0137 C   0  0  2  0  0  0  0  0  0  0  0  0
    7.6085  -14.8733   23.2564 N   0  0  0  0  0  0  0  0  0  0  0  0
    9.6184  -15.5608   22.4053 C   0  0  0  0  0  0  0  0  0  0  0  0
   10.3679  -14.7071   23.0136 O   0  0  0  0  0  0  0  0  0  0  0  0
   10.7652  -19.2896   22.4913 O   0  0  0  0  0  0  0  0  0  0  0  0
   11.6966  -18.4962   23.1807 C   0  0  0  0  0  0  0  0  0  0  0  0
   11.6038  -17.0994   22.5554 C   0  0  2  0  0  0  0  0  0  0  0  0
   10.2349  -16.8037   22.1768 N   0  0  0  0  0  0  0  0  0  0  0  0
   12.5749  -16.9322   21.4711 C   0  0  0  0  0  0  0  0  0  0  0  0
   12.1752  -16.7643   20.2991 O   0  0  0  0  0  0  0  0  0  0  0  0
   13.9333  -16.9558   21.7143 O   0  0  0  0  0  0  0  0  0  0  0  0
  2  1  1  6
  2  4  1  0
  2  3  1  0
  4  5  1  0
  5  7  1  0
  5  6  1  1
  7  8  2  0
 10  9  1  6
 10 12  1  0
 11 10  1  0
 12 14  1  0
 12 13  1  1
 13  7  1  0
 14 15  2  0
 16 17  1  0
 18 17  1  6
 18 20  1  0
 19 14  1  0
 19 18  1  0
 20 21  2  0
 20 22  1  0
M  END
$$$$
