LVS.pdb
     RDKit          3D

 22 21  0  0  1  0  0  0  0  0999 V2000
    8.8747  -14.3492   18.0865 C   0  0  0  0  0  0  0  0  0  0  0  0
    7.8129  -14.2713   19.1616 C   0  0  2  0  0  0  0  0  0  0  0  0
    7.0245  -13.0159   18.9731 C   0  0  0  0  0  0  0  0  0  0  0  0
    8.5061  -14.2935   20.5280 C   0  0  0  0  0  0  0  0  0  0  0  0
    7.4446  -14.3828   21.6041 C   0  0  2  0  0  0  0  0  0  0  0  0
    6.3348  -13.5481   21.2397 N   0  0  0  0  0  0  0  0  0  0  0  0
    8.0942  -13.8590   22.8690 C   0  0  0  0  0  0  0  0  0  0  0  0
    8.6474  -12.7617   22.8464 O   0  0  0  0  0  0  0  0  0  0  0  0
    6.2677  -14.1440   26.3738 C   0  0  0  0  0  0  0  0  0  0  0  0
    7.6622  -13.5544   26.2722 C   0  0  2  0  0  0  0  0  0  0  0  0
    7.4538  -12.1383   25.8124 C   0  0  0  0  0  0  0  0  0  0  0  0
    8.5511  -14.3140   25.3759 C   0  0  2  0  0  0  0  0  0  0  0  0
    8.0886  -14.5669   24.0457 N   0  0  0  0  0  0  0  0  0  0  0  0
    8.8456  -15.6654   25.9049 C   0  0  0  0  0  0  0  0  0  0  0  0
    7.8942  -16.5076   26.1197 O   0  0  0  0  0  0  0  0  0  0  0  0
   12.6647  -17.0767   26.5325 O   0  0  0  0  0  0  0  0  0  0  0  0
   11.6899  -18.0465   26.2466 C   0  0  0  0  0  0  0  0  0  0  0  0
   10.3649  -17.4769   26.7666 C   0  0  2  0  0  0  0  0  0  0  0  0
   10.1267  -16.1587   26.2095 N   0  0  0  0  0  0  0  0  0  0  0  0
   10.2955  -17.5309   28.2291 C   0  0  0  0  0  0  0  0  0  0  0  0
   10.2017  -16.4723   28.8864 O   0  0  0  0  0  0  0  0  0  0  0  0
   10.3317  -18.7336   28.9053 O   0  0  0  0  0  0  0  0  0  0  0  0
  2  1  1  6
  2  4  1  0
  2  3  1  0
  4  5  1  0
  5  7  1  0
  5  6  1  6
  7  8  2  0
 10  9  1  6
 10 12  1  0
 11 10  1  0
 12 14  1  0
 12 13  1  6
 13  7  1  0
 14 15  2  0
 16 17  1  0
 18 17  1  1
 18 20  1  0
 19 14  1  0
 19 18  1  0
 20 21  2  0
 20 22  1  0
M  END
$$$$
