LVS.pdb
     RDKit          3D

 22 21  0  0  1  0  0  0  0  0999 V2000
    5.8593  -12.2355   26.3143 C   0  0  0  0  0  0  0  0  0  0  0  0
    6.7207  -13.1481   27.1596 C   0  0  2  0  0  0  0  0  0  0  0  0
    7.7005  -12.3179   27.9237 C   0  0  0  0  0  0  0  0  0  0  0  0
    7.4335  -14.1369   26.2311 C   0  0  0  0  0  0  0  0  0  0  0  0
    6.3978  -14.7971   25.3456 C   0  0  2  0  0  0  0  0  0  0  0  0
    5.7441  -15.8400   26.0847 N   0  0  0  0  0  0  0  0  0  0  0  0
    7.1668  -15.3896   24.1821 C   0  0  0  0  0  0  0  0  0  0  0  0
    7.5260  -16.5636   24.2392 O   0  0  0  0  0  0  0  0  0  0  0  0
    6.8129  -13.2132   20.5619 C   0  0  0  0  0  0  0  0  0  0  0  0
    8.1533  -13.8832   20.8013 C   0  0  2  0  0  0  0  0  0  0  0  0
    8.5890  -14.3765   19.4497 C   0  0  0  0  0  0  0  0  0  0  0  0
    8.0940  -14.9613   21.8037 C   0  0  2  0  0  0  0  0  0  0  0  0
    7.4794  -14.6615   23.0606 N   0  0  0  0  0  0  0  0  0  0  0  0
    9.4436  -15.4396   22.1814 C   0  0  0  0  0  0  0  0  0  0  0  0
   10.2733  -14.6566   22.7808 O   0  0  0  0  0  0  0  0  0  0  0  0
   10.3483  -19.2546   21.8454 O   0  0  0  0  0  0  0  0  0  0  0  0
   11.2853  -18.6438   22.6946 C   0  0  0  0  0  0  0  0  0  0  0  0
   11.2785  -17.1554   22.3272 C   0  0  2  0  0  0  0  0  0  0  0  0
    9.9433  -16.7331   21.9483 N   0  0  0  0  0  0  0  0  0  0  0  0
   12.3099  -16.8439   21.3342 C   0  0  0  0  0  0  0  0  0  0  0  0
   13.5164  -16.9950   21.6228 O   0  0  0  0  0  0  0  0  0  0  0  0
   11.9789  -16.3833   20.0760 O   0  0  0  0  0  0  0  0  0  0  0  0
  2  1  1  6
  2  4  1  0
  2  3  1  0
  4  5  1  0
  5  7  1  0
  5  6  1  1
  7  8  2  0
 10  9  1  6
 10 12  1  0
 11 10  1  0
 12 14  1  0
 12 13  1  1
 13  7  1  0
 14 15  2  0
 16 17  1  0
 18 17  1  6
 18 20  1  0
 19 14  1  0
 19 18  1  0
 20 21  2  0
 20 22  1  0
M  END
$$$$
