CYA.pdb
     RDKit          3D

 24 24  0  0  1  0  0  0  0  0999 V2000
   15.9873  -24.6969   -4.6072 N   0  0  0  0  0  0  0  0  0  0  0  0
   15.6493  -25.3301   -3.3635 C   0  0  1  0  0  0  0  0  0  0  0  0
   16.4887  -26.5876   -3.1914 C   0  0  0  0  0  0  0  0  0  0  0  0
   16.1772  -27.7137   -4.5768 S   0  0  0  0  0  0  0  0  0  0  0  0
   15.8914  -24.4202   -2.2136 C   0  0  0  0  0  0  0  0  0  0  0  0
   16.7369  -23.4969   -2.3295 O   0  0  0  0  0  0  0  0  0  0  0  0
   14.4914  -17.6842    2.7219 O   0  0  0  0  0  0  0  0  0  0  0  0
   14.5953  -18.8185    1.9257 C   0  0  0  0  0  0  0  0  0  0  0  0
   15.7989  -19.4525    1.7963 C   0  0  0  0  0  0  0  0  0  0  0  0
   15.8832  -20.5919    0.9909 C   0  0  0  0  0  0  0  0  0  0  0  0
   14.7657  -21.0589    0.3434 C   0  0  0  0  0  0  0  0  0  0  0  0
   14.8504  -22.2285   -0.5330 C   0  0  0  0  0  0  0  0  0  0  0  0
   15.3908  -23.4792    0.0593 C   0  0  2  0  0  0  0  0  0  0  0  0
   15.2131  -24.5369   -0.9768 N   0  0  0  0  0  0  0  0  0  0  0  0
   14.8192  -23.9362    1.3248 C   0  0  0  0  0  0  0  0  0  0  0  0
   13.6586  -24.5012    1.3693 O   0  0  0  0  0  0  0  0  0  0  0  0
   13.5717  -20.3984    0.4950 C   0  0  0  0  0  0  0  0  0  0  0  0
   13.4656  -19.2724    1.2845 C   0  0  0  0  0  0  0  0  0  0  0  0
   15.8010  -24.3069    4.9505 C   0  0  0  0  0  0  0  0  0  0  0  0
   14.8033  -24.1419    3.8261 C   0  0  2  0  0  0  0  0  0  0  0  0
   15.4478  -23.8202    2.5728 N   0  0  0  0  0  0  0  0  0  0  0  0
   13.7512  -23.2321    4.2570 C   0  0  0  0  0  0  0  0  0  0  0  0
   13.7518  -22.0323    3.9338 O   0  0  0  0  0  0  0  0  0  0  0  0
   12.7225  -23.7128    5.0469 O   0  0  0  0  0  0  0  0  0  0  0  0
  2  1  1  6
  2  3  1  0
  3  4  1  0
  5  6  2  0
  5  2  1  0
  7  8  1  0
  8 18  2  0
  9 10  2  0
  9  8  1  0
 10 11  1  0
 11 12  1  0
 11 17  2  0
 13 14  1  0
 13 12  1  6
 14  5  1  0
 15 13  1  0
 16 15  2  0
 18 17  1  0
 20 19  1  1
 20 21  1  0
 21 15  1  0
 22 24  1  0
 22 20  1  0
 23 22  2  0
M  END
$$$$
