CYA.pdb
     RDKit          3D

 24 24  0  0  1  0  0  0  0  0999 V2000
   22.8281  -12.1244  -19.5125 N   0  0  0  0  0  0  0  0  0  0  0  0
   23.4558  -11.2272  -18.5835 C   0  0  1  0  0  0  0  0  0  0  0  0
   24.4450  -10.3408  -19.3258 C   0  0  0  0  0  0  0  0  0  0  0  0
   25.8144  -11.3537  -19.9449 S   0  0  0  0  0  0  0  0  0  0  0  0
   22.4511  -10.3718  -17.8997 C   0  0  0  0  0  0  0  0  0  0  0  0
   21.4694   -9.9365  -18.5536 O   0  0  0  0  0  0  0  0  0  0  0  0
   16.8252  -13.4636  -17.0633 O   0  0  0  0  0  0  0  0  0  0  0  0
   17.8104  -12.6273  -16.5519 C   0  0  0  0  0  0  0  0  0  0  0  0
   18.9855  -13.1565  -16.0977 C   0  0  0  0  0  0  0  0  0  0  0  0
   19.9640  -12.2988  -15.5870 C   0  0  0  0  0  0  0  0  0  0  0  0
   19.7370  -10.9449  -15.5470 C   0  0  0  0  0  0  0  0  0  0  0  0
   20.7387  -10.0411  -14.9789 C   0  0  0  0  0  0  0  0  0  0  0  0
   21.4737   -9.1649  -15.9273 C   0  0  2  0  0  0  0  0  0  0  0  0
   22.5392  -10.0144  -16.5330 N   0  0  0  0  0  0  0  0  0  0  0  0
   22.0696   -7.9386  -15.3999 C   0  0  0  0  0  0  0  0  0  0  0  0
   23.0942   -7.9768  -14.6144 O   0  0  0  0  0  0  0  0  0  0  0  0
   18.5454  -10.4459  -16.0116 C   0  0  0  0  0  0  0  0  0  0  0  0
   17.5659  -11.2735  -16.5196 C   0  0  0  0  0  0  0  0  0  0  0  0
   21.6824   -4.1936  -15.7853 C   0  0  0  0  0  0  0  0  0  0  0  0
   22.1932   -5.4484  -15.1131 C   0  0  2  0  0  0  0  0  0  0  0  0
   21.6145   -6.6433  -15.6848 N   0  0  0  0  0  0  0  0  0  0  0  0
   22.0604   -5.2996  -13.6706 C   0  0  0  0  0  0  0  0  0  0  0  0
   21.1895   -5.9101  -13.0281 O   0  0  0  0  0  0  0  0  0  0  0  0
   22.9248   -4.4575  -12.9948 O   0  0  0  0  0  0  0  0  0  0  0  0
  2  1  1  6
  2  3  1  0
  3  4  1  0
  5  6  2  0
  5  2  1  0
  7  8  1  0
  8 18  2  0
  9 10  2  0
  9  8  1  0
 10 11  1  0
 11 12  1  0
 11 17  2  0
 13 14  1  0
 13 12  1  1
 14  5  1  0
 15 13  1  0
 16 15  2  0
 18 17  1  0
 20 19  1  6
 20 21  1  0
 21 15  1  0
 22 24  1  0
 22 20  1  0
 23 22  2  0
M  END
$$$$
