CYA.pdb
     RDKit          3D

 24 24  0  0  1  0  0  0  0  0999 V2000
   25.7452  -14.0296  -18.8561 N   0  0  0  0  0  0  0  0  0  0  0  0
   26.1543  -12.7253  -19.2963 C   0  0  1  0  0  0  0  0  0  0  0  0
   26.1683  -12.6861  -20.8174 C   0  0  0  0  0  0  0  0  0  0  0  0
   27.7215  -13.3962  -21.4237 S   0  0  0  0  0  0  0  0  0  0  0  0
   25.2347  -11.6737  -18.7891 C   0  0  0  0  0  0  0  0  0  0  0  0
   23.9959  -11.8099  -18.9555 O   0  0  0  0  0  0  0  0  0  0  0  0
   21.5467   -5.8776  -13.3623 O   0  0  0  0  0  0  0  0  0  0  0  0
   22.3615   -6.7575  -14.0648 C   0  0  0  0  0  0  0  0  0  0  0  0
   22.1235   -8.1018  -14.0055 C   0  0  0  0  0  0  0  0  0  0  0  0
   22.9542   -8.9706  -14.7189 C   0  0  0  0  0  0  0  0  0  0  0  0
   23.9920   -8.4694  -15.4659 C   0  0  0  0  0  0  0  0  0  0  0  0
   24.8916   -9.3722  -16.1861 C   0  0  0  0  0  0  0  0  0  0  0  0
   24.6859   -9.5042  -17.6516 C   0  0  2  0  0  0  0  0  0  0  0  0
   25.6825  -10.5100  -18.1193 N   0  0  0  0  0  0  0  0  0  0  0  0
   24.7947   -8.2953  -18.4664 C   0  0  0  0  0  0  0  0  0  0  0  0
   25.9457   -7.7901  -18.7634 O   0  0  0  0  0  0  0  0  0  0  0  0
   24.2034   -7.1134  -15.5041 C   0  0  0  0  0  0  0  0  0  0  0  0
   23.3964   -6.2378  -14.8080 C   0  0  0  0  0  0  0  0  0  0  0  0
   23.4902   -6.5036  -21.1848 C   0  0  0  0  0  0  0  0  0  0  0  0
   23.8349   -6.3450  -19.7209 C   0  0  2  0  0  0  0  0  0  0  0  0
   23.7054   -7.5888  -18.9958 N   0  0  0  0  0  0  0  0  0  0  0  0
   23.0987   -5.2101  -19.1819 C   0  0  0  0  0  0  0  0  0  0  0  0
   21.9059   -5.3044  -18.8469 O   0  0  0  0  0  0  0  0  0  0  0  0
   23.7411   -3.9936  -19.0378 O   0  0  0  0  0  0  0  0  0  0  0  0
  2  1  1  6
  2  3  1  0
  3  4  1  0
  5  6  2  0
  5  2  1  0
  7  8  1  0
  8 18  2  0
  9 10  2  0
  9  8  1  0
 10 11  1  0
 11 12  1  0
 11 17  2  0
 13 14  1  0
 13 12  1  1
 14  5  1  0
 15 13  1  0
 16 15  2  0
 18 17  1  0
 20 19  1  6
 20 21  1  0
 21 15  1  0
 22 24  1  0
 22 20  1  0
 23 22  2  0
M  END
$$$$
