CYA.pdb
     RDKit          3D

 24 24  0  0  1  0  0  0  0  0999 V2000
   28.6930  -23.0098  -17.8967 N   0  0  0  0  0  0  0  0  0  0  0  0
   28.4116  -21.7159  -17.3410 C   0  0  1  0  0  0  0  0  0  0  0  0
   27.7792  -20.8340  -18.4075 C   0  0  0  0  0  0  0  0  0  0  0  0
   29.0830  -20.0684  -19.4067 S   0  0  0  0  0  0  0  0  0  0  0  0
   27.4881  -21.8181  -16.1810 C   0  0  0  0  0  0  0  0  0  0  0  0
   26.5310  -22.6320  -16.2289 O   0  0  0  0  0  0  0  0  0  0  0  0
   24.3509  -20.6597   -7.9146 O   0  0  0  0  0  0  0  0  0  0  0  0
   25.0546  -20.6460   -9.1129 C   0  0  0  0  0  0  0  0  0  0  0  0
   24.7632  -21.5611  -10.0850 C   0  0  0  0  0  0  0  0  0  0  0  0
   25.4822  -21.5312  -11.2834 C   0  0  0  0  0  0  0  0  0  0  0  0
   26.4655  -20.5909  -11.4705 C   0  0  0  0  0  0  0  0  0  0  0  0
   27.2509  -20.5744  -12.7059 C   0  0  0  0  0  0  0  0  0  0  0  0
   26.6268  -21.1776  -13.9117 C   0  0  2  0  0  0  0  0  0  0  0  0
   27.6282  -21.0386  -15.0080 N   0  0  0  0  0  0  0  0  0  0  0  0
   25.3417  -20.6400  -14.3549 C   0  0  0  0  0  0  0  0  0  0  0  0
   25.2630  -19.4912  -14.9400 O   0  0  0  0  0  0  0  0  0  0  0  0
   26.7330  -19.6857  -10.4736 C   0  0  0  0  0  0  0  0  0  0  0  0
   26.0363  -19.6969   -9.2833 C   0  0  0  0  0  0  0  0  0  0  0  0
   22.0792  -21.4277  -15.5736 C   0  0  0  0  0  0  0  0  0  0  0  0
   22.8365  -20.6743  -14.5032 C   0  0  2  0  0  0  0  0  0  0  0  0
   24.1091  -21.2912  -14.2039 N   0  0  0  0  0  0  0  0  0  0  0  0
   21.9522  -20.4478  -13.3687 C   0  0  0  0  0  0  0  0  0  0  0  0
   22.1421  -20.9997  -12.2717 O   0  0  0  0  0  0  0  0  0  0  0  0
   20.8716  -19.5966  -13.5124 O   0  0  0  0  0  0  0  0  0  0  0  0
  2  1  1  6
  2  3  1  0
  3  4  1  0
  5  6  2  0
  5  2  1  0
  7  8  1  0
  8 18  2  0
  9 10  2  0
  9  8  1  0
 10 11  1  0
 11 12  1  0
 11 17  2  0
 13 14  1  0
 13 12  1  1
 14  5  1  0
 15 13  1  0
 16 15  2  0
 18 17  1  0
 20 19  1  6
 20 21  1  0
 21 15  1  0
 22 24  1  0
 22 20  1  0
 23 22  2  0
M  END
$$$$
