CYA.pdb
     RDKit          3D

 24 24  0  0  1  0  0  0  0  0999 V2000
   31.6959    2.9356   -4.9238 N   0  0  0  0  0  0  0  0  0  0  0  0
   30.4303    2.8104   -4.2569 C   0  0  1  0  0  0  0  0  0  0  0  0
   30.3202    3.8762   -3.1765 C   0  0  0  0  0  0  0  0  0  0  0  0
   31.1802    3.3120   -1.6844 S   0  0  0  0  0  0  0  0  0  0  0  0
   29.3018    2.9645   -5.2117 C   0  0  0  0  0  0  0  0  0  0  0  0
   29.3888    3.8173   -6.1316 O   0  0  0  0  0  0  0  0  0  0  0  0
   22.4079    1.2734  -10.3669 O   0  0  0  0  0  0  0  0  0  0  0  0
   23.4094    1.2335   -9.4041 C   0  0  0  0  0  0  0  0  0  0  0  0
   23.0800    1.1325   -8.0818 C   0  0  0  0  0  0  0  0  0  0  0  0
   24.1016    1.0938   -7.1284 C   0  0  0  0  0  0  0  0  0  0  0  0
   25.4145    1.1570   -7.5264 C   0  0  0  0  0  0  0  0  0  0  0  0
   26.4913    1.1561   -6.5346 C   0  0  0  0  0  0  0  0  0  0  0  0
   27.0001    2.4787   -6.0881 C   0  0  2  0  0  0  0  0  0  0  0  0
   28.1171    2.1933   -5.1422 N   0  0  0  0  0  0  0  0  0  0  0  0
   26.0519    3.3965   -5.4593 C   0  0  0  0  0  0  0  0  0  0  0  0
   25.6485    3.2140   -4.2459 O   0  0  0  0  0  0  0  0  0  0  0  0
   25.7110    1.2579   -8.8630 C   0  0  0  0  0  0  0  0  0  0  0  0
   24.7192    1.2978   -9.8208 C   0  0  0  0  0  0  0  0  0  0  0  0
   24.7540    6.8519   -5.8399 C   0  0  0  0  0  0  0  0  0  0  0  0
   24.5493    5.4067   -5.4441 C   0  0  2  0  0  0  0  0  0  0  0  0
   25.5072    4.5300   -6.0793 N   0  0  0  0  0  0  0  0  0  0  0  0
   23.1465    5.0609   -5.6253 C   0  0  0  0  0  0  0  0  0  0  0  0
   22.2573    5.5356   -4.8987 O   0  0  0  0  0  0  0  0  0  0  0  0
   22.7909    4.1812   -6.6316 O   0  0  0  0  0  0  0  0  0  0  0  0
  2  1  1  6
  2  3  1  0
  3  4  1  0
  5  6  2  0
  5  2  1  0
  7  8  1  0
  8 18  2  0
  9 10  2  0
  9  8  1  0
 10 11  1  0
 11 12  1  0
 11 17  2  0
 13 14  1  0
 13 12  1  1
 14  5  1  0
 15 13  1  0
 16 15  2  0
 18 17  1  0
 20 19  1  6
 20 21  1  0
 21 15  1  0
 22 24  1  0
 22 20  1  0
 23 22  2  0
M  END
$$$$
