CYA.pdb
     RDKit          3D

 24 24  0  0  1  0  0  0  0  0999 V2000
   29.1578  -23.1085  -17.3864 N   0  0  0  0  0  0  0  0  0  0  0  0
   28.4963  -21.8759  -17.0619 C   0  0  1  0  0  0  0  0  0  0  0  0
   27.8048  -21.3309  -18.3029 C   0  0  0  0  0  0  0  0  0  0  0  0
   29.0535  -20.7722  -19.4916 S   0  0  0  0  0  0  0  0  0  0  0  0
   27.4881  -22.0733  -15.9879 C   0  0  0  0  0  0  0  0  0  0  0  0
   26.8834  -23.1728  -15.9089 O   0  0  0  0  0  0  0  0  0  0  0  0
   23.0928  -20.7108   -8.3689 O   0  0  0  0  0  0  0  0  0  0  0  0
   23.9433  -20.6835   -9.4676 C   0  0  0  0  0  0  0  0  0  0  0  0
   25.1875  -21.2418   -9.3806 C   0  0  0  0  0  0  0  0  0  0  0  0
   26.0284  -21.2041  -10.4966 C   0  0  0  0  0  0  0  0  0  0  0  0
   25.5998  -20.6118  -11.6592 C   0  0  0  0  0  0  0  0  0  0  0  0
   26.4859  -20.5325  -12.8219 C   0  0  0  0  0  0  0  0  0  0  0  0
   26.1273  -21.3597  -14.0027 C   0  0  2  0  0  0  0  0  0  0  0  0
   27.1658  -21.0776  -15.0350 N   0  0  0  0  0  0  0  0  0  0  0  0
   24.7991  -21.1760  -14.5852 C   0  0  0  0  0  0  0  0  0  0  0  0
   24.5454  -20.1845  -15.3731 O   0  0  0  0  0  0  0  0  0  0  0  0
   24.3438  -20.0604  -11.7131 C   0  0  0  0  0  0  0  0  0  0  0  0
   23.4974  -20.0861  -10.6243 C   0  0  0  0  0  0  0  0  0  0  0  0
   21.7148  -22.9081  -15.4925 C   0  0  0  0  0  0  0  0  0  0  0  0
   22.3604  -21.7285  -14.8004 C   0  0  2  0  0  0  0  0  0  0  0  0
   23.7061  -22.0261  -14.3644 N   0  0  0  0  0  0  0  0  0  0  0  0
   21.4530  -21.2249  -13.7789 C   0  0  0  0  0  0  0  0  0  0  0  0
   21.6018  -21.5044  -12.5774 O   0  0  0  0  0  0  0  0  0  0  0  0
   20.3968  -20.4139  -14.1524 O   0  0  0  0  0  0  0  0  0  0  0  0
  2  1  1  6
  2  3  1  0
  3  4  1  0
  5  6  2  0
  5  2  1  0
  7  8  1  0
  8 18  2  0
  9 10  2  0
  9  8  1  0
 10 11  1  0
 11 12  1  0
 11 17  2  0
 13 14  1  0
 13 12  1  1
 14  5  1  0
 15 13  1  0
 16 15  2  0
 18 17  1  0
 20 19  1  1
 20 21  1  0
 21 15  1  0
 22 24  1  0
 22 20  1  0
 23 22  2  0
M  END
$$$$
