CYA.pdb
     RDKit          3D

 24 24  0  0  1  0  0  0  0  0999 V2000
   25.1202  -11.2788  -16.6843 N   0  0  0  0  0  0  0  0  0  0  0  0
   23.8446  -10.6612  -16.4531 C   0  0  1  0  0  0  0  0  0  0  0  0
   23.3467  -11.0333  -15.0642 C   0  0  0  0  0  0  0  0  0  0  0  0
   22.9232  -12.7951  -15.0284 S   0  0  0  0  0  0  0  0  0  0  0  0
   23.9365   -9.1816  -16.5588 C   0  0  0  0  0  0  0  0  0  0  0  0
   24.9437   -8.5945  -16.0881 O   0  0  0  0  0  0  0  0  0  0  0  0
   18.3900   -7.7826  -21.4702 O   0  0  0  0  0  0  0  0  0  0  0  0
   19.5778   -7.5064  -20.8036 C   0  0  0  0  0  0  0  0  0  0  0  0
   20.4981   -8.4981  -20.6115 C   0  0  0  0  0  0  0  0  0  0  0  0
   21.6866   -8.2005  -19.9386 C   0  0  0  0  0  0  0  0  0  0  0  0
   21.9159   -6.9260  -19.4813 C   0  0  0  0  0  0  0  0  0  0  0  0
   23.1396   -6.6119  -18.7418 C   0  0  0  0  0  0  0  0  0  0  0  0
   23.1462   -6.9128  -17.2868 C   0  0  2  0  0  0  0  0  0  0  0  0
   22.9384   -8.3848  -17.1689 N   0  0  0  0  0  0  0  0  0  0  0  0
   22.1782   -6.2150  -16.4425 C   0  0  0  0  0  0  0  0  0  0  0  0
   20.9444   -6.5929  -16.3865 O   0  0  0  0  0  0  0  0  0  0  0  0
   20.9705   -5.9529  -19.6911 C   0  0  0  0  0  0  0  0  0  0  0  0
   19.7908   -6.2240  -20.3523 C   0  0  0  0  0  0  0  0  0  0  0  0
   22.0814   -4.1145  -13.4254 C   0  0  0  0  0  0  0  0  0  0  0  0
   21.5064   -4.4577  -14.7813 C   0  0  2  0  0  0  0  0  0  0  0  0
   22.4761   -5.1105  -15.6316 N   0  0  0  0  0  0  0  0  0  0  0  0
   20.8626   -3.2748  -15.3352 C   0  0  0  0  0  0  0  0  0  0  0  0
   19.9755   -2.6633  -14.7163 O   0  0  0  0  0  0  0  0  0  0  0  0
   21.2464   -2.8172  -16.5828 O   0  0  0  0  0  0  0  0  0  0  0  0
  2  1  1  1
  2  3  1  0
  3  4  1  0
  5  6  2  0
  5  2  1  0
  7  8  1  0
  8 18  2  0
  9 10  2  0
  9  8  1  0
 10 11  1  0
 11 12  1  0
 11 17  2  0
 13 14  1  0
 13 12  1  6
 14  5  1  0
 15 13  1  0
 16 15  2  0
 18 17  1  0
 20 19  1  1
 20 21  1  0
 21 15  1  0
 22 24  1  0
 22 20  1  0
 23 22  2  0
M  END
$$$$
