CYA.pdb
     RDKit          3D

 24 24  0  0  1  0  0  0  0  0999 V2000
   21.6399  -34.6805   -5.4821 N   0  0  0  0  0  0  0  0  0  0  0  0
   22.2912  -34.3300   -4.2512 C   0  0  1  0  0  0  0  0  0  0  0  0
   21.7340  -35.1850   -3.1227 C   0  0  0  0  0  0  0  0  0  0  0  0
   21.5803  -34.1780   -1.6238 S   0  0  0  0  0  0  0  0  0  0  0  0
   23.7600  -34.5378   -4.3419 C   0  0  0  0  0  0  0  0  0  0  0  0
   24.2060  -35.4466   -5.0877 O   0  0  0  0  0  0  0  0  0  0  0  0
   26.0578  -31.8099   -9.8483 O   0  0  0  0  0  0  0  0  0  0  0  0
   26.2049  -32.0462   -8.4867 C   0  0  0  0  0  0  0  0  0  0  0  0
   25.3271  -31.4897   -7.5996 C   0  0  0  0  0  0  0  0  0  0  0  0
   25.4918  -31.7391   -6.2341 C   0  0  0  0  0  0  0  0  0  0  0  0
   26.5249  -32.5339   -5.8012 C   0  0  0  0  0  0  0  0  0  0  0  0
   26.7299  -32.7707   -4.3712 C   0  0  0  0  0  0  0  0  0  0  0  0
   26.1563  -34.0181   -3.8035 C   0  0  2  0  0  0  0  0  0  0  0  0
   24.6988  -33.7581   -3.6249 N   0  0  0  0  0  0  0  0  0  0  0  0
   26.7190  -34.5180   -2.5503 C   0  0  0  0  0  0  0  0  0  0  0  0
   26.6111  -33.8452   -1.4531 O   0  0  0  0  0  0  0  0  0  0  0  0
   27.3889  -33.0778   -6.7190 C   0  0  0  0  0  0  0  0  0  0  0  0
   27.2454  -32.8450   -8.0710 C   0  0  0  0  0  0  0  0  0  0  0  0
   28.1283  -37.7282   -1.1808 C   0  0  0  0  0  0  0  0  0  0  0  0
   27.8972  -36.2341   -1.1482 C   0  0  2  0  0  0  0  0  0  0  0  0
   27.4019  -35.7347   -2.4111 N   0  0  0  0  0  0  0  0  0  0  0  0
   29.0897  -35.5823   -0.6253 C   0  0  0  0  0  0  0  0  0  0  0  0
   29.7317  -34.7576   -1.2974 O   0  0  0  0  0  0  0  0  0  0  0  0
   29.5221  -35.8869    0.6527 O   0  0  0  0  0  0  0  0  0  0  0  0
  2  1  1  6
  2  3  1  0
  3  4  1  0
  5  6  2  0
  5  2  1  0
  7  8  1  0
  8 18  2  0
  9 10  2  0
  9  8  1  0
 10 11  1  0
 11 12  1  0
 11 17  2  0
 13 14  1  0
 13 12  1  1
 14  5  1  0
 15 13  1  0
 16 15  2  0
 18 17  1  0
 20 19  1  6
 20 21  1  0
 21 15  1  0
 22 24  1  0
 22 20  1  0
 23 22  2  0
M  END
$$$$
