CYA.pdb
     RDKit          3D

 24 24  0  0  1  0  0  0  0  0999 V2000
   28.7841  -22.6140  -17.1456 N   0  0  0  0  0  0  0  0  0  0  0  0
   27.7621  -21.6068  -17.0886 C   0  0  1  0  0  0  0  0  0  0  0  0
   27.0049  -21.5792  -18.4081 C   0  0  0  0  0  0  0  0  0  0  0  0
   27.9526  -20.6298  -19.6266 S   0  0  0  0  0  0  0  0  0  0  0  0
   26.8060  -21.8728  -15.9823 C   0  0  0  0  0  0  0  0  0  0  0  0
   26.4425  -23.0551  -15.7568 O   0  0  0  0  0  0  0  0  0  0  0  0
   22.8681  -20.8602   -8.1139 O   0  0  0  0  0  0  0  0  0  0  0  0
   23.5847  -20.7423   -9.2989 C   0  0  0  0  0  0  0  0  0  0  0  0
   24.8569  -21.2347   -9.3780 C   0  0  0  0  0  0  0  0  0  0  0  0
   25.5614  -21.1064  -10.5785 C   0  0  0  0  0  0  0  0  0  0  0  0
   24.9734  -20.4923  -11.6571 C   0  0  0  0  0  0  0  0  0  0  0  0
   25.7153  -20.3180  -12.9071 C   0  0  0  0  0  0  0  0  0  0  0  0
   25.3644  -21.2216  -14.0329 C   0  0  2  0  0  0  0  0  0  0  0  0
   26.2740  -20.8541  -15.1560 N   0  0  0  0  0  0  0  0  0  0  0  0
   23.9809  -21.2163  -14.5051 C   0  0  0  0  0  0  0  0  0  0  0  0
   23.5360  -20.2691  -15.2621 O   0  0  0  0  0  0  0  0  0  0  0  0
   23.6936  -20.0087  -11.5441 C   0  0  0  0  0  0  0  0  0  0  0  0
   22.9800  -20.1242  -10.3693 C   0  0  0  0  0  0  0  0  0  0  0  0
   21.2286  -23.5178  -15.2223 C   0  0  0  0  0  0  0  0  0  0  0  0
   21.6681  -22.1741  -14.6853 C   0  0  2  0  0  0  0  0  0  0  0  0
   23.0308  -22.2025  -14.2038 N   0  0  0  0  0  0  0  0  0  0  0  0
   20.6669  -21.6899  -13.7454 C   0  0  0  0  0  0  0  0  0  0  0  0
   20.8188  -21.7956  -12.5167 O   0  0  0  0  0  0  0  0  0  0  0  0
   19.5153  -21.0963  -14.2297 O   0  0  0  0  0  0  0  0  0  0  0  0
  2  1  1  6
  2  3  1  0
  3  4  1  0
  5  6  2  0
  5  2  1  0
  7  8  1  0
  8 18  2  0
  9 10  2  0
  9  8  1  0
 10 11  1  0
 11 12  1  0
 11 17  2  0
 13 14  1  0
 13 12  1  1
 14  5  1  0
 15 13  1  0
 16 15  2  0
 18 17  1  0
 20 19  1  1
 20 21  1  0
 21 15  1  0
 22 24  1  0
 22 20  1  0
 23 22  2  0
M  END
$$$$
