CYA.pdb
     RDKit          3D

 24 24  0  0  1  0  0  0  0  0999 V2000
   28.4459  -20.7179  -18.1384 N   0  0  0  0  0  0  0  0  0  0  0  0
   27.7636  -21.5364  -17.1760 C   0  0  1  0  0  0  0  0  0  0  0  0
   28.7793  -22.1535  -16.2258 C   0  0  0  0  0  0  0  0  0  0  0  0
   27.9110  -23.1062  -14.9519 S   0  0  0  0  0  0  0  0  0  0  0  0
   26.7825  -20.7410  -16.3926 C   0  0  0  0  0  0  0  0  0  0  0  0
   27.1286  -19.6246  -15.9291 O   0  0  0  0  0  0  0  0  0  0  0  0
   19.3859  -17.0069  -13.5843 O   0  0  0  0  0  0  0  0  0  0  0  0
   20.3586  -17.7840  -14.2018 C   0  0  0  0  0  0  0  0  0  0  0  0
   20.4538  -19.1156  -13.9100 C   0  0  0  0  0  0  0  0  0  0  0  0
   21.4388  -19.8805  -14.5414 C   0  0  0  0  0  0  0  0  0  0  0  0
   22.2938  -19.2916  -15.4405 C   0  0  0  0  0  0  0  0  0  0  0  0
   23.3537  -20.0743  -16.0787 C   0  0  0  0  0  0  0  0  0  0  0  0
   24.5708  -20.3482  -15.2719 C   0  0  2  0  0  0  0  0  0  0  0  0
   25.4606  -21.1766  -16.1355 N   0  0  0  0  0  0  0  0  0  0  0  0
   24.3968  -21.0068  -13.9784 C   0  0  0  0  0  0  0  0  0  0  0  0
   23.9548  -22.2178  -13.8983 O   0  0  0  0  0  0  0  0  0  0  0  0
   22.1710  -17.9513  -15.7111 C   0  0  0  0  0  0  0  0  0  0  0  0
   21.2065  -17.1775  -15.0999 C   0  0  0  0  0  0  0  0  0  0  0  0
   24.9917  -20.3935  -10.3050 C   0  0  0  0  0  0  0  0  0  0  0  0
   24.2053  -20.9367  -11.4770 C   0  0  2  0  0  0  0  0  0  0  0  0
   24.6859  -20.4196  -12.7384 N   0  0  0  0  0  0  0  0  0  0  0  0
   22.7836  -20.7630  -11.2138 C   0  0  0  0  0  0  0  0  0  0  0  0
   22.0914  -19.9627  -11.8651 O   0  0  0  0  0  0  0  0  0  0  0  0
   22.1849  -21.5069  -10.2131 O   0  0  0  0  0  0  0  0  0  0  0  0
  2  1  1  6
  2  3  1  0
  3  4  1  0
  5  6  2  0
  5  2  1  0
  7  8  1  0
  8 18  2  0
  9 10  2  0
  9  8  1  0
 10 11  1  0
 11 12  1  0
 11 17  2  0
 13 14  1  0
 13 12  1  6
 14  5  1  0
 15 13  1  0
 16 15  2  0
 18 17  1  0
 20 19  1  1
 20 21  1  0
 21 15  1  0
 22 24  1  0
 22 20  1  0
 23 22  2  0
M  END
$$$$
