CYA.pdb
     RDKit          3D

 24 24  0  0  1  0  0  0  0  0999 V2000
   21.2124   -0.5084  -14.7696 N   0  0  0  0  0  0  0  0  0  0  0  0
   21.6745    0.7979  -14.3925 C   0  0  1  0  0  0  0  0  0  0  0  0
   20.6795    1.8444  -14.8721 C   0  0  0  0  0  0  0  0  0  0  0  0
   20.9860    2.2100  -16.6205 S   0  0  0  0  0  0  0  0  0  0  0  0
   21.8280    0.9092  -12.9184 C   0  0  0  0  0  0  0  0  0  0  0  0
   21.0198    0.3028  -12.1701 O   0  0  0  0  0  0  0  0  0  0  0  0
   25.4880    2.3416   -5.0064 O   0  0  0  0  0  0  0  0  0  0  0  0
   25.2056    2.1440   -6.3528 C   0  0  0  0  0  0  0  0  0  0  0  0
   25.5914    3.0765   -7.2742 C   0  0  0  0  0  0  0  0  0  0  0  0
   25.2980    2.8598   -8.6236 C   0  0  0  0  0  0  0  0  0  0  0  0
   24.6309    1.7221   -9.0068 C   0  0  0  0  0  0  0  0  0  0  0  0
   24.2845    1.5030  -10.4122 C   0  0  0  0  0  0  0  0  0  0  0  0
   22.8819    1.7831  -10.8142 C   0  0  2  0  0  0  0  0  0  0  0  0
   22.8484    1.6712  -12.3009 N   0  0  0  0  0  0  0  0  0  0  0  0
   22.2992    3.0610  -10.4087 C   0  0  0  0  0  0  0  0  0  0  0  0
   22.6211    4.1616  -11.0030 O   0  0  0  0  0  0  0  0  0  0  0  0
   24.2577    0.8052   -8.0557 C   0  0  0  0  0  0  0  0  0  0  0  0
   24.5366    0.9986   -6.7188 C   0  0  0  0  0  0  0  0  0  0  0  0
   19.4374    4.6979   -9.0222 C   0  0  0  0  0  0  0  0  0  0  0  0
   20.9308    4.5066   -8.8801 C   0  0  2  0  0  0  0  0  0  0  0  0
   21.3620    3.2198   -9.3779 N   0  0  0  0  0  0  0  0  0  0  0  0
   21.3210    4.8283   -7.5145 C   0  0  0  0  0  0  0  0  0  0  0  0
   21.9211    4.0108   -6.7965 O   0  0  0  0  0  0  0  0  0  0  0  0
   21.0173    6.0758   -7.0001 O   0  0  0  0  0  0  0  0  0  0  0  0
  2  1  1  1
  2  3  1  0
  3  4  1  0
  5  6  2  0
  5  2  1  0
  7  8  1  0
  8 18  2  0
  9 10  2  0
  9  8  1  0
 10 11  1  0
 11 12  1  0
 11 17  2  0
 13 14  1  0
 13 12  1  6
 14  5  1  0
 15 13  1  0
 16 15  2  0
 18 17  1  0
 20 19  1  1
 20 21  1  0
 21 15  1  0
 22 24  1  0
 22 20  1  0
 23 22  2  0
M  END
$$$$
