CYA.pdb
     RDKit          3D

 24 24  0  0  1  0  0  0  0  0999 V2000
   28.2912  -12.8531  -18.5908 N   0  0  0  0  0  0  0  0  0  0  0  0
   28.3831  -11.4917  -18.1434 C   0  0  1  0  0  0  0  0  0  0  0  0
   29.0098  -10.6407  -19.2380 C   0  0  0  0  0  0  0  0  0  0  0  0
   28.0250  -10.7868  -20.7524 S   0  0  0  0  0  0  0  0  0  0  0  0
   27.0429  -10.9447  -17.8065 C   0  0  0  0  0  0  0  0  0  0  0  0
   26.0255  -11.4255  -18.3676 O   0  0  0  0  0  0  0  0  0  0  0  0
   20.1106   -8.6930  -13.0921 O   0  0  0  0  0  0  0  0  0  0  0  0
   21.3758   -8.9393  -13.6117 C   0  0  0  0  0  0  0  0  0  0  0  0
   21.7203  -10.2044  -13.9965 C   0  0  0  0  0  0  0  0  0  0  0  0
   22.9977  -10.4319  -14.5166 C   0  0  0  0  0  0  0  0  0  0  0  0
   23.8860   -9.3912  -14.6348 C   0  0  0  0  0  0  0  0  0  0  0  0
   25.2393   -9.6248  -15.1421 C   0  0  0  0  0  0  0  0  0  0  0  0
   25.4613   -9.4163  -16.5962 C   0  0  2  0  0  0  0  0  0  0  0  0
   26.8450   -9.8971  -16.8755 N   0  0  0  0  0  0  0  0  0  0  0  0
   25.3008   -8.0621  -17.1227 C   0  0  0  0  0  0  0  0  0  0  0  0
   26.2383   -7.1819  -17.0022 O   0  0  0  0  0  0  0  0  0  0  0  0
   23.5080   -8.1322  -14.2389 C   0  0  0  0  0  0  0  0  0  0  0  0
   22.2530   -7.8848  -13.7230 C   0  0  0  0  0  0  0  0  0  0  0  0
   23.1104   -6.1703  -19.4898 C   0  0  0  0  0  0  0  0  0  0  0  0
   24.0172   -6.2433  -18.2818 C   0  0  2  0  0  0  0  0  0  0  0  0
   24.1607   -7.5961  -17.7929 N   0  0  0  0  0  0  0  0  0  0  0  0
   23.5858   -5.2523  -17.3060 C   0  0  0  0  0  0  0  0  0  0  0  0
   23.5854   -4.0370  -17.5652 O   0  0  0  0  0  0  0  0  0  0  0  0
   23.1649   -5.6712  -16.0569 O   0  0  0  0  0  0  0  0  0  0  0  0
  2  1  1  6
  2  3  1  0
  3  4  1  0
  5  6  2  0
  5  2  1  0
  7  8  1  0
  8 18  2  0
  9 10  2  0
  9  8  1  0
 10 11  1  0
 11 12  1  0
 11 17  2  0
 13 14  1  0
 13 12  1  1
 14  5  1  0
 15 13  1  0
 16 15  2  0
 18 17  1  0
 20 19  1  6
 20 21  1  0
 21 15  1  0
 22 24  1  0
 22 20  1  0
 23 22  2  0
M  END
$$$$
