CYA.pdb
     RDKit          3D

 24 24  0  0  1  0  0  0  0  0999 V2000
   15.4098   -8.3753   -9.2131 N   0  0  0  0  0  0  0  0  0  0  0  0
   15.7450   -7.2135   -9.9878 C   0  0  1  0  0  0  0  0  0  0  0  0
   15.8469   -6.0049   -9.0689 C   0  0  0  0  0  0  0  0  0  0  0  0
   14.1876   -5.5219   -8.5231 S   0  0  0  0  0  0  0  0  0  0  0  0
   17.0368   -7.3961  -10.6996 C   0  0  0  0  0  0  0  0  0  0  0  0
   18.0323   -7.8262  -10.0633 O   0  0  0  0  0  0  0  0  0  0  0  0
   23.2871  -10.2976  -15.7159 O   0  0  0  0  0  0  0  0  0  0  0  0
   22.0824   -9.7931  -15.2406 C   0  0  0  0  0  0  0  0  0  0  0  0
   21.4835   -8.7439  -15.8792 C   0  0  0  0  0  0  0  0  0  0  0  0
   20.2722   -8.2507  -15.3859 C   0  0  0  0  0  0  0  0  0  0  0  0
   19.7009   -8.8201  -14.2743 C   0  0  0  0  0  0  0  0  0  0  0  0
   18.4524   -8.2871  -13.7262 C   0  0  0  0  0  0  0  0  0  0  0  0
   18.5667   -7.2351  -12.6834 C   0  0  2  0  0  0  0  0  0  0  0  0
   17.2114   -7.1085  -12.0745 N   0  0  0  0  0  0  0  0  0  0  0  0
   19.0403   -5.9152  -13.0963 C   0  0  0  0  0  0  0  0  0  0  0  0
   18.2169   -5.0038  -13.4959 O   0  0  0  0  0  0  0  0  0  0  0  0
   20.3288   -9.8731  -13.6566 C   0  0  0  0  0  0  0  0  0  0  0  0
   21.5244  -10.3758  -14.1259 C   0  0  0  0  0  0  0  0  0  0  0  0
   22.3322   -4.0672  -13.4541 C   0  0  0  0  0  0  0  0  0  0  0  0
   20.8330   -4.2251  -13.5748 C   0  0  2  0  0  0  0  0  0  0  0  0
   20.3836   -5.5128  -13.0959 N   0  0  0  0  0  0  0  0  0  0  0  0
   20.4270   -3.8674  -14.9267 C   0  0  0  0  0  0  0  0  0  0  0  0
   20.3821   -4.7090  -15.8397 O   0  0  0  0  0  0  0  0  0  0  0  0
   20.0817   -2.5574  -15.2052 O   0  0  0  0  0  0  0  0  0  0  0  0
  2  1  1  1
  2  3  1  0
  3  4  1  0
  5  6  2  0
  5  2  1  0
  7  8  1  0
  8 18  2  0
  9 10  2  0
  9  8  1  0
 10 11  1  0
 11 12  1  0
 11 17  2  0
 13 14  1  0
 13 12  1  6
 14  5  1  0
 15 13  1  0
 16 15  2  0
 18 17  1  0
 20 19  1  6
 20 21  1  0
 21 15  1  0
 22 24  1  0
 22 20  1  0
 23 22  2  0
M  END
$$$$
