CYA.pdb
     RDKit          3D

 24 24  0  0  1  0  0  0  0  0999 V2000
   24.0825  -12.2836  -17.5720 N   0  0  0  0  0  0  0  0  0  0  0  0
   24.1760  -11.4968  -16.3745 C   0  0  1  0  0  0  0  0  0  0  0  0
   25.6095  -11.0198  -16.1932 C   0  0  0  0  0  0  0  0  0  0  0  0
   26.6393  -12.4044  -15.6394 S   0  0  0  0  0  0  0  0  0  0  0  0
   23.2729  -10.3179  -16.4337 C   0  0  0  0  0  0  0  0  0  0  0  0
   23.1119   -9.7230  -17.5296 O   0  0  0  0  0  0  0  0  0  0  0  0
   17.7118  -13.1258  -18.1838 O   0  0  0  0  0  0  0  0  0  0  0  0
   18.3347  -12.1684  -17.3920 C   0  0  0  0  0  0  0  0  0  0  0  0
   18.3537  -10.8615  -17.7906 C   0  0  0  0  0  0  0  0  0  0  0  0
   18.9853   -9.9135  -16.9805 C   0  0  0  0  0  0  0  0  0  0  0  0
   19.5752  -10.3012  -15.8025 C   0  0  0  0  0  0  0  0  0  0  0  0
   20.2728   -9.3237  -14.9651 C   0  0  0  0  0  0  0  0  0  0  0  0
   21.5409   -8.7609  -15.4967 C   0  0  2  0  0  0  0  0  0  0  0  0
   22.5734   -9.8202  -15.3083 N   0  0  0  0  0  0  0  0  0  0  0  0
   22.0217   -7.5048  -14.9240 C   0  0  0  0  0  0  0  0  0  0  0  0
   22.4488   -7.4448  -13.7065 O   0  0  0  0  0  0  0  0  0  0  0  0
   19.5380  -11.6223  -15.4312 C   0  0  0  0  0  0  0  0  0  0  0  0
   18.9206  -12.5747  -16.2150 C   0  0  0  0  0  0  0  0  0  0  0  0
   22.7549   -3.9715  -16.0669 C   0  0  0  0  0  0  0  0  0  0  0  0
   22.5928   -5.0633  -15.0332 C   0  0  2  0  0  0  0  0  0  0  0  0
   22.0743   -6.2831  -15.6101 N   0  0  0  0  0  0  0  0  0  0  0  0
   21.8582   -4.5310  -13.8941 C   0  0  0  0  0  0  0  0  0  0  0  0
   20.6968   -4.8916  -13.6392 O   0  0  0  0  0  0  0  0  0  0  0  0
   22.4662   -3.5992  -13.0724 O   0  0  0  0  0  0  0  0  0  0  0  0
  2  1  1  6
  2  3  1  0
  3  4  1  0
  5  6  2  0
  5  2  1  0
  7  8  1  0
  8 18  2  0
  9 10  2  0
  9  8  1  0
 10 11  1  0
 11 12  1  0
 11 17  2  0
 13 14  1  0
 13 12  1  1
 14  5  1  0
 15 13  1  0
 16 15  2  0
 18 17  1  0
 20 19  1  6
 20 21  1  0
 21 15  1  0
 22 24  1  0
 22 20  1  0
 23 22  2  0
M  END
$$$$
