PTC.pdb
     RDKit          3D

 21 21  0  0  1  0  0  0  0  0999 V2000
   22.3334  -13.1050  -17.3890 N   0  0  0  0  0  0  0  0  0  0  0  0
   22.5343  -14.5091  -17.7241 C   0  0  0  0  0  0  0  0  0  0  0  0
   23.7562  -14.4386  -18.6113 C   0  0  0  0  0  0  0  0  0  0  0  0
   24.5164  -13.2318  -18.0922 C   0  0  0  0  0  0  0  0  0  0  0  0
   23.6492  -12.7244  -16.9719 C   0  0  1  0  0  0  0  0  0  0  0  0
   23.8004  -11.2585  -16.7966 C   0  0  0  0  0  0  0  0  0  0  0  0
   24.9025  -10.7978  -16.4278 O   0  0  0  0  0  0  0  0  0  0  0  0
   23.3549   -8.5507  -19.1579 C   0  0  0  0  0  0  0  0  0  0  0  0
   22.3352   -8.2253  -18.0575 C   0  0  1  0  0  0  0  0  0  0  0  0
   21.0906   -8.5337  -18.5519 O   0  0  0  0  0  0  0  0  0  0  0  0
   22.7200   -8.9551  -16.7977 C   0  0  2  0  0  0  0  0  0  0  0  0
   22.7333  -10.3635  -17.0345 N   0  0  0  0  0  0  0  0  0  0  0  0
   21.9486   -8.5273  -15.6082 C   0  0  0  0  0  0  0  0  0  0  0  0
   21.1590   -9.3507  -15.0679 O   0  0  0  0  0  0  0  0  0  0  0  0
   22.0409   -7.2514  -15.0413 N   0  0  0  0  0  0  0  0  0  0  0  0
   21.2566   -6.7919  -13.9162 C   0  0  1  0  0  0  0  0  0  0  0  0
   21.4005   -7.6472  -12.6991 C   0  0  0  0  0  0  0  0  0  0  0  0
   20.3375   -6.9465  -11.4009 S   0  0  0  0  0  0  0  0  0  0  0  0
   21.5577   -5.3565  -13.6220 C   0  0  0  0  0  0  0  0  0  0  0  0
   20.5586   -4.4411  -13.3393 O   0  0  0  0  0  0  0  0  0  0  0  0
   22.7406   -4.9816  -13.6334 O   0  0  0  0  0  0  0  0  0  0  0  0
  1  5  1  0
  2  3  1  0
  2  1  1  0
  3  4  1  0
  4  5  1  0
  5  6  1  6
  6  7  2  0
  9  8  1  6
  9 11  1  0
 10  9  1  0
 11 12  1  6
 11 13  1  0
 12  6  1  0
 13 14  2  0
 13 15  1  0
 15 16  1  0
 16 19  1  0
 16 17  1  1
 18 17  1  0
 19 21  2  0
 19 20  1  0
M  END
$$$$
