PTC.pdb
     RDKit          3D

 21 21  0  0  1  0  0  0  0  0999 V2000
   23.8263  -12.2215  -15.4001 N   0  0  0  0  0  0  0  0  0  0  0  0
   24.6788  -13.3819  -15.6253 C   0  0  0  0  0  0  0  0  0  0  0  0
   24.1101  -13.9321  -16.9132 C   0  0  0  0  0  0  0  0  0  0  0  0
   23.5770  -12.7059  -17.6314 C   0  0  0  0  0  0  0  0  0  0  0  0
   23.8798  -11.5805  -16.6793 C   0  0  1  0  0  0  0  0  0  0  0  0
   22.8946  -10.4795  -16.8178 C   0  0  0  0  0  0  0  0  0  0  0  0
   22.9415   -9.7408  -17.8252 O   0  0  0  0  0  0  0  0  0  0  0  0
   19.2567  -10.7427  -16.9405 C   0  0  0  0  0  0  0  0  0  0  0  0
   19.5323   -9.8493  -15.7230 C   0  0  1  0  0  0  0  0  0  0  0  0
   19.3641  -10.6260  -14.6019 O   0  0  0  0  0  0  0  0  0  0  0  0
   20.8951   -9.2252  -15.8681 C   0  0  2  0  0  0  0  0  0  0  0  0
   21.9010  -10.2388  -15.8424 N   0  0  0  0  0  0  0  0  0  0  0  0
   21.1262   -8.0900  -14.9457 C   0  0  0  0  0  0  0  0  0  0  0  0
   21.8548   -8.2704  -13.9309 O   0  0  0  0  0  0  0  0  0  0  0  0
   20.5784   -6.8159  -15.1310 N   0  0  0  0  0  0  0  0  0  0  0  0
   20.9452   -5.6433  -14.3678 C   0  0  1  0  0  0  0  0  0  0  0  0
   22.4109   -5.3518  -14.3885 C   0  0  0  0  0  0  0  0  0  0  0  0
   22.7007   -3.8948  -13.3400 S   0  0  0  0  0  0  0  0  0  0  0  0
   20.1401   -4.4617  -14.8076 C   0  0  0  0  0  0  0  0  0  0  0  0
   19.5152   -3.6223  -13.9016 O   0  0  0  0  0  0  0  0  0  0  0  0
   20.0333   -4.2328  -16.0226 O   0  0  0  0  0  0  0  0  0  0  0  0
  1  5  1  0
  2  3  1  0
  2  1  1  0
  3  4  1  0
  4  5  1  0
  5  6  1  1
  6  7  2  0
  9  8  1  6
  9 11  1  0
 10  9  1  0
 11 12  1  1
 11 13  1  0
 12  6  1  0
 13 14  2  0
 13 15  1  0
 15 16  1  0
 16 19  1  0
 16 17  1  6
 18 17  1  0
 19 21  2  0
 19 20  1  0
M  END
$$$$
