PTC.pdb
     RDKit          3D

 21 21  0  0  1  0  0  0  0  0999 V2000
   23.9064  -17.9844  -16.8431 N   0  0  0  0  0  0  0  0  0  0  0  0
   23.5963  -17.2954  -18.0894 C   0  0  0  0  0  0  0  0  0  0  0  0
   23.7404  -18.4117  -19.0984 C   0  0  0  0  0  0  0  0  0  0  0  0
   23.3680  -19.6598  -18.3191 C   0  0  0  0  0  0  0  0  0  0  0  0
   23.0627  -19.1371  -16.9415 C   0  0  1  0  0  0  0  0  0  0  0  0
   23.3514  -20.1572  -15.9032 C   0  0  0  0  0  0  0  0  0  0  0  0
   22.6432  -21.1856  -15.8435 O   0  0  0  0  0  0  0  0  0  0  0  0
   26.1010  -22.1226  -15.6809 C   0  0  0  0  0  0  0  0  0  0  0  0
   26.1453  -21.5059  -14.2758 C   0  0  1  0  0  0  0  0  0  0  0  0
   27.1893  -20.6125  -14.2562 O   0  0  0  0  0  0  0  0  0  0  0  0
   24.7968  -20.9185  -13.9527 C   0  0  2  0  0  0  0  0  0  0  0  0
   24.4062  -20.0018  -14.9760 N   0  0  0  0  0  0  0  0  0  0  0  0
   24.6963  -20.3949  -12.5712 C   0  0  0  0  0  0  0  0  0  0  0  0
   24.6910  -19.1452  -12.3940 O   0  0  0  0  0  0  0  0  0  0  0  0
   24.6078  -21.2098  -11.4372 N   0  0  0  0  0  0  0  0  0  0  0  0
   24.7605  -20.7454  -10.0759 C   0  0  1  0  0  0  0  0  0  0  0  0
   24.3920  -21.7689   -9.0511 C   0  0  0  0  0  0  0  0  0  0  0  0
   24.6245  -21.0191   -7.4110 S   0  0  0  0  0  0  0  0  0  0  0  0
   26.1425  -20.2166   -9.8572 C   0  0  0  0  0  0  0  0  0  0  0  0
   26.3863  -19.1088   -9.0637 O   0  0  0  0  0  0  0  0  0  0  0  0
   27.0946  -20.7928  -10.4062 O   0  0  0  0  0  0  0  0  0  0  0  0
  1  5  1  0
  2  3  1  0
  2  1  1  0
  3  4  1  0
  4  5  1  0
  5  6  1  1
  6  7  2  0
  9  8  1  6
  9 11  1  0
 10  9  1  0
 11 12  1  6
 11 13  1  0
 12  6  1  0
 13 14  2  0
 13 15  1  0
 15 16  1  0
 16 19  1  0
 16 17  1  1
 18 17  1  0
 19 21  2  0
 19 20  1  0
M  END
$$$$
