PTC.pdb
     RDKit          3D

 21 21  0  0  1  0  0  0  0  0999 V2000
   18.4544  -13.3288  -16.4687 N   0  0  0  0  0  0  0  0  0  0  0  0
   17.0935  -13.8394  -16.3617 C   0  0  0  0  0  0  0  0  0  0  0  0
   16.5611  -13.0440  -15.1917 C   0  0  0  0  0  0  0  0  0  0  0  0
   17.3249  -11.7343  -15.2613 C   0  0  0  0  0  0  0  0  0  0  0  0
   18.2266  -11.9152  -16.4524 C   0  0  1  0  0  0  0  0  0  0  0  0
   19.4761  -11.1283  -16.3053 C   0  0  0  0  0  0  0  0  0  0  0  0
   20.3549  -11.5209  -15.5075 O   0  0  0  0  0  0  0  0  0  0  0  0
   21.6352  -10.0786  -19.1503 C   0  0  0  0  0  0  0  0  0  0  0  0
   21.3074   -8.7791  -18.4019 C   0  0  1  0  0  0  0  0  0  0  0  0
   20.3825   -8.0975  -19.1559 O   0  0  0  0  0  0  0  0  0  0  0  0
   20.8664   -9.1146  -17.0016 C   0  0  2  0  0  0  0  0  0  0  0  0
   19.7046   -9.9443  -17.0417 N   0  0  0  0  0  0  0  0  0  0  0  0
   20.7615   -7.9323  -16.1161 C   0  0  0  0  0  0  0  0  0  0  0  0
   19.6344   -7.3843  -15.9654 O   0  0  0  0  0  0  0  0  0  0  0  0
   21.8477   -7.3779  -15.4301 N   0  0  0  0  0  0  0  0  0  0  0  0
   21.7807   -6.1937  -14.6023 C   0  0  1  0  0  0  0  0  0  0  0  0
   22.3259   -6.3961  -13.2256 C   0  0  0  0  0  0  0  0  0  0  0  0
   22.3109   -4.7856  -12.3816 S   0  0  0  0  0  0  0  0  0  0  0  0
   22.4342   -5.0380  -15.2914 C   0  0  0  0  0  0  0  0  0  0  0  0
   23.2503   -5.2095  -16.3963 O   0  0  0  0  0  0  0  0  0  0  0  0
   22.2348   -3.8938  -14.8544 O   0  0  0  0  0  0  0  0  0  0  0  0
  1  5  1  0
  2  3  1  0
  2  1  1  0
  3  4  1  0
  4  5  1  0
  5  6  1  1
  6  7  2  0
  9  8  1  6
  9 11  1  0
 10  9  1  0
 11 12  1  6
 11 13  1  0
 12  6  1  0
 13 14  2  0
 13 15  1  0
 15 16  1  0
 16 19  1  0
 16 17  1  1
 18 17  1  0
 19 21  2  0
 19 20  1  0
M  END
$$$$
