PTC.pdb
     RDKit          3D

 21 21  0  0  1  0  0  0  0  0999 V2000
   24.5204  -12.8897  -18.6444 N   0  0  0  0  0  0  0  0  0  0  0  0
   24.5268  -14.2706  -19.1105 C   0  0  0  0  0  0  0  0  0  0  0  0
   25.5620  -14.8937  -18.2022 C   0  0  0  0  0  0  0  0  0  0  0  0
   25.4614  -14.0836  -16.9226 C   0  0  0  0  0  0  0  0  0  0  0  0
   24.3917  -13.0709  -17.2298 C   0  0  1  0  0  0  0  0  0  0  0  0
   24.6017  -11.8177  -16.4634 C   0  0  0  0  0  0  0  0  0  0  0  0
   24.6205  -11.8614  -15.2141 O   0  0  0  0  0  0  0  0  0  0  0  0
   27.4142   -9.6488  -16.7781 C   0  0  0  0  0  0  0  0  0  0  0  0
   26.2494   -8.6713  -16.9879 C   0  0  1  0  0  0  0  0  0  0  0  0
   26.2384   -8.3309  -18.3193 O   0  0  0  0  0  0  0  0  0  0  0  0
   24.9794   -9.3017  -16.4802 C   0  0  2  0  0  0  0  0  0  0  0  0
   24.7818  -10.5712  -17.1039 N   0  0  0  0  0  0  0  0  0  0  0  0
   23.8106   -8.3936  -16.5241 C   0  0  0  0  0  0  0  0  0  0  0  0
   22.9712   -8.5285  -17.4571 O   0  0  0  0  0  0  0  0  0  0  0  0
   23.5780   -7.3824  -15.5854 N   0  0  0  0  0  0  0  0  0  0  0  0
   22.5269   -6.3938  -15.6839 C   0  0  1  0  0  0  0  0  0  0  0  0
   21.1953   -6.8899  -15.2208 C   0  0  0  0  0  0  0  0  0  0  0  0
   20.0303   -5.4955  -15.2894 S   0  0  0  0  0  0  0  0  0  0  0  0
   22.9250   -5.1369  -14.9772 C   0  0  0  0  0  0  0  0  0  0  0  0
   22.1902   -3.9691  -15.0888 O   0  0  0  0  0  0  0  0  0  0  0  0
   23.9456   -5.1482  -14.2713 O   0  0  0  0  0  0  0  0  0  0  0  0
  1  5  1  0
  2  3  1  0
  2  1  1  0
  3  4  1  0
  4  5  1  0
  5  6  1  1
  6  7  2  0
  9  8  1  6
  9 11  1  0
 10  9  1  0
 11 12  1  6
 11 13  1  0
 12  6  1  0
 13 14  2  0
 13 15  1  0
 15 16  1  0
 16 19  1  0
 16 17  1  1
 18 17  1  0
 19 21  2  0
 19 20  1  0
M  END
$$$$
