PTC.pdb
     RDKit          3D

 21 21  0  0  1  0  0  0  0  0999 V2000
   23.0587  -18.4652  -16.5894 N   0  0  0  0  0  0  0  0  0  0  0  0
   22.3378  -18.0552  -17.7879 C   0  0  0  0  0  0  0  0  0  0  0  0
   22.8206  -19.0724  -18.7965 C   0  0  0  0  0  0  0  0  0  0  0  0
   23.1112  -20.3063  -17.9617 C   0  0  0  0  0  0  0  0  0  0  0  0
   22.7804  -19.8694  -16.5603 C   0  0  1  0  0  0  0  0  0  0  0  0
   23.5981  -20.6018  -15.5617 C   0  0  0  0  0  0  0  0  0  0  0  0
   23.3832  -21.8184  -15.3701 O   0  0  0  0  0  0  0  0  0  0  0  0
   27.0372  -21.3275  -15.5360 C   0  0  0  0  0  0  0  0  0  0  0  0
   26.8833  -20.5172  -14.2413 C   0  0  1  0  0  0  0  0  0  0  0  0
   27.3910  -19.2634  -14.4831 O   0  0  0  0  0  0  0  0  0  0  0  0
   25.4411  -20.5489  -13.8086 C   0  0  2  0  0  0  0  0  0  0  0  0
   24.6162  -19.9646  -14.8176 N   0  0  0  0  0  0  0  0  0  0  0  0
   25.2232  -20.0253  -12.4407 C   0  0  0  0  0  0  0  0  0  0  0  0
   24.8196  -18.8374  -12.3020 O   0  0  0  0  0  0  0  0  0  0  0  0
   25.4417  -20.7745  -11.2793 N   0  0  0  0  0  0  0  0  0  0  0  0
   25.3711  -20.2472   -9.9343 C   0  0  1  0  0  0  0  0  0  0  0  0
   24.3696  -20.9445   -9.0715 C   0  0  0  0  0  0  0  0  0  0  0  0
   22.7183  -20.5986   -9.7495 S   0  0  0  0  0  0  0  0  0  0  0  0
   26.7289  -20.2357   -9.3066 C   0  0  0  0  0  0  0  0  0  0  0  0
   26.9712  -19.6106   -8.0955 O   0  0  0  0  0  0  0  0  0  0  0  0
   27.6616  -20.8053   -9.8944 O   0  0  0  0  0  0  0  0  0  0  0  0
  1  5  1  0
  2  3  1  0
  2  1  1  0
  3  4  1  0
  4  5  1  0
  5  6  1  1
  6  7  2  0
  9  8  1  6
  9 11  1  0
 10  9  1  0
 11 12  1  6
 11 13  1  0
 12  6  1  0
 13 14  2  0
 13 15  1  0
 15 16  1  0
 16 19  1  0
 16 17  1  1
 18 17  1  0
 19 21  2  0
 19 20  1  0
M  END
$$$$
