PTC.pdb
     RDKit          3D

 21 21  0  0  1  0  0  0  0  0999 V2000
   26.4235  -17.7922  -17.5173 N   0  0  0  0  0  0  0  0  0  0  0  0
   27.7629  -18.0155  -18.0468 C   0  0  0  0  0  0  0  0  0  0  0  0
   28.3229  -16.6116  -18.0600 C   0  0  0  0  0  0  0  0  0  0  0  0
   27.6115  -15.9226  -16.9098 C   0  0  0  0  0  0  0  0  0  0  0  0
   26.7068  -16.9936  -16.3631 C   0  0  1  0  0  0  0  0  0  0  0  0
   25.4888  -16.4074  -15.7506 C   0  0  0  0  0  0  0  0  0  0  0  0
   25.6071  -15.6327  -14.7765 O   0  0  0  0  0  0  0  0  0  0  0  0
   23.7968  -13.8592  -16.0512 C   0  0  0  0  0  0  0  0  0  0  0  0
   22.6760  -14.8436  -16.4131 C   0  0  1  0  0  0  0  0  0  0  0  0
   22.5905  -14.8770  -17.7842 O   0  0  0  0  0  0  0  0  0  0  0  0
   22.9556  -16.1709  -15.7589 C   0  0  2  0  0  0  0  0  0  0  0  0
   24.1942  -16.6985  -16.2359 N   0  0  0  0  0  0  0  0  0  0  0  0
   21.8118  -17.1098  -15.8151 C   0  0  0  0  0  0  0  0  0  0  0  0
   21.7379  -17.9202  -16.7800 O   0  0  0  0  0  0  0  0  0  0  0  0
   20.7955  -17.1528  -14.8544 N   0  0  0  0  0  0  0  0  0  0  0  0
   19.6605  -18.0483  -14.8964 C   0  0  1  0  0  0  0  0  0  0  0  0
   19.5940  -18.9830  -13.7321 C   0  0  0  0  0  0  0  0  0  0  0  0
   19.5049  -17.9779  -12.2194 S   0  0  0  0  0  0  0  0  0  0  0  0
   18.3907  -17.2740  -15.0570 C   0  0  0  0  0  0  0  0  0  0  0  0
   17.1814  -17.8952  -15.3172 O   0  0  0  0  0  0  0  0  0  0  0  0
   18.4296  -16.0381  -14.9526 O   0  0  0  0  0  0  0  0  0  0  0  0
  1  5  1  0
  2  3  1  0
  2  1  1  0
  3  4  1  0
  4  5  1  0
  5  6  1  6
  6  7  2  0
  9  8  1  6
  9 11  1  0
 10  9  1  0
 11 12  1  6
 11 13  1  0
 12  6  1  0
 13 14  2  0
 13 15  1  0
 15 16  1  0
 16 19  1  0
 16 17  1  1
 18 17  1  0
 19 21  2  0
 19 20  1  0
M  END
$$$$
