PTC.pdb
     RDKit          3D

 21 21  0  0  1  0  0  0  0  0999 V2000
   18.2259  -12.3735  -17.2664 N   0  0  0  0  0  0  0  0  0  0  0  0
   17.7439  -13.6853  -17.6798 C   0  0  0  0  0  0  0  0  0  0  0  0
   18.5728  -13.9378  -18.9184 C   0  0  0  0  0  0  0  0  0  0  0  0
   19.8659  -13.1888  -18.6525 C   0  0  0  0  0  0  0  0  0  0  0  0
   19.6436  -12.5718  -17.2981 C   0  0  1  0  0  0  0  0  0  0  0  0
   20.4091  -11.3091  -17.1504 C   0  0  0  0  0  0  0  0  0  0  0  0
   21.6585  -11.3466  -17.1670 O   0  0  0  0  0  0  0  0  0  0  0  0
   20.4695   -8.4405  -19.2889 C   0  0  0  0  0  0  0  0  0  0  0  0
   19.9687   -7.8683  -17.9554 C   0  0  1  0  0  0  0  0  0  0  0  0
   18.6126   -7.6821  -18.0761 O   0  0  0  0  0  0  0  0  0  0  0  0
   20.3898   -8.7844  -16.8368 C   0  0  2  0  0  0  0  0  0  0  0  0
   19.7673  -10.0605  -16.9908 N   0  0  0  0  0  0  0  0  0  0  0  0
   20.2513   -8.1781  -15.4929 C   0  0  0  0  0  0  0  0  0  0  0  0
   19.4184   -8.6752  -14.6851 O   0  0  0  0  0  0  0  0  0  0  0  0
   20.9939   -7.0743  -15.0593 N   0  0  0  0  0  0  0  0  0  0  0  0
   20.9289   -6.5095  -13.7294 C   0  0  1  0  0  0  0  0  0  0  0  0
   21.2944   -7.4777  -12.6511 C   0  0  0  0  0  0  0  0  0  0  0  0
   21.2807   -6.5781  -11.0710 S   0  0  0  0  0  0  0  0  0  0  0  0
   21.7487   -5.2607  -13.6524 C   0  0  0  0  0  0  0  0  0  0  0  0
   21.2607   -4.0975  -13.0822 O   0  0  0  0  0  0  0  0  0  0  0  0
   22.9000   -5.2745  -14.1153 O   0  0  0  0  0  0  0  0  0  0  0  0
  1  5  1  0
  2  3  1  0
  2  1  1  0
  3  4  1  0
  4  5  1  0
  5  6  1  6
  6  7  2  0
  9  8  1  6
  9 11  1  0
 10  9  1  0
 11 12  1  1
 11 13  1  0
 12  6  1  0
 13 14  2  0
 13 15  1  0
 15 16  1  0
 16 19  1  0
 16 17  1  1
 18 17  1  0
 19 21  2  0
 19 20  1  0
M  END
$$$$
