PTC.pdb
     RDKit          3D

 21 21  0  0  1  0  0  0  0  0999 V2000
   18.6044  -11.0828  -16.8540 N   0  0  0  0  0  0  0  0  0  0  0  0
   18.1795  -12.4687  -17.0055 C   0  0  0  0  0  0  0  0  0  0  0  0
   18.5783  -13.0569  -15.6714 C   0  0  0  0  0  0  0  0  0  0  0  0
   18.4651  -11.8896  -14.7080 C   0  0  0  0  0  0  0  0  0  0  0  0
   18.0279  -10.7488  -15.5866 C   0  0  1  0  0  0  0  0  0  0  0  0
   18.5067   -9.4480  -15.0566 C   0  0  0  0  0  0  0  0  0  0  0  0
   18.1180   -9.0663  -13.9315 O   0  0  0  0  0  0  0  0  0  0  0  0
   21.8976   -8.5273  -14.3883 C   0  0  0  0  0  0  0  0  0  0  0  0
   21.4458   -7.4442  -15.3779 C   0  0  1  0  0  0  0  0  0  0  0  0
   22.0125   -7.7420  -16.5939 O   0  0  0  0  0  0  0  0  0  0  0  0
   19.9416   -7.3714  -15.3758 C   0  0  2  0  0  0  0  0  0  0  0  0
   19.3920   -8.6238  -15.7870 N   0  0  0  0  0  0  0  0  0  0  0  0
   19.4065   -6.1885  -16.0881 C   0  0  0  0  0  0  0  0  0  0  0  0
   19.2628   -6.2474  -17.3407 O   0  0  0  0  0  0  0  0  0  0  0  0
   19.0485   -4.9954  -15.4508 N   0  0  0  0  0  0  0  0  0  0  0  0
   18.5496   -3.8184  -16.1274 C   0  0  1  0  0  0  0  0  0  0  0  0
   17.2297   -3.3462  -15.6090 C   0  0  0  0  0  0  0  0  0  0  0  0
   16.0496   -4.7207  -15.7651 S   0  0  0  0  0  0  0  0  0  0  0  0
   19.5746   -2.7293  -16.1037 C   0  0  0  0  0  0  0  0  0  0  0  0
   19.3761   -1.5218  -16.7508 O   0  0  0  0  0  0  0  0  0  0  0  0
   20.6324   -2.9203  -15.4836 O   0  0  0  0  0  0  0  0  0  0  0  0
  1  5  1  0
  2  3  1  0
  2  1  1  0
  3  4  1  0
  4  5  1  0
  5  6  1  1
  6  7  2  0
  9  8  1  1
  9 11  1  0
 10  9  1  0
 11 12  1  6
 11 13  1  0
 12  6  1  0
 13 14  2  0
 13 15  1  0
 15 16  1  0
 16 19  1  0
 16 17  1  1
 18 17  1  0
 19 21  2  0
 19 20  1  0
M  END
$$$$
