PTC.pdb
     RDKit          3D

 21 21  0  0  1  0  0  0  0  0999 V2000
   19.9800  -11.8592  -17.1614 N   0  0  0  0  0  0  0  0  0  0  0  0
   19.8847  -13.1605  -17.8107 C   0  0  0  0  0  0  0  0  0  0  0  0
   21.2426  -13.2745  -18.4648 C   0  0  0  0  0  0  0  0  0  0  0  0
   22.1571  -12.4789  -17.5513 C   0  0  0  0  0  0  0  0  0  0  0  0
   21.2315  -11.9779  -16.4758 C   0  0  1  0  0  0  0  0  0  0  0  0
   21.7085  -10.6904  -15.9128 C   0  0  0  0  0  0  0  0  0  0  0  0
   22.8150  -10.6500  -15.3324 O   0  0  0  0  0  0  0  0  0  0  0  0
   22.1647   -7.6520  -17.8035 C   0  0  0  0  0  0  0  0  0  0  0  0
   21.2276   -7.2092  -16.6711 C   0  0  1  0  0  0  0  0  0  0  0  0
   19.9762   -7.0519  -17.2166 O   0  0  0  0  0  0  0  0  0  0  0  0
   21.3118   -8.2045  -15.5441 C   0  0  2  0  0  0  0  0  0  0  0  0
   20.9480   -9.5037  -16.0126 N   0  0  0  0  0  0  0  0  0  0  0  0
   20.6146   -7.7643  -14.3140 C   0  0  0  0  0  0  0  0  0  0  0  0
   19.6818   -8.4803  -13.8552 O   0  0  0  0  0  0  0  0  0  0  0  0
   20.9286   -6.5891  -13.6226 N   0  0  0  0  0  0  0  0  0  0  0  0
   20.1963   -6.0847  -12.4819 C   0  0  1  0  0  0  0  0  0  0  0  0
   20.4567   -6.8447  -11.2216 C   0  0  0  0  0  0  0  0  0  0  0  0
   19.5516   -6.0174   -9.8789 S   0  0  0  0  0  0  0  0  0  0  0  0
   20.4478   -4.6205  -12.3065 C   0  0  0  0  0  0  0  0  0  0  0  0
   21.4472   -3.9603  -13.0004 O   0  0  0  0  0  0  0  0  0  0  0  0
   19.7355   -3.9846  -11.5139 O   0  0  0  0  0  0  0  0  0  0  0  0
  1  5  1  0
  2  3  1  0
  2  1  1  0
  3  4  1  0
  4  5  1  0
  5  6  1  6
  6  7  2  0
  9  8  1  6
  9 11  1  0
 10  9  1  0
 11 12  1  6
 11 13  1  0
 12  6  1  0
 13 14  2  0
 13 15  1  0
 15 16  1  0
 16 19  1  0
 16 17  1  1
 18 17  1  0
 19 21  2  0
 19 20  1  0
M  END
$$$$
