PTC.pdb
     RDKit          3D

 21 21  0  0  1  0  0  0  0  0999 V2000
   18.5792  -12.7496  -15.3961 N   0  0  0  0  0  0  0  0  0  0  0  0
   18.2466  -14.1672  -15.4582 C   0  0  0  0  0  0  0  0  0  0  0  0
   17.6939  -14.2891  -16.8598 C   0  0  0  0  0  0  0  0  0  0  0  0
   18.4347  -13.2185  -17.6400 C   0  0  0  0  0  0  0  0  0  0  0  0
   19.3250  -12.5823  -16.6069 C   0  0  1  0  0  0  0  0  0  0  0  0
   19.5927  -11.1591  -16.9310 C   0  0  0  0  0  0  0  0  0  0  0  0
   20.4356  -10.8811  -17.8114 O   0  0  0  0  0  0  0  0  0  0  0  0
   17.2975   -8.7944  -18.2931 C   0  0  0  0  0  0  0  0  0  0  0  0
   17.7132   -8.1454  -16.9655 C   0  0  1  0  0  0  0  0  0  0  0  0
   16.6851   -8.3445  -16.0757 O   0  0  0  0  0  0  0  0  0  0  0  0
   19.0441   -8.7060  -16.5384 C   0  0  2  0  0  0  0  0  0  0  0  0
   18.9220  -10.1039  -16.2728 N   0  0  0  0  0  0  0  0  0  0  0  0
   19.7001   -7.9201  -15.4684 C   0  0  0  0  0  0  0  0  0  0  0  0
   19.8031   -8.4283  -14.3176 O   0  0  0  0  0  0  0  0  0  0  0  0
   20.2166   -6.6333  -15.6564 N   0  0  0  0  0  0  0  0  0  0  0  0
   20.8223   -5.8297  -14.6175 C   0  0  1  0  0  0  0  0  0  0  0  0
   22.2930   -6.0523  -14.4715 C   0  0  0  0  0  0  0  0  0  0  0  0
   22.9026   -4.9077  -13.1970 S   0  0  0  0  0  0  0  0  0  0  0  0
   20.4997   -4.3834  -14.8220 C   0  0  0  0  0  0  0  0  0  0  0  0
   20.3616   -3.5060  -13.7603 O   0  0  0  0  0  0  0  0  0  0  0  0
   20.3526   -3.9640  -15.9807 O   0  0  0  0  0  0  0  0  0  0  0  0
  1  5  1  0
  2  3  1  0
  2  1  1  0
  3  4  1  0
  4  5  1  0
  5  6  1  6
  6  7  2  0
  9  8  1  6
  9 11  1  0
 10  9  1  0
 11 12  1  1
 11 13  1  0
 12  6  1  0
 13 14  2  0
 13 15  1  0
 15 16  1  0
 16 19  1  0
 16 17  1  6
 18 17  1  0
 19 21  2  0
 19 20  1  0
M  END
$$$$
