PTC.pdb
     RDKit          3D

 21 21  0  0  1  0  0  0  0  0999 V2000
   19.6477  -12.2218  -16.3104 N   0  0  0  0  0  0  0  0  0  0  0  0
   18.8366  -13.0382  -17.2047 C   0  0  0  0  0  0  0  0  0  0  0  0
   17.5741  -13.2166  -16.3927 C   0  0  0  0  0  0  0  0  0  0  0  0
   17.4949  -11.9526  -15.5562 C   0  0  0  0  0  0  0  0  0  0  0  0
   18.7243  -11.1848  -15.9609 C   0  0  1  0  0  0  0  0  0  0  0  0
   19.2100  -10.3251  -14.8531 C   0  0  0  0  0  0  0  0  0  0  0  0
   19.7605  -10.8559  -13.8641 O   0  0  0  0  0  0  0  0  0  0  0  0
   21.6142   -7.6410  -15.0539 C   0  0  0  0  0  0  0  0  0  0  0  0
   20.3798   -6.9496  -14.4583 C   0  0  1  0  0  0  0  0  0  0  0  0
   19.8229   -6.1829  -15.4535 O   0  0  0  0  0  0  0  0  0  0  0  0
   19.4667   -7.9926  -13.8699 C   0  0  2  0  0  0  0  0  0  0  0  0
   19.0692   -8.9195  -14.8813 N   0  0  0  0  0  0  0  0  0  0  0  0
   18.3573   -7.4236  -13.0710 C   0  0  0  0  0  0  0  0  0  0  0  0
   17.1957   -7.4138  -13.5649 O   0  0  0  0  0  0  0  0  0  0  0  0
   18.5199   -6.8880  -11.7886 N   0  0  0  0  0  0  0  0  0  0  0  0
   17.4832   -6.2094  -11.0425 C   0  0  1  0  0  0  0  0  0  0  0  0
   17.6456   -6.3177   -9.5607 C   0  0  0  0  0  0  0  0  0  0  0  0
   16.1912   -5.5489   -8.7864 S   0  0  0  0  0  0  0  0  0  0  0  0
   17.3708   -4.7844  -11.4836 C   0  0  0  0  0  0  0  0  0  0  0  0
   18.4102   -4.1309  -12.1228 O   0  0  0  0  0  0  0  0  0  0  0  0
   16.3113   -4.1757  -11.2671 O   0  0  0  0  0  0  0  0  0  0  0  0
  1  5  1  0
  2  3  1  0
  2  1  1  0
  3  4  1  0
  4  5  1  0
  5  6  1  1
  6  7  2  0
  9  8  1  6
  9 11  1  0
 10  9  1  0
 11 12  1  6
 11 13  1  0
 12  6  1  0
 13 14  2  0
 13 15  1  0
 15 16  1  0
 16 19  1  0
 16 17  1  1
 18 17  1  0
 19 21  2  0
 19 20  1  0
M  END
$$$$
