PTC.pdb
     RDKit          3D

 21 21  0  0  1  0  0  0  0  0999 V2000
   19.4410  -11.9622  -17.7417 N   0  0  0  0  0  0  0  0  0  0  0  0
   18.6624  -13.0837  -18.2518 C   0  0  0  0  0  0  0  0  0  0  0  0
   18.8582  -14.1114  -17.1608 C   0  0  0  0  0  0  0  0  0  0  0  0
   19.0419  -13.2808  -15.9039 C   0  0  0  0  0  0  0  0  0  0  0  0
   18.9476  -11.8637  -16.4012 C   0  0  1  0  0  0  0  0  0  0  0  0
   19.7469  -10.9428  -15.5554 C   0  0  0  0  0  0  0  0  0  0  0  0
   19.4472  -10.8057  -14.3495 O   0  0  0  0  0  0  0  0  0  0  0  0
   23.4705  -10.9570  -15.1217 C   0  0  0  0  0  0  0  0  0  0  0  0
   23.1160   -9.5616  -15.6542 C   0  0  1  0  0  0  0  0  0  0  0  0
   23.4665   -9.5318  -16.9826 O   0  0  0  0  0  0  0  0  0  0  0  0
   21.6639   -9.2803  -15.3711 C   0  0  2  0  0  0  0  0  0  0  0  0
   20.8406  -10.2130  -16.0726 N   0  0  0  0  0  0  0  0  0  0  0  0
   21.2919   -7.8582  -15.5502 C   0  0  0  0  0  0  0  0  0  0  0  0
   20.7974   -7.4938  -16.6530 O   0  0  0  0  0  0  0  0  0  0  0  0
   21.4587   -6.8821  -14.5616 N   0  0  0  0  0  0  0  0  0  0  0  0
   21.1485   -5.4794  -14.7293 C   0  0  1  0  0  0  0  0  0  0  0  0
   19.7312   -5.1379  -14.4005 C   0  0  0  0  0  0  0  0  0  0  0  0
   19.5774   -3.3263  -14.4276 S   0  0  0  0  0  0  0  0  0  0  0  0
   22.1137   -4.6360  -13.9580 C   0  0  0  0  0  0  0  0  0  0  0  0
   22.3986   -3.3307  -14.3203 O   0  0  0  0  0  0  0  0  0  0  0  0
   22.6722   -5.1272  -12.9646 O   0  0  0  0  0  0  0  0  0  0  0  0
  1  5  1  0
  2  3  1  0
  2  1  1  0
  3  4  1  0
  4  5  1  0
  5  6  1  1
  6  7  2  0
  9  8  1  6
  9 11  1  0
 10  9  1  0
 11 12  1  6
 11 13  1  0
 12  6  1  0
 13 14  2  0
 13 15  1  0
 15 16  1  0
 16 19  1  0
 16 17  1  1
 18 17  1  0
 19 21  2  0
 19 20  1  0
M  END
$$$$
