PTC.pdb
     RDKit          3D

 21 21  0  0  1  0  0  0  0  0999 V2000
   23.7867  -11.4694  -16.7137 N   0  0  0  0  0  0  0  0  0  0  0  0
   24.6916  -12.6118  -16.7152 C   0  0  0  0  0  0  0  0  0  0  0  0
   24.4121  -13.2197  -18.0706 C   0  0  0  0  0  0  0  0  0  0  0  0
   24.0126  -12.0333  -18.9287 C   0  0  0  0  0  0  0  0  0  0  0  0
   24.0890  -10.8693  -17.9781 C   0  0  1  0  0  0  0  0  0  0  0  0
   23.1305   -9.8017  -18.3572 C   0  0  0  0  0  0  0  0  0  0  0  0
   23.3997   -9.0532  -19.3216 O   0  0  0  0  0  0  0  0  0  0  0  0
   19.8033  -10.1909  -19.5890 C   0  0  0  0  0  0  0  0  0  0  0  0
   19.6099   -9.3890  -18.2944 C   0  0  1  0  0  0  0  0  0  0  0  0
   19.1783  -10.2690  -17.3312 O   0  0  0  0  0  0  0  0  0  0  0  0
   20.8886   -8.6634  -17.9685 C   0  0  2  0  0  0  0  0  0  0  0  0
   21.9180   -9.6039  -17.6592 N   0  0  0  0  0  0  0  0  0  0  0  0
   20.7150   -7.5766  -16.9777 C   0  0  0  0  0  0  0  0  0  0  0  0
   19.9201   -6.6329  -17.2442 O   0  0  0  0  0  0  0  0  0  0  0  0
   21.3872   -7.5300  -15.7514 N   0  0  0  0  0  0  0  0  0  0  0  0
   21.1988   -6.5056  -14.7479 C   0  0  1  0  0  0  0  0  0  0  0  0
   20.8611   -7.0481  -13.3969 C   0  0  0  0  0  0  0  0  0  0  0  0
   20.8751   -5.6596  -12.2231 S   0  0  0  0  0  0  0  0  0  0  0  0
   22.3876   -5.5990  -14.6984 C   0  0  0  0  0  0  0  0  0  0  0  0
   22.2803   -4.2690  -14.3300 O   0  0  0  0  0  0  0  0  0  0  0  0
   23.5005   -6.0593  -14.9976 O   0  0  0  0  0  0  0  0  0  0  0  0
  1  5  1  0
  2  3  1  0
  2  1  1  0
  3  4  1  0
  4  5  1  0
  5  6  1  6
  6  7  2  0
  9  8  1  6
  9 11  1  0
 10  9  1  0
 11 12  1  1
 11 13  1  0
 12  6  1  0
 13 14  2  0
 13 15  1  0
 15 16  1  0
 16 19  1  0
 16 17  1  1
 18 17  1  0
 19 21  2  0
 19 20  1  0
M  END
$$$$
