PTC.pdb
     RDKit          3D

 21 21  0  0  1  0  0  0  0  0999 V2000
   17.8028  -11.6977  -15.5055 N   0  0  0  0  0  0  0  0  0  0  0  0
   17.3731  -13.0841  -15.3743 C   0  0  0  0  0  0  0  0  0  0  0  0
   17.7602  -13.6515  -16.7208 C   0  0  0  0  0  0  0  0  0  0  0  0
   18.9659  -12.8267  -17.1328 C   0  0  0  0  0  0  0  0  0  0  0  0
   19.1398  -11.8623  -15.9908 C   0  0  1  0  0  0  0  0  0  0  0  0
   19.7507  -10.5901  -16.4498 C   0  0  0  0  0  0  0  0  0  0  0  0
   20.9243  -10.5964  -16.8805 O   0  0  0  0  0  0  0  0  0  0  0  0
   18.6783   -8.3362  -19.1043 C   0  0  0  0  0  0  0  0  0  0  0  0
   18.6301   -7.4729  -17.8359 C   0  0  1  0  0  0  0  0  0  0  0  0
   17.3103   -7.3606  -17.4700 O   0  0  0  0  0  0  0  0  0  0  0  0
   19.5320   -8.0787  -16.7930 C   0  0  2  0  0  0  0  0  0  0  0  0
   19.0444   -9.3669  -16.4152 N   0  0  0  0  0  0  0  0  0  0  0  0
   19.8276   -7.1655  -15.6654 C   0  0  0  0  0  0  0  0  0  0  0  0
   19.1471   -7.2668  -14.6071 O   0  0  0  0  0  0  0  0  0  0  0  0
   20.8250   -6.1848  -15.7022 N   0  0  0  0  0  0  0  0  0  0  0  0
   21.1128   -5.2627  -14.6257 C   0  0  1  0  0  0  0  0  0  0  0  0
   22.4047   -5.5432  -13.9286 C   0  0  0  0  0  0  0  0  0  0  0  0
   22.6836   -4.2115  -12.7223 S   0  0  0  0  0  0  0  0  0  0  0  0
   21.0440   -3.8510  -15.1157 C   0  0  0  0  0  0  0  0  0  0  0  0
   20.7511   -2.7951  -14.2699 O   0  0  0  0  0  0  0  0  0  0  0  0
   21.2568   -3.6267  -16.3175 O   0  0  0  0  0  0  0  0  0  0  0  0
  1  5  1  0
  2  3  1  0
  2  1  1  0
  3  4  1  0
  4  5  1  0
  5  6  1  6
  6  7  2  0
  9  8  1  6
  9 11  1  0
 10  9  1  0
 11 12  1  1
 11 13  1  0
 12  6  1  0
 13 14  2  0
 13 15  1  0
 15 16  1  0
 16 19  1  0
 16 17  1  6
 18 17  1  0
 19 21  2  0
 19 20  1  0
M  END
$$$$
