IRN.pdb
     RDKit          3D

 28 27  0  0  1  0  0  0  0  0999 V2000
    6.5047  -10.5251   26.8295 C   0  0  0  0  0  0  0  0  0  0  0  0
    5.7789  -11.5568   26.0347 C   0  0  0  0  0  0  0  0  0  0  0  0
    6.6964  -12.7185   25.7391 C   0  0  2  0  0  0  0  0  0  0  0  0
    7.9140  -12.2407   24.9822 C   0  0  0  0  0  0  0  0  0  0  0  0
    5.9816  -13.8179   24.9820 C   0  0  2  0  0  0  0  0  0  0  0  0
    4.7904  -14.2633   25.6360 N   0  0  0  0  0  0  0  0  0  0  0  0
    6.9174  -14.9765   24.7413 C   0  0  0  0  0  0  0  0  0  0  0  0
    7.0737  -15.8448   25.6348 O   0  0  0  0  0  0  0  0  0  0  0  0
   12.0481  -19.9964   20.7520 N   0  0  0  0  0  0  0  0  0  0  0  0
   10.7851  -19.7229   20.1923 C   0  0  0  0  0  0  0  0  0  0  0  0
    9.7653  -20.4968   20.3643 N   0  0  0  0  0  0  0  0  0  0  0  0
   10.6269  -18.5339   19.3976 N   0  0  0  0  0  0  0  0  0  0  0  0
    9.7376  -17.4573   19.7979 C   0  0  0  0  0  0  0  0  0  0  0  0
    9.7031  -17.3641   21.3137 C   0  0  0  0  0  0  0  0  0  0  0  0
    8.7617  -16.2829   21.7518 C   0  0  0  0  0  0  0  0  0  0  0  0
    8.5548  -16.2096   23.2267 C   0  0  2  0  0  0  0  0  0  0  0  0
    7.6163  -15.0907   23.5222 N   0  0  0  0  0  0  0  0  0  0  0  0
    9.7436  -15.9872   24.0503 C   0  0  0  0  0  0  0  0  0  0  0  0
   10.0448  -14.7732   24.3499 O   0  0  0  0  0  0  0  0  0  0  0  0
    8.8360  -20.1989   20.0132 N   0  0  0  0  0  0  0  0  0  0  0  0
   11.1905  -15.5112   28.8282 C   0  0  0  0  0  0  0  0  0  0  0  0
   10.6438  -16.7023   28.2766 O   0  0  0  0  0  0  0  0  0  0  0  0
   10.6409  -17.7913   28.9057 C   0  0  0  0  0  0  0  0  0  0  0  0
   10.0452  -16.7120   26.9174 C   0  0  1  0  0  0  0  0  0  0  0  0
   11.1744  -16.8335   25.9116 N   0  0  0  0  0  0  0  0  0  0  0  0
   10.6211  -16.9488   24.5746 C   0  0  0  0  0  0  0  0  0  0  0  0
   11.9935  -18.0214   26.1970 O   0  0  0  0  0  0  0  0  0  0  0  0
   13.1190  -17.9658   27.0134 O   0  0  0  0  0  0  0  0  0  0  0  0
  2  1  1  0
  2  3  1  0
  3  4  1  6
  5  6  1  1
  5  3  1  0
  7  8  2  0
  7  5  1  0
 10  9  1  0
 11 10  2  0
 12 10  1  0
 13 12  1  0
 13 14  1  0
 14 15  1  0
 16 15  1  6
 16 17  1  0
 17  7  1  0
 18 16  1  0
 18 19  2  0
 20 21  1  0
 21 22  2  0
 21 23  1  0
 24 25  1  0
 24 23  1  6
 25 18  1  0
 26 24  1  0
 27 26  1  0
 28 26  2  0
M  END
$$$$
