IRN.pdb
     RDKit          3D

 28 27  0  0  1  0  0  0  0  0999 V2000
    6.8245  -11.8291   27.9414 C   0  0  0  0  0  0  0  0  0  0  0  0
    6.1031  -12.9631   27.2959 C   0  0  0  0  0  0  0  0  0  0  0  0
    7.0027  -13.6398   26.2901 C   0  0  2  0  0  0  0  0  0  0  0  0
    7.4051  -12.6615   25.2108 C   0  0  0  0  0  0  0  0  0  0  0  0
    6.3509  -14.8697   25.6943 C   0  0  2  0  0  0  0  0  0  0  0  0
    5.8145  -15.7524   26.6834 N   0  0  0  0  0  0  0  0  0  0  0  0
    7.3304  -15.6001   24.8094 C   0  0  0  0  0  0  0  0  0  0  0  0
    8.1376  -16.4167   25.3176 O   0  0  0  0  0  0  0  0  0  0  0  0
    8.3857  -12.1757   18.9642 N   0  0  0  0  0  0  0  0  0  0  0  0
    8.5828  -13.2617   18.0896 C   0  0  0  0  0  0  0  0  0  0  0  0
    9.4575  -13.2401   17.1393 N   0  0  0  0  0  0  0  0  0  0  0  0
    7.7769  -14.4409   18.2633 N   0  0  0  0  0  0  0  0  0  0  0  0
    6.7844  -14.5421   19.3193 C   0  0  0  0  0  0  0  0  0  0  0  0
    7.4766  -14.5135   20.6711 C   0  0  0  0  0  0  0  0  0  0  0  0
    7.8366  -15.9022   21.1060 C   0  0  0  0  0  0  0  0  0  0  0  0
    8.3447  -15.9951   22.5048 C   0  0  2  0  0  0  0  0  0  0  0  0
    7.3456  -15.3724   23.4181 N   0  0  0  0  0  0  0  0  0  0  0  0
    9.6277  -15.3502   22.7858 C   0  0  0  0  0  0  0  0  0  0  0  0
    9.6337  -14.3675   23.6156 O   0  0  0  0  0  0  0  0  0  0  0  0
    9.5011  -14.0314   16.4702 N   0  0  0  0  0  0  0  0  0  0  0  0
   14.0880  -16.3425   24.8056 C   0  0  0  0  0  0  0  0  0  0  0  0
   12.9449  -17.1743   24.9590 O   0  0  0  0  0  0  0  0  0  0  0  0
   12.8957  -18.0923   25.8172 C   0  0  0  0  0  0  0  0  0  0  0  0
   11.7455  -16.9929   24.1022 C   0  0  1  0  0  0  0  0  0  0  0  0
   12.0437  -15.8834   23.1115 N   0  0  0  0  0  0  0  0  0  0  0  0
   10.8879  -15.6724   22.2591 C   0  0  0  0  0  0  0  0  0  0  0  0
   13.2003  -16.2369   22.2743 O   0  0  0  0  0  0  0  0  0  0  0  0
   14.3505  -15.4549   22.2325 O   0  0  0  0  0  0  0  0  0  0  0  0
  2  1  1  0
  2  3  1  0
  3  4  1  6
  5  6  1  1
  5  3  1  0
  7  8  2  0
  7  5  1  0
 10  9  1  0
 11 10  2  0
 12 10  1  0
 13 12  1  0
 13 14  1  0
 14 15  1  0
 16 15  1  6
 16 17  1  0
 17  7  1  0
 18 16  1  0
 18 19  2  0
 20 21  1  0
 21 22  2  0
 21 23  1  0
 24 25  1  0
 24 23  1  1
 25 18  1  0
 26 24  1  0
 27 26  1  0
 28 26  2  0
M  END
$$$$
