IRN.pdb
     RDKit          3D

 28 27  0  0  1  0  0  0  0  0999 V2000
   11.3826  -24.4778   20.9370 C   0  0  0  0  0  0  0  0  0  0  0  0
   10.0703  -23.7725   20.8778 C   0  0  0  0  0  0  0  0  0  0  0  0
   10.2866  -22.3053   20.5963 C   0  0  2  0  0  0  0  0  0  0  0  0
   11.1924  -21.7021   21.6448 C   0  0  0  0  0  0  0  0  0  0  0  0
    8.9757  -21.5524   20.5111 C   0  0  2  0  0  0  0  0  0  0  0  0
    8.1146  -22.0446   19.4809 N   0  0  0  0  0  0  0  0  0  0  0  0
    9.2343  -20.0779   20.3243 C   0  0  0  0  0  0  0  0  0  0  0  0
    9.8270  -19.6768   19.2926 O   0  0  0  0  0  0  0  0  0  0  0  0
    6.6978  -12.7106   18.5320 N   0  0  0  0  0  0  0  0  0  0  0  0
    7.9095  -12.6295   19.2452 C   0  0  0  0  0  0  0  0  0  0  0  0
    8.8733  -11.8451   18.8926 N   0  0  0  0  0  0  0  0  0  0  0  0
    8.0782  -13.4540   20.4121 N   0  0  0  0  0  0  0  0  0  0  0  0
    7.7464  -14.8683   20.4058 C   0  0  0  0  0  0  0  0  0  0  0  0
    8.0415  -15.4652   21.7711 C   0  0  0  0  0  0  0  0  0  0  0  0
    7.8851  -16.9557   21.7371 C   0  0  0  0  0  0  0  0  0  0  0  0
    9.0619  -17.6840   21.1817 C   0  0  2  0  0  0  0  0  0  0  0  0
    8.8157  -19.1488   21.2986 N   0  0  0  0  0  0  0  0  0  0  0  0
   10.3566  -17.4255   21.8125 C   0  0  0  0  0  0  0  0  0  0  0  0
   10.5612  -17.9203   22.9820 O   0  0  0  0  0  0  0  0  0  0  0  0
    9.7707  -11.8772   19.4116 N   0  0  0  0  0  0  0  0  0  0  0  0
   15.2740  -16.8204   22.4170 C   0  0  0  0  0  0  0  0  0  0  0  0
   14.8996  -15.7161   21.6032 O   0  0  0  0  0  0  0  0  0  0  0  0
   15.7505  -14.9823   21.0382 C   0  0  0  0  0  0  0  0  0  0  0  0
   13.4705  -15.3774   21.3824 C   0  0  2  0  0  0  0  0  0  0  0  0
   12.6289  -16.4294   22.0799 N   0  0  0  0  0  0  0  0  0  0  0  0
   11.4362  -16.6928   21.2958 C   0  0  0  0  0  0  0  0  0  0  0  0
   12.2317  -15.9674   23.4187 O   0  0  0  0  0  0  0  0  0  0  0  0
   12.9569  -16.2952   24.5602 O   0  0  0  0  0  0  0  0  0  0  0  0
  2  1  1  0
  2  3  1  0
  3  4  1  1
  5  6  1  6
  5  3  1  0
  7  8  2  0
  7  5  1  0
 10  9  1  0
 11 10  2  0
 12 10  1  0
 13 12  1  0
 13 14  1  0
 14 15  1  0
 16 15  1  1
 16 17  1  0
 17  7  1  0
 18 16  1  0
 18 19  2  0
 20 21  1  0
 21 22  2  0
 21 23  1  0
 24 25  1  0
 24 23  1  6
 25 18  1  0
 26 24  1  0
 27 26  1  0
 28 26  2  0
M  END
$$$$
