IRN.pdb
     RDKit          3D

 28 27  0  0  1  0  0  0  0  0999 V2000
    6.6007  -11.9463   28.1480 C   0  0  0  0  0  0  0  0  0  0  0  0
    5.9579  -13.1230   27.4958 C   0  0  0  0  0  0  0  0  0  0  0  0
    6.8632  -13.6741   26.4209 C   0  0  2  0  0  0  0  0  0  0  0  0
    7.2058  -12.5916   25.4235 C   0  0  0  0  0  0  0  0  0  0  0  0
    6.2483  -14.8740   25.7320 C   0  0  2  0  0  0  0  0  0  0  0  0
    6.0620  -15.9875   26.6098 N   0  0  0  0  0  0  0  0  0  0  0  0
    7.0831  -15.2739   24.5407 C   0  0  0  0  0  0  0  0  0  0  0  0
    7.8465  -16.2675   24.6224 O   0  0  0  0  0  0  0  0  0  0  0  0
    9.9367  -14.2544   17.2439 N   0  0  0  0  0  0  0  0  0  0  0  0
    8.6611  -14.3554   16.6558 C   0  0  0  0  0  0  0  0  0  0  0  0
    8.4739  -14.8614   15.4821 N   0  0  0  0  0  0  0  0  0  0  0  0
    7.5228  -13.8752   17.3933 N   0  0  0  0  0  0  0  0  0  0  0  0
    7.6663  -13.2093   18.6764 C   0  0  0  0  0  0  0  0  0  0  0  0
    8.1104  -14.2159   19.7239 C   0  0  0  0  0  0  0  0  0  0  0  0
    7.3336  -14.0303   20.9925 C   0  0  0  0  0  0  0  0  0  0  0  0
    7.7497  -14.9324   22.1046 C   0  0  2  0  0  0  0  0  0  0  0  0
    7.0120  -14.5409   23.3385 N   0  0  0  0  0  0  0  0  0  0  0  0
    9.1711  -14.9407   22.4517 C   0  0  0  0  0  0  0  0  0  0  0  0
    9.5664  -14.1344   23.3725 O   0  0  0  0  0  0  0  0  0  0  0  0
    7.5227  -14.8491   15.0689 N   0  0  0  0  0  0  0  0  0  0  0  0
   12.2849  -19.1923   24.3797 C   0  0  0  0  0  0  0  0  0  0  0  0
   11.9686  -17.8064   24.4138 O   0  0  0  0  0  0  0  0  0  0  0  0
   12.6587  -16.9783   25.0617 C   0  0  0  0  0  0  0  0  0  0  0  0
   10.7958  -17.2703   23.6771 C   0  0  2  0  0  0  0  0  0  0  0  0
   11.2974  -16.2231   22.7008 N   0  0  0  0  0  0  0  0  0  0  0  0
   10.1881  -15.7360   21.9014 C   0  0  0  0  0  0  0  0  0  0  0  0
   12.3174  -16.7960   21.8091 O   0  0  0  0  0  0  0  0  0  0  0  0
   12.0834  -17.0028   20.4531 O   0  0  0  0  0  0  0  0  0  0  0  0
  2  1  1  0
  2  3  1  0
  3  4  1  6
  5  6  1  1
  5  3  1  0
  7  8  2  0
  7  5  1  0
 10  9  1  0
 11 10  2  0
 12 10  1  0
 13 12  1  0
 13 14  1  0
 14 15  1  0
 16 15  1  6
 16 17  1  0
 17  7  1  0
 18 16  1  0
 18 19  2  0
 20 21  1  0
 21 22  2  0
 21 23  1  0
 24 25  1  0
 24 23  1  1
 25 18  1  0
 26 24  1  0
 27 26  1  0
 28 26  2  0
M  END
$$$$
