IRN.pdb
     RDKit          3D

 28 27  0  0  1  0  0  0  0  0999 V2000
    6.6147  -11.0426   27.0277 C   0  0  0  0  0  0  0  0  0  0  0  0
    7.3117  -12.3599   27.0710 C   0  0  0  0  0  0  0  0  0  0  0  0
    6.9760  -13.1608   25.8362 C   0  0  2  0  0  0  0  0  0  0  0  0
    5.4811  -13.3567   25.7334 C   0  0  0  0  0  0  0  0  0  0  0  0
    7.7018  -14.4894   25.8162 C   0  0  2  0  0  0  0  0  0  0  0  0
    9.0595  -14.3911   26.2543 N   0  0  0  0  0  0  0  0  0  0  0  0
    7.6339  -15.0982   24.4375 C   0  0  0  0  0  0  0  0  0  0  0  0
    6.8215  -16.0277   24.2081 O   0  0  0  0  0  0  0  0  0  0  0  0
    7.8507  -12.3849   16.0904 N   0  0  0  0  0  0  0  0  0  0  0  0
    7.9716  -13.7611   16.3639 C   0  0  0  0  0  0  0  0  0  0  0  0
    8.7080  -14.5497   15.6537 N   0  0  0  0  0  0  0  0  0  0  0  0
    7.2450  -14.3081   17.4788 N   0  0  0  0  0  0  0  0  0  0  0  0
    7.3397  -13.7355   18.8105 C   0  0  0  0  0  0  0  0  0  0  0  0
    8.3807  -14.4935   19.6163 C   0  0  0  0  0  0  0  0  0  0  0  0
    8.3413  -14.0709   21.0540 C   0  0  0  0  0  0  0  0  0  0  0  0
    8.4574  -15.1945   22.0275 C   0  0  2  0  0  0  0  0  0  0  0  0
    8.4750  -14.6313   23.4068 N   0  0  0  0  0  0  0  0  0  0  0  0
    9.6379  -16.0510   21.9100 C   0  0  0  0  0  0  0  0  0  0  0  0
    9.6769  -16.8841   20.9309 O   0  0  0  0  0  0  0  0  0  0  0  0
    8.8464  -15.5304   15.9613 N   0  0  0  0  0  0  0  0  0  0  0  0
   12.9587  -14.1770   20.7683 C   0  0  0  0  0  0  0  0  0  0  0  0
   12.9400  -15.5937   20.8886 O   0  0  0  0  0  0  0  0  0  0  0  0
   12.7690  -16.3474   19.8964 C   0  0  0  0  0  0  0  0  0  0  0  0
   13.1238  -16.2527   22.2068 C   0  0  2  0  0  0  0  0  0  0  0  0
   11.8540  -17.0188   22.5262 N   0  0  0  0  0  0  0  0  0  0  0  0
   10.7661  -16.0829   22.7441 C   0  0  0  0  0  0  0  0  0  0  0  0
   12.0351  -17.8354   23.7362 O   0  0  0  0  0  0  0  0  0  0  0  0
   11.2073  -17.7062   24.8472 O   0  0  0  0  0  0  0  0  0  0  0  0
  2  1  1  0
  2  3  1  0
  3  4  1  1
  5  6  1  6
  5  3  1  0
  7  8  2  0
  7  5  1  0
 10  9  1  0
 11 10  2  0
 12 10  1  0
 13 12  1  0
 13 14  1  0
 14 15  1  0
 16 15  1  6
 16 17  1  0
 17  7  1  0
 18 16  1  0
 18 19  2  0
 20 21  1  0
 21 22  2  0
 21 23  1  0
 24 25  1  0
 24 23  1  6
 25 18  1  0
 26 24  1  0
 27 26  1  0
 28 26  2  0
M  END
$$$$
