IRN.pdb
     RDKit          3D

 28 27  0  0  1  0  0  0  0  0999 V2000
    6.8401  -11.7114   27.8373 C   0  0  0  0  0  0  0  0  0  0  0  0
    6.1106  -12.7386   27.0400 C   0  0  0  0  0  0  0  0  0  0  0  0
    7.0751  -13.4721   26.1399 C   0  0  2  0  0  0  0  0  0  0  0  0
    7.7674  -12.4980   25.2149 C   0  0  0  0  0  0  0  0  0  0  0  0
    6.3860  -14.5699   25.3572 C   0  0  2  0  0  0  0  0  0  0  0  0
    5.7062  -15.5099   26.1933 N   0  0  0  0  0  0  0  0  0  0  0  0
    7.3788  -15.2755   24.4670 C   0  0  0  0  0  0  0  0  0  0  0  0
    7.9326  -16.3291   24.8669 O   0  0  0  0  0  0  0  0  0  0  0  0
    6.6187  -14.2582   16.4218 N   0  0  0  0  0  0  0  0  0  0  0  0
    7.9252  -13.9962   16.8777 C   0  0  0  0  0  0  0  0  0  0  0  0
    8.7299  -13.1955   16.2612 N   0  0  0  0  0  0  0  0  0  0  0  0
    8.3795  -14.6474   18.0775 N   0  0  0  0  0  0  0  0  0  0  0  0
    7.5160  -15.5273   18.8459 C   0  0  0  0  0  0  0  0  0  0  0  0
    7.2806  -14.9318   20.2234 C   0  0  0  0  0  0  0  0  0  0  0  0
    8.5826  -14.7368   20.9403 C   0  0  0  0  0  0  0  0  0  0  0  0
    8.6596  -15.4118   22.2677 C   0  0  2  0  0  0  0  0  0  0  0  0
    7.6885  -14.7608   23.1915 N   0  0  0  0  0  0  0  0  0  0  0  0
    9.9571  -15.3937   22.9438 C   0  0  0  0  0  0  0  0  0  0  0  0
   10.0510  -14.7265   24.0394 O   0  0  0  0  0  0  0  0  0  0  0  0
    9.7017  -13.0860   16.6065 N   0  0  0  0  0  0  0  0  0  0  0  0
    9.7802  -18.1309   26.0653 C   0  0  0  0  0  0  0  0  0  0  0  0
   10.9294  -17.5297   25.4823 O   0  0  0  0  0  0  0  0  0  0  0  0
   11.6298  -16.6871   26.0997 C   0  0  0  0  0  0  0  0  0  0  0  0
   11.3575  -17.8749   24.1027 C   0  0  2  0  0  0  0  0  0  0  0  0
   12.0352  -16.6557   23.5061 N   0  0  0  0  0  0  0  0  0  0  0  0
   11.1446  -16.0278   22.5472 C   0  0  0  0  0  0  0  0  0  0  0  0
   13.2810  -17.0400   22.8250 O   0  0  0  0  0  0  0  0  0  0  0  0
   14.5112  -17.0380   23.4752 O   0  0  0  0  0  0  0  0  0  0  0  0
  2  1  1  0
  2  3  1  0
  3  4  1  6
  5  6  1  1
  5  3  1  0
  7  8  2  0
  7  5  1  0
 10  9  1  0
 11 10  2  0
 12 10  1  0
 13 12  1  0
 13 14  1  0
 14 15  1  0
 16 15  1  6
 16 17  1  0
 17  7  1  0
 18 16  1  0
 18 19  2  0
 20 21  1  0
 21 22  2  0
 21 23  1  0
 24 25  1  0
 24 23  1  1
 25 18  1  0
 26 24  1  0
 27 26  1  0
 28 26  2  0
M  END
$$$$
