IRN.pdb
     RDKit          3D

 28 27  0  0  1  0  0  0  0  0999 V2000
    7.6472  -12.3151   27.9664 C   0  0  0  0  0  0  0  0  0  0  0  0
    6.7289  -13.2205   27.2182 C   0  0  0  0  0  0  0  0  0  0  0  0
    7.4592  -13.8484   26.0558 C   0  0  2  0  0  0  0  0  0  0  0  0
    8.0004  -12.7750   25.1400 C   0  0  0  0  0  0  0  0  0  0  0  0
    6.5765  -14.8169   25.2972 C   0  0  2  0  0  0  0  0  0  0  0  0
    6.0935  -15.8883   26.1119 N   0  0  0  0  0  0  0  0  0  0  0  0
    7.3103  -15.3565   24.0946 C   0  0  0  0  0  0  0  0  0  0  0  0
    7.5729  -16.5825   24.0256 O   0  0  0  0  0  0  0  0  0  0  0  0
    7.5121  -13.3903   15.1300 N   0  0  0  0  0  0  0  0  0  0  0  0
    8.2465  -14.0709   16.1203 C   0  0  0  0  0  0  0  0  0  0  0  0
    9.5375  -14.0585   16.1611 N   0  0  0  0  0  0  0  0  0  0  0  0
    7.5283  -14.8089   17.1251 N   0  0  0  0  0  0  0  0  0  0  0  0
    7.1184  -14.1983   18.3779 C   0  0  0  0  0  0  0  0  0  0  0  0
    8.3046  -14.1367   19.3248 C   0  0  0  0  0  0  0  0  0  0  0  0
    7.8465  -13.8421   20.7214 C   0  0  0  0  0  0  0  0  0  0  0  0
    8.0128  -14.9771   21.6743 C   0  0  2  0  0  0  0  0  0  0  0  0
    7.7025  -14.4952   23.0496 N   0  0  0  0  0  0  0  0  0  0  0  0
    9.3360  -15.5985   21.7370 C   0  0  0  0  0  0  0  0  0  0  0  0
    9.6809  -16.3696   20.7671 O   0  0  0  0  0  0  0  0  0  0  0  0
   10.0261  -14.5326   16.9434 N   0  0  0  0  0  0  0  0  0  0  0  0
   12.8632  -16.0066   19.9825 C   0  0  0  0  0  0  0  0  0  0  0  0
   12.6468  -15.0137   20.9772 O   0  0  0  0  0  0  0  0  0  0  0  0
   12.3960  -13.8166   20.6843 C   0  0  0  0  0  0  0  0  0  0  0  0
   12.7081  -15.3514   22.4221 C   0  0  2  0  0  0  0  0  0  0  0  0
   11.5261  -16.2467   22.7423 N   0  0  0  0  0  0  0  0  0  0  0  0
   10.3073  -15.4584   22.7402 C   0  0  0  0  0  0  0  0  0  0  0  0
   11.6938  -16.8688   24.0646 O   0  0  0  0  0  0  0  0  0  0  0  0
   10.7432  -16.7347   25.0718 O   0  0  0  0  0  0  0  0  0  0  0  0
  2  1  1  0
  2  3  1  0
  3  4  1  6
  5  6  1  1
  5  3  1  0
  7  8  2  0
  7  5  1  0
 10  9  1  0
 11 10  2  0
 12 10  1  0
 13 12  1  0
 13 14  1  0
 14 15  1  0
 16 15  1  6
 16 17  1  0
 17  7  1  0
 18 16  1  0
 18 19  2  0
 20 21  1  0
 21 22  2  0
 21 23  1  0
 24 25  1  0
 24 23  1  6
 25 18  1  0
 26 24  1  0
 27 26  1  0
 28 26  2  0
M  END
$$$$
