IRN.pdb
     RDKit          3D

 28 27  0  0  1  0  0  0  0  0999 V2000
    6.8480  -12.0789   27.9958 C   0  0  0  0  0  0  0  0  0  0  0  0
    6.1388  -13.0923   27.1634 C   0  0  0  0  0  0  0  0  0  0  0  0
    7.0930  -13.6932   26.1598 C   0  0  2  0  0  0  0  0  0  0  0  0
    7.6936  -12.6070   25.2976 C   0  0  0  0  0  0  0  0  0  0  0  0
    6.4202  -14.7517   25.3117 C   0  0  2  0  0  0  0  0  0  0  0  0
    5.8274  -15.7962   26.0880 N   0  0  0  0  0  0  0  0  0  0  0  0
    7.4014  -15.3231   24.3184 C   0  0  0  0  0  0  0  0  0  0  0  0
    7.9969  -16.3970   24.5808 O   0  0  0  0  0  0  0  0  0  0  0  0
    9.3770  -15.1372   16.7643 N   0  0  0  0  0  0  0  0  0  0  0  0
    8.2640  -14.3304   17.0701 C   0  0  0  0  0  0  0  0  0  0  0  0
    8.2107  -13.0752   16.7700 N   0  0  0  0  0  0  0  0  0  0  0  0
    7.1430  -14.9302   17.7438 N   0  0  0  0  0  0  0  0  0  0  0  0
    7.2930  -15.6271   19.0096 C   0  0  0  0  0  0  0  0  0  0  0  0
    7.1309  -14.6416   20.1541 C   0  0  0  0  0  0  0  0  0  0  0  0
    8.4482  -14.3970   20.8265 C   0  0  0  0  0  0  0  0  0  0  0  0
    8.6391  -15.1543   22.0968 C   0  0  2  0  0  0  0  0  0  0  0  0
    7.6538  -14.6608   23.0996 N   0  0  0  0  0  0  0  0  0  0  0  0
    9.9569  -15.0666   22.7265 C   0  0  0  0  0  0  0  0  0  0  0  0
   10.1032  -14.2307   23.6931 O   0  0  0  0  0  0  0  0  0  0  0  0
    7.3562  -12.5336   16.9980 N   0  0  0  0  0  0  0  0  0  0  0  0
   11.8567  -19.5676   25.2997 C   0  0  0  0  0  0  0  0  0  0  0  0
   11.7899  -18.1509   25.1979 O   0  0  0  0  0  0  0  0  0  0  0  0
   12.4001  -17.3932   25.9951 C   0  0  0  0  0  0  0  0  0  0  0  0
   10.9875  -17.4967   24.1332 C   0  0  2  0  0  0  0  0  0  0  0  0
   11.8802  -16.4948   23.4256 N   0  0  0  0  0  0  0  0  0  0  0  0
   11.1135  -15.7959   22.4104 C   0  0  0  0  0  0  0  0  0  0  0  0
   13.0152  -17.1774   22.7858 O   0  0  0  0  0  0  0  0  0  0  0  0
   14.3346  -16.9057   23.1347 O   0  0  0  0  0  0  0  0  0  0  0  0
  2  1  1  0
  2  3  1  0
  3  4  1  6
  5  6  1  1
  5  3  1  0
  7  8  2  0
  7  5  1  0
 10  9  1  0
 11 10  2  0
 12 10  1  0
 13 12  1  0
 13 14  1  0
 14 15  1  0
 16 15  1  6
 16 17  1  0
 17  7  1  0
 18 16  1  0
 18 19  2  0
 20 21  1  0
 21 22  2  0
 21 23  1  0
 24 25  1  0
 24 23  1  1
 25 18  1  0
 26 24  1  0
 27 26  1  0
 28 26  2  0
M  END
$$$$
