IRN.pdb
     RDKit          3D

 28 27  0  0  1  0  0  0  0  0999 V2000
    7.9733  -11.7529   28.0766 C   0  0  0  0  0  0  0  0  0  0  0  0
    7.1044  -12.2615   26.9769 C   0  0  0  0  0  0  0  0  0  0  0  0
    7.6811  -13.5377   26.4133 C   0  0  2  0  0  0  0  0  0  0  0  0
    9.1085  -13.3128   25.9706 C   0  0  0  0  0  0  0  0  0  0  0  0
    6.8382  -14.0797   25.2783 C   0  0  2  0  0  0  0  0  0  0  0  0
    5.4542  -14.1991   25.6179 N   0  0  0  0  0  0  0  0  0  0  0  0
    7.3847  -15.4065   24.8126 C   0  0  0  0  0  0  0  0  0  0  0  0
    7.0116  -16.4645   25.3765 O   0  0  0  0  0  0  0  0  0  0  0  0
    7.2770  -12.2116   19.1535 N   0  0  0  0  0  0  0  0  0  0  0  0
    7.4240  -13.3502   18.3378 C   0  0  0  0  0  0  0  0  0  0  0  0
    7.0190  -13.3848   17.1117 N   0  0  0  0  0  0  0  0  0  0  0  0
    8.0500  -14.5200   18.8945 N   0  0  0  0  0  0  0  0  0  0  0  0
    8.5878  -14.5327   20.2439 C   0  0  0  0  0  0  0  0  0  0  0  0
    7.9043  -15.6219   21.0526 C   0  0  0  0  0  0  0  0  0  0  0  0
    8.9213  -16.5371   21.6653 C   0  0  0  0  0  0  0  0  0  0  0  0
    8.7534  -16.7473   23.1320 C   0  0  2  0  0  0  0  0  0  0  0  0
    8.3097  -15.4664   23.7503 N   0  0  0  0  0  0  0  0  0  0  0  0
    9.9350  -17.1842   23.8762 C   0  0  0  0  0  0  0  0  0  0  0  0
   10.4728  -18.3034   23.5407 O   0  0  0  0  0  0  0  0  0  0  0  0
    7.1509  -14.2511   16.5569 N   0  0  0  0  0  0  0  0  0  0  0  0
   13.4663  -16.9849   23.3836 C   0  0  0  0  0  0  0  0  0  0  0  0
   13.3517  -15.8909   24.2847 O   0  0  0  0  0  0  0  0  0  0  0  0
   13.6673  -14.7183   23.9571 C   0  0  0  0  0  0  0  0  0  0  0  0
   12.8485  -16.0878   25.6680 C   0  0  2  0  0  0  0  0  0  0  0  0
   11.7235  -17.1042   25.6146 N   0  0  0  0  0  0  0  0  0  0  0  0
   10.5799  -16.5248   24.9340 C   0  0  0  0  0  0  0  0  0  0  0  0
   11.3235  -17.5022   26.9730 O   0  0  0  0  0  0  0  0  0  0  0  0
   12.2130  -18.0978   27.8620 O   0  0  0  0  0  0  0  0  0  0  0  0
  2  1  1  0
  2  3  1  0
  3  4  1  6
  5  6  1  1
  5  3  1  0
  7  8  2  0
  7  5  1  0
 10  9  1  0
 11 10  2  0
 12 10  1  0
 13 12  1  0
 13 14  1  0
 14 15  1  0
 16 15  1  6
 16 17  1  0
 17  7  1  0
 18 16  1  0
 18 19  2  0
 20 21  1  0
 21 22  2  0
 21 23  1  0
 24 25  1  0
 24 23  1  6
 25 18  1  0
 26 24  1  0
 27 26  1  0
 28 26  2  0
M  END
$$$$
