IRN.pdb
     RDKit          3D

 28 27  0  0  1  0  0  0  0  0999 V2000
    8.0504  -11.3652   20.0038 C   0  0  0  0  0  0  0  0  0  0  0  0
    7.7516  -12.5872   19.2035 C   0  0  0  0  0  0  0  0  0  0  0  0
    8.5305  -13.7610   19.7459 C   0  0  2  0  0  0  0  0  0  0  0  0
   10.0142  -13.4932   19.6432 C   0  0  0  0  0  0  0  0  0  0  0  0
    8.1603  -15.0508   19.0443 C   0  0  2  0  0  0  0  0  0  0  0  0
    6.7494  -15.2807   19.0055 N   0  0  0  0  0  0  0  0  0  0  0  0
    8.8682  -16.2158   19.6906 C   0  0  0  0  0  0  0  0  0  0  0  0
    8.4712  -16.6452   20.8017 O   0  0  0  0  0  0  0  0  0  0  0  0
    9.5036  -18.5322   14.7357 N   0  0  0  0  0  0  0  0  0  0  0  0
   10.7872  -18.9568   14.3416 C   0  0  0  0  0  0  0  0  0  0  0  0
   11.3054  -18.6403   13.2014 N   0  0  0  0  0  0  0  0  0  0  0  0
   11.5496  -19.7756   15.2462 N   0  0  0  0  0  0  0  0  0  0  0  0
   11.0861  -20.0674   16.5917 C   0  0  0  0  0  0  0  0  0  0  0  0
   10.9855  -18.7761   17.3853 C   0  0  0  0  0  0  0  0  0  0  0  0
   10.8585  -19.0687   18.8500 C   0  0  0  0  0  0  0  0  0  0  0  0
   10.8185  -17.8562   19.7171 C   0  0  2  0  0  0  0  0  0  0  0  0
    9.9706  -16.8245   19.0565 N   0  0  0  0  0  0  0  0  0  0  0  0
   12.0996  -17.2160   20.0168 C   0  0  0  0  0  0  0  0  0  0  0  0
   13.0464  -17.3410   19.1552 O   0  0  0  0  0  0  0  0  0  0  0  0
   12.2854  -18.9105   12.9957 N   0  0  0  0  0  0  0  0  0  0  0  0
   14.7676  -15.9829   19.0720 C   0  0  0  0  0  0  0  0  0  0  0  0
   14.7537  -14.8197   19.8898 O   0  0  0  0  0  0  0  0  0  0  0  0
   15.1444  -13.7009   19.4687 C   0  0  0  0  0  0  0  0  0  0  0  0
   14.2713  -14.8763   21.2933 C   0  0  2  0  0  0  0  0  0  0  0  0
   13.8194  -16.2969   21.5741 N   0  0  0  0  0  0  0  0  0  0  0  0
   12.4413  -16.4594   21.1483 C   0  0  0  0  0  0  0  0  0  0  0  0
   13.9167  -16.5943   23.0114 O   0  0  0  0  0  0  0  0  0  0  0  0
   15.1405  -16.6861   23.6671 O   0  0  0  0  0  0  0  0  0  0  0  0
  2  1  1  0
  2  3  1  0
  3  4  1  6
  5  6  1  1
  5  3  1  0
  7  8  2  0
  7  5  1  0
 10  9  1  0
 11 10  2  0
 12 10  1  0
 13 12  1  0
 13 14  1  0
 14 15  1  0
 16 15  1  6
 16 17  1  0
 17  7  1  0
 18 16  1  0
 18 19  2  0
 20 21  1  0
 21 22  2  0
 21 23  1  0
 24 25  1  0
 24 23  1  6
 25 18  1  0
 26 24  1  0
 27 26  1  0
 28 26  2  0
M  END
$$$$
