IRN.pdb
     RDKit          3D

 28 27  0  0  1  0  0  0  0  0999 V2000
   10.0457  -14.4091   29.7395 C   0  0  0  0  0  0  0  0  0  0  0  0
    8.8790  -15.0937   29.1125 C   0  0  0  0  0  0  0  0  0  0  0  0
    9.1592  -15.3551   27.6524 C   0  0  2  0  0  0  0  0  0  0  0  0
    9.5654  -14.0732   26.9627 C   0  0  0  0  0  0  0  0  0  0  0  0
    7.9734  -15.9934   26.9603 C   0  0  2  0  0  0  0  0  0  0  0  0
    7.5285  -17.1903   27.6041 N   0  0  0  0  0  0  0  0  0  0  0  0
    8.2996  -16.2620   25.5120 C   0  0  0  0  0  0  0  0  0  0  0  0
    8.8400  -17.3480   25.1880 O   0  0  0  0  0  0  0  0  0  0  0  0
    8.4757  -14.4645   16.5057 N   0  0  0  0  0  0  0  0  0  0  0  0
    8.2113  -13.9237   17.7789 C   0  0  0  0  0  0  0  0  0  0  0  0
    8.7948  -12.8579   18.2172 N   0  0  0  0  0  0  0  0  0  0  0  0
    7.2531  -14.5864   18.6231 N   0  0  0  0  0  0  0  0  0  0  0  0
    6.9445  -14.1037   19.9581 C   0  0  0  0  0  0  0  0  0  0  0  0
    8.1408  -14.3259   20.8675 C   0  0  0  0  0  0  0  0  0  0  0  0
    7.7069  -14.3814   22.3013 C   0  0  0  0  0  0  0  0  0  0  0  0
    8.2878  -15.5162   23.0750 C   0  0  2  0  0  0  0  0  0  0  0  0
    8.0021  -15.3036   24.5217 N   0  0  0  0  0  0  0  0  0  0  0  0
    9.7316  -15.7238   22.9595 C   0  0  0  0  0  0  0  0  0  0  0  0
   10.5063  -14.8428   23.4869 O   0  0  0  0  0  0  0  0  0  0  0  0
    8.5626  -12.5038   19.1640 N   0  0  0  0  0  0  0  0  0  0  0  0
   11.7129  -19.3739   24.7926 C   0  0  0  0  0  0  0  0  0  0  0  0
   12.3526  -18.3012   24.1127 O   0  0  0  0  0  0  0  0  0  0  0  0
   12.9543  -17.3835   24.7272 C   0  0  0  0  0  0  0  0  0  0  0  0
   12.3377  -18.2171   22.6301 C   0  0  2  0  0  0  0  0  0  0  0  0
   11.8504  -16.8327   22.2464 N   0  0  0  0  0  0  0  0  0  0  0  0
   10.4024  -16.7873   22.3363 C   0  0  0  0  0  0  0  0  0  0  0  0
   12.2572  -16.5057   20.8712 O   0  0  0  0  0  0  0  0  0  0  0  0
   13.5939  -16.4425   20.4898 O   0  0  0  0  0  0  0  0  0  0  0  0
  2  1  1  0
  2  3  1  0
  3  4  1  6
  5  6  1  1
  5  3  1  0
  7  8  2  0
  7  5  1  0
 10  9  1  0
 11 10  2  0
 12 10  1  0
 13 12  1  0
 13 14  1  0
 14 15  1  0
 16 15  1  6
 16 17  1  0
 17  7  1  0
 18 16  1  0
 18 19  2  0
 20 21  1  0
 21 22  2  0
 21 23  1  0
 24 25  1  0
 24 23  1  1
 25 18  1  0
 26 24  1  0
 27 26  1  0
 28 26  2  0
M  END
$$$$
