PTW.pdb
     RDKit          3D

 29 31  0  0  1  0  0  0  0  0999 V2000
    8.6759  -15.3262   17.1882 N   0  0  0  0  0  0  0  0  0  0  0  0
    7.7612  -14.9422   16.1557 C   0  0  0  0  0  0  0  0  0  0  0  0
    7.3016  -13.5208   16.4728 C   0  0  0  0  0  0  0  0  0  0  0  0
    8.4920  -12.9828   17.2166 C   0  0  0  0  0  0  0  0  0  0  0  0
    9.0455  -14.1659   17.9347 C   0  0  1  0  0  0  0  0  0  0  0  0
    8.6362  -14.3023   19.3231 C   0  0  0  0  0  0  0  0  0  0  0  0
    8.8914  -13.3659   20.1304 O   0  0  0  0  0  0  0  0  0  0  0  0
    5.0330  -15.5677   20.3901 C   0  0  0  0  0  0  0  0  0  0  0  0
    6.1141  -16.2251   21.2171 C   0  0  1  0  0  0  0  0  0  0  0  0
    6.3857  -17.5235   20.8301 O   0  0  0  0  0  0  0  0  0  0  0  0
    7.4007  -15.4281   21.1982 C   0  0  2  0  0  0  0  0  0  0  0  0
    7.9620  -15.4265   19.8424 N   0  0  0  0  0  0  0  0  0  0  0  0
    8.3809  -15.9372   22.1690 C   0  0  0  0  0  0  0  0  0  0  0  0
    9.2732  -16.7607   21.8172 O   0  0  0  0  0  0  0  0  0  0  0  0
    8.3601  -15.5283   23.5053 N   0  0  0  0  0  0  0  0  0  0  0  0
    9.3435  -15.9914   24.4933 C   0  0  1  0  0  0  0  0  0  0  0  0
    9.5032  -14.9788   25.6002 C   0  0  0  0  0  0  0  0  0  0  0  0
   10.1768  -15.5368   26.7849 C   0  0  0  0  0  0  0  0  0  0  0  0
   10.8458  -16.7253   26.9575 C   0  0  0  0  0  0  0  0  0  0  0  0
   11.2990  -16.8121   28.2163 N   0  0  0  0  0  0  0  0  0  0  0  0
   10.9528  -15.7052   28.9089 C   0  0  0  0  0  0  0  0  0  0  0  0
   11.1749  -15.3152   30.2130 C   0  0  0  0  0  0  0  0  0  0  0  0
   10.6847  -14.0915   30.6473 C   0  0  0  0  0  0  0  0  0  0  0  0
    9.9845  -13.2800   29.7788 C   0  0  0  0  0  0  0  0  0  0  0  0
    9.7829  -13.7049   28.4825 C   0  0  0  0  0  0  0  0  0  0  0  0
   10.2554  -14.9092   28.0247 C   0  0  0  0  0  0  0  0  0  0  0  0
    8.8661  -17.2972   24.9936 C   0  0  0  0  0  0  0  0  0  0  0  0
    7.5143  -17.5669   25.0824 O   0  0  0  0  0  0  0  0  0  0  0  0
    9.6557  -18.2116   25.3571 O   0  0  0  0  0  0  0  0  0  0  0  0
  1  5  1  0
  2  1  1  0
  3  2  1  0
  3  4  1  0
  4  5  1  0
  5  6  1  1
  6  7  2  0
  9  8  1  6
  9 11  1  0
 10  9  1  0
 11 12  1  6
 11 13  1  0
 12  6  1  0
 13 14  2  0
 13 15  1  0
 15 16  1  0
 16 27  1  0
 16 17  1  1
 18 17  1  0
 19 18  2  0
 20 19  1  0
 21 20  1  0
 21 26  2  0
 22 21  1  0
 23 22  2  0
 23 24  1  0
 24 25  2  0
 25 26  1  0
 26 18  1  0
 27 29  2  0
 27 28  1  0
M  END
$$$$
