PTW.pdb
     RDKit          3D

 29 31  0  0  1  0  0  0  0  0999 V2000
    9.4795  -14.3870   18.9941 N   0  0  0  0  0  0  0  0  0  0  0  0
    8.7277  -14.1034   17.8091 C   0  0  0  0  0  0  0  0  0  0  0  0
    7.4624  -13.3697   18.2482 C   0  0  0  0  0  0  0  0  0  0  0  0
    7.9335  -12.6912   19.5042 C   0  0  0  0  0  0  0  0  0  0  0  0
    8.9379  -13.6310   20.0783 C   0  0  1  0  0  0  0  0  0  0  0  0
    8.4420  -14.5169   21.1188 C   0  0  0  0  0  0  0  0  0  0  0  0
    7.6296  -14.0632   21.9719 O   0  0  0  0  0  0  0  0  0  0  0  0
    7.1325  -18.2188   20.6445 C   0  0  0  0  0  0  0  0  0  0  0  0
    8.1049  -18.1390   21.7991 C   0  0  1  0  0  0  0  0  0  0  0  0
    9.3546  -18.6460   21.4981 O   0  0  0  0  0  0  0  0  0  0  0  0
    8.2598  -16.7220   22.3080 C   0  0  2  0  0  0  0  0  0  0  0  0
    8.8101  -15.8721   21.2459 N   0  0  0  0  0  0  0  0  0  0  0  0
    9.0963  -16.6566   23.5157 C   0  0  0  0  0  0  0  0  0  0  0  0
   10.3148  -16.3283   23.4426 O   0  0  0  0  0  0  0  0  0  0  0  0
    8.5742  -16.9516   24.7782 N   0  0  0  0  0  0  0  0  0  0  0  0
    9.3768  -16.8800   26.0064 C   0  0  1  0  0  0  0  0  0  0  0  0
    8.7532  -15.9259   26.9947 C   0  0  0  0  0  0  0  0  0  0  0  0
    8.7829  -14.5291   26.5290 C   0  0  0  0  0  0  0  0  0  0  0  0
    9.8167  -13.7744   26.0278 C   0  0  0  0  0  0  0  0  0  0  0  0
    9.3775  -12.5425   25.7326 N   0  0  0  0  0  0  0  0  0  0  0  0
    8.0621  -12.4397   26.0223 C   0  0  0  0  0  0  0  0  0  0  0  0
    7.1608  -11.4025   25.9043 C   0  0  0  0  0  0  0  0  0  0  0  0
    5.8435  -11.6017   26.2933 C   0  0  0  0  0  0  0  0  0  0  0  0
    5.4476  -12.8258   26.7912 C   0  0  0  0  0  0  0  0  0  0  0  0
    6.3781  -13.8384   26.8940 C   0  0  0  0  0  0  0  0  0  0  0  0
    7.6871  -13.6710   26.5175 C   0  0  0  0  0  0  0  0  0  0  0  0
    9.4698  -18.2555   26.5383 C   0  0  0  0  0  0  0  0  0  0  0  0
   10.2794  -18.5397   27.6207 O   0  0  0  0  0  0  0  0  0  0  0  0
    8.8261  -19.2185   26.0384 O   0  0  0  0  0  0  0  0  0  0  0  0
  1  5  1  0
  2  1  1  0
  3  2  1  0
  3  4  1  0
  4  5  1  0
  5  6  1  1
  6  7  2  0
  9  8  1  6
  9 11  1  0
 10  9  1  0
 11 12  1  6
 11 13  1  0
 12  6  1  0
 13 14  2  0
 13 15  1  0
 15 16  1  0
 16 27  1  0
 16 17  1  1
 18 17  1  0
 19 18  2  0
 20 19  1  0
 21 20  1  0
 21 26  2  0
 22 21  1  0
 23 22  2  0
 23 24  1  0
 24 25  2  0
 25 26  1  0
 26 18  1  0
 27 29  2  0
 27 28  1  0
M  END
$$$$
