PTW.pdb
     RDKit          3D

 29 31  0  0  1  0  0  0  0  0999 V2000
    8.4868  -14.5183   18.3473 N   0  0  0  0  0  0  0  0  0  0  0  0
    7.4091  -13.6957   17.8869 C   0  0  0  0  0  0  0  0  0  0  0  0
    6.9545  -12.8500   19.0744 C   0  0  0  0  0  0  0  0  0  0  0  0
    8.2265  -12.7451   19.8685 C   0  0  0  0  0  0  0  0  0  0  0  0
    8.9269  -14.0367   19.6180 C   0  0  1  0  0  0  0  0  0  0  0  0
    8.7445  -15.0552   20.6393 C   0  0  0  0  0  0  0  0  0  0  0  0
    7.5753  -15.4462   20.9106 O   0  0  0  0  0  0  0  0  0  0  0  0
    9.7980  -18.5381   20.6562 C   0  0  0  0  0  0  0  0  0  0  0  0
   10.3113  -17.9574   21.9541 C   0  0  1  0  0  0  0  0  0  0  0  0
   11.6637  -17.6753   21.9303 O   0  0  0  0  0  0  0  0  0  0  0  0
    9.5559  -16.7067   22.3492 C   0  0  2  0  0  0  0  0  0  0  0  0
    9.7997  -15.6488   21.3621 N   0  0  0  0  0  0  0  0  0  0  0  0
    9.9099  -16.2511   23.7018 C   0  0  0  0  0  0  0  0  0  0  0  0
   10.6395  -15.2329   23.8720 O   0  0  0  0  0  0  0  0  0  0  0  0
    9.4522  -16.9237   24.8383 N   0  0  0  0  0  0  0  0  0  0  0  0
    9.7976  -16.5040   26.2029 C   0  0  1  0  0  0  0  0  0  0  0  0
    8.5676  -16.4670   27.0757 C   0  0  0  0  0  0  0  0  0  0  0  0
    7.5079  -15.6058   26.5242 C   0  0  0  0  0  0  0  0  0  0  0  0
    6.3714  -15.9246   25.8197 C   0  0  0  0  0  0  0  0  0  0  0  0
    5.6958  -14.8064   25.5184 N   0  0  0  0  0  0  0  0  0  0  0  0
    6.3485  -13.7279   26.0034 C   0  0  0  0  0  0  0  0  0  0  0  0
    6.0744  -12.3769   25.9617 C   0  0  0  0  0  0  0  0  0  0  0  0
    6.9536  -11.4880   26.5645 C   0  0  0  0  0  0  0  0  0  0  0  0
    8.0865  -11.9578   27.1960 C   0  0  0  0  0  0  0  0  0  0  0  0
    8.3260  -13.3157   27.2165 C   0  0  0  0  0  0  0  0  0  0  0  0
    7.4752  -14.2183   26.6294 C   0  0  0  0  0  0  0  0  0  0  0  0
   10.8095  -17.4584   26.7016 C   0  0  0  0  0  0  0  0  0  0  0  0
   11.4263  -17.2589   27.9213 O   0  0  0  0  0  0  0  0  0  0  0  0
   11.1523  -18.4824   26.0492 O   0  0  0  0  0  0  0  0  0  0  0  0
  1  5  1  0
  2  1  1  0
  3  2  1  0
  3  4  1  0
  4  5  1  0
  5  6  1  1
  6  7  2  0
  9  8  1  6
  9 11  1  0
 10  9  1  0
 11 12  1  6
 11 13  1  0
 12  6  1  0
 13 14  2  0
 13 15  1  0
 15 16  1  0
 16 27  1  0
 16 17  1  1
 18 17  1  0
 19 18  2  0
 20 19  1  0
 21 20  1  0
 21 26  2  0
 22 21  1  0
 23 22  2  0
 23 24  1  0
 24 25  2  0
 25 26  1  0
 26 18  1  0
 27 29  2  0
 27 28  1  0
M  END
$$$$
