PTW.pdb
     RDKit          3D

 29 31  0  0  1  0  0  0  0  0999 V2000
    9.4473  -14.2410   18.2899 N   0  0  0  0  0  0  0  0  0  0  0  0
    8.4627  -13.8838   17.3138 C   0  0  0  0  0  0  0  0  0  0  0  0
    7.2752  -13.2952   18.0725 C   0  0  0  0  0  0  0  0  0  0  0  0
    7.9521  -12.7266   19.2883 C   0  0  0  0  0  0  0  0  0  0  0  0
    9.0950  -13.6493   19.5413 C   0  0  1  0  0  0  0  0  0  0  0  0
    8.8589  -14.6773   20.5418 C   0  0  0  0  0  0  0  0  0  0  0  0
    8.4458  -14.3347   21.6845 O   0  0  0  0  0  0  0  0  0  0  0  0
    8.9732  -19.4853   21.9314 C   0  0  0  0  0  0  0  0  0  0  0  0
    9.2092  -18.4238   20.8813 C   0  0  1  0  0  0  0  0  0  0  0  0
    8.5020  -18.6415   19.7144 O   0  0  0  0  0  0  0  0  0  0  0  0
    8.8875  -17.0383   21.3989 C   0  0  2  0  0  0  0  0  0  0  0  0
    9.0621  -16.0554   20.3235 N   0  0  0  0  0  0  0  0  0  0  0  0
    9.7028  -16.6823   22.5697 C   0  0  0  0  0  0  0  0  0  0  0  0
   10.8640  -16.2030   22.4288 O   0  0  0  0  0  0  0  0  0  0  0  0
    9.2229  -16.8591   23.8705 N   0  0  0  0  0  0  0  0  0  0  0  0
   10.0012  -16.4929   25.0611 C   0  0  1  0  0  0  0  0  0  0  0  0
    9.7432  -15.0568   25.4447 C   0  0  0  0  0  0  0  0  0  0  0  0
    8.3109  -14.7690   25.6298 C   0  0  0  0  0  0  0  0  0  0  0  0
    7.2109  -15.5844   25.5078 C   0  0  0  0  0  0  0  0  0  0  0  0
    6.0971  -14.8860   25.7713 N   0  0  0  0  0  0  0  0  0  0  0  0
    6.4140  -13.6077   26.0715 C   0  0  0  0  0  0  0  0  0  0  0  0
    5.6465  -12.5126   26.4090 C   0  0  0  0  0  0  0  0  0  0  0  0
    6.2716  -11.3009   26.6685 C   0  0  0  0  0  0  0  0  0  0  0  0
    7.6451  -11.2007   26.5877 C   0  0  0  0  0  0  0  0  0  0  0  0
    8.3781  -12.3180   26.2472 C   0  0  0  0  0  0  0  0  0  0  0  0
    7.7881  -13.5290   25.9852 C   0  0  0  0  0  0  0  0  0  0  0  0
    9.6164  -17.4361   26.1315 C   0  0  0  0  0  0  0  0  0  0  0  0
   10.3324  -17.4942   27.3113 O   0  0  0  0  0  0  0  0  0  0  0  0
    8.6334  -18.2192   26.0211 O   0  0  0  0  0  0  0  0  0  0  0  0
  1  5  1  0
  2  1  1  0
  3  2  1  0
  3  4  1  0
  4  5  1  0
  5  6  1  1
  6  7  2  0
  9  8  1  1
  9 11  1  0
 10  9  1  0
 11 12  1  6
 11 13  1  0
 12  6  1  0
 13 14  2  0
 13 15  1  0
 15 16  1  0
 16 27  1  0
 16 17  1  1
 18 17  1  0
 19 18  2  0
 20 19  1  0
 21 20  1  0
 21 26  2  0
 22 21  1  0
 23 22  2  0
 23 24  1  0
 24 25  2  0
 25 26  1  0
 26 18  1  0
 27 29  2  0
 27 28  1  0
M  END
$$$$
