PTW.pdb
     RDKit          3D

 29 31  0  0  1  0  0  0  0  0999 V2000
    9.4438  -14.2382   18.4121 N   0  0  0  0  0  0  0  0  0  0  0  0
    8.5889  -14.0224   17.2841 C   0  0  0  0  0  0  0  0  0  0  0  0
    7.2988  -13.4007   17.8145 C   0  0  0  0  0  0  0  0  0  0  0  0
    7.7964  -12.6824   19.0376 C   0  0  0  0  0  0  0  0  0  0  0  0
    8.9163  -13.5308   19.5353 C   0  0  1  0  0  0  0  0  0  0  0  0
    8.5733  -14.4552   20.6037 C   0  0  0  0  0  0  0  0  0  0  0  0
    7.9059  -14.0314   21.5879 O   0  0  0  0  0  0  0  0  0  0  0  0
    7.4263  -18.3099   20.1993 C   0  0  0  0  0  0  0  0  0  0  0  0
    8.4975  -18.1295   21.2506 C   0  0  1  0  0  0  0  0  0  0  0  0
    9.7513  -18.5284   20.8284 O   0  0  0  0  0  0  0  0  0  0  0  0
    8.5753  -16.6978   21.7354 C   0  0  2  0  0  0  0  0  0  0  0  0
    8.9395  -15.8167   20.6199 N   0  0  0  0  0  0  0  0  0  0  0  0
    9.5184  -16.5429   22.8530 C   0  0  0  0  0  0  0  0  0  0  0  0
   10.7472  -16.3367   22.6397 O   0  0  0  0  0  0  0  0  0  0  0  0
    9.0895  -16.6162   24.1812 N   0  0  0  0  0  0  0  0  0  0  0  0
   10.0086  -16.4955   25.3207 C   0  0  1  0  0  0  0  0  0  0  0  0
    9.6908  -15.2643   26.1327 C   0  0  0  0  0  0  0  0  0  0  0  0
    8.2567  -14.9301   26.1162 C   0  0  0  0  0  0  0  0  0  0  0  0
    7.1513  -15.7356   25.9788 C   0  0  0  0  0  0  0  0  0  0  0  0
    6.0382  -14.9895   26.0218 N   0  0  0  0  0  0  0  0  0  0  0  0
    6.3607  -13.6882   26.1861 C   0  0  0  0  0  0  0  0  0  0  0  0
    5.5962  -12.5450   26.2892 C   0  0  0  0  0  0  0  0  0  0  0  0
    6.2273  -11.3202   26.4568 C   0  0  0  0  0  0  0  0  0  0  0  0
    7.6039  -11.2551   26.5187 C   0  0  0  0  0  0  0  0  0  0  0  0
    8.3339  -12.4201   26.4117 C   0  0  0  0  0  0  0  0  0  0  0  0
    7.7379  -13.6451   26.2455 C   0  0  0  0  0  0  0  0  0  0  0  0
    9.8766  -17.7370   26.1111 C   0  0  0  0  0  0  0  0  0  0  0  0
   10.7811  -18.0356   27.1114 O   0  0  0  0  0  0  0  0  0  0  0  0
    8.9485  -18.5685   25.9138 O   0  0  0  0  0  0  0  0  0  0  0  0
  1  5  1  0
  2  1  1  0
  3  2  1  0
  3  4  1  0
  4  5  1  0
  5  6  1  1
  6  7  2  0
  9  8  1  6
  9 11  1  0
 10  9  1  0
 11 12  1  6
 11 13  1  0
 12  6  1  0
 13 14  2  0
 13 15  1  0
 15 16  1  0
 16 27  1  0
 16 17  1  1
 18 17  1  0
 19 18  2  0
 20 19  1  0
 21 20  1  0
 21 26  2  0
 22 21  1  0
 23 22  2  0
 23 24  1  0
 24 25  2  0
 25 26  1  0
 26 18  1  0
 27 29  2  0
 27 28  1  0
M  END
$$$$
