PTW.pdb
     RDKit          3D

 29 31  0  0  1  0  0  0  0  0999 V2000
    9.5563  -14.3975   18.5294 N   0  0  0  0  0  0  0  0  0  0  0  0
    8.7488  -14.1567   17.3718 C   0  0  0  0  0  0  0  0  0  0  0  0
    7.3949  -13.6547   17.8688 C   0  0  0  0  0  0  0  0  0  0  0  0
    7.7799  -12.9943   19.1631 C   0  0  0  0  0  0  0  0  0  0  0  0
    8.9257  -13.8044   19.6656 C   0  0  1  0  0  0  0  0  0  0  0  0
    8.5891  -14.8208   20.6491 C   0  0  0  0  0  0  0  0  0  0  0  0
    7.6965  -14.5703   21.5059 O   0  0  0  0  0  0  0  0  0  0  0  0
    8.7267  -18.8758   20.1914 C   0  0  0  0  0  0  0  0  0  0  0  0
    9.3917  -18.4022   21.4636 C   0  0  1  0  0  0  0  0  0  0  0  0
   10.7718  -18.4421   21.4073 O   0  0  0  0  0  0  0  0  0  0  0  0
    8.9562  -17.0022   21.8393 C   0  0  2  0  0  0  0  0  0  0  0  0
    9.1996  -16.0900   20.7159 N   0  0  0  0  0  0  0  0  0  0  0  0
    9.6269  -16.5225   23.0568 C   0  0  0  0  0  0  0  0  0  0  0  0
   10.5015  -15.6116   22.9983 O   0  0  0  0  0  0  0  0  0  0  0  0
    9.3200  -17.0532   24.3128 N   0  0  0  0  0  0  0  0  0  0  0  0
   10.0156  -16.6435   25.5400 C   0  0  1  0  0  0  0  0  0  0  0  0
    9.7179  -15.2004   25.8640 C   0  0  0  0  0  0  0  0  0  0  0  0
    8.2837  -14.9555   26.0912 C   0  0  0  0  0  0  0  0  0  0  0  0
    7.2079  -15.8086   26.0218 C   0  0  0  0  0  0  0  0  0  0  0  0
    6.0808  -15.1415   26.3088 N   0  0  0  0  0  0  0  0  0  0  0  0
    6.3648  -13.8477   26.5735 C   0  0  0  0  0  0  0  0  0  0  0  0
    5.5729  -12.7715   26.9153 C   0  0  0  0  0  0  0  0  0  0  0  0
    6.1657  -11.5350   27.1303 C   0  0  0  0  0  0  0  0  0  0  0  0
    7.5318  -11.3920   27.0018 C   0  0  0  0  0  0  0  0  0  0  0  0
    8.2898  -12.4916   26.6586 C   0  0  0  0  0  0  0  0  0  0  0  0
    7.7320  -13.7262   26.4399 C   0  0  0  0  0  0  0  0  0  0  0  0
    9.5721  -17.5606   26.6104 C   0  0  0  0  0  0  0  0  0  0  0  0
   10.1645  -17.5273   27.8578 O   0  0  0  0  0  0  0  0  0  0  0  0
    8.6482  -18.4025   26.4395 O   0  0  0  0  0  0  0  0  0  0  0  0
  1  5  1  0
  2  1  1  0
  3  2  1  0
  3  4  1  0
  4  5  1  0
  5  6  1  1
  6  7  2  0
  9  8  1  6
  9 11  1  0
 10  9  1  0
 11 12  1  6
 11 13  1  0
 12  6  1  0
 13 14  2  0
 13 15  1  0
 15 16  1  0
 16 27  1  0
 16 17  1  1
 18 17  1  0
 19 18  2  0
 20 19  1  0
 21 20  1  0
 21 26  2  0
 22 21  1  0
 23 22  2  0
 23 24  1  0
 24 25  2  0
 25 26  1  0
 26 18  1  0
 27 29  2  0
 27 28  1  0
M  END
$$$$
