PTW.pdb
     RDKit          3D

 29 31  0  0  1  0  0  0  0  0999 V2000
    9.4106  -14.1045   17.4437 N   0  0  0  0  0  0  0  0  0  0  0  0
    8.3912  -13.9889   16.4450 C   0  0  0  0  0  0  0  0  0  0  0  0
    7.0621  -13.8311   17.1802 C   0  0  0  0  0  0  0  0  0  0  0  0
    7.5052  -13.1720   18.4564 C   0  0  0  0  0  0  0  0  0  0  0  0
    8.8639  -13.7303   18.7091 C   0  0  1  0  0  0  0  0  0  0  0  0
    8.9180  -14.8478   19.6374 C   0  0  0  0  0  0  0  0  0  0  0  0
    7.9731  -15.0057   20.4596 O   0  0  0  0  0  0  0  0  0  0  0  0
   10.9282  -18.4105   19.0747 C   0  0  0  0  0  0  0  0  0  0  0  0
   11.1442  -17.7864   20.4345 C   0  0  1  0  0  0  0  0  0  0  0  0
   12.3818  -17.1873   20.5714 O   0  0  0  0  0  0  0  0  0  0  0  0
   10.0694  -16.7738   20.7666 C   0  0  2  0  0  0  0  0  0  0  0  0
    9.9697  -15.7856   19.6863 N   0  0  0  0  0  0  0  0  0  0  0  0
   10.3116  -16.1136   22.0580 C   0  0  0  0  0  0  0  0  0  0  0  0
   10.7427  -14.9263   22.1077 O   0  0  0  0  0  0  0  0  0  0  0  0
   10.0727  -16.7725   23.2672 N   0  0  0  0  0  0  0  0  0  0  0  0
    9.4048  -16.1272   24.4052 C   0  0  1  0  0  0  0  0  0  0  0  0
    8.0725  -15.5565   23.9865 C   0  0  0  0  0  0  0  0  0  0  0  0
    7.3208  -14.9857   25.1170 C   0  0  0  0  0  0  0  0  0  0  0  0
    6.4132  -15.5646   25.9719 C   0  0  0  0  0  0  0  0  0  0  0  0
    5.9789  -14.6550   26.8561 N   0  0  0  0  0  0  0  0  0  0  0  0
    6.5723  -13.4642   26.6226 C   0  0  0  0  0  0  0  0  0  0  0  0
    6.4684  -12.2350   27.2393 C   0  0  0  0  0  0  0  0  0  0  0  0
    7.2222  -11.1716   26.7626 C   0  0  0  0  0  0  0  0  0  0  0  0
    8.0636  -11.3497   25.6840 C   0  0  0  0  0  0  0  0  0  0  0  0
    8.1401  -12.5938   25.0941 C   0  0  0  0  0  0  0  0  0  0  0  0
    7.4072  -13.6636   25.5431 C   0  0  0  0  0  0  0  0  0  0  0  0
    9.2678  -17.1532   25.4597 C   0  0  0  0  0  0  0  0  0  0  0  0
    9.4435  -16.8251   26.7899 O   0  0  0  0  0  0  0  0  0  0  0  0
    8.9890  -18.3560   25.2005 O   0  0  0  0  0  0  0  0  0  0  0  0
  1  5  1  0
  2  1  1  0
  3  2  1  0
  3  4  1  0
  4  5  1  0
  5  6  1  1
  6  7  2  0
  9  8  1  6
  9 11  1  0
 10  9  1  0
 11 12  1  6
 11 13  1  0
 12  6  1  0
 13 14  2  0
 13 15  1  0
 15 16  1  0
 16 27  1  0
 16 17  1  6
 18 17  1  0
 19 18  2  0
 20 19  1  0
 21 20  1  0
 21 26  2  0
 22 21  1  0
 23 22  2  0
 23 24  1  0
 24 25  2  0
 25 26  1  0
 26 18  1  0
 27 29  2  0
 27 28  1  0
M  END
$$$$
