PTW.pdb
     RDKit          3D

 29 31  0  0  1  0  0  0  0  0999 V2000
    9.4979  -14.0996   18.6008 N   0  0  0  0  0  0  0  0  0  0  0  0
    8.6269  -13.9209   17.4785 C   0  0  0  0  0  0  0  0  0  0  0  0
    7.2488  -13.5694   18.0347 C   0  0  0  0  0  0  0  0  0  0  0  0
    7.6136  -12.8976   19.3290 C   0  0  0  0  0  0  0  0  0  0  0  0
    8.8538  -13.5956   19.7719 C   0  0  1  0  0  0  0  0  0  0  0  0
    8.6595  -14.6594   20.7436 C   0  0  0  0  0  0  0  0  0  0  0  0
    7.7955  -14.5076   21.6514 O   0  0  0  0  0  0  0  0  0  0  0  0
    9.0178  -18.6813   20.1075 C   0  0  0  0  0  0  0  0  0  0  0  0
    9.7336  -18.2057   21.3512 C   0  0  1  0  0  0  0  0  0  0  0  0
   11.1051  -18.1335   21.1995 O   0  0  0  0  0  0  0  0  0  0  0  0
    9.2199  -16.8603   21.8169 C   0  0  2  0  0  0  0  0  0  0  0  0
    9.3802  -15.8713   20.7448 N   0  0  0  0  0  0  0  0  0  0  0  0
    9.8867  -16.4096   23.0476 C   0  0  0  0  0  0  0  0  0  0  0  0
   10.7900  -15.5261   23.0085 O   0  0  0  0  0  0  0  0  0  0  0  0
    9.5444  -16.9387   24.2952 N   0  0  0  0  0  0  0  0  0  0  0  0
   10.2005  -16.5225   25.5417 C   0  0  1  0  0  0  0  0  0  0  0  0
    9.8592  -15.0902   25.8703 C   0  0  0  0  0  0  0  0  0  0  0  0
    8.4100  -14.8727   26.0157 C   0  0  0  0  0  0  0  0  0  0  0  0
    7.3541  -15.7373   25.8508 C   0  0  0  0  0  0  0  0  0  0  0  0
    6.2011  -15.0958   26.0891 N   0  0  0  0  0  0  0  0  0  0  0  0
    6.4479  -13.8082   26.4140 C   0  0  0  0  0  0  0  0  0  0  0  0
    5.6196  -12.7551   26.7414 C   0  0  0  0  0  0  0  0  0  0  0  0
    6.1785  -11.5188   27.0341 C   0  0  0  0  0  0  0  0  0  0  0  0
    7.5475  -11.3529   26.9959 C   0  0  0  0  0  0  0  0  0  0  0  0
    8.3425  -12.4298   26.6642 C   0  0  0  0  0  0  0  0  0  0  0  0
    7.8187  -13.6636   26.3700 C   0  0  0  0  0  0  0  0  0  0  0  0
    9.7553  -17.4597   26.5939 C   0  0  0  0  0  0  0  0  0  0  0  0
   10.2752  -17.3843   27.8714 O   0  0  0  0  0  0  0  0  0  0  0  0
    8.8949  -18.3572   26.3797 O   0  0  0  0  0  0  0  0  0  0  0  0
  1  5  1  0
  2  1  1  0
  3  2  1  0
  3  4  1  0
  4  5  1  0
  5  6  1  1
  6  7  2  0
  9  8  1  6
  9 11  1  0
 10  9  1  0
 11 12  1  6
 11 13  1  0
 12  6  1  0
 13 14  2  0
 13 15  1  0
 15 16  1  0
 16 27  1  0
 16 17  1  1
 18 17  1  0
 19 18  2  0
 20 19  1  0
 21 20  1  0
 21 26  2  0
 22 21  1  0
 23 22  2  0
 23 24  1  0
 24 25  2  0
 25 26  1  0
 26 18  1  0
 27 29  2  0
 27 28  1  0
M  END
$$$$
