PTW.pdb
     RDKit          3D

 29 31  0  0  1  0  0  0  0  0999 V2000
    8.0372  -14.4551   17.7920 N   0  0  0  0  0  0  0  0  0  0  0  0
    7.1642  -13.3208   17.7578 C   0  0  0  0  0  0  0  0  0  0  0  0
    7.3710  -12.5590   19.0651 C   0  0  0  0  0  0  0  0  0  0  0  0
    8.7973  -12.9062   19.3886 C   0  0  0  0  0  0  0  0  0  0  0  0
    8.9707  -14.2892   18.8604 C   0  0  1  0  0  0  0  0  0  0  0  0
    8.8205  -15.3550   19.8376 C   0  0  0  0  0  0  0  0  0  0  0  0
    8.0771  -16.3372   19.5614 O   0  0  0  0  0  0  0  0  0  0  0  0
    9.4283  -18.0501   19.9135 C   0  0  0  0  0  0  0  0  0  0  0  0
   10.1460  -17.7071   21.1989 C   0  0  1  0  0  0  0  0  0  0  0  0
   11.4778  -17.3886   21.0139 O   0  0  0  0  0  0  0  0  0  0  0  0
    9.4681  -16.5728   21.9370 C   0  0  2  0  0  0  0  0  0  0  0  0
    9.4577  -15.3709   21.0953 N   0  0  0  0  0  0  0  0  0  0  0  0
   10.1055  -16.2976   23.2333 C   0  0  0  0  0  0  0  0  0  0  0  0
   11.0859  -15.5041   23.3174 O   0  0  0  0  0  0  0  0  0  0  0  0
    9.6497  -16.8992   24.4097 N   0  0  0  0  0  0  0  0  0  0  0  0
   10.1341  -16.5097   25.7405 C   0  0  1  0  0  0  0  0  0  0  0  0
    9.7666  -15.0780   26.0427 C   0  0  0  0  0  0  0  0  0  0  0  0
    8.3158  -14.8375   25.9650 C   0  0  0  0  0  0  0  0  0  0  0  0
    7.2820  -15.6908   25.6602 C   0  0  0  0  0  0  0  0  0  0  0  0
    6.1174  -15.0286   25.7107 N   0  0  0  0  0  0  0  0  0  0  0  0
    6.3343  -13.7378   26.0444 C   0  0  0  0  0  0  0  0  0  0  0  0
    5.4843  -12.6667   26.2239 C   0  0  0  0  0  0  0  0  0  0  0  0
    6.0138  -11.4323   26.5735 C   0  0  0  0  0  0  0  0  0  0  0  0
    7.3757  -11.2861   26.7378 C   0  0  0  0  0  0  0  0  0  0  0  0
    8.1931  -12.3806   26.5495 C   0  0  0  0  0  0  0  0  0  0  0  0
    7.6985  -13.6131   26.2037 C   0  0  0  0  0  0  0  0  0  0  0  0
    9.5394  -17.4562   26.7070 C   0  0  0  0  0  0  0  0  0  0  0  0
    9.8990  -17.4219   28.0402 O   0  0  0  0  0  0  0  0  0  0  0  0
    8.6903  -18.3252   26.3669 O   0  0  0  0  0  0  0  0  0  0  0  0
  1  5  1  0
  2  1  1  0
  3  2  1  0
  3  4  1  0
  4  5  1  0
  5  6  1  1
  6  7  2  0
  9  8  1  6
  9 11  1  0
 10  9  1  0
 11 12  1  6
 11 13  1  0
 12  6  1  0
 13 14  2  0
 13 15  1  0
 15 16  1  0
 16 27  1  0
 16 17  1  1
 18 17  1  0
 19 18  2  0
 20 19  1  0
 21 20  1  0
 21 26  2  0
 22 21  1  0
 23 22  2  0
 23 24  1  0
 24 25  2  0
 25 26  1  0
 26 18  1  0
 27 29  2  0
 27 28  1  0
M  END
$$$$
