PTW.pdb
     RDKit          3D

 29 31  0  0  1  0  0  0  0  0999 V2000
    9.0528  -14.4376   17.9061 N   0  0  0  0  0  0  0  0  0  0  0  0
    8.1148  -13.7792   17.0478 C   0  0  0  0  0  0  0  0  0  0  0  0
    7.2143  -12.9281   17.9403 C   0  0  0  0  0  0  0  0  0  0  0  0
    8.1358  -12.6246   19.0886 C   0  0  0  0  0  0  0  0  0  0  0  0
    8.9996  -13.8342   19.1997 C   0  0  1  0  0  0  0  0  0  0  0  0
    8.5878  -14.8070   20.1985 C   0  0  0  0  0  0  0  0  0  0  0  0
    7.5640  -15.5123   19.9791 O   0  0  0  0  0  0  0  0  0  0  0  0
    8.0946  -17.4673   20.3240 C   0  0  0  0  0  0  0  0  0  0  0  0
    9.0351  -17.4488   21.5072 C   0  0  1  0  0  0  0  0  0  0  0  0
   10.3561  -17.6575   21.1596 O   0  0  0  0  0  0  0  0  0  0  0  0
    8.9316  -16.1568   22.2889 C   0  0  2  0  0  0  0  0  0  0  0  0
    9.2624  -15.0234   21.4176 N   0  0  0  0  0  0  0  0  0  0  0  0
    9.7873  -16.1639   23.4847 C   0  0  0  0  0  0  0  0  0  0  0  0
   10.9995  -15.8119   23.4158 O   0  0  0  0  0  0  0  0  0  0  0  0
    9.2912  -16.5560   24.7312 N   0  0  0  0  0  0  0  0  0  0  0  0
   10.0886  -16.4826   25.9625 C   0  0  1  0  0  0  0  0  0  0  0  0
    9.5999  -15.3623   26.8470 C   0  0  0  0  0  0  0  0  0  0  0  0
    8.2120  -14.9704   26.5491 C   0  0  0  0  0  0  0  0  0  0  0  0
    7.1242  -15.7309   26.1911 C   0  0  0  0  0  0  0  0  0  0  0  0
    6.0554  -14.9402   26.0173 N   0  0  0  0  0  0  0  0  0  0  0  0
    6.3910  -13.6526   26.2496 C   0  0  0  0  0  0  0  0  0  0  0  0
    5.6677  -12.4792   26.2059 C   0  0  0  0  0  0  0  0  0  0  0  0
    6.3018  -11.2806   26.5020 C   0  0  0  0  0  0  0  0  0  0  0  0
    7.6404  -11.2710   26.8354 C   0  0  0  0  0  0  0  0  0  0  0  0
    8.3298  -12.4649   26.8683 C   0  0  0  0  0  0  0  0  0  0  0  0
    7.7298  -13.6651   26.5805 C   0  0  0  0  0  0  0  0  0  0  0  0
    9.9838  -17.8016   26.6203 C   0  0  0  0  0  0  0  0  0  0  0  0
    9.1714  -18.7883   26.0964 O   0  0  0  0  0  0  0  0  0  0  0  0
   10.6196  -18.0847   27.6726 O   0  0  0  0  0  0  0  0  0  0  0  0
  1  5  1  0
  2  1  1  0
  3  2  1  0
  3  4  1  0
  4  5  1  0
  5  6  1  1
  6  7  2  0
  9  8  1  6
  9 11  1  0
 10  9  1  0
 11 12  1  6
 11 13  1  0
 12  6  1  0
 13 14  2  0
 13 15  1  0
 15 16  1  0
 16 27  1  0
 16 17  1  1
 18 17  1  0
 19 18  2  0
 20 19  1  0
 21 20  1  0
 21 26  2  0
 22 21  1  0
 23 22  2  0
 23 24  1  0
 24 25  2  0
 25 26  1  0
 26 18  1  0
 27 29  2  0
 27 28  1  0
M  END
$$$$
