PTW.pdb
     RDKit          3D

 29 31  0  0  1  0  0  0  0  0999 V2000
    8.3838  -14.5909   18.5771 N   0  0  0  0  0  0  0  0  0  0  0  0
    7.3198  -13.7175   18.1834 C   0  0  0  0  0  0  0  0  0  0  0  0
    7.0306  -12.8027   19.3715 C   0  0  0  0  0  0  0  0  0  0  0  0
    8.3755  -12.7517   20.0411 C   0  0  0  0  0  0  0  0  0  0  0  0
    8.9695  -14.0938   19.7813 C   0  0  1  0  0  0  0  0  0  0  0  0
    8.8221  -15.0615   20.8562 C   0  0  0  0  0  0  0  0  0  0  0  0
    7.6613  -15.4011   21.2179 O   0  0  0  0  0  0  0  0  0  0  0  0
   10.0144  -18.5311   20.9074 C   0  0  0  0  0  0  0  0  0  0  0  0
   10.4731  -17.9297   22.2162 C   0  0  1  0  0  0  0  0  0  0  0  0
   11.8228  -17.6343   22.2395 O   0  0  0  0  0  0  0  0  0  0  0  0
    9.6916  -16.6820   22.5673 C   0  0  2  0  0  0  0  0  0  0  0  0
    9.9028  -15.6593   21.5365 N   0  0  0  0  0  0  0  0  0  0  0  0
   10.0451  -16.1641   23.8975 C   0  0  0  0  0  0  0  0  0  0  0  0
   10.8205  -15.1735   24.0217 O   0  0  0  0  0  0  0  0  0  0  0  0
    9.5366  -16.7453   25.0624 N   0  0  0  0  0  0  0  0  0  0  0  0
    9.9530  -16.3253   26.4069 C   0  0  1  0  0  0  0  0  0  0  0  0
    8.7579  -16.1992   27.3190 C   0  0  0  0  0  0  0  0  0  0  0  0
    7.6685  -15.4106   26.7188 C   0  0  0  0  0  0  0  0  0  0  0  0
    6.5714  -15.8078   25.9920 C   0  0  0  0  0  0  0  0  0  0  0  0
    5.8443  -14.7358   25.6459 N   0  0  0  0  0  0  0  0  0  0  0  0
    6.4231  -13.6121   26.1222 C   0  0  0  0  0  0  0  0  0  0  0  0
    6.0767  -12.2796   26.0407 C   0  0  0  0  0  0  0  0  0  0  0  0
    6.8886  -11.3300   26.6452 C   0  0  0  0  0  0  0  0  0  0  0  0
    8.0274  -11.7220   27.3180 C   0  0  0  0  0  0  0  0  0  0  0  0
    8.3402  -13.0637   27.3775 C   0  0  0  0  0  0  0  0  0  0  0  0
    7.5570  -14.0251   26.7897 C   0  0  0  0  0  0  0  0  0  0  0  0
   10.9217  -17.3314   26.8894 C   0  0  0  0  0  0  0  0  0  0  0  0
   11.6081  -17.1389   28.0726 O   0  0  0  0  0  0  0  0  0  0  0  0
   11.1640  -18.3950   26.2554 O   0  0  0  0  0  0  0  0  0  0  0  0
  1  5  1  0
  2  1  1  0
  3  2  1  0
  3  4  1  0
  4  5  1  0
  5  6  1  1
  6  7  2  0
  9  8  1  6
  9 11  1  0
 10  9  1  0
 11 12  1  6
 11 13  1  0
 12  6  1  0
 13 14  2  0
 13 15  1  0
 15 16  1  0
 16 27  1  0
 16 17  1  1
 18 17  1  0
 19 18  2  0
 20 19  1  0
 21 20  1  0
 21 26  2  0
 22 21  1  0
 23 22  2  0
 23 24  1  0
 24 25  2  0
 25 26  1  0
 26 18  1  0
 27 29  2  0
 27 28  1  0
M  END
$$$$
