PTW.pdb
     RDKit          3D

 29 31  0  0  1  0  0  0  0  0999 V2000
    9.4521  -14.3672   18.3220 N   0  0  0  0  0  0  0  0  0  0  0  0
    8.6544  -14.1232   17.1583 C   0  0  0  0  0  0  0  0  0  0  0  0
    7.3237  -13.5507   17.6415 C   0  0  0  0  0  0  0  0  0  0  0  0
    7.7379  -12.8729   18.9177 C   0  0  0  0  0  0  0  0  0  0  0  0
    8.8485  -13.7175   19.4419 C   0  0  1  0  0  0  0  0  0  0  0  0
    8.4698  -14.6919   20.4522 C   0  0  0  0  0  0  0  0  0  0  0  0
    7.6641  -14.3481   21.3612 O   0  0  0  0  0  0  0  0  0  0  0  0
    7.9716  -18.7113   19.9889 C   0  0  0  0  0  0  0  0  0  0  0  0
    8.8332  -18.3540   21.1785 C   0  0  1  0  0  0  0  0  0  0  0  0
   10.1805  -18.5739   20.9641 O   0  0  0  0  0  0  0  0  0  0  0  0
    8.6329  -16.9164   21.6075 C   0  0  2  0  0  0  0  0  0  0  0  0
    8.9467  -16.0182   20.4904 N   0  0  0  0  0  0  0  0  0  0  0  0
    9.4342  -16.5762   22.7926 C   0  0  0  0  0  0  0  0  0  0  0  0
   10.5503  -15.9945   22.6746 O   0  0  0  0  0  0  0  0  0  0  0  0
    8.9901  -16.8813   24.0823 N   0  0  0  0  0  0  0  0  0  0  0  0
    9.8236  -16.6874   25.2762 C   0  0  1  0  0  0  0  0  0  0  0  0
    9.6441  -15.2957   25.8302 C   0  0  0  0  0  0  0  0  0  0  0  0
    8.2283  -14.9008   25.9209 C   0  0  0  0  0  0  0  0  0  0  0  0
    7.0807  -15.6323   25.7268 C   0  0  0  0  0  0  0  0  0  0  0  0
    6.0075  -14.8515   25.9168 N   0  0  0  0  0  0  0  0  0  0  0  0
    6.3988  -13.5990   26.2375 C   0  0  0  0  0  0  0  0  0  0  0  0
    5.6950  -12.4481   26.5241 C   0  0  0  0  0  0  0  0  0  0  0  0
    6.3908  -11.2852   26.8244 C   0  0  0  0  0  0  0  0  0  0  0  0
    7.7703  -11.2883   26.8340 C   0  0  0  0  0  0  0  0  0  0  0  0
    8.4383  -12.4588   26.5420 C   0  0  0  0  0  0  0  0  0  0  0  0
    7.7777  -13.6236   26.2416 C   0  0  0  0  0  0  0  0  0  0  0  0
    9.4320  -17.7310   26.2462 C   0  0  0  0  0  0  0  0  0  0  0  0
   10.1376  -17.9020   27.4213 O   0  0  0  0  0  0  0  0  0  0  0  0
    8.4524  -18.5018   26.0513 O   0  0  0  0  0  0  0  0  0  0  0  0
  1  5  1  0
  2  1  1  0
  3  2  1  0
  3  4  1  0
  4  5  1  0
  5  6  1  1
  6  7  2  0
  9  8  1  6
  9 11  1  0
 10  9  1  0
 11 12  1  6
 11 13  1  0
 12  6  1  0
 13 14  2  0
 13 15  1  0
 15 16  1  0
 16 27  1  0
 16 17  1  1
 18 17  1  0
 19 18  2  0
 20 19  1  0
 21 20  1  0
 21 26  2  0
 22 21  1  0
 23 22  2  0
 23 24  1  0
 24 25  2  0
 25 26  1  0
 26 18  1  0
 27 29  2  0
 27 28  1  0
M  END
$$$$
