HVE.pdb
     RDKit          3D

 27 27  0  0  1  0  0  0  0  0999 V2000
    8.4928  -17.3990   16.5042 N   0  0  0  0  0  0  0  0  0  0  0  0
    7.8534  -17.4538   17.8253 C   0  0  1  0  0  0  0  0  0  0  0  0
    7.8675  -18.9324   18.2107 C   0  0  0  0  0  0  0  0  0  0  0  0
    6.9067  -19.6612   17.3453 C   0  0  0  0  0  0  0  0  0  0  0  0
    5.7324  -19.0870   16.8609 C   0  0  0  0  0  0  0  0  0  0  0  0
    5.1216  -20.0282   16.1245 N   0  0  0  0  0  0  0  0  0  0  0  0
    5.8696  -21.1397   16.1417 C   0  0  0  0  0  0  0  0  0  0  0  0
    6.9757  -20.9388   16.8876 N   0  0  0  0  0  0  0  0  0  0  0  0
    8.6292  -16.6800   18.8146 C   0  0  0  0  0  0  0  0  0  0  0  0
    9.9046  -16.6590   18.7481 O   0  0  0  0  0  0  0  0  0  0  0  0
    7.4268  -13.1413   20.3125 C   0  0  0  0  0  0  0  0  0  0  0  0
    8.0007  -14.0276   21.4015 C   0  0  1  0  0  0  0  0  0  0  0  0
    6.9309  -14.5788   22.2903 C   0  0  0  0  0  0  0  0  0  0  0  0
    8.8226  -15.1177   20.7369 C   0  0  2  0  0  0  0  0  0  0  0  0
    8.0333  -15.9362   19.8649 N   0  0  0  0  0  0  0  0  0  0  0  0
    9.5730  -15.9150   21.7377 C   0  0  0  0  0  0  0  0  0  0  0  0
    9.1383  -17.0079   22.1634 O   0  0  0  0  0  0  0  0  0  0  0  0
   10.8033  -15.4498   22.2331 N   0  0  0  0  0  0  0  0  0  0  0  0
   11.7509  -16.2077   22.9957 C   0  0  1  0  0  0  0  0  0  0  0  0
   13.1627  -15.7545   22.9715 C   0  0  0  0  0  0  0  0  0  0  0  0
   14.1682  -16.5026   23.7499 C   0  0  0  0  0  0  0  0  0  0  0  0
   15.5551  -16.0773   23.6640 C   0  0  0  0  0  0  0  0  0  0  0  0
   16.4755  -16.6115   24.3015 O   0  0  0  0  0  0  0  0  0  0  0  0
   11.2611  -16.4806   24.3846 C   0  0  0  0  0  0  0  0  0  0  0  0
   10.4216  -15.5395   24.9638 O   0  0  0  0  0  0  0  0  0  0  0  0
   15.9016  -15.0145   22.8299 O   0  0  0  0  0  0  0  0  0  0  0  0
   11.5574  -17.4924   25.0484 O   0  0  0  0  0  0  0  0  0  0  0  0
  2  1  1  6
  3  2  1  0
  4  3  1  0
  5  4  2  0
  6  5  1  0
  7  6  1  0
  7  8  2  0
  8  4  1  0
  9  2  1  0
 10  9  2  0
 12 11  1  6
 13 12  1  0
 14 15  1  1
 14 12  1  0
 15  9  1  0
 16 17  2  0
 16 14  1  0
 18 16  1  0
 19 24  1  0
 19 18  1  0
 19 20  1  1
 21 22  1  0
 21 20  1  0
 22 26  1  0
 23 22  2  0
 24 25  1  0
 27 24  2  0
M  END
$$$$
