HVE.pdb
     RDKit          3D

 27 27  0  0  1  0  0  0  0  0999 V2000
    7.9491  -14.9062   20.2815 N   0  0  0  0  0  0  0  0  0  0  0  0
    7.2398  -15.3859   21.4748 C   0  0  1  0  0  0  0  0  0  0  0  0
    7.3582  -16.9084   21.4202 C   0  0  0  0  0  0  0  0  0  0  0  0
    6.4822  -17.4175   20.3356 C   0  0  0  0  0  0  0  0  0  0  0  0
    6.5806  -16.9872   19.0132 C   0  0  0  0  0  0  0  0  0  0  0  0
    5.6420  -17.6535   18.3230 N   0  0  0  0  0  0  0  0  0  0  0  0
    4.9839  -18.4629   19.1639 C   0  0  0  0  0  0  0  0  0  0  0  0
    5.4834  -18.3358   20.4107 N   0  0  0  0  0  0  0  0  0  0  0  0
    7.8862  -14.8858   22.7042 C   0  0  0  0  0  0  0  0  0  0  0  0
    9.1596  -14.8061   22.7668 O   0  0  0  0  0  0  0  0  0  0  0  0
    7.7146  -12.9477   27.2351 C   0  0  0  0  0  0  0  0  0  0  0  0
    6.9178  -13.3130   25.9971 C   0  0  1  0  0  0  0  0  0  0  0  0
    6.2874  -12.1111   25.3676 C   0  0  0  0  0  0  0  0  0  0  0  0
    7.8410  -14.0512   25.0441 C   0  0  2  0  0  0  0  0  0  0  0  0
    7.1646  -14.4758   23.8542 N   0  0  0  0  0  0  0  0  0  0  0  0
    8.5425  -15.1662   25.7259 C   0  0  0  0  0  0  0  0  0  0  0  0
    7.9347  -16.1974   26.0892 O   0  0  0  0  0  0  0  0  0  0  0  0
    9.9222  -15.0826   25.9801 N   0  0  0  0  0  0  0  0  0  0  0  0
   10.7769  -16.1610   26.3810 C   0  0  1  0  0  0  0  0  0  0  0  0
   12.1193  -16.2348   25.7551 C   0  0  0  0  0  0  0  0  0  0  0  0
   13.0379  -17.3171   26.1567 C   0  0  0  0  0  0  0  0  0  0  0  0
   14.3640  -17.3446   25.5630 C   0  0  0  0  0  0  0  0  0  0  0  0
   15.0507  -16.3288   25.3745 O   0  0  0  0  0  0  0  0  0  0  0  0
   10.8311  -16.3078   27.8706 C   0  0  0  0  0  0  0  0  0  0  0  0
   11.0774  -17.5749   28.3805 O   0  0  0  0  0  0  0  0  0  0  0  0
   14.9216  -18.5622   25.1733 O   0  0  0  0  0  0  0  0  0  0  0  0
   10.6703  -15.3707   28.6757 O   0  0  0  0  0  0  0  0  0  0  0  0
  2  1  1  6
  3  2  1  0
  4  3  1  0
  5  4  2  0
  6  5  1  0
  7  6  1  0
  7  8  2  0
  8  4  1  0
  9  2  1  0
 10  9  2  0
 12 11  1  1
 13 12  1  0
 14 15  1  6
 14 12  1  0
 15  9  1  0
 16 17  2  0
 16 14  1  0
 18 16  1  0
 19 24  1  0
 19 18  1  0
 19 20  1  1
 21 22  1  0
 21 20  1  0
 22 26  1  0
 23 22  2  0
 24 25  1  0
 27 24  2  0
M  END
$$$$
