HVE.pdb
     RDKit          3D

 27 27  0  0  1  0  0  0  0  0999 V2000
    9.7617  -17.6403   16.6050 N   0  0  0  0  0  0  0  0  0  0  0  0
    8.6587  -17.6011   17.5741 C   0  0  1  0  0  0  0  0  0  0  0  0
    8.4511  -19.0550   17.9964 C   0  0  0  0  0  0  0  0  0  0  0  0
    7.8577  -19.8028   16.8599 C   0  0  0  0  0  0  0  0  0  0  0  0
    6.5855  -19.5369   16.3559 C   0  0  0  0  0  0  0  0  0  0  0  0
    6.3866  -20.3975   15.3454 N   0  0  0  0  0  0  0  0  0  0  0  0
    7.4753  -21.1678   15.2165 C   0  0  0  0  0  0  0  0  0  0  0  0
    8.3968  -20.8206   16.1388 N   0  0  0  0  0  0  0  0  0  0  0  0
    9.0271  -16.7938   18.7539 C   0  0  0  0  0  0  0  0  0  0  0  0
   10.1802  -16.9326   19.2856 O   0  0  0  0  0  0  0  0  0  0  0  0
    8.1348  -13.1620   21.9731 C   0  0  0  0  0  0  0  0  0  0  0  0
    7.6274  -13.9055   20.7521 C   0  0  1  0  0  0  0  0  0  0  0  0
    7.4630  -12.9952   19.5762 C   0  0  0  0  0  0  0  0  0  0  0  0
    8.5807  -15.0529   20.4697 C   0  0  2  0  0  0  0  0  0  0  0  0
    8.1588  -15.8460   19.3532 N   0  0  0  0  0  0  0  0  0  0  0  0
    8.8207  -15.8680   21.6856 C   0  0  0  0  0  0  0  0  0  0  0  0
    7.9459  -16.6372   22.1413 O   0  0  0  0  0  0  0  0  0  0  0  0
   10.0528  -15.7893   22.3571 N   0  0  0  0  0  0  0  0  0  0  0  0
   10.4071  -16.4804   23.5617 C   0  0  1  0  0  0  0  0  0  0  0  0
   11.8094  -16.9447   23.6930 C   0  0  0  0  0  0  0  0  0  0  0  0
   12.4479  -17.6258   22.5507 C   0  0  0  0  0  0  0  0  0  0  0  0
   13.8363  -18.0330   22.6858 C   0  0  0  0  0  0  0  0  0  0  0  0
   14.7881  -17.2375   22.6649 O   0  0  0  0  0  0  0  0  0  0  0  0
    9.9265  -15.7587   24.7829 C   0  0  0  0  0  0  0  0  0  0  0  0
   10.0593  -16.4064   26.0031 O   0  0  0  0  0  0  0  0  0  0  0  0
   14.1480  -19.3827   22.8483 O   0  0  0  0  0  0  0  0  0  0  0  0
    9.4185  -14.6212   24.7729 O   0  0  0  0  0  0  0  0  0  0  0  0
  2  1  1  6
  3  2  1  0
  4  3  1  0
  5  4  2  0
  6  5  1  0
  7  6  1  0
  7  8  2  0
  8  4  1  0
  9  2  1  0
 10  9  2  0
 12 11  1  1
 13 12  1  0
 14 15  1  6
 14 12  1  0
 15  9  1  0
 16 17  2  0
 16 14  1  0
 18 16  1  0
 19 24  1  0
 19 18  1  0
 19 20  1  1
 21 22  1  0
 21 20  1  0
 22 26  1  0
 23 22  2  0
 24 25  1  0
 27 24  2  0
M  END
$$$$
