HVE.pdb
     RDKit          3D

 27 27  0  0  1  0  0  0  0  0999 V2000
    9.4427  -15.2354   20.5648 N   0  0  0  0  0  0  0  0  0  0  0  0
    8.2066  -15.2469   21.3579 C   0  0  1  0  0  0  0  0  0  0  0  0
    7.6908  -16.6824   21.2662 C   0  0  0  0  0  0  0  0  0  0  0  0
    7.2739  -16.9521   19.8674 C   0  0  0  0  0  0  0  0  0  0  0  0
    7.5437  -16.0821   18.8121 C   0  0  0  0  0  0  0  0  0  0  0  0
    7.0240  -16.6446   17.7099 N   0  0  0  0  0  0  0  0  0  0  0  0
    6.4550  -17.8092   18.0494 C   0  0  0  0  0  0  0  0  0  0  0  0
    6.5959  -18.0216   19.3743 N   0  0  0  0  0  0  0  0  0  0  0  0
    8.4867  -14.9139   22.7686 C   0  0  0  0  0  0  0  0  0  0  0  0
    9.5684  -15.3171   23.3153 O   0  0  0  0  0  0  0  0  0  0  0  0
    7.1566  -12.9887   27.1174 C   0  0  0  0  0  0  0  0  0  0  0  0
    6.8191  -13.0880   25.6419 C   0  0  1  0  0  0  0  0  0  0  0  0
    6.7802  -11.7423   24.9892 C   0  0  0  0  0  0  0  0  0  0  0  0
    7.8248  -14.0206   24.9907 C   0  0  2  0  0  0  0  0  0  0  0  0
    7.6075  -14.1528   23.5804 N   0  0  0  0  0  0  0  0  0  0  0  0
    7.8725  -15.3321   25.6822 C   0  0  0  0  0  0  0  0  0  0  0  0
    7.1568  -16.2910   25.3175 O   0  0  0  0  0  0  0  0  0  0  0  0
    8.7347  -15.5233   26.7756 N   0  0  0  0  0  0  0  0  0  0  0  0
    9.5056  -16.6996   27.0512 C   0  0  1  0  0  0  0  0  0  0  0  0
   10.4272  -17.1738   25.9905 C   0  0  0  0  0  0  0  0  0  0  0  0
   11.1897  -18.4178   26.2082 C   0  0  0  0  0  0  0  0  0  0  0  0
   12.0645  -18.8794   25.1437 C   0  0  0  0  0  0  0  0  0  0  0  0
   11.6519  -19.4009   24.0964 O   0  0  0  0  0  0  0  0  0  0  0  0
   10.1643  -16.6348   28.3948 C   0  0  0  0  0  0  0  0  0  0  0  0
   10.3346  -17.8281   29.0826 O   0  0  0  0  0  0  0  0  0  0  0  0
   13.4462  -18.7436   25.2769 O   0  0  0  0  0  0  0  0  0  0  0  0
   10.5667  -15.5845   28.9305 O   0  0  0  0  0  0  0  0  0  0  0  0
  2  1  1  6
  3  2  1  0
  4  3  1  0
  5  4  2  0
  6  5  1  0
  7  6  1  0
  7  8  2  0
  8  4  1  0
  9  2  1  0
 10  9  2  0
 12 11  1  1
 13 12  1  0
 14 15  1  6
 14 12  1  0
 15  9  1  0
 16 17  2  0
 16 14  1  0
 18 16  1  0
 19 24  1  0
 19 18  1  0
 19 20  1  6
 21 22  1  0
 21 20  1  0
 22 26  1  0
 23 22  2  0
 24 25  1  0
 27 24  2  0
M  END
$$$$
