HVE.pdb
     RDKit          3D

 27 27  0  0  1  0  0  0  0  0999 V2000
    9.1856  -17.5114   16.3517 N   0  0  0  0  0  0  0  0  0  0  0  0
    8.3684  -17.6207   17.5672 C   0  0  1  0  0  0  0  0  0  0  0  0
    8.5447  -19.0650   18.0342 C   0  0  0  0  0  0  0  0  0  0  0  0
    7.7788  -19.9572   17.1284 C   0  0  0  0  0  0  0  0  0  0  0  0
    8.3784  -20.9425   16.3455 C   0  0  0  0  0  0  0  0  0  0  0  0
    7.3907  -21.5433   15.6636 N   0  0  0  0  0  0  0  0  0  0  0  0
    6.2272  -20.9686   15.9971 C   0  0  0  0  0  0  0  0  0  0  0  0
    6.4398  -19.9879   16.8989 N   0  0  0  0  0  0  0  0  0  0  0  0
    8.8601  -16.7019   18.6128 C   0  0  0  0  0  0  0  0  0  0  0  0
   10.1156  -16.5807   18.8148 O   0  0  0  0  0  0  0  0  0  0  0  0
    8.1030  -13.3396   22.1466 C   0  0  0  0  0  0  0  0  0  0  0  0
    7.5058  -14.0726   20.9604 C   0  0  1  0  0  0  0  0  0  0  0  0
    7.0649  -13.1271   19.8879 C   0  0  0  0  0  0  0  0  0  0  0  0
    8.5297  -15.0777   20.4638 C   0  0  2  0  0  0  0  0  0  0  0  0
    8.0046  -15.9217   19.4318 N   0  0  0  0  0  0  0  0  0  0  0  0
    9.1156  -15.8515   21.5856 C   0  0  0  0  0  0  0  0  0  0  0  0
    8.5249  -16.8369   22.0801 O   0  0  0  0  0  0  0  0  0  0  0  0
   10.3627  -15.4858   22.1207 N   0  0  0  0  0  0  0  0  0  0  0  0
   11.1220  -16.2275   23.0839 C   0  0  1  0  0  0  0  0  0  0  0  0
   12.5986  -16.1025   23.0293 C   0  0  0  0  0  0  0  0  0  0  0  0
   13.4141  -16.8013   24.0408 C   0  0  0  0  0  0  0  0  0  0  0  0
   14.8579  -16.6476   23.9810 C   0  0  0  0  0  0  0  0  0  0  0  0
   15.6392  -17.2114   24.7625 O   0  0  0  0  0  0  0  0  0  0  0  0
   10.5841  -16.0575   24.4714 C   0  0  0  0  0  0  0  0  0  0  0  0
   10.5192  -17.1867   25.2756 O   0  0  0  0  0  0  0  0  0  0  0  0
   15.4259  -15.8290   23.0050 O   0  0  0  0  0  0  0  0  0  0  0  0
   10.1941  -14.9738   24.9463 O   0  0  0  0  0  0  0  0  0  0  0  0
  2  1  1  6
  3  2  1  0
  4  3  1  0
  5  4  2  0
  6  5  1  0
  7  6  1  0
  7  8  2  0
  8  4  1  0
  9  2  1  0
 10  9  2  0
 12 11  1  1
 13 12  1  0
 14 15  1  6
 14 12  1  0
 15  9  1  0
 16 17  2  0
 16 14  1  0
 18 16  1  0
 19 24  1  0
 19 18  1  0
 19 20  1  1
 21 22  1  0
 21 20  1  0
 22 26  1  0
 23 22  2  0
 24 25  1  0
 27 24  2  0
M  END
$$$$
