HVE.pdb
     RDKit          3D

 27 27  0  0  1  0  0  0  0  0999 V2000
    9.0745  -16.9300   15.7931 N   0  0  0  0  0  0  0  0  0  0  0  0
    8.3465  -17.2588   17.0256 C   0  0  1  0  0  0  0  0  0  0  0  0
    8.6392  -18.7376   17.2756 C   0  0  0  0  0  0  0  0  0  0  0  0
    7.9595  -19.5428   16.2303 C   0  0  0  0  0  0  0  0  0  0  0  0
    6.6070  -19.8759   16.2862 C   0  0  0  0  0  0  0  0  0  0  0  0
    6.3455  -20.6006   15.1872 N   0  0  0  0  0  0  0  0  0  0  0  0
    7.4730  -20.7202   14.4731 C   0  0  0  0  0  0  0  0  0  0  0  0
    8.4824  -20.0764   15.0952 N   0  0  0  0  0  0  0  0  0  0  0  0
    8.8497  -16.4590   18.1598 C   0  0  0  0  0  0  0  0  0  0  0  0
   10.1069  -16.2947   18.3150 O   0  0  0  0  0  0  0  0  0  0  0  0
    8.1133  -13.4231   21.9791 C   0  0  0  0  0  0  0  0  0  0  0  0
    7.4692  -14.1718   20.8277 C   0  0  1  0  0  0  0  0  0  0  0  0
    6.7953  -13.2421   19.8685 C   0  0  0  0  0  0  0  0  0  0  0  0
    8.5378  -15.0198   20.1611 C   0  0  2  0  0  0  0  0  0  0  0  0
    8.0035  -15.8426   19.1166 N   0  0  0  0  0  0  0  0  0  0  0  0
    9.3090  -15.8004   21.1593 C   0  0  0  0  0  0  0  0  0  0  0  0
    8.8737  -16.8755   21.6277 O   0  0  0  0  0  0  0  0  0  0  0  0
   10.5602  -15.3393   21.6032 N   0  0  0  0  0  0  0  0  0  0  0  0
   11.4336  -16.0096   22.5207 C   0  0  1  0  0  0  0  0  0  0  0  0
   12.8547  -15.5863   22.5409 C   0  0  0  0  0  0  0  0  0  0  0  0
   13.7935  -16.2732   23.4482 C   0  0  0  0  0  0  0  0  0  0  0  0
   15.2143  -16.1884   23.1549 C   0  0  0  0  0  0  0  0  0  0  0  0
   15.6775  -16.1991   22.0041 O   0  0  0  0  0  0  0  0  0  0  0  0
   10.8426  -16.0959   23.8942 C   0  0  0  0  0  0  0  0  0  0  0  0
   11.1330  -17.2256   24.6463 O   0  0  0  0  0  0  0  0  0  0  0  0
   16.1312  -16.0896   24.2012 O   0  0  0  0  0  0  0  0  0  0  0  0
   10.1117  -15.2236   24.4012 O   0  0  0  0  0  0  0  0  0  0  0  0
  2  1  1  6
  3  2  1  0
  4  3  1  0
  5  4  2  0
  6  5  1  0
  7  6  1  0
  7  8  2  0
  8  4  1  0
  9  2  1  0
 10  9  2  0
 12 11  1  1
 13 12  1  0
 14 15  1  6
 14 12  1  0
 15  9  1  0
 16 17  2  0
 16 14  1  0
 18 16  1  0
 19 24  1  0
 19 18  1  0
 19 20  1  1
 21 22  1  0
 21 20  1  0
 22 26  1  0
 23 22  2  0
 24 25  1  0
 27 24  2  0
M  END
$$$$
