HVE.pdb
     RDKit          3D

 27 27  0  0  1  0  0  0  0  0999 V2000
   10.3640  -17.7118   17.0564 N   0  0  0  0  0  0  0  0  0  0  0  0
    9.3804  -18.0429   18.0956 C   0  0  1  0  0  0  0  0  0  0  0  0
    9.5550  -19.5407   18.3431 C   0  0  0  0  0  0  0  0  0  0  0  0
    8.8950  -20.2871   17.2430 C   0  0  0  0  0  0  0  0  0  0  0  0
    7.5470  -20.6419   17.2662 C   0  0  0  0  0  0  0  0  0  0  0  0
    7.3043  -21.2987   16.1212 N   0  0  0  0  0  0  0  0  0  0  0  0
    8.4387  -21.3568   15.4105 C   0  0  0  0  0  0  0  0  0  0  0  0
    9.4340  -20.7400   16.0807 N   0  0  0  0  0  0  0  0  0  0  0  0
    9.6648  -17.3020   19.3404 C   0  0  0  0  0  0  0  0  0  0  0  0
   10.7856  -17.4588   19.9327 O   0  0  0  0  0  0  0  0  0  0  0  0
    6.7481  -15.3009   21.7336 C   0  0  0  0  0  0  0  0  0  0  0  0
    8.0611  -14.5967   21.4486 C   0  0  1  0  0  0  0  0  0  0  0  0
    8.4828  -13.7250   22.5891 C   0  0  0  0  0  0  0  0  0  0  0  0
    9.0981  -15.6529   21.1104 C   0  0  2  0  0  0  0  0  0  0  0  0
    8.7480  -16.4008   19.9393 N   0  0  0  0  0  0  0  0  0  0  0  0
    9.3815  -16.5250   22.2763 C   0  0  0  0  0  0  0  0  0  0  0  0
    8.5929  -17.4323   22.6223 O   0  0  0  0  0  0  0  0  0  0  0  0
   10.5578  -16.3449   23.0240 N   0  0  0  0  0  0  0  0  0  0  0  0
   10.9975  -17.1561   24.1207 C   0  0  1  0  0  0  0  0  0  0  0  0
   12.4448  -17.4700   24.1981 C   0  0  0  0  0  0  0  0  0  0  0  0
   12.9419  -18.2817   25.3253 C   0  0  0  0  0  0  0  0  0  0  0  0
   14.3719  -18.5244   25.4154 C   0  0  0  0  0  0  0  0  0  0  0  0
   14.9070  -19.5932   25.0833 O   0  0  0  0  0  0  0  0  0  0  0  0
   10.4451  -16.6769   25.4278 C   0  0  0  0  0  0  0  0  0  0  0  0
   10.2945  -17.6133   26.4410 O   0  0  0  0  0  0  0  0  0  0  0  0
   15.2139  -17.5225   25.8976 O   0  0  0  0  0  0  0  0  0  0  0  0
   10.1146  -15.4987   25.6618 O   0  0  0  0  0  0  0  0  0  0  0  0
  2  1  1  6
  3  2  1  0
  4  3  1  0
  5  4  2  0
  6  5  1  0
  7  6  1  0
  7  8  2  0
  8  4  1  0
  9  2  1  0
 10  9  2  0
 12 11  1  1
 13 12  1  0
 14 15  1  6
 14 12  1  0
 15  9  1  0
 16 17  2  0
 16 14  1  0
 18 16  1  0
 19 24  1  0
 19 18  1  0
 19 20  1  1
 21 22  1  0
 21 20  1  0
 22 26  1  0
 23 22  2  0
 24 25  1  0
 27 24  2  0
M  END
$$$$
