HVE.pdb
     RDKit          3D

 27 27  0  0  1  0  0  0  0  0999 V2000
    9.6062  -17.3837   16.8208 N   0  0  0  0  0  0  0  0  0  0  0  0
    8.4229  -17.2004   17.6712 C   0  0  1  0  0  0  0  0  0  0  0  0
    7.9496  -18.6153   18.0013 C   0  0  0  0  0  0  0  0  0  0  0  0
    7.0881  -19.1016   16.8948 C   0  0  0  0  0  0  0  0  0  0  0  0
    7.5339  -19.2196   15.5792 C   0  0  0  0  0  0  0  0  0  0  0  0
    6.4973  -19.6834   14.8639 N   0  0  0  0  0  0  0  0  0  0  0  0
    5.4503  -19.8501   15.6833 C   0  0  0  0  0  0  0  0  0  0  0  0
    5.7893  -19.4984   16.9409 N   0  0  0  0  0  0  0  0  0  0  0  0
    8.7792  -16.4969   18.9192 C   0  0  0  0  0  0  0  0  0  0  0  0
    9.8962  -16.7388   19.4898 O   0  0  0  0  0  0  0  0  0  0  0  0
    7.8563  -13.1871   22.4632 C   0  0  0  0  0  0  0  0  0  0  0  0
    7.3716  -13.7846   21.1559 C   0  0  1  0  0  0  0  0  0  0  0  0
    7.2562  -12.7499   20.0814 C   0  0  0  0  0  0  0  0  0  0  0  0
    8.3132  -14.9137   20.7766 C   0  0  2  0  0  0  0  0  0  0  0  0
    7.9377  -15.5418   19.5445 N   0  0  0  0  0  0  0  0  0  0  0  0
    8.4648  -15.8868   21.8858 C   0  0  0  0  0  0  0  0  0  0  0  0
    7.5370  -16.6611   22.2088 O   0  0  0  0  0  0  0  0  0  0  0  0
    9.6707  -15.9570   22.6042 N   0  0  0  0  0  0  0  0  0  0  0  0
    9.9922  -16.9051   23.6298 C   0  0  1  0  0  0  0  0  0  0  0  0
   11.1827  -17.7628   23.4152 C   0  0  0  0  0  0  0  0  0  0  0  0
   12.5264  -17.1673   23.5422 C   0  0  0  0  0  0  0  0  0  0  0  0
   13.3557  -17.0894   22.3514 C   0  0  0  0  0  0  0  0  0  0  0  0
   14.2329  -16.2284   22.1832 O   0  0  0  0  0  0  0  0  0  0  0  0
    9.9727  -16.2835   24.9924 C   0  0  0  0  0  0  0  0  0  0  0  0
    9.8947  -14.8997   25.0638 O   0  0  0  0  0  0  0  0  0  0  0  0
   13.1799  -18.0172   21.3249 O   0  0  0  0  0  0  0  0  0  0  0  0
   10.0216  -16.9258   26.0589 O   0  0  0  0  0  0  0  0  0  0  0  0
  2  1  1  6
  3  2  1  0
  4  3  1  0
  5  4  2  0
  6  5  1  0
  7  6  1  0
  7  8  2  0
  8  4  1  0
  9  2  1  0
 10  9  2  0
 12 11  1  1
 13 12  1  0
 14 15  1  6
 14 12  1  0
 15  9  1  0
 16 17  2  0
 16 14  1  0
 18 16  1  0
 19 24  1  0
 19 18  1  0
 19 20  1  6
 21 22  1  0
 21 20  1  0
 22 26  1  0
 23 22  2  0
 24 25  1  0
 27 24  2  0
M  END
$$$$
