HVE.pdb
     RDKit          3D

 27 27  0  0  1  0  0  0  0  0999 V2000
    9.4610  -17.1885   16.1282 N   0  0  0  0  0  0  0  0  0  0  0  0
    8.5344  -17.3333   17.2585 C   0  0  1  0  0  0  0  0  0  0  0  0
    8.6240  -18.8057   17.6576 C   0  0  0  0  0  0  0  0  0  0  0  0
    7.8953  -19.6187   16.6521 C   0  0  0  0  0  0  0  0  0  0  0  0
    6.5314  -19.8933   16.7398 C   0  0  0  0  0  0  0  0  0  0  0  0
    6.2229  -20.6451   15.6715 N   0  0  0  0  0  0  0  0  0  0  0  0
    7.3329  -20.8364   14.9458 C   0  0  0  0  0  0  0  0  0  0  0  0
    8.3776  -20.2133   15.5294 N   0  0  0  0  0  0  0  0  0  0  0  0
    8.9574  -16.4893   18.3934 C   0  0  0  0  0  0  0  0  0  0  0  0
   10.1948  -16.4077   18.6997 O   0  0  0  0  0  0  0  0  0  0  0  0
    7.9615  -13.3378   22.0624 C   0  0  0  0  0  0  0  0  0  0  0  0
    7.4465  -13.9908   20.7938 C   0  0  1  0  0  0  0  0  0  0  0  0
    7.0560  -12.9762   19.7659 C   0  0  0  0  0  0  0  0  0  0  0  0
    8.5129  -14.9471   20.2902 C   0  0  2  0  0  0  0  0  0  0  0  0
    8.0531  -15.7407   19.1892 N   0  0  0  0  0  0  0  0  0  0  0  0
    9.0632  -15.7724   21.3931 C   0  0  0  0  0  0  0  0  0  0  0  0
    8.4592  -16.7810   21.8203 O   0  0  0  0  0  0  0  0  0  0  0  0
   10.2906  -15.4308   21.9866 N   0  0  0  0  0  0  0  0  0  0  0  0
   11.0309  -16.2267   22.9206 C   0  0  1  0  0  0  0  0  0  0  0  0
   12.5074  -16.0885   22.9130 C   0  0  0  0  0  0  0  0  0  0  0  0
   13.3108  -16.9398   23.8109 C   0  0  0  0  0  0  0  0  0  0  0  0
   14.7482  -16.7298   23.8481 C   0  0  0  0  0  0  0  0  0  0  0  0
   15.2848  -15.6299   23.6450 O   0  0  0  0  0  0  0  0  0  0  0  0
   10.4559  -16.1487   24.3014 C   0  0  0  0  0  0  0  0  0  0  0  0
   10.6901  -17.2185   25.1539 O   0  0  0  0  0  0  0  0  0  0  0  0
   15.5964  -17.8023   24.1234 O   0  0  0  0  0  0  0  0  0  0  0  0
    9.7852  -15.1904   24.7305 O   0  0  0  0  0  0  0  0  0  0  0  0
  2  1  1  6
  3  2  1  0
  4  3  1  0
  5  4  2  0
  6  5  1  0
  7  6  1  0
  7  8  2  0
  8  4  1  0
  9  2  1  0
 10  9  2  0
 12 11  1  1
 13 12  1  0
 14 15  1  6
 14 12  1  0
 15  9  1  0
 16 17  2  0
 16 14  1  0
 18 16  1  0
 19 24  1  0
 19 18  1  0
 19 20  1  1
 21 22  1  0
 21 20  1  0
 22 26  1  0
 23 22  2  0
 24 25  1  0
 27 24  2  0
M  END
$$$$
