HVE.pdb
     RDKit          3D

 27 27  0  0  1  0  0  0  0  0999 V2000
    9.5412  -13.5674   20.6270 N   0  0  0  0  0  0  0  0  0  0  0  0
    8.3100  -13.9166   21.3477 C   0  0  1  0  0  0  0  0  0  0  0  0
    7.9281  -15.3028   20.8303 C   0  0  0  0  0  0  0  0  0  0  0  0
    7.4539  -15.1763   19.4296 C   0  0  0  0  0  0  0  0  0  0  0  0
    7.5217  -13.9853   18.7082 C   0  0  0  0  0  0  0  0  0  0  0  0
    7.0084  -14.2429   17.4951 N   0  0  0  0  0  0  0  0  0  0  0  0
    6.6353  -15.5290   17.4507 C   0  0  0  0  0  0  0  0  0  0  0  0
    6.8997  -16.1261   18.6313 N   0  0  0  0  0  0  0  0  0  0  0  0
    8.5562  -13.9847   22.8017 C   0  0  0  0  0  0  0  0  0  0  0  0
    9.6841  -14.3959   23.2380 O   0  0  0  0  0  0  0  0  0  0  0  0
    7.2733  -13.0594   27.4700 C   0  0  0  0  0  0  0  0  0  0  0  0
    6.8341  -12.9900   26.0198 C   0  0  1  0  0  0  0  0  0  0  0  0
    6.5909  -11.5809   25.5799 C   0  0  0  0  0  0  0  0  0  0  0  0
    7.8849  -13.6890   25.1757 C   0  0  2  0  0  0  0  0  0  0  0  0
    7.5939  -13.6121   23.7747 N   0  0  0  0  0  0  0  0  0  0  0  0
    8.1062  -15.0827   25.6330 C   0  0  0  0  0  0  0  0  0  0  0  0
    7.1852  -15.9290   25.6232 O   0  0  0  0  0  0  0  0  0  0  0  0
    9.3728  -15.4827   26.0925 N   0  0  0  0  0  0  0  0  0  0  0  0
    9.7435  -16.8012   26.5148 C   0  0  1  0  0  0  0  0  0  0  0  0
   11.0102  -17.3566   25.9799 C   0  0  0  0  0  0  0  0  0  0  0  0
   11.4549  -18.6888   26.4315 C   0  0  0  0  0  0  0  0  0  0  0  0
   12.7491  -19.1686   25.9770 C   0  0  0  0  0  0  0  0  0  0  0  0
   13.4663  -18.5490   25.1765 O   0  0  0  0  0  0  0  0  0  0  0  0
    9.6277  -16.9665   27.9989 C   0  0  0  0  0  0  0  0  0  0  0  0
    9.3321  -18.2340   28.4808 O   0  0  0  0  0  0  0  0  0  0  0  0
   13.2383  -20.3872   26.4470 O   0  0  0  0  0  0  0  0  0  0  0  0
    9.7791  -16.0445   28.8230 O   0  0  0  0  0  0  0  0  0  0  0  0
  2  1  1  6
  3  2  1  0
  4  3  1  0
  5  4  2  0
  6  5  1  0
  7  6  1  0
  7  8  2  0
  8  4  1  0
  9  2  1  0
 10  9  2  0
 12 11  1  1
 13 12  1  0
 14 15  1  6
 14 12  1  0
 15  9  1  0
 16 17  2  0
 16 14  1  0
 18 16  1  0
 19 24  1  0
 19 18  1  0
 19 20  1  1
 21 22  1  0
 21 20  1  0
 22 26  1  0
 23 22  2  0
 24 25  1  0
 27 24  2  0
M  END
$$$$
