HVE.pdb
     RDKit          3D

 27 27  0  0  1  0  0  0  0  0999 V2000
    8.9944  -14.9352   20.7755 N   0  0  0  0  0  0  0  0  0  0  0  0
    7.9436  -15.1869   21.7704 C   0  0  1  0  0  0  0  0  0  0  0  0
    7.7087  -16.6962   21.7246 C   0  0  0  0  0  0  0  0  0  0  0  0
    7.1581  -17.0541   20.3935 C   0  0  0  0  0  0  0  0  0  0  0  0
    6.2521  -16.2499   19.7038 C   0  0  0  0  0  0  0  0  0  0  0  0
    5.9778  -16.8828   18.5525 N   0  0  0  0  0  0  0  0  0  0  0  0
    6.6733  -18.0274   18.5152 C   0  0  0  0  0  0  0  0  0  0  0  0
    7.4090  -18.1559   19.6388 N   0  0  0  0  0  0  0  0  0  0  0  0
    8.3980  -14.8004   23.1208 C   0  0  0  0  0  0  0  0  0  0  0  0
    9.6049  -15.0237   23.4746 O   0  0  0  0  0  0  0  0  0  0  0  0
    7.6822  -12.7097   27.5282 C   0  0  0  0  0  0  0  0  0  0  0  0
    7.1074  -12.9364   26.1428 C   0  0  1  0  0  0  0  0  0  0  0  0
    6.9131  -11.6497   25.4047 C   0  0  0  0  0  0  0  0  0  0  0  0
    8.0228  -13.8970   25.4048 C   0  0  2  0  0  0  0  0  0  0  0  0
    7.5575  -14.1787   24.0790 N   0  0  0  0  0  0  0  0  0  0  0  0
    8.2635  -15.1292   26.1949 C   0  0  0  0  0  0  0  0  0  0  0  0
    7.3262  -15.8891   26.5243 O   0  0  0  0  0  0  0  0  0  0  0  0
    9.5676  -15.4694   26.5934 N   0  0  0  0  0  0  0  0  0  0  0  0
    9.9464  -16.6192   27.3607 C   0  0  1  0  0  0  0  0  0  0  0  0
   10.9950  -17.5011   26.7934 C   0  0  0  0  0  0  0  0  0  0  0  0
   10.9853  -17.7851   25.3458 C   0  0  0  0  0  0  0  0  0  0  0  0
   12.2605  -17.8419   24.6511 C   0  0  0  0  0  0  0  0  0  0  0  0
   12.8866  -18.8947   24.4546 O   0  0  0  0  0  0  0  0  0  0  0  0
   10.2030  -16.2745   28.7955 C   0  0  0  0  0  0  0  0  0  0  0  0
   10.3449  -17.3254   29.6908 O   0  0  0  0  0  0  0  0  0  0  0  0
   12.8374  -16.6674   24.1685 O   0  0  0  0  0  0  0  0  0  0  0  0
   10.2968  -15.1119   29.2334 O   0  0  0  0  0  0  0  0  0  0  0  0
  2  1  1  6
  3  2  1  0
  4  3  1  0
  5  4  2  0
  6  5  1  0
  7  6  1  0
  7  8  2  0
  8  4  1  0
  9  2  1  0
 10  9  2  0
 12 11  1  1
 13 12  1  0
 14 15  1  6
 14 12  1  0
 15  9  1  0
 16 17  2  0
 16 14  1  0
 18 16  1  0
 19 24  1  0
 19 18  1  0
 19 20  1  6
 21 22  1  0
 21 20  1  0
 22 26  1  0
 23 22  2  0
 24 25  1  0
 27 24  2  0
M  END
$$$$
