HVE.pdb
     RDKit          3D

 27 27  0  0  1  0  0  0  0  0999 V2000
    8.4572  -14.4018   20.4188 N   0  0  0  0  0  0  0  0  0  0  0  0
    7.5359  -14.9438   21.4260 C   0  0  1  0  0  0  0  0  0  0  0  0
    7.5530  -16.4558   21.2051 C   0  0  0  0  0  0  0  0  0  0  0  0
    7.1722  -16.7377   19.7985 C   0  0  0  0  0  0  0  0  0  0  0  0
    6.0149  -16.2327   19.2079 C   0  0  0  0  0  0  0  0  0  0  0  0
    5.9984  -16.6896   17.9461 N   0  0  0  0  0  0  0  0  0  0  0  0
    7.0877  -17.4442   17.7481 C   0  0  0  0  0  0  0  0  0  0  0  0
    7.8277  -17.4892   18.8754 N   0  0  0  0  0  0  0  0  0  0  0  0
    8.0136  -14.6403   22.7895 C   0  0  0  0  0  0  0  0  0  0  0  0
    9.2346  -14.8531   23.0985 O   0  0  0  0  0  0  0  0  0  0  0  0
    7.3519  -12.8698   27.3435 C   0  0  0  0  0  0  0  0  0  0  0  0
    6.7102  -13.0933   25.9873 C   0  0  1  0  0  0  0  0  0  0  0  0
    6.3181  -11.8033   25.3390 C   0  0  0  0  0  0  0  0  0  0  0  0
    7.6749  -13.9010   25.1374 C   0  0  2  0  0  0  0  0  0  0  0  0
    7.1810  -14.1120   23.8088 N   0  0  0  0  0  0  0  0  0  0  0  0
    8.0560  -15.1679   25.8083 C   0  0  0  0  0  0  0  0  0  0  0  0
    7.2294  -16.0901   25.9841 O   0  0  0  0  0  0  0  0  0  0  0  0
    9.3715  -15.3574   26.2652 N   0  0  0  0  0  0  0  0  0  0  0  0
    9.9081  -16.5614   26.8279 C   0  0  1  0  0  0  0  0  0  0  0  0
   11.2062  -17.0420   26.2961 C   0  0  0  0  0  0  0  0  0  0  0  0
   11.8502  -18.2097   26.9272 C   0  0  0  0  0  0  0  0  0  0  0  0
   13.1241  -18.6605   26.3926 C   0  0  0  0  0  0  0  0  0  0  0  0
   14.2088  -18.4846   26.9684 O   0  0  0  0  0  0  0  0  0  0  0  0
    9.8747  -16.5425   28.3252 C   0  0  0  0  0  0  0  0  0  0  0  0
    9.7425  -17.7601   28.9780 O   0  0  0  0  0  0  0  0  0  0  0  0
   13.1625  -19.3289   25.1690 O   0  0  0  0  0  0  0  0  0  0  0  0
    9.9576  -15.5099   29.0173 O   0  0  0  0  0  0  0  0  0  0  0  0
  2  1  1  6
  3  2  1  0
  4  3  1  0
  5  4  2  0
  6  5  1  0
  7  6  1  0
  7  8  2  0
  8  4  1  0
  9  2  1  0
 10  9  2  0
 12 11  1  1
 13 12  1  0
 14 15  1  6
 14 12  1  0
 15  9  1  0
 16 17  2  0
 16 14  1  0
 18 16  1  0
 19 24  1  0
 19 18  1  0
 19 20  1  1
 21 22  1  0
 21 20  1  0
 22 26  1  0
 23 22  2  0
 24 25  1  0
 27 24  2  0
M  END
$$$$
