HVE.pdb
     RDKit          3D

 27 27  0  0  1  0  0  0  0  0999 V2000
   10.1082  -13.6668   20.4510 N   0  0  0  0  0  0  0  0  0  0  0  0
    8.7310  -13.8805   20.9144 C   0  0  1  0  0  0  0  0  0  0  0  0
    8.2181  -15.0659   20.0978 C   0  0  0  0  0  0  0  0  0  0  0  0
    7.8375  -14.5861   18.7458 C   0  0  0  0  0  0  0  0  0  0  0  0
    8.0419  -13.2750   18.3185 C   0  0  0  0  0  0  0  0  0  0  0  0
    7.5808  -13.2064   17.0599 N   0  0  0  0  0  0  0  0  0  0  0  0
    7.1093  -14.4105   16.7088 C   0  0  0  0  0  0  0  0  0  0  0  0
    7.2563  -15.2785   17.7312 N   0  0  0  0  0  0  0  0  0  0  0  0
    8.7093  -14.2255   22.3497 C   0  0  0  0  0  0  0  0  0  0  0  0
    9.6886  -14.8625   22.8662 O   0  0  0  0  0  0  0  0  0  0  0  0
    6.8164  -13.6967   26.8725 C   0  0  0  0  0  0  0  0  0  0  0  0
    6.6527  -13.3694   25.4004 C   0  0  1  0  0  0  0  0  0  0  0  0
    6.6865  -11.8944   25.1523 C   0  0  0  0  0  0  0  0  0  0  0  0
    7.7296  -14.1128   24.6302 C   0  0  2  0  0  0  0  0  0  0  0  0
    7.6409  -13.8856   23.2182 N   0  0  0  0  0  0  0  0  0  0  0  0
    7.7401  -15.5561   24.9725 C   0  0  0  0  0  0  0  0  0  0  0  0
    6.7981  -16.3127   24.6488 O   0  0  0  0  0  0  0  0  0  0  0  0
    8.8241  -16.1072   25.6772 N   0  0  0  0  0  0  0  0  0  0  0  0
    8.8908  -17.4265   26.2331 C   0  0  1  0  0  0  0  0  0  0  0  0
    9.9602  -17.6942   27.2250 C   0  0  0  0  0  0  0  0  0  0  0  0
   10.0317  -19.0243   27.8592 C   0  0  0  0  0  0  0  0  0  0  0  0
   11.0973  -19.2696   28.8163 C   0  0  0  0  0  0  0  0  0  0  0  0
   11.9378  -18.4160   29.1387 O   0  0  0  0  0  0  0  0  0  0  0  0
    7.5494  -17.9080   26.6936 C   0  0  0  0  0  0  0  0  0  0  0  0
    7.1576  -19.1809   26.3034 O   0  0  0  0  0  0  0  0  0  0  0  0
   11.2081  -20.5214   29.4214 O   0  0  0  0  0  0  0  0  0  0  0  0
    6.7682  -17.2428   27.4003 O   0  0  0  0  0  0  0  0  0  0  0  0
  2  1  1  6
  3  2  1  0
  4  3  1  0
  5  4  2  0
  6  5  1  0
  7  6  1  0
  7  8  2  0
  8  4  1  0
  9  2  1  0
 10  9  2  0
 12 11  1  1
 13 12  1  0
 14 15  1  6
 14 12  1  0
 15  9  1  0
 16 17  2  0
 16 14  1  0
 18 16  1  0
 19 24  1  0
 19 18  1  0
 19 20  1  1
 21 22  1  0
 21 20  1  0
 22 26  1  0
 23 22  2  0
 24 25  1  0
 27 24  2  0
M  END
$$$$
