CRG.pdb
     RDKit          3D

 22 21  0  0  1  0  0  0  0  0999 V2000
    4.1750  -19.5623   20.6781 N   0  0  0  0  0  0  0  0  0  0  0  0
    4.0709  -18.5866   21.7278 C   0  0  1  0  0  0  0  0  0  0  0  0
    3.1268  -19.1254   22.7862 C   0  0  0  0  0  0  0  0  0  0  0  0
    1.4420  -19.1848   22.1508 S   0  0  0  0  0  0  0  0  0  0  0  0
    5.3957  -18.3780   22.4003 C   0  0  0  0  0  0  0  0  0  0  0  0
    6.2270  -19.3346   22.4870 O   0  0  0  0  0  0  0  0  0  0  0  0
    7.4689  -12.1805   19.3545 N   0  0  0  0  0  0  0  0  0  0  0  0
    8.4388  -13.2029   19.1618 C   0  0  0  0  0  0  0  0  0  0  0  0
    9.0541  -13.3898   18.0537 N   0  0  0  0  0  0  0  0  0  0  0  0
    8.7138  -14.0470   20.2905 N   0  0  0  0  0  0  0  0  0  0  0  0
    7.7011  -14.2848   21.2668 C   0  0  0  0  0  0  0  0  0  0  0  0
    8.3350  -15.0676   22.4164 C   0  0  0  0  0  0  0  0  0  0  0  0
    7.2288  -15.3704   23.3805 C   0  0  0  0  0  0  0  0  0  0  0  0
    6.9513  -16.8255   23.5823 C   0  0  2  0  0  0  0  0  0  0  0  0
    5.6685  -17.0935   22.9216 N   0  0  0  0  0  0  0  0  0  0  0  0
    6.8173  -17.1548   24.9981 C   0  0  0  0  0  0  0  0  0  0  0  0
    5.7586  -16.8756   25.6085 O   0  0  0  0  0  0  0  0  0  0  0  0
    9.7880  -14.1416   18.0062 N   0  0  0  0  0  0  0  0  0  0  0  0
    7.8854  -17.7990   25.7135 C   0  0  0  0  0  0  0  0  0  0  0  0
    7.6616  -18.0579   27.1121 C   0  0  0  0  0  0  0  0  0  0  0  0
    8.8154  -18.6762   27.7807 O   0  0  0  0  0  0  0  0  0  0  0  0
    8.8683  -19.0308   29.1184 O   0  0  0  0  0  0  0  0  0  0  0  0
  2  1  1  6
  2  5  1  0
  2  3  1  0
  3  4  1  0
  5  6  2  0
  7  8  1  0
  8  9  2  0
  8 10  1  0
 10 11  1  0
 11 12  1  0
 12 13  1  0
 14 13  1  1
 14 16  1  0
 15  5  1  0
 15 14  1  0
 16 18  1  0
 16 17  2  0
 18 19  1  0
 20 19  1  0
 20 21  1  0
 22 20  2  0
M  END
$$$$
