CRG.pdb
     RDKit          3D

 22 21  0  0  1  0  0  0  0  0999 V2000
    8.3874  -15.0236   18.6193 N   0  0  0  0  0  0  0  0  0  0  0  0
    8.6714  -14.2356   19.7868 C   0  0  1  0  0  0  0  0  0  0  0  0
    7.5806  -13.1912   19.9328 C   0  0  0  0  0  0  0  0  0  0  0  0
    7.4665  -12.1916   18.4383 S   0  0  0  0  0  0  0  0  0  0  0  0
    8.6277  -15.0784   21.0272 C   0  0  0  0  0  0  0  0  0  0  0  0
    8.7948  -14.5464   22.1685 O   0  0  0  0  0  0  0  0  0  0  0  0
    4.3421  -22.6423   24.3115 N   0  0  0  0  0  0  0  0  0  0  0  0
    5.3961  -22.4209   23.3824 C   0  0  0  0  0  0  0  0  0  0  0  0
    6.0574  -23.3686   22.8292 N   0  0  0  0  0  0  0  0  0  0  0  0
    5.7037  -21.0523   23.0755 N   0  0  0  0  0  0  0  0  0  0  0  0
    6.6870  -20.7464   22.0881 C   0  0  0  0  0  0  0  0  0  0  0  0
    7.5958  -19.6565   22.6557 C   0  0  0  0  0  0  0  0  0  0  0  0
    7.5385  -18.5139   21.6882 C   0  0  0  0  0  0  0  0  0  0  0  0
    8.4084  -17.3494   22.0380 C   0  0  2  0  0  0  0  0  0  0  0  0
    8.3966  -16.4631   20.8683 N   0  0  0  0  0  0  0  0  0  0  0  0
    9.7856  -17.7643   22.2871 C   0  0  0  0  0  0  0  0  0  0  0  0
   10.6078  -17.8060   21.3417 O   0  0  0  0  0  0  0  0  0  0  0  0
    6.8790  -23.1206   22.2212 N   0  0  0  0  0  0  0  0  0  0  0  0
   10.2222  -18.1299   23.6075 C   0  0  0  0  0  0  0  0  0  0  0  0
   11.6442  -18.2165   23.8162 C   0  0  0  0  0  0  0  0  0  0  0  0
   12.0164  -18.3577   25.2312 O   0  0  0  0  0  0  0  0  0  0  0  0
   11.1271  -18.3842   26.2926 O   0  0  0  0  0  0  0  0  0  0  0  0
  2  1  1  6
  2  5  1  0
  2  3  1  0
  3  4  1  0
  5  6  2  0
  7  8  1  0
  8  9  2  0
  8 10  1  0
 10 11  1  0
 11 12  1  0
 12 13  1  0
 14 13  1  6
 14 16  1  0
 15  5  1  0
 15 14  1  0
 16 18  1  0
 16 17  2  0
 18 19  1  0
 20 19  1  0
 20 21  1  0
 22 20  2  0
M  END
$$$$
