CRG.pdb
     RDKit          3D

 22 21  0  0  1  0  0  0  0  0999 V2000
    8.1335  -17.2162   25.9816 N   0  0  0  0  0  0  0  0  0  0  0  0
    8.2009  -15.8867   25.4409 C   0  0  1  0  0  0  0  0  0  0  0  0
    9.3216  -15.1435   26.1434 C   0  0  0  0  0  0  0  0  0  0  0  0
    8.6730  -14.2047   27.5376 S   0  0  0  0  0  0  0  0  0  0  0  0
    8.5537  -15.9172   23.9830 C   0  0  0  0  0  0  0  0  0  0  0  0
    9.0410  -16.9694   23.4645 O   0  0  0  0  0  0  0  0  0  0  0  0
    9.2429  -15.2660   17.4481 N   0  0  0  0  0  0  0  0  0  0  0  0
    8.4981  -14.2650   16.7651 C   0  0  0  0  0  0  0  0  0  0  0  0
    8.5799  -14.0656   15.5021 N   0  0  0  0  0  0  0  0  0  0  0  0
    7.6217  -13.4583   17.5671 N   0  0  0  0  0  0  0  0  0  0  0  0
    7.3241  -13.8450   18.9077 C   0  0  0  0  0  0  0  0  0  0  0  0
    8.3502  -13.1799   19.8245 C   0  0  0  0  0  0  0  0  0  0  0  0
    7.9563  -13.5352   21.2258 C   0  0  0  0  0  0  0  0  0  0  0  0
    8.6946  -14.6957   21.8115 C   0  0  2  0  0  0  0  0  0  0  0  0
    8.3229  -14.7440   23.2304 N   0  0  0  0  0  0  0  0  0  0  0  0
   10.1401  -14.5132   21.7204 C   0  0  0  0  0  0  0  0  0  0  0  0
   10.7500  -13.8869   22.6187 O   0  0  0  0  0  0  0  0  0  0  0  0
    7.9454  -13.3506   15.0635 N   0  0  0  0  0  0  0  0  0  0  0  0
   10.8854  -15.0423   20.6103 C   0  0  0  0  0  0  0  0  0  0  0  0
   12.2998  -14.7734   20.5956 C   0  0  0  0  0  0  0  0  0  0  0  0
   12.9689  -15.2473   19.3757 O   0  0  0  0  0  0  0  0  0  0  0  0
   14.2425  -14.8846   18.9704 O   0  0  0  0  0  0  0  0  0  0  0  0
  2  1  1  1
  2  5  1  0
  2  3  1  0
  3  4  1  0
  5  6  2  0
  7  8  1  0
  8  9  2  0
  8 10  1  0
 10 11  1  0
 11 12  1  0
 12 13  1  0
 14 13  1  1
 14 16  1  0
 15  5  1  0
 15 14  1  0
 16 18  1  0
 16 17  2  0
 18 19  1  0
 20 19  1  0
 20 21  1  0
 22 20  2  0
M  END
$$$$
