CRG.pdb
     RDKit          3D

 22 21  0  0  1  0  0  0  0  0999 V2000
    7.2152  -17.3946   14.6782 N   0  0  0  0  0  0  0  0  0  0  0  0
    8.5331  -17.1869   15.2115 C   0  0  1  0  0  0  0  0  0  0  0  0
    8.4658  -16.0546   16.2190 C   0  0  0  0  0  0  0  0  0  0  0  0
    8.0624  -14.5049   15.3934 S   0  0  0  0  0  0  0  0  0  0  0  0
    9.0072  -18.3986   15.9586 C   0  0  0  0  0  0  0  0  0  0  0  0
    8.1722  -19.1594   16.5395 O   0  0  0  0  0  0  0  0  0  0  0  0
    8.6030  -24.6469   14.4171 N   0  0  0  0  0  0  0  0  0  0  0  0
    9.5487  -25.1316   15.3627 C   0  0  0  0  0  0  0  0  0  0  0  0
    9.5224  -26.3211   15.8382 N   0  0  0  0  0  0  0  0  0  0  0  0
   10.5683  -24.2106   15.7800 N   0  0  0  0  0  0  0  0  0  0  0  0
   10.4250  -22.8173   15.5091 C   0  0  0  0  0  0  0  0  0  0  0  0
   11.7225  -22.1247   15.9248 C   0  0  0  0  0  0  0  0  0  0  0  0
   11.5550  -20.6756   15.5828 C   0  0  0  0  0  0  0  0  0  0  0  0
   10.9176  -19.8469   16.6515 C   0  0  2  0  0  0  0  0  0  0  0  0
   10.3977  -18.6474   15.9845 N   0  0  0  0  0  0  0  0  0  0  0  0
   11.8892  -19.4293   17.6577 C   0  0  0  0  0  0  0  0  0  0  0  0
   12.7468  -18.5593   17.3770 O   0  0  0  0  0  0  0  0  0  0  0  0
   10.1907  -26.5686   16.6116 N   0  0  0  0  0  0  0  0  0  0  0  0
   11.8823  -20.0014   18.9769 C   0  0  0  0  0  0  0  0  0  0  0  0
   12.8978  -19.5383   19.8866 C   0  0  0  0  0  0  0  0  0  0  0  0
   14.0114  -20.4846   20.0451 O   0  0  0  0  0  0  0  0  0  0  0  0
   15.0493  -20.3526   20.9525 O   0  0  0  0  0  0  0  0  0  0  0  0
  2  1  1  1
  2  5  1  0
  2  3  1  0
  3  4  1  0
  5  6  2  0
  7  8  1  0
  8  9  2  0
  8 10  1  0
 10 11  1  0
 11 12  1  0
 12 13  1  0
 14 13  1  6
 14 16  1  0
 15  5  1  0
 15 14  1  0
 16 18  1  0
 16 17  2  0
 18 19  1  0
 20 19  1  0
 20 21  1  0
 22 20  2  0
M  END
$$$$
