CRG.pdb
     RDKit          3D

 22 21  0  0  1  0  0  0  0  0999 V2000
    5.9317  -13.5809   19.4662 N   0  0  0  0  0  0  0  0  0  0  0  0
    7.2555  -14.1381   19.5055 C   0  0  1  0  0  0  0  0  0  0  0  0
    8.2511  -13.0160   19.2787 C   0  0  0  0  0  0  0  0  0  0  0  0
    8.6137  -12.8462   17.5221 S   0  0  0  0  0  0  0  0  0  0  0  0
    7.5565  -14.7120   20.8587 C   0  0  0  0  0  0  0  0  0  0  0  0
    7.2535  -14.0660   21.9095 O   0  0  0  0  0  0  0  0  0  0  0  0
    6.5766  -22.2239   26.2341 N   0  0  0  0  0  0  0  0  0  0  0  0
    6.3606  -21.5631   24.9931 C   0  0  0  0  0  0  0  0  0  0  0  0
    5.3759  -21.8270   24.2171 N   0  0  0  0  0  0  0  0  0  0  0  0
    7.3167  -20.5559   24.6278 N   0  0  0  0  0  0  0  0  0  0  0  0
    7.0876  -19.7371   23.4822 C   0  0  0  0  0  0  0  0  0  0  0  0
    8.3544  -18.9197   23.2313 C   0  0  0  0  0  0  0  0  0  0  0  0
    8.0703  -18.0571   22.0397 C   0  0  0  0  0  0  0  0  0  0  0  0
    8.4455  -16.6189   22.2007 C   0  0  2  0  0  0  0  0  0  0  0  0
    8.1801  -15.9789   20.9069 N   0  0  0  0  0  0  0  0  0  0  0  0
    9.8644  -16.4657   22.5074 C   0  0  0  0  0  0  0  0  0  0  0  0
   10.7157  -16.5486   21.5911 O   0  0  0  0  0  0  0  0  0  0  0  0
    5.2819  -21.2843   23.3212 N   0  0  0  0  0  0  0  0  0  0  0  0
   10.3095  -16.2195   23.8524 C   0  0  0  0  0  0  0  0  0  0  0  0
   11.7231  -16.0182   24.0379 C   0  0  0  0  0  0  0  0  0  0  0  0
   12.4763  -17.2735   24.1706 O   0  0  0  0  0  0  0  0  0  0  0  0
   13.8389  -17.3674   24.4001 O   0  0  0  0  0  0  0  0  0  0  0  0
  2  1  1  1
  2  5  1  0
  2  3  1  0
  3  4  1  0
  5  6  2  0
  7  8  1  0
  8  9  2  0
  8 10  1  0
 10 11  1  0
 11 12  1  0
 12 13  1  0
 14 13  1  6
 14 16  1  0
 15  5  1  0
 15 14  1  0
 16 18  1  0
 16 17  2  0
 18 19  1  0
 20 19  1  0
 20 21  1  0
 22 20  2  0
M  END
$$$$
