CRG.pdb
     RDKit          3D

 22 21  0  0  1  0  0  0  0  0999 V2000
    6.7027  -20.2116   22.5921 N   0  0  0  0  0  0  0  0  0  0  0  0
    6.8386  -18.8679   23.0825 C   0  0  1  0  0  0  0  0  0  0  0  0
    6.9026  -18.9185   24.5975 C   0  0  0  0  0  0  0  0  0  0  0  0
    8.2111  -20.0355   25.1322 S   0  0  0  0  0  0  0  0  0  0  0  0
    8.1270  -18.2547   22.6187 C   0  0  0  0  0  0  0  0  0  0  0  0
    9.0865  -18.9942   22.2367 O   0  0  0  0  0  0  0  0  0  0  0  0
    7.6684  -15.1336   17.6157 N   0  0  0  0  0  0  0  0  0  0  0  0
    7.5270  -13.7220   17.7188 C   0  0  0  0  0  0  0  0  0  0  0  0
    7.5340  -12.9380   16.7055 N   0  0  0  0  0  0  0  0  0  0  0  0
    7.3709  -13.1880   19.0426 N   0  0  0  0  0  0  0  0  0  0  0  0
    7.3635  -14.0638   20.1687 C   0  0  0  0  0  0  0  0  0  0  0  0
    8.7439  -14.7128   20.2649 C   0  0  0  0  0  0  0  0  0  0  0  0
    9.0582  -14.8204   21.7259 C   0  0  0  0  0  0  0  0  0  0  0  0
    9.4548  -16.1868   22.1849 C   0  0  2  0  0  0  0  0  0  0  0  0
    8.2198  -16.8450   22.6271 N   0  0  0  0  0  0  0  0  0  0  0  0
   10.3748  -16.1267   23.3166 C   0  0  0  0  0  0  0  0  0  0  0  0
    9.9265  -16.0711   24.4859 O   0  0  0  0  0  0  0  0  0  0  0  0
    7.4031  -11.9069   16.8662 N   0  0  0  0  0  0  0  0  0  0  0  0
   11.7986  -16.1298   23.1152 C   0  0  0  0  0  0  0  0  0  0  0  0
   12.6179  -16.1374   24.2992 C   0  0  0  0  0  0  0  0  0  0  0  0
   14.0540  -16.2624   24.0114 O   0  0  0  0  0  0  0  0  0  0  0  0
   15.0708  -16.1166   24.9403 O   0  0  0  0  0  0  0  0  0  0  0  0
  2  1  1  6
  2  5  1  0
  2  3  1  0
  3  4  1  0
  5  6  2  0
  7  8  1  0
  8  9  2  0
  8 10  1  0
 10 11  1  0
 11 12  1  0
 12 13  1  0
 14 13  1  1
 14 16  1  0
 15  5  1  0
 15 14  1  0
 16 18  1  0
 16 17  2  0
 18 19  1  0
 20 19  1  0
 20 21  1  0
 22 20  2  0
M  END
$$$$
