CRG.pdb
     RDKit          3D

 22 21  0  0  1  0  0  0  0  0999 V2000
    7.6679  -12.9570   18.5512 N   0  0  0  0  0  0  0  0  0  0  0  0
    7.8302  -14.2252   19.2071 C   0  0  1  0  0  0  0  0  0  0  0  0
    8.5909  -15.1491   18.2746 C   0  0  0  0  0  0  0  0  0  0  0  0
    7.4542  -15.9766   17.1482 S   0  0  0  0  0  0  0  0  0  0  0  0
    8.6633  -14.0857   20.4470 C   0  0  0  0  0  0  0  0  0  0  0  0
    9.5502  -13.1796   20.5234 O   0  0  0  0  0  0  0  0  0  0  0  0
    4.8065  -13.0045   26.3829 N   0  0  0  0  0  0  0  0  0  0  0  0
    6.0288  -12.3393   26.6777 C   0  0  0  0  0  0  0  0  0  0  0  0
    6.1099  -11.0792   26.8945 N   0  0  0  0  0  0  0  0  0  0  0  0
    7.2085  -13.1566   26.7255 N   0  0  0  0  0  0  0  0  0  0  0  0
    7.3232  -14.2941   25.8722 C   0  0  0  0  0  0  0  0  0  0  0  0
    8.2167  -13.9064   24.6944 C   0  0  0  0  0  0  0  0  0  0  0  0
    8.3851  -15.1445   23.8676 C   0  0  0  0  0  0  0  0  0  0  0  0
    9.2883  -14.9935   22.6858 C   0  0  2  0  0  0  0  0  0  0  0  0
    8.4191  -14.9916   21.5033 N   0  0  0  0  0  0  0  0  0  0  0  0
   10.2162  -16.1148   22.5730 C   0  0  0  0  0  0  0  0  0  0  0  0
    9.8277  -17.2026   22.0862 O   0  0  0  0  0  0  0  0  0  0  0  0
    7.0600  -10.6553   27.0488 N   0  0  0  0  0  0  0  0  0  0  0  0
   11.5798  -15.9955   23.0136 C   0  0  0  0  0  0  0  0  0  0  0  0
   12.4020  -17.1715   22.8940 C   0  0  0  0  0  0  0  0  0  0  0  0
   13.7579  -16.9898   23.4316 O   0  0  0  0  0  0  0  0  0  0  0  0
   14.7143  -17.9855   23.5409 O   0  0  0  0  0  0  0  0  0  0  0  0
  2  1  1  6
  2  5  1  0
  2  3  1  0
  3  4  1  0
  5  6  2  0
  7  8  1  0
  8  9  2  0
  8 10  1  0
 10 11  1  0
 11 12  1  0
 12 13  1  0
 14 13  1  1
 14 16  1  0
 15  5  1  0
 15 14  1  0
 16 18  1  0
 16 17  2  0
 18 19  1  0
 20 19  1  0
 20 21  1  0
 22 20  2  0
M  END
$$$$
