CRG.pdb
     RDKit          3D

 22 21  0  0  1  0  0  0  0  0999 V2000
    8.0685  -15.7305   27.8044 N   0  0  0  0  0  0  0  0  0  0  0  0
    8.2879  -14.8342   26.7030 C   0  0  1  0  0  0  0  0  0  0  0  0
    9.5128  -13.9934   27.0104 C   0  0  0  0  0  0  0  0  0  0  0  0
    9.1974  -12.9203   28.4228 S   0  0  0  0  0  0  0  0  0  0  0  0
    8.5930  -15.5934   25.4454 C   0  0  0  0  0  0  0  0  0  0  0  0
    8.9318  -16.8163   25.5025 O   0  0  0  0  0  0  0  0  0  0  0  0
    7.6752  -14.3989   15.8239 N   0  0  0  0  0  0  0  0  0  0  0  0
    7.7320  -13.7923   17.1093 C   0  0  0  0  0  0  0  0  0  0  0  0
    7.6186  -12.5301   17.2976 N   0  0  0  0  0  0  0  0  0  0  0  0
    7.9273  -14.6733   18.2263 N   0  0  0  0  0  0  0  0  0  0  0  0
    7.9240  -14.1526   19.5545 C   0  0  0  0  0  0  0  0  0  0  0  0
    8.0415  -15.3323   20.5191 C   0  0  0  0  0  0  0  0  0  0  0  0
    8.0327  -14.7503   21.8997 C   0  0  0  0  0  0  0  0  0  0  0  0
    8.6511  -15.6152   22.9507 C   0  0  2  0  0  0  0  0  0  0  0  0
    8.4877  -14.8975   24.2204 N   0  0  0  0  0  0  0  0  0  0  0  0
   10.0780  -15.8111   22.7132 C   0  0  0  0  0  0  0  0  0  0  0  0
   10.4670  -16.3643   21.6577 O   0  0  0  0  0  0  0  0  0  0  0  0
    7.7160  -12.1566   18.2759 N   0  0  0  0  0  0  0  0  0  0  0  0
   11.0556  -15.3786   23.6748 C   0  0  0  0  0  0  0  0  0  0  0  0
   12.4376  -15.5885   23.3295 C   0  0  0  0  0  0  0  0  0  0  0  0
   12.9041  -16.9551   23.6039 O   0  0  0  0  0  0  0  0  0  0  0  0
   14.2084  -17.3982   23.4609 O   0  0  0  0  0  0  0  0  0  0  0  0
  2  1  1  1
  2  5  1  0
  2  3  1  0
  3  4  1  0
  5  6  2  0
  7  8  1  0
  8  9  2  0
  8 10  1  0
 10 11  1  0
 11 12  1  0
 12 13  1  0
 14 13  1  6
 14 16  1  0
 15  5  1  0
 15 14  1  0
 16 18  1  0
 16 17  2  0
 18 19  1  0
 20 19  1  0
 20 21  1  0
 22 20  2  0
M  END
$$$$
