CRG.pdb
     RDKit          3D

 22 21  0  0  1  0  0  0  0  0999 V2000
   11.4559  -21.3376   18.4051 N   0  0  0  0  0  0  0  0  0  0  0  0
   10.5091  -20.8407   19.3648 C   0  0  1  0  0  0  0  0  0  0  0  0
   10.5685  -21.7269   20.5948 C   0  0  0  0  0  0  0  0  0  0  0  0
   12.2450  -21.7729   21.2531 S   0  0  0  0  0  0  0  0  0  0  0  0
   10.8760  -19.4572   19.8143 C   0  0  0  0  0  0  0  0  0  0  0  0
   11.9550  -18.9195   19.4144 O   0  0  0  0  0  0  0  0  0  0  0  0
    8.3006  -12.2185   20.7299 N   0  0  0  0  0  0  0  0  0  0  0  0
    7.7432  -13.0474   19.7173 C   0  0  0  0  0  0  0  0  0  0  0  0
    7.6501  -12.6929   18.4896 N   0  0  0  0  0  0  0  0  0  0  0  0
    7.2726  -14.3389   20.1325 N   0  0  0  0  0  0  0  0  0  0  0  0
    7.5021  -14.7862   21.4677 C   0  0  0  0  0  0  0  0  0  0  0  0
    8.9414  -15.2939   21.5494 C   0  0  0  0  0  0  0  0  0  0  0  0
    8.9099  -16.7238   21.1030 C   0  0  0  0  0  0  0  0  0  0  0  0
   10.2397  -17.4069   21.0866 C   0  0  2  0  0  0  0  0  0  0  0  0
    9.9825  -18.7950   20.6857 N   0  0  0  0  0  0  0  0  0  0  0  0
   10.8541  -17.4167   22.4108 C   0  0  0  0  0  0  0  0  0  0  0  0
   10.2669  -17.9711   23.3695 O   0  0  0  0  0  0  0  0  0  0  0  0
    7.2311  -13.3687   17.8012 N   0  0  0  0  0  0  0  0  0  0  0  0
   12.1314  -16.7970   22.6397 C   0  0  0  0  0  0  0  0  0  0  0  0
   12.6271  -16.8204   23.9914 C   0  0  0  0  0  0  0  0  0  0  0  0
   14.0099  -16.3367   24.1117 O   0  0  0  0  0  0  0  0  0  0  0  0
   14.7145  -16.2177   25.2980 O   0  0  0  0  0  0  0  0  0  0  0  0
  2  1  1  6
  2  5  1  0
  2  3  1  0
  3  4  1  0
  5  6  2  0
  7  8  1  0
  8  9  2  0
  8 10  1  0
 10 11  1  0
 11 12  1  0
 12 13  1  0
 14 13  1  1
 14 16  1  0
 15  5  1  0
 15 14  1  0
 16 18  1  0
 16 17  2  0
 18 19  1  0
 20 19  1  0
 20 21  1  0
 22 20  2  0
M  END
$$$$
