CRG.pdb
     RDKit          3D

 22 21  0  0  1  0  0  0  0  0999 V2000
    7.2925  -19.4020   26.7212 N   0  0  0  0  0  0  0  0  0  0  0  0
    7.1442  -18.0116   26.3904 C   0  0  1  0  0  0  0  0  0  0  0  0
    7.8087  -17.1899   27.4790 C   0  0  0  0  0  0  0  0  0  0  0  0
    9.1378  -18.1303   28.2504 S   0  0  0  0  0  0  0  0  0  0  0  0
    7.8564  -17.6851   25.1109 C   0  0  0  0  0  0  0  0  0  0  0  0
    8.5893  -18.5556   24.5464 O   0  0  0  0  0  0  0  0  0  0  0  0
    7.5234  -15.1166   18.6232 N   0  0  0  0  0  0  0  0  0  0  0  0
    7.9147  -13.7521   18.5317 C   0  0  0  0  0  0  0  0  0  0  0  0
    8.5188  -13.2596   17.5148 N   0  0  0  0  0  0  0  0  0  0  0  0
    7.5985  -12.9173   19.6565 N   0  0  0  0  0  0  0  0  0  0  0  0
    7.0731  -13.4970   20.8495 C   0  0  0  0  0  0  0  0  0  0  0  0
    8.2159  -14.2231   21.5586 C   0  0  0  0  0  0  0  0  0  0  0  0
    7.6292  -14.8202   22.8013 C   0  0  0  0  0  0  0  0  0  0  0  0
    8.3681  -16.0030   23.3401 C   0  0  2  0  0  0  0  0  0  0  0  0
    7.6766  -16.3902   24.5753 N   0  0  0  0  0  0  0  0  0  0  0  0
    9.7494  -15.6671   23.6718 C   0  0  0  0  0  0  0  0  0  0  0  0
   10.0040  -15.0274   24.7193 O   0  0  0  0  0  0  0  0  0  0  0  0
    8.7431  -12.2322   17.5117 N   0  0  0  0  0  0  0  0  0  0  0  0
   10.8341  -16.0587   22.8129 C   0  0  0  0  0  0  0  0  0  0  0  0
   12.1639  -15.7513   23.2715 C   0  0  0  0  0  0  0  0  0  0  0  0
   13.2038  -16.0387   22.2732 O   0  0  0  0  0  0  0  0  0  0  0  0
   14.5463  -15.7250   22.4048 O   0  0  0  0  0  0  0  0  0  0  0  0
  2  1  1  1
  2  5  1  0
  2  3  1  0
  3  4  1  0
  5  6  2  0
  7  8  1  0
  8  9  2  0
  8 10  1  0
 10 11  1  0
 11 12  1  0
 12 13  1  0
 14 13  1  1
 14 16  1  0
 15  5  1  0
 15 14  1  0
 16 18  1  0
 16 17  2  0
 18 19  1  0
 20 19  1  0
 20 21  1  0
 22 20  2  0
M  END
$$$$
