CRG.pdb
     RDKit          3D

 22 21  0  0  1  0  0  0  0  0999 V2000
    4.2629  -19.9220   20.4360 N   0  0  0  0  0  0  0  0  0  0  0  0
    4.1835  -18.6263   21.0520 C   0  0  1  0  0  0  0  0  0  0  0  0
    3.0557  -18.6501   22.0666 C   0  0  0  0  0  0  0  0  0  0  0  0
    3.3951  -19.8661   23.3519 S   0  0  0  0  0  0  0  0  0  0  0  0
    5.4388  -18.3155   21.8127 C   0  0  0  0  0  0  0  0  0  0  0  0
    6.2829  -19.2329   22.0565 O   0  0  0  0  0  0  0  0  0  0  0  0
    8.1570  -13.3413   18.4056 N   0  0  0  0  0  0  0  0  0  0  0  0
    9.2420  -13.1286   19.3004 C   0  0  0  0  0  0  0  0  0  0  0  0
   10.4641  -13.0612   18.9216 N   0  0  0  0  0  0  0  0  0  0  0  0
    8.9091  -12.9874   20.6901 N   0  0  0  0  0  0  0  0  0  0  0  0
    7.5829  -13.2636   21.1375 C   0  0  0  0  0  0  0  0  0  0  0  0
    7.4113  -14.7817   21.1811 C   0  0  0  0  0  0  0  0  0  0  0  0
    7.0610  -15.1258   22.5967 C   0  0  0  0  0  0  0  0  0  0  0  0
    6.8978  -16.5871   22.8667 C   0  0  2  0  0  0  0  0  0  0  0  0
    5.6328  -16.9817   22.2359 N   0  0  0  0  0  0  0  0  0  0  0  0
    6.8037  -16.8611   24.2975 C   0  0  0  0  0  0  0  0  0  0  0  0
    5.7489  -16.5910   24.9187 O   0  0  0  0  0  0  0  0  0  0  0  0
   11.2067  -12.8891   19.6461 N   0  0  0  0  0  0  0  0  0  0  0  0
    7.9070  -17.4398   25.0154 C   0  0  0  0  0  0  0  0  0  0  0  0
    7.6841  -17.7450   26.4048 C   0  0  0  0  0  0  0  0  0  0  0  0
    8.8633  -18.3166   27.0707 O   0  0  0  0  0  0  0  0  0  0  0  0
    8.9026  -18.7645   28.3806 O   0  0  0  0  0  0  0  0  0  0  0  0
  2  1  1  1
  2  5  1  0
  2  3  1  0
  3  4  1  0
  5  6  2  0
  7  8  1  0
  8  9  2  0
  8 10  1  0
 10 11  1  0
 11 12  1  0
 12 13  1  0
 14 13  1  1
 14 16  1  0
 15  5  1  0
 15 14  1  0
 16 18  1  0
 16 17  2  0
 18 19  1  0
 20 19  1  0
 20 21  1  0
 22 20  2  0
M  END
$$$$
