CRG.pdb
     RDKit          3D

 22 21  0  0  1  0  0  0  0  0999 V2000
    5.5489  -14.8322   26.7230 N   0  0  0  0  0  0  0  0  0  0  0  0
    6.5729  -14.0453   26.0931 C   0  0  1  0  0  0  0  0  0  0  0  0
    7.5271  -13.5582   27.1674 C   0  0  0  0  0  0  0  0  0  0  0  0
    7.5384  -11.7575   27.2252 S   0  0  0  0  0  0  0  0  0  0  0  0
    7.3835  -14.8788   25.1448 C   0  0  0  0  0  0  0  0  0  0  0  0
    7.6415  -16.0919   25.4192 O   0  0  0  0  0  0  0  0  0  0  0  0
    9.2866  -15.4421   18.5053 N   0  0  0  0  0  0  0  0  0  0  0  0
    8.4152  -14.4035   18.0748 C   0  0  0  0  0  0  0  0  0  0  0  0
    8.6794  -13.6249   17.0922 N   0  0  0  0  0  0  0  0  0  0  0  0
    7.1875  -14.2527   18.8043 N   0  0  0  0  0  0  0  0  0  0  0  0
    6.9434  -15.0498   19.9621 C   0  0  0  0  0  0  0  0  0  0  0  0
    7.0785  -14.1469   21.1879 C   0  0  0  0  0  0  0  0  0  0  0  0
    8.4848  -14.3099   21.6784 C   0  0  0  0  0  0  0  0  0  0  0  0
    8.6168  -15.0321   22.9808 C   0  0  2  0  0  0  0  0  0  0  0  0
    7.8366  -14.2625   23.9570 N   0  0  0  0  0  0  0  0  0  0  0  0
   10.0043  -15.0754   23.4321 C   0  0  0  0  0  0  0  0  0  0  0  0
   10.6978  -14.0312   23.4256 O   0  0  0  0  0  0  0  0  0  0  0  0
    8.0033  -12.8515   16.8673 N   0  0  0  0  0  0  0  0  0  0  0  0
   10.5974  -16.3034   23.8881 C   0  0  0  0  0  0  0  0  0  0  0  0
   11.3903  -17.0313   22.9318 C   0  0  0  0  0  0  0  0  0  0  0  0
   12.8181  -16.6849   22.9770 O   0  0  0  0  0  0  0  0  0  0  0  0
   13.8524  -17.5834   23.1797 O   0  0  0  0  0  0  0  0  0  0  0  0
  2  1  1  1
  2  5  1  0
  2  3  1  0
  3  4  1  0
  5  6  2  0
  7  8  1  0
  8  9  2  0
  8 10  1  0
 10 11  1  0
 11 12  1  0
 12 13  1  0
 14 13  1  6
 14 16  1  0
 15  5  1  0
 15 14  1  0
 16 18  1  0
 16 17  2  0
 18 19  1  0
 20 19  1  0
 20 21  1  0
 22 20  2  0
M  END
$$$$
