CRG.pdb
     RDKit          3D

 22 21  0  0  1  0  0  0  0  0999 V2000
    6.8896  -19.5899   26.0514 N   0  0  0  0  0  0  0  0  0  0  0  0
    7.3939  -18.2450   26.0898 C   0  0  1  0  0  0  0  0  0  0  0  0
    8.4905  -18.1776   27.1361 C   0  0  0  0  0  0  0  0  0  0  0  0
    8.8773  -16.4622   27.5283 S   0  0  0  0  0  0  0  0  0  0  0  0
    8.0254  -17.8708   24.7813 C   0  0  0  0  0  0  0  0  0  0  0  0
    8.6589  -18.7395   24.1049 O   0  0  0  0  0  0  0  0  0  0  0  0
    7.5865  -12.2363   18.6581 N   0  0  0  0  0  0  0  0  0  0  0  0
    8.2315  -13.5013   18.7414 C   0  0  0  0  0  0  0  0  0  0  0  0
    9.1249  -13.8921   17.9104 N   0  0  0  0  0  0  0  0  0  0  0  0
    7.8332  -14.3542   19.8259 N   0  0  0  0  0  0  0  0  0  0  0  0
    6.8340  -13.9184   20.7461 C   0  0  0  0  0  0  0  0  0  0  0  0
    6.7142  -14.9771   21.8419 C   0  0  0  0  0  0  0  0  0  0  0  0
    7.9103  -14.8041   22.7276 C   0  0  0  0  0  0  0  0  0  0  0  0
    8.5789  -16.0771   23.1371 C   0  0  2  0  0  0  0  0  0  0  0  0
    7.8848  -16.5338   24.3468 N   0  0  0  0  0  0  0  0  0  0  0  0
    9.9848  -15.8628   23.4664 C   0  0  0  0  0  0  0  0  0  0  0  0
   10.3025  -15.4111   24.5917 O   0  0  0  0  0  0  0  0  0  0  0  0
    9.5392  -14.8512   18.0310 N   0  0  0  0  0  0  0  0  0  0  0  0
   11.0224  -16.1620   22.5168 C   0  0  0  0  0  0  0  0  0  0  0  0
   12.3720  -15.8631   22.9199 C   0  0  0  0  0  0  0  0  0  0  0  0
   13.0937  -17.0309   23.4453 O   0  0  0  0  0  0  0  0  0  0  0  0
   14.3577  -17.4342   23.0483 O   0  0  0  0  0  0  0  0  0  0  0  0
  2  1  1  6
  2  5  1  0
  2  3  1  0
  3  4  1  0
  5  6  2  0
  7  8  1  0
  8  9  2  0
  8 10  1  0
 10 11  1  0
 11 12  1  0
 12 13  1  0
 14 13  1  1
 14 16  1  0
 15  5  1  0
 15 14  1  0
 16 18  1  0
 16 17  2  0
 18 19  1  0
 20 19  1  0
 20 21  1  0
 22 20  2  0
M  END
$$$$
