CRG.pdb
     RDKit          3D

 22 21  0  0  1  0  0  0  0  0999 V2000
    7.6157  -12.8337   16.9521 N   0  0  0  0  0  0  0  0  0  0  0  0
    7.3049  -14.0327   17.6803 C   0  0  1  0  0  0  0  0  0  0  0  0
    7.7350  -15.2228   16.8433 C   0  0  0  0  0  0  0  0  0  0  0  0
    7.2906  -16.7617   17.6680 S   0  0  0  0  0  0  0  0  0  0  0  0
    8.0866  -14.1022   18.9590 C   0  0  0  0  0  0  0  0  0  0  0  0
    9.2919  -13.7029   18.9946 O   0  0  0  0  0  0  0  0  0  0  0  0
    5.7687  -12.6339   26.3970 N   0  0  0  0  0  0  0  0  0  0  0  0
    7.1285  -12.8586   26.7485 C   0  0  0  0  0  0  0  0  0  0  0  0
    7.6031  -12.6189   27.9142 N   0  0  0  0  0  0  0  0  0  0  0  0
    7.9799  -13.3810   25.7168 N   0  0  0  0  0  0  0  0  0  0  0  0
    7.5528  -13.3500   24.3560 C   0  0  0  0  0  0  0  0  0  0  0  0
    7.5112  -14.7903   23.8464 C   0  0  0  0  0  0  0  0  0  0  0  0
    7.0270  -14.7226   22.4301 C   0  0  0  0  0  0  0  0  0  0  0  0
    8.1062  -14.6156   21.4010 C   0  0  2  0  0  0  0  0  0  0  0  0
    7.4316  -14.6222   20.0976 N   0  0  0  0  0  0  0  0  0  0  0  0
    9.0142  -15.7572   21.4551 C   0  0  0  0  0  0  0  0  0  0  0  0
    8.7541  -16.7957   20.8028 O   0  0  0  0  0  0  0  0  0  0  0  0
    8.6159  -12.8337   28.0990 N   0  0  0  0  0  0  0  0  0  0  0  0
   10.2122  -15.7144   22.2491 C   0  0  0  0  0  0  0  0  0  0  0  0
   10.9948  -16.9218   22.3024 C   0  0  0  0  0  0  0  0  0  0  0  0
   12.2100  -16.7912   23.1190 O   0  0  0  0  0  0  0  0  0  0  0  0
   13.1370  -17.7964   23.3388 O   0  0  0  0  0  0  0  0  0  0  0  0
  2  1  1  6
  2  5  1  0
  2  3  1  0
  3  4  1  0
  5  6  2  0
  7  8  1  0
  8  9  2  0
  8 10  1  0
 10 11  1  0
 11 12  1  0
 12 13  1  0
 14 13  1  1
 14 16  1  0
 15  5  1  0
 15 14  1  0
 16 18  1  0
 16 17  2  0
 18 19  1  0
 20 19  1  0
 20 21  1  0
 22 20  2  0
M  END
$$$$
