DDH.pdb
     RDKit          3D

 27 27  0  0  1  0  0  0  0  0999 V2000
   24.2232   -8.6565  -17.4583 N   0  0  0  0  0  0  0  0  0  0  0  0
   23.6808   -9.5378  -16.4712 C   0  0  1  0  0  0  0  0  0  0  0  0
   24.8784   -9.9553  -15.5987 C   0  0  0  0  0  0  0  0  0  0  0  0
   25.8418  -10.6076  -16.5177 C   0  0  0  0  0  0  0  0  0  0  0  0
   25.8561  -11.8601  -16.5230 O   0  0  0  0  0  0  0  0  0  0  0  0
   22.6060   -8.9717  -15.6495 C   0  0  0  0  0  0  0  0  0  0  0  0
   22.1477   -9.6387  -14.6732 O   0  0  0  0  0  0  0  0  0  0  0  0
   26.6713   -9.8672  -17.3212 O   0  0  0  0  0  0  0  0  0  0  0  0
   22.0164   -7.7040  -15.8595 N   0  0  0  0  0  0  0  0  0  0  0  0
   20.9030   -7.2215  -15.0207 C   0  0  1  0  0  0  0  0  0  0  0  0
   21.0640   -5.7620  -14.8502 C   0  0  0  0  0  0  0  0  0  0  0  0
   22.0502   -5.3111  -13.8649 C   0  0  0  0  0  0  0  0  0  0  0  0
   22.8081   -4.3622  -14.2113 O   0  0  0  0  0  0  0  0  0  0  0  0
   19.6333   -7.6631  -15.6515 C   0  0  0  0  0  0  0  0  0  0  0  0
   19.3365   -7.4489  -16.8520 O   0  0  0  0  0  0  0  0  0  0  0  0
   22.2115   -5.8343  -12.6112 O   0  0  0  0  0  0  0  0  0  0  0  0
   18.6544   -8.3731  -14.9108 N   0  0  0  0  0  0  0  0  0  0  0  0
   17.4230   -8.9119  -15.4538 C   0  0  1  0  0  0  0  0  0  0  0  0
   17.1131  -10.2693  -14.9715 C   0  0  0  0  0  0  0  0  0  0  0  0
   15.8466  -10.7545  -15.5524 C   0  0  0  0  0  0  0  0  0  0  0  0
   15.3717  -10.7130  -16.8409 C   0  0  0  0  0  0  0  0  0  0  0  0
   14.1391  -11.2483  -16.8604 N   0  0  0  0  0  0  0  0  0  0  0  0
   13.8126  -11.6313  -15.6202 C   0  0  0  0  0  0  0  0  0  0  0  0
   14.8401  -11.3348  -14.8269 N   0  0  0  0  0  0  0  0  0  0  0  0
   16.3581   -7.9664  -15.0636 C   0  0  0  0  0  0  0  0  0  0  0  0
   16.2871   -7.3723  -13.7892 O   0  0  0  0  0  0  0  0  0  0  0  0
   15.4573   -7.6531  -15.8724 O   0  0  0  0  0  0  0  0  0  0  0  0
  2  1  1  6
  2  3  1  0
  3  4  1  0
  4  8  1  0
  5  4  2  0
  6  7  2  0
  6  2  1  0
  9  6  1  0
 10  9  1  0
 10 11  1  6
 12 13  2  0
 12 11  1  0
 14 17  1  0
 14 10  1  0
 15 14  2  0
 16 12  1  0
 18 17  1  0
 18 25  1  0
 18 19  1  1
 20 19  1  0
 21 20  2  0
 22 21  1  0
 23 22  1  0
 23 24  2  0
 24 20  1  0
 25 27  2  0
 25 26  1  0
M  END
$$$$
