DDH.pdb
     RDKit          3D

 27 27  0  0  1  0  0  0  0  0999 V2000
   18.8162  -11.0498  -16.3618 N   0  0  0  0  0  0  0  0  0  0  0  0
   19.8252  -10.4129  -15.5736 C   0  0  1  0  0  0  0  0  0  0  0  0
   21.0571  -10.3178  -16.4918 C   0  0  0  0  0  0  0  0  0  0  0  0
   21.2415  -11.6728  -17.0647 C   0  0  0  0  0  0  0  0  0  0  0  0
   21.1580  -11.7742  -18.3103 O   0  0  0  0  0  0  0  0  0  0  0  0
   19.4649   -9.0944  -15.0420 C   0  0  0  0  0  0  0  0  0  0  0  0
   20.2912   -8.4667  -14.3132 O   0  0  0  0  0  0  0  0  0  0  0  0
   21.4933  -12.7562  -16.2618 O   0  0  0  0  0  0  0  0  0  0  0  0
   18.2337   -8.4412  -15.2794 N   0  0  0  0  0  0  0  0  0  0  0  0
   17.9554   -7.0974  -14.7384 C   0  0  1  0  0  0  0  0  0  0  0  0
   17.5638   -6.2269  -15.8672 C   0  0  0  0  0  0  0  0  0  0  0  0
   17.1632   -4.8554  -15.5432 C   0  0  0  0  0  0  0  0  0  0  0  0
   15.9478   -4.6704  -15.2550 O   0  0  0  0  0  0  0  0  0  0  0  0
   16.9512   -7.2420  -13.6541 C   0  0  0  0  0  0  0  0  0  0  0  0
   16.2341   -8.2597  -13.4954 O   0  0  0  0  0  0  0  0  0  0  0  0
   17.9968   -3.7707  -15.5295 O   0  0  0  0  0  0  0  0  0  0  0  0
   16.7389   -6.2071  -12.7081 N   0  0  0  0  0  0  0  0  0  0  0  0
   15.8947   -6.3079  -11.5339 C   0  0  1  0  0  0  0  0  0  0  0  0
   16.3449   -7.3304  -10.5733 C   0  0  0  0  0  0  0  0  0  0  0  0
   15.5252   -7.2930   -9.3470 C   0  0  0  0  0  0  0  0  0  0  0  0
   14.1749   -7.1117   -9.1706 C   0  0  0  0  0  0  0  0  0  0  0  0
   13.9111   -7.1140   -7.8527 N   0  0  0  0  0  0  0  0  0  0  0  0
   15.0552   -7.2919   -7.1815 C   0  0  0  0  0  0  0  0  0  0  0  0
   16.0327   -7.4001   -8.0792 N   0  0  0  0  0  0  0  0  0  0  0  0
   15.9038   -4.9695  -10.9101 C   0  0  0  0  0  0  0  0  0  0  0  0
   14.9306   -4.5463   -9.9850 O   0  0  0  0  0  0  0  0  0  0  0  0
   16.7993   -4.1427  -11.1902 O   0  0  0  0  0  0  0  0  0  0  0  0
  2  1  1  6
  2  3  1  0
  3  4  1  0
  4  8  1  0
  5  4  2  0
  6  7  2  0
  6  2  1  0
  9  6  1  0
 10  9  1  0
 10 11  1  6
 12 13  2  0
 12 11  1  0
 14 17  1  0
 14 10  1  0
 15 14  2  0
 16 12  1  0
 18 17  1  0
 18 25  1  0
 18 19  1  1
 20 19  1  0
 21 20  2  0
 22 21  1  0
 23 22  1  0
 23 24  2  0
 24 20  1  0
 25 27  2  0
 25 26  1  0
M  END
$$$$
