DDH.pdb
     RDKit          3D

 27 27  0  0  1  0  0  0  0  0999 V2000
   19.3675  -17.8063  -14.8650 N   0  0  0  0  0  0  0  0  0  0  0  0
   18.7999  -16.8574  -15.7718 C   0  0  1  0  0  0  0  0  0  0  0  0
   17.3325  -16.7043  -15.3324 C   0  0  0  0  0  0  0  0  0  0  0  0
   16.7133  -18.0391  -15.5143 C   0  0  0  0  0  0  0  0  0  0  0  0
   16.8621  -18.5816  -16.6335 O   0  0  0  0  0  0  0  0  0  0  0  0
   19.4720  -15.5547  -15.8166 C   0  0  0  0  0  0  0  0  0  0  0  0
   19.6297  -14.8951  -14.7451 O   0  0  0  0  0  0  0  0  0  0  0  0
   16.0156  -18.6437  -14.4997 O   0  0  0  0  0  0  0  0  0  0  0  0
   19.9758  -14.9501  -16.9912 N   0  0  0  0  0  0  0  0  0  0  0  0
   20.7038  -13.6679  -16.9486 C   0  0  1  0  0  0  0  0  0  0  0  0
   21.8298  -13.7546  -17.9025 C   0  0  0  0  0  0  0  0  0  0  0  0
   22.6774  -12.5677  -18.0424 C   0  0  0  0  0  0  0  0  0  0  0  0
   22.4050  -11.5831  -17.3001 O   0  0  0  0  0  0  0  0  0  0  0  0
   19.7249  -12.5800  -17.2002 C   0  0  0  0  0  0  0  0  0  0  0  0
   18.7247  -12.6976  -17.9492 O   0  0  0  0  0  0  0  0  0  0  0  0
   23.7304  -12.4457  -18.9071 O   0  0  0  0  0  0  0  0  0  0  0  0
   19.8691  -11.3079  -16.5901 N   0  0  0  0  0  0  0  0  0  0  0  0
   18.8905  -10.2397  -16.6425 C   0  0  1  0  0  0  0  0  0  0  0  0
   17.5779  -10.6185  -16.0906 C   0  0  0  0  0  0  0  0  0  0  0  0
   16.6335   -9.4873  -16.1634 C   0  0  0  0  0  0  0  0  0  0  0  0
   16.7977   -8.2044  -16.6267 C   0  0  0  0  0  0  0  0  0  0  0  0
   15.6495   -7.5313  -16.4400 N   0  0  0  0  0  0  0  0  0  0  0  0
   14.7554   -8.3482  -15.8704 C   0  0  0  0  0  0  0  0  0  0  0  0
   15.3448   -9.5301  -15.7010 N   0  0  0  0  0  0  0  0  0  0  0  0
   19.4712   -9.1179  -15.8779 C   0  0  0  0  0  0  0  0  0  0  0  0
   18.8793   -7.8420  -15.8164 O   0  0  0  0  0  0  0  0  0  0  0  0
   20.5381   -9.2655  -15.2424 O   0  0  0  0  0  0  0  0  0  0  0  0
  2  1  1  1
  2  3  1  0
  3  4  1  0
  4  8  1  0
  5  4  2  0
  6  7  2  0
  6  2  1  0
  9  6  1  0
 10  9  1  0
 10 11  1  6
 12 13  2  0
 12 11  1  0
 14 17  1  0
 14 10  1  0
 15 14  2  0
 16 12  1  0
 18 17  1  0
 18 25  1  0
 18 19  1  1
 20 19  1  0
 21 20  2  0
 22 21  1  0
 23 22  1  0
 23 24  2  0
 24 20  1  0
 25 27  2  0
 25 26  1  0
M  END
$$$$
