DDH.pdb
     RDKit          3D

 27 27  0  0  1  0  0  0  0  0999 V2000
   23.7298  -13.7043  -17.6130 N   0  0  0  0  0  0  0  0  0  0  0  0
   22.6154  -12.8523  -17.8913 C   0  0  1  0  0  0  0  0  0  0  0  0
   21.3915  -13.5825  -17.3093 C   0  0  0  0  0  0  0  0  0  0  0  0
   21.1558  -14.7480  -18.1948 C   0  0  0  0  0  0  0  0  0  0  0  0
   21.6019  -14.6680  -19.3625 O   0  0  0  0  0  0  0  0  0  0  0  0
   22.7182  -11.4917  -17.3539 C   0  0  0  0  0  0  0  0  0  0  0  0
   23.0140  -11.3223  -16.1324 O   0  0  0  0  0  0  0  0  0  0  0  0
   20.4831  -15.8567  -17.7474 O   0  0  0  0  0  0  0  0  0  0  0  0
   22.5080  -10.3127  -18.1054 N   0  0  0  0  0  0  0  0  0  0  0  0
   22.5984   -8.9763  -17.4871 C   0  0  1  0  0  0  0  0  0  0  0  0
   23.4096   -8.1194  -18.3776 C   0  0  0  0  0  0  0  0  0  0  0  0
   23.5932   -6.7233  -17.9729 C   0  0  0  0  0  0  0  0  0  0  0  0
   23.7202   -5.8742  -18.8990 O   0  0  0  0  0  0  0  0  0  0  0  0
   21.2163   -8.5047  -17.2182 C   0  0  0  0  0  0  0  0  0  0  0  0
   20.2978   -8.5044  -18.0735 O   0  0  0  0  0  0  0  0  0  0  0  0
   23.6374   -6.2737  -16.6816 O   0  0  0  0  0  0  0  0  0  0  0  0
   20.8446   -8.0128  -15.9410 N   0  0  0  0  0  0  0  0  0  0  0  0
   19.5298   -7.5154  -15.5868 C   0  0  1  0  0  0  0  0  0  0  0  0
   18.9538   -8.1722  -14.4003 C   0  0  0  0  0  0  0  0  0  0  0  0
   18.4007   -9.4944  -14.7511 C   0  0  0  0  0  0  0  0  0  0  0  0
   18.3585  -10.1646  -15.9495 C   0  0  0  0  0  0  0  0  0  0  0  0
   17.7072  -11.3262  -15.7678 N   0  0  0  0  0  0  0  0  0  0  0  0
   17.3319  -11.4174  -14.4864 C   0  0  0  0  0  0  0  0  0  0  0  0
   17.7479  -10.3137  -13.8685 N   0  0  0  0  0  0  0  0  0  0  0  0
   19.6927   -6.0669  -15.3508 C   0  0  0  0  0  0  0  0  0  0  0  0
   18.6246   -5.2213  -14.9958 O   0  0  0  0  0  0  0  0  0  0  0  0
   20.8148   -5.5260  -15.4624 O   0  0  0  0  0  0  0  0  0  0  0  0
  2  1  1  1
  2  3  1  0
  3  4  1  0
  4  8  1  0
  5  4  2  0
  6  7  2  0
  6  2  1  0
  9  6  1  0
 10  9  1  0
 10 11  1  6
 12 13  2  0
 12 11  1  0
 14 17  1  0
 14 10  1  0
 15 14  2  0
 16 12  1  0
 18 17  1  0
 18 25  1  0
 18 19  1  1
 20 19  1  0
 21 20  2  0
 22 21  1  0
 23 22  1  0
 23 24  2  0
 24 20  1  0
 25 27  2  0
 25 26  1  0
M  END
$$$$
