DDH.pdb
     RDKit          3D

 27 27  0  0  1  0  0  0  0  0999 V2000
   20.2644  -12.2011  -17.3385 N   0  0  0  0  0  0  0  0  0  0  0  0
   19.8260  -10.9068  -17.7600 C   0  0  1  0  0  0  0  0  0  0  0  0
   18.4735  -10.6883  -17.0581 C   0  0  0  0  0  0  0  0  0  0  0  0
   17.5605  -11.7194  -17.6072 C   0  0  0  0  0  0  0  0  0  0  0  0
   17.5950  -11.9005  -18.8461 O   0  0  0  0  0  0  0  0  0  0  0  0
   20.7513   -9.8069  -17.4685 C   0  0  0  0  0  0  0  0  0  0  0  0
   21.4120   -9.8155  -16.3862 O   0  0  0  0  0  0  0  0  0  0  0  0
   16.7241  -12.4368  -16.7901 O   0  0  0  0  0  0  0  0  0  0  0  0
   20.9771   -8.6999  -18.3186 N   0  0  0  0  0  0  0  0  0  0  0  0
   21.9837   -7.6710  -17.9958 C   0  0  1  0  0  0  0  0  0  0  0  0
   22.3755   -7.0091  -19.2583 C   0  0  0  0  0  0  0  0  0  0  0  0
   23.1743   -7.7947  -20.2024 C   0  0  0  0  0  0  0  0  0  0  0  0
   22.8173   -7.7642  -21.4132 O   0  0  0  0  0  0  0  0  0  0  0  0
   21.4101   -6.7847  -16.9515 C   0  0  0  0  0  0  0  0  0  0  0  0
   20.2435   -6.3234  -16.9883 O   0  0  0  0  0  0  0  0  0  0  0  0
   24.2662   -8.5515  -19.8757 O   0  0  0  0  0  0  0  0  0  0  0  0
   22.1712   -6.3974  -15.8192 N   0  0  0  0  0  0  0  0  0  0  0  0
   21.7211   -5.4942  -14.7785 C   0  0  1  0  0  0  0  0  0  0  0  0
   21.7998   -6.0721  -13.4254 C   0  0  0  0  0  0  0  0  0  0  0  0
   20.6896   -7.0161  -13.1942 C   0  0  0  0  0  0  0  0  0  0  0  0
   19.6509   -7.4021  -14.0062 C   0  0  0  0  0  0  0  0  0  0  0  0
   18.8694   -8.2571  -13.3246 N   0  0  0  0  0  0  0  0  0  0  0  0
   19.3796   -8.4286  -12.0992 C   0  0  0  0  0  0  0  0  0  0  0  0
   20.4784   -7.6811  -12.0155 N   0  0  0  0  0  0  0  0  0  0  0  0
   22.5770   -4.2954  -14.8818 C   0  0  0  0  0  0  0  0  0  0  0  0
   23.6237   -4.1768  -15.8157 O   0  0  0  0  0  0  0  0  0  0  0  0
   22.3982   -3.3183  -14.1221 O   0  0  0  0  0  0  0  0  0  0  0  0
  2  1  1  1
  2  3  1  0
  3  4  1  0
  4  8  1  0
  5  4  2  0
  6  7  2  0
  6  2  1  0
  9  6  1  0
 10  9  1  0
 10 11  1  6
 12 13  2  0
 12 11  1  0
 14 17  1  0
 14 10  1  0
 15 14  2  0
 16 12  1  0
 18 17  1  0
 18 25  1  0
 18 19  1  1
 20 19  1  0
 21 20  2  0
 22 21  1  0
 23 22  1  0
 23 24  2  0
 24 20  1  0
 25 27  2  0
 25 26  1  0
M  END
$$$$
