DDH.pdb
     RDKit          3D

 27 27  0  0  1  0  0  0  0  0999 V2000
   15.8467  -12.9572  -14.2818 N   0  0  0  0  0  0  0  0  0  0  0  0
   15.3788  -11.6245  -14.0575 C   0  0  1  0  0  0  0  0  0  0  0  0
   14.1402  -11.7760  -13.1561 C   0  0  0  0  0  0  0  0  0  0  0  0
   13.2382  -12.7179  -13.8614 C   0  0  0  0  0  0  0  0  0  0  0  0
   12.8394  -12.3724  -14.9974 O   0  0  0  0  0  0  0  0  0  0  0  0
   16.3559  -10.7110  -13.4561 C   0  0  0  0  0  0  0  0  0  0  0  0
   17.5934  -10.9745  -13.5411 O   0  0  0  0  0  0  0  0  0  0  0  0
   12.8661  -13.9085  -13.2906 O   0  0  0  0  0  0  0  0  0  0  0  0
   16.0259   -9.5222  -12.7655 N   0  0  0  0  0  0  0  0  0  0  0  0
   17.0664   -8.5891  -12.2934 C   0  0  1  0  0  0  0  0  0  0  0  0
   17.8795   -8.1891  -13.4613 C   0  0  0  0  0  0  0  0  0  0  0  0
   19.0206   -7.3058  -13.2076 C   0  0  0  0  0  0  0  0  0  0  0  0
   19.2157   -6.9578  -12.0094 O   0  0  0  0  0  0  0  0  0  0  0  0
   16.3911   -7.4845  -11.5662 C   0  0  0  0  0  0  0  0  0  0  0  0
   15.7318   -6.5764  -12.1282 O   0  0  0  0  0  0  0  0  0  0  0  0
   19.8821   -6.8337  -14.1597 O   0  0  0  0  0  0  0  0  0  0  0  0
   16.4551   -7.3899  -10.1526 N   0  0  0  0  0  0  0  0  0  0  0  0
   15.8200   -6.3603   -9.3539 C   0  0  1  0  0  0  0  0  0  0  0  0
   15.4249   -6.8195   -8.0107 C   0  0  0  0  0  0  0  0  0  0  0  0
   14.1705   -7.5940   -8.0706 C   0  0  0  0  0  0  0  0  0  0  0  0
   13.2989   -7.8192   -9.1083 C   0  0  0  0  0  0  0  0  0  0  0  0
   12.2718   -8.5566   -8.6526 N   0  0  0  0  0  0  0  0  0  0  0  0
   12.4624   -8.8094   -7.3522 C   0  0  0  0  0  0  0  0  0  0  0  0
   13.6072   -8.2299   -6.9960 N   0  0  0  0  0  0  0  0  0  0  0  0
   16.7977   -5.2578   -9.2590 C   0  0  0  0  0  0  0  0  0  0  0  0
   18.0918   -5.3290   -9.8087 O   0  0  0  0  0  0  0  0  0  0  0  0
   16.5030   -4.1946   -8.6703 O   0  0  0  0  0  0  0  0  0  0  0  0
  2  1  1  1
  2  3  1  0
  3  4  1  0
  4  8  1  0
  5  4  2  0
  6  7  2  0
  6  2  1  0
  9  6  1  0
 10  9  1  0
 10 11  1  6
 12 13  2  0
 12 11  1  0
 14 17  1  0
 14 10  1  0
 15 14  2  0
 16 12  1  0
 18 17  1  0
 18 25  1  0
 18 19  1  1
 20 19  1  0
 21 20  2  0
 22 21  1  0
 23 22  1  0
 23 24  2  0
 24 20  1  0
 25 27  2  0
 25 26  1  0
M  END
$$$$
