DDH.pdb
     RDKit          3D

 27 27  0  0  1  0  0  0  0  0999 V2000
   13.6334  -24.8337    2.4696 N   0  0  0  0  0  0  0  0  0  0  0  0
   15.0362  -24.5596    2.4215 C   0  0  1  0  0  0  0  0  0  0  0  0
   15.1481  -23.0250    2.3743 C   0  0  0  0  0  0  0  0  0  0  0  0
   14.8589  -22.6403    0.9720 C   0  0  0  0  0  0  0  0  0  0  0  0
   14.8678  -23.5602    0.1219 O   0  0  0  0  0  0  0  0  0  0  0  0
   15.8196  -25.1082    3.5333 C   0  0  0  0  0  0  0  0  0  0  0  0
   15.4521  -24.8865    4.7266 O   0  0  0  0  0  0  0  0  0  0  0  0
   14.5933  -21.3381    0.6320 O   0  0  0  0  0  0  0  0  0  0  0  0
   16.9892  -25.8884    3.3844 N   0  0  0  0  0  0  0  0  0  0  0  0
   17.7146  -26.4234    4.5522 C   0  0  1  0  0  0  0  0  0  0  0  0
   18.8221  -27.2645    4.0509 C   0  0  0  0  0  0  0  0  0  0  0  0
   19.6773  -27.9064    5.0526 C   0  0  0  0  0  0  0  0  0  0  0  0
   19.3798  -27.7112    6.2642 O   0  0  0  0  0  0  0  0  0  0  0  0
   18.1097  -25.2756    5.4076 C   0  0  0  0  0  0  0  0  0  0  0  0
   18.4028  -24.1393    4.9628 O   0  0  0  0  0  0  0  0  0  0  0  0
   20.7626  -28.6928    4.7784 O   0  0  0  0  0  0  0  0  0  0  0  0
   18.1806  -25.4024    6.8183 N   0  0  0  0  0  0  0  0  0  0  0  0
   18.5653  -24.3468    7.7344 C   0  0  1  0  0  0  0  0  0  0  0  0
   17.5237  -23.3210    7.9186 C   0  0  0  0  0  0  0  0  0  0  0  0
   17.9052  -22.3735    8.9833 C   0  0  0  0  0  0  0  0  0  0  0  0
   18.1918  -22.5775   10.3113 C   0  0  0  0  0  0  0  0  0  0  0  0
   18.4429  -21.3874   10.8830 N   0  0  0  0  0  0  0  0  0  0  0  0
   18.3250  -20.4279    9.9575 C   0  0  0  0  0  0  0  0  0  0  0  0
   18.0001  -21.0181    8.8090 N   0  0  0  0  0  0  0  0  0  0  0  0
   18.8714  -25.0122    9.0165 C   0  0  0  0  0  0  0  0  0  0  0  0
   19.7642  -24.4784    9.9653 O   0  0  0  0  0  0  0  0  0  0  0  0
   18.3353  -26.1027    9.3117 O   0  0  0  0  0  0  0  0  0  0  0  0
  2  1  1  1
  2  3  1  0
  3  4  1  0
  4  8  1  0
  5  4  2  0
  6  7  2  0
  6  2  1  0
  9  6  1  0
 10  9  1  0
 10 11  1  6
 12 13  2  0
 12 11  1  0
 14 17  1  0
 14 10  1  0
 15 14  2  0
 16 12  1  0
 18 17  1  0
 18 25  1  0
 18 19  1  1
 20 19  1  0
 21 20  2  0
 22 21  1  0
 23 22  1  0
 23 24  2  0
 24 20  1  0
 25 27  2  0
 25 26  1  0
M  END
$$$$
