DDH.pdb
     RDKit          3D

 27 27  0  0  1  0  0  0  0  0999 V2000
   30.1043  -36.0005   -2.0847 N   0  0  0  0  0  0  0  0  0  0  0  0
   29.4978  -34.8786   -1.4376 C   0  0  1  0  0  0  0  0  0  0  0  0
   28.1249  -34.7138   -2.1142 C   0  0  0  0  0  0  0  0  0  0  0  0
   28.3909  -34.0562   -3.4161 C   0  0  0  0  0  0  0  0  0  0  0  0
   29.2829  -33.1771   -3.4316 O   0  0  0  0  0  0  0  0  0  0  0  0
   29.3542  -34.9974    0.0171 C   0  0  0  0  0  0  0  0  0  0  0  0
   28.1997  -35.1392    0.5220 O   0  0  0  0  0  0  0  0  0  0  0  0
   27.6906  -34.4022   -4.5439 O   0  0  0  0  0  0  0  0  0  0  0  0
   30.4282  -34.9656    0.9360 N   0  0  0  0  0  0  0  0  0  0  0  0
   30.2042  -35.0764    2.3899 C   0  0  1  0  0  0  0  0  0  0  0  0
   31.5081  -35.3533    3.0291 C   0  0  0  0  0  0  0  0  0  0  0  0
   32.1211  -36.6555    2.7552 C   0  0  0  0  0  0  0  0  0  0  0  0
   31.3493  -37.6548    2.7337 O   0  0  0  0  0  0  0  0  0  0  0  0
   29.5124  -33.8417    2.8394 C   0  0  0  0  0  0  0  0  0  0  0  0
   29.8396  -32.6850    2.4784 O   0  0  0  0  0  0  0  0  0  0  0  0
   33.4523  -36.8696    2.5236 O   0  0  0  0  0  0  0  0  0  0  0  0
   28.4097  -33.9012    3.7291 N   0  0  0  0  0  0  0  0  0  0  0  0
   27.6535  -32.7580    4.2011 C   0  0  1  0  0  0  0  0  0  0  0  0
   26.1984  -32.9010    4.0190 C   0  0  0  0  0  0  0  0  0  0  0  0
   25.8350  -32.7792    2.5941 C   0  0  0  0  0  0  0  0  0  0  0  0
   25.5886  -33.7381    1.6417 C   0  0  0  0  0  0  0  0  0  0  0  0
   25.3385  -33.1254    0.4719 N   0  0  0  0  0  0  0  0  0  0  0  0
   25.4181  -31.8013    0.6498 C   0  0  0  0  0  0  0  0  0  0  0  0
   25.7180  -31.5873    1.9293 N   0  0  0  0  0  0  0  0  0  0  0  0
   27.9860  -32.6130    5.6325 C   0  0  0  0  0  0  0  0  0  0  0  0
   28.8447  -33.4955    6.3151 O   0  0  0  0  0  0  0  0  0  0  0  0
   27.5024  -31.6774    6.3067 O   0  0  0  0  0  0  0  0  0  0  0  0
  2  1  1  6
  2  3  1  0
  3  4  1  0
  4  8  1  0
  5  4  2  0
  6  7  2  0
  6  2  1  0
  9  6  1  0
 10  9  1  0
 10 11  1  1
 12 13  2  0
 12 11  1  0
 14 17  1  0
 14 10  1  0
 15 14  2  0
 16 12  1  0
 18 17  1  0
 18 25  1  0
 18 19  1  1
 20 19  1  0
 21 20  2  0
 22 21  1  0
 23 22  1  0
 23 24  2  0
 24 20  1  0
 25 27  2  0
 25 26  1  0
M  END
$$$$
