DDH.pdb
     RDKit          3D

 27 27  0  0  1  0  0  0  0  0999 V2000
   45.6223  -12.6606  -10.8612 N   0  0  0  0  0  0  0  0  0  0  0  0
   44.2049  -12.5938  -10.6830 C   0  0  1  0  0  0  0  0  0  0  0  0
   43.6987  -14.0284  -10.9187 C   0  0  0  0  0  0  0  0  0  0  0  0
   43.0627  -14.0191  -12.2579 C   0  0  0  0  0  0  0  0  0  0  0  0
   43.0880  -12.9358  -12.8863 O   0  0  0  0  0  0  0  0  0  0  0  0
   43.7610  -12.0891   -9.3796 C   0  0  0  0  0  0  0  0  0  0  0  0
   42.5586  -12.2650   -9.0172 O   0  0  0  0  0  0  0  0  0  0  0  0
   42.4797  -15.1474  -12.7763 O   0  0  0  0  0  0  0  0  0  0  0  0
   44.5857  -11.3991   -8.4615 N   0  0  0  0  0  0  0  0  0  0  0  0
   44.0553  -10.8772   -7.1878 C   0  0  1  0  0  0  0  0  0  0  0  0
   45.1994  -10.6522   -6.2792 C   0  0  0  0  0  0  0  0  0  0  0  0
   44.8972  -10.1300   -4.9440 C   0  0  0  0  0  0  0  0  0  0  0  0
   45.5492   -9.1159   -4.5684 O   0  0  0  0  0  0  0  0  0  0  0  0
   43.2279   -9.6829   -7.4945 C   0  0  0  0  0  0  0  0  0  0  0  0
   43.4610   -8.8944   -8.4427 O   0  0  0  0  0  0  0  0  0  0  0  0
   43.9724  -10.6521   -4.0817 O   0  0  0  0  0  0  0  0  0  0  0  0
   42.0931   -9.3555   -6.7095 N   0  0  0  0  0  0  0  0  0  0  0  0
   41.2325   -8.2084   -6.9215 C   0  0  1  0  0  0  0  0  0  0  0  0
   39.9122   -8.3386   -6.2804 C   0  0  0  0  0  0  0  0  0  0  0  0
   39.1794   -9.4986   -6.8229 C   0  0  0  0  0  0  0  0  0  0  0  0
   39.4665  -10.3347   -7.8745 C   0  0  0  0  0  0  0  0  0  0  0  0
   38.4642  -11.2207   -8.0032 N   0  0  0  0  0  0  0  0  0  0  0  0
   37.5441  -10.9746   -7.0629 C   0  0  0  0  0  0  0  0  0  0  0  0
   37.9711   -9.9356   -6.3481 N   0  0  0  0  0  0  0  0  0  0  0  0
   41.9621   -7.0461   -6.3763 C   0  0  0  0  0  0  0  0  0  0  0  0
   41.4836   -5.7254   -6.4704 O   0  0  0  0  0  0  0  0  0  0  0  0
   43.0604   -7.1981   -5.7979 O   0  0  0  0  0  0  0  0  0  0  0  0
  2  1  1  1
  2  3  1  0
  3  4  1  0
  4  8  1  0
  5  4  2  0
  6  7  2  0
  6  2  1  0
  9  6  1  0
 10  9  1  0
 10 11  1  1
 12 13  2  0
 12 11  1  0
 14 17  1  0
 14 10  1  0
 15 14  2  0
 16 12  1  0
 18 17  1  0
 18 25  1  0
 18 19  1  1
 20 19  1  0
 21 20  2  0
 22 21  1  0
 23 22  1  0
 23 24  2  0
 24 20  1  0
 25 27  2  0
 25 26  1  0
M  END
$$$$
