DDH.pdb
     RDKit          3D

 27 27  0  0  1  0  0  0  0  0999 V2000
   20.3033  -14.8356  -16.0318 N   0  0  0  0  0  0  0  0  0  0  0  0
   19.7845  -13.7124  -16.7490 C   0  0  1  0  0  0  0  0  0  0  0  0
   18.2840  -13.6714  -16.4077 C   0  0  0  0  0  0  0  0  0  0  0  0
   17.7300  -14.9707  -16.8583 C   0  0  0  0  0  0  0  0  0  0  0  0
   17.1460  -15.6644  -15.9942 O   0  0  0  0  0  0  0  0  0  0  0  0
   20.4254  -12.4279  -16.4490 C   0  0  0  0  0  0  0  0  0  0  0  0
   20.4154  -11.9864  -15.2603 O   0  0  0  0  0  0  0  0  0  0  0  0
   17.8536  -15.3833  -18.1607 O   0  0  0  0  0  0  0  0  0  0  0  0
   21.0747  -11.6113  -17.4033 N   0  0  0  0  0  0  0  0  0  0  0  0
   21.7119  -10.3364  -17.0231 C   0  0  1  0  0  0  0  0  0  0  0  0
   22.9571  -10.2006  -17.8083 C   0  0  0  0  0  0  0  0  0  0  0  0
   23.7639   -9.0000  -17.5756 C   0  0  0  0  0  0  0  0  0  0  0  0
   23.3619   -8.2095  -16.6767 O   0  0  0  0  0  0  0  0  0  0  0  0
   20.7108   -9.2549  -17.2055 C   0  0  0  0  0  0  0  0  0  0  0  0
   20.0028   -9.1224  -18.2333 O   0  0  0  0  0  0  0  0  0  0  0  0
   24.9077   -8.6730  -18.2511 O   0  0  0  0  0  0  0  0  0  0  0  0
   20.4915   -8.2810  -16.1982 N   0  0  0  0  0  0  0  0  0  0  0  0
   19.5548   -7.1784  -16.2911 C   0  0  1  0  0  0  0  0  0  0  0  0
   18.5153   -7.2018  -15.2472 C   0  0  0  0  0  0  0  0  0  0  0  0
   17.5331   -6.1220  -15.4626 C   0  0  0  0  0  0  0  0  0  0  0  0
   17.5935   -4.7790  -15.1797 C   0  0  0  0  0  0  0  0  0  0  0  0
   16.4232   -4.2156  -15.5250 N   0  0  0  0  0  0  0  0  0  0  0  0
   15.6161   -5.1610  -16.0210 C   0  0  0  0  0  0  0  0  0  0  0  0
   16.2815   -6.3138  -15.9850 N   0  0  0  0  0  0  0  0  0  0  0  0
   20.3641   -5.9474  -16.1907 C   0  0  0  0  0  0  0  0  0  0  0  0
   19.8637   -4.6707  -16.5095 O   0  0  0  0  0  0  0  0  0  0  0  0
   21.5543   -5.9973  -15.8102 O   0  0  0  0  0  0  0  0  0  0  0  0
  2  1  1  1
  2  3  1  0
  3  4  1  0
  4  8  1  0
  5  4  2  0
  6  7  2  0
  6  2  1  0
  9  6  1  0
 10  9  1  0
 10 11  1  6
 12 13  2  0
 12 11  1  0
 14 17  1  0
 14 10  1  0
 15 14  2  0
 16 12  1  0
 18 17  1  0
 18 25  1  0
 18 19  1  1
 20 19  1  0
 21 20  2  0
 22 21  1  0
 23 22  1  0
 23 24  2  0
 24 20  1  0
 25 27  2  0
 25 26  1  0
M  END
$$$$
