DDH.pdb
     RDKit          3D

 27 27  0  0  1  0  0  0  0  0999 V2000
   20.7590  -26.3675  -15.5560 N   0  0  0  0  0  0  0  0  0  0  0  0
   20.6057  -27.0409  -14.3037 C   0  0  1  0  0  0  0  0  0  0  0  0
   21.9791  -27.6720  -14.0119 C   0  0  0  0  0  0  0  0  0  0  0  0
   22.0567  -28.8849  -14.8609 C   0  0  0  0  0  0  0  0  0  0  0  0
   22.5589  -28.7445  -15.9998 O   0  0  0  0  0  0  0  0  0  0  0  0
   20.1698  -26.1953  -13.1876 C   0  0  0  0  0  0  0  0  0  0  0  0
   21.0367  -25.6625  -12.4309 O   0  0  0  0  0  0  0  0  0  0  0  0
   21.6003  -30.0980  -14.4115 O   0  0  0  0  0  0  0  0  0  0  0  0
   18.8208  -25.9141  -12.8714 N   0  0  0  0  0  0  0  0  0  0  0  0
   18.4585  -25.0525  -11.7301 C   0  0  1  0  0  0  0  0  0  0  0  0
   17.4343  -24.0929  -12.1944 C   0  0  0  0  0  0  0  0  0  0  0  0
   17.9066  -22.9222  -12.9381 C   0  0  0  0  0  0  0  0  0  0  0  0
   18.5999  -22.0830  -12.2980 O   0  0  0  0  0  0  0  0  0  0  0  0
   18.0566  -25.9334  -10.6042 C   0  0  0  0  0  0  0  0  0  0  0  0
   17.4068  -26.9978  -10.7456 O   0  0  0  0  0  0  0  0  0  0  0  0
   17.6563  -22.6711  -14.2593 O   0  0  0  0  0  0  0  0  0  0  0  0
   18.3944  -25.6121   -9.2649 N   0  0  0  0  0  0  0  0  0  0  0  0
   18.0383  -26.3994   -8.1009 C   0  0  1  0  0  0  0  0  0  0  0  0
   18.6590  -25.9180   -6.8543 C   0  0  0  0  0  0  0  0  0  0  0  0
   18.1745  -26.6924   -5.6957 C   0  0  0  0  0  0  0  0  0  0  0  0
   17.1571  -27.6090   -5.5859 C   0  0  0  0  0  0  0  0  0  0  0  0
   17.0769  -28.0086   -4.3052 N   0  0  0  0  0  0  0  0  0  0  0  0
   18.0149  -27.3730   -3.5928 C   0  0  0  0  0  0  0  0  0  0  0  0
   18.6799  -26.5769   -4.4277 N   0  0  0  0  0  0  0  0  0  0  0  0
   16.5660  -26.3402   -8.0045 C   0  0  0  0  0  0  0  0  0  0  0  0
   15.7832  -27.4113   -7.5334 O   0  0  0  0  0  0  0  0  0  0  0  0
   15.9465  -25.3097   -8.3483 O   0  0  0  0  0  0  0  0  0  0  0  0
  2  1  1  6
  2  3  1  0
  3  4  1  0
  4  8  1  0
  5  4  2  0
  6  7  2  0
  6  2  1  0
  9  6  1  0
 10  9  1  0
 10 11  1  6
 12 13  2  0
 12 11  1  0
 14 17  1  0
 14 10  1  0
 15 14  2  0
 16 12  1  0
 18 17  1  0
 18 25  1  0
 18 19  1  1
 20 19  1  0
 21 20  2  0
 22 21  1  0
 23 22  1  0
 23 24  2  0
 24 20  1  0
 25 27  2  0
 25 26  1  0
M  END
$$$$
