DDH.pdb
     RDKit          3D

 27 27  0  0  1  0  0  0  0  0999 V2000
   16.6178   -9.8992  -11.0001 N   0  0  0  0  0  0  0  0  0  0  0  0
   16.0177   -9.0084  -11.9443 C   0  0  1  0  0  0  0  0  0  0  0  0
   15.2844   -7.9531  -11.0967 C   0  0  0  0  0  0  0  0  0  0  0  0
   14.0374   -8.6042  -10.6284 C   0  0  0  0  0  0  0  0  0  0  0  0
   13.6441   -9.6008  -11.2773 O   0  0  0  0  0  0  0  0  0  0  0  0
   16.9475   -8.3723  -12.8833 C   0  0  0  0  0  0  0  0  0  0  0  0
   18.1426   -8.7896  -12.9593 O   0  0  0  0  0  0  0  0  0  0  0  0
   13.3559   -8.1325   -9.5354 O   0  0  0  0  0  0  0  0  0  0  0  0
   16.6154   -7.2972  -13.7393 N   0  0  0  0  0  0  0  0  0  0  0  0
   17.5643   -6.7931  -14.7500 C   0  0  1  0  0  0  0  0  0  0  0  0
   16.7790   -6.1853  -15.8451 C   0  0  0  0  0  0  0  0  0  0  0  0
   15.9967   -7.0935  -16.6876 C   0  0  0  0  0  0  0  0  0  0  0  0
   14.8090   -6.7500  -16.9449 O   0  0  0  0  0  0  0  0  0  0  0  0
   18.5237   -5.8910  -14.0639 C   0  0  0  0  0  0  0  0  0  0  0  0
   18.2408   -5.2104  -13.0481 O   0  0  0  0  0  0  0  0  0  0  0  0
   16.4497   -8.2734  -17.2112 O   0  0  0  0  0  0  0  0  0  0  0  0
   19.8543   -5.7428  -14.5317 N   0  0  0  0  0  0  0  0  0  0  0  0
   20.8714   -4.9168  -13.9117 C   0  0  1  0  0  0  0  0  0  0  0  0
   22.2450   -5.3807  -14.1745 C   0  0  0  0  0  0  0  0  0  0  0  0
   22.3897   -6.8084  -13.8312 C   0  0  0  0  0  0  0  0  0  0  0  0
   22.0117   -7.5090  -12.7115 C   0  0  0  0  0  0  0  0  0  0  0  0
   22.4038   -8.7867  -12.8531 N   0  0  0  0  0  0  0  0  0  0  0  0
   23.0220   -8.9227  -14.0324 C   0  0  0  0  0  0  0  0  0  0  0  0
   23.0164   -7.7310  -14.6264 N   0  0  0  0  0  0  0  0  0  0  0  0
   20.6719   -3.5551  -14.4469 C   0  0  0  0  0  0  0  0  0  0  0  0
   21.3446   -2.4255  -13.9436 O   0  0  0  0  0  0  0  0  0  0  0  0
   19.8762   -3.3522  -15.3900 O   0  0  0  0  0  0  0  0  0  0  0  0
  2  1  1  1
  2  3  1  0
  3  4  1  0
  4  8  1  0
  5  4  2  0
  6  7  2  0
  6  2  1  0
  9  6  1  0
 10  9  1  0
 10 11  1  6
 12 13  2  0
 12 11  1  0
 14 17  1  0
 14 10  1  0
 15 14  2  0
 16 12  1  0
 18 17  1  0
 18 25  1  0
 18 19  1  6
 20 19  1  0
 21 20  2  0
 22 21  1  0
 23 22  1  0
 23 24  2  0
 24 20  1  0
 25 27  2  0
 25 26  1  0
M  END
$$$$
