DDH.pdb
     RDKit          3D

 27 27  0  0  1  0  0  0  0  0999 V2000
   14.3851   -9.8172  -13.5000 N   0  0  0  0  0  0  0  0  0  0  0  0
   15.7286   -9.7620  -13.0130 C   0  0  1  0  0  0  0  0  0  0  0  0
   16.5681  -10.5274  -14.0518 C   0  0  0  0  0  0  0  0  0  0  0  0
   16.1091  -11.9356  -13.9861 C   0  0  0  0  0  0  0  0  0  0  0  0
   16.1157  -12.4784  -12.8572 O   0  0  0  0  0  0  0  0  0  0  0  0
   16.2620   -8.4127  -12.7996 C   0  0  0  0  0  0  0  0  0  0  0  0
   15.9487   -7.4821  -13.6021 O   0  0  0  0  0  0  0  0  0  0  0  0
   15.6967  -12.6027  -15.1116 O   0  0  0  0  0  0  0  0  0  0  0  0
   17.1254   -8.0478  -11.7411 N   0  0  0  0  0  0  0  0  0  0  0  0
   17.6335   -6.6703  -11.5987 C   0  0  1  0  0  0  0  0  0  0  0  0
   17.5425   -6.2995  -10.1706 C   0  0  0  0  0  0  0  0  0  0  0  0
   16.2010   -6.0827   -9.6227 C   0  0  0  0  0  0  0  0  0  0  0  0
   15.9052   -6.7194   -8.5731 O   0  0  0  0  0  0  0  0  0  0  0  0
   18.9930   -6.6226  -12.1943 C   0  0  0  0  0  0  0  0  0  0  0  0
   19.9781   -7.2549  -11.7416 O   0  0  0  0  0  0  0  0  0  0  0  0
   15.2539   -5.2520  -10.1560 O   0  0  0  0  0  0  0  0  0  0  0  0
   19.2634   -5.8359  -13.3428 N   0  0  0  0  0  0  0  0  0  0  0  0
   20.5383   -5.7698  -14.0296 C   0  0  1  0  0  0  0  0  0  0  0  0
   20.5777   -6.5613  -15.2717 C   0  0  0  0  0  0  0  0  0  0  0  0
   20.5593   -8.0059  -14.9723 C   0  0  0  0  0  0  0  0  0  0  0  0
   21.5786   -8.8783  -14.6768 C   0  0  0  0  0  0  0  0  0  0  0  0
   21.0589  -10.1083  -14.5243 N   0  0  0  0  0  0  0  0  0  0  0  0
   19.7355  -10.0468  -14.7140 C   0  0  0  0  0  0  0  0  0  0  0  0
   19.4290   -8.7797  -14.9852 N   0  0  0  0  0  0  0  0  0  0  0  0
   20.7720   -4.3404  -14.3171 C   0  0  0  0  0  0  0  0  0  0  0  0
   22.0213   -3.8319  -14.7203 O   0  0  0  0  0  0  0  0  0  0  0  0
   19.8440   -3.5092  -14.2081 O   0  0  0  0  0  0  0  0  0  0  0  0
  2  1  1  6
  2  3  1  0
  3  4  1  0
  4  8  1  0
  5  4  2  0
  6  7  2  0
  6  2  1  0
  9  6  1  0
 10  9  1  0
 10 11  1  1
 12 13  2  0
 12 11  1  0
 14 17  1  0
 14 10  1  0
 15 14  2  0
 16 12  1  0
 18 17  1  0
 18 25  1  0
 18 19  1  6
 20 19  1  0
 21 20  2  0
 22 21  1  0
 23 22  1  0
 23 24  2  0
 24 20  1  0
 25 27  2  0
 25 26  1  0
M  END
$$$$
