DDH.pdb
     RDKit          3D

 27 27  0  0  1  0  0  0  0  0999 V2000
   27.1315   -7.5865  -17.7487 N   0  0  0  0  0  0  0  0  0  0  0  0
   25.9363   -6.8524  -18.0278 C   0  0  1  0  0  0  0  0  0  0  0  0
   26.2920   -5.9331  -19.2102 C   0  0  0  0  0  0  0  0  0  0  0  0
   27.2930   -4.9715  -18.6894 C   0  0  0  0  0  0  0  0  0  0  0  0
   28.4615   -5.3983  -18.5428 O   0  0  0  0  0  0  0  0  0  0  0  0
   24.7575   -7.6690  -18.3352 C   0  0  0  0  0  0  0  0  0  0  0  0
   23.7335   -7.1221  -18.8452 O   0  0  0  0  0  0  0  0  0  0  0  0
   26.9476   -3.6786  -18.3878 O   0  0  0  0  0  0  0  0  0  0  0  0
   24.6610   -9.0604  -18.1032 N   0  0  0  0  0  0  0  0  0  0  0  0
   23.4612   -9.8264  -18.4902 C   0  0  1  0  0  0  0  0  0  0  0  0
   23.8498  -11.2480  -18.6070 C   0  0  0  0  0  0  0  0  0  0  0  0
   24.7048  -11.6141  -19.7390 C   0  0  0  0  0  0  0  0  0  0  0  0
   25.5994  -12.4783  -19.5205 O   0  0  0  0  0  0  0  0  0  0  0  0
   22.3920   -9.5268  -17.5042 C   0  0  0  0  0  0  0  0  0  0  0  0
   22.5818   -9.4563  -16.2656 O   0  0  0  0  0  0  0  0  0  0  0  0
   24.6095  -11.0964  -21.0017 O   0  0  0  0  0  0  0  0  0  0  0  0
   21.0555   -9.2965  -17.9187 N   0  0  0  0  0  0  0  0  0  0  0  0
   19.9458   -8.9979  -17.0352 C   0  0  1  0  0  0  0  0  0  0  0  0
   18.8248   -8.3195  -17.7092 C   0  0  0  0  0  0  0  0  0  0  0  0
   17.6969   -8.1223  -16.7787 C   0  0  0  0  0  0  0  0  0  0  0  0
   17.6058   -7.4016  -15.6126 C   0  0  0  0  0  0  0  0  0  0  0  0
   16.3742   -7.5684  -15.1012 N   0  0  0  0  0  0  0  0  0  0  0  0
   15.6750   -8.3757  -15.9079 C   0  0  0  0  0  0  0  0  0  0  0  0
   16.4694   -8.7131  -16.9218 N   0  0  0  0  0  0  0  0  0  0  0  0
   19.5091  -10.2937  -16.4780 C   0  0  0  0  0  0  0  0  0  0  0  0
   19.1646  -10.4713  -15.1245 O   0  0  0  0  0  0  0  0  0  0  0  0
   19.4292  -11.3060  -17.2079 O   0  0  0  0  0  0  0  0  0  0  0  0
  2  1  1  6
  2  3  1  0
  3  4  1  0
  4  8  1  0
  5  4  2  0
  6  7  2  0
  6  2  1  0
  9  6  1  0
 10  9  1  0
 10 11  1  1
 12 13  2  0
 12 11  1  0
 14 17  1  0
 14 10  1  0
 15 14  2  0
 16 12  1  0
 18 17  1  0
 18 25  1  0
 18 19  1  6
 20 19  1  0
 21 20  2  0
 22 21  1  0
 23 22  1  0
 23 24  2  0
 24 20  1  0
 25 27  2  0
 25 26  1  0
M  END
$$$$
