RCW.pdb
     RDKit          3D

 32 33  0  0  1  0  0  0  0  0999 V2000
   13.7155  -19.4895   13.6454 N   0  0  0  0  0  0  0  0  0  0  0  0
   13.5027  -20.6116   14.4567 C   0  0  0  0  0  0  0  0  0  0  0  0
   14.0533  -21.7649   14.1655 N   0  0  0  0  0  0  0  0  0  0  0  0
   12.6865  -20.5434   15.6228 N   0  0  0  0  0  0  0  0  0  0  0  0
   12.1324  -19.3111   16.0999 C   0  0  0  0  0  0  0  0  0  0  0  0
   11.2309  -19.4287   17.2893 C   0  0  0  0  0  0  0  0  0  0  0  0
   10.7722  -18.1244   17.8446 C   0  0  0  0  0  0  0  0  0  0  0  0
    9.8707  -18.3364   19.0693 C   0  0  2  0  0  0  0  0  0  0  0  0
    8.8033  -19.2134   18.6482 N   0  0  0  0  0  0  0  0  0  0  0  0
    9.3401  -17.0071   19.4661 C   0  0  0  0  0  0  0  0  0  0  0  0
    8.7328  -16.2718   18.6471 O   0  0  0  0  0  0  0  0  0  0  0  0
   13.9158  -22.5345   14.8454 N   0  0  0  0  0  0  0  0  0  0  0  0
    9.5151  -16.5319   20.8135 C   0  0  1  0  0  0  0  0  0  0  0  0
    8.6902  -15.4718   21.3828 C   0  0  0  0  0  0  0  0  0  0  0  0
    7.2490  -15.8855   21.3424 S   0  0  0  0  0  0  0  0  0  0  0  0
    6.2901  -14.5432   22.1409 C   0  0  0  0  0  0  0  0  0  0  0  0
    9.1609  -15.2755   22.7858 O   0  0  0  0  0  0  0  0  0  0  0  0
    9.5057  -14.1190   23.2085 N   0  0  0  0  0  0  0  0  0  0  0  0
    9.2623  -16.3118   23.7332 C   0  0  1  0  0  0  0  0  0  0  0  0
   10.0582  -16.1851   24.9312 C   0  0  0  0  0  0  0  0  0  0  0  0
    9.2285  -16.2726   26.1869 C   0  0  0  0  0  0  0  0  0  0  0  0
    7.9933  -15.4955   26.1517 C   0  0  0  0  0  0  0  0  0  0  0  0
    6.7174  -15.9478   25.9382 N   0  0  0  0  0  0  0  0  0  0  0  0
    5.8899  -14.8985   25.9899 C   0  0  0  0  0  0  0  0  0  0  0  0
    6.5879  -13.7751   26.2307 C   0  0  0  0  0  0  0  0  0  0  0  0
    6.2242  -12.4389   26.3763 C   0  0  0  0  0  0  0  0  0  0  0  0
    7.1735  -11.4783   26.6226 C   0  0  0  0  0  0  0  0  0  0  0  0
    8.5041  -11.8152   26.7309 C   0  0  0  0  0  0  0  0  0  0  0  0
    8.8457  -13.1366   26.5848 C   0  0  0  0  0  0  0  0  0  0  0  0
    7.9150  -14.1330   26.3355 C   0  0  0  0  0  0  0  0  0  0  0  0
   11.0568  -17.3059   25.0289 O   0  0  0  0  0  0  0  0  0  0  0  0
   11.0516  -18.2519   24.2099 O   0  0  0  0  0  0  0  0  0  0  0  0
  1  2  1  0
  2  3  2  0
  4  5  1  0
  4  2  1  0
  6  5  1  0
  7  6  1  0
  8 10  1  0
  8  7  1  0
  8  9  1  6
 10 11  2  0
 12 13  1  0
 12 10  1  0
 13 16  1  0
 13 14  1  6
 15 14  1  0
 16 17  2  0
 18 16  1  0
 18 19  1  0
 19 30  1  0
 19 20  1  1
 21 29  1  0
 21 20  1  0
 22 21  2  0
 23 22  1  0
 23 24  1  0
 24 25  1  0
 24 29  2  0
 25 26  2  0
 26 27  1  0
 28 27  2  0
 29 28  1  0
 30 31  2  0
 30 32  1  0
M  END
$$$$
