RCW.pdb
     RDKit          3D

 32 33  0  0  1  0  0  0  0  0999 V2000
    8.3203  -14.8992   14.8369 N   0  0  0  0  0  0  0  0  0  0  0  0
    8.0181  -13.9644   15.8356 C   0  0  0  0  0  0  0  0  0  0  0  0
    8.2550  -12.6880   15.6546 N   0  0  0  0  0  0  0  0  0  0  0  0
    7.4438  -14.3614   17.0779 N   0  0  0  0  0  0  0  0  0  0  0  0
    7.2676  -13.4480   18.1678 C   0  0  0  0  0  0  0  0  0  0  0  0
    8.2901  -13.5414   19.2574 C   0  0  0  0  0  0  0  0  0  0  0  0
    8.0668  -14.6600   20.2160 C   0  0  0  0  0  0  0  0  0  0  0  0
    9.0520  -15.8089   19.9572 C   0  0  2  0  0  0  0  0  0  0  0  0
    8.6325  -16.4427   18.7292 N   0  0  0  0  0  0  0  0  0  0  0  0
    8.9487  -16.7494   21.1021 C   0  0  0  0  0  0  0  0  0  0  0  0
    8.3892  -17.8688   20.9834 O   0  0  0  0  0  0  0  0  0  0  0  0
    8.6221  -12.4067   14.7275 N   0  0  0  0  0  0  0  0  0  0  0  0
    9.4946  -16.3896   22.3846 C   0  0  1  0  0  0  0  0  0  0  0  0
    9.5206  -17.3156   23.5116 C   0  0  0  0  0  0  0  0  0  0  0  0
   10.3122  -18.5335   23.1380 S   0  0  0  0  0  0  0  0  0  0  0  0
   11.8992  -17.9401   22.4395 C   0  0  0  0  0  0  0  0  0  0  0  0
   10.1532  -16.5827   24.6479 O   0  0  0  0  0  0  0  0  0  0  0  0
   11.1264  -15.7769   24.4510 N   0  0  0  0  0  0  0  0  0  0  0  0
    9.7466  -16.7107   25.9895 C   0  0  1  0  0  0  0  0  0  0  0  0
   10.4438  -16.0566   27.0716 C   0  0  0  0  0  0  0  0  0  0  0  0
    9.5570  -15.1111   27.8412 C   0  0  0  0  0  0  0  0  0  0  0  0
    8.3067  -14.7714   27.1688 C   0  0  0  0  0  0  0  0  0  0  0  0
    7.3095  -15.6192   26.7627 N   0  0  0  0  0  0  0  0  0  0  0  0
    6.3475  -14.8865   26.1914 C   0  0  0  0  0  0  0  0  0  0  0  0
    6.6873  -13.5861   26.2128 C   0  0  0  0  0  0  0  0  0  0  0  0
    6.0595  -12.4285   25.7603 C   0  0  0  0  0  0  0  0  0  0  0  0
    6.6552  -11.2019   25.9186 C   0  0  0  0  0  0  0  0  0  0  0  0
    7.8849  -11.0901   26.5278 C   0  0  0  0  0  0  0  0  0  0  0  0
    8.4902  -12.2407   26.9682 C   0  0  0  0  0  0  0  0  0  0  0  0
    7.9190  -13.4955   26.8253 C   0  0  0  0  0  0  0  0  0  0  0  0
   10.9299  -17.0631   28.0784 O   0  0  0  0  0  0  0  0  0  0  0  0
   10.6416  -18.2762   27.9732 O   0  0  0  0  0  0  0  0  0  0  0  0
  1  2  1  0
  2  3  2  0
  4  5  1  0
  4  2  1  0
  6  5  1  0
  7  6  1  0
  8 10  1  0
  8  7  1  0
  8  9  1  6
 10 11  2  0
 12 13  1  0
 12 10  1  0
 13 16  1  0
 13 14  1  6
 15 14  1  0
 16 17  2  0
 18 16  1  0
 18 19  1  0
 19 30  1  0
 19 20  1  1
 21 29  1  0
 21 20  1  0
 22 21  2  0
 23 22  1  0
 23 24  1  0
 24 25  1  0
 24 29  2  0
 25 26  2  0
 26 27  1  0
 28 27  2  0
 29 28  1  0
 30 31  2  0
 30 32  1  0
M  END
$$$$
