RCW.pdb
     RDKit          3D

 32 33  0  0  1  0  0  0  0  0999 V2000
    7.9049  -12.2509   16.3853 N   0  0  0  0  0  0  0  0  0  0  0  0
    8.0190  -13.4505   15.6706 C   0  0  0  0  0  0  0  0  0  0  0  0
    7.6605  -13.5188   14.4117 N   0  0  0  0  0  0  0  0  0  0  0  0
    8.5271  -14.6345   16.2794 N   0  0  0  0  0  0  0  0  0  0  0  0
    9.1474  -14.6270   17.5710 C   0  0  0  0  0  0  0  0  0  0  0  0
    8.2455  -14.2861   18.7162 C   0  0  0  0  0  0  0  0  0  0  0  0
    7.4597  -15.4368   19.2438 C   0  0  0  0  0  0  0  0  0  0  0  0
    8.3676  -16.6473   19.5046 C   0  0  2  0  0  0  0  0  0  0  0  0
    7.9757  -17.6673   18.5603 N   0  0  0  0  0  0  0  0  0  0  0  0
    8.1233  -17.0937   20.8999 C   0  0  0  0  0  0  0  0  0  0  0  0
    6.9605  -17.3103   21.3256 O   0  0  0  0  0  0  0  0  0  0  0  0
    7.9468  -14.3661   13.8886 N   0  0  0  0  0  0  0  0  0  0  0  0
    9.2292  -17.2882   21.8007 C   0  0  1  0  0  0  0  0  0  0  0  0
    9.0669  -17.8865   23.1213 C   0  0  0  0  0  0  0  0  0  0  0  0
    9.5860  -19.2935   23.0983 S   0  0  0  0  0  0  0  0  0  0  0  0
   11.3425  -19.2017   22.5839 C   0  0  0  0  0  0  0  0  0  0  0  0
    9.8433  -17.0354   24.0706 O   0  0  0  0  0  0  0  0  0  0  0  0
   10.9334  -16.4730   23.7097 N   0  0  0  0  0  0  0  0  0  0  0  0
    9.4553  -16.7864   25.4008 C   0  0  1  0  0  0  0  0  0  0  0  0
   10.3488  -16.1892   26.3649 C   0  0  0  0  0  0  0  0  0  0  0  0
    9.7712  -14.9473   26.9949 C   0  0  0  0  0  0  0  0  0  0  0  0
    8.3809  -14.6791   26.6399 C   0  0  0  0  0  0  0  0  0  0  0  0
    7.3687  -15.5833   26.4504 N   0  0  0  0  0  0  0  0  0  0  0  0
    6.2585  -14.9058   26.1386 C   0  0  0  0  0  0  0  0  0  0  0  0
    6.5163  -13.5867   26.1189 C   0  0  0  0  0  0  0  0  0  0  0  0
    5.7331  -12.4655   25.8578 C   0  0  0  0  0  0  0  0  0  0  0  0
    6.2754  -11.2054   25.9102 C   0  0  0  0  0  0  0  0  0  0  0  0
    7.6042  -11.0236   26.2217 C   0  0  0  0  0  0  0  0  0  0  0  0
    8.3624  -12.1391   26.4764 C   0  0  0  0  0  0  0  0  0  0  0  0
    7.8491  -13.4259   26.4327 C   0  0  0  0  0  0  0  0  0  0  0  0
   10.6121  -17.1345   27.5050 O   0  0  0  0  0  0  0  0  0  0  0  0
   11.4594  -16.8671   28.3863 O   0  0  0  0  0  0  0  0  0  0  0  0
  1  2  1  0
  2  3  2  0
  4  5  1  0
  4  2  1  0
  6  5  1  0
  7  6  1  0
  8 10  1  0
  8  7  1  0
  8  9  1  6
 10 11  2  0
 12 13  1  0
 12 10  1  0
 13 16  1  0
 13 14  1  6
 15 14  1  0
 16 17  2  0
 18 16  1  0
 18 19  1  0
 19 30  1  0
 19 20  1  1
 21 29  1  0
 21 20  1  0
 22 21  2  0
 23 22  1  0
 23 24  1  0
 24 25  1  0
 24 29  2  0
 25 26  2  0
 26 27  1  0
 28 27  2  0
 29 28  1  0
 30 31  2  0
 30 32  1  0
M  END
$$$$
