RCW.pdb
     RDKit          3D

 32 33  0  0  1  0  0  0  0  0999 V2000
    9.6109  -15.1131   14.0980 N   0  0  0  0  0  0  0  0  0  0  0  0
    9.5759  -16.3241   14.8017 C   0  0  0  0  0  0  0  0  0  0  0  0
   10.2200  -17.3766   14.3594 N   0  0  0  0  0  0  0  0  0  0  0  0
    8.8454  -16.4578   16.0179 N   0  0  0  0  0  0  0  0  0  0  0  0
    8.1754  -15.3519   16.6355 C   0  0  0  0  0  0  0  0  0  0  0  0
    9.0191  -14.5159   17.5467 C   0  0  0  0  0  0  0  0  0  0  0  0
    9.0047  -14.9526   18.9712 C   0  0  0  0  0  0  0  0  0  0  0  0
    7.8314  -14.3143   19.7285 C   0  0  2  0  0  0  0  0  0  0  0  0
    7.7691  -12.9351   19.3048 N   0  0  0  0  0  0  0  0  0  0  0  0
    8.1339  -14.4107   21.1794 C   0  0  0  0  0  0  0  0  0  0  0  0
    8.9338  -13.6173   21.7371 O   0  0  0  0  0  0  0  0  0  0  0  0
   10.1296  -18.2477   14.9130 N   0  0  0  0  0  0  0  0  0  0  0  0
    7.5079  -15.4284   21.9822 C   0  0  2  0  0  0  0  0  0  0  0  0
    7.7835  -15.5811   23.4067 C   0  0  0  0  0  0  0  0  0  0  0  0
    6.5789  -16.1586   24.0885 S   0  0  0  0  0  0  0  0  0  0  0  0
    6.7178  -17.9812   23.9554 C   0  0  0  0  0  0  0  0  0  0  0  0
    8.9600  -16.4935   23.5154 O   0  0  0  0  0  0  0  0  0  0  0  0
    9.5059  -16.9907   22.4714 N   0  0  0  0  0  0  0  0  0  0  0  0
    9.5508  -16.8725   24.7357 C   0  0  1  0  0  0  0  0  0  0  0  0
   10.8282  -17.5426   24.7978 C   0  0  0  0  0  0  0  0  0  0  0  0
   11.8318  -16.7945   25.6380 C   0  0  0  0  0  0  0  0  0  0  0  0
   11.3795  -16.4880   26.9916 C   0  0  0  0  0  0  0  0  0  0  0  0
   11.5208  -17.2504   28.1215 N   0  0  0  0  0  0  0  0  0  0  0  0
   10.9620  -16.5901   29.1416 C   0  0  0  0  0  0  0  0  0  0  0  0
   10.4603  -15.4198   28.7107 C   0  0  0  0  0  0  0  0  0  0  0  0
    9.7899  -14.3777   29.3458 C   0  0  0  0  0  0  0  0  0  0  0  0
    9.3817  -13.2742   28.6385 C   0  0  0  0  0  0  0  0  0  0  0  0
    9.6262  -13.1744   27.2872 C   0  0  0  0  0  0  0  0  0  0  0  0
   10.2881  -14.2103   26.6763 C   0  0  0  0  0  0  0  0  0  0  0  0
   10.7147  -15.3391   27.3582 C   0  0  0  0  0  0  0  0  0  0  0  0
   10.6904  -18.8945   25.4429 O   0  0  0  0  0  0  0  0  0  0  0  0
   10.9664  -19.9425   24.8171 O   0  0  0  0  0  0  0  0  0  0  0  0
  1  2  1  0
  2  3  2  0
  4  5  1  0
  4  2  1  0
  6  5  1  0
  7  6  1  0
  8 10  1  0
  8  7  1  0
  8  9  1  6
 10 11  2  0
 12 13  1  0
 12 10  1  0
 13 16  1  0
 13 14  1  6
 15 14  1  0
 16 17  2  0
 18 16  1  0
 18 19  1  0
 19 30  1  0
 19 20  1  1
 21 29  1  0
 21 20  1  0
 22 21  2  0
 23 22  1  0
 23 24  1  0
 24 25  1  0
 24 29  2  0
 25 26  2  0
 26 27  1  0
 28 27  2  0
 29 28  1  0
 30 31  2  0
 30 32  1  0
M  END
$$$$
