RCW.pdb
     RDKit          3D

 32 33  0  0  1  0  0  0  0  0999 V2000
    7.6425  -13.7062   16.3966 N   0  0  0  0  0  0  0  0  0  0  0  0
    8.0922  -13.3822   17.6832 C   0  0  0  0  0  0  0  0  0  0  0  0
    7.9461  -12.1701   18.1603 N   0  0  0  0  0  0  0  0  0  0  0  0
    8.7203  -14.3510   18.5185 N   0  0  0  0  0  0  0  0  0  0  0  0
    8.0665  -14.9180   19.6606 C   0  0  0  0  0  0  0  0  0  0  0  0
    6.6281  -15.2831   19.4633 C   0  0  0  0  0  0  0  0  0  0  0  0
    6.3572  -16.7481   19.4835 C   0  0  0  0  0  0  0  0  0  0  0  0
    7.4247  -17.4920   20.2986 C   0  0  2  0  0  0  0  0  0  0  0  0
    7.4592  -18.8451   19.7949 N   0  0  0  0  0  0  0  0  0  0  0  0
    6.9964  -17.4658   21.7206 C   0  0  0  0  0  0  0  0  0  0  0  0
    5.7846  -17.5547   22.0427 O   0  0  0  0  0  0  0  0  0  0  0  0
    8.1894  -12.0266   19.1570 N   0  0  0  0  0  0  0  0  0  0  0  0
    7.9754  -17.3360   22.7680 C   0  0  1  0  0  0  0  0  0  0  0  0
    7.6258  -17.4270   24.1814 C   0  0  0  0  0  0  0  0  0  0  0  0
    6.9676  -18.7481   24.4482 S   0  0  0  0  0  0  0  0  0  0  0  0
    6.7295  -18.8647   26.2616 C   0  0  0  0  0  0  0  0  0  0  0  0
    8.9023  -17.2911   24.9434 O   0  0  0  0  0  0  0  0  0  0  0  0
    9.9009  -18.0501   24.6951 N   0  0  0  0  0  0  0  0  0  0  0  0
    9.1102  -16.3471   25.9667 C   0  0  1  0  0  0  0  0  0  0  0  0
   10.3974  -16.1618   26.5940 C   0  0  0  0  0  0  0  0  0  0  0  0
   10.5662  -14.7775   27.1666 C   0  0  0  0  0  0  0  0  0  0  0  0
    9.3151  -14.0640   27.4042 C   0  0  0  0  0  0  0  0  0  0  0  0
    8.6559  -13.8890   28.5929 N   0  0  0  0  0  0  0  0  0  0  0  0
    7.5513  -13.1736   28.3548 C   0  0  0  0  0  0  0  0  0  0  0  0
    7.4702  -12.8767   27.0462 C   0  0  0  0  0  0  0  0  0  0  0  0
    6.5431  -12.1709   26.2839 C   0  0  0  0  0  0  0  0  0  0  0  0
    6.7183  -12.0220   24.9305 C   0  0  0  0  0  0  0  0  0  0  0  0
    7.8136  -12.5668   24.2986 C   0  0  0  0  0  0  0  0  0  0  0  0
    8.7180  -13.2594   25.0644 C   0  0  0  0  0  0  0  0  0  0  0  0
    8.5736  -13.4300   26.4324 C   0  0  0  0  0  0  0  0  0  0  0  0
   10.5644  -17.1020   27.7564 O   0  0  0  0  0  0  0  0  0  0  0  0
    9.6083  -17.7933   28.1734 O   0  0  0  0  0  0  0  0  0  0  0  0
  1  2  1  0
  2  3  2  0
  4  5  1  0
  4  2  1  0
  6  5  1  0
  7  6  1  0
  8 10  1  0
  8  7  1  0
  8  9  1  6
 10 11  2  0
 12 13  1  0
 12 10  1  0
 13 16  1  0
 13 14  1  1
 15 14  1  0
 16 17  2  0
 18 16  1  0
 18 19  1  0
 19 30  1  0
 19 20  1  1
 21 29  1  0
 21 20  1  0
 22 21  2  0
 23 22  1  0
 23 24  1  0
 24 25  1  0
 24 29  2  0
 25 26  2  0
 26 27  1  0
 28 27  2  0
 29 28  1  0
 30 31  2  0
 30 32  1  0
M  END
$$$$
