RCW.pdb
     RDKit          3D

 32 33  0  0  1  0  0  0  0  0999 V2000
   14.0595  -17.1014   16.8332 N   0  0  0  0  0  0  0  0  0  0  0  0
   13.4602  -17.6431   15.6886 C   0  0  0  0  0  0  0  0  0  0  0  0
   13.9469  -18.7199   15.1214 N   0  0  0  0  0  0  0  0  0  0  0  0
   12.3052  -17.0500   15.1012 N   0  0  0  0  0  0  0  0  0  0  0  0
   11.2065  -16.5701   15.8859 C   0  0  0  0  0  0  0  0  0  0  0  0
   11.4609  -16.4732   17.3580 C   0  0  0  0  0  0  0  0  0  0  0  0
   10.3205  -15.9244   18.1443 C   0  0  0  0  0  0  0  0  0  0  0  0
    9.2079  -16.9709   18.3001 C   0  0  2  0  0  0  0  0  0  0  0  0
    8.2611  -16.7270   17.2372 N   0  0  0  0  0  0  0  0  0  0  0  0
    8.5802  -16.7579   19.6292 C   0  0  0  0  0  0  0  0  0  0  0  0
    8.0208  -15.6715   19.9242 O   0  0  0  0  0  0  0  0  0  0  0  0
   13.4090  -19.1160   14.3294 N   0  0  0  0  0  0  0  0  0  0  0  0
    8.6025  -17.8062   20.6154 C   0  0  2  0  0  0  0  0  0  0  0  0
    7.9508  -17.6731   21.9139 C   0  0  0  0  0  0  0  0  0  0  0  0
    7.2255  -18.9447   22.2404 S   0  0  0  0  0  0  0  0  0  0  0  0
    6.5461  -18.7478   23.9310 C   0  0  0  0  0  0  0  0  0  0  0  0
    9.0322  -17.3935   22.9043 O   0  0  0  0  0  0  0  0  0  0  0  0
   10.1974  -17.9020   22.7675 N   0  0  0  0  0  0  0  0  0  0  0  0
    8.8682  -16.5732   24.0365 C   0  0  1  0  0  0  0  0  0  0  0  0
    9.9319  -16.3508   24.9872 C   0  0  0  0  0  0  0  0  0  0  0  0
    9.7454  -15.0788   25.7745 C   0  0  0  0  0  0  0  0  0  0  0  0
    8.3533  -14.7345   26.0475 C   0  0  0  0  0  0  0  0  0  0  0  0
    7.3226  -15.5785   26.3690 N   0  0  0  0  0  0  0  0  0  0  0  0
    6.2186  -14.8423   26.5359 C   0  0  0  0  0  0  0  0  0  0  0  0
    6.4983  -13.5433   26.3327 C   0  0  0  0  0  0  0  0  0  0  0  0
    5.7291  -12.3835   26.3778 C   0  0  0  0  0  0  0  0  0  0  0  0
    6.2933  -11.1592   26.1184 C   0  0  0  0  0  0  0  0  0  0  0  0
    7.6305  -11.0519   25.8084 C   0  0  0  0  0  0  0  0  0  0  0  0
    8.3746  -12.2047   25.7681 C   0  0  0  0  0  0  0  0  0  0  0  0
    7.8392  -13.4573   26.0240 C   0  0  0  0  0  0  0  0  0  0  0  0
    9.9739  -17.4546   26.0084 O   0  0  0  0  0  0  0  0  0  0  0  0
    9.0358  -18.2761   26.1137 O   0  0  0  0  0  0  0  0  0  0  0  0
  1  2  1  0
  2  3  2  0
  4  5  1  0
  4  2  1  0
  6  5  1  0
  7  6  1  0
  8 10  1  0
  8  7  1  0
  8  9  1  6
 10 11  2  0
 12 13  1  0
 12 10  1  0
 13 16  1  0
 13 14  1  6
 15 14  1  0
 16 17  2  0
 18 16  1  0
 18 19  1  0
 19 30  1  0
 19 20  1  1
 21 29  1  0
 21 20  1  0
 22 21  2  0
 23 22  1  0
 23 24  1  0
 24 25  1  0
 24 29  2  0
 25 26  2  0
 26 27  1  0
 28 27  2  0
 29 28  1  0
 30 31  2  0
 30 32  1  0
M  END
$$$$
