RCW.pdb
     RDKit          3D

 32 33  0  0  1  0  0  0  0  0999 V2000
    9.4220  -13.2415   14.8371 N   0  0  0  0  0  0  0  0  0  0  0  0
    8.0268  -13.3518   14.7744 C   0  0  0  0  0  0  0  0  0  0  0  0
    7.4004  -13.3039   13.6239 N   0  0  0  0  0  0  0  0  0  0  0  0
    7.2395  -13.5208   15.9501 N   0  0  0  0  0  0  0  0  0  0  0  0
    7.8199  -13.5867   17.2586 C   0  0  0  0  0  0  0  0  0  0  0  0
    8.8329  -14.6706   17.4594 C   0  0  0  0  0  0  0  0  0  0  0  0
    9.3732  -14.7581   18.8452 C   0  0  0  0  0  0  0  0  0  0  0  0
    9.5718  -16.2217   19.2649 C   0  0  2  0  0  0  0  0  0  0  0  0
    9.0992  -17.0328   18.1674 N   0  0  0  0  0  0  0  0  0  0  0  0
    8.7539  -16.4494   20.4836 C   0  0  0  0  0  0  0  0  0  0  0  0
    7.5314  -16.7326   20.4101 O   0  0  0  0  0  0  0  0  0  0  0  0
    6.3789  -13.4762   13.6393 N   0  0  0  0  0  0  0  0  0  0  0  0
    9.3559  -16.3477   21.7873 C   0  0  1  0  0  0  0  0  0  0  0  0
    8.6837  -16.8080   22.9976 C   0  0  0  0  0  0  0  0  0  0  0  0
    8.2266  -18.2236   22.8063 S   0  0  0  0  0  0  0  0  0  0  0  0
    8.5083  -19.0906   24.3962 C   0  0  0  0  0  0  0  0  0  0  0  0
    9.6817  -16.7029   24.1028 O   0  0  0  0  0  0  0  0  0  0  0  0
   10.5856  -17.5935   24.2602 N   0  0  0  0  0  0  0  0  0  0  0  0
    9.7132  -15.6494   25.0359 C   0  0  2  0  0  0  0  0  0  0  0  0
   10.1958  -15.8292   26.3848 C   0  0  0  0  0  0  0  0  0  0  0  0
    9.1002  -15.6972   27.4119 C   0  0  0  0  0  0  0  0  0  0  0  0
    7.8651  -15.1052   26.9069 C   0  0  0  0  0  0  0  0  0  0  0  0
    6.7189  -15.7477   26.5177 N   0  0  0  0  0  0  0  0  0  0  0  0
    5.8366  -14.8228   26.1243 C   0  0  0  0  0  0  0  0  0  0  0  0
    6.3732  -13.5962   26.2450 C   0  0  0  0  0  0  0  0  0  0  0  0
    5.8954  -12.3156   25.9792 C   0  0  0  0  0  0  0  0  0  0  0  0
    6.6838  -11.2142   26.2024 C   0  0  0  0  0  0  0  0  0  0  0  0
    7.9627  -11.3521   26.6934 C   0  0  0  0  0  0  0  0  0  0  0  0
    8.4185  -12.6212   26.9502 C   0  0  0  0  0  0  0  0  0  0  0  0
    7.6511  -13.7556   26.7370 C   0  0  0  0  0  0  0  0  0  0  0  0
   10.7577  -17.2122   26.5701 O   0  0  0  0  0  0  0  0  0  0  0  0
   10.6511  -18.0804   25.6753 O   0  0  0  0  0  0  0  0  0  0  0  0
  1  2  1  0
  2  3  2  0
  4  5  1  0
  4  2  1  0
  6  5  1  0
  7  6  1  0
  8 10  1  0
  8  7  1  0
  8  9  1  6
 10 11  2  0
 12 13  1  0
 12 10  1  0
 13 16  1  0
 13 14  1  1
 15 14  1  0
 16 17  2  0
 18 16  1  0
 18 19  1  0
 19 30  1  0
 19 20  1  6
 21 29  1  0
 21 20  1  0
 22 21  2  0
 23 22  1  0
 23 24  1  0
 24 25  1  0
 24 29  2  0
 25 26  2  0
 26 27  1  0
 28 27  2  0
 29 28  1  0
 30 31  2  0
 30 32  1  0
M  END
$$$$
