RCW.pdb
     RDKit          3D

 32 33  0  0  1  0  0  0  0  0999 V2000
    8.7451  -12.9971   12.2318 N   0  0  0  0  0  0  0  0  0  0  0  0
    8.8619  -14.0354   13.1651 C   0  0  0  0  0  0  0  0  0  0  0  0
    9.7845  -14.9570   13.0324 N   0  0  0  0  0  0  0  0  0  0  0  0
    7.9896  -14.1289   14.2881 N   0  0  0  0  0  0  0  0  0  0  0  0
    8.0061  -15.2498   15.1805 C   0  0  0  0  0  0  0  0  0  0  0  0
    9.2400  -15.3884   16.0169 C   0  0  0  0  0  0  0  0  0  0  0  0
    9.0628  -14.9981   17.4438 C   0  0  0  0  0  0  0  0  0  0  0  0
    9.6506  -16.0630   18.3808 C   0  0  2  0  0  0  0  0  0  0  0  0
    8.8584  -17.2565   18.1964 N   0  0  0  0  0  0  0  0  0  0  0  0
    9.5245  -15.5516   19.7695 C   0  0  0  0  0  0  0  0  0  0  0  0
   10.1429  -14.5253   20.1496 O   0  0  0  0  0  0  0  0  0  0  0  0
    9.7607  -15.7439   13.7059 N   0  0  0  0  0  0  0  0  0  0  0  0
    8.6806  -16.2323   20.7165 C   0  0  1  0  0  0  0  0  0  0  0  0
    8.6084  -15.8438   22.1208 C   0  0  0  0  0  0  0  0  0  0  0  0
    7.1975  -15.4657   22.4616 S   0  0  0  0  0  0  0  0  0  0  0  0
    6.2691  -17.0300   22.6846 C   0  0  0  0  0  0  0  0  0  0  0  0
    9.0611  -17.0262   22.9117 O   0  0  0  0  0  0  0  0  0  0  0  0
    8.4689  -18.1545   22.8060 N   0  0  0  0  0  0  0  0  0  0  0  0
   10.1431  -17.0022   23.8119 C   0  0  2  0  0  0  0  0  0  0  0  0
   10.0369  -16.4198   25.1288 C   0  0  0  0  0  0  0  0  0  0  0  0
    9.3465  -15.0797   25.1130 C   0  0  0  0  0  0  0  0  0  0  0  0
    9.1043  -14.5079   26.4340 C   0  0  0  0  0  0  0  0  0  0  0  0
    9.8235  -14.7051   27.5838 N   0  0  0  0  0  0  0  0  0  0  0  0
    9.2533  -13.9896   28.5592 C   0  0  0  0  0  0  0  0  0  0  0  0
    8.1834  -13.3316   28.0801 C   0  0  0  0  0  0  0  0  0  0  0  0
    7.2567  -12.4683   28.6586 C   0  0  0  0  0  0  0  0  0  0  0  0
    6.2393  -11.9303   27.9103 C   0  0  0  0  0  0  0  0  0  0  0  0
    6.1137  -12.2324   26.5729 C   0  0  0  0  0  0  0  0  0  0  0  0
    7.0355  -13.0849   26.0179 C   0  0  0  0  0  0  0  0  0  0  0  0
    8.0750  -13.6467   26.7424 C   0  0  0  0  0  0  0  0  0  0  0  0
    9.2063  -17.2906   26.0315 O   0  0  0  0  0  0  0  0  0  0  0  0
    8.1171  -17.7710   25.6459 O   0  0  0  0  0  0  0  0  0  0  0  0
  1  2  1  0
  2  3  2  0
  4  5  1  0
  4  2  1  0
  6  5  1  0
  7  6  1  0
  8 10  1  0
  8  7  1  0
  8  9  1  1
 10 11  2  0
 12 13  1  0
 12 10  1  0
 13 16  1  0
 13 14  1  1
 15 14  1  0
 16 17  2  0
 18 16  1  0
 18 19  1  0
 19 30  1  0
 19 20  1  6
 21 29  1  0
 21 20  1  0
 22 21  2  0
 23 22  1  0
 23 24  1  0
 24 25  1  0
 24 29  2  0
 25 26  2  0
 26 27  1  0
 28 27  2  0
 29 28  1  0
 30 31  2  0
 30 32  1  0
M  END
$$$$
