RCW.pdb
     RDKit          3D

 32 33  0  0  1  0  0  0  0  0999 V2000
   14.0041  -21.0402   20.6302 N   0  0  0  0  0  0  0  0  0  0  0  0
   13.4435  -22.1683   20.0170 C   0  0  0  0  0  0  0  0  0  0  0  0
   14.1950  -23.0204   19.3634 N   0  0  0  0  0  0  0  0  0  0  0  0
   12.0447  -22.4327   20.0808 N   0  0  0  0  0  0  0  0  0  0  0  0
   11.1256  -21.5459   20.7304 C   0  0  0  0  0  0  0  0  0  0  0  0
   11.0642  -20.1591   20.1699 C   0  0  0  0  0  0  0  0  0  0  0  0
   10.0900  -19.2622   20.8530 C   0  0  0  0  0  0  0  0  0  0  0  0
    9.3792  -18.3524   19.8409 C   0  0  2  0  0  0  0  0  0  0  0  0
    9.9706  -18.6283   18.5525 N   0  0  0  0  0  0  0  0  0  0  0  0
    9.6328  -16.9477   20.2514 C   0  0  0  0  0  0  0  0  0  0  0  0
   10.7432  -16.3947   20.0479 O   0  0  0  0  0  0  0  0  0  0  0  0
   13.7213  -23.8482   18.9587 N   0  0  0  0  0  0  0  0  0  0  0  0
    8.5970  -16.1856   20.8983 C   0  0  2  0  0  0  0  0  0  0  0  0
    8.7893  -14.8012   21.3167 C   0  0  0  0  0  0  0  0  0  0  0  0
    7.4740  -14.0815   21.2784 S   0  0  0  0  0  0  0  0  0  0  0  0
    6.2963  -15.0774   22.2684 C   0  0  0  0  0  0  0  0  0  0  0  0
    9.3429  -14.8502   22.7022 O   0  0  0  0  0  0  0  0  0  0  0  0
    9.7109  -13.7825   23.3019 N   0  0  0  0  0  0  0  0  0  0  0  0
    9.5021  -16.0362   23.4436 C   0  0  1  0  0  0  0  0  0  0  0  0
   10.0663  -16.0439   24.7727 C   0  0  0  0  0  0  0  0  0  0  0  0
    9.0783  -16.5001   25.8161 C   0  0  0  0  0  0  0  0  0  0  0  0
    7.8031  -15.7899   25.7937 C   0  0  0  0  0  0  0  0  0  0  0  0
    6.5744  -16.2731   25.4267 N   0  0  0  0  0  0  0  0  0  0  0  0
    5.6827  -15.2849   25.5573 C   0  0  0  0  0  0  0  0  0  0  0  0
    6.2932  -14.1715   25.9986 C   0  0  0  0  0  0  0  0  0  0  0  0
    5.8398  -12.8889   26.2953 C   0  0  0  0  0  0  0  0  0  0  0  0
    6.7100  -11.9243   26.7389 C   0  0  0  0  0  0  0  0  0  0  0  0
    8.0484  -12.2042   26.8999 C   0  0  0  0  0  0  0  0  0  0  0  0
    8.4791  -13.4734   26.6031 C   0  0  0  0  0  0  0  0  0  0  0  0
    7.6297  -14.4720   26.1530 C   0  0  0  0  0  0  0  0  0  0  0  0
   11.2171  -17.0090   24.8579 O   0  0  0  0  0  0  0  0  0  0  0  0
   11.5173  -17.7465   23.8926 O   0  0  0  0  0  0  0  0  0  0  0  0
  1  2  1  0
  2  3  2  0
  4  5  1  0
  4  2  1  0
  6  5  1  0
  7  6  1  0
  8 10  1  0
  8  7  1  0
  8  9  1  6
 10 11  2  0
 12 13  1  0
 12 10  1  0
 13 16  1  0
 13 14  1  6
 15 14  1  0
 16 17  2  0
 18 16  1  0
 18 19  1  0
 19 30  1  0
 19 20  1  1
 21 29  1  0
 21 20  1  0
 22 21  2  0
 23 22  1  0
 23 24  1  0
 24 25  1  0
 24 29  2  0
 25 26  2  0
 26 27  1  0
 28 27  2  0
 29 28  1  0
 30 31  2  0
 30 32  1  0
M  END
$$$$
