RCW.pdb
     RDKit          3D

 32 33  0  0  1  0  0  0  0  0999 V2000
   16.3151  -18.2740   17.6649 N   0  0  0  0  0  0  0  0  0  0  0  0
   15.9596  -19.5607   17.2398 C   0  0  0  0  0  0  0  0  0  0  0  0
   16.6898  -20.2032   16.3610 N   0  0  0  0  0  0  0  0  0  0  0  0
   14.7997  -20.2176   17.7436 N   0  0  0  0  0  0  0  0  0  0  0  0
   13.8564  -19.5597   18.5983 C   0  0  0  0  0  0  0  0  0  0  0  0
   13.6005  -18.1182   18.2852 C   0  0  0  0  0  0  0  0  0  0  0  0
   12.6857  -17.4342   19.2419 C   0  0  0  0  0  0  0  0  0  0  0  0
   11.3017  -18.0989   19.2478 C   0  0  2  0  0  0  0  0  0  0  0  0
   10.7665  -17.9482   17.9149 N   0  0  0  0  0  0  0  0  0  0  0  0
   10.4657  -17.3763   20.2402 C   0  0  0  0  0  0  0  0  0  0  0  0
   10.2712  -16.1372   20.1563 O   0  0  0  0  0  0  0  0  0  0  0  0
   16.3541  -21.1383   16.0672 N   0  0  0  0  0  0  0  0  0  0  0  0
    9.8562  -18.0925   21.3301 C   0  0  2  0  0  0  0  0  0  0  0  0
    8.9359  -17.4568   22.2667 C   0  0  0  0  0  0  0  0  0  0  0  0
    7.7754  -18.3715   22.5237 S   0  0  0  0  0  0  0  0  0  0  0  0
    8.4562  -19.8861   23.2991 C   0  0  0  0  0  0  0  0  0  0  0  0
    9.7126  -17.1991   23.5152 O   0  0  0  0  0  0  0  0  0  0  0  0
   10.8408  -17.7660   23.7173 N   0  0  0  0  0  0  0  0  0  0  0  0
    9.2847  -16.3382   24.5436 C   0  0  1  0  0  0  0  0  0  0  0  0
   10.0126  -16.1967   25.7825 C   0  0  0  0  0  0  0  0  0  0  0  0
    9.5046  -15.0525   26.6225 C   0  0  0  0  0  0  0  0  0  0  0  0
    8.0800  -14.7743   26.4684 C   0  0  0  0  0  0  0  0  0  0  0  0
    7.0419  -15.6689   26.4565 N   0  0  0  0  0  0  0  0  0  0  0  0
    5.9047  -14.9845   26.2919 C   0  0  0  0  0  0  0  0  0  0  0  0
    6.1700  -13.6702   26.1960 C   0  0  0  0  0  0  0  0  0  0  0  0
    5.3681  -12.5455   26.0205 C   0  0  0  0  0  0  0  0  0  0  0  0
    5.9249  -11.2923   25.9555 C   0  0  0  0  0  0  0  0  0  0  0  0
    7.2868  -11.1209   26.0626 C   0  0  0  0  0  0  0  0  0  0  0  0
    8.0631  -12.2398   26.2354 C   0  0  0  0  0  0  0  0  0  0  0  0
    7.5360  -13.5199   26.3053 C   0  0  0  0  0  0  0  0  0  0  0  0
    9.8554  -17.4249   26.6367 O   0  0  0  0  0  0  0  0  0  0  0  0
   10.5297  -17.5798   27.6794 O   0  0  0  0  0  0  0  0  0  0  0  0
  1  2  1  0
  2  3  2  0
  4  5  1  0
  4  2  1  0
  6  5  1  0
  7  6  1  0
  8 10  1  0
  8  7  1  0
  8  9  1  6
 10 11  2  0
 12 13  1  0
 12 10  1  0
 13 16  1  0
 13 14  1  6
 15 14  1  0
 16 17  2  0
 18 16  1  0
 18 19  1  0
 19 30  1  0
 19 20  1  1
 21 29  1  0
 21 20  1  0
 22 21  2  0
 23 22  1  0
 23 24  1  0
 24 25  1  0
 24 29  2  0
 25 26  2  0
 26 27  1  0
 28 27  2  0
 29 28  1  0
 30 31  2  0
 30 32  1  0
M  END
$$$$
