RWL.pdb
     RDKit          3D

 34 35  0  0  1  0  0  0  0  0999 V2000
   29.9453  -25.2354  -20.6446 N   0  0  0  0  0  0  0  0  0  0  0  0
   31.0204  -24.3468  -20.9298 C   0  0  0  0  0  0  0  0  0  0  0  0
   31.7976  -24.6591  -21.9091 N   0  0  0  0  0  0  0  0  0  0  0  0
   31.2273  -23.1750  -20.1737 N   0  0  0  0  0  0  0  0  0  0  0  0
   30.0658  -22.6588  -19.4201 C   0  0  0  0  0  0  0  0  0  0  0  0
   30.4926  -21.4488  -18.6446 C   0  0  0  0  0  0  0  0  0  0  0  0
   29.4315  -20.8539  -17.7740 C   0  0  0  0  0  0  0  0  0  0  0  0
   28.7007  -21.7793  -16.8670 C   0  0  2  0  0  0  0  0  0  0  0  0
   28.2838  -22.9499  -17.5582 N   0  0  0  0  0  0  0  0  0  0  0  0
   27.6000  -21.1146  -16.1229 C   0  0  0  0  0  0  0  0  0  0  0  0
   27.8690  -20.1524  -15.3538 O   0  0  0  0  0  0  0  0  0  0  0  0
   32.6147  -24.0637  -22.1226 N   0  0  0  0  0  0  0  0  0  0  0  0
   26.2309  -21.4889  -16.2122 C   0  0  1  0  0  0  0  0  0  0  0  0
   25.2057  -20.7886  -15.4752 C   0  0  0  0  0  0  0  0  0  0  0  0
   23.9581  -20.5422  -16.2997 C   0  0  0  0  0  0  0  0  0  0  0  0
   23.0176  -19.6660  -15.5782 C   0  0  0  0  0  0  0  0  0  0  0  0
   23.1173  -18.3094  -15.3084 N   0  0  0  0  0  0  0  0  0  0  0  0
   22.0355  -17.9183  -14.6296 C   0  0  0  0  0  0  0  0  0  0  0  0
   21.1991  -18.9419  -14.4214 C   0  0  0  0  0  0  0  0  0  0  0  0
   19.9804  -19.0438  -13.7864 C   0  0  0  0  0  0  0  0  0  0  0  0
   19.3622  -20.2757  -13.7462 C   0  0  0  0  0  0  0  0  0  0  0  0
   19.9437  -21.3973  -14.3285 C   0  0  0  0  0  0  0  0  0  0  0  0
   21.1737  -21.2793  -14.9654 C   0  0  0  0  0  0  0  0  0  0  0  0
   21.7963  -20.0383  -15.0060 C   0  0  0  0  0  0  0  0  0  0  0  0
   24.7897  -21.4893  -14.2516 O   0  0  0  0  0  0  0  0  0  0  0  0
   24.4947  -22.7076  -14.3356 C   0  0  0  0  0  0  0  0  0  0  0  0
   27.3042  -20.3189   -9.8043 C   0  0  1  0  0  0  0  0  0  0  0  0
   25.9319  -20.2662  -10.4137 C   0  0  0  0  0  0  0  0  0  0  0  0
   25.0110  -19.5713   -9.4334 C   0  0  0  0  0  0  0  0  0  0  0  0
   25.3518  -21.6091  -10.7076 C   0  0  1  0  0  0  0  0  0  0  0  0
   24.2805  -21.6005  -11.7672 N   0  0  0  0  0  0  0  0  0  0  0  0
   24.6911  -20.8992  -12.9633 C   0  0  0  0  0  0  0  0  0  0  0  0
   23.1137  -20.8940  -11.1971 O   0  0  0  0  0  0  0  0  0  0  0  0
   22.4448  -21.4601  -10.3020 O   0  0  0  0  0  0  0  0  0  0  0  0
  2  1  1  0
  2  4  1  0
  3  2  2  0
  5  4  1  0
  6  5  1  0
  7  6  1  0
  8  7  1  0
  8  9  1  6
 10  8  1  0
 10 11  2  0
 12 10  1  0
 13 12  1  0
 13 14  1  6
 15 14  1  0
 16 15  2  0
 17 16  1  0
 18 17  1  0
 18 23  2  0
 19 20  2  0
 19 18  1  0
 20 21  1  0
 21 22  2  0
 23 22  1  0
 23 15  1  0
 24 13  1  0
 25 24  2  0
 27 26  1  6
 27 29  1  0
 28 27  1  0
 30 29  1  6
 30 31  1  0
 30 32  1  0
 31 24  1  0
 32 34  1  0
 33 32  2  0
M  END
$$$$
