RWL.pdb
     RDKit          3D

 34 35  0  0  1  0  0  0  0  0999 V2000
   29.3450  -26.8180  -16.7662 N   0  0  0  0  0  0  0  0  0  0  0  0
   27.9803  -27.1825  -16.5886 C   0  0  0  0  0  0  0  0  0  0  0  0
   27.7358  -28.4044  -16.2602 N   0  0  0  0  0  0  0  0  0  0  0  0
   26.9397  -26.2477  -16.7647 N   0  0  0  0  0  0  0  0  0  0  0  0
   27.2513  -25.0548  -17.5791 C   0  0  0  0  0  0  0  0  0  0  0  0
   27.9225  -24.0368  -16.7070 C   0  0  0  0  0  0  0  0  0  0  0  0
   27.0066  -23.0094  -16.1209 C   0  0  0  0  0  0  0  0  0  0  0  0
   25.9926  -22.4083  -17.0284 C   0  0  2  0  0  0  0  0  0  0  0  0
   26.6146  -21.6884  -18.0851 N   0  0  0  0  0  0  0  0  0  0  0  0
   24.9634  -21.6168  -16.3062 C   0  0  0  0  0  0  0  0  0  0  0  0
   25.1706  -20.3932  -16.0839 O   0  0  0  0  0  0  0  0  0  0  0  0
   26.7589  -28.7398  -16.2313 N   0  0  0  0  0  0  0  0  0  0  0  0
   23.7308  -22.1455  -15.8332 C   0  0  2  0  0  0  0  0  0  0  0  0
   22.8098  -21.3436  -15.0629 C   0  0  0  0  0  0  0  0  0  0  0  0
   21.4632  -21.1870  -15.7403 C   0  0  0  0  0  0  0  0  0  0  0  0
   21.5446  -20.2221  -16.8517 C   0  0  0  0  0  0  0  0  0  0  0  0
   21.9169  -20.4359  -18.1703 N   0  0  0  0  0  0  0  0  0  0  0  0
   21.8454  -19.2808  -18.8373 C   0  0  0  0  0  0  0  0  0  0  0  0
   21.4419  -18.2857  -18.0389 C   0  0  0  0  0  0  0  0  0  0  0  0
   21.2187  -16.9428  -18.2525 C   0  0  0  0  0  0  0  0  0  0  0  0
   20.7955  -16.1708  -17.1913 C   0  0  0  0  0  0  0  0  0  0  0  0
   20.5946  -16.7213  -15.9296 C   0  0  0  0  0  0  0  0  0  0  0  0
   20.8241  -18.0777  -15.7291 C   0  0  0  0  0  0  0  0  0  0  0  0
   21.2503  -18.8553  -16.7982 C   0  0  0  0  0  0  0  0  0  0  0  0
   22.5621  -21.8777  -13.7158 O   0  0  0  0  0  0  0  0  0  0  0  0
   22.0038  -22.9986  -13.6144 C   0  0  0  0  0  0  0  0  0  0  0  0
   25.1527  -20.0554  -11.6086 C   0  0  1  0  0  0  0  0  0  0  0  0
   24.5102  -20.3581  -10.2847 C   0  0  0  0  0  0  0  0  0  0  0  0
   25.6010  -20.4099   -9.2361 C   0  0  0  0  0  0  0  0  0  0  0  0
   23.7863  -21.6624  -10.2512 C   0  0  1  0  0  0  0  0  0  0  0  0
   22.6034  -21.7362  -11.1816 N   0  0  0  0  0  0  0  0  0  0  0  0
   22.9046  -21.2263  -12.5009 C   0  0  0  0  0  0  0  0  0  0  0  0
   21.5385  -20.8949  -10.5951 O   0  0  0  0  0  0  0  0  0  0  0  0
   21.1969  -19.8498  -11.1954 O   0  0  0  0  0  0  0  0  0  0  0  0
  2  1  1  0
  2  4  1  0
  3  2  2  0
  5  4  1  0
  6  5  1  0
  7  6  1  0
  8  7  1  0
  8  9  1  6
 10  8  1  0
 10 11  2  0
 12 10  1  0
 13 12  1  0
 13 14  1  6
 15 14  1  0
 16 15  2  0
 17 16  1  0
 18 17  1  0
 18 23  2  0
 19 20  2  0
 19 18  1  0
 20 21  1  0
 21 22  2  0
 23 22  1  0
 23 15  1  0
 24 13  1  0
 25 24  2  0
 27 26  1  1
 27 29  1  0
 28 27  1  0
 30 29  1  6
 30 31  1  0
 30 32  1  0
 31 24  1  0
 32 34  1  0
 33 32  2  0
M  END
$$$$
