RWL.pdb
     RDKit          3D

 34 35  0  0  1  0  0  0  0  0999 V2000
   30.0486  -21.9788  -19.6825 N   0  0  0  0  0  0  0  0  0  0  0  0
   29.7126  -20.6077  -19.8670 C   0  0  0  0  0  0  0  0  0  0  0  0
   30.0681  -20.0593  -20.9777 N   0  0  0  0  0  0  0  0  0  0  0  0
   29.0209  -19.8796  -18.8775 N   0  0  0  0  0  0  0  0  0  0  0  0
   28.4525  -20.6583  -17.7577 C   0  0  0  0  0  0  0  0  0  0  0  0
   26.9647  -20.7316  -17.9270 C   0  0  0  0  0  0  0  0  0  0  0  0
   26.2494  -21.5102  -16.8686 C   0  0  0  0  0  0  0  0  0  0  0  0
   27.0838  -22.1470  -15.8145 C   0  0  2  0  0  0  0  0  0  0  0  0
   27.4495  -23.4710  -16.1819 N   0  0  0  0  0  0  0  0  0  0  0  0
   26.4760  -22.0607  -14.4616 C   0  0  0  0  0  0  0  0  0  0  0  0
   25.4420  -22.7353  -14.2062 O   0  0  0  0  0  0  0  0  0  0  0  0
   29.8979  -19.0511  -21.1270 N   0  0  0  0  0  0  0  0  0  0  0  0
   26.9823  -21.2550  -13.4047 C   0  0  2  0  0  0  0  0  0  0  0  0
   26.2388  -21.0549  -12.1833 C   0  0  0  0  0  0  0  0  0  0  0  0
   26.9517  -20.1395  -11.2083 C   0  0  0  0  0  0  0  0  0  0  0  0
   26.2274  -20.0734   -9.9261 C   0  0  0  0  0  0  0  0  0  0  0  0
   24.8610  -20.0225   -9.6949 N   0  0  0  0  0  0  0  0  0  0  0  0
   24.6422  -19.9746   -8.3781 C   0  0  0  0  0  0  0  0  0  0  0  0
   25.7932  -19.9902   -7.6959 C   0  0  0  0  0  0  0  0  0  0  0  0
   26.0869  -19.9580   -6.3499 C   0  0  0  0  0  0  0  0  0  0  0  0
   27.4109  -19.9887   -5.9661 C   0  0  0  0  0  0  0  0  0  0  0  0
   28.4359  -20.0506   -6.9046 C   0  0  0  0  0  0  0  0  0  0  0  0
   28.1244  -20.0823   -8.2590 C   0  0  0  0  0  0  0  0  0  0  0  0
   26.7906  -20.0516   -8.6455 C   0  0  0  0  0  0  0  0  0  0  0  0
   24.8971  -20.4969  -12.4058 O   0  0  0  0  0  0  0  0  0  0  0  0
   24.8032  -19.2876  -12.7332 C   0  0  0  0  0  0  0  0  0  0  0  0
   21.5799  -19.9706  -15.4395 C   0  0  2  0  0  0  0  0  0  0  0  0
   21.8949  -21.3289  -14.8799 C   0  0  0  0  0  0  0  0  0  0  0  0
   21.1071  -22.3538  -15.6680 C   0  0  0  0  0  0  0  0  0  0  0  0
   21.5322  -21.4861  -13.4412 C   0  0  2  0  0  0  0  0  0  0  0  0
   22.3652  -20.6551  -12.5000 N   0  0  0  0  0  0  0  0  0  0  0  0
   23.6794  -21.2174  -12.2809 C   0  0  0  0  0  0  0  0  0  0  0  0
   21.6549  -20.6266  -11.2038 O   0  0  0  0  0  0  0  0  0  0  0  0
   20.6379  -19.9042  -11.0896 O   0  0  0  0  0  0  0  0  0  0  0  0
  2  1  1  0
  2  4  1  0
  3  2  2  0
  5  4  1  0
  6  5  1  0
  7  6  1  0
  8  7  1  0
  8  9  1  6
 10  8  1  0
 10 11  2  0
 12 10  1  0
 13 12  1  0
 13 14  1  1
 15 14  1  0
 16 15  2  0
 17 16  1  0
 18 17  1  0
 18 23  2  0
 19 20  2  0
 19 18  1  0
 20 21  1  0
 21 22  2  0
 23 22  1  0
 23 15  1  0
 24 13  1  0
 25 24  2  0
 27 26  1  6
 27 29  1  0
 28 27  1  0
 30 29  1  6
 30 31  1  0
 30 32  1  0
 31 24  1  0
 32 34  1  0
 33 32  2  0
M  END
$$$$
