RWL.pdb
     RDKit          3D

 34 35  0  0  1  0  0  0  0  0999 V2000
   33.7689  -26.2502  -17.3090 N   0  0  0  0  0  0  0  0  0  0  0  0
   33.6499  -25.8682  -15.9427 C   0  0  0  0  0  0  0  0  0  0  0  0
   34.6166  -26.1931  -15.1548 N   0  0  0  0  0  0  0  0  0  0  0  0
   32.5230  -25.1650  -15.4703 N   0  0  0  0  0  0  0  0  0  0  0  0
   31.3971  -25.0068  -16.4141 C   0  0  0  0  0  0  0  0  0  0  0  0
   31.5279  -23.6822  -17.1038 C   0  0  0  0  0  0  0  0  0  0  0  0
   30.5210  -22.6560  -16.6902 C   0  0  0  0  0  0  0  0  0  0  0  0
   29.1110  -22.8829  -17.1068 C   0  0  2  0  0  0  0  0  0  0  0  0
   28.9891  -22.8777  -18.5235 N   0  0  0  0  0  0  0  0  0  0  0  0
   28.1521  -21.9703  -16.4326 C   0  0  0  0  0  0  0  0  0  0  0  0
   28.4817  -20.7703  -16.2299 O   0  0  0  0  0  0  0  0  0  0  0  0
   34.5512  -25.9714  -14.1477 N   0  0  0  0  0  0  0  0  0  0  0  0
   26.8579  -22.3546  -15.9856 C   0  0  2  0  0  0  0  0  0  0  0  0
   25.9175  -21.3876  -15.4706 C   0  0  0  0  0  0  0  0  0  0  0  0
   24.6878  -21.2449  -16.3450 C   0  0  0  0  0  0  0  0  0  0  0  0
   23.7643  -20.2388  -15.7904 C   0  0  0  0  0  0  0  0  0  0  0  0
   24.0432  -18.9735  -15.2960 N   0  0  0  0  0  0  0  0  0  0  0  0
   22.9050  -18.3995  -14.8972 C   0  0  0  0  0  0  0  0  0  0  0  0
   21.8593  -19.2108  -15.0946 C   0  0  0  0  0  0  0  0  0  0  0  0
   20.5093  -19.0777  -14.8525 C   0  0  0  0  0  0  0  0  0  0  0  0
   19.6771  -20.1272  -15.1800 C   0  0  0  0  0  0  0  0  0  0  0  0
   20.1749  -21.2984  -15.7419 C   0  0  0  0  0  0  0  0  0  0  0  0
   21.5392  -21.4184  -15.9803 C   0  0  0  0  0  0  0  0  0  0  0  0
   22.3775  -20.3610  -15.6505 C   0  0  0  0  0  0  0  0  0  0  0  0
   25.4532  -21.6973  -14.1106 O   0  0  0  0  0  0  0  0  0  0  0  0
   25.1134  -22.8791  -13.8534 C   0  0  0  0  0  0  0  0  0  0  0  0
   27.2383  -21.9802  -10.0210 C   0  0  1  0  0  0  0  0  0  0  0  0
   26.9654  -20.5749  -10.4770 C   0  0  0  0  0  0  0  0  0  0  0  0
   27.5175  -19.6284   -9.4322 C   0  0  0  0  0  0  0  0  0  0  0  0
   25.5152  -20.2679  -10.6464 C   0  0  2  0  0  0  0  0  0  0  0  0
   24.8376  -21.0659  -11.7301 N   0  0  0  0  0  0  0  0  0  0  0  0
   25.3543  -20.7620  -13.0461 C   0  0  0  0  0  0  0  0  0  0  0  0
   23.4047  -20.7028  -11.7032 O   0  0  0  0  0  0  0  0  0  0  0  0
   22.9559  -19.9535  -12.6011 O   0  0  0  0  0  0  0  0  0  0  0  0
  2  1  1  0
  2  4  1  0
  3  2  2  0
  5  4  1  0
  6  5  1  0
  7  6  1  0
  8  7  1  0
  8  9  1  6
 10  8  1  0
 10 11  2  0
 12 10  1  0
 13 12  1  0
 13 14  1  6
 15 14  1  0
 16 15  2  0
 17 16  1  0
 18 17  1  0
 18 23  2  0
 19 20  2  0
 19 18  1  0
 20 21  1  0
 21 22  2  0
 23 22  1  0
 23 15  1  0
 24 13  1  0
 25 24  2  0
 27 26  1  6
 27 29  1  0
 28 27  1  0
 30 29  1  1
 30 31  1  0
 30 32  1  0
 31 24  1  0
 32 34  1  0
 33 32  2  0
M  END
$$$$
