RWL.pdb
     RDKit          3D

 34 35  0  0  1  0  0  0  0  0999 V2000
   31.0642  -22.7451  -18.8574 N   0  0  0  0  0  0  0  0  0  0  0  0
   29.7228  -23.1691  -19.0756 C   0  0  0  0  0  0  0  0  0  0  0  0
   29.4994  -23.9043  -20.1101 N   0  0  0  0  0  0  0  0  0  0  0  0
   28.6823  -22.8008  -18.1985 N   0  0  0  0  0  0  0  0  0  0  0  0
   29.0011  -21.7716  -17.1873 C   0  0  0  0  0  0  0  0  0  0  0  0
   29.0006  -22.4107  -15.8312 C   0  0  0  0  0  0  0  0  0  0  0  0
   27.6733  -22.4199  -15.1412 C   0  0  0  0  0  0  0  0  0  0  0  0
   27.2407  -21.1562  -14.4864 C   0  0  2  0  0  0  0  0  0  0  0  0
   28.2535  -20.1621  -14.5736 N   0  0  0  0  0  0  0  0  0  0  0  0
   26.7381  -21.3612  -13.1035 C   0  0  0  0  0  0  0  0  0  0  0  0
   25.7244  -22.0873  -12.9173 O   0  0  0  0  0  0  0  0  0  0  0  0
   28.5342  -24.2049  -20.3243 N   0  0  0  0  0  0  0  0  0  0  0  0
   27.3262  -20.7869  -11.9429 C   0  0  1  0  0  0  0  0  0  0  0  0
   26.7016  -20.8958  -10.6457 C   0  0  0  0  0  0  0  0  0  0  0  0
   27.6007  -20.4197   -9.5223 C   0  0  0  0  0  0  0  0  0  0  0  0
   26.9427  -20.5941   -8.2148 C   0  0  0  0  0  0  0  0  0  0  0  0
   25.7261  -21.1910   -7.9204 N   0  0  0  0  0  0  0  0  0  0  0  0
   25.5185  -21.1328   -6.6022 C   0  0  0  0  0  0  0  0  0  0  0  0
   26.5346  -20.5246   -5.9791 C   0  0  0  0  0  0  0  0  0  0  0  0
   26.7822  -20.2287   -4.6562 C   0  0  0  0  0  0  0  0  0  0  0  0
   27.9552  -19.5775   -4.3378 C   0  0  0  0  0  0  0  0  0  0  0  0
   28.8754  -19.2216   -5.3184 C   0  0  0  0  0  0  0  0  0  0  0  0
   28.6119  -19.5264   -6.6489 C   0  0  0  0  0  0  0  0  0  0  0  0
   27.4304  -20.1826   -6.9696 C   0  0  0  0  0  0  0  0  0  0  0  0
   25.4409  -20.1464  -10.5441 O   0  0  0  0  0  0  0  0  0  0  0  0
   25.4995  -18.8951  -10.4480 C   0  0  0  0  0  0  0  0  0  0  0  0
   23.6349  -21.1594  -13.2552 C   0  0  1  0  0  0  0  0  0  0  0  0
   22.4660  -20.2445  -13.0232 C   0  0  0  0  0  0  0  0  0  0  0  0
   22.2605  -19.4209  -14.2768 C   0  0  0  0  0  0  0  0  0  0  0  0
   22.6585  -19.2987  -11.8854 C   0  0  1  0  0  0  0  0  0  0  0  0
   22.9086  -19.9701  -10.5599 N   0  0  0  0  0  0  0  0  0  0  0  0
   24.1430  -20.7233  -10.5454 C   0  0  0  0  0  0  0  0  0  0  0  0
   21.7919  -20.9123  -10.3346 O   0  0  0  0  0  0  0  0  0  0  0  0
   22.0138  -22.1420  -10.4226 O   0  0  0  0  0  0  0  0  0  0  0  0
  2  1  1  0
  2  4  1  0
  3  2  2  0
  5  4  1  0
  6  5  1  0
  7  6  1  0
  8  7  1  0
  8  9  1  1
 10  8  1  0
 10 11  2  0
 12 10  1  0
 13 12  1  0
 13 14  1  1
 15 14  1  0
 16 15  2  0
 17 16  1  0
 18 17  1  0
 18 23  2  0
 19 20  2  0
 19 18  1  0
 20 21  1  0
 21 22  2  0
 23 22  1  0
 23 15  1  0
 24 13  1  0
 25 24  2  0
 27 26  1  6
 27 29  1  0
 28 27  1  0
 30 29  1  1
 30 31  1  0
 30 32  1  0
 31 24  1  0
 32 34  1  0
 33 32  2  0
M  END
$$$$
