RWL.pdb
     RDKit          3D

 34 35  0  0  1  0  0  0  0  0999 V2000
   15.4027  -22.3922   -2.3394 N   0  0  0  0  0  0  0  0  0  0  0  0
   14.3238  -23.2218   -1.9216 C   0  0  0  0  0  0  0  0  0  0  0  0
   13.6978  -23.8780   -2.8371 N   0  0  0  0  0  0  0  0  0  0  0  0
   13.9546  -23.3216   -0.5646 N   0  0  0  0  0  0  0  0  0  0  0  0
   14.9697  -22.9168    0.4299 C   0  0  0  0  0  0  0  0  0  0  0  0
   14.4138  -23.1380    1.8045 C   0  0  0  0  0  0  0  0  0  0  0  0
   15.3656  -22.8477    2.9215 C   0  0  0  0  0  0  0  0  0  0  0  0
   14.9994  -21.7504    3.8568 C   0  0  2  0  0  0  0  0  0  0  0  0
   13.7017  -21.2451    3.5693 N   0  0  0  0  0  0  0  0  0  0  0  0
   16.0359  -20.6895    3.9417 C   0  0  0  0  0  0  0  0  0  0  0  0
   17.2390  -21.0167    4.1286 O   0  0  0  0  0  0  0  0  0  0  0  0
   12.8624  -24.4326   -2.5873 N   0  0  0  0  0  0  0  0  0  0  0  0
   15.7700  -19.2971    3.8264 C   0  0  1  0  0  0  0  0  0  0  0  0
   16.8278  -18.3168    3.8953 C   0  0  0  0  0  0  0  0  0  0  0  0
   16.4312  -16.9854    3.2897 C   0  0  0  0  0  0  0  0  0  0  0  0
   17.6114  -16.1221    3.1033 C   0  0  0  0  0  0  0  0  0  0  0  0
   18.8413  -16.4310    2.5421 N   0  0  0  0  0  0  0  0  0  0  0  0
   19.6200  -15.3461    2.5718 C   0  0  0  0  0  0  0  0  0  0  0  0
   18.9826  -14.3086    3.1264 C   0  0  0  0  0  0  0  0  0  0  0  0
   19.3525  -13.0050    3.3773 C   0  0  0  0  0  0  0  0  0  0  0  0
   18.4368  -12.1669    3.9777 C   0  0  0  0  0  0  0  0  0  0  0  0
   17.1665  -12.6133    4.3272 C   0  0  0  0  0  0  0  0  0  0  0  0
   16.8075  -13.9310    4.0681 C   0  0  0  0  0  0  0  0  0  0  0  0
   17.7299  -14.7752    3.4632 C   0  0  0  0  0  0  0  0  0  0  0  0
   17.2865  -18.0539    5.2671 O   0  0  0  0  0  0  0  0  0  0  0  0
   16.4354  -18.0678    6.1911 C   0  0  0  0  0  0  0  0  0  0  0  0
   22.5523  -17.2402    8.6021 C   0  0  1  0  0  0  0  0  0  0  0  0
   21.0561  -17.3551    8.5290 C   0  0  0  0  0  0  0  0  0  0  0  0
   20.6221  -18.4365    9.4956 C   0  0  0  0  0  0  0  0  0  0  0  0
   20.5461  -17.7242    7.1763 C   0  0  2  0  0  0  0  0  0  0  0  0
   19.0649  -17.5145    6.9963 N   0  0  0  0  0  0  0  0  0  0  0  0
   18.6287  -17.7814    5.6437 C   0  0  0  0  0  0  0  0  0  0  0  0
   18.7895  -16.0935    7.2967 O   0  0  0  0  0  0  0  0  0  0  0  0
   18.8158  -15.7137    8.4902 O   0  0  0  0  0  0  0  0  0  0  0  0
  2  1  1  0
  2  4  1  0
  3  2  2  0
  5  4  1  0
  6  5  1  0
  7  6  1  0
  8  7  1  0
  8  9  1  6
 10  8  1  0
 10 11  2  0
 12 10  1  0
 13 12  1  0
 13 14  1  6
 15 14  1  0
 16 15  2  0
 17 16  1  0
 18 17  1  0
 18 23  2  0
 19 20  2  0
 19 18  1  0
 20 21  1  0
 21 22  2  0
 23 22  1  0
 23 15  1  0
 24 13  1  0
 25 24  2  0
 27 26  1  1
 27 29  1  0
 28 27  1  0
 30 29  1  1
 30 31  1  0
 30 32  1  0
 31 24  1  0
 32 34  1  0
 33 32  2  0
M  END
$$$$
