RWL.pdb
     RDKit          3D

 34 35  0  0  1  0  0  0  0  0999 V2000
   26.2497  -26.6732  -18.5476 N   0  0  0  0  0  0  0  0  0  0  0  0
   25.3850  -26.1359  -17.5525 C   0  0  0  0  0  0  0  0  0  0  0  0
   24.9449  -26.9488  -16.6546 N   0  0  0  0  0  0  0  0  0  0  0  0
   25.0244  -24.7729  -17.5485 N   0  0  0  0  0  0  0  0  0  0  0  0
   25.7074  -23.9039  -18.5291 C   0  0  0  0  0  0  0  0  0  0  0  0
   27.1649  -23.8394  -18.1843 C   0  0  0  0  0  0  0  0  0  0  0  0
   27.6187  -22.5329  -17.6141 C   0  0  0  0  0  0  0  0  0  0  0  0
   28.2887  -22.5685  -16.2864 C   0  0  2  0  0  0  0  0  0  0  0  0
   29.0824  -23.7398  -16.1453 N   0  0  0  0  0  0  0  0  0  0  0  0
   27.3486  -22.3577  -15.1556 C   0  0  0  0  0  0  0  0  0  0  0  0
   26.8511  -23.3589  -14.5728 O   0  0  0  0  0  0  0  0  0  0  0  0
   24.2369  -26.6248  -15.9752 N   0  0  0  0  0  0  0  0  0  0  0  0
   26.9552  -21.0815  -14.6667 C   0  0  1  0  0  0  0  0  0  0  0  0
   26.1499  -20.9429  -13.4763 C   0  0  0  0  0  0  0  0  0  0  0  0
   26.6008  -19.7946  -12.5959 C   0  0  0  0  0  0  0  0  0  0  0  0
   27.6440  -20.2358  -11.6526 C   0  0  0  0  0  0  0  0  0  0  0  0
   28.9394  -20.6559  -11.9146 N   0  0  0  0  0  0  0  0  0  0  0  0
   29.5413  -20.9611  -10.7620 C   0  0  0  0  0  0  0  0  0  0  0  0
   28.7205  -20.7703   -9.7226 C   0  0  0  0  0  0  0  0  0  0  0  0
   28.8723  -20.9394   -8.3634 C   0  0  0  0  0  0  0  0  0  0  0  0
   27.8045  -20.6451   -7.5421 C   0  0  0  0  0  0  0  0  0  0  0  0
   26.5970  -20.1877   -8.0596 C   0  0  0  0  0  0  0  0  0  0  0  0
   26.4585  -20.0223   -9.4329 C   0  0  0  0  0  0  0  0  0  0  0  0
   27.5342  -20.3186  -10.2602 C   0  0  0  0  0  0  0  0  0  0  0  0
   24.7222  -20.7400  -13.7623 O   0  0  0  0  0  0  0  0  0  0  0  0
   24.4033  -19.8616  -14.6020 C   0  0  0  0  0  0  0  0  0  0  0  0
   20.2670  -24.4102  -14.2470 C   0  0  1  0  0  0  0  0  0  0  0  0
   21.0933  -23.1734  -14.4591 C   0  0  0  0  0  0  0  0  0  0  0  0
   22.4090  -23.5906  -15.0812 C   0  0  0  0  0  0  0  0  0  0  0  0
   21.4009  -22.4319  -13.2014 C   0  0  2  0  0  0  0  0  0  0  0  0
   22.2531  -21.2054  -13.4003 N   0  0  0  0  0  0  0  0  0  0  0  0
   23.6562  -21.4621  -13.1624 C   0  0  0  0  0  0  0  0  0  0  0  0
   21.7968  -20.1978  -12.4195 O   0  0  0  0  0  0  0  0  0  0  0  0
   22.5104  -19.9672  -11.4161 O   0  0  0  0  0  0  0  0  0  0  0  0
  2  1  1  0
  2  4  1  0
  3  2  2  0
  5  4  1  0
  6  5  1  0
  7  6  1  0
  8  7  1  0
  8  9  1  1
 10  8  1  0
 10 11  2  0
 12 10  1  0
 13 12  1  0
 13 14  1  1
 15 14  1  0
 16 15  2  0
 17 16  1  0
 18 17  1  0
 18 23  2  0
 19 20  2  0
 19 18  1  0
 20 21  1  0
 21 22  2  0
 23 22  1  0
 23 15  1  0
 24 13  1  0
 25 24  2  0
 27 26  1  6
 27 29  1  0
 28 27  1  0
 30 29  1  6
 30 31  1  0
 30 32  1  0
 31 24  1  0
 32 34  1  0
 33 32  2  0
M  END
$$$$
