RWL.pdb
     RDKit          3D

 34 35  0  0  1  0  0  0  0  0999 V2000
   30.0528  -26.6339  -16.4276 N   0  0  0  0  0  0  0  0  0  0  0  0
   31.2962  -26.1109  -16.8829 C   0  0  0  0  0  0  0  0  0  0  0  0
   32.0209  -26.8773  -17.6234 N   0  0  0  0  0  0  0  0  0  0  0  0
   31.7181  -24.8104  -16.5389 N   0  0  0  0  0  0  0  0  0  0  0  0
   30.7366  -23.9600  -15.8341 C   0  0  0  0  0  0  0  0  0  0  0  0
   30.3727  -22.8068  -16.7202 C   0  0  0  0  0  0  0  0  0  0  0  0
   29.4104  -21.8317  -16.1193 C   0  0  0  0  0  0  0  0  0  0  0  0
   27.9681  -22.1947  -16.1518 C   0  0  2  0  0  0  0  0  0  0  0  0
   27.4549  -22.1329  -17.4764 N   0  0  0  0  0  0  0  0  0  0  0  0
   27.1545  -21.4301  -15.1717 C   0  0  0  0  0  0  0  0  0  0  0  0
   27.3341  -20.1874  -15.0577 O   0  0  0  0  0  0  0  0  0  0  0  0
   32.9001  -26.5145  -18.0273 N   0  0  0  0  0  0  0  0  0  0  0  0
   26.1635  -22.0056  -14.3295 C   0  0  2  0  0  0  0  0  0  0  0  0
   25.2868  -21.1878  -13.5251 C   0  0  0  0  0  0  0  0  0  0  0  0
   23.8343  -21.3027  -13.9421 C   0  0  0  0  0  0  0  0  0  0  0  0
   22.9923  -20.3702  -13.1710 C   0  0  0  0  0  0  0  0  0  0  0  0
   23.2025  -19.0282  -12.8920 N   0  0  0  0  0  0  0  0  0  0  0  0
   22.1823  -18.5686  -12.1625 C   0  0  0  0  0  0  0  0  0  0  0  0
   21.2831  -19.5314  -11.9282 C   0  0  0  0  0  0  0  0  0  0  0  0
   20.0886  -19.5531  -11.2414 C   0  0  0  0  0  0  0  0  0  0  0  0
   19.3843  -20.7373  -11.1867 C   0  0  0  0  0  0  0  0  0  0  0  0
   19.8566  -21.8903  -11.8053 C   0  0  0  0  0  0  0  0  0  0  0  0
   21.0634  -21.8534  -12.4944 C   0  0  0  0  0  0  0  0  0  0  0  0
   21.7727  -20.6604  -12.5496 C   0  0  0  0  0  0  0  0  0  0  0  0
   25.3558  -21.5010  -12.0904 O   0  0  0  0  0  0  0  0  0  0  0  0
   25.2831  -22.7055  -11.7409 C   0  0  0  0  0  0  0  0  0  0  0  0
   28.1557  -21.4428   -8.3874 C   0  0  1  0  0  0  0  0  0  0  0  0
   27.7120  -20.0897   -8.8666 C   0  0  0  0  0  0  0  0  0  0  0  0
   28.3620  -19.0447   -7.9848 C   0  0  0  0  0  0  0  0  0  0  0  0
   26.2357  -19.8828   -8.8026 C   0  0  2  0  0  0  0  0  0  0  0  0
   25.4396  -20.8520   -9.6376 N   0  0  0  0  0  0  0  0  0  0  0  0
   25.4999  -20.5452  -11.0495 C   0  0  0  0  0  0  0  0  0  0  0  0
   24.0310  -20.7424   -9.2026 O   0  0  0  0  0  0  0  0  0  0  0  0
   23.2533  -20.0103   -9.8571 O   0  0  0  0  0  0  0  0  0  0  0  0
  2  1  1  0
  2  4  1  0
  3  2  2  0
  5  4  1  0
  6  5  1  0
  7  6  1  0
  8  7  1  0
  8  9  1  6
 10  8  1  0
 10 11  2  0
 12 10  1  0
 13 12  1  0
 13 14  1  6
 15 14  1  0
 16 15  2  0
 17 16  1  0
 18 17  1  0
 18 23  2  0
 19 20  2  0
 19 18  1  0
 20 21  1  0
 21 22  2  0
 23 22  1  0
 23 15  1  0
 24 13  1  0
 25 24  2  0
 27 26  1  6
 27 29  1  0
 28 27  1  0
 30 29  1  6
 30 31  1  0
 30 32  1  0
 31 24  1  0
 32 34  1  0
 33 32  2  0
M  END
$$$$
