RWL.pdb
     RDKit          3D

 34 35  0  0  1  0  0  0  0  0999 V2000
   29.4528  -20.7417  -18.2852 N   0  0  0  0  0  0  0  0  0  0  0  0
   29.3069  -19.3320  -18.4204 C   0  0  0  0  0  0  0  0  0  0  0  0
   28.8587  -18.8924  -19.5458 N   0  0  0  0  0  0  0  0  0  0  0  0
   29.6387  -18.4534  -17.3690 N   0  0  0  0  0  0  0  0  0  0  0  0
   28.7638  -18.4841  -16.1786 C   0  0  0  0  0  0  0  0  0  0  0  0
   27.5972  -19.3824  -16.4600 C   0  0  0  0  0  0  0  0  0  0  0  0
   26.9097  -19.9192  -15.2446 C   0  0  0  0  0  0  0  0  0  0  0  0
   27.6948  -20.8290  -14.3677 C   0  0  2  0  0  0  0  0  0  0  0  0
   28.0116  -22.0408  -15.0408 N   0  0  0  0  0  0  0  0  0  0  0  0
   27.0636  -21.0436  -13.0401 C   0  0  0  0  0  0  0  0  0  0  0  0
   25.9268  -21.5853  -12.9783 O   0  0  0  0  0  0  0  0  0  0  0  0
   28.8724  -17.8775  -19.7396 N   0  0  0  0  0  0  0  0  0  0  0  0
   27.6568  -20.6757  -11.8010 C   0  0  2  0  0  0  0  0  0  0  0  0
   26.9323  -20.7764  -10.5561 C   0  0  0  0  0  0  0  0  0  0  0  0
   27.6639  -20.1249   -9.3997 C   0  0  0  0  0  0  0  0  0  0  0  0
   26.9812  -20.4046   -8.1235 C   0  0  0  0  0  0  0  0  0  0  0  0
   25.7703  -21.0424   -7.9006 N   0  0  0  0  0  0  0  0  0  0  0  0
   25.5331  -21.0829   -6.5867 C   0  0  0  0  0  0  0  0  0  0  0  0
   26.5236  -20.5034   -5.8985 C   0  0  0  0  0  0  0  0  0  0  0  0
   26.7370  -20.2992   -4.5525 C   0  0  0  0  0  0  0  0  0  0  0  0
   27.8900  -19.6521   -4.1614 C   0  0  0  0  0  0  0  0  0  0  0  0
   28.8243  -19.2104   -5.0927 C   0  0  0  0  0  0  0  0  0  0  0  0
   28.5954  -19.4233   -6.4473 C   0  0  0  0  0  0  0  0  0  0  0  0
   27.4339  -20.0753   -6.8412 C   0  0  0  0  0  0  0  0  0  0  0  0
   25.5901  -20.1797  -10.6162 O   0  0  0  0  0  0  0  0  0  0  0  0
   25.4991  -18.9310  -10.7208 C   0  0  0  0  0  0  0  0  0  0  0  0
   22.7260  -19.0322  -13.6278 C   0  0  2  0  0  0  0  0  0  0  0  0
   22.9690  -20.4853  -13.3333 C   0  0  0  0  0  0  0  0  0  0  0  0
   22.3170  -21.3004  -14.4300 C   0  0  0  0  0  0  0  0  0  0  0  0
   22.3994  -20.9390  -12.0310 C   0  0  2  0  0  0  0  0  0  0  0  0
   23.0647  -20.3342  -10.8218 N   0  0  0  0  0  0  0  0  0  0  0  0
   24.3691  -20.9035  -10.5654 C   0  0  0  0  0  0  0  0  0  0  0  0
   22.1985  -20.6264   -9.6600 O   0  0  0  0  0  0  0  0  0  0  0  0
   22.5664  -21.4970   -8.8378 O   0  0  0  0  0  0  0  0  0  0  0  0
  2  1  1  0
  2  4  1  0
  3  2  2  0
  5  4  1  0
  6  5  1  0
  7  6  1  0
  8  7  1  0
  8  9  1  6
 10  8  1  0
 10 11  2  0
 12 10  1  0
 13 12  1  0
 13 14  1  1
 15 14  1  0
 16 15  2  0
 17 16  1  0
 18 17  1  0
 18 23  2  0
 19 20  2  0
 19 18  1  0
 20 21  1  0
 21 22  2  0
 23 22  1  0
 23 15  1  0
 24 13  1  0
 25 24  2  0
 27 26  1  6
 27 29  1  0
 28 27  1  0
 30 29  1  6
 30 31  1  0
 30 32  1  0
 31 24  1  0
 32 34  1  0
 33 32  2  0
M  END
$$$$
