RWL.pdb
     RDKit          3D

 34 35  0  0  1  0  0  0  0  0999 V2000
   13.1761  -11.5805  -18.4495 N   0  0  0  0  0  0  0  0  0  0  0  0
   13.3956  -10.2382  -18.8699 C   0  0  0  0  0  0  0  0  0  0  0  0
   13.2425   -9.9820  -20.1236 N   0  0  0  0  0  0  0  0  0  0  0  0
   13.7653   -9.2312  -17.9551 N   0  0  0  0  0  0  0  0  0  0  0  0
   13.9648   -9.6510  -16.5524 C   0  0  0  0  0  0  0  0  0  0  0  0
   14.3288   -8.4478  -15.7356 C   0  0  0  0  0  0  0  0  0  0  0  0
   14.5618   -8.7211  -14.2833 C   0  0  0  0  0  0  0  0  0  0  0  0
   15.9396   -9.1099  -13.8789 C   0  0  2  0  0  0  0  0  0  0  0  0
   16.0757  -10.5241  -13.8205 N   0  0  0  0  0  0  0  0  0  0  0  0
   16.3968   -8.4254  -12.6422 C   0  0  0  0  0  0  0  0  0  0  0  0
   15.9515   -8.8068  -11.5260 O   0  0  0  0  0  0  0  0  0  0  0  0
   13.4438   -9.0329  -20.4793 N   0  0  0  0  0  0  0  0  0  0  0  0
   17.3211   -7.3449  -12.6184 C   0  0  2  0  0  0  0  0  0  0  0  0
   17.7820   -6.7710  -11.3762 C   0  0  0  0  0  0  0  0  0  0  0  0
   19.2643   -6.4557  -11.3925 C   0  0  0  0  0  0  0  0  0  0  0  0
   20.0613   -7.6898  -11.5136 C   0  0  0  0  0  0  0  0  0  0  0  0
   20.0349   -8.8293  -10.7237 N   0  0  0  0  0  0  0  0  0  0  0  0
   20.9233   -9.7083  -11.1951 C   0  0  0  0  0  0  0  0  0  0  0  0
   21.5573   -9.2258  -12.2702 C   0  0  0  0  0  0  0  0  0  0  0  0
   22.5363   -9.7406  -13.0921 C   0  0  0  0  0  0  0  0  0  0  0  0
   22.9856   -8.9673  -14.1416 C   0  0  0  0  0  0  0  0  0  0  0  0
   22.4719   -7.6961  -14.3767 C   0  0  0  0  0  0  0  0  0  0  0  0
   21.4847   -7.1899  -13.5390 C   0  0  0  0  0  0  0  0  0  0  0  0
   21.0320   -7.9690  -12.4819 C   0  0  0  0  0  0  0  0  0  0  0  0
   17.0760   -5.5343  -11.0114 O   0  0  0  0  0  0  0  0  0  0  0  0
   16.9022   -4.6646  -11.9013 C   0  0  0  0  0  0  0  0  0  0  0  0
   12.9626   -4.7776   -9.2158 C   0  0  1  0  0  0  0  0  0  0  0  0
   13.9825   -5.0966   -8.1597 C   0  0  0  0  0  0  0  0  0  0  0  0
   13.2835   -5.0890   -6.8167 C   0  0  0  0  0  0  0  0  0  0  0  0
   15.1057   -4.1168   -8.0921 C   0  0  2  0  0  0  0  0  0  0  0  0
   15.8998   -3.9989   -9.3672 N   0  0  0  0  0  0  0  0  0  0  0  0
   16.5655   -5.2330   -9.7206 C   0  0  0  0  0  0  0  0  0  0  0  0
   16.9338   -2.9672   -9.1392 O   0  0  0  0  0  0  0  0  0  0  0  0
   18.1331   -3.3215   -9.0675 O   0  0  0  0  0  0  0  0  0  0  0  0
  2  1  1  0
  2  4  1  0
  3  2  2  0
  5  4  1  0
  6  5  1  0
  7  6  1  0
  8  7  1  0
  8  9  1  1
 10  8  1  0
 10 11  2  0
 12 10  1  0
 13 12  1  0
 13 14  1  1
 15 14  1  0
 16 15  2  0
 17 16  1  0
 18 17  1  0
 18 23  2  0
 19 20  2  0
 19 18  1  0
 20 21  1  0
 21 22  2  0
 23 22  1  0
 23 15  1  0
 24 13  1  0
 25 24  2  0
 27 26  1  6
 27 29  1  0
 28 27  1  0
 30 29  1  6
 30 31  1  0
 30 32  1  0
 31 24  1  0
 32 34  1  0
 33 32  2  0
M  END
$$$$
