RWL.pdb
     RDKit          3D

 34 35  0  0  1  0  0  0  0  0999 V2000
   29.3228  -18.8117  -19.5692 N   0  0  0  0  0  0  0  0  0  0  0  0
   29.5647  -17.7653  -18.6348 C   0  0  0  0  0  0  0  0  0  0  0  0
   30.0142  -16.6517  -19.1022 N   0  0  0  0  0  0  0  0  0  0  0  0
   29.3237  -17.9387  -17.2566 N   0  0  0  0  0  0  0  0  0  0  0  0
   28.8933  -19.2842  -16.8232 C   0  0  0  0  0  0  0  0  0  0  0  0
   27.3950  -19.3324  -16.8146 C   0  0  0  0  0  0  0  0  0  0  0  0
   26.7882  -19.7891  -15.5258 C   0  0  0  0  0  0  0  0  0  0  0  0
   27.5751  -20.7519  -14.7093 C   0  0  2  0  0  0  0  0  0  0  0  0
   27.8435  -21.9421  -15.4396 N   0  0  0  0  0  0  0  0  0  0  0  0
   26.9764  -21.0061  -13.3737 C   0  0  0  0  0  0  0  0  0  0  0  0
   25.9219  -21.6923  -13.2914 O   0  0  0  0  0  0  0  0  0  0  0  0
   30.1819  -15.8591  -18.4607 N   0  0  0  0  0  0  0  0  0  0  0  0
   27.5134  -20.5227  -12.1487 C   0  0  2  0  0  0  0  0  0  0  0  0
   26.8513  -20.7583  -10.8874 C   0  0  0  0  0  0  0  0  0  0  0  0
   27.6528  -20.2550   -9.7036 C   0  0  0  0  0  0  0  0  0  0  0  0
   26.9543  -20.5422   -8.4377 C   0  0  0  0  0  0  0  0  0  0  0  0
   25.7752  -21.2415   -8.2282 N   0  0  0  0  0  0  0  0  0  0  0  0
   25.5072  -21.2641   -6.9199 C   0  0  0  0  0  0  0  0  0  0  0  0
   26.4462  -20.6139   -6.2227 C   0  0  0  0  0  0  0  0  0  0  0  0
   26.6134  -20.3663   -4.8774 C   0  0  0  0  0  0  0  0  0  0  0  0
   27.7185  -19.6465   -4.4749 C   0  0  0  0  0  0  0  0  0  0  0  0
   28.6503  -19.1753   -5.3941 C   0  0  0  0  0  0  0  0  0  0  0  0
   28.4683  -19.4326   -6.7481 C   0  0  0  0  0  0  0  0  0  0  0  0
   27.3552  -20.1579   -7.1535 C   0  0  0  0  0  0  0  0  0  0  0  0
   25.5192  -20.1417  -10.8074 O   0  0  0  0  0  0  0  0  0  0  0  0
   25.4336  -18.8942  -10.9288 C   0  0  0  0  0  0  0  0  0  0  0  0
   22.3179  -18.7656  -13.4850 C   0  0  2  0  0  0  0  0  0  0  0  0
   22.8129  -20.1812  -13.3944 C   0  0  0  0  0  0  0  0  0  0  0  0
   22.2482  -20.9505  -14.5697 C   0  0  0  0  0  0  0  0  0  0  0  0
   22.3951  -20.8864  -12.1476 C   0  0  2  0  0  0  0  0  0  0  0  0
   22.9877  -20.3137  -10.8862 N   0  0  0  0  0  0  0  0  0  0  0  0
   24.3023  -20.8450  -10.6018 C   0  0  0  0  0  0  0  0  0  0  0  0
   22.0885  -20.6917   -9.7753 O   0  0  0  0  0  0  0  0  0  0  0  0
   22.2588  -21.7973   -9.2116 O   0  0  0  0  0  0  0  0  0  0  0  0
  2  1  1  0
  2  4  1  0
  3  2  2  0
  5  4  1  0
  6  5  1  0
  7  6  1  0
  8  7  1  0
  8  9  1  6
 10  8  1  0
 10 11  2  0
 12 10  1  0
 13 12  1  0
 13 14  1  1
 15 14  1  0
 16 15  2  0
 17 16  1  0
 18 17  1  0
 18 23  2  0
 19 20  2  0
 19 18  1  0
 20 21  1  0
 21 22  2  0
 23 22  1  0
 23 15  1  0
 24 13  1  0
 25 24  2  0
 27 26  1  6
 27 29  1  0
 28 27  1  0
 30 29  1  6
 30 31  1  0
 30 32  1  0
 31 24  1  0
 32 34  1  0
 33 32  2  0
M  END
$$$$
