RWL.pdb
     RDKit          3D

 34 35  0  0  1  0  0  0  0  0999 V2000
   20.2455  -23.3247  -16.4134 N   0  0  0  0  0  0  0  0  0  0  0  0
   19.1011  -22.5767  -16.8105 C   0  0  0  0  0  0  0  0  0  0  0  0
   17.9475  -23.1133  -16.6054 N   0  0  0  0  0  0  0  0  0  0  0  0
   19.2232  -21.3035  -17.4035 N   0  0  0  0  0  0  0  0  0  0  0  0
   20.4011  -21.0856  -18.2687 C   0  0  0  0  0  0  0  0  0  0  0  0
   21.1481  -19.8839  -17.7733 C   0  0  0  0  0  0  0  0  0  0  0  0
   22.2931  -19.4561  -18.6357 C   0  0  0  0  0  0  0  0  0  0  0  0
   23.6275  -19.3485  -17.9870 C   0  0  2  0  0  0  0  0  0  0  0  0
   23.7566  -20.2844  -16.9243 N   0  0  0  0  0  0  0  0  0  0  0  0
   23.9695  -17.9587  -17.5890 C   0  0  0  0  0  0  0  0  0  0  0  0
   23.2337  -17.3557  -16.7616 O   0  0  0  0  0  0  0  0  0  0  0  0
   17.0917  -22.6082  -16.8886 N   0  0  0  0  0  0  0  0  0  0  0  0
   25.0910  -17.2361  -18.0816 C   0  0  1  0  0  0  0  0  0  0  0  0
   25.3908  -15.9002  -17.6231 C   0  0  0  0  0  0  0  0  0  0  0  0
   26.8041  -15.7680  -17.0919 C   0  0  0  0  0  0  0  0  0  0  0  0
   27.0126  -16.6523  -15.9311 C   0  0  0  0  0  0  0  0  0  0  0  0
   26.6874  -16.4399  -14.5999 N   0  0  0  0  0  0  0  0  0  0  0  0
   27.0526  -17.5075  -13.8851 C   0  0  0  0  0  0  0  0  0  0  0  0
   27.6125  -18.4415  -14.6628 C   0  0  0  0  0  0  0  0  0  0  0  0
   28.1373  -19.6887  -14.4020 C   0  0  0  0  0  0  0  0  0  0  0  0
   28.6504  -20.4179  -15.4538 C   0  0  0  0  0  0  0  0  0  0  0  0
   28.6449  -19.9188  -16.7522 C   0  0  0  0  0  0  0  0  0  0  0  0
   28.1123  -18.6589  -17.0001 C   0  0  0  0  0  0  0  0  0  0  0  0
   27.5953  -17.9244  -15.9406 C   0  0  0  0  0  0  0  0  0  0  0  0
   25.2176  -14.8770  -18.6643 O   0  0  0  0  0  0  0  0  0  0  0  0
   25.5816  -15.1526  -19.8347 C   0  0  0  0  0  0  0  0  0  0  0  0
   20.9803  -11.3216  -20.8899 C   0  0  1  0  0  0  0  0  0  0  0  0
   22.4587  -11.5749  -20.8039 C   0  0  0  0  0  0  0  0  0  0  0  0
   22.9070  -12.1800  -22.1173 C   0  0  0  0  0  0  0  0  0  0  0  0
   22.8454  -12.5182  -19.7144 C   0  0  2  0  0  0  0  0  0  0  0  0
   24.3326  -12.6550  -19.5150 N   0  0  0  0  0  0  0  0  0  0  0  0
   24.6660  -13.5843  -18.4584 C   0  0  0  0  0  0  0  0  0  0  0  0
   24.8424  -11.3211  -19.1324 O   0  0  0  0  0  0  0  0  0  0  0  0
   24.8189  -10.4006  -19.9818 O   0  0  0  0  0  0  0  0  0  0  0  0
  2  1  1  0
  2  4  1  0
  3  2  2  0
  5  4  1  0
  6  5  1  0
  7  6  1  0
  8  7  1  0
  8  9  1  1
 10  8  1  0
 10 11  2  0
 12 10  1  0
 13 12  1  0
 13 14  1  1
 15 14  1  0
 16 15  2  0
 17 16  1  0
 18 17  1  0
 18 23  2  0
 19 20  2  0
 19 18  1  0
 20 21  1  0
 21 22  2  0
 23 22  1  0
 23 15  1  0
 24 13  1  0
 25 24  2  0
 27 26  1  6
 27 29  1  0
 28 27  1  0
 30 29  1  6
 30 31  1  0
 30 32  1  0
 31 24  1  0
 32 34  1  0
 33 32  2  0
M  END
$$$$
