RWL.pdb
     RDKit          3D

 34 35  0  0  1  0  0  0  0  0999 V2000
   34.0462  -26.0025  -14.5463 N   0  0  0  0  0  0  0  0  0  0  0  0
   35.0664  -25.2947  -13.8501 C   0  0  0  0  0  0  0  0  0  0  0  0
   36.2874  -25.5672  -14.1596 N   0  0  0  0  0  0  0  0  0  0  0  0
   34.7558  -24.3366  -12.8636 N   0  0  0  0  0  0  0  0  0  0  0  0
   33.3220  -24.1139  -12.5843 C   0  0  0  0  0  0  0  0  0  0  0  0
   32.8399  -22.9667  -13.4203 C   0  0  0  0  0  0  0  0  0  0  0  0
   31.7588  -22.1437  -12.7945 C   0  0  0  0  0  0  0  0  0  0  0  0
   30.3549  -22.5753  -13.0310 C   0  0  2  0  0  0  0  0  0  0  0  0
   30.1177  -22.8092  -14.4133 N   0  0  0  0  0  0  0  0  0  0  0  0
   29.3559  -21.6680  -12.4101 C   0  0  0  0  0  0  0  0  0  0  0  0
   29.7546  -20.7065  -11.6986 O   0  0  0  0  0  0  0  0  0  0  0  0
   37.0569  -25.0403  -13.7146 N   0  0  0  0  0  0  0  0  0  0  0  0
   27.9479  -21.8031  -12.5588 C   0  0  1  0  0  0  0  0  0  0  0  0
   27.0297  -20.8746  -11.9429 C   0  0  0  0  0  0  0  0  0  0  0  0
   25.6932  -20.8150  -12.6549 C   0  0  0  0  0  0  0  0  0  0  0  0
   25.6510  -19.6817  -13.5966 C   0  0  0  0  0  0  0  0  0  0  0  0
   24.5884  -18.8509  -13.9185 N   0  0  0  0  0  0  0  0  0  0  0  0
   24.9944  -17.9512  -14.8184 C   0  0  0  0  0  0  0  0  0  0  0  0
   26.2843  -18.1256  -15.1285 C   0  0  0  0  0  0  0  0  0  0  0  0
   27.1411  -17.4680  -15.9844 C   0  0  0  0  0  0  0  0  0  0  0  0
   28.4444  -17.9088  -16.0751 C   0  0  0  0  0  0  0  0  0  0  0  0
   28.8972  -18.9903  -15.3265 C   0  0  0  0  0  0  0  0  0  0  0  0
   28.0213  -19.6441  -14.4675 C   0  0  0  0  0  0  0  0  0  0  0  0
   26.7084  -19.1999  -14.3760 C   0  0  0  0  0  0  0  0  0  0  0  0
   26.7593  -21.1772  -10.5299 O   0  0  0  0  0  0  0  0  0  0  0  0
   26.4130  -22.3467  -10.2285 C   0  0  0  0  0  0  0  0  0  0  0  0
   27.8355  -18.6065   -4.9867 C   0  0  1  0  0  0  0  0  0  0  0  0
   27.6252  -19.7560   -5.9310 C   0  0  0  0  0  0  0  0  0  0  0  0
   28.9852  -20.2559   -6.3700 C   0  0  0  0  0  0  0  0  0  0  0  0
   26.8570  -19.3943   -7.1579 C   0  0  2  0  0  0  0  0  0  0  0  0
   26.5759  -20.5560   -8.0754 N   0  0  0  0  0  0  0  0  0  0  0  0
   26.8572  -20.2480   -9.4601 C   0  0  0  0  0  0  0  0  0  0  0  0
   25.1348  -20.8630   -7.9558 O   0  0  0  0  0  0  0  0  0  0  0  0
   24.7352  -21.4987   -6.9531 O   0  0  0  0  0  0  0  0  0  0  0  0
  2  1  1  0
  2  4  1  0
  3  2  2  0
  5  4  1  0
  6  5  1  0
  7  6  1  0
  8  7  1  0
  8  9  1  6
 10  8  1  0
 10 11  2  0
 12 10  1  0
 13 12  1  0
 13 14  1  1
 15 14  1  0
 16 15  2  0
 17 16  1  0
 18 17  1  0
 18 23  2  0
 19 20  2  0
 19 18  1  0
 20 21  1  0
 21 22  2  0
 23 22  1  0
 23 15  1  0
 24 13  1  0
 25 24  2  0
 27 26  1  1
 27 29  1  0
 28 27  1  0
 30 29  1  1
 30 31  1  0
 30 32  1  0
 31 24  1  0
 32 34  1  0
 33 32  2  0
M  END
$$$$
