RWL.pdb
     RDKit          3D

 34 35  0  0  1  0  0  0  0  0999 V2000
   22.4192  -17.7603  -15.6468 N   0  0  0  0  0  0  0  0  0  0  0  0
   23.3680  -18.1546  -16.6322 C   0  0  0  0  0  0  0  0  0  0  0  0
   23.6598  -17.2935  -17.5456 N   0  0  0  0  0  0  0  0  0  0  0  0
   23.9635  -19.4323  -16.6113 N   0  0  0  0  0  0  0  0  0  0  0  0
   23.5644  -20.3314  -15.5087 C   0  0  0  0  0  0  0  0  0  0  0  0
   24.5050  -20.1315  -14.3585 C   0  0  0  0  0  0  0  0  0  0  0  0
   25.8161  -20.8401  -14.4883 C   0  0  0  0  0  0  0  0  0  0  0  0
   26.7598  -20.7355  -13.3431 C   0  0  2  0  0  0  0  0  0  0  0  0
   27.9595  -21.4535  -13.6017 N   0  0  0  0  0  0  0  0  0  0  0  0
   26.1352  -21.0870  -12.0418 C   0  0  0  0  0  0  0  0  0  0  0  0
   25.6489  -22.2393  -11.8827 O   0  0  0  0  0  0  0  0  0  0  0  0
   24.3409  -17.5411  -18.2821 N   0  0  0  0  0  0  0  0  0  0  0  0
   26.0399  -20.2020  -10.9327 C   0  0  2  0  0  0  0  0  0  0  0  0
   25.3361  -20.5724   -9.7276 C   0  0  0  0  0  0  0  0  0  0  0  0
   25.7845  -19.7741   -8.5199 C   0  0  0  0  0  0  0  0  0  0  0  0
   27.1273  -20.1959   -8.0820 C   0  0  0  0  0  0  0  0  0  0  0  0
   28.0944  -20.9013   -8.7821 N   0  0  0  0  0  0  0  0  0  0  0  0
   29.1667  -21.0641   -8.0024 C   0  0  0  0  0  0  0  0  0  0  0  0
   28.9808  -20.5039   -6.8016 C   0  0  0  0  0  0  0  0  0  0  0  0
   29.7734  -20.4064   -5.6785 C   0  0  0  0  0  0  0  0  0  0  0  0
   29.2722  -19.7461   -4.5767 C   0  0  0  0  0  0  0  0  0  0  0  0
   27.9983  -19.1872   -4.5845 C   0  0  0  0  0  0  0  0  0  0  0  0
   27.2100  -19.2937   -5.7246 C   0  0  0  0  0  0  0  0  0  0  0  0
   27.7150  -19.9586   -6.8346 C   0  0  0  0  0  0  0  0  0  0  0  0
   23.8782  -20.4185   -9.8367 O   0  0  0  0  0  0  0  0  0  0  0  0
   23.4242  -19.3085  -10.2111 C   0  0  0  0  0  0  0  0  0  0  0  0
   19.7988  -20.4157  -12.1160 C   0  0  2  0  0  0  0  0  0  0  0  0
   20.7744  -21.5580  -12.1369 C   0  0  0  0  0  0  0  0  0  0  0  0
   20.2476  -22.6058  -13.0944 C   0  0  0  0  0  0  0  0  0  0  0  0
   20.9650  -22.2114  -10.8092 C   0  0  2  0  0  0  0  0  0  0  0  0
   21.4970  -21.2930   -9.7397 N   0  0  0  0  0  0  0  0  0  0  0  0
   22.9241  -21.4314   -9.5514 C   0  0  0  0  0  0  0  0  0  0  0  0
   20.8277  -21.6671   -8.4758 O   0  0  0  0  0  0  0  0  0  0  0  0
   21.4836  -22.2870   -7.6070 O   0  0  0  0  0  0  0  0  0  0  0  0
  2  1  1  0
  2  4  1  0
  3  2  2  0
  5  4  1  0
  6  5  1  0
  7  6  1  0
  8  7  1  0
  8  9  1  6
 10  8  1  0
 10 11  2  0
 12 10  1  0
 13 12  1  0
 13 14  1  6
 15 14  1  0
 16 15  2  0
 17 16  1  0
 18 17  1  0
 18 23  2  0
 19 20  2  0
 19 18  1  0
 20 21  1  0
 21 22  2  0
 23 22  1  0
 23 15  1  0
 24 13  1  0
 25 24  2  0
 27 26  1  6
 27 29  1  0
 28 27  1  0
 30 29  1  6
 30 31  1  0
 30 32  1  0
 31 24  1  0
 32 34  1  0
 33 32  2  0
M  END
$$$$
