AYN.pdb
     RDKit          3D

 26 26  0  0  1  0  0  0  0  0999 V2000
    6.9426  -14.6898   19.9250 C   0  0  0  0  0  0  0  0  0  0  0  0
    7.3072  -13.3803   20.6393 C   0  0  2  0  0  0  0  0  0  0  0  0
    8.1223  -12.6250   19.7565 N   0  0  0  0  0  0  0  0  0  0  0  0
    8.1410  -13.8092   21.8138 C   0  0  0  0  0  0  0  0  0  0  0  0
    9.3549  -14.0691   21.6046 O   0  0  0  0  0  0  0  0  0  0  0  0
   10.7252  -14.9847   29.9211 O   0  0  0  0  0  0  0  0  0  0  0  0
    9.9113  -14.7250   28.8251 C   0  0  0  0  0  0  0  0  0  0  0  0
    9.1777  -15.7460   28.2860 C   0  0  0  0  0  0  0  0  0  0  0  0
    8.3664  -15.5001   27.1971 C   0  0  0  0  0  0  0  0  0  0  0  0
    8.3256  -14.2258   26.6896 C   0  0  0  0  0  0  0  0  0  0  0  0
    7.4154  -14.0235   25.5127 C   0  0  0  0  0  0  0  0  0  0  0  0
    8.2129  -14.2726   24.2616 C   0  0  2  0  0  0  0  0  0  0  0  0
    7.5362  -13.9015   23.0745 N   0  0  0  0  0  0  0  0  0  0  0  0
    8.7058  -15.7007   24.2602 C   0  0  0  0  0  0  0  0  0  0  0  0
    7.9501  -16.6763   24.0625 O   0  0  0  0  0  0  0  0  0  0  0  0
    9.0476  -13.1952   27.2099 C   0  0  0  0  0  0  0  0  0  0  0  0
    9.8591  -13.4720   28.3114 C   0  0  0  0  0  0  0  0  0  0  0  0
   11.8575  -19.5165   23.6817 N   0  0  0  0  0  0  0  0  0  0  0  0
   12.3311  -18.4086   22.9486 C   0  0  0  0  0  0  0  0  0  0  0  0
   13.2278  -18.5506   22.0373 O   0  0  0  0  0  0  0  0  0  0  0  0
   11.7887  -17.0565   23.2269 C   0  0  0  0  0  0  0  0  0  0  0  0
   10.6730  -17.1857   24.2590 C   0  0  2  0  0  0  0  0  0  0  0  0
   10.0901  -15.8788   24.4951 N   0  0  0  0  0  0  0  0  0  0  0  0
   11.1604  -17.7194   25.5375 C   0  0  0  0  0  0  0  0  0  0  0  0
   11.7283  -18.8307   25.5883 O   0  0  0  0  0  0  0  0  0  0  0  0
   11.0177  -17.0210   26.7550 O   0  0  0  0  0  0  0  0  0  0  0  0
  2  1  1  6
  3  2  1  0
  4  2  1  0
  4  5  2  0
  6  7  1  0
  7 17  2  0
  8  7  1  0
  8  9  2  0
  9 10  1  0
 10 16  2  0
 10 11  1  0
 12 11  1  1
 12 13  1  0
 13  4  1  0
 14 12  1  0
 15 14  2  0
 17 16  1  0
 19 18  1  0
 19 21  1  0
 20 19  2  0
 22 21  1  6
 22 24  1  0
 22 23  1  0
 23 14  1  0
 24 26  1  0
 25 24  2  0
M  END
$$$$
