AYN.pdb
     RDKit          3D

 26 26  0  0  1  0  0  0  0  0999 V2000
    8.2394  -20.2724   19.8710 C   0  0  0  0  0  0  0  0  0  0  0  0
    8.1945  -18.8668   19.2544 C   0  0  2  0  0  0  0  0  0  0  0  0
    8.7825  -18.9470   17.9653 N   0  0  0  0  0  0  0  0  0  0  0  0
    9.0843  -18.0376   20.1372 C   0  0  0  0  0  0  0  0  0  0  0  0
   10.3267  -18.1097   19.9471 O   0  0  0  0  0  0  0  0  0  0  0  0
    7.3963  -11.9788   18.1040 O   0  0  0  0  0  0  0  0  0  0  0  0
    7.6841  -12.7780   19.2038 C   0  0  0  0  0  0  0  0  0  0  0  0
    6.6900  -13.5469   19.7441 C   0  0  0  0  0  0  0  0  0  0  0  0
    6.9639  -14.3440   20.8368 C   0  0  0  0  0  0  0  0  0  0  0  0
    8.2378  -14.3352   21.3468 C   0  0  0  0  0  0  0  0  0  0  0  0
    8.4717  -15.2323   22.5278 C   0  0  0  0  0  0  0  0  0  0  0  0
    9.2237  -16.4438   22.0482 C   0  0  2  0  0  0  0  0  0  0  0  0
    8.4980  -17.2319   21.1224 N   0  0  0  0  0  0  0  0  0  0  0  0
    9.7329  -17.2194   23.2404 C   0  0  0  0  0  0  0  0  0  0  0  0
    8.9854  -17.9069   23.9688 O   0  0  0  0  0  0  0  0  0  0  0  0
    9.2418  -13.5773   20.8254 C   0  0  0  0  0  0  0  0  0  0  0  0
    8.9371  -12.7812   19.7200 C   0  0  0  0  0  0  0  0  0  0  0  0
   13.7264  -20.6031   24.8727 N   0  0  0  0  0  0  0  0  0  0  0  0
   13.8314  -19.1994   24.9617 C   0  0  0  0  0  0  0  0  0  0  0  0
   14.4956  -18.6430   25.9125 O   0  0  0  0  0  0  0  0  0  0  0  0
   13.1698  -18.3465   23.9446 C   0  0  0  0  0  0  0  0  0  0  0  0
   11.7325  -18.0921   24.3873 C   0  0  2  0  0  0  0  0  0  0  0  0
   11.1227  -17.1279   23.4918 N   0  0  0  0  0  0  0  0  0  0  0  0
   11.6593  -17.5701   25.7581 C   0  0  0  0  0  0  0  0  0  0  0  0
   11.6512  -18.3475   26.7357 O   0  0  0  0  0  0  0  0  0  0  0  0
   11.5956  -16.1896   26.0418 O   0  0  0  0  0  0  0  0  0  0  0  0
  2  1  1  1
  3  2  1  0
  4  2  1  0
  4  5  2  0
  6  7  1  0
  7 17  2  0
  8  7  1  0
  8  9  2  0
  9 10  1  0
 10 16  2  0
 10 11  1  0
 12 11  1  1
 12 13  1  0
 13  4  1  0
 14 12  1  0
 15 14  2  0
 17 16  1  0
 19 18  1  0
 19 21  1  0
 20 19  2  0
 22 21  1  6
 22 24  1  0
 22 23  1  0
 23 14  1  0
 24 26  1  0
 25 24  2  0
M  END
$$$$
