AYN.pdb
     RDKit          3D

 26 26  0  0  1  0  0  0  0  0999 V2000
   10.2445  -17.1154   19.6646 C   0  0  0  0  0  0  0  0  0  0  0  0
   10.1083  -17.7850   21.0398 C   0  0  2  0  0  0  0  0  0  0  0  0
    8.8647  -18.4685   21.0607 N   0  0  0  0  0  0  0  0  0  0  0  0
   10.0440  -16.6415   22.0128 C   0  0  0  0  0  0  0  0  0  0  0  0
   11.0835  -15.9491   22.1701 O   0  0  0  0  0  0  0  0  0  0  0  0
    7.3995  -12.9833   18.0901 O   0  0  0  0  0  0  0  0  0  0  0  0
    7.4298  -13.3519   19.4296 C   0  0  0  0  0  0  0  0  0  0  0  0
    6.6074  -14.3565   19.8607 C   0  0  0  0  0  0  0  0  0  0  0  0
    6.6285  -14.7307   21.1887 C   0  0  0  0  0  0  0  0  0  0  0  0
    7.4832  -14.0733   22.0374 C   0  0  0  0  0  0  0  0  0  0  0  0
    7.4649  -14.5360   23.4657 C   0  0  0  0  0  0  0  0  0  0  0  0
    8.6727  -15.4052   23.6870 C   0  0  2  0  0  0  0  0  0  0  0  0
    8.8439  -16.4012   22.6952 N   0  0  0  0  0  0  0  0  0  0  0  0
    8.6452  -15.9481   25.0965 C   0  0  0  0  0  0  0  0  0  0  0  0
    8.3305  -15.2495   26.0839 O   0  0  0  0  0  0  0  0  0  0  0  0
    8.3095  -13.0705   21.6301 C   0  0  0  0  0  0  0  0  0  0  0  0
    8.2682  -12.7130   20.2814 C   0  0  0  0  0  0  0  0  0  0  0  0
    6.2650  -20.0435   27.5156 N   0  0  0  0  0  0  0  0  0  0  0  0
    6.9576  -19.2052   26.6173 C   0  0  0  0  0  0  0  0  0  0  0  0
    6.3286  -18.3570   25.8827 O   0  0  0  0  0  0  0  0  0  0  0  0
    8.4343  -19.2971   26.5155 C   0  0  0  0  0  0  0  0  0  0  0  0
    9.0121  -17.8866   26.5739 C   0  0  2  0  0  0  0  0  0  0  0  0
    8.9971  -17.3112   25.2427 N   0  0  0  0  0  0  0  0  0  0  0  0
   10.3928  -17.8740   27.0744 C   0  0  0  0  0  0  0  0  0  0  0  0
   10.6510  -18.2436   28.2392 O   0  0  0  0  0  0  0  0  0  0  0  0
   11.4825  -17.4527   26.2837 O   0  0  0  0  0  0  0  0  0  0  0  0
  2  1  1  6
  3  2  1  0
  4  2  1  0
  4  5  2  0
  6  7  1  0
  7 17  2  0
  8  7  1  0
  8  9  2  0
  9 10  1  0
 10 16  2  0
 10 11  1  0
 12 11  1  6
 12 13  1  0
 13  4  1  0
 14 12  1  0
 15 14  2  0
 17 16  1  0
 19 18  1  0
 19 21  1  0
 20 19  2  0
 22 21  1  6
 22 24  1  0
 22 23  1  0
 23 14  1  0
 24 26  1  0
 25 24  2  0
M  END
$$$$
