AYN.pdb
     RDKit          3D

 26 26  0  0  1  0  0  0  0  0999 V2000
    5.5835  -15.5299   20.8923 C   0  0  0  0  0  0  0  0  0  0  0  0
    6.6480  -16.5765   21.2516 C   0  0  2  0  0  0  0  0  0  0  0  0
    6.0655  -17.4761   22.1820 N   0  0  0  0  0  0  0  0  0  0  0  0
    7.7261  -15.7958   21.9492 C   0  0  0  0  0  0  0  0  0  0  0  0
    8.4265  -15.0157   21.2523 O   0  0  0  0  0  0  0  0  0  0  0  0
    5.4368  -10.6679   26.3938 O   0  0  0  0  0  0  0  0  0  0  0  0
    6.2324  -11.7875   26.1829 C   0  0  0  0  0  0  0  0  0  0  0  0
    5.7031  -13.0295   26.4034 C   0  0  0  0  0  0  0  0  0  0  0  0
    6.4839  -14.1485   26.1978 C   0  0  0  0  0  0  0  0  0  0  0  0
    7.7775  -13.9717   25.7753 C   0  0  0  0  0  0  0  0  0  0  0  0
    8.5689  -15.2293   25.5601 C   0  0  0  0  0  0  0  0  0  0  0  0
    8.9011  -15.3233   24.0958 C   0  0  2  0  0  0  0  0  0  0  0  0
    7.9027  -15.9707   23.3283 N   0  0  0  0  0  0  0  0  0  0  0  0
   10.2780  -15.9236   23.9341 C   0  0  0  0  0  0  0  0  0  0  0  0
   11.3248  -15.2960   24.2031 O   0  0  0  0  0  0  0  0  0  0  0  0
    8.3247  -12.7452   25.5504 C   0  0  0  0  0  0  0  0  0  0  0  0
    7.5122  -11.6307   25.7655 C   0  0  0  0  0  0  0  0  0  0  0  0
   12.7473  -20.0156   25.3262 N   0  0  0  0  0  0  0  0  0  0  0  0
   11.8035  -19.3565   26.1412 C   0  0  0  0  0  0  0  0  0  0  0  0
   11.7280  -19.6036   27.4014 O   0  0  0  0  0  0  0  0  0  0  0  0
   10.8827  -18.3602   25.5419 C   0  0  0  0  0  0  0  0  0  0  0  0
   11.2505  -18.1842   24.0720 C   0  0  2  0  0  0  0  0  0  0  0  0
   10.3214  -17.2555   23.4573 N   0  0  0  0  0  0  0  0  0  0  0  0
   11.2027  -19.4527   23.3334 C   0  0  0  0  0  0  0  0  0  0  0  0
   11.9774  -20.3882   23.6243 O   0  0  0  0  0  0  0  0  0  0  0  0
   10.2974  -19.6812   22.2758 O   0  0  0  0  0  0  0  0  0  0  0  0
  2  1  1  1
  3  2  1  0
  4  2  1  0
  4  5  2  0
  6  7  1  0
  7 17  2  0
  8  7  1  0
  8  9  2  0
  9 10  1  0
 10 16  2  0
 10 11  1  0
 12 11  1  1
 12 13  1  0
 13  4  1  0
 14 12  1  0
 15 14  2  0
 17 16  1  0
 19 18  1  0
 19 21  1  0
 20 19  2  0
 22 21  1  1
 22 24  1  0
 22 23  1  0
 23 14  1  0
 24 26  1  0
 25 24  2  0
M  END
$$$$
