AYN.pdb
     RDKit          3D

 26 26  0  0  1  0  0  0  0  0999 V2000
    8.6483  -18.3773   19.5902 C   0  0  0  0  0  0  0  0  0  0  0  0
    8.9036  -16.8949   19.2817 C   0  0  2  0  0  0  0  0  0  0  0  0
   10.1273  -16.8119   18.5677 N   0  0  0  0  0  0  0  0  0  0  0  0
    9.0894  -16.2545   20.6286 C   0  0  0  0  0  0  0  0  0  0  0  0
   10.2487  -16.2525   21.1195 O   0  0  0  0  0  0  0  0  0  0  0  0
    7.4285  -12.0296   27.9564 O   0  0  0  0  0  0  0  0  0  0  0  0
    7.2703  -12.6077   26.7027 C   0  0  0  0  0  0  0  0  0  0  0  0
    6.5364  -13.7565   26.5890 C   0  0  0  0  0  0  0  0  0  0  0  0
    6.3730  -14.3399   25.3492 C   0  0  0  0  0  0  0  0  0  0  0  0
    6.9598  -13.7392   24.2640 C   0  0  0  0  0  0  0  0  0  0  0  0
    6.7343  -14.4181   22.9439 C   0  0  0  0  0  0  0  0  0  0  0  0
    7.9966  -15.1499   22.5773 C   0  0  2  0  0  0  0  0  0  0  0  0
    7.9762  -15.6964   21.2712 N   0  0  0  0  0  0  0  0  0  0  0  0
    8.3193  -16.1588   23.6544 C   0  0  0  0  0  0  0  0  0  0  0  0
    7.6254  -17.1788   23.8548 O   0  0  0  0  0  0  0  0  0  0  0  0
    7.6948  -12.5963   24.3544 C   0  0  0  0  0  0  0  0  0  0  0  0
    7.8432  -12.0273   25.6204 C   0  0  0  0  0  0  0  0  0  0  0  0
   12.4602  -17.1691   22.9120 N   0  0  0  0  0  0  0  0  0  0  0  0
   11.5451  -17.7514   23.8136 C   0  0  0  0  0  0  0  0  0  0  0  0
   10.8457  -18.7777   23.4784 O   0  0  0  0  0  0  0  0  0  0  0  0
   11.3841  -17.1771   25.1715 C   0  0  0  0  0  0  0  0  0  0  0  0
    9.9057  -16.8781   25.3984 C   0  0  2  0  0  0  0  0  0  0  0  0
    9.4679  -15.8861   24.4351 N   0  0  0  0  0  0  0  0  0  0  0  0
    9.6452  -16.3657   26.7499 C   0  0  0  0  0  0  0  0  0  0  0  0
    9.7266  -17.1191   27.7428 O   0  0  0  0  0  0  0  0  0  0  0  0
    9.2961  -15.0215   26.9974 O   0  0  0  0  0  0  0  0  0  0  0  0
  2  1  1  1
  3  2  1  0
  4  2  1  0
  4  5  2  0
  6  7  1  0
  7 17  2  0
  8  7  1  0
  8  9  2  0
  9 10  1  0
 10 16  2  0
 10 11  1  0
 12 11  1  1
 12 13  1  0
 13  4  1  0
 14 12  1  0
 15 14  2  0
 17 16  1  0
 19 18  1  0
 19 21  1  0
 20 19  2  0
 22 21  1  1
 22 24  1  0
 22 23  1  0
 23 14  1  0
 24 26  1  0
 25 24  2  0
M  END
$$$$
