AYN.pdb
     RDKit          3D

 26 26  0  0  1  0  0  0  0  0999 V2000
   10.4133  -17.0241   18.3594 C   0  0  0  0  0  0  0  0  0  0  0  0
   10.5126  -17.8093   19.6753 C   0  0  2  0  0  0  0  0  0  0  0  0
    9.2646  -18.4519   19.8843 N   0  0  0  0  0  0  0  0  0  0  0  0
   10.6931  -16.7560   20.7319 C   0  0  0  0  0  0  0  0  0  0  0  0
   11.7799  -16.1207   20.7439 O   0  0  0  0  0  0  0  0  0  0  0  0
    6.7204  -13.1197   17.7188 O   0  0  0  0  0  0  0  0  0  0  0  0
    7.1159  -13.5578   18.9769 C   0  0  0  0  0  0  0  0  0  0  0  0
    8.0154  -12.8114   19.6875 C   0  0  0  0  0  0  0  0  0  0  0  0
    8.4159  -13.2370   20.9376 C   0  0  0  0  0  0  0  0  0  0  0  0
    7.8913  -14.4068   21.4268 C   0  0  0  0  0  0  0  0  0  0  0  0
    8.3597  -14.8072   22.7959 C   0  0  0  0  0  0  0  0  0  0  0  0
    9.6720  -15.5273   22.6449 C   0  0  2  0  0  0  0  0  0  0  0  0
    9.6559  -16.5319   21.6472 N   0  0  0  0  0  0  0  0  0  0  0  0
   10.1294  -16.0200   23.9977 C   0  0  0  0  0  0  0  0  0  0  0  0
   10.1473  -15.2903   25.0122 O   0  0  0  0  0  0  0  0  0  0  0  0
    6.9956  -15.1655   20.7364 C   0  0  0  0  0  0  0  0  0  0  0  0
    6.6073  -14.7110   19.4750 C   0  0  0  0  0  0  0  0  0  0  0  0
   11.6536  -19.1392   27.6136 N   0  0  0  0  0  0  0  0  0  0  0  0
   10.9626  -19.9576   26.6960 C   0  0  0  0  0  0  0  0  0  0  0  0
   10.6989  -21.1863   26.9710 O   0  0  0  0  0  0  0  0  0  0  0  0
   10.5285  -19.3976   25.3930 C   0  0  0  0  0  0  0  0  0  0  0  0
   10.9264  -17.9259   25.3422 C   0  0  2  0  0  0  0  0  0  0  0  0
   10.5401  -17.3731   24.0582 N   0  0  0  0  0  0  0  0  0  0  0  0
   12.3721  -17.7367   25.5180 C   0  0  0  0  0  0  0  0  0  0  0  0
   13.1300  -17.6669   24.5277 O   0  0  0  0  0  0  0  0  0  0  0  0
   12.9736  -17.6250   26.7892 O   0  0  0  0  0  0  0  0  0  0  0  0
  2  1  1  6
  3  2  1  0
  4  2  1  0
  4  5  2  0
  6  7  1  0
  7 17  2  0
  8  7  1  0
  8  9  2  0
  9 10  1  0
 10 16  2  0
 10 11  1  0
 12 11  1  1
 12 13  1  0
 13  4  1  0
 14 12  1  0
 15 14  2  0
 17 16  1  0
 19 18  1  0
 19 21  1  0
 20 19  2  0
 22 21  1  6
 22 24  1  0
 22 23  1  0
 23 14  1  0
 24 26  1  0
 25 24  2  0
M  END
$$$$
