AYN.pdb
     RDKit          3D

 26 26  0  0  1  0  0  0  0  0999 V2000
    7.2923  -12.7506   19.0766 C   0  0  0  0  0  0  0  0  0  0  0  0
    7.7100  -14.1907   19.4074 C   0  0  2  0  0  0  0  0  0  0  0  0
    6.5319  -14.9817   19.4337 N   0  0  0  0  0  0  0  0  0  0  0  0
    8.2668  -14.1126   20.8011 C   0  0  0  0  0  0  0  0  0  0  0  0
    9.4762  -13.7874   20.9296 O   0  0  0  0  0  0  0  0  0  0  0  0
    8.9962  -14.1757   29.3570 O   0  0  0  0  0  0  0  0  0  0  0  0
    8.4566  -14.1300   28.0772 C   0  0  0  0  0  0  0  0  0  0  0  0
    7.7731  -15.2170   27.6055 C   0  0  0  0  0  0  0  0  0  0  0  0
    7.2334  -15.1832   26.3359 C   0  0  0  0  0  0  0  0  0  0  0  0
    7.4049  -14.0476   25.5850 C   0  0  0  0  0  0  0  0  0  0  0  0
    6.7841  -14.0719   24.2181 C   0  0  0  0  0  0  0  0  0  0  0  0
    7.8489  -14.4688   23.2322 C   0  0  2  0  0  0  0  0  0  0  0  0
    7.4249  -14.4039   21.8828 N   0  0  0  0  0  0  0  0  0  0  0  0
    8.4193  -15.8108   23.6272 C   0  0  0  0  0  0  0  0  0  0  0  0
    7.7482  -16.8648   23.6004 O   0  0  0  0  0  0  0  0  0  0  0  0
    8.0820  -12.9549   26.0342 C   0  0  0  0  0  0  0  0  0  0  0  0
    8.6167  -13.0160   27.3222 C   0  0  0  0  0  0  0  0  0  0  0  0
   11.5434  -16.8791   20.9207 N   0  0  0  0  0  0  0  0  0  0  0  0
   11.1630  -17.6374   22.0475 C   0  0  0  0  0  0  0  0  0  0  0  0
   10.4145  -18.6765   21.9257 O   0  0  0  0  0  0  0  0  0  0  0  0
   11.6324  -17.2367   23.3961 C   0  0  0  0  0  0  0  0  0  0  0  0
   10.4175  -17.0844   24.3058 C   0  0  2  0  0  0  0  0  0  0  0  0
    9.7753  -15.8130   24.0326 N   0  0  0  0  0  0  0  0  0  0  0  0
   10.7814  -17.1295   25.7279 C   0  0  0  0  0  0  0  0  0  0  0  0
   11.0265  -16.0780   26.3559 O   0  0  0  0  0  0  0  0  0  0  0  0
   10.8723  -18.3381   26.4499 O   0  0  0  0  0  0  0  0  0  0  0  0
  2  1  1  1
  3  2  1  0
  4  2  1  0
  4  5  2  0
  6  7  1  0
  7 17  2  0
  8  7  1  0
  8  9  2  0
  9 10  1  0
 10 16  2  0
 10 11  1  0
 12 11  1  1
 12 13  1  0
 13  4  1  0
 14 12  1  0
 15 14  2  0
 17 16  1  0
 19 18  1  0
 19 21  1  0
 20 19  2  0
 22 21  1  6
 22 24  1  0
 22 23  1  0
 23 14  1  0
 24 26  1  0
 25 24  2  0
M  END
$$$$
