AYN.pdb
     RDKit          3D

 26 26  0  0  1  0  0  0  0  0999 V2000
    8.3387  -18.3877   19.6346 C   0  0  0  0  0  0  0  0  0  0  0  0
    8.7726  -16.9432   19.3462 C   0  0  2  0  0  0  0  0  0  0  0  0
   10.0114  -16.9992   18.6560 N   0  0  0  0  0  0  0  0  0  0  0  0
    9.0058  -16.3400   20.7027 C   0  0  0  0  0  0  0  0  0  0  0  0
   10.1591  -16.4418   21.1969 O   0  0  0  0  0  0  0  0  0  0  0  0
    7.7876  -12.4189   28.2142 O   0  0  0  0  0  0  0  0  0  0  0  0
    7.5366  -12.8960   26.9334 C   0  0  0  0  0  0  0  0  0  0  0  0
    8.3017  -12.4425   25.8941 C   0  0  0  0  0  0  0  0  0  0  0  0
    8.0612  -12.9088   24.6178 C   0  0  0  0  0  0  0  0  0  0  0  0
    7.0515  -13.8202   24.4366 C   0  0  0  0  0  0  0  0  0  0  0  0
    6.8495  -14.2951   23.0266 C   0  0  0  0  0  0  0  0  0  0  0  0
    7.9857  -15.2186   22.6811 C   0  0  2  0  0  0  0  0  0  0  0  0
    7.9404  -15.7001   21.3502 N   0  0  0  0  0  0  0  0  0  0  0  0
    8.0748  -16.3109   23.7209 C   0  0  0  0  0  0  0  0  0  0  0  0
    7.1562  -17.1357   23.9152 O   0  0  0  0  0  0  0  0  0  0  0  0
    6.2775  -14.2844   25.4563 C   0  0  0  0  0  0  0  0  0  0  0  0
    6.5432  -13.7966   26.7369 C   0  0  0  0  0  0  0  0  0  0  0  0
   11.3964  -18.7375   22.8505 N   0  0  0  0  0  0  0  0  0  0  0  0
   10.5424  -18.9553   23.9517 C   0  0  0  0  0  0  0  0  0  0  0  0
    9.6066  -19.8366   23.9012 O   0  0  0  0  0  0  0  0  0  0  0  0
   10.7229  -18.1605   25.1908 C   0  0  0  0  0  0  0  0  0  0  0  0
    9.4318  -17.3972   25.4685 C   0  0  2  0  0  0  0  0  0  0  0  0
    9.2728  -16.3540   24.4734 N   0  0  0  0  0  0  0  0  0  0  0  0
    9.4297  -16.7784   26.8004 C   0  0  0  0  0  0  0  0  0  0  0  0
    9.3363  -17.4814   27.8286 O   0  0  0  0  0  0  0  0  0  0  0  0
    9.5314  -15.3841   26.9894 O   0  0  0  0  0  0  0  0  0  0  0  0
  2  1  1  1
  3  2  1  0
  4  2  1  0
  4  5  2  0
  6  7  1  0
  7 17  2  0
  8  7  1  0
  8  9  2  0
  9 10  1  0
 10 16  2  0
 10 11  1  0
 12 11  1  1
 12 13  1  0
 13  4  1  0
 14 12  1  0
 15 14  2  0
 17 16  1  0
 19 18  1  0
 19 21  1  0
 20 19  2  0
 22 21  1  6
 22 24  1  0
 22 23  1  0
 23 14  1  0
 24 26  1  0
 25 24  2  0
M  END
$$$$
