AYN.pdb
     RDKit          3D

 26 26  0  0  1  0  0  0  0  0999 V2000
    8.2871  -18.0525   19.5259 C   0  0  0  0  0  0  0  0  0  0  0  0
    9.0025  -16.6944   19.4830 C   0  0  2  0  0  0  0  0  0  0  0  0
   10.3250  -16.9228   19.0213 N   0  0  0  0  0  0  0  0  0  0  0  0
    9.0645  -16.2538   20.9184 C   0  0  0  0  0  0  0  0  0  0  0  0
   10.0205  -16.6782   21.6190 O   0  0  0  0  0  0  0  0  0  0  0  0
    7.3206  -12.1736   28.2684 O   0  0  0  0  0  0  0  0  0  0  0  0
    7.2162  -12.5982   26.9494 C   0  0  0  0  0  0  0  0  0  0  0  0
    8.0875  -12.0992   26.0203 C   0  0  0  0  0  0  0  0  0  0  0  0
    7.9930  -12.5131   24.7073 C   0  0  0  0  0  0  0  0  0  0  0  0
    7.0170  -13.4200   24.3786 C   0  0  0  0  0  0  0  0  0  0  0  0
    6.9755  -13.8368   22.9367 C   0  0  0  0  0  0  0  0  0  0  0  0
    8.0168  -14.9032   22.7322 C   0  0  2  0  0  0  0  0  0  0  0  0
    8.0657  -15.4013   21.4077 N   0  0  0  0  0  0  0  0  0  0  0  0
    7.8436  -15.9772   23.7805 C   0  0  0  0  0  0  0  0  0  0  0  0
    6.9227  -16.8211   23.7378 O   0  0  0  0  0  0  0  0  0  0  0  0
    6.1391  -13.9288   25.2868 C   0  0  0  0  0  0  0  0  0  0  0  0
    6.2580  -13.4935   26.6077 C   0  0  0  0  0  0  0  0  0  0  0  0
   11.3896  -19.8820   25.3922 N   0  0  0  0  0  0  0  0  0  0  0  0
   10.0514  -19.4397   25.3384 C   0  0  0  0  0  0  0  0  0  0  0  0
    9.1149  -20.0849   25.9396 O   0  0  0  0  0  0  0  0  0  0  0  0
    9.7131  -18.2107   24.5803 C   0  0  0  0  0  0  0  0  0  0  0  0
    9.0497  -17.2215   25.5333 C   0  0  2  0  0  0  0  0  0  0  0  0
    8.7951  -15.9799   24.8282 N   0  0  0  0  0  0  0  0  0  0  0  0
    9.8886  -16.9323   26.7036 C   0  0  0  0  0  0  0  0  0  0  0  0
   10.1317  -17.8204   27.5475 O   0  0  0  0  0  0  0  0  0  0  0  0
   10.4555  -15.6614   26.9353 O   0  0  0  0  0  0  0  0  0  0  0  0
  2  1  1  1
  3  2  1  0
  4  2  1  0
  4  5  2  0
  6  7  1  0
  7 17  2  0
  8  7  1  0
  8  9  2  0
  9 10  1  0
 10 16  2  0
 10 11  1  0
 12 11  1  6
 12 13  1  0
 13  4  1  0
 14 12  1  0
 15 14  2  0
 17 16  1  0
 19 18  1  0
 19 21  1  0
 20 19  2  0
 22 21  1  6
 22 24  1  0
 22 23  1  0
 23 14  1  0
 24 26  1  0
 25 24  2  0
M  END
$$$$
