MTE.pdb
     RDKit          3D

 25 24  0  0  1  0  0  0  0  0999 V2000
    7.5150  -11.1227   26.1211 C   0  0  0  0  0  0  0  0  0  0  0  0
    6.3693  -12.0862   27.1421 S   0  0  0  0  0  0  0  0  0  0  0  0
    5.9022  -13.6363   26.3422 C   0  0  0  0  0  0  0  0  0  0  0  0
    7.0501  -14.3430   25.7188 C   0  0  0  0  0  0  0  0  0  0  0  0
    6.7434  -15.6139   25.0092 C   0  0  2  0  0  0  0  0  0  0  0  0
    6.0299  -16.5264   25.8954 N   0  0  0  0  0  0  0  0  0  0  0  0
    7.9150  -16.2907   24.4024 C   0  0  0  0  0  0  0  0  0  0  0  0
    8.3209  -17.3504   24.9348 O   0  0  0  0  0  0  0  0  0  0  0  0
    8.0869  -16.5211   20.6037 C   0  0  0  0  0  0  0  0  0  0  0  0
    9.5085  -16.3942   21.0883 C   0  0  1  0  0  0  0  0  0  0  0  0
    9.8666  -15.0512   20.7699 O   0  0  0  0  0  0  0  0  0  0  0  0
    9.6756  -16.5271   22.5810 C   0  0  2  0  0  0  0  0  0  0  0  0
    8.5991  -15.8232   23.2716 N   0  0  0  0  0  0  0  0  0  0  0  0
   10.9542  -15.9294   23.0868 C   0  0  0  0  0  0  0  0  0  0  0  0
   11.3210  -14.7954   22.6088 O   0  0  0  0  0  0  0  0  0  0  0  0
   11.7921  -16.5126   24.0523 N   0  0  0  0  0  0  0  0  0  0  0  0
   13.1924  -16.6966   23.9658 C   0  0  1  0  0  0  0  0  0  0  0  0
   13.7043  -18.1055   24.1881 C   0  0  0  0  0  0  0  0  0  0  0  0
   15.2082  -18.1992   24.1787 C   0  0  0  0  0  0  0  0  0  0  0  0
   15.6866  -19.2169   25.1647 C   0  0  0  0  0  0  0  0  0  0  0  0
   16.7237  -18.9539   25.8220 O   0  0  0  0  0  0  0  0  0  0  0  0
   13.8714  -16.1135   22.8070 C   0  0  0  0  0  0  0  0  0  0  0  0
   14.9421  -15.2367   23.0814 O   0  0  0  0  0  0  0  0  0  0  0  0
   15.0178  -20.4121   25.3555 O   0  0  0  0  0  0  0  0  0  0  0  0
   13.5801  -16.3298   21.6229 O   0  0  0  0  0  0  0  0  0  0  0  0
  2  1  1  0
  3  2  1  0
  4  3  1  0
  5  4  1  0
  5  6  1  1
  7  5  1  0
  7 13  1  0
  8  7  2  0
 10  9  1  1
 10 12  1  0
 11 10  1  0
 12 13  1  1
 12 14  1  0
 14 16  1  0
 15 14  2  0
 16 17  1  0
 17 22  1  0
 18 19  1  0
 17 18  1  6
 20 21  2  0
 20 19  1  0
 22 25  2  0
 22 23  1  0
 24 20  1  0
M  END
$$$$
