MTE.pdb
     RDKit          3D

 25 24  0  0  1  0  0  0  0  0999 V2000
    5.0632  -11.5747   27.0979 C   0  0  0  0  0  0  0  0  0  0  0  0
    6.3057  -11.7179   25.7868 S   0  0  0  0  0  0  0  0  0  0  0  0
    7.0116  -13.3783   25.7130 C   0  0  0  0  0  0  0  0  0  0  0  0
    5.9849  -14.4514   25.6987 C   0  0  0  0  0  0  0  0  0  0  0  0
    6.4857  -15.8511   25.6454 C   0  0  2  0  0  0  0  0  0  0  0  0
    7.3431  -16.1237   26.7934 N   0  0  0  0  0  0  0  0  0  0  0  0
    7.1733  -16.2225   24.3851 C   0  0  0  0  0  0  0  0  0  0  0  0
    6.4959  -16.7790   23.4894 O   0  0  0  0  0  0  0  0  0  0  0  0
    7.6497  -15.1853   21.4467 C   0  0  0  0  0  0  0  0  0  0  0  0
    9.0842  -15.4583   21.8205 C   0  0  1  0  0  0  0  0  0  0  0  0
    9.5601  -14.2075   22.3125 O   0  0  0  0  0  0  0  0  0  0  0  0
    9.2609  -16.4440   22.9479 C   0  0  2  0  0  0  0  0  0  0  0  0
    8.5322  -15.9920   24.1293 N   0  0  0  0  0  0  0  0  0  0  0  0
   10.6893  -16.6008   23.3756 C   0  0  0  0  0  0  0  0  0  0  0  0
   11.1442  -15.7961   24.2669 O   0  0  0  0  0  0  0  0  0  0  0  0
   11.5801  -17.5668   22.8781 N   0  0  0  0  0  0  0  0  0  0  0  0
   12.9366  -17.7419   23.2409 C   0  0  1  0  0  0  0  0  0  0  0  0
   13.4253  -19.1714   23.3612 C   0  0  0  0  0  0  0  0  0  0  0  0
   12.6883  -19.9646   24.4093 C   0  0  0  0  0  0  0  0  0  0  0  0
   13.5756  -21.0057   25.0138 C   0  0  0  0  0  0  0  0  0  0  0  0
   13.0943  -22.1508   25.1984 O   0  0  0  0  0  0  0  0  0  0  0  0
   13.9297  -16.9521   22.5105 C   0  0  0  0  0  0  0  0  0  0  0  0
   13.4975  -16.3567   21.3066 O   0  0  0  0  0  0  0  0  0  0  0  0
   14.8848  -20.7291   25.3625 O   0  0  0  0  0  0  0  0  0  0  0  0
   15.1021  -16.7708   22.8656 O   0  0  0  0  0  0  0  0  0  0  0  0
  2  1  1  0
  3  2  1  0
  4  3  1  0
  5  4  1  0
  5  6  1  1
  7  5  1  0
  7 13  1  0
  8  7  2  0
 10  9  1  1
 10 12  1  0
 11 10  1  0
 12 13  1  1
 12 14  1  0
 14 16  1  0
 15 14  2  0
 16 17  1  0
 17 22  1  0
 18 19  1  0
 17 18  1  6
 20 21  2  0
 20 19  1  0
 22 25  2  0
 22 23  1  0
 24 20  1  0
M  END
$$$$
