MTE.pdb
     RDKit          3D

 25 24  0  0  1  0  0  0  0  0999 V2000
    6.0639  -10.3707   27.2888 C   0  0  0  0  0  0  0  0  0  0  0  0
    6.3603  -11.7148   26.1103 S   0  0  0  0  0  0  0  0  0  0  0  0
    5.3391  -13.1594   26.4728 C   0  0  0  0  0  0  0  0  0  0  0  0
    5.5433  -14.2763   25.5153 C   0  0  0  0  0  0  0  0  0  0  0  0
    6.8238  -15.0247   25.6291 C   0  0  2  0  0  0  0  0  0  0  0  0
    7.8955  -14.1289   26.0489 N   0  0  0  0  0  0  0  0  0  0  0  0
    7.2213  -15.7741   24.4128 C   0  0  0  0  0  0  0  0  0  0  0  0
    6.4268  -16.6362   23.9693 O   0  0  0  0  0  0  0  0  0  0  0  0
    7.3309  -14.7864   21.1850 C   0  0  0  0  0  0  0  0  0  0  0  0
    8.6834  -15.4397   21.3102 C   0  0  1  0  0  0  0  0  0  0  0  0
    9.5838  -14.3471   21.4794 O   0  0  0  0  0  0  0  0  0  0  0  0
    8.8485  -16.3086   22.5316 C   0  0  2  0  0  0  0  0  0  0  0  0
    8.4280  -15.5818   23.7257 N   0  0  0  0  0  0  0  0  0  0  0  0
   10.2696  -16.7201   22.7747 C   0  0  0  0  0  0  0  0  0  0  0  0
   11.1277  -15.8013   23.0364 O   0  0  0  0  0  0  0  0  0  0  0  0
   10.7448  -18.0420   22.7416 N   0  0  0  0  0  0  0  0  0  0  0  0
   12.0552  -18.4840   23.0409 C   0  0  1  0  0  0  0  0  0  0  0  0
   12.1746  -19.6215   24.0351 C   0  0  0  0  0  0  0  0  0  0  0  0
   11.4790  -19.3429   25.3424 C   0  0  0  0  0  0  0  0  0  0  0  0
   12.1605  -20.0482   26.4716 C   0  0  0  0  0  0  0  0  0  0  0  0
   13.3945  -19.8665   26.6167 O   0  0  0  0  0  0  0  0  0  0  0  0
   12.9488  -18.7365   21.9089 C   0  0  0  0  0  0  0  0  0  0  0  0
   14.2967  -19.0121   22.2214 O   0  0  0  0  0  0  0  0  0  0  0  0
   11.4657  -20.8759   27.3343 O   0  0  0  0  0  0  0  0  0  0  0  0
   12.6143  -18.7262   20.7166 O   0  0  0  0  0  0  0  0  0  0  0  0
  2  1  1  0
  3  2  1  0
  4  3  1  0
  5  4  1  0
  5  6  1  6
  7  5  1  0
  7 13  1  0
  8  7  2  0
 10  9  1  1
 10 12  1  0
 11 10  1  0
 12 13  1  1
 12 14  1  0
 14 16  1  0
 15 14  2  0
 16 17  1  0
 17 22  1  0
 18 19  1  0
 17 18  1  6
 20 21  2  0
 20 19  1  0
 22 25  2  0
 22 23  1  0
 24 20  1  0
M  END
$$$$
