MTE.pdb
     RDKit          3D

 25 24  0  0  1  0  0  0  0  0999 V2000
    7.3457  -10.9493   25.9145 C   0  0  0  0  0  0  0  0  0  0  0  0
    6.4176  -12.4896   26.1368 S   0  0  0  0  0  0  0  0  0  0  0  0
    6.4096  -13.4887   24.6325 C   0  0  0  0  0  0  0  0  0  0  0  0
    7.4924  -13.1261   23.6828 C   0  0  0  0  0  0  0  0  0  0  0  0
    7.6420  -13.9916   22.4821 C   0  0  2  0  0  0  0  0  0  0  0  0
    6.3800  -14.0672   21.7549 N   0  0  0  0  0  0  0  0  0  0  0  0
    8.1668  -15.3519   22.7524 C   0  0  0  0  0  0  0  0  0  0  0  0
    7.3398  -16.2626   22.9927 O   0  0  0  0  0  0  0  0  0  0  0  0
    9.8654  -17.2309   20.3239 C   0  0  0  0  0  0  0  0  0  0  0  0
   10.7289  -17.4214   21.5446 C   0  0  1  0  0  0  0  0  0  0  0  0
   11.7995  -16.4976   21.3615 O   0  0  0  0  0  0  0  0  0  0  0  0
   10.0677  -17.0404   22.8451 C   0  0  2  0  0  0  0  0  0  0  0  0
    9.5281  -15.6869   22.7568 N   0  0  0  0  0  0  0  0  0  0  0  0
   11.0137  -17.0354   24.0083 C   0  0  0  0  0  0  0  0  0  0  0  0
   11.3462  -15.9015   24.5109 O   0  0  0  0  0  0  0  0  0  0  0  0
   11.5707  -18.1808   24.6015 N   0  0  0  0  0  0  0  0  0  0  0  0
   12.5142  -18.2214   25.6552 C   0  0  1  0  0  0  0  0  0  0  0  0
   11.9564  -18.1921   27.0639 C   0  0  0  0  0  0  0  0  0  0  0  0
   11.0978  -19.3875   27.3874 C   0  0  0  0  0  0  0  0  0  0  0  0
   10.7995  -19.4509   28.8516 C   0  0  0  0  0  0  0  0  0  0  0  0
   11.3658  -18.6182   29.6018 O   0  0  0  0  0  0  0  0  0  0  0  0
   13.5633  -19.2394   25.5724 C   0  0  0  0  0  0  0  0  0  0  0  0
   14.6377  -19.1099   26.4775 O   0  0  0  0  0  0  0  0  0  0  0  0
    9.9306  -20.3909   29.3745 O   0  0  0  0  0  0  0  0  0  0  0  0
   13.5768  -20.1906   24.7795 O   0  0  0  0  0  0  0  0  0  0  0  0
  2  1  1  0
  3  2  1  0
  4  3  1  0
  5  4  1  0
  5  6  1  1
  7  5  1  0
  7 13  1  0
  8  7  2  0
 10  9  1  6
 10 12  1  0
 11 10  1  0
 12 13  1  6
 12 14  1  0
 14 16  1  0
 15 14  2  0
 16 17  1  0
 17 22  1  0
 18 19  1  0
 17 18  1  1
 20 21  2  0
 20 19  1  0
 22 25  2  0
 22 23  1  0
 24 20  1  0
M  END
$$$$
