MTE.pdb
     RDKit          3D

 25 24  0  0  1  0  0  0  0  0999 V2000
    8.0885  -11.5015   21.2962 C   0  0  0  0  0  0  0  0  0  0  0  0
    8.0429  -11.7029   19.4961 S   0  0  0  0  0  0  0  0  0  0  0  0
    8.4459  -13.3923   19.0016 C   0  0  0  0  0  0  0  0  0  0  0  0
    8.4744  -14.3450   20.1406 C   0  0  0  0  0  0  0  0  0  0  0  0
    8.8107  -15.7578   19.8182 C   0  0  2  0  0  0  0  0  0  0  0  0
    7.9092  -16.2688   18.7919 N   0  0  0  0  0  0  0  0  0  0  0  0
    8.8433  -16.6751   20.9829 C   0  0  0  0  0  0  0  0  0  0  0  0
    7.7639  -17.1960   21.3497 O   0  0  0  0  0  0  0  0  0  0  0  0
    9.8409  -19.9445   21.3752 C   0  0  0  0  0  0  0  0  0  0  0  0
   10.6324  -19.2295   22.4402 C   0  0  1  0  0  0  0  0  0  0  0  0
   11.8834  -18.9498   21.8158 O   0  0  0  0  0  0  0  0  0  0  0  0
   10.0647  -17.8946   22.8521 C   0  0  2  0  0  0  0  0  0  0  0  0
   10.0028  -16.9984   21.7015 N   0  0  0  0  0  0  0  0  0  0  0  0
   10.8980  -17.1919   23.8816 C   0  0  0  0  0  0  0  0  0  0  0  0
   11.8745  -16.4645   23.4738 O   0  0  0  0  0  0  0  0  0  0  0  0
   10.6953  -17.2624   25.2702 N   0  0  0  0  0  0  0  0  0  0  0  0
   11.4851  -16.6603   26.2781 C   0  0  1  0  0  0  0  0  0  0  0  0
   10.7440  -15.8595   27.3298 C   0  0  0  0  0  0  0  0  0  0  0  0
   10.0083  -14.6727   26.7632 C   0  0  0  0  0  0  0  0  0  0  0  0
    9.2848  -13.9283   27.8399 C   0  0  0  0  0  0  0  0  0  0  0  0
    9.4908  -14.2719   29.0300 O   0  0  0  0  0  0  0  0  0  0  0  0
   12.4888  -17.5027   26.9313 C   0  0  0  0  0  0  0  0  0  0  0  0
   13.3817  -16.8514   27.8082 O   0  0  0  0  0  0  0  0  0  0  0  0
    8.4150  -12.8938   27.5475 O   0  0  0  0  0  0  0  0  0  0  0  0
   12.6098  -18.7250   26.7735 O   0  0  0  0  0  0  0  0  0  0  0  0
  2  1  1  0
  3  2  1  0
  4  3  1  0
  5  4  1  0
  5  6  1  6
  7  5  1  0
  7 13  1  0
  8  7  2  0
 10  9  1  6
 10 12  1  0
 11 10  1  0
 12 13  1  6
 12 14  1  0
 14 16  1  0
 15 14  2  0
 16 17  1  0
 17 22  1  0
 18 19  1  0
 17 18  1  1
 20 21  2  0
 20 19  1  0
 22 25  2  0
 22 23  1  0
 24 20  1  0
M  END
$$$$
