MTE.pdb
     RDKit          3D

 25 24  0  0  1  0  0  0  0  0999 V2000
    6.7635  -11.0078   28.4340 C   0  0  0  0  0  0  0  0  0  0  0  0
    6.1795  -11.1815   26.7275 S   0  0  0  0  0  0  0  0  0  0  0  0
    7.2699  -12.2398   25.7518 C   0  0  0  0  0  0  0  0  0  0  0  0
    7.1198  -13.6836   26.0659 C   0  0  0  0  0  0  0  0  0  0  0  0
    6.2241  -14.4689   25.1749 C   0  0  2  0  0  0  0  0  0  0  0  0
    5.1764  -15.1156   25.9568 N   0  0  0  0  0  0  0  0  0  0  0  0
    6.9116  -15.4585   24.3107 C   0  0  0  0  0  0  0  0  0  0  0  0
    6.2348  -16.4105   23.8559 O   0  0  0  0  0  0  0  0  0  0  0  0
    6.7967  -15.6601   21.6167 C   0  0  0  0  0  0  0  0  0  0  0  0
    8.2902  -15.8595   21.5793 C   0  0  1  0  0  0  0  0  0  0  0  0
    8.8027  -14.5838   21.2008 O   0  0  0  0  0  0  0  0  0  0  0  0
    8.9130  -16.1790   22.9150 C   0  0  2  0  0  0  0  0  0  0  0  0
    8.2698  -15.3997   23.9685 N   0  0  0  0  0  0  0  0  0  0  0  0
   10.3724  -15.8416   22.9809 C   0  0  0  0  0  0  0  0  0  0  0  0
   10.7136  -14.7490   23.5629 O   0  0  0  0  0  0  0  0  0  0  0  0
   11.4087  -16.6314   22.4548 N   0  0  0  0  0  0  0  0  0  0  0  0
   12.3929  -17.3407   23.1830 C   0  0  1  0  0  0  0  0  0  0  0  0
   11.9031  -18.1630   24.3580 C   0  0  0  0  0  0  0  0  0  0  0  0
   12.5452  -17.7730   25.6643 C   0  0  0  0  0  0  0  0  0  0  0  0
   12.0209  -18.6089   26.7882 C   0  0  0  0  0  0  0  0  0  0  0  0
   11.1886  -19.5076   26.5116 O   0  0  0  0  0  0  0  0  0  0  0  0
   13.3556  -18.1283   22.4107 C   0  0  0  0  0  0  0  0  0  0  0  0
   14.5882  -18.4060   23.0387 O   0  0  0  0  0  0  0  0  0  0  0  0
   12.4312  -18.4086   28.0935 O   0  0  0  0  0  0  0  0  0  0  0  0
   13.1710  -18.5618   21.2654 O   0  0  0  0  0  0  0  0  0  0  0  0
  2  1  1  0
  3  2  1  0
  4  3  1  0
  5  4  1  0
  5  6  1  1
  7  5  1  0
  7 13  1  0
  8  7  2  0
 10  9  1  1
 10 12  1  0
 11 10  1  0
 12 13  1  1
 12 14  1  0
 14 16  1  0
 15 14  2  0
 16 17  1  0
 17 22  1  0
 18 19  1  0
 17 18  1  1
 20 21  2  0
 20 19  1  0
 22 25  2  0
 22 23  1  0
 24 20  1  0
M  END
$$$$
