MTE.pdb
     RDKit          3D

 25 24  0  0  1  0  0  0  0  0999 V2000
    6.6731  -11.1570   26.8776 C   0  0  0  0  0  0  0  0  0  0  0  0
    6.3687  -12.9346   26.7023 S   0  0  0  0  0  0  0  0  0  0  0  0
    7.8561  -13.9037   27.0329 C   0  0  0  0  0  0  0  0  0  0  0  0
    7.6270  -15.3696   26.9666 C   0  0  0  0  0  0  0  0  0  0  0  0
    6.7080  -15.8521   25.9010 C   0  0  2  0  0  0  0  0  0  0  0  0
    5.8678  -16.9301   26.4101 N   0  0  0  0  0  0  0  0  0  0  0  0
    7.3720  -16.2636   24.6405 C   0  0  0  0  0  0  0  0  0  0  0  0
    7.9185  -17.3910   24.6065 O   0  0  0  0  0  0  0  0  0  0  0  0
    7.9822  -13.4337   21.4138 C   0  0  0  0  0  0  0  0  0  0  0  0
    7.7230  -14.8929   21.1392 C   0  0  1  0  0  0  0  0  0  0  0  0
    8.5761  -15.1972   20.0380 O   0  0  0  0  0  0  0  0  0  0  0  0
    8.1335  -15.8224   22.2534 C   0  0  2  0  0  0  0  0  0  0  0  0
    7.4289  -15.4740   23.4835 N   0  0  0  0  0  0  0  0  0  0  0  0
    9.5956  -15.7461   22.5764 C   0  0  0  0  0  0  0  0  0  0  0  0
   10.0062  -14.7576   23.2859 O   0  0  0  0  0  0  0  0  0  0  0  0
   10.5636  -16.6776   22.1646 N   0  0  0  0  0  0  0  0  0  0  0  0
   11.9616  -16.6004   22.3692 C   0  0  1  0  0  0  0  0  0  0  0  0
   12.5646  -17.6233   23.3108 C   0  0  0  0  0  0  0  0  0  0  0  0
   11.9324  -17.6165   24.6786 C   0  0  0  0  0  0  0  0  0  0  0  0
   12.4817  -18.7190   25.5269 C   0  0  0  0  0  0  0  0  0  0  0  0
   13.3976  -19.4294   25.0440 O   0  0  0  0  0  0  0  0  0  0  0  0
   12.8047  -16.4849   21.1777 C   0  0  0  0  0  0  0  0  0  0  0  0
   14.1753  -16.2346   21.3995 O   0  0  0  0  0  0  0  0  0  0  0  0
   12.0053  -18.9583   26.8028 O   0  0  0  0  0  0  0  0  0  0  0  0
   12.4100  -16.5892   20.0086 O   0  0  0  0  0  0  0  0  0  0  0  0
  2  1  1  0
  3  2  1  0
  4  3  1  0
  5  4  1  0
  5  6  1  1
  7  5  1  0
  7 13  1  0
  8  7  2  0
 10  9  1  1
 10 12  1  0
 11 10  1  0
 12 13  1  1
 12 14  1  0
 14 16  1  0
 15 14  2  0
 16 17  1  0
 17 22  1  0
 18 19  1  0
 17 18  1  6
 20 21  2  0
 20 19  1  0
 22 25  2  0
 22 23  1  0
 24 20  1  0
M  END
$$$$
