MTE.pdb
     RDKit          3D

 25 24  0  0  1  0  0  0  0  0999 V2000
    7.7783  -12.0973   28.1212 C   0  0  0  0  0  0  0  0  0  0  0  0
    6.4164  -11.6412   27.0164 S   0  0  0  0  0  0  0  0  0  0  0  0
    5.7157  -13.0845   26.1876 C   0  0  0  0  0  0  0  0  0  0  0  0
    6.7182  -13.8591   25.4126 C   0  0  0  0  0  0  0  0  0  0  0  0
    6.2339  -15.1006   24.7515 C   0  0  2  0  0  0  0  0  0  0  0  0
    5.5898  -15.9727   25.7271 N   0  0  0  0  0  0  0  0  0  0  0  0
    7.2640  -15.8470   23.9895 C   0  0  0  0  0  0  0  0  0  0  0  0
    7.7877  -16.8465   24.5351 O   0  0  0  0  0  0  0  0  0  0  0  0
    7.2631  -15.5205   19.9819 C   0  0  0  0  0  0  0  0  0  0  0  0
    8.6546  -15.8093   20.4842 C   0  0  1  0  0  0  0  0  0  0  0  0
    9.3294  -14.5575   20.3803 O   0  0  0  0  0  0  0  0  0  0  0  0
    8.7266  -16.2021   21.9383 C   0  0  2  0  0  0  0  0  0  0  0  0
    7.6911  -15.5081   22.6980 N   0  0  0  0  0  0  0  0  0  0  0  0
   10.0299  -15.8376   22.5836 C   0  0  0  0  0  0  0  0  0  0  0  0
   10.0596  -14.8006   23.3403 O   0  0  0  0  0  0  0  0  0  0  0  0
   11.2337  -16.5457   22.4291 N   0  0  0  0  0  0  0  0  0  0  0  0
   12.2287  -16.7592   23.4122 C   0  0  1  0  0  0  0  0  0  0  0  0
   11.7721  -17.3961   24.7093 C   0  0  0  0  0  0  0  0  0  0  0  0
   12.8977  -17.6334   25.6827 C   0  0  0  0  0  0  0  0  0  0  0  0
   12.3761  -18.1379   26.9905 C   0  0  0  0  0  0  0  0  0  0  0  0
   11.4745  -17.4729   27.5578 O   0  0  0  0  0  0  0  0  0  0  0  0
   13.4734  -17.3941   22.9746 C   0  0  0  0  0  0  0  0  0  0  0  0
   13.4406  -18.0459   21.7238 O   0  0  0  0  0  0  0  0  0  0  0  0
   12.8623  -19.2972   27.5664 O   0  0  0  0  0  0  0  0  0  0  0  0
   14.5357  -17.4009   23.6110 O   0  0  0  0  0  0  0  0  0  0  0  0
  2  1  1  0
  3  2  1  0
  4  3  1  0
  5  4  1  0
  5  6  1  1
  7  5  1  0
  7 13  1  0
  8  7  2  0
 10  9  1  1
 10 12  1  0
 11 10  1  0
 12 13  1  1
 12 14  1  0
 14 16  1  0
 15 14  2  0
 16 17  1  0
 17 22  1  0
 18 19  1  0
 17 18  1  1
 20 21  2  0
 20 19  1  0
 22 25  2  0
 22 23  1  0
 24 20  1  0
M  END
$$$$
