MTE.pdb
     RDKit          3D

 25 24  0  0  1  0  0  0  0  0999 V2000
    5.8171  -20.6051   20.8934 C   0  0  0  0  0  0  0  0  0  0  0  0
    5.3179  -20.8728   19.1723 S   0  0  0  0  0  0  0  0  0  0  0  0
    5.8091  -19.4963   18.1116 C   0  0  0  0  0  0  0  0  0  0  0  0
    6.5110  -18.4126   18.8456 C   0  0  0  0  0  0  0  0  0  0  0  0
    6.8663  -17.1995   18.0615 C   0  0  2  0  0  0  0  0  0  0  0  0
    7.1228  -17.5556   16.6706 N   0  0  0  0  0  0  0  0  0  0  0  0
    7.9934  -16.4072   18.6100 C   0  0  0  0  0  0  0  0  0  0  0  0
    9.1077  -16.5029   18.0442 O   0  0  0  0  0  0  0  0  0  0  0  0
    7.5604  -12.6838   19.4947 C   0  0  0  0  0  0  0  0  0  0  0  0
    8.3795  -13.3336   20.5804 C   0  0  1  0  0  0  0  0  0  0  0  0
    7.4413  -13.5771   21.6262 O   0  0  0  0  0  0  0  0  0  0  0  0
    8.9520  -14.6793   20.2126 C   0  0  2  0  0  0  0  0  0  0  0  0
    7.8947  -15.5575   19.7207 N   0  0  0  0  0  0  0  0  0  0  0  0
    9.5768  -15.3918   21.3744 C   0  0  0  0  0  0  0  0  0  0  0  0
    8.8995  -16.3192   21.9488 O   0  0  0  0  0  0  0  0  0  0  0  0
   10.8565  -15.1273   21.8908 N   0  0  0  0  0  0  0  0  0  0  0  0
   11.7969  -16.0733   22.3630 C   0  0  1  0  0  0  0  0  0  0  0  0
   11.9696  -17.3283   21.5312 C   0  0  0  0  0  0  0  0  0  0  0  0
   11.4712  -18.5715   22.2217 C   0  0  0  0  0  0  0  0  0  0  0  0
   11.9195  -19.8011   21.4980 C   0  0  0  0  0  0  0  0  0  0  0  0
   11.7848  -19.8286   20.2498 O   0  0  0  0  0  0  0  0  0  0  0  0
   13.1145  -15.5670   22.7521 C   0  0  0  0  0  0  0  0  0  0  0  0
   13.8821  -16.3963   23.5969 O   0  0  0  0  0  0  0  0  0  0  0  0
   12.4660  -20.8792   22.1698 O   0  0  0  0  0  0  0  0  0  0  0  0
   13.5971  -14.4823   22.4002 O   0  0  0  0  0  0  0  0  0  0  0  0
  2  1  1  0
  3  2  1  0
  4  3  1  0
  5  4  1  0
  5  6  1  6
  7  5  1  0
  7 13  1  0
  8  7  2  0
 10  9  1  6
 10 12  1  0
 11 10  1  0
 12 13  1  1
 12 14  1  0
 14 16  1  0
 15 14  2  0
 16 17  1  0
 17 22  1  0
 18 19  1  0
 17 18  1  6
 20 21  2  0
 20 19  1  0
 22 25  2  0
 22 23  1  0
 24 20  1  0
M  END
$$$$
