MTE.pdb
     RDKit          3D

 25 24  0  0  1  0  0  0  0  0999 V2000
    7.7425  -11.4251   27.4312 C   0  0  0  0  0  0  0  0  0  0  0  0
    6.2187  -12.4022   27.5127 S   0  0  0  0  0  0  0  0  0  0  0  0
    5.7065  -12.9798   25.8802 C   0  0  0  0  0  0  0  0  0  0  0  0
    6.7597  -13.7546   25.1758 C   0  0  0  0  0  0  0  0  0  0  0  0
    6.3830  -15.1145   24.7052 C   0  0  2  0  0  0  0  0  0  0  0  0
    5.8058  -15.8851   25.8007 N   0  0  0  0  0  0  0  0  0  0  0  0
    7.4759  -15.8770   24.0546 C   0  0  0  0  0  0  0  0  0  0  0  0
    7.8890  -16.9132   24.6261 O   0  0  0  0  0  0  0  0  0  0  0  0
    7.6087  -15.9030   20.0577 C   0  0  0  0  0  0  0  0  0  0  0  0
    8.9985  -15.9747   20.6366 C   0  0  1  0  0  0  0  0  0  0  0  0
    9.4909  -14.6410   20.5271 O   0  0  0  0  0  0  0  0  0  0  0  0
    9.0487  -16.3181   22.1041 C   0  0  2  0  0  0  0  0  0  0  0  0
    8.0780  -15.5150   22.8414 N   0  0  0  0  0  0  0  0  0  0  0  0
   10.3817  -16.0368   22.7302 C   0  0  0  0  0  0  0  0  0  0  0  0
   10.4563  -15.0850   23.5889 O   0  0  0  0  0  0  0  0  0  0  0  0
   11.5679  -16.7374   22.4538 N   0  0  0  0  0  0  0  0  0  0  0  0
   12.4615  -17.3036   23.3935 C   0  0  1  0  0  0  0  0  0  0  0  0
   11.8433  -18.1397   24.4959 C   0  0  0  0  0  0  0  0  0  0  0  0
   11.5080  -17.3416   25.7293 C   0  0  0  0  0  0  0  0  0  0  0  0
   11.7575  -18.1417   26.9680 C   0  0  0  0  0  0  0  0  0  0  0  0
   12.2381  -19.2941   26.8346 O   0  0  0  0  0  0  0  0  0  0  0  0
   13.6363  -17.9976   22.8625 C   0  0  0  0  0  0  0  0  0  0  0  0
   14.8708  -17.3248   22.9812 O   0  0  0  0  0  0  0  0  0  0  0  0
   11.4726  -17.6402   28.2248 O   0  0  0  0  0  0  0  0  0  0  0  0
   13.6267  -19.1135   22.3256 O   0  0  0  0  0  0  0  0  0  0  0  0
  2  1  1  0
  3  2  1  0
  4  3  1  0
  5  4  1  0
  5  6  1  1
  7  5  1  0
  7 13  1  0
  8  7  2  0
 10  9  1  1
 10 12  1  0
 11 10  1  0
 12 13  1  1
 12 14  1  0
 14 16  1  0
 15 14  2  0
 16 17  1  0
 17 22  1  0
 18 19  1  0
 17 18  1  6
 20 21  2  0
 20 19  1  0
 22 25  2  0
 22 23  1  0
 24 20  1  0
M  END
$$$$
