MTE.pdb
     RDKit          3D

 25 24  0  0  1  0  0  0  0  0999 V2000
    8.5207  -12.8378   18.6681 C   0  0  0  0  0  0  0  0  0  0  0  0
    7.8760  -12.8887   20.3608 S   0  0  0  0  0  0  0  0  0  0  0  0
    6.4077  -13.9323   20.4861 C   0  0  0  0  0  0  0  0  0  0  0  0
    6.7205  -15.3841   20.5025 C   0  0  0  0  0  0  0  0  0  0  0  0
    7.3395  -15.9176   21.7456 C   0  0  2  0  0  0  0  0  0  0  0  0
    7.6586  -14.8257   22.6584 N   0  0  0  0  0  0  0  0  0  0  0  0
    8.5272  -16.7797   21.5335 C   0  0  0  0  0  0  0  0  0  0  0  0
    8.3668  -17.8571   20.9133 O   0  0  0  0  0  0  0  0  0  0  0  0
   10.8365  -16.7247   19.2209 C   0  0  0  0  0  0  0  0  0  0  0  0
   11.6992  -16.7140   20.4567 C   0  0  1  0  0  0  0  0  0  0  0  0
   11.9422  -15.3302   20.7001 O   0  0  0  0  0  0  0  0  0  0  0  0
   11.0236  -17.2428   21.6968 C   0  0  2  0  0  0  0  0  0  0  0  0
    9.8189  -16.4690   21.9812 N   0  0  0  0  0  0  0  0  0  0  0  0
   11.8804  -17.1432   22.9231 C   0  0  0  0  0  0  0  0  0  0  0  0
   11.4453  -16.4439   23.9083 O   0  0  0  0  0  0  0  0  0  0  0  0
   13.1324  -17.7599   23.0861 N   0  0  0  0  0  0  0  0  0  0  0  0
   13.6420  -18.3548   24.2645 C   0  0  1  0  0  0  0  0  0  0  0  0
   12.7525  -19.3747   24.9464 C   0  0  0  0  0  0  0  0  0  0  0  0
   11.7413  -18.7539   25.8753 C   0  0  0  0  0  0  0  0  0  0  0  0
   11.7069  -19.4733   27.1860 C   0  0  0  0  0  0  0  0  0  0  0  0
   12.7989  -19.8574   27.6727 O   0  0  0  0  0  0  0  0  0  0  0  0
   15.0128  -18.8669   24.2140 C   0  0  0  0  0  0  0  0  0  0  0  0
   15.8712  -18.4695   25.2608 O   0  0  0  0  0  0  0  0  0  0  0  0
   10.5181  -19.7139   27.8502 O   0  0  0  0  0  0  0  0  0  0  0  0
   15.4671  -19.6112   23.3346 O   0  0  0  0  0  0  0  0  0  0  0  0
  2  1  1  0
  3  2  1  0
  4  3  1  0
  5  4  1  0
  5  6  1  1
  7  5  1  0
  7 13  1  0
  8  7  2  0
 10  9  1  6
 10 12  1  0
 11 10  1  0
 12 13  1  1
 12 14  1  0
 14 16  1  0
 15 14  2  0
 16 17  1  0
 17 22  1  0
 18 19  1  0
 17 18  1  6
 20 21  2  0
 20 19  1  0
 22 25  2  0
 22 23  1  0
 24 20  1  0
M  END
$$$$
