MTE.pdb
     RDKit          3D

 25 24  0  0  1  0  0  0  0  0999 V2000
    7.7179  -12.0982   28.0921 C   0  0  0  0  0  0  0  0  0  0  0  0
    6.4571  -11.5215   26.9254 S   0  0  0  0  0  0  0  0  0  0  0  0
    5.8578  -12.8605   25.8724 C   0  0  0  0  0  0  0  0  0  0  0  0
    6.9303  -13.7953   25.4462 C   0  0  0  0  0  0  0  0  0  0  0  0
    6.5035  -14.9835   24.6593 C   0  0  2  0  0  0  0  0  0  0  0  0
    5.4202  -15.6792   25.3446 N   0  0  0  0  0  0  0  0  0  0  0  0
    7.5916  -15.9302   24.3149 C   0  0  0  0  0  0  0  0  0  0  0  0
    7.7226  -16.9560   25.0232 O   0  0  0  0  0  0  0  0  0  0  0  0
    8.3631  -16.7626   20.5797 C   0  0  0  0  0  0  0  0  0  0  0  0
    9.6635  -16.6923   21.3385 C   0  0  1  0  0  0  0  0  0  0  0  0
   10.1930  -15.4112   21.0046 O   0  0  0  0  0  0  0  0  0  0  0  0
    9.5144  -16.7032   22.8390 C   0  0  2  0  0  0  0  0  0  0  0  0
    8.4843  -15.7534   23.2485 N   0  0  0  0  0  0  0  0  0  0  0  0
   10.7649  -16.2957   23.5588 C   0  0  0  0  0  0  0  0  0  0  0  0
   10.8243  -15.1064   24.0395 O   0  0  0  0  0  0  0  0  0  0  0  0
   11.8882  -17.1167   23.7549 N   0  0  0  0  0  0  0  0  0  0  0  0
   12.6328  -17.2710   24.9482 C   0  0  1  0  0  0  0  0  0  0  0  0
   11.8378  -17.5217   26.2137 C   0  0  0  0  0  0  0  0  0  0  0  0
   12.7038  -17.6893   27.4355 C   0  0  0  0  0  0  0  0  0  0  0  0
   11.9525  -18.3721   28.5337 C   0  0  0  0  0  0  0  0  0  0  0  0
   10.8828  -18.9584   28.2357 O   0  0  0  0  0  0  0  0  0  0  0  0
   13.7763  -18.1845   24.9074 C   0  0  0  0  0  0  0  0  0  0  0  0
   15.0067  -17.6724   25.3705 O   0  0  0  0  0  0  0  0  0  0  0  0
   12.4103  -18.3652   29.8386 O   0  0  0  0  0  0  0  0  0  0  0  0
   13.7437  -19.3546   24.5033 O   0  0  0  0  0  0  0  0  0  0  0  0
  2  1  1  0
  3  2  1  0
  4  3  1  0
  5  4  1  0
  5  6  1  1
  7  5  1  0
  7 13  1  0
  8  7  2  0
 10  9  1  6
 10 12  1  0
 11 10  1  0
 12 13  1  6
 12 14  1  0
 14 16  1  0
 15 14  2  0
 16 17  1  0
 17 22  1  0
 18 19  1  0
 17 18  1  1
 20 21  2  0
 20 19  1  0
 22 25  2  0
 22 23  1  0
 24 20  1  0
M  END
$$$$
