MTE.pdb
     RDKit          3D

 25 24  0  0  1  0  0  0  0  0999 V2000
    8.1570  -11.7604   27.8229 C   0  0  0  0  0  0  0  0  0  0  0  0
    6.4696  -11.7612   27.1628 S   0  0  0  0  0  0  0  0  0  0  0  0
    5.9565  -13.4119   26.6405 C   0  0  0  0  0  0  0  0  0  0  0  0
    6.7330  -13.9284   25.4847 C   0  0  0  0  0  0  0  0  0  0  0  0
    6.3444  -15.2677   24.9669 C   0  0  2  0  0  0  0  0  0  0  0  0
    5.8082  -16.0891   26.0462 N   0  0  0  0  0  0  0  0  0  0  0  0
    7.4163  -15.9952   24.2453 C   0  0  0  0  0  0  0  0  0  0  0  0
    7.7308  -17.1364   24.6575 O   0  0  0  0  0  0  0  0  0  0  0  0
    7.2732  -16.0371   20.4607 C   0  0  0  0  0  0  0  0  0  0  0  0
    8.7326  -15.9751   20.8321 C   0  0  1  0  0  0  0  0  0  0  0  0
    9.0918  -14.6136   20.6077 O   0  0  0  0  0  0  0  0  0  0  0  0
    9.0207  -16.2476   22.2870 C   0  0  2  0  0  0  0  0  0  0  0  0
    8.1017  -15.4904   23.1315 N   0  0  0  0  0  0  0  0  0  0  0  0
   10.4013  -15.8356   22.7019 C   0  0  0  0  0  0  0  0  0  0  0  0
   10.5231  -14.7950   23.4444 O   0  0  0  0  0  0  0  0  0  0  0  0
   11.5852  -16.5021   22.3436 N   0  0  0  0  0  0  0  0  0  0  0  0
   12.5725  -17.0146   23.2181 C   0  0  1  0  0  0  0  0  0  0  0  0
   12.0882  -17.9377   24.3180 C   0  0  0  0  0  0  0  0  0  0  0  0
   11.5839  -17.2012   25.5321 C   0  0  0  0  0  0  0  0  0  0  0  0
   11.4726  -18.1201   26.7069 C   0  0  0  0  0  0  0  0  0  0  0  0
   12.4616  -18.8437   26.9808 O   0  0  0  0  0  0  0  0  0  0  0  0
   13.7756  -17.5822   22.6065 C   0  0  0  0  0  0  0  0  0  0  0  0
   13.5808  -18.3813   21.4601 O   0  0  0  0  0  0  0  0  0  0  0  0
   10.3237  -18.1801   27.4742 O   0  0  0  0  0  0  0  0  0  0  0  0
   14.9329  -17.4152   23.0143 O   0  0  0  0  0  0  0  0  0  0  0  0
  2  1  1  0
  3  2  1  0
  4  3  1  0
  5  4  1  0
  5  6  1  1
  7  5  1  0
  7 13  1  0
  8  7  2  0
 10  9  1  1
 10 12  1  0
 11 10  1  0
 12 13  1  1
 12 14  1  0
 14 16  1  0
 15 14  2  0
 16 17  1  0
 17 22  1  0
 18 19  1  0
 17 18  1  6
 20 21  2  0
 20 19  1  0
 22 25  2  0
 22 23  1  0
 24 20  1  0
M  END
$$$$
