DWG.pdb
     RDKit          3D

 27 28  0  0  1  0  0  0  0  0999 V2000
   10.3560  -18.1619   20.4463 N   0  0  0  0  0  0  0  0  0  0  0  0
   11.3150  -17.1102   20.6523 C   0  0  1  0  0  0  0  0  0  0  0  0
   11.3779  -16.2374   19.4010 C   0  0  0  0  0  0  0  0  0  0  0  0
   11.8827  -17.0351   18.2808 C   0  0  0  0  0  0  0  0  0  0  0  0
   12.2198  -18.2390   18.4613 O   0  0  0  0  0  0  0  0  0  0  0  0
   10.8884  -16.2259   21.8142 C   0  0  0  0  0  0  0  0  0  0  0  0
   11.5403  -15.1952   22.0272 O   0  0  0  0  0  0  0  0  0  0  0  0
   12.0270  -16.5661   16.9872 O   0  0  0  0  0  0  0  0  0  0  0  0
    9.7920  -16.5933   22.5983 N   0  0  0  0  0  0  0  0  0  0  0  0
    9.2220  -15.9234   23.7255 C   0  0  1  0  0  0  0  0  0  0  0  0
    7.7380  -15.6316   23.5042 C   0  0  0  0  0  0  0  0  0  0  0  0
    7.0430  -15.0226   24.6395 C   0  0  0  0  0  0  0  0  0  0  0  0
    6.2180  -15.5240   25.6040 C   0  0  0  0  0  0  0  0  0  0  0  0
    5.8765  -14.5397   26.4777 N   0  0  0  0  0  0  0  0  0  0  0  0
    6.4866  -13.4142   26.0673 C   0  0  0  0  0  0  0  0  0  0  0  0
    6.4813  -12.1275   26.6241 C   0  0  0  0  0  0  0  0  0  0  0  0
    7.2016  -11.0922   26.0560 C   0  0  0  0  0  0  0  0  0  0  0  0
    7.9386  -11.3596   24.9074 C   0  0  0  0  0  0  0  0  0  0  0  0
    7.9260  -12.6326   24.3800 C   0  0  0  0  0  0  0  0  0  0  0  0
    7.2160  -13.6682   24.9357 C   0  0  0  0  0  0  0  0  0  0  0  0
    9.4663  -16.6736   24.9400 C   0  0  0  0  0  0  0  0  0  0  0  0
    9.0629  -16.3816   26.1051 O   0  0  0  0  0  0  0  0  0  0  0  0
   10.2378  -17.9017   24.9069 N   0  0  0  0  0  0  0  0  0  0  0  0
   10.4023  -18.6381   26.1627 C   0  0  0  0  0  0  0  0  0  0  0  0
   11.8614  -18.6905   26.4329 C   0  0  0  0  0  0  0  0  0  0  0  0
   12.5631  -19.7086   26.1750 O   0  0  0  0  0  0  0  0  0  0  0  0
   12.5745  -17.6186   26.9936 O   0  0  0  0  0  0  0  0  0  0  0  0
  2  1  1  6
  2  3  1  0
  3  4  1  0
  4  8  1  0
  5  4  2  0
  6  2  1  0
  7  6  2  0
  9  6  1  0
 10  9  1  0
 10 11  1  6
 11 12  1  0
 12 20  1  0
 13 12  2  0
 13 14  1  0
 14 15  1  0
 15 16  2  0
 16 17  1  0
 18 17  2  0
 19 18  1  0
 20 19  2  0
 20 15  1  0
 21 23  1  0
 21 10  1  0
 22 21  2  0
 24 23  1  0
 25 24  1  0
 25 27  1  0
 26 25  2  0
M  END
$$$$
