DWG.pdb
     RDKit          3D

 27 28  0  0  1  0  0  0  0  0999 V2000
    8.9752  -17.9751   22.1635 N   0  0  0  0  0  0  0  0  0  0  0  0
   10.1765  -17.1844   22.1727 C   0  0  1  0  0  0  0  0  0  0  0  0
   10.0572  -16.0798   21.1252 C   0  0  0  0  0  0  0  0  0  0  0  0
   10.0384  -16.6811   19.7896 C   0  0  0  0  0  0  0  0  0  0  0  0
   10.9918  -17.4195   19.4135 O   0  0  0  0  0  0  0  0  0  0  0  0
   10.3619  -16.5204   23.5286 C   0  0  0  0  0  0  0  0  0  0  0  0
   10.9817  -15.4494   23.5691 O   0  0  0  0  0  0  0  0  0  0  0  0
    9.0240  -16.5051   18.8653 O   0  0  0  0  0  0  0  0  0  0  0  0
    9.8384  -17.1256   24.6739 N   0  0  0  0  0  0  0  0  0  0  0  0
    9.9853  -16.7455   26.0444 C   0  0  1  0  0  0  0  0  0  0  0  0
    8.6275  -16.4776   26.6934 C   0  0  0  0  0  0  0  0  0  0  0  0
    7.7007  -15.6714   25.8973 C   0  0  0  0  0  0  0  0  0  0  0  0
    6.8127  -15.9787   24.9076 C   0  0  0  0  0  0  0  0  0  0  0  0
    6.1392  -14.8605   24.5272 N   0  0  0  0  0  0  0  0  0  0  0  0
    6.5997  -13.8442   25.2772 C   0  0  0  0  0  0  0  0  0  0  0  0
    6.2264  -12.4929   25.2973 C   0  0  0  0  0  0  0  0  0  0  0  0
    6.8129  -11.5950   26.1710 C   0  0  0  0  0  0  0  0  0  0  0  0
    7.7919  -12.0683   27.0379 C   0  0  0  0  0  0  0  0  0  0  0  0
    8.1408  -13.4007   26.9970 C   0  0  0  0  0  0  0  0  0  0  0  0
    7.5650  -14.3013   26.1354 C   0  0  0  0  0  0  0  0  0  0  0  0
   10.7613  -17.7330   26.7656 C   0  0  0  0  0  0  0  0  0  0  0  0
   11.3813  -17.5599   27.8570 O   0  0  0  0  0  0  0  0  0  0  0  0
   10.8878  -19.0866   26.2593 N   0  0  0  0  0  0  0  0  0  0  0  0
   12.2381  -19.6329   26.1025 C   0  0  0  0  0  0  0  0  0  0  0  0
   12.7647  -19.8559   27.4728 C   0  0  0  0  0  0  0  0  0  0  0  0
   13.2981  -18.9349   28.1528 O   0  0  0  0  0  0  0  0  0  0  0  0
   12.7122  -21.1014   28.1191 O   0  0  0  0  0  0  0  0  0  0  0  0
  2  1  1  1
  2  3  1  0
  3  4  1  0
  4  8  1  0
  5  4  2  0
  6  2  1  0
  7  6  2  0
  9  6  1  0
 10  9  1  0
 10 11  1  1
 11 12  1  0
 12 20  1  0
 13 12  2  0
 13 14  1  0
 14 15  1  0
 15 16  2  0
 16 17  1  0
 18 17  2  0
 19 18  1  0
 20 19  2  0
 20 15  1  0
 21 23  1  0
 21 10  1  0
 22 21  2  0
 24 23  1  0
 25 24  1  0
 25 27  1  0
 26 25  2  0
M  END
$$$$
