DWG.pdb
     RDKit          3D

 27 28  0  0  1  0  0  0  0  0999 V2000
    7.0121  -16.9293   20.6759 N   0  0  0  0  0  0  0  0  0  0  0  0
    8.3525  -17.2693   21.0709 C   0  0  1  0  0  0  0  0  0  0  0  0
    9.2414  -17.3247   19.8306 C   0  0  0  0  0  0  0  0  0  0  0  0
    8.7453  -18.3658   18.9272 C   0  0  0  0  0  0  0  0  0  0  0  0
    8.1216  -19.3619   19.3900 O   0  0  0  0  0  0  0  0  0  0  0  0
    8.9164  -16.2042   21.9990 C   0  0  0  0  0  0  0  0  0  0  0  0
    8.9484  -15.0365   21.5887 O   0  0  0  0  0  0  0  0  0  0  0  0
    8.9053  -18.3521   17.5530 O   0  0  0  0  0  0  0  0  0  0  0  0
    9.3768  -16.5642   23.2680 N   0  0  0  0  0  0  0  0  0  0  0  0
    9.8611  -15.7306   24.3239 C   0  0  1  0  0  0  0  0  0  0  0  0
    9.0610  -15.9435   25.6088 C   0  0  0  0  0  0  0  0  0  0  0  0
    7.7113  -15.3770   25.6077 C   0  0  0  0  0  0  0  0  0  0  0  0
    6.4747  -15.9176   25.4048 C   0  0  0  0  0  0  0  0  0  0  0  0
    5.5203  -14.9633   25.5697 N   0  0  0  0  0  0  0  0  0  0  0  0
    6.1524  -13.8176   25.8786 C   0  0  0  0  0  0  0  0  0  0  0  0
    5.6338  -12.5472   26.1661 C   0  0  0  0  0  0  0  0  0  0  0  0
    6.4606  -11.4857   26.4868 C   0  0  0  0  0  0  0  0  0  0  0  0
    7.8328  -11.7098   26.5176 C   0  0  0  0  0  0  0  0  0  0  0  0
    8.3165  -12.9676   26.2301 C   0  0  0  0  0  0  0  0  0  0  0  0
    7.5057  -14.0289   25.9118 C   0  0  0  0  0  0  0  0  0  0  0  0
   11.2832  -15.9267   24.5152 C   0  0  0  0  0  0  0  0  0  0  0  0
   11.9581  -15.6244   25.5439 O   0  0  0  0  0  0  0  0  0  0  0  0
   12.0921  -16.5314   23.4737 N   0  0  0  0  0  0  0  0  0  0  0  0
   13.5324  -16.6532   23.7127 C   0  0  0  0  0  0  0  0  0  0  0  0
   14.1025  -17.3271   22.5187 C   0  0  0  0  0  0  0  0  0  0  0  0
   15.3355  -17.5759   22.4043 O   0  0  0  0  0  0  0  0  0  0  0  0
   13.3213  -17.7398   21.4273 O   0  0  0  0  0  0  0  0  0  0  0  0
  2  1  1  6
  2  3  1  0
  3  4  1  0
  4  8  1  0
  5  4  2  0
  6  2  1  0
  7  6  2  0
  9  6  1  0
 10  9  1  0
 10 11  1  1
 11 12  1  0
 12 20  1  0
 13 12  2  0
 13 14  1  0
 14 15  1  0
 15 16  2  0
 16 17  1  0
 18 17  2  0
 19 18  1  0
 20 19  2  0
 20 15  1  0
 21 23  1  0
 21 10  1  0
 22 21  2  0
 24 23  1  0
 25 24  1  0
 25 27  1  0
 26 25  2  0
M  END
$$$$
