DWG.pdb
     RDKit          3D

 27 28  0  0  1  0  0  0  0  0999 V2000
    8.0774  -17.5809   21.3993 N   0  0  0  0  0  0  0  0  0  0  0  0
    8.8864  -16.4797   20.9508 C   0  0  1  0  0  0  0  0  0  0  0  0
    8.0255  -15.5318   20.1191 C   0  0  0  0  0  0  0  0  0  0  0  0
    7.7187  -16.1615   18.8325 C   0  0  0  0  0  0  0  0  0  0  0  0
    8.2040  -17.2927   18.5489 O   0  0  0  0  0  0  0  0  0  0  0  0
    9.4213  -15.6977   22.1408 C   0  0  0  0  0  0  0  0  0  0  0  0
    9.8108  -14.5390   21.9446 O   0  0  0  0  0  0  0  0  0  0  0  0
    6.9082  -15.6029   17.8603 O   0  0  0  0  0  0  0  0  0  0  0  0
    9.4600  -16.2964   23.4026 N   0  0  0  0  0  0  0  0  0  0  0  0
   10.0779  -15.8312   24.6051 C   0  0  1  0  0  0  0  0  0  0  0  0
    9.1292  -15.9518   25.7976 C   0  0  0  0  0  0  0  0  0  0  0  0
    7.8097  -15.3459   25.6124 C   0  0  0  0  0  0  0  0  0  0  0  0
    6.5919  -15.8547   25.2650 C   0  0  0  0  0  0  0  0  0  0  0  0
    5.6558  -14.8688   25.2866 N   0  0  0  0  0  0  0  0  0  0  0  0
    6.2805  -13.7349   25.6492 C   0  0  0  0  0  0  0  0  0  0  0  0
    5.7712  -12.4429   25.8412 C   0  0  0  0  0  0  0  0  0  0  0  0
    6.5847  -11.3984   26.2422 C   0  0  0  0  0  0  0  0  0  0  0  0
    7.9339  -11.6621   26.4524 C   0  0  0  0  0  0  0  0  0  0  0  0
    8.4091  -12.9406   26.2557 C   0  0  0  0  0  0  0  0  0  0  0  0
    7.6111  -13.9851   25.8591 C   0  0  0  0  0  0  0  0  0  0  0  0
   11.3376  -16.5110   24.8255 C   0  0  0  0  0  0  0  0  0  0  0  0
   11.5705  -17.4164   25.6806 O   0  0  0  0  0  0  0  0  0  0  0  0
   12.5020  -16.1867   24.0233 N   0  0  0  0  0  0  0  0  0  0  0  0
   13.7685  -16.8397   24.3638 C   0  0  0  0  0  0  0  0  0  0  0  0
   14.7690  -16.3599   23.3772 C   0  0  0  0  0  0  0  0  0  0  0  0
   15.1256  -17.0509   22.3818 O   0  0  0  0  0  0  0  0  0  0  0  0
   15.3956  -15.1068   23.4708 O   0  0  0  0  0  0  0  0  0  0  0  0
  2  1  1  1
  2  3  1  0
  3  4  1  0
  4  8  1  0
  5  4  2  0
  6  2  1  0
  7  6  2  0
  9  6  1  0
 10  9  1  0
 10 11  1  1
 11 12  1  0
 12 20  1  0
 13 12  2  0
 13 14  1  0
 14 15  1  0
 15 16  2  0
 16 17  1  0
 18 17  2  0
 19 18  1  0
 20 19  2  0
 20 15  1  0
 21 23  1  0
 21 10  1  0
 22 21  2  0
 24 23  1  0
 25 24  1  0
 25 27  1  0
 26 25  2  0
M  END
$$$$
