DWG.pdb
     RDKit          3D

 27 28  0  0  1  0  0  0  0  0999 V2000
    7.7318  -17.8681   21.6519 N   0  0  0  0  0  0  0  0  0  0  0  0
    8.5223  -16.8738   20.9775 C   0  0  1  0  0  0  0  0  0  0  0  0
    7.6065  -16.0017   20.1218 C   0  0  0  0  0  0  0  0  0  0  0  0
    7.4223  -16.6338   18.8132 C   0  0  0  0  0  0  0  0  0  0  0  0
    7.9564  -17.7521   18.5688 O   0  0  0  0  0  0  0  0  0  0  0  0
    9.2112  -15.9706   21.9892 C   0  0  0  0  0  0  0  0  0  0  0  0
    9.7706  -14.9498   21.5677 O   0  0  0  0  0  0  0  0  0  0  0  0
    6.6817  -16.0911   17.7782 O   0  0  0  0  0  0  0  0  0  0  0  0
    9.1966  -16.3104   23.3443 N   0  0  0  0  0  0  0  0  0  0  0  0
   10.0150  -15.8183   24.4084 C   0  0  1  0  0  0  0  0  0  0  0  0
    9.2311  -15.7379   25.7182 C   0  0  0  0  0  0  0  0  0  0  0  0
    7.8832  -15.1778   25.6084 C   0  0  0  0  0  0  0  0  0  0  0  0
    6.6677  -15.7263   25.3181 C   0  0  0  0  0  0  0  0  0  0  0  0
    5.6999  -14.7748   25.3997 N   0  0  0  0  0  0  0  0  0  0  0  0
    6.3022  -13.6230   25.7432 C   0  0  0  0  0  0  0  0  0  0  0  0
    5.7582  -12.3521   25.9766 C   0  0  0  0  0  0  0  0  0  0  0  0
    6.5542  -11.2833   26.3475 C   0  0  0  0  0  0  0  0  0  0  0  0
    7.9209  -11.5006   26.4848 C   0  0  0  0  0  0  0  0  0  0  0  0
    8.4300  -12.7591   26.2487 C   0  0  0  0  0  0  0  0  0  0  0  0
    7.6498  -13.8275   25.8813 C   0  0  0  0  0  0  0  0  0  0  0  0
   11.2215  -16.6101   24.5300 C   0  0  0  0  0  0  0  0  0  0  0  0
   11.3329  -17.7401   25.0920 O   0  0  0  0  0  0  0  0  0  0  0  0
   12.4746  -16.1371   23.9726 N   0  0  0  0  0  0  0  0  0  0  0  0
   13.6906  -16.8893   24.2920 C   0  0  0  0  0  0  0  0  0  0  0  0
   14.8062  -16.2053   23.5904 C   0  0  0  0  0  0  0  0  0  0  0  0
   14.6187  -15.2408   22.7967 O   0  0  0  0  0  0  0  0  0  0  0  0
   16.1516  -16.5734   23.7520 O   0  0  0  0  0  0  0  0  0  0  0  0
  2  1  1  1
  2  3  1  0
  3  4  1  0
  4  8  1  0
  5  4  2  0
  6  2  1  0
  7  6  2  0
  9  6  1  0
 10  9  1  0
 10 11  1  1
 11 12  1  0
 12 20  1  0
 13 12  2  0
 13 14  1  0
 14 15  1  0
 15 16  2  0
 16 17  1  0
 18 17  2  0
 19 18  1  0
 20 19  2  0
 20 15  1  0
 21 23  1  0
 21 10  1  0
 22 21  2  0
 24 23  1  0
 25 24  1  0
 25 27  1  0
 26 25  2  0
M  END
$$$$
