DWG.pdb
     RDKit          3D

 27 28  0  0  1  0  0  0  0  0999 V2000
    9.6161  -17.4662   21.5283 N   0  0  0  0  0  0  0  0  0  0  0  0
   10.9005  -17.1789   22.1080 C   0  0  1  0  0  0  0  0  0  0  0  0
   11.6783  -16.2577   21.1709 C   0  0  0  0  0  0  0  0  0  0  0  0
   11.9591  -16.9668   19.9202 C   0  0  0  0  0  0  0  0  0  0  0  0
   12.2016  -18.2063   19.9351 O   0  0  0  0  0  0  0  0  0  0  0  0
   10.7316  -16.4555   23.4354 C   0  0  0  0  0  0  0  0  0  0  0  0
   11.3924  -15.4253   23.6217 O   0  0  0  0  0  0  0  0  0  0  0  0
   11.9810  -16.3729   18.6708 O   0  0  0  0  0  0  0  0  0  0  0  0
    9.8515  -16.9635   24.3942 N   0  0  0  0  0  0  0  0  0  0  0  0
    9.5377  -16.4544   25.6929 C   0  0  1  0  0  0  0  0  0  0  0  0
    8.0495  -16.1280   25.8151 C   0  0  0  0  0  0  0  0  0  0  0  0
    7.5958  -14.9722   25.0398 C   0  0  0  0  0  0  0  0  0  0  0  0
    7.3827  -14.7705   23.7070 C   0  0  0  0  0  0  0  0  0  0  0  0
    6.8992  -13.5166   23.5007 N   0  0  0  0  0  0  0  0  0  0  0  0
    6.8046  -12.9237   24.7036 C   0  0  0  0  0  0  0  0  0  0  0  0
    6.3467  -11.6442   25.0483 C   0  0  0  0  0  0  0  0  0  0  0  0
    6.3066  -11.2223   26.3650 C   0  0  0  0  0  0  0  0  0  0  0  0
    6.7359  -12.1057   27.3496 C   0  0  0  0  0  0  0  0  0  0  0  0
    7.1821  -13.3571   26.9838 C   0  0  0  0  0  0  0  0  0  0  0  0
    7.2252  -13.7872   25.6806 C   0  0  0  0  0  0  0  0  0  0  0  0
    9.9931  -17.3675   26.7208 C   0  0  0  0  0  0  0  0  0  0  0  0
    9.8434  -17.2355   27.9720 O   0  0  0  0  0  0  0  0  0  0  0  0
   10.6958  -18.5865   26.3673 N   0  0  0  0  0  0  0  0  0  0  0  0
   11.0269  -19.5204   27.4464 C   0  0  0  0  0  0  0  0  0  0  0  0
   12.4851  -19.7817   27.3454 C   0  0  0  0  0  0  0  0  0  0  0  0
   12.9539  -20.9315   27.1143 O   0  0  0  0  0  0  0  0  0  0  0  0
   13.4545  -18.7773   27.4978 O   0  0  0  0  0  0  0  0  0  0  0  0
  2  1  1  6
  2  3  1  0
  3  4  1  0
  4  8  1  0
  5  4  2  0
  6  2  1  0
  7  6  2  0
  9  6  1  0
 10  9  1  0
 10 11  1  6
 11 12  1  0
 12 20  1  0
 13 12  2  0
 13 14  1  0
 14 15  1  0
 15 16  2  0
 16 17  1  0
 18 17  2  0
 19 18  1  0
 20 19  2  0
 20 15  1  0
 21 23  1  0
 21 10  1  0
 22 21  2  0
 24 23  1  0
 25 24  1  0
 25 27  1  0
 26 25  2  0
M  END
$$$$
