DWG.pdb
     RDKit          3D

 27 28  0  0  1  0  0  0  0  0999 V2000
   10.6143  -15.7851   18.1429 N   0  0  0  0  0  0  0  0  0  0  0  0
    9.6828  -16.4939   18.9785 C   0  0  1  0  0  0  0  0  0  0  0  0
   10.0259  -17.9817   18.9610 C   0  0  0  0  0  0  0  0  0  0  0  0
    9.9166  -18.4863   17.5901 C   0  0  0  0  0  0  0  0  0  0  0  0
   10.9573  -18.6755   16.8997 O   0  0  0  0  0  0  0  0  0  0  0  0
    9.7884  -16.0099   20.4167 C   0  0  0  0  0  0  0  0  0  0  0  0
   10.8771  -15.5603   20.7980 O   0  0  0  0  0  0  0  0  0  0  0  0
    8.7229  -18.7883   16.9592 O   0  0  0  0  0  0  0  0  0  0  0  0
    8.6743  -16.0847   21.2565 N   0  0  0  0  0  0  0  0  0  0  0  0
    8.5632  -15.7516   22.6424 C   0  0  1  0  0  0  0  0  0  0  0  0
    7.1466  -15.2948   22.9904 C   0  0  0  0  0  0  0  0  0  0  0  0
    6.9129  -15.0007   24.4052 C   0  0  0  0  0  0  0  0  0  0  0  0
    6.6634  -15.7885   25.4912 C   0  0  0  0  0  0  0  0  0  0  0  0
    6.5758  -15.0201   26.6095 N   0  0  0  0  0  0  0  0  0  0  0  0
    6.7713  -13.7446   26.2320 C   0  0  0  0  0  0  0  0  0  0  0  0
    6.8025  -12.5695   26.9962 C   0  0  0  0  0  0  0  0  0  0  0  0
    7.0435  -11.3373   26.4157 C   0  0  0  0  0  0  0  0  0  0  0  0
    7.2561  -11.2902   25.0422 C   0  0  0  0  0  0  0  0  0  0  0  0
    7.2192  -12.4596   24.3143 C   0  0  0  0  0  0  0  0  0  0  0  0
    6.9822  -13.6883   24.8795 C   0  0  0  0  0  0  0  0  0  0  0  0
    9.0107  -16.8541   23.4680 C   0  0  0  0  0  0  0  0  0  0  0  0
    8.4521  -17.9847   23.5901 O   0  0  0  0  0  0  0  0  0  0  0  0
   10.2178  -16.7381   24.2643 N   0  0  0  0  0  0  0  0  0  0  0  0
   10.6124  -17.8913   25.0772 C   0  0  0  0  0  0  0  0  0  0  0  0
   11.8258  -17.4821   25.8289 C   0  0  0  0  0  0  0  0  0  0  0  0
   12.3627  -18.2187   26.7033 O   0  0  0  0  0  0  0  0  0  0  0  0
   12.4703  -16.2507   25.6292 O   0  0  0  0  0  0  0  0  0  0  0  0
  2  1  1  6
  2  3  1  0
  3  4  1  0
  4  8  1  0
  5  4  2  0
  6  2  1  0
  7  6  2  0
  9  6  1  0
 10  9  1  0
 10 11  1  1
 11 12  1  0
 12 20  1  0
 13 12  2  0
 13 14  1  0
 14 15  1  0
 15 16  2  0
 16 17  1  0
 18 17  2  0
 19 18  1  0
 20 19  2  0
 20 15  1  0
 21 23  1  0
 21 10  1  0
 22 21  2  0
 24 23  1  0
 25 24  1  0
 25 27  1  0
 26 25  2  0
M  END
$$$$
