DWG.pdb
     RDKit          3D

 27 28  0  0  1  0  0  0  0  0999 V2000
    8.7360  -16.7153   21.0833 N   0  0  0  0  0  0  0  0  0  0  0  0
   10.0581  -16.9362   21.6043 C   0  0  1  0  0  0  0  0  0  0  0  0
   11.0844  -16.3935   20.6123 C   0  0  0  0  0  0  0  0  0  0  0  0
   11.1514  -17.2842   19.4512 C   0  0  0  0  0  0  0  0  0  0  0  0
   10.9586  -18.5246   19.5920 O   0  0  0  0  0  0  0  0  0  0  0  0
   10.2409  -16.1891   22.9166 C   0  0  0  0  0  0  0  0  0  0  0  0
   10.6298  -15.0149   22.8653 O   0  0  0  0  0  0  0  0  0  0  0  0
   11.4169  -16.8679   18.1587 O   0  0  0  0  0  0  0  0  0  0  0  0
    9.9710  -16.8358   24.1253 N   0  0  0  0  0  0  0  0  0  0  0  0
   10.1236  -16.3529   25.4624 C   0  0  1  0  0  0  0  0  0  0  0  0
    8.7980  -16.3985   26.2223 C   0  0  0  0  0  0  0  0  0  0  0  0
    7.7213  -15.5864   25.6534 C   0  0  0  0  0  0  0  0  0  0  0  0
    6.6815  -15.8725   24.8171 C   0  0  0  0  0  0  0  0  0  0  0  0
    5.9184  -14.7625   24.6318 N   0  0  0  0  0  0  0  0  0  0  0  0
    6.4742  -13.7728   25.3522 C   0  0  0  0  0  0  0  0  0  0  0  0
    6.0705  -12.4410   25.5226 C   0  0  0  0  0  0  0  0  0  0  0  0
    6.7756  -11.5713   26.3349 C   0  0  0  0  0  0  0  0  0  0  0  0
    7.9064  -12.0532   26.9853 C   0  0  0  0  0  0  0  0  0  0  0  0
    8.2819  -13.3660   26.8000 C   0  0  0  0  0  0  0  0  0  0  0  0
    7.5894  -14.2387   25.9974 C   0  0  0  0  0  0  0  0  0  0  0  0
   11.1808  -17.0700   26.1447 C   0  0  0  0  0  0  0  0  0  0  0  0
   11.1379  -17.5478   27.3173 O   0  0  0  0  0  0  0  0  0  0  0  0
   12.4502  -17.3159   25.4869 N   0  0  0  0  0  0  0  0  0  0  0  0
   13.5050  -17.9725   26.2632 C   0  0  0  0  0  0  0  0  0  0  0  0
   14.6165  -18.2461   25.3175 C   0  0  0  0  0  0  0  0  0  0  0  0
   14.5515  -17.9521   24.0908 O   0  0  0  0  0  0  0  0  0  0  0  0
   15.8224  -18.8501   25.7085 O   0  0  0  0  0  0  0  0  0  0  0  0
  2  1  1  6
  2  3  1  0
  3  4  1  0
  4  8  1  0
  5  4  2  0
  6  2  1  0
  7  6  2  0
  9  6  1  0
 10  9  1  0
 10 11  1  1
 11 12  1  0
 12 20  1  0
 13 12  2  0
 13 14  1  0
 14 15  1  0
 15 16  2  0
 16 17  1  0
 18 17  2  0
 19 18  1  0
 20 19  2  0
 20 15  1  0
 21 23  1  0
 21 10  1  0
 22 21  2  0
 24 23  1  0
 25 24  1  0
 25 27  1  0
 26 25  2  0
M  END
$$$$
