DWG.pdb
     RDKit          3D

 27 28  0  0  1  0  0  0  0  0999 V2000
    8.2134  -17.5581   21.9062 N   0  0  0  0  0  0  0  0  0  0  0  0
    9.1483  -16.5388   21.5120 C   0  0  1  0  0  0  0  0  0  0  0  0
    8.4225  -15.4921   20.6699 C   0  0  0  0  0  0  0  0  0  0  0  0
    8.0054  -16.0967   19.4025 C   0  0  0  0  0  0  0  0  0  0  0  0
    8.4617  -17.2227   19.0570 O   0  0  0  0  0  0  0  0  0  0  0  0
    9.7140  -15.8378   22.7376 C   0  0  0  0  0  0  0  0  0  0  0  0
   10.2253  -14.7210   22.5816 O   0  0  0  0  0  0  0  0  0  0  0  0
    7.1162  -15.5187   18.5138 O   0  0  0  0  0  0  0  0  0  0  0  0
    9.6448  -16.4611   23.9861 N   0  0  0  0  0  0  0  0  0  0  0  0
   10.2205  -16.0575   25.2310 C   0  0  1  0  0  0  0  0  0  0  0  0
    9.1806  -16.0675   26.3513 C   0  0  0  0  0  0  0  0  0  0  0  0
    7.8897  -15.4659   26.0132 C   0  0  0  0  0  0  0  0  0  0  0  0
    6.6914  -15.9903   25.6239 C   0  0  0  0  0  0  0  0  0  0  0  0
    5.7748  -14.9957   25.4852 N   0  0  0  0  0  0  0  0  0  0  0  0
    6.3922  -13.8405   25.7881 C   0  0  0  0  0  0  0  0  0  0  0  0
    5.8943  -12.5303   25.8224 C   0  0  0  0  0  0  0  0  0  0  0  0
    6.6956  -11.4629   26.1856 C   0  0  0  0  0  0  0  0  0  0  0  0
    8.0206  -11.7218   26.5193 C   0  0  0  0  0  0  0  0  0  0  0  0
    8.4850  -13.0185   26.4765 C   0  0  0  0  0  0  0  0  0  0  0  0
    7.6989  -14.0858   26.1188 C   0  0  0  0  0  0  0  0  0  0  0  0
   11.3803  -16.8675   25.5414 C   0  0  0  0  0  0  0  0  0  0  0  0
   12.0051  -16.9056   26.6429 O   0  0  0  0  0  0  0  0  0  0  0  0
   11.9450  -17.7605   24.5472 N   0  0  0  0  0  0  0  0  0  0  0  0
   13.0753  -18.6015   24.9490 C   0  0  0  0  0  0  0  0  0  0  0  0
   14.3060  -17.8736   24.5486 C   0  0  0  0  0  0  0  0  0  0  0  0
   14.2834  -16.8812   23.7676 O   0  0  0  0  0  0  0  0  0  0  0  0
   15.5863  -18.2277   25.0036 O   0  0  0  0  0  0  0  0  0  0  0  0
  2  1  1  1
  2  3  1  0
  3  4  1  0
  4  8  1  0
  5  4  2  0
  6  2  1  0
  7  6  2  0
  9  6  1  0
 10  9  1  0
 10 11  1  1
 11 12  1  0
 12 20  1  0
 13 12  2  0
 13 14  1  0
 14 15  1  0
 15 16  2  0
 16 17  1  0
 18 17  2  0
 19 18  1  0
 20 19  2  0
 20 15  1  0
 21 23  1  0
 21 10  1  0
 22 21  2  0
 24 23  1  0
 25 24  1  0
 25 27  1  0
 26 25  2  0
M  END
$$$$
