DWG.pdb
     RDKit          3D

 27 28  0  0  1  0  0  0  0  0999 V2000
    8.3192  -17.8274   22.0420 N   0  0  0  0  0  0  0  0  0  0  0  0
    9.3387  -16.8688   21.7104 C   0  0  1  0  0  0  0  0  0  0  0  0
    8.7774  -15.8694   20.7016 C   0  0  0  0  0  0  0  0  0  0  0  0
    8.3919  -16.5808   19.4805 C   0  0  0  0  0  0  0  0  0  0  0  0
    7.3172  -16.2844   18.8867 O   0  0  0  0  0  0  0  0  0  0  0  0
    9.7574  -16.0923   22.9495 C   0  0  0  0  0  0  0  0  0  0  0  0
   10.1402  -14.9245   22.7993 O   0  0  0  0  0  0  0  0  0  0  0  0
    9.1343  -17.5908   18.8946 O   0  0  0  0  0  0  0  0  0  0  0  0
    9.7015  -16.7059   24.2035 N   0  0  0  0  0  0  0  0  0  0  0  0
   10.2195  -16.2511   25.4561 C   0  0  1  0  0  0  0  0  0  0  0  0
    9.1106  -16.1229   26.5003 C   0  0  0  0  0  0  0  0  0  0  0  0
    7.8550  -15.5489   26.0136 C   0  0  0  0  0  0  0  0  0  0  0  0
    6.7155  -16.0997   25.5031 C   0  0  0  0  0  0  0  0  0  0  0  0
    5.8036  -15.1235   25.2497 N   0  0  0  0  0  0  0  0  0  0  0  0
    6.3651  -13.9536   25.6011 C   0  0  0  0  0  0  0  0  0  0  0  0
    5.8451  -12.6522   25.5608 C   0  0  0  0  0  0  0  0  0  0  0  0
    6.5841  -11.5659   25.9937 C   0  0  0  0  0  0  0  0  0  0  0  0
    7.8684  -11.7968   26.4746 C   0  0  0  0  0  0  0  0  0  0  0  0
    8.3558  -13.0854   26.5026 C   0  0  0  0  0  0  0  0  0  0  0  0
    7.6313  -14.1712   26.0768 C   0  0  0  0  0  0  0  0  0  0  0  0
   11.3036  -17.1037   25.8979 C   0  0  0  0  0  0  0  0  0  0  0  0
   12.1362  -16.8545   26.8198 O   0  0  0  0  0  0  0  0  0  0  0  0
   11.5255  -18.3968   25.2788 N   0  0  0  0  0  0  0  0  0  0  0  0
   12.6410  -18.5200   24.3371 C   0  0  0  0  0  0  0  0  0  0  0  0
   13.8450  -18.8327   25.1479 C   0  0  0  0  0  0  0  0  0  0  0  0
   14.8750  -19.3709   24.6532 O   0  0  0  0  0  0  0  0  0  0  0  0
   13.9348  -18.5568   26.5218 O   0  0  0  0  0  0  0  0  0  0  0  0
  2  1  1  1
  2  3  1  0
  3  4  1  0
  4  8  1  0
  5  4  2  0
  6  2  1  0
  7  6  2  0
  9  6  1  0
 10  9  1  0
 10 11  1  1
 11 12  1  0
 12 20  1  0
 13 12  2  0
 13 14  1  0
 14 15  1  0
 15 16  2  0
 16 17  1  0
 18 17  2  0
 19 18  1  0
 20 19  2  0
 20 15  1  0
 21 23  1  0
 21 10  1  0
 22 21  2  0
 24 23  1  0
 25 24  1  0
 25 27  1  0
 26 25  2  0
M  END
$$$$
