DWG.pdb
     RDKit          3D

 27 28  0  0  1  0  0  0  0  0999 V2000
    6.9229  -16.9371   20.9863 N   0  0  0  0  0  0  0  0  0  0  0  0
    8.3468  -16.7369   20.9574 C   0  0  1  0  0  0  0  0  0  0  0  0
    8.7370  -16.1072   19.6222 C   0  0  0  0  0  0  0  0  0  0  0  0
    8.7186  -17.1359   18.5795 C   0  0  0  0  0  0  0  0  0  0  0  0
    8.1938  -16.8912   17.4569 O   0  0  0  0  0  0  0  0  0  0  0  0
    8.7688  -15.7808   22.0626 C   0  0  0  0  0  0  0  0  0  0  0  0
    8.8403  -14.5753   21.7895 O   0  0  0  0  0  0  0  0  0  0  0  0
    9.2498  -18.4055   18.7220 O   0  0  0  0  0  0  0  0  0  0  0  0
    9.0609  -16.2783   23.3350 N   0  0  0  0  0  0  0  0  0  0  0  0
    9.9485  -15.7571   24.3274 C   0  0  1  0  0  0  0  0  0  0  0  0
    9.3122  -15.7992   25.7166 C   0  0  0  0  0  0  0  0  0  0  0  0
    7.9457  -15.2806   25.7958 C   0  0  0  0  0  0  0  0  0  0  0  0
    6.7189  -15.8676   25.6825 C   0  0  0  0  0  0  0  0  0  0  0  0
    5.7433  -14.9449   25.8958 N   0  0  0  0  0  0  0  0  0  0  0  0
    6.3523  -13.7727   26.1459 C   0  0  0  0  0  0  0  0  0  0  0  0
    5.8078  -12.5166   26.4482 C   0  0  0  0  0  0  0  0  0  0  0  0
    6.6149  -11.4213   26.6985 C   0  0  0  0  0  0  0  0  0  0  0  0
    7.9933  -11.5965   26.6423 C   0  0  0  0  0  0  0  0  0  0  0  0
    8.5025  -12.8412   26.3420 C   0  0  0  0  0  0  0  0  0  0  0  0
    7.7116  -13.9356   26.0931 C   0  0  0  0  0  0  0  0  0  0  0  0
   11.2239  -16.4415   24.2788 C   0  0  0  0  0  0  0  0  0  0  0  0
   11.7347  -17.1577   25.1907 O   0  0  0  0  0  0  0  0  0  0  0  0
   12.0634  -16.3562   23.0987 N   0  0  0  0  0  0  0  0  0  0  0  0
   13.2997  -15.5762   23.1958 C   0  0  0  0  0  0  0  0  0  0  0  0
   14.4185  -16.5513   23.1478 C   0  0  0  0  0  0  0  0  0  0  0  0
   15.5977  -16.2479   23.4837 O   0  0  0  0  0  0  0  0  0  0  0  0
   14.2565  -17.8813   22.7276 O   0  0  0  0  0  0  0  0  0  0  0  0
  2  1  1  6
  2  3  1  0
  3  4  1  0
  4  8  1  0
  5  4  2  0
  6  2  1  0
  7  6  2  0
  9  6  1  0
 10  9  1  0
 10 11  1  1
 11 12  1  0
 12 20  1  0
 13 12  2  0
 13 14  1  0
 14 15  1  0
 15 16  2  0
 16 17  1  0
 18 17  2  0
 19 18  1  0
 20 19  2  0
 20 15  1  0
 21 23  1  0
 21 10  1  0
 22 21  2  0
 24 23  1  0
 25 24  1  0
 25 27  1  0
 26 25  2  0
M  END
$$$$
