DWG.pdb
     RDKit          3D

 27 28  0  0  1  0  0  0  0  0999 V2000
   10.1814  -18.3548   22.2012 N   0  0  0  0  0  0  0  0  0  0  0  0
   11.2360  -17.3933   22.3793 C   0  0  1  0  0  0  0  0  0  0  0  0
   11.1896  -16.3816   21.2365 C   0  0  0  0  0  0  0  0  0  0  0  0
   11.5570  -17.0493   19.9855 C   0  0  0  0  0  0  0  0  0  0  0  0
   10.8638  -16.8710   18.9447 O   0  0  0  0  0  0  0  0  0  0  0  0
   11.0425  -16.6317   23.6817 C   0  0  0  0  0  0  0  0  0  0  0  0
   11.7794  -15.6610   23.9000 O   0  0  0  0  0  0  0  0  0  0  0  0
   12.6438  -17.8926   19.8373 O   0  0  0  0  0  0  0  0  0  0  0  0
   10.0564  -17.0401   24.5833 N   0  0  0  0  0  0  0  0  0  0  0  0
    9.7043  -16.4819   25.8516 C   0  0  1  0  0  0  0  0  0  0  0  0
    8.1952  -16.2642   25.9612 C   0  0  0  0  0  0  0  0  0  0  0  0
    7.6542  -15.1932   25.1228 C   0  0  0  0  0  0  0  0  0  0  0  0
    7.2269  -15.1503   23.8274 C   0  0  0  0  0  0  0  0  0  0  0  0
    6.7550  -13.9086   23.5371 N   0  0  0  0  0  0  0  0  0  0  0  0
    6.8821  -13.1646   24.6496 C   0  0  0  0  0  0  0  0  0  0  0  0
    6.5286  -11.8294   24.8904 C   0  0  0  0  0  0  0  0  0  0  0  0
    6.7233  -11.2431   26.1281 C   0  0  0  0  0  0  0  0  0  0  0  0
    7.2839  -12.0166   27.1387 C   0  0  0  0  0  0  0  0  0  0  0  0
    7.6231  -13.3260   26.8754 C   0  0  0  0  0  0  0  0  0  0  0  0
    7.4336  -13.9188   25.6516 C   0  0  0  0  0  0  0  0  0  0  0  0
   10.2284  -17.2958   26.9288 C   0  0  0  0  0  0  0  0  0  0  0  0
   10.0926  -17.0874   28.1711 O   0  0  0  0  0  0  0  0  0  0  0  0
   10.9937  -18.4947   26.6434 N   0  0  0  0  0  0  0  0  0  0  0  0
   11.5275  -19.2500   27.7796 C   0  0  0  0  0  0  0  0  0  0  0  0
   12.2218  -20.4330   27.2110 C   0  0  0  0  0  0  0  0  0  0  0  0
   12.2447  -20.6753   25.9716 O   0  0  0  0  0  0  0  0  0  0  0  0
   12.9050  -21.3718   28.0007 O   0  0  0  0  0  0  0  0  0  0  0  0
  2  1  1  6
  2  3  1  0
  3  4  1  0
  4  8  1  0
  5  4  2  0
  6  2  1  0
  7  6  2  0
  9  6  1  0
 10  9  1  0
 10 11  1  1
 11 12  1  0
 12 20  1  0
 13 12  2  0
 13 14  1  0
 14 15  1  0
 15 16  2  0
 16 17  1  0
 18 17  2  0
 19 18  1  0
 20 19  2  0
 20 15  1  0
 21 23  1  0
 21 10  1  0
 22 21  2  0
 24 23  1  0
 25 24  1  0
 25 27  1  0
 26 25  2  0
M  END
$$$$
