DWG.pdb
     RDKit          3D

 27 28  0  0  1  0  0  0  0  0999 V2000
    7.8840  -17.5042   21.6384 N   0  0  0  0  0  0  0  0  0  0  0  0
    9.0101  -16.7517   21.1548 C   0  0  1  0  0  0  0  0  0  0  0  0
    8.5372  -15.7803   20.0756 C   0  0  0  0  0  0  0  0  0  0  0  0
    8.2569  -16.5246   18.8455 C   0  0  0  0  0  0  0  0  0  0  0  0
    8.6048  -17.7346   18.7435 O   0  0  0  0  0  0  0  0  0  0  0  0
    9.6215  -15.9324   22.2812 C   0  0  0  0  0  0  0  0  0  0  0  0
   10.3098  -14.9499   21.9751 O   0  0  0  0  0  0  0  0  0  0  0  0
    7.6154  -15.9965   17.7391 O   0  0  0  0  0  0  0  0  0  0  0  0
    9.3959  -16.3034   23.6091 N   0  0  0  0  0  0  0  0  0  0  0  0
   10.0489  -15.8502   24.7976 C   0  0  1  0  0  0  0  0  0  0  0  0
    9.1171  -15.9308   26.0066 C   0  0  0  0  0  0  0  0  0  0  0  0
    7.7748  -15.3846   25.8007 C   0  0  0  0  0  0  0  0  0  0  0  0
    6.5904  -15.9441   25.4175 C   0  0  0  0  0  0  0  0  0  0  0  0
    5.6085  -15.0037   25.4331 N   0  0  0  0  0  0  0  0  0  0  0  0
    6.1706  -13.8480   25.8277 C   0  0  0  0  0  0  0  0  0  0  0  0
    5.5965  -12.5847   26.0281 C   0  0  0  0  0  0  0  0  0  0  0  0
    6.3506  -11.5101   26.4640 C   0  0  0  0  0  0  0  0  0  0  0  0
    7.7058  -11.7136   26.7009 C   0  0  0  0  0  0  0  0  0  0  0  0
    8.2452  -12.9648   26.4952 C   0  0  0  0  0  0  0  0  0  0  0  0
    7.5065  -14.0389   26.0641 C   0  0  0  0  0  0  0  0  0  0  0  0
   11.2891  -16.5696   25.0023 C   0  0  0  0  0  0  0  0  0  0  0  0
   12.1951  -16.2937   25.8440 O   0  0  0  0  0  0  0  0  0  0  0  0
   11.6021  -17.7428   24.2085 N   0  0  0  0  0  0  0  0  0  0  0  0
   12.9197  -18.3573   24.3892 C   0  0  0  0  0  0  0  0  0  0  0  0
   12.7034  -19.5938   25.1822 C   0  0  0  0  0  0  0  0  0  0  0  0
   11.7188  -20.3608   24.9878 O   0  0  0  0  0  0  0  0  0  0  0  0
   13.5709  -20.0077   26.2059 O   0  0  0  0  0  0  0  0  0  0  0  0
  2  1  1  1
  2  3  1  0
  3  4  1  0
  4  8  1  0
  5  4  2  0
  6  2  1  0
  7  6  2  0
  9  6  1  0
 10  9  1  0
 10 11  1  1
 11 12  1  0
 12 20  1  0
 13 12  2  0
 13 14  1  0
 14 15  1  0
 15 16  2  0
 16 17  1  0
 18 17  2  0
 19 18  1  0
 20 19  2  0
 20 15  1  0
 21 23  1  0
 21 10  1  0
 22 21  2  0
 24 23  1  0
 25 24  1  0
 25 27  1  0
 26 25  2  0
M  END
$$$$
