DWG.pdb
     RDKit          3D

 27 28  0  0  1  0  0  0  0  0999 V2000
    8.5022  -16.2322   20.4480 N   0  0  0  0  0  0  0  0  0  0  0  0
    9.0555  -17.0627   21.4836 C   0  0  1  0  0  0  0  0  0  0  0  0
   10.2008  -17.8898   20.9039 C   0  0  0  0  0  0  0  0  0  0  0  0
    9.6875  -18.7336   19.8220 C   0  0  0  0  0  0  0  0  0  0  0  0
   10.0669  -18.5399   18.6328 O   0  0  0  0  0  0  0  0  0  0  0  0
    9.6235  -16.2038   22.6032 C   0  0  0  0  0  0  0  0  0  0  0  0
   10.1399  -15.1210   22.2973 O   0  0  0  0  0  0  0  0  0  0  0  0
    8.7868  -19.7692   19.9962 O   0  0  0  0  0  0  0  0  0  0  0  0
    9.5503  -16.6511   23.9247 N   0  0  0  0  0  0  0  0  0  0  0  0
   10.1567  -16.1048   25.0987 C   0  0  1  0  0  0  0  0  0  0  0  0
    9.1709  -16.0707   26.2665 C   0  0  0  0  0  0  0  0  0  0  0  0
    7.8704  -15.4672   25.9712 C   0  0  0  0  0  0  0  0  0  0  0  0
    6.6681  -15.9870   25.5881 C   0  0  0  0  0  0  0  0  0  0  0  0
    5.7432  -14.9945   25.4973 N   0  0  0  0  0  0  0  0  0  0  0  0
    6.3595  -13.8453   25.8243 C   0  0  0  0  0  0  0  0  0  0  0  0
    5.8546  -12.5400   25.9083 C   0  0  0  0  0  0  0  0  0  0  0  0
    6.6564  -11.4792   26.2896 C   0  0  0  0  0  0  0  0  0  0  0  0
    7.9888  -11.7398   26.5904 C   0  0  0  0  0  0  0  0  0  0  0  0
    8.4600  -13.0315   26.4989 C   0  0  0  0  0  0  0  0  0  0  0  0
    7.6736  -14.0923   26.1230 C   0  0  0  0  0  0  0  0  0  0  0  0
   11.3756  -16.8177   25.4203 C   0  0  0  0  0  0  0  0  0  0  0  0
   12.0772  -16.6851   26.4670 O   0  0  0  0  0  0  0  0  0  0  0  0
   11.9146  -17.8082   24.5077 N   0  0  0  0  0  0  0  0  0  0  0  0
   13.1644  -18.4738   24.8837 C   0  0  0  0  0  0  0  0  0  0  0  0
   14.2504  -17.7794   24.1467 C   0  0  0  0  0  0  0  0  0  0  0  0
   14.1922  -17.5557   22.9049 O   0  0  0  0  0  0  0  0  0  0  0  0
   15.4224  -17.3180   24.7673 O   0  0  0  0  0  0  0  0  0  0  0  0
  2  1  1  6
  2  3  1  0
  3  4  1  0
  4  8  1  0
  5  4  2  0
  6  2  1  0
  7  6  2  0
  9  6  1  0
 10  9  1  0
 10 11  1  1
 11 12  1  0
 12 20  1  0
 13 12  2  0
 13 14  1  0
 14 15  1  0
 15 16  2  0
 16 17  1  0
 18 17  2  0
 19 18  1  0
 20 19  2  0
 20 15  1  0
 21 23  1  0
 21 10  1  0
 22 21  2  0
 24 23  1  0
 25 24  1  0
 25 27  1  0
 26 25  2  0
M  END
$$$$
