HTL.pdb
     RDKit          3D

 26 26  0  0  1  0  0  0  0  0999 V2000
    8.7154  -17.6382   18.6811 N   0  0  0  0  0  0  0  0  0  0  0  0
    8.3803  -16.5457   19.5238 C   0  0  1  0  0  0  0  0  0  0  0  0
    7.2967  -15.7051   18.8569 C   0  0  0  0  0  0  0  0  0  0  0  0
    7.9431  -14.6227   18.0822 C   0  0  0  0  0  0  0  0  0  0  0  0
    8.8567  -13.6807   18.4462 C   0  0  0  0  0  0  0  0  0  0  0  0
    9.1572  -12.8861   17.3852 N   0  0  0  0  0  0  0  0  0  0  0  0
    8.4276  -13.3346   16.3563 C   0  0  0  0  0  0  0  0  0  0  0  0
    7.6779  -14.3953   16.7587 N   0  0  0  0  0  0  0  0  0  0  0  0
    8.1091  -16.8318   20.9250 C   0  0  0  0  0  0  0  0  0  0  0  0
    7.1970  -17.7017   21.1856 O   0  0  0  0  0  0  0  0  0  0  0  0
    8.3738  -19.1191   22.5516 C   0  0  0  0  0  0  0  0  0  0  0  0
    9.0324  -18.1903   23.5273 C   0  0  1  0  0  0  0  0  0  0  0  0
   10.4071  -18.0980   23.2877 O   0  0  0  0  0  0  0  0  0  0  0  0
    8.4516  -16.7902   23.3949 C   0  0  2  0  0  0  0  0  0  0  0  0
    8.7301  -16.2674   22.0476 N   0  0  0  0  0  0  0  0  0  0  0  0
    9.0214  -15.8651   24.3966 C   0  0  0  0  0  0  0  0  0  0  0  0
   10.2105  -15.4113   24.2620 O   0  0  0  0  0  0  0  0  0  0  0  0
    5.4976  -12.3914   26.6881 C   0  0  0  0  0  0  0  0  0  0  0  0
    6.7203  -13.0670   26.0289 C   0  0  1  0  0  0  0  0  0  0  0  0
    7.5066  -11.9141   25.4165 C   0  0  0  0  0  0  0  0  0  0  0  0
    7.5705  -13.7150   27.0916 C   0  0  0  0  0  0  0  0  0  0  0  0
    8.7315  -14.4936   26.4942 C   0  0  2  0  0  0  0  0  0  0  0  0
    8.2611  -15.4638   25.5218 N   0  0  0  0  0  0  0  0  0  0  0  0
    9.6225  -15.0984   27.4919 C   0  0  0  0  0  0  0  0  0  0  0  0
    9.9074  -16.4404   27.6225 O   0  0  0  0  0  0  0  0  0  0  0  0
   10.2013  -14.3350   28.3255 O   0  0  0  0  0  0  0  0  0  0  0  0
  2  1  1  6
  3  2  1  0
  4  3  1  0
  5  4  2  0
  6  7  1  0
  6  5  1  0
  7  8  2  0
  8  4  1  0
  9  2  1  0
  9 15  1  0
 10  9  2  0
 12 11  1  6
 13 12  1  0
 14 12  1  0
 14 15  1  6
 16 17  2  0
 16 14  1  0
 19 18  1  1
 19 21  1  0
 20 19  1  0
 22 21  1  1
 22 24  1  0
 22 23  1  0
 23 16  1  0
 24 25  1  0
 26 24  2  0
M  END
$$$$
