HTL.pdb
     RDKit          3D

 26 26  0  0  1  0  0  0  0  0999 V2000
    8.7367  -16.8745   18.8065 N   0  0  0  0  0  0  0  0  0  0  0  0
    8.4654  -15.8265   19.7252 C   0  0  1  0  0  0  0  0  0  0  0  0
    7.3537  -14.9419   19.1709 C   0  0  0  0  0  0  0  0  0  0  0  0
    7.8126  -14.3418   17.8986 C   0  0  0  0  0  0  0  0  0  0  0  0
    8.5842  -13.2479   17.6490 C   0  0  0  0  0  0  0  0  0  0  0  0
    8.7370  -13.0792   16.3089 N   0  0  0  0  0  0  0  0  0  0  0  0
    8.0575  -14.0718   15.7214 C   0  0  0  0  0  0  0  0  0  0  0  0
    7.4842  -14.8558   16.6732 N   0  0  0  0  0  0  0  0  0  0  0  0
    8.2752  -16.1858   21.1229 C   0  0  0  0  0  0  0  0  0  0  0  0
    7.1090  -16.6028   21.4733 O   0  0  0  0  0  0  0  0  0  0  0  0
    9.5327  -18.5686   25.0092 C   0  0  0  0  0  0  0  0  0  0  0  0
    9.6533  -18.0534   23.6063 C   0  0  1  0  0  0  0  0  0  0  0  0
    9.0795  -18.9415   22.6909 O   0  0  0  0  0  0  0  0  0  0  0  0
    8.9254  -16.7243   23.4695 C   0  0  2  0  0  0  0  0  0  0  0  0
    9.2223  -16.1335   22.1547 N   0  0  0  0  0  0  0  0  0  0  0  0
    9.3247  -15.7711   24.5259 C   0  0  0  0  0  0  0  0  0  0  0  0
   10.5048  -15.2760   24.5442 O   0  0  0  0  0  0  0  0  0  0  0  0
    5.7026  -12.1858   26.6830 C   0  0  0  0  0  0  0  0  0  0  0  0
    6.9389  -12.9096   26.1055 C   0  0  1  0  0  0  0  0  0  0  0  0
    7.9130  -11.7869   25.7688 C   0  0  0  0  0  0  0  0  0  0  0  0
    7.5579  -13.7765   27.1720 C   0  0  0  0  0  0  0  0  0  0  0  0
    8.7685  -14.5367   26.6547 C   0  0  2  0  0  0  0  0  0  0  0  0
    8.4083  -15.3882   25.5352 N   0  0  0  0  0  0  0  0  0  0  0  0
    9.5027  -15.2701   27.6931 C   0  0  0  0  0  0  0  0  0  0  0  0
   10.4635  -14.7497   28.5330 O   0  0  0  0  0  0  0  0  0  0  0  0
    9.2462  -16.5030   27.8566 O   0  0  0  0  0  0  0  0  0  0  0  0
  2  1  1  6
  3  2  1  0
  4  3  1  0
  5  4  2  0
  6  7  1  0
  6  5  1  0
  7  8  2  0
  8  4  1  0
  9  2  1  0
  9 15  1  0
 10  9  2  0
 12 11  1  1
 13 12  1  0
 14 12  1  0
 14 15  1  6
 16 17  2  0
 16 14  1  0
 19 18  1  1
 19 21  1  0
 20 19  1  0
 22 21  1  1
 22 24  1  0
 22 23  1  0
 23 16  1  0
 24 25  1  0
 26 24  2  0
M  END
$$$$
