HTL.pdb
     RDKit          3D

 26 26  0  0  1  0  0  0  0  0999 V2000
    8.0766  -17.7291   18.8612 N   0  0  0  0  0  0  0  0  0  0  0  0
    8.2306  -16.6451   19.7652 C   0  0  1  0  0  0  0  0  0  0  0  0
    7.2810  -15.5185   19.3719 C   0  0  0  0  0  0  0  0  0  0  0  0
    7.9539  -14.6543   18.3769 C   0  0  0  0  0  0  0  0  0  0  0  0
    9.1915  -14.7293   17.8139 C   0  0  0  0  0  0  0  0  0  0  0  0
    9.3738  -13.6992   16.9461 N   0  0  0  0  0  0  0  0  0  0  0  0
    8.2453  -12.9793   16.9690 C   0  0  0  0  0  0  0  0  0  0  0  0
    7.3633  -13.5440   17.8363 N   0  0  0  0  0  0  0  0  0  0  0  0
    8.2123  -16.9453   21.1894 C   0  0  0  0  0  0  0  0  0  0  0  0
    7.1750  -17.5498   21.6534 O   0  0  0  0  0  0  0  0  0  0  0  0
    9.6164  -19.4639   22.9881 C   0  0  0  0  0  0  0  0  0  0  0  0
   10.0225  -18.2612   23.7861 C   0  0  1  0  0  0  0  0  0  0  0  0
   11.3027  -17.8263   23.4284 O   0  0  0  0  0  0  0  0  0  0  0  0
    9.0615  -17.1100   23.5284 C   0  0  2  0  0  0  0  0  0  0  0  0
    9.2031  -16.6529   22.1367 N   0  0  0  0  0  0  0  0  0  0  0  0
    9.3160  -15.9719   24.4361 C   0  0  0  0  0  0  0  0  0  0  0  0
   10.1735  -15.0729   24.1290 O   0  0  0  0  0  0  0  0  0  0  0  0
    6.9753  -12.5619   25.4190 C   0  0  0  0  0  0  0  0  0  0  0  0
    7.2606  -12.8070   26.9171 C   0  0  1  0  0  0  0  0  0  0  0  0
    5.9748  -12.3902   27.6214 C   0  0  0  0  0  0  0  0  0  0  0  0
    7.4797  -14.2795   27.1530 C   0  0  0  0  0  0  0  0  0  0  0  0
    8.8081  -14.7544   26.5867 C   0  0  2  0  0  0  0  0  0  0  0  0
    8.6145  -15.8559   25.6608 N   0  0  0  0  0  0  0  0  0  0  0  0
    9.8180  -15.0611   27.6071 C   0  0  0  0  0  0  0  0  0  0  0  0
   10.6749  -14.1603   28.2017 O   0  0  0  0  0  0  0  0  0  0  0  0
    9.9330  -16.2632   27.9999 O   0  0  0  0  0  0  0  0  0  0  0  0
  2  1  1  6
  3  2  1  0
  4  3  1  0
  5  4  2  0
  6  7  1  0
  6  5  1  0
  7  8  2  0
  8  4  1  0
  9  2  1  0
  9 15  1  0
 10  9  2  0
 12 11  1  6
 13 12  1  0
 14 12  1  0
 14 15  1  6
 16 17  2  0
 16 14  1  0
 19 18  1  6
 19 21  1  0
 20 19  1  0
 22 21  1  1
 22 24  1  0
 22 23  1  0
 23 16  1  0
 24 25  1  0
 26 24  2  0
M  END
$$$$
