HTL.pdb
     RDKit          3D

 26 26  0  0  1  0  0  0  0  0999 V2000
    7.8707  -16.8647   19.2587 N   0  0  0  0  0  0  0  0  0  0  0  0
    8.0145  -15.8122   20.2009 C   0  0  1  0  0  0  0  0  0  0  0  0
    7.1459  -14.6320   19.7788 C   0  0  0  0  0  0  0  0  0  0  0  0
    7.7058  -14.0479   18.5398 C   0  0  0  0  0  0  0  0  0  0  0  0
    8.4650  -12.9361   18.3350 C   0  0  0  0  0  0  0  0  0  0  0  0
    8.7396  -12.7945   17.0114 N   0  0  0  0  0  0  0  0  0  0  0  0
    8.1487  -13.8221   16.3890 C   0  0  0  0  0  0  0  0  0  0  0  0
    7.5109  -14.6012   17.3031 N   0  0  0  0  0  0  0  0  0  0  0  0
    7.8885  -16.1469   21.6119 C   0  0  0  0  0  0  0  0  0  0  0  0
    6.7370  -16.5475   22.0244 O   0  0  0  0  0  0  0  0  0  0  0  0
    8.5522  -18.9302   23.2717 C   0  0  0  0  0  0  0  0  0  0  0  0
    9.2207  -17.9300   24.1668 C   0  0  1  0  0  0  0  0  0  0  0  0
   10.5857  -17.8283   23.8799 O   0  0  0  0  0  0  0  0  0  0  0  0
    8.6086  -16.5517   23.9649 C   0  0  2  0  0  0  0  0  0  0  0  0
    8.8844  -16.0864   22.5962 N   0  0  0  0  0  0  0  0  0  0  0  0
    9.1497  -15.5673   24.9252 C   0  0  0  0  0  0  0  0  0  0  0  0
   10.2486  -14.9575   24.6833 O   0  0  0  0  0  0  0  0  0  0  0  0
    6.0932  -11.8106   26.9855 C   0  0  0  0  0  0  0  0  0  0  0  0
    7.2745  -12.6592   26.4654 C   0  0  1  0  0  0  0  0  0  0  0  0
    8.2844  -11.6351   25.9612 C   0  0  0  0  0  0  0  0  0  0  0  0
    7.8931  -13.4165   27.6125 C   0  0  0  0  0  0  0  0  0  0  0  0
    8.9738  -14.3768   27.1426 C   0  0  2  0  0  0  0  0  0  0  0  0
    8.4610  -15.2810   26.1289 N   0  0  0  0  0  0  0  0  0  0  0  0
    9.6516  -15.0930   28.2301 C   0  0  0  0  0  0  0  0  0  0  0  0
    9.7273  -16.4607   28.3818 O   0  0  0  0  0  0  0  0  0  0  0  0
   10.2345  -14.4121   29.1297 O   0  0  0  0  0  0  0  0  0  0  0  0
  2  1  1  6
  3  2  1  0
  4  3  1  0
  5  4  2  0
  6  7  1  0
  6  5  1  0
  7  8  2  0
  8  4  1  0
  9  2  1  0
  9 15  1  0
 10  9  2  0
 12 11  1  6
 13 12  1  0
 14 12  1  0
 14 15  1  6
 16 17  2  0
 16 14  1  0
 19 18  1  1
 19 21  1  0
 20 19  1  0
 22 21  1  1
 22 24  1  0
 22 23  1  0
 23 16  1  0
 24 25  1  0
 26 24  2  0
M  END
$$$$
