HTL.pdb
     RDKit          3D

 26 26  0  0  1  0  0  0  0  0999 V2000
    9.6631  -15.7390   19.2311 N   0  0  0  0  0  0  0  0  0  0  0  0
    8.8511  -15.2515   20.2890 C   0  0  1  0  0  0  0  0  0  0  0  0
    7.4422  -14.9903   19.7673 C   0  0  0  0  0  0  0  0  0  0  0  0
    7.5381  -14.3665   18.4289 C   0  0  0  0  0  0  0  0  0  0  0  0
    7.6499  -13.0627   18.0522 C   0  0  0  0  0  0  0  0  0  0  0  0
    7.7008  -12.9701   16.6971 N   0  0  0  0  0  0  0  0  0  0  0  0
    7.6200  -14.2212   16.2278 C   0  0  0  0  0  0  0  0  0  0  0  0
    7.5197  -15.0914   17.2679 N   0  0  0  0  0  0  0  0  0  0  0  0
    8.8749  -15.9795   21.5493 C   0  0  0  0  0  0  0  0  0  0  0  0
    7.9499  -15.7135   22.4038 O   0  0  0  0  0  0  0  0  0  0  0  0
   10.1441  -19.7244   24.4891 C   0  0  0  0  0  0  0  0  0  0  0  0
   10.2877  -19.0144   23.1763 C   0  0  1  0  0  0  0  0  0  0  0  0
    9.6626  -19.7251   22.1467 O   0  0  0  0  0  0  0  0  0  0  0  0
    9.6334  -17.6426   23.2458 C   0  0  2  0  0  0  0  0  0  0  0  0
    9.7973  -16.9533   21.9559 N   0  0  0  0  0  0  0  0  0  0  0  0
   10.2230  -16.8092   24.3143 C   0  0  0  0  0  0  0  0  0  0  0  0
   11.3858  -16.2940   24.1716 O   0  0  0  0  0  0  0  0  0  0  0  0
   10.8833  -13.2413   28.0436 C   0  0  0  0  0  0  0  0  0  0  0  0
    9.6874  -14.1429   28.4215 C   0  0  1  0  0  0  0  0  0  0  0  0
    8.6344  -13.1753   28.9486 C   0  0  0  0  0  0  0  0  0  0  0  0
    9.1477  -14.8084   27.1814 C   0  0  0  0  0  0  0  0  0  0  0  0
   10.0890  -15.8804   26.6562 C   0  0  2  0  0  0  0  0  0  0  0  0
    9.5110  -16.5653   25.5138 N   0  0  0  0  0  0  0  0  0  0  0  0
   10.5598  -16.8182   27.6828 C   0  0  0  0  0  0  0  0  0  0  0  0
   11.7553  -16.7466   28.3647 O   0  0  0  0  0  0  0  0  0  0  0  0
    9.8130  -17.7971   27.9938 O   0  0  0  0  0  0  0  0  0  0  0  0
  2  1  1  6
  3  2  1  0
  4  3  1  0
  5  4  2  0
  6  7  1  0
  6  5  1  0
  7  8  2  0
  8  4  1  0
  9  2  1  0
  9 15  1  0
 10  9  2  0
 12 11  1  1
 13 12  1  0
 14 12  1  0
 14 15  1  6
 16 17  2  0
 16 14  1  0
 19 18  1  6
 19 21  1  0
 20 19  1  0
 22 21  1  1
 22 24  1  0
 22 23  1  0
 23 16  1  0
 24 25  1  0
 26 24  2  0
M  END
$$$$
