HTL.pdb
     RDKit          3D

 26 26  0  0  1  0  0  0  0  0999 V2000
    9.3460  -17.8811   19.1223 N   0  0  0  0  0  0  0  0  0  0  0  0
    8.9139  -16.6941   19.7706 C   0  0  1  0  0  0  0  0  0  0  0  0
    8.1361  -15.8313   18.7826 C   0  0  0  0  0  0  0  0  0  0  0  0
    8.6073  -14.4334   18.8975 C   0  0  0  0  0  0  0  0  0  0  0  0
    9.6071  -13.8813   19.6391 C   0  0  0  0  0  0  0  0  0  0  0  0
    9.6660  -12.5410   19.4208 N   0  0  0  0  0  0  0  0  0  0  0  0
    8.6987  -12.2569   18.5400 C   0  0  0  0  0  0  0  0  0  0  0  0
    8.0385  -13.3980   18.2061 N   0  0  0  0  0  0  0  0  0  0  0  0
    8.2551  -16.8310   21.0614 C   0  0  0  0  0  0  0  0  0  0  0  0
    7.1422  -17.4769   21.0923 O   0  0  0  0  0  0  0  0  0  0  0  0
    7.3331  -18.4070   25.1239 C   0  0  0  0  0  0  0  0  0  0  0  0
    7.8116  -18.1118   23.7339 C   0  0  1  0  0  0  0  0  0  0  0  0
    6.9199  -18.6070   22.7770 O   0  0  0  0  0  0  0  0  0  0  0  0
    7.9187  -16.6089   23.5225 C   0  0  2  0  0  0  0  0  0  0  0  0
    8.6904  -16.3378   22.2991 N   0  0  0  0  0  0  0  0  0  0  0  0
    8.5783  -15.9418   24.6644 C   0  0  0  0  0  0  0  0  0  0  0  0
    9.8309  -16.0982   24.8751 O   0  0  0  0  0  0  0  0  0  0  0  0
    6.2721  -11.2422   26.6065 C   0  0  0  0  0  0  0  0  0  0  0  0
    7.2119  -12.3436   26.0684 C   0  0  1  0  0  0  0  0  0  0  0  0
    8.4880  -11.6016   25.6891 C   0  0  0  0  0  0  0  0  0  0  0  0
    7.5341  -13.3148   27.1751 C   0  0  0  0  0  0  0  0  0  0  0  0
    8.4218  -14.4511   26.6938 C   0  0  2  0  0  0  0  0  0  0  0  0
    7.8360  -15.1173   25.5443 N   0  0  0  0  0  0  0  0  0  0  0  0
    8.8032  -15.3996   27.7473 C   0  0  0  0  0  0  0  0  0  0  0  0
    9.8318  -15.2429   28.6510 O   0  0  0  0  0  0  0  0  0  0  0  0
    8.1370  -16.4747   27.8612 O   0  0  0  0  0  0  0  0  0  0  0  0
  2  1  1  6
  3  2  1  0
  4  3  1  0
  5  4  2  0
  6  7  1  0
  6  5  1  0
  7  8  2  0
  8  4  1  0
  9  2  1  0
  9 15  1  0
 10  9  2  0
 12 11  1  1
 13 12  1  0
 14 12  1  0
 14 15  1  6
 16 17  2  0
 16 14  1  0
 19 18  1  1
 19 21  1  0
 20 19  1  0
 22 21  1  1
 22 24  1  0
 22 23  1  0
 23 16  1  0
 24 25  1  0
 26 24  2  0
M  END
$$$$
