HTL.pdb
     RDKit          3D

 26 26  0  0  1  0  0  0  0  0999 V2000
    9.3527  -15.7173   19.3424 N   0  0  0  0  0  0  0  0  0  0  0  0
    8.3483  -15.0083   20.0527 C   0  0  1  0  0  0  0  0  0  0  0  0
    7.1420  -14.7929   19.1450 C   0  0  0  0  0  0  0  0  0  0  0  0
    7.6129  -14.2692   17.8437 C   0  0  0  0  0  0  0  0  0  0  0  0
    8.1635  -13.0708   17.5045 C   0  0  0  0  0  0  0  0  0  0  0  0
    8.4353  -13.0409   16.1731 N   0  0  0  0  0  0  0  0  0  0  0  0
    8.0521  -14.2253   15.6807 C   0  0  0  0  0  0  0  0  0  0  0  0
    7.5464  -14.9923   16.6833 N   0  0  0  0  0  0  0  0  0  0  0  0
    7.9939  -15.4880   21.3805 C   0  0  0  0  0  0  0  0  0  0  0  0
    6.8397  -15.1540   21.8418 O   0  0  0  0  0  0  0  0  0  0  0  0
    7.8578  -18.9877   22.9619 C   0  0  0  0  0  0  0  0  0  0  0  0
    8.6086  -18.0790   23.8886 C   0  0  1  0  0  0  0  0  0  0  0  0
    9.9903  -18.2360   23.7403 O   0  0  0  0  0  0  0  0  0  0  0  0
    8.2793  -16.6257   23.5814 C   0  0  2  0  0  0  0  0  0  0  0  0
    8.7679  -16.2843   22.2358 N   0  0  0  0  0  0  0  0  0  0  0  0
    8.8930  -15.7069   24.5628 C   0  0  0  0  0  0  0  0  0  0  0  0
   10.0935  -15.2922   24.4047 O   0  0  0  0  0  0  0  0  0  0  0  0
    5.8541  -11.7958   26.4601 C   0  0  0  0  0  0  0  0  0  0  0  0
    6.9843  -12.7197   25.9553 C   0  0  1  0  0  0  0  0  0  0  0  0
    7.9578  -11.7800   25.2539 C   0  0  0  0  0  0  0  0  0  0  0  0
    7.6870  -13.3445   27.1334 C   0  0  0  0  0  0  0  0  0  0  0  0
    8.7142  -14.3780   26.6999 C   0  0  2  0  0  0  0  0  0  0  0  0
    8.1631  -15.2685   25.6942 N   0  0  0  0  0  0  0  0  0  0  0  0
    9.3291  -15.1131   27.8119 C   0  0  0  0  0  0  0  0  0  0  0  0
    9.2999  -16.4779   28.0011 O   0  0  0  0  0  0  0  0  0  0  0  0
    9.9565  -14.4537   28.6974 O   0  0  0  0  0  0  0  0  0  0  0  0
  2  1  1  6
  3  2  1  0
  4  3  1  0
  5  4  2  0
  6  7  1  0
  6  5  1  0
  7  8  2  0
  8  4  1  0
  9  2  1  0
  9 15  1  0
 10  9  2  0
 12 11  1  6
 13 12  1  0
 14 12  1  0
 14 15  1  6
 16 17  2  0
 16 14  1  0
 19 18  1  1
 19 21  1  0
 20 19  1  0
 22 21  1  1
 22 24  1  0
 22 23  1  0
 23 16  1  0
 24 25  1  0
 26 24  2  0
M  END
$$$$
