HTL.pdb
     RDKit          3D

 26 26  0  0  1  0  0  0  0  0999 V2000
   11.1960  -18.2561   19.4555 N   0  0  0  0  0  0  0  0  0  0  0  0
   10.5616  -16.9885   19.3731 C   0  0  1  0  0  0  0  0  0  0  0  0
   10.0553  -16.7666   17.9519 C   0  0  0  0  0  0  0  0  0  0  0  0
   11.1683  -17.0075   17.0070 C   0  0  0  0  0  0  0  0  0  0  0  0
   12.4088  -16.4524   16.9212 C   0  0  0  0  0  0  0  0  0  0  0  0
   13.0904  -16.9898   15.8752 N   0  0  0  0  0  0  0  0  0  0  0  0
   12.2709  -17.8829   15.3068 C   0  0  0  0  0  0  0  0  0  0  0  0
   11.0906  -17.9108   15.9815 N   0  0  0  0  0  0  0  0  0  0  0  0
    9.5791  -16.6572   20.3948 C   0  0  0  0  0  0  0  0  0  0  0  0
    8.9153  -15.5646   20.2453 O   0  0  0  0  0  0  0  0  0  0  0  0
    6.8725  -18.8580   22.2219 C   0  0  0  0  0  0  0  0  0  0  0  0
    7.5968  -18.0124   23.2262 C   0  0  1  0  0  0  0  0  0  0  0  0
    8.5687  -18.7549   23.9046 O   0  0  0  0  0  0  0  0  0  0  0  0
    8.3067  -16.8607   22.5300 C   0  0  2  0  0  0  0  0  0  0  0  0
    9.2593  -17.3943   21.5432 N   0  0  0  0  0  0  0  0  0  0  0  0
    9.0373  -16.0080   23.4907 C   0  0  0  0  0  0  0  0  0  0  0  0
    9.9425  -15.1988   23.0860 O   0  0  0  0  0  0  0  0  0  0  0  0
    6.9640  -11.4870   25.3090 C   0  0  0  0  0  0  0  0  0  0  0  0
    7.7553  -12.6004   26.0302 C   0  0  1  0  0  0  0  0  0  0  0  0
    6.9261  -12.9132   27.2700 C   0  0  0  0  0  0  0  0  0  0  0  0
    7.7986  -13.8307   25.1604 C   0  0  0  0  0  0  0  0  0  0  0  0
    8.7134  -14.9006   25.7343 C   0  0  2  0  0  0  0  0  0  0  0  0
    8.7476  -16.0707   24.8754 N   0  0  0  0  0  0  0  0  0  0  0  0
    8.4245  -15.2484   27.1310 C   0  0  0  0  0  0  0  0  0  0  0  0
    7.5237  -16.1972   27.5645 O   0  0  0  0  0  0  0  0  0  0  0  0
    9.0518  -14.6337   28.0481 O   0  0  0  0  0  0  0  0  0  0  0  0
  2  1  1  6
  3  2  1  0
  4  3  1  0
  5  4  2  0
  6  7  1  0
  6  5  1  0
  7  8  2  0
  8  4  1  0
  9  2  1  0
  9 15  1  0
 10  9  2  0
 12 11  1  6
 13 12  1  0
 14 12  1  0
 14 15  1  6
 16 17  2  0
 16 14  1  0
 19 18  1  6
 19 21  1  0
 20 19  1  0
 22 21  1  6
 22 24  1  0
 22 23  1  0
 23 16  1  0
 24 25  1  0
 26 24  2  0
M  END
$$$$
