HTL.pdb
     RDKit          3D

 26 26  0  0  1  0  0  0  0  0999 V2000
   11.0205  -18.7587   19.9039 N   0  0  0  0  0  0  0  0  0  0  0  0
   10.7329  -18.2194   21.1855 C   0  0  1  0  0  0  0  0  0  0  0  0
   11.8931  -18.5127   22.1307 C   0  0  0  0  0  0  0  0  0  0  0  0
   12.1544  -19.9691   22.1261 C   0  0  0  0  0  0  0  0  0  0  0  0
   11.5214  -20.9926   21.4889 C   0  0  0  0  0  0  0  0  0  0  0  0
   12.1202  -22.1744   21.7925 N   0  0  0  0  0  0  0  0  0  0  0  0
   13.1302  -21.8860   22.6226 C   0  0  0  0  0  0  0  0  0  0  0  0
   13.1703  -20.5444   22.8408 N   0  0  0  0  0  0  0  0  0  0  0  0
   10.2694  -16.8410   21.2499 C   0  0  0  0  0  0  0  0  0  0  0  0
   10.9097  -15.9683   20.5535 O   0  0  0  0  0  0  0  0  0  0  0  0
    7.2274  -15.4810   19.7883 C   0  0  0  0  0  0  0  0  0  0  0  0
    7.2474  -15.0637   21.2284 C   0  0  1  0  0  0  0  0  0  0  0  0
    6.5742  -15.9895   22.0319 O   0  0  0  0  0  0  0  0  0  0  0  0
    8.6807  -14.9802   21.7321 C   0  0  2  0  0  0  0  0  0  0  0  0
    9.1915  -16.3361   21.9899 N   0  0  0  0  0  0  0  0  0  0  0  0
    8.7782  -14.1858   22.9744 C   0  0  0  0  0  0  0  0  0  0  0  0
    8.3748  -12.9715   23.0044 O   0  0  0  0  0  0  0  0  0  0  0  0
    8.0134  -11.9653   27.1946 C   0  0  0  0  0  0  0  0  0  0  0  0
    7.1262  -13.1676   26.8030 C   0  0  1  0  0  0  0  0  0  0  0  0
    5.7225  -12.5841   26.6948 C   0  0  0  0  0  0  0  0  0  0  0  0
    7.5390  -13.6761   25.4455 C   0  0  0  0  0  0  0  0  0  0  0  0
    8.8860  -14.3796   25.4875 C   0  0  2  0  0  0  0  0  0  0  0  0
    9.3185  -14.7547   24.1532 N   0  0  0  0  0  0  0  0  0  0  0  0
    8.9423  -15.5084   26.4244 C   0  0  0  0  0  0  0  0  0  0  0  0
    8.6195  -16.8182   26.1422 O   0  0  0  0  0  0  0  0  0  0  0  0
    9.3239  -15.2858   27.6150 O   0  0  0  0  0  0  0  0  0  0  0  0
  2  1  1  6
  3  2  1  0
  4  3  1  0
  5  4  2  0
  6  7  1  0
  6  5  1  0
  7  8  2  0
  8  4  1  0
  9  2  1  0
  9 15  1  0
 10  9  2  0
 12 11  1  6
 13 12  1  0
 14 12  1  0
 14 15  1  1
 16 17  2  0
 16 14  1  0
 19 18  1  6
 19 21  1  0
 20 19  1  0
 22 21  1  6
 22 24  1  0
 22 23  1  0
 23 16  1  0
 24 25  1  0
 26 24  2  0
M  END
$$$$
