HTL.pdb
     RDKit          3D

 26 26  0  0  1  0  0  0  0  0999 V2000
    8.3125  -16.8617   19.3016 N   0  0  0  0  0  0  0  0  0  0  0  0
    8.2363  -15.7297   20.1553 C   0  0  1  0  0  0  0  0  0  0  0  0
    7.3066  -14.6907   19.5375 C   0  0  0  0  0  0  0  0  0  0  0  0
    7.8973  -14.2201   18.2650 C   0  0  0  0  0  0  0  0  0  0  0  0
    8.8063  -13.2400   18.0056 C   0  0  0  0  0  0  0  0  0  0  0  0
    9.0450  -13.1650   16.6696 N   0  0  0  0  0  0  0  0  0  0  0  0
    8.2812  -14.1020   16.0944 C   0  0  0  0  0  0  0  0  0  0  0  0
    7.5710  -14.7592   17.0498 N   0  0  0  0  0  0  0  0  0  0  0  0
    7.9811  -15.9656   21.5688 C   0  0  0  0  0  0  0  0  0  0  0  0
    6.7742  -16.2522   21.9124 O   0  0  0  0  0  0  0  0  0  0  0  0
    8.2697  -18.7576   23.3296 C   0  0  0  0  0  0  0  0  0  0  0  0
    9.0320  -17.7931   24.1881 C   0  0  1  0  0  0  0  0  0  0  0  0
   10.3940  -17.8019   23.8708 O   0  0  0  0  0  0  0  0  0  0  0  0
    8.5219  -16.3766   23.9684 C   0  0  2  0  0  0  0  0  0  0  0  0
    8.9039  -15.9192   22.6228 N   0  0  0  0  0  0  0  0  0  0  0  0
    9.0698  -15.4369   24.9688 C   0  0  0  0  0  0  0  0  0  0  0  0
   10.1653  -14.8140   24.7458 O   0  0  0  0  0  0  0  0  0  0  0  0
    5.6506  -12.2046   27.4681 C   0  0  0  0  0  0  0  0  0  0  0  0
    6.8306  -12.9276   26.7819 C   0  0  1  0  0  0  0  0  0  0  0  0
    7.5798  -11.8207   26.0498 C   0  0  0  0  0  0  0  0  0  0  0  0
    7.7426  -13.5097   27.8313 C   0  0  0  0  0  0  0  0  0  0  0  0
    8.8824  -14.3054   27.2159 C   0  0  2  0  0  0  0  0  0  0  0  0
    8.3916  -15.2088   26.1907 N   0  0  0  0  0  0  0  0  0  0  0  0
    9.7308  -14.9920   28.1976 C   0  0  0  0  0  0  0  0  0  0  0  0
   10.5845  -14.3917   29.0978 O   0  0  0  0  0  0  0  0  0  0  0  0
    9.6927  -16.2604   28.2456 O   0  0  0  0  0  0  0  0  0  0  0  0
  2  1  1  6
  3  2  1  0
  4  3  1  0
  5  4  2  0
  6  7  1  0
  6  5  1  0
  7  8  2  0
  8  4  1  0
  9  2  1  0
  9 15  1  0
 10  9  2  0
 12 11  1  6
 13 12  1  0
 14 12  1  0
 14 15  1  6
 16 17  2  0
 16 14  1  0
 19 18  1  1
 19 21  1  0
 20 19  1  0
 22 21  1  1
 22 24  1  0
 22 23  1  0
 23 16  1  0
 24 25  1  0
 26 24  2  0
M  END
$$$$
