HTL.pdb
     RDKit          3D

 26 26  0  0  1  0  0  0  0  0999 V2000
   11.8282  -17.8641   18.5177 N   0  0  0  0  0  0  0  0  0  0  0  0
   11.5829  -17.7791   19.9136 C   0  0  1  0  0  0  0  0  0  0  0  0
   12.9094  -17.6468   20.6541 C   0  0  0  0  0  0  0  0  0  0  0  0
   13.6115  -18.9486   20.6092 C   0  0  0  0  0  0  0  0  0  0  0  0
   13.1582  -20.2197   20.7914 C   0  0  0  0  0  0  0  0  0  0  0  0
   14.1811  -21.1047   20.6584 N   0  0  0  0  0  0  0  0  0  0  0  0
   15.2763  -20.3820   20.3926 C   0  0  0  0  0  0  0  0  0  0  0  0
   14.9523  -19.0618   20.3578 N   0  0  0  0  0  0  0  0  0  0  0  0
   10.5722  -16.8339   20.3655 C   0  0  0  0  0  0  0  0  0  0  0  0
   10.6340  -15.6348   19.9018 O   0  0  0  0  0  0  0  0  0  0  0  0
    6.9818  -16.5851   19.7340 C   0  0  0  0  0  0  0  0  0  0  0  0
    7.1453  -16.4882   21.2214 C   0  0  1  0  0  0  0  0  0  0  0  0
    6.9656  -17.7338   21.8314 O   0  0  0  0  0  0  0  0  0  0  0  0
    8.5478  -16.0098   21.5663 C   0  0  2  0  0  0  0  0  0  0  0  0
    9.5194  -17.0718   21.2596 N   0  0  0  0  0  0  0  0  0  0  0  0
    8.6663  -15.6481   22.9943 C   0  0  0  0  0  0  0  0  0  0  0  0
    9.3979  -16.3411   23.7832 O   0  0  0  0  0  0  0  0  0  0  0  0
    7.8630  -11.8075   27.1173 C   0  0  0  0  0  0  0  0  0  0  0  0
    6.7712  -12.8028   26.6663 C   0  0  1  0  0  0  0  0  0  0  0  0
    5.4620  -12.0525   26.8802 C   0  0  0  0  0  0  0  0  0  0  0  0
    6.9258  -13.0855   25.1938 C   0  0  0  0  0  0  0  0  0  0  0  0
    7.8843  -14.2363   24.9335 C   0  0  2  0  0  0  0  0  0  0  0  0
    7.9733  -14.5279   23.5139 N   0  0  0  0  0  0  0  0  0  0  0  0
    7.6053  -15.4387   25.7282 C   0  0  0  0  0  0  0  0  0  0  0  0
    6.6594  -16.4004   25.4458 O   0  0  0  0  0  0  0  0  0  0  0  0
    8.2876  -15.6382   26.7805 O   0  0  0  0  0  0  0  0  0  0  0  0
  2  1  1  6
  3  2  1  0
  4  3  1  0
  5  4  2  0
  6  7  1  0
  6  5  1  0
  7  8  2  0
  8  4  1  0
  9  2  1  0
  9 15  1  0
 10  9  2  0
 12 11  1  6
 13 12  1  0
 14 12  1  0
 14 15  1  1
 16 17  2  0
 16 14  1  0
 19 18  1  6
 19 21  1  0
 20 19  1  0
 22 21  1  6
 22 24  1  0
 22 23  1  0
 23 16  1  0
 24 25  1  0
 26 24  2  0
M  END
$$$$
