HTL.pdb
     RDKit          3D

 26 26  0  0  1  0  0  0  0  0999 V2000
    7.6726  -16.5570   18.2529 N   0  0  0  0  0  0  0  0  0  0  0  0
    8.0877  -15.6356   19.2502 C   0  0  1  0  0  0  0  0  0  0  0  0
    7.5969  -14.2386   18.8854 C   0  0  0  0  0  0  0  0  0  0  0  0
    8.0754  -13.9060   17.5253 C   0  0  0  0  0  0  0  0  0  0  0  0
    7.4143  -13.4385   16.4305 C   0  0  0  0  0  0  0  0  0  0  0  0
    8.2781  -13.2858   15.3922 N   0  0  0  0  0  0  0  0  0  0  0  0
    9.4822  -13.6602   15.8420 C   0  0  0  0  0  0  0  0  0  0  0  0
    9.3826  -14.0432   17.1429 N   0  0  0  0  0  0  0  0  0  0  0  0
    7.8425  -15.9894   20.6407 C   0  0  0  0  0  0  0  0  0  0  0  0
    6.6665  -15.7604   21.1110 O   0  0  0  0  0  0  0  0  0  0  0  0
    8.6078  -19.3395   22.4521 C   0  0  0  0  0  0  0  0  0  0  0  0
    9.0070  -18.2009   23.3423 C   0  0  1  0  0  0  0  0  0  0  0  0
   10.3845  -17.9678   23.2772 O   0  0  0  0  0  0  0  0  0  0  0  0
    8.3073  -16.9221   22.9065 C   0  0  2  0  0  0  0  0  0  0  0  0
    8.7450  -16.5598   21.5488 N   0  0  0  0  0  0  0  0  0  0  0  0
    8.6005  -15.7993   23.8215 C   0  0  0  0  0  0  0  0  0  0  0  0
    9.6232  -15.0538   23.6309 O   0  0  0  0  0  0  0  0  0  0  0  0
    7.7615  -11.3722   26.2884 C   0  0  0  0  0  0  0  0  0  0  0  0
    6.9228  -12.4626   26.9909 C   0  0  1  0  0  0  0  0  0  0  0  0
    5.5770  -11.7968   27.2519 C   0  0  0  0  0  0  0  0  0  0  0  0
    6.7097  -13.6188   26.0476 C   0  0  0  0  0  0  0  0  0  0  0  0
    7.9792  -14.4309   25.8479 C   0  0  2  0  0  0  0  0  0  0  0  0
    7.7545  -15.5283   24.9242 N   0  0  0  0  0  0  0  0  0  0  0  0
    8.6048  -14.8799   27.0978 C   0  0  0  0  0  0  0  0  0  0  0  0
    8.7022  -16.1823   27.5379 O   0  0  0  0  0  0  0  0  0  0  0  0
    9.1155  -14.0061   27.8648 O   0  0  0  0  0  0  0  0  0  0  0  0
  2  1  1  6
  3  2  1  0
  4  3  1  0
  5  4  2  0
  6  7  1  0
  6  5  1  0
  7  8  2  0
  8  4  1  0
  9  2  1  0
  9 15  1  0
 10  9  2  0
 12 11  1  6
 13 12  1  0
 14 12  1  0
 14 15  1  6
 16 17  2  0
 16 14  1  0
 19 18  1  6
 19 21  1  0
 20 19  1  0
 22 21  1  1
 22 24  1  0
 22 23  1  0
 23 16  1  0
 24 25  1  0
 26 24  2  0
M  END
$$$$
