PEE.pdb
     RDKit          3D

 26 26  0  0  1  0  0  0  0  0999 V2000
    8.4295  -14.9990   18.9035 N   0  0  0  0  0  0  0  0  0  0  0  0
    8.2487  -14.0787   17.7741 C   0  0  0  0  0  0  0  0  0  0  0  0
    7.3692  -12.9987   18.3700 C   0  0  0  0  0  0  0  0  0  0  0  0
    7.8043  -12.9079   19.7991 C   0  0  0  0  0  0  0  0  0  0  0  0
    8.6590  -14.1164   20.0409 C   0  0  1  0  0  0  0  0  0  0  0  0
    8.4322  -14.7786   21.3368 C   0  0  0  0  0  0  0  0  0  0  0  0
    8.5322  -14.1586   22.4163 O   0  0  0  0  0  0  0  0  0  0  0  0
    8.0955  -16.1375   21.3883 N   0  0  0  0  0  0  0  0  0  0  0  0
    7.9325  -16.8302   22.6368 C   0  0  1  0  0  0  0  0  0  0  0  0
    6.8828  -17.8628   22.6653 C   0  0  0  0  0  0  0  0  0  0  0  0
    5.5210  -17.4571   22.2056 C   0  0  0  0  0  0  0  0  0  0  0  0
    4.5483  -18.5596   22.1794 C   0  0  0  0  0  0  0  0  0  0  0  0
    3.5764  -18.5202   21.4076 O   0  0  0  0  0  0  0  0  0  0  0  0
    9.2338  -17.4890   23.0271 C   0  0  0  0  0  0  0  0  0  0  0  0
    9.7358  -18.3849   22.3395 O   0  0  0  0  0  0  0  0  0  0  0  0
    4.7138  -19.6429   23.0141 O   0  0  0  0  0  0  0  0  0  0  0  0
    9.8900  -17.0770   24.1953 N   0  0  0  0  0  0  0  0  0  0  0  0
   11.0823  -17.6700   24.7415 C   0  0  1  0  0  0  0  0  0  0  0  0
   12.2995  -16.8357   24.6343 C   0  0  0  0  0  0  0  0  0  0  0  0
   12.9714  -16.9054   23.2949 C   0  0  0  0  0  0  0  0  0  0  0  0
   14.2326  -16.1418   23.2076 C   0  0  0  0  0  0  0  0  0  0  0  0
   15.2753  -16.5685   23.7512 O   0  0  0  0  0  0  0  0  0  0  0  0
   10.8380  -17.9136   26.1905 C   0  0  0  0  0  0  0  0  0  0  0  0
    9.8165  -17.4503   26.7369 O   0  0  0  0  0  0  0  0  0  0  0  0
   14.3225  -14.9336   22.5306 O   0  0  0  0  0  0  0  0  0  0  0  0
   11.7111  -18.6476   26.9789 O   0  0  0  0  0  0  0  0  0  0  0  0
  1  2  1  0
  1  5  1  0
  2  3  1  0
  3  4  1  0
  5  6  1  1
  5  4  1  0
  6  7  2  0
  8  9  1  0
  8  6  1  0
  9 10  1  6
 11 10  1  0
 12 11  1  0
 12 13  2  0
 14 15  2  0
 14  9  1  0
 16 12  1  0
 17 14  1  0
 18 17  1  0
 18 19  1  1
 20 21  1  0
 20 19  1  0
 21 22  2  0
 23 18  1  0
 23 26  1  0
 24 23  2  0
 25 21  1  0
M  END
$$$$
