PEE.pdb
     RDKit          3D

 26 26  0  0  1  0  0  0  0  0999 V2000
    9.0273  -14.4749   18.5134 N   0  0  0  0  0  0  0  0  0  0  0  0
    8.5474  -13.5014   17.5248 C   0  0  0  0  0  0  0  0  0  0  0  0
    7.2803  -12.9783   18.1697 C   0  0  0  0  0  0  0  0  0  0  0  0
    7.5720  -12.9968   19.6375 C   0  0  0  0  0  0  0  0  0  0  0  0
    8.8272  -13.8032   19.7917 C   0  0  1  0  0  0  0  0  0  0  0  0
    8.8226  -14.7325   20.9344 C   0  0  0  0  0  0  0  0  0  0  0  0
    8.4161  -14.3827   22.0623 O   0  0  0  0  0  0  0  0  0  0  0  0
    9.2812  -16.0472   20.7799 N   0  0  0  0  0  0  0  0  0  0  0  0
    9.2594  -16.9889   21.8650 C   0  0  1  0  0  0  0  0  0  0  0  0
    9.5323  -18.3904   21.5038 C   0  0  0  0  0  0  0  0  0  0  0  0
    9.7393  -18.6884   20.0550 C   0  0  0  0  0  0  0  0  0  0  0  0
   10.0478  -20.0987   19.7753 C   0  0  0  0  0  0  0  0  0  0  0  0
   10.5370  -20.8209   20.6590 O   0  0  0  0  0  0  0  0  0  0  0  0
   10.2672  -16.5816   22.9129 C   0  0  0  0  0  0  0  0  0  0  0  0
   11.3575  -16.0889   22.6033 O   0  0  0  0  0  0  0  0  0  0  0  0
    9.7939  -20.6239   18.5273 O   0  0  0  0  0  0  0  0  0  0  0  0
    9.9620  -16.7649   24.2688 N   0  0  0  0  0  0  0  0  0  0  0  0
   10.7188  -16.2446   25.3770 C   0  0  1  0  0  0  0  0  0  0  0  0
    9.9120  -15.5943   26.4329 C   0  0  0  0  0  0  0  0  0  0  0  0
   10.7260  -14.9988   27.5435 C   0  0  0  0  0  0  0  0  0  0  0  0
    9.9249  -14.4336   28.6480 C   0  0  0  0  0  0  0  0  0  0  0  0
    8.6753  -14.4294   28.5922 O   0  0  0  0  0  0  0  0  0  0  0  0
   11.4342  -17.3891   26.0073 C   0  0  0  0  0  0  0  0  0  0  0  0
   10.9797  -18.5458   25.8960 O   0  0  0  0  0  0  0  0  0  0  0  0
   10.5081  -13.8878   29.7830 O   0  0  0  0  0  0  0  0  0  0  0  0
   12.6077  -17.2268   26.7277 O   0  0  0  0  0  0  0  0  0  0  0  0
  1  2  1  0
  1  5  1  0
  2  3  1  0
  3  4  1  0
  5  6  1  1
  5  4  1  0
  6  7  2  0
  8  9  1  0
  8  6  1  0
  9 10  1  6
 11 10  1  0
 12 11  1  0
 12 13  2  0
 14 15  2  0
 14  9  1  0
 16 12  1  0
 17 14  1  0
 18 17  1  0
 18 19  1  1
 20 21  1  0
 20 19  1  0
 21 22  2  0
 23 18  1  0
 23 26  1  0
 24 23  2  0
 25 21  1  0
M  END
$$$$
