PEE.pdb
     RDKit          3D

 26 26  0  0  1  0  0  0  0  0999 V2000
    8.4616  -14.8041   18.9204 N   0  0  0  0  0  0  0  0  0  0  0  0
    8.2943  -13.8543   17.8137 C   0  0  0  0  0  0  0  0  0  0  0  0
    7.3609  -12.8201   18.4087 C   0  0  0  0  0  0  0  0  0  0  0  0
    7.7402  -12.7617   19.8552 C   0  0  0  0  0  0  0  0  0  0  0  0
    8.6221  -13.9516   20.0921 C   0  0  1  0  0  0  0  0  0  0  0  0
    8.3682  -14.6608   21.3577 C   0  0  0  0  0  0  0  0  0  0  0  0
    8.3951  -14.0695   22.4574 O   0  0  0  0  0  0  0  0  0  0  0  0
    8.0880  -16.0334   21.3564 N   0  0  0  0  0  0  0  0  0  0  0  0
    7.7046  -16.7289   22.5540 C   0  0  1  0  0  0  0  0  0  0  0  0
    7.1856  -18.0941   22.3649 C   0  0  0  0  0  0  0  0  0  0  0  0
    6.7843  -18.8424   23.5935 C   0  0  0  0  0  0  0  0  0  0  0  0
    6.3105  -20.2093   23.3301 C   0  0  0  0  0  0  0  0  0  0  0  0
    5.1443  -20.5332   23.6076 O   0  0  0  0  0  0  0  0  0  0  0  0
    8.8836  -16.8132   23.4935 C   0  0  0  0  0  0  0  0  0  0  0  0
   10.0362  -16.9583   23.0718 O   0  0  0  0  0  0  0  0  0  0  0  0
    7.1625  -21.1373   22.7729 O   0  0  0  0  0  0  0  0  0  0  0  0
    8.6691  -16.7248   24.8760 N   0  0  0  0  0  0  0  0  0  0  0  0
    9.6945  -16.5922   25.8773 C   0  0  1  0  0  0  0  0  0  0  0  0
    9.4606  -15.5221   26.8719 C   0  0  0  0  0  0  0  0  0  0  0  0
   10.4459  -15.5142   28.0031 C   0  0  0  0  0  0  0  0  0  0  0  0
   10.1941  -14.4738   29.0206 C   0  0  0  0  0  0  0  0  0  0  0  0
    9.2047  -13.7144   28.9248 O   0  0  0  0  0  0  0  0  0  0  0  0
    9.7636  -17.8811   26.6209 C   0  0  0  0  0  0  0  0  0  0  0  0
    8.7485  -18.6002   26.7175 O   0  0  0  0  0  0  0  0  0  0  0  0
   11.0280  -14.2893   30.1145 O   0  0  0  0  0  0  0  0  0  0  0  0
   10.9285  -18.3303   27.2239 O   0  0  0  0  0  0  0  0  0  0  0  0
  1  2  1  0
  1  5  1  0
  2  3  1  0
  3  4  1  0
  5  6  1  1
  5  4  1  0
  6  7  2  0
  8  9  1  0
  8  6  1  0
  9 10  1  6
 11 10  1  0
 12 11  1  0
 12 13  2  0
 14 15  2  0
 14  9  1  0
 16 12  1  0
 17 14  1  0
 18 17  1  0
 18 19  1  1
 20 21  1  0
 20 19  1  0
 21 22  2  0
 23 18  1  0
 23 26  1  0
 24 23  2  0
 25 21  1  0
M  END
$$$$
