PEE.pdb
     RDKit          3D

 26 26  0  0  1  0  0  0  0  0999 V2000
    7.4869  -14.5962   19.1923 N   0  0  0  0  0  0  0  0  0  0  0  0
    7.1777  -13.3148   18.5461 C   0  0  0  0  0  0  0  0  0  0  0  0
    7.4184  -12.3192   19.6623 C   0  0  0  0  0  0  0  0  0  0  0  0
    8.5483  -12.9053   20.4495 C   0  0  0  0  0  0  0  0  0  0  0  0
    8.6918  -14.3172   19.9641 C   0  0  1  0  0  0  0  0  0  0  0  0
    8.9366  -15.3087   21.0254 C   0  0  0  0  0  0  0  0  0  0  0  0
    8.0907  -15.5398   21.9145 O   0  0  0  0  0  0  0  0  0  0  0  0
   10.1407  -16.0239   21.0623 N   0  0  0  0  0  0  0  0  0  0  0  0
   10.4049  -17.0098   22.0738 C   0  0  1  0  0  0  0  0  0  0  0  0
   11.1716  -18.1886   21.6361 C   0  0  0  0  0  0  0  0  0  0  0  0
   11.4938  -19.2112   22.6758 C   0  0  0  0  0  0  0  0  0  0  0  0
   12.3301  -20.3166   22.1848 C   0  0  0  0  0  0  0  0  0  0  0  0
   12.6679  -21.2349   22.9494 O   0  0  0  0  0  0  0  0  0  0  0  0
   11.1555  -16.3749   23.2197 C   0  0  0  0  0  0  0  0  0  0  0  0
   12.0836  -15.5826   23.0238 O   0  0  0  0  0  0  0  0  0  0  0  0
   12.7424  -20.3360   20.8705 O   0  0  0  0  0  0  0  0  0  0  0  0
   10.7936  -16.6890   24.5371 N   0  0  0  0  0  0  0  0  0  0  0  0
   11.3816  -16.1284   25.7252 C   0  0  1  0  0  0  0  0  0  0  0  0
   10.4140  -15.5849   26.7035 C   0  0  0  0  0  0  0  0  0  0  0  0
   11.0432  -15.0780   27.9675 C   0  0  0  0  0  0  0  0  0  0  0  0
   10.0977  -14.4309   28.8995 C   0  0  0  0  0  0  0  0  0  0  0  0
    9.0843  -13.8370   28.4695 O   0  0  0  0  0  0  0  0  0  0  0  0
   12.1376  -17.2160   26.4068 C   0  0  0  0  0  0  0  0  0  0  0  0
   12.9925  -16.9340   27.2707 O   0  0  0  0  0  0  0  0  0  0  0  0
   10.2833  -14.4484   30.2748 O   0  0  0  0  0  0  0  0  0  0  0  0
   11.9316  -18.5571   26.1209 O   0  0  0  0  0  0  0  0  0  0  0  0
  1  2  1  0
  1  5  1  0
  2  3  1  0
  3  4  1  0
  5  6  1  1
  5  4  1  0
  6  7  2  0
  8  9  1  0
  8  6  1  0
  9 10  1  6
 11 10  1  0
 12 11  1  0
 12 13  2  0
 14 15  2  0
 14  9  1  0
 16 12  1  0
 17 14  1  0
 18 17  1  0
 18 19  1  1
 20 21  1  0
 20 19  1  0
 21 22  2  0
 23 18  1  0
 23 26  1  0
 24 23  2  0
 25 21  1  0
M  END
$$$$
