PEE.pdb
     RDKit          3D

 26 26  0  0  1  0  0  0  0  0999 V2000
    6.6735  -14.6215   19.7621 N   0  0  0  0  0  0  0  0  0  0  0  0
    6.9489  -13.6230   18.7218 C   0  0  0  0  0  0  0  0  0  0  0  0
    7.8221  -12.6229   19.4514 C   0  0  0  0  0  0  0  0  0  0  0  0
    8.6152  -13.4505   20.4137 C   0  0  0  0  0  0  0  0  0  0  0  0
    7.9594  -14.7994   20.4256 C   0  0  1  0  0  0  0  0  0  0  0  0
    7.8375  -15.4102   21.7602 C   0  0  0  0  0  0  0  0  0  0  0  0
    7.0127  -14.9923   22.5997 O   0  0  0  0  0  0  0  0  0  0  0  0
    8.6557  -16.4879   22.1232 N   0  0  0  0  0  0  0  0  0  0  0  0
    8.5597  -17.1097   23.4151 C   0  0  1  0  0  0  0  0  0  0  0  0
    7.4836  -18.1031   23.5706 C   0  0  0  0  0  0  0  0  0  0  0  0
    7.4015  -18.8128   24.8821 C   0  0  0  0  0  0  0  0  0  0  0  0
    6.3546  -19.8441   24.9366 C   0  0  0  0  0  0  0  0  0  0  0  0
    6.1022  -20.4257   26.0042 O   0  0  0  0  0  0  0  0  0  0  0  0
    9.8645  -17.7917   23.7501 C   0  0  0  0  0  0  0  0  0  0  0  0
   10.3050  -18.7175   23.0600 O   0  0  0  0  0  0  0  0  0  0  0  0
    5.6489  -20.1686   23.7989 O   0  0  0  0  0  0  0  0  0  0  0  0
   10.5952  -17.3672   24.8685 N   0  0  0  0  0  0  0  0  0  0  0  0
   11.7428  -18.0352   25.4239 C   0  0  1  0  0  0  0  0  0  0  0  0
   13.0499  -17.5062   24.9761 C   0  0  0  0  0  0  0  0  0  0  0  0
   12.9573  -16.2230   24.2045 C   0  0  0  0  0  0  0  0  0  0  0  0
   14.2437  -15.7516   23.6530 C   0  0  0  0  0  0  0  0  0  0  0  0
   15.3004  -16.3854   23.8686 O   0  0  0  0  0  0  0  0  0  0  0  0
   11.6825  -17.8736   26.9034 C   0  0  0  0  0  0  0  0  0  0  0  0
   12.5531  -18.4022   27.6242 O   0  0  0  0  0  0  0  0  0  0  0  0
   14.3431  -14.6019   22.8820 O   0  0  0  0  0  0  0  0  0  0  0  0
   10.6829  -17.1469   27.5322 O   0  0  0  0  0  0  0  0  0  0  0  0
  1  2  1  0
  1  5  1  0
  2  3  1  0
  3  4  1  0
  5  6  1  1
  5  4  1  0
  6  7  2  0
  8  9  1  0
  8  6  1  0
  9 10  1  6
 11 10  1  0
 12 11  1  0
 12 13  2  0
 14 15  2  0
 14  9  1  0
 16 12  1  0
 17 14  1  0
 18 17  1  0
 18 19  1  6
 20 21  1  0
 20 19  1  0
 21 22  2  0
 23 18  1  0
 23 26  1  0
 24 23  2  0
 25 21  1  0
M  END
$$$$
