PEE.pdb
     RDKit          3D

 26 26  0  0  1  0  0  0  0  0999 V2000
    8.9761  -12.9072   18.4678 N   0  0  0  0  0  0  0  0  0  0  0  0
    7.5733  -12.5378   18.2426 C   0  0  0  0  0  0  0  0  0  0  0  0
    6.8469  -13.8431   18.4947 C   0  0  0  0  0  0  0  0  0  0  0  0
    7.6448  -14.5141   19.5685 C   0  0  0  0  0  0  0  0  0  0  0  0
    8.9301  -13.7464   19.6590 C   0  0  1  0  0  0  0  0  0  0  0  0
   10.1329  -14.5810   19.8205 C   0  0  0  0  0  0  0  0  0  0  0  0
   10.1627  -15.5405   20.6194 O   0  0  0  0  0  0  0  0  0  0  0  0
   11.2864  -14.3132   19.0721 N   0  0  0  0  0  0  0  0  0  0  0  0
   12.4878  -15.0855   19.2305 C   0  0  1  0  0  0  0  0  0  0  0  0
   13.5759  -14.7803   18.2860 C   0  0  0  0  0  0  0  0  0  0  0  0
   14.8075  -15.6202   18.3774 C   0  0  0  0  0  0  0  0  0  0  0  0
   15.8179  -15.3087   17.3554 C   0  0  0  0  0  0  0  0  0  0  0  0
   16.9455  -15.8256   17.4104 O   0  0  0  0  0  0  0  0  0  0  0  0
   13.0298  -14.9032   20.6279 C   0  0  0  0  0  0  0  0  0  0  0  0
   13.2227  -13.7792   21.1041 O   0  0  0  0  0  0  0  0  0  0  0  0
   15.5146  -14.4393   16.3308 O   0  0  0  0  0  0  0  0  0  0  0  0
   13.3214  -16.0326   21.4054 N   0  0  0  0  0  0  0  0  0  0  0  0
   13.7727  -16.0167   22.7719 C   0  0  1  0  0  0  0  0  0  0  0  0
   13.2364  -17.1048   23.6189 C   0  0  0  0  0  0  0  0  0  0  0  0
   13.6757  -17.0362   25.0517 C   0  0  0  0  0  0  0  0  0  0  0  0
   13.0599  -18.0555   25.9252 C   0  0  0  0  0  0  0  0  0  0  0  0
   13.7633  -18.9272   26.4820 O   0  0  0  0  0  0  0  0  0  0  0  0
   15.2555  -16.1578   22.7555 C   0  0  0  0  0  0  0  0  0  0  0  0
   15.8165  -16.7321   21.8003 O   0  0  0  0  0  0  0  0  0  0  0  0
   11.6939  -18.0970   26.1673 O   0  0  0  0  0  0  0  0  0  0  0  0
   16.0605  -15.6698   23.7736 O   0  0  0  0  0  0  0  0  0  0  0  0
  1  2  1  0
  1  5  1  0
  2  3  1  0
  3  4  1  0
  5  6  1  6
  5  4  1  0
  6  7  2  0
  8  9  1  0
  8  6  1  0
  9 10  1  6
 11 10  1  0
 12 11  1  0
 12 13  2  0
 14 15  2  0
 14  9  1  0
 16 12  1  0
 17 14  1  0
 18 17  1  0
 18 19  1  1
 20 21  1  0
 20 19  1  0
 21 22  2  0
 23 18  1  0
 23 26  1  0
 24 23  2  0
 25 21  1  0
M  END
$$$$
