PEE.pdb
     RDKit          3D

 26 26  0  0  1  0  0  0  0  0999 V2000
    7.4019  -15.1540   19.6678 N   0  0  0  0  0  0  0  0  0  0  0  0
    6.7972  -14.3154   18.6257 C   0  0  0  0  0  0  0  0  0  0  0  0
    6.9799  -12.9186   19.1831 C   0  0  0  0  0  0  0  0  0  0  0  0
    8.2781  -12.9787   19.9254 C   0  0  0  0  0  0  0  0  0  0  0  0
    8.6166  -14.4358   20.0339 C   0  0  1  0  0  0  0  0  0  0  0  0
    9.1534  -14.8449   21.3431 C   0  0  0  0  0  0  0  0  0  0  0  0
   10.2352  -14.3968   21.7772 O   0  0  0  0  0  0  0  0  0  0  0  0
    8.4532  -15.7588   22.1413 N   0  0  0  0  0  0  0  0  0  0  0  0
    8.9425  -16.1700   23.4283 C   0  0  1  0  0  0  0  0  0  0  0  0
    8.0011  -16.9439   24.2553 C   0  0  0  0  0  0  0  0  0  0  0  0
    8.4913  -17.4041   25.5889 C   0  0  0  0  0  0  0  0  0  0  0  0
    7.5276  -18.2383   26.3222 C   0  0  0  0  0  0  0  0  0  0  0  0
    7.7578  -18.5800   27.4935 O   0  0  0  0  0  0  0  0  0  0  0  0
   10.1912  -17.0012   23.2564 C   0  0  0  0  0  0  0  0  0  0  0  0
   10.2374  -17.9387   22.4525 O   0  0  0  0  0  0  0  0  0  0  0  0
    6.3628  -18.6443   25.7089 O   0  0  0  0  0  0  0  0  0  0  0  0
   11.3258  -16.7050   24.0247 N   0  0  0  0  0  0  0  0  0  0  0  0
   12.6101  -17.3435   23.9051 C   0  0  1  0  0  0  0  0  0  0  0  0
   13.6933  -16.4754   23.3933 C   0  0  0  0  0  0  0  0  0  0  0  0
   15.0194  -17.1650   23.2654 C   0  0  0  0  0  0  0  0  0  0  0  0
   16.1025  -16.3067   22.7442 C   0  0  0  0  0  0  0  0  0  0  0  0
   16.4951  -15.3114   23.3921 O   0  0  0  0  0  0  0  0  0  0  0  0
   13.0122  -17.7988   25.2653 C   0  0  0  0  0  0  0  0  0  0  0  0
   12.5355  -17.2423   26.2751 O   0  0  0  0  0  0  0  0  0  0  0  0
   16.7276  -16.5568   21.5305 O   0  0  0  0  0  0  0  0  0  0  0  0
   13.9109  -18.8352   25.4672 O   0  0  0  0  0  0  0  0  0  0  0  0
  1  2  1  0
  1  5  1  0
  2  3  1  0
  3  4  1  0
  5  6  1  1
  5  4  1  0
  6  7  2  0
  8  9  1  0
  8  6  1  0
  9 10  1  6
 11 10  1  0
 12 11  1  0
 12 13  2  0
 14 15  2  0
 14  9  1  0
 16 12  1  0
 17 14  1  0
 18 17  1  0
 18 19  1  1
 20 21  1  0
 20 19  1  0
 21 22  2  0
 23 18  1  0
 23 26  1  0
 24 23  2  0
 25 21  1  0
M  END
$$$$
