PEE.pdb
     RDKit          3D

 26 26  0  0  1  0  0  0  0  0999 V2000
    8.0518  -14.5748   19.0917 N   0  0  0  0  0  0  0  0  0  0  0  0
    7.2236  -13.4428   18.6582 C   0  0  0  0  0  0  0  0  0  0  0  0
    7.2796  -12.5187   19.8574 C   0  0  0  0  0  0  0  0  0  0  0  0
    8.6509  -12.7207   20.4219 C   0  0  0  0  0  0  0  0  0  0  0  0
    9.1928  -13.9441   19.7441 C   0  0  1  0  0  0  0  0  0  0  0  0
    9.9270  -14.8623   20.6314 C   0  0  0  0  0  0  0  0  0  0  0  0
   10.8205  -14.4543   21.4026 O   0  0  0  0  0  0  0  0  0  0  0  0
    9.6361  -16.2327   20.6294 N   0  0  0  0  0  0  0  0  0  0  0  0
   10.3504  -17.1593   21.4637 C   0  0  1  0  0  0  0  0  0  0  0  0
   11.3220  -18.0256   20.7748 C   0  0  0  0  0  0  0  0  0  0  0  0
   12.0053  -19.0665   21.5995 C   0  0  0  0  0  0  0  0  0  0  0  0
   12.1728  -20.3556   20.9121 C   0  0  0  0  0  0  0  0  0  0  0  0
   13.0486  -20.4936   20.0428 O   0  0  0  0  0  0  0  0  0  0  0  0
   11.0921  -16.4063   22.5419 C   0  0  0  0  0  0  0  0  0  0  0  0
   11.8684  -15.4844   22.2684 O   0  0  0  0  0  0  0  0  0  0  0  0
   11.3552  -21.4171   21.2321 O   0  0  0  0  0  0  0  0  0  0  0  0
   10.8977  -16.7585   23.8849 N   0  0  0  0  0  0  0  0  0  0  0  0
   11.4780  -16.0904   25.0199 C   0  0  1  0  0  0  0  0  0  0  0  0
   10.5141  -15.6918   26.0692 C   0  0  0  0  0  0  0  0  0  0  0  0
   11.1211  -14.8916   27.1836 C   0  0  0  0  0  0  0  0  0  0  0  0
   10.1434  -14.3731   28.1615 C   0  0  0  0  0  0  0  0  0  0  0  0
   10.5170  -13.6658   29.1231 O   0  0  0  0  0  0  0  0  0  0  0  0
   12.4496  -17.0310   25.6446 C   0  0  0  0  0  0  0  0  0  0  0  0
   13.4338  -16.5864   26.2696 O   0  0  0  0  0  0  0  0  0  0  0  0
    8.7849  -14.6404   28.0645 O   0  0  0  0  0  0  0  0  0  0  0  0
   12.3090  -18.4080   25.5634 O   0  0  0  0  0  0  0  0  0  0  0  0
  1  2  1  0
  1  5  1  0
  2  3  1  0
  3  4  1  0
  5  6  1  1
  5  4  1  0
  6  7  2  0
  8  9  1  0
  8  6  1  0
  9 10  1  6
 11 10  1  0
 12 11  1  0
 12 13  2  0
 14 15  2  0
 14  9  1  0
 16 12  1  0
 17 14  1  0
 18 17  1  0
 18 19  1  1
 20 21  1  0
 20 19  1  0
 21 22  2  0
 23 18  1  0
 23 26  1  0
 24 23  2  0
 25 21  1  0
M  END
$$$$
