PEE.pdb
     RDKit          3D

 26 26  0  0  1  0  0  0  0  0999 V2000
    9.0483  -13.5024   19.2530 N   0  0  0  0  0  0  0  0  0  0  0  0
    8.0535  -12.6190   18.6324 C   0  0  0  0  0  0  0  0  0  0  0  0
    6.8984  -13.5626   18.3676 C   0  0  0  0  0  0  0  0  0  0  0  0
    6.9426  -14.5364   19.5031 C   0  0  0  0  0  0  0  0  0  0  0  0
    8.2661  -14.3178   20.1741 C   0  0  1  0  0  0  0  0  0  0  0  0
    8.9596  -15.5525   20.5793 C   0  0  0  0  0  0  0  0  0  0  0  0
    8.3635  -16.4738   21.1755 O   0  0  0  0  0  0  0  0  0  0  0  0
   10.3221  -15.7229   20.3019 N   0  0  0  0  0  0  0  0  0  0  0  0
   11.0471  -16.8795   20.7509 C   0  0  1  0  0  0  0  0  0  0  0  0
   12.2474  -17.2269   19.9713 C   0  0  0  0  0  0  0  0  0  0  0  0
   12.3778  -18.6462   19.5251 C   0  0  0  0  0  0  0  0  0  0  0  0
   13.5902  -18.9137   18.7371 C   0  0  0  0  0  0  0  0  0  0  0  0
   14.7134  -18.7088   19.2254 O   0  0  0  0  0  0  0  0  0  0  0  0
   11.4733  -16.6876   22.1865 C   0  0  0  0  0  0  0  0  0  0  0  0
   11.7243  -15.5662   22.6413 O   0  0  0  0  0  0  0  0  0  0  0  0
   13.4824  -19.3940   17.4505 O   0  0  0  0  0  0  0  0  0  0  0  0
   11.5874  -17.8050   23.0254 N   0  0  0  0  0  0  0  0  0  0  0  0
   11.8822  -17.7702   24.4337 C   0  0  1  0  0  0  0  0  0  0  0  0
   11.2102  -18.8147   25.2378 C   0  0  0  0  0  0  0  0  0  0  0  0
   12.1388  -19.8634   25.7750 C   0  0  0  0  0  0  0  0  0  0  0  0
   11.5011  -20.8242   26.6976 C   0  0  0  0  0  0  0  0  0  0  0  0
   10.2780  -20.7509   26.9492 O   0  0  0  0  0  0  0  0  0  0  0  0
   13.3505  -17.9676   24.5889 C   0  0  0  0  0  0  0  0  0  0  0  0
   14.0091  -18.4955   23.6699 O   0  0  0  0  0  0  0  0  0  0  0  0
   12.2143  -21.8385   27.3211 O   0  0  0  0  0  0  0  0  0  0  0  0
   14.0360  -17.5834   25.7313 O   0  0  0  0  0  0  0  0  0  0  0  0
  1  2  1  0
  1  5  1  0
  2  3  1  0
  3  4  1  0
  5  6  1  6
  5  4  1  0
  6  7  2  0
  8  9  1  0
  8  6  1  0
  9 10  1  6
 11 10  1  0
 12 11  1  0
 12 13  2  0
 14 15  2  0
 14  9  1  0
 16 12  1  0
 17 14  1  0
 18 17  1  0
 18 19  1  1
 20 21  1  0
 20 19  1  0
 21 22  2  0
 23 18  1  0
 23 26  1  0
 24 23  2  0
 25 21  1  0
M  END
$$$$
