HCH.pdb
     RDKit          3D

 27 28  0  0  1  0  0  0  0  0999 V2000
   34.0728  -30.8860  -17.9903 N   0  0  0  0  0  0  0  0  0  0  0  0
   33.5229  -29.7307  -18.6630 C   0  0  1  0  0  0  0  0  0  0  0  0
   32.5288  -30.1687  -19.7085 C   0  0  0  0  0  0  0  0  0  0  0  0
   33.1570  -30.6300  -20.9686 C   0  0  0  0  0  0  0  0  0  0  0  0
   34.4555  -30.2927  -21.3792 C   0  0  0  0  0  0  0  0  0  0  0  0
   34.7000  -30.8746  -22.5537 N   0  0  0  0  0  0  0  0  0  0  0  0
   33.6039  -31.5642  -22.8955 C   0  0  0  0  0  0  0  0  0  0  0  0
   32.6839  -31.4173  -21.9484 N   0  0  0  0  0  0  0  0  0  0  0  0
   32.7561  -28.9471  -17.6563 C   0  0  0  0  0  0  0  0  0  0  0  0
   32.2032  -29.6064  -16.7415 O   0  0  0  0  0  0  0  0  0  0  0  0
   32.6076  -27.5474  -17.6542 N   0  0  0  0  0  0  0  0  0  0  0  0
   31.8746  -26.8134  -16.6561 C   0  0  1  0  0  0  0  0  0  0  0  0
   32.7184  -25.8211  -15.9035 C   0  0  0  0  0  0  0  0  0  0  0  0
   31.8019  -25.0606  -14.5370 S   0  0  0  0  0  0  0  0  0  0  0  0
   30.7077  -26.0946  -17.2280 C   0  0  0  0  0  0  0  0  0  0  0  0
   30.7946  -25.5557  -18.3603 O   0  0  0  0  0  0  0  0  0  0  0  0
   29.5036  -26.0119  -16.5120 N   0  0  0  0  0  0  0  0  0  0  0  0
   28.3391  -25.2625  -17.0112 C   0  0  1  0  0  0  0  0  0  0  0  0
   27.2545  -25.3527  -15.9948 C   0  0  0  0  0  0  0  0  0  0  0  0
   26.1135  -24.4895  -16.3709 C   0  0  0  0  0  0  0  0  0  0  0  0
   25.7574  -24.0706  -17.6467 C   0  0  0  0  0  0  0  0  0  0  0  0
   24.6607  -23.2952  -17.5887 N   0  0  0  0  0  0  0  0  0  0  0  0
   24.3328  -23.2286  -16.2907 C   0  0  0  0  0  0  0  0  0  0  0  0
   25.2089  -23.9491  -15.5548 N   0  0  0  0  0  0  0  0  0  0  0  0
   28.7586  -23.8567  -17.1736 C   0  0  0  0  0  0  0  0  0  0  0  0
   29.6646  -23.3011  -16.2946 O   0  0  0  0  0  0  0  0  0  0  0  0
   28.3288  -23.1012  -18.0958 O   0  0  0  0  0  0  0  0  0  0  0  0
  2  1  1  1
  2  9  1  0
  3  2  1  0
  3  4  1  0
  4  5  2  0
  5  6  1  0
  7  6  1  0
  8  4  1  0
  8  7  2  0
  9 11  1  0
  9 10  2  0
 11 12  1  0
 12 15  1  0
 12 13  1  6
 14 13  1  0
 15 16  2  0
 17 15  1  0
 17 18  1  0
 18 25  1  0
 19 20  1  0
 18 19  1  1
 20 24  1  0
 21 20  2  0
 21 22  1  0
 22 23  1  0
 24 23  2  0
 25 26  1  0
 27 25  2  0
M  END
$$$$
