HCH.pdb
     RDKit          3D

 27 28  0  0  1  0  0  0  0  0999 V2000
   26.9681  -19.9541  -17.8782 N   0  0  0  0  0  0  0  0  0  0  0  0
   27.0278  -19.0936  -16.7181 C   0  0  1  0  0  0  0  0  0  0  0  0
   25.8218  -18.1894  -16.6854 C   0  0  0  0  0  0  0  0  0  0  0  0
   25.8212  -17.1618  -17.7527 C   0  0  0  0  0  0  0  0  0  0  0  0
   26.9146  -16.8803  -18.5856 C   0  0  0  0  0  0  0  0  0  0  0  0
   26.5732  -15.9058  -19.4292 N   0  0  0  0  0  0  0  0  0  0  0  0
   25.3068  -15.5652  -19.1569 C   0  0  0  0  0  0  0  0  0  0  0  0
   24.8594  -16.3157  -18.1562 N   0  0  0  0  0  0  0  0  0  0  0  0
   26.9366  -19.9596  -15.5110 C   0  0  0  0  0  0  0  0  0  0  0  0
   25.8898  -20.6436  -15.3947 O   0  0  0  0  0  0  0  0  0  0  0  0
   27.9189  -20.0662  -14.5086 N   0  0  0  0  0  0  0  0  0  0  0  0
   27.7192  -20.7322  -13.2481 C   0  0  1  0  0  0  0  0  0  0  0  0
   28.9937  -20.9553  -12.4808 C   0  0  0  0  0  0  0  0  0  0  0  0
   30.0444  -19.4783  -12.4806 S   0  0  0  0  0  0  0  0  0  0  0  0
   26.7675  -20.0046  -12.3703 C   0  0  0  0  0  0  0  0  0  0  0  0
   26.3384  -18.8730  -12.7100 O   0  0  0  0  0  0  0  0  0  0  0  0
   26.3412  -20.5724  -11.1598 N   0  0  0  0  0  0  0  0  0  0  0  0
   25.0244  -20.2782  -10.5712 C   0  0  1  0  0  0  0  0  0  0  0  0
   23.9751  -20.8109  -11.4836 C   0  0  0  0  0  0  0  0  0  0  0  0
   22.6252  -20.4875  -10.9719 C   0  0  0  0  0  0  0  0  0  0  0  0
   22.3071  -19.7951   -9.8104 C   0  0  0  0  0  0  0  0  0  0  0  0
   20.9724  -19.6984   -9.6814 N   0  0  0  0  0  0  0  0  0  0  0  0
   20.4593  -20.3234  -10.7505 C   0  0  0  0  0  0  0  0  0  0  0  0
   21.4560  -20.8001  -11.5301 N   0  0  0  0  0  0  0  0  0  0  0  0
   24.9594  -20.9743   -9.2713 C   0  0  0  0  0  0  0  0  0  0  0  0
   25.4558  -22.2552   -9.1489 O   0  0  0  0  0  0  0  0  0  0  0  0
   24.4622  -20.4580   -8.2262 O   0  0  0  0  0  0  0  0  0  0  0  0
  2  1  1  6
  2  9  1  0
  3  2  1  0
  3  4  1  0
  4  5  2  0
  5  6  1  0
  7  6  1  0
  8  4  1  0
  8  7  2  0
  9 11  1  0
  9 10  2  0
 11 12  1  0
 12 15  1  0
 12 13  1  1
 14 13  1  0
 15 16  2  0
 17 15  1  0
 17 18  1  0
 18 25  1  0
 19 20  1  0
 18 19  1  6
 20 24  1  0
 21 20  2  0
 21 22  1  0
 22 23  1  0
 24 23  2  0
 25 26  1  0
 27 25  2  0
M  END
$$$$
