HCH.pdb
     RDKit          3D

 27 28  0  0  1  0  0  0  0  0999 V2000
   16.7154  -14.0676  -16.5572 N   0  0  0  0  0  0  0  0  0  0  0  0
   16.5573  -12.8990  -17.3934 C   0  0  1  0  0  0  0  0  0  0  0  0
   15.2402  -12.9635  -18.1242 C   0  0  0  0  0  0  0  0  0  0  0  0
   15.1961  -14.0045  -19.1775 C   0  0  0  0  0  0  0  0  0  0  0  0
   14.3006  -15.0845  -19.1904 C   0  0  0  0  0  0  0  0  0  0  0  0
   14.5342  -15.8240  -20.2751 N   0  0  0  0  0  0  0  0  0  0  0  0
   15.5424  -15.2487  -20.9432 C   0  0  0  0  0  0  0  0  0  0  0  0
   15.9363  -14.1628  -20.2868 N   0  0  0  0  0  0  0  0  0  0  0  0
   16.4834  -11.7123  -16.4979 C   0  0  0  0  0  0  0  0  0  0  0  0
   15.7774  -11.8365  -15.4667 O   0  0  0  0  0  0  0  0  0  0  0  0
   17.1342  -10.4839  -16.7179 N   0  0  0  0  0  0  0  0  0  0  0  0
   17.0951   -9.3728  -15.8034 C   0  0  1  0  0  0  0  0  0  0  0  0
   17.8922   -9.6025  -14.5485 C   0  0  0  0  0  0  0  0  0  0  0  0
   17.7728  -11.3203  -13.9825 S   0  0  0  0  0  0  0  0  0  0  0  0
   17.5638   -8.1102  -16.4293 C   0  0  0  0  0  0  0  0  0  0  0  0
   18.6582   -8.0834  -17.0471 O   0  0  0  0  0  0  0  0  0  0  0  0
   16.7918   -6.9420  -16.3366 N   0  0  0  0  0  0  0  0  0  0  0  0
   17.1425   -5.7059  -17.0550 C   0  0  1  0  0  0  0  0  0  0  0  0
   15.9021   -5.1515  -17.6644 C   0  0  0  0  0  0  0  0  0  0  0  0
   15.3962   -6.0485  -18.7265 C   0  0  0  0  0  0  0  0  0  0  0  0
   14.3505   -6.9584  -18.6347 C   0  0  0  0  0  0  0  0  0  0  0  0
   14.1858   -7.5923  -19.8087 N   0  0  0  0  0  0  0  0  0  0  0  0
   15.1180   -7.0854  -20.6277 C   0  0  0  0  0  0  0  0  0  0  0  0
   15.8491   -6.1535  -19.9755 N   0  0  0  0  0  0  0  0  0  0  0  0
   17.6797   -4.7574  -16.0599 C   0  0  0  0  0  0  0  0  0  0  0  0
   18.0944   -3.5031  -16.4559 O   0  0  0  0  0  0  0  0  0  0  0  0
   17.7893   -5.0262  -14.8263 O   0  0  0  0  0  0  0  0  0  0  0  0
  2  1  1  1
  2  9  1  0
  3  2  1  0
  3  4  1  0
  4  5  2  0
  5  6  1  0
  7  6  1  0
  8  4  1  0
  8  7  2  0
  9 11  1  0
  9 10  2  0
 11 12  1  0
 12 15  1  0
 12 13  1  1
 14 13  1  0
 15 16  2  0
 17 15  1  0
 17 18  1  0
 18 25  1  0
 19 20  1  0
 18 19  1  1
 20 24  1  0
 21 20  2  0
 21 22  1  0
 22 23  1  0
 24 23  2  0
 25 26  1  0
 27 25  2  0
M  END
$$$$
