HCH.pdb
     RDKit          3D

 27 28  0  0  1  0  0  0  0  0999 V2000
   23.0747  -34.5024  -12.3928 N   0  0  0  0  0  0  0  0  0  0  0  0
   22.6720  -33.3190  -11.6666 C   0  0  1  0  0  0  0  0  0  0  0  0
   21.1946  -33.3741  -11.3716 C   0  0  0  0  0  0  0  0  0  0  0  0
   20.3431  -33.2307  -12.5756 C   0  0  0  0  0  0  0  0  0  0  0  0
   20.0494  -32.0093  -13.2004 C   0  0  0  0  0  0  0  0  0  0  0  0
   19.2607  -32.2418  -14.2501 N   0  0  0  0  0  0  0  0  0  0  0  0
   19.0484  -33.5630  -14.3074 C   0  0  0  0  0  0  0  0  0  0  0  0
   19.6951  -34.1518  -13.3073 N   0  0  0  0  0  0  0  0  0  0  0  0
   23.3648  -33.3426  -10.3494 C   0  0  0  0  0  0  0  0  0  0  0  0
   23.6968  -34.4734   -9.9155 O   0  0  0  0  0  0  0  0  0  0  0  0
   23.6692  -32.2119   -9.5685 N   0  0  0  0  0  0  0  0  0  0  0  0
   24.3491  -32.2637   -8.3007 C   0  0  1  0  0  0  0  0  0  0  0  0
   24.5829  -30.9084   -7.6914 C   0  0  0  0  0  0  0  0  0  0  0  0
   23.5583  -29.6345   -8.4745 S   0  0  0  0  0  0  0  0  0  0  0  0
   23.6301  -33.1033   -7.3090 C   0  0  0  0  0  0  0  0  0  0  0  0
   22.4153  -33.3773   -7.4803 O   0  0  0  0  0  0  0  0  0  0  0  0
   24.2984  -33.5957   -6.1775 N   0  0  0  0  0  0  0  0  0  0  0  0
   23.6198  -34.4010   -5.1489 C   0  0  1  0  0  0  0  0  0  0  0  0
   23.1280  -35.6541   -5.7856 C   0  0  0  0  0  0  0  0  0  0  0  0
   22.4998  -36.5388   -4.7801 C   0  0  0  0  0  0  0  0  0  0  0  0
   22.4959  -36.3781   -3.4002 C   0  0  0  0  0  0  0  0  0  0  0  0
   21.8225  -37.3866   -2.8199 N   0  0  0  0  0  0  0  0  0  0  0  0
   21.4088  -38.1711   -3.8249 C   0  0  0  0  0  0  0  0  0  0  0  0
   21.8170  -37.6604   -5.0085 N   0  0  0  0  0  0  0  0  0  0  0  0
   24.6207  -34.7239   -4.1133 C   0  0  0  0  0  0  0  0  0  0  0  0
   24.2633  -35.4892   -3.0231 O   0  0  0  0  0  0  0  0  0  0  0  0
   25.8253  -34.3328   -4.1596 O   0  0  0  0  0  0  0  0  0  0  0  0
  2  1  1  6
  2  9  1  0
  3  2  1  0
  3  4  1  0
  4  5  2  0
  5  6  1  0
  7  6  1  0
  8  4  1  0
  8  7  2  0
  9 11  1  0
  9 10  2  0
 11 12  1  0
 12 15  1  0
 12 13  1  1
 14 13  1  0
 15 16  2  0
 17 15  1  0
 17 18  1  0
 18 25  1  0
 19 20  1  0
 18 19  1  6
 20 24  1  0
 21 20  2  0
 21 22  1  0
 22 23  1  0
 24 23  2  0
 25 26  1  0
 27 25  2  0
M  END
$$$$
