HCH.pdb
     RDKit          3D

 27 28  0  0  1  0  0  0  0  0999 V2000
   26.7263  -23.0312   11.4419 N   0  0  0  0  0  0  0  0  0  0  0  0
   27.3871  -24.2835   11.7338 C   0  0  1  0  0  0  0  0  0  0  0  0
   26.3779  -25.4031   11.7634 C   0  0  0  0  0  0  0  0  0  0  0  0
   25.5129  -25.3910   12.9661 C   0  0  0  0  0  0  0  0  0  0  0  0
   25.9730  -25.5799   14.2780 C   0  0  0  0  0  0  0  0  0  0  0  0
   24.9354  -25.5086   15.1124 N   0  0  0  0  0  0  0  0  0  0  0  0
   23.8416  -25.2820   14.3734 C   0  0  0  0  0  0  0  0  0  0  0  0
   24.1879  -25.2120   13.0927 N   0  0  0  0  0  0  0  0  0  0  0  0
   28.3095  -24.5789   10.6036 C   0  0  0  0  0  0  0  0  0  0  0  0
   27.9871  -24.1087    9.4846 O   0  0  0  0  0  0  0  0  0  0  0  0
   29.4946  -25.3328   10.6949 N   0  0  0  0  0  0  0  0  0  0  0  0
   30.7548  -24.9306   10.1271 C   0  0  1  0  0  0  0  0  0  0  0  0
   31.2289  -23.5885   10.6135 C   0  0  0  0  0  0  0  0  0  0  0  0
   31.9587  -22.6086    9.2745 S   0  0  0  0  0  0  0  0  0  0  0  0
   31.8295  -25.9243   10.3785 C   0  0  0  0  0  0  0  0  0  0  0  0
   32.1351  -26.2351   11.5575 O   0  0  0  0  0  0  0  0  0  0  0  0
   32.5096  -26.5218    9.3062 N   0  0  0  0  0  0  0  0  0  0  0  0
   33.5668  -27.5268    9.5045 C   0  0  1  0  0  0  0  0  0  0  0  0
   33.8153  -28.2068    8.2033 C   0  0  0  0  0  0  0  0  0  0  0  0
   32.7177  -29.1470    7.8875 C   0  0  0  0  0  0  0  0  0  0  0  0
   31.8066  -29.7080    8.7736 C   0  0  0  0  0  0  0  0  0  0  0  0
   30.9576  -30.5148    8.1137 N   0  0  0  0  0  0  0  0  0  0  0  0
   31.3322  -30.4603    6.8278 C   0  0  0  0  0  0  0  0  0  0  0  0
   32.3945  -29.6350    6.6902 N   0  0  0  0  0  0  0  0  0  0  0  0
   34.7815  -26.8069    9.9343 C   0  0  0  0  0  0  0  0  0  0  0  0
   35.9034  -27.5127   10.3152 O   0  0  0  0  0  0  0  0  0  0  0  0
   34.8660  -25.5432    9.9785 O   0  0  0  0  0  0  0  0  0  0  0  0
  2  1  1  6
  2  9  1  0
  3  2  1  0
  3  4  1  0
  4  5  2  0
  5  6  1  0
  7  6  1  0
  8  4  1  0
  8  7  2  0
  9 11  1  0
  9 10  2  0
 11 12  1  0
 12 15  1  0
 12 13  1  1
 14 13  1  0
 15 16  2  0
 17 15  1  0
 17 18  1  0
 18 25  1  0
 19 20  1  0
 18 19  1  6
 20 24  1  0
 21 20  2  0
 21 22  1  0
 22 23  1  0
 24 23  2  0
 25 26  1  0
 27 25  2  0
M  END
$$$$
