HCH.pdb
     RDKit          3D

 27 28  0  0  1  0  0  0  0  0999 V2000
   22.9793  -12.4026  -19.4403 N   0  0  0  0  0  0  0  0  0  0  0  0
   22.0290  -11.4919  -18.8426 C   0  0  1  0  0  0  0  0  0  0  0  0
   21.0832  -12.2502  -17.9462 C   0  0  0  0  0  0  0  0  0  0  0  0
   20.2064  -13.1971  -18.6740 C   0  0  0  0  0  0  0  0  0  0  0  0
   18.8648  -12.9476  -19.0002 C   0  0  0  0  0  0  0  0  0  0  0  0
   18.3766  -14.0042  -19.6507 N   0  0  0  0  0  0  0  0  0  0  0  0
   19.3612  -14.9072  -19.7449 C   0  0  0  0  0  0  0  0  0  0  0  0
   20.4527  -14.4240  -19.1615 N   0  0  0  0  0  0  0  0  0  0  0  0
   22.7891  -10.5634  -17.9619 C   0  0  0  0  0  0  0  0  0  0  0  0
   23.9952  -10.8497  -17.7606 O   0  0  0  0  0  0  0  0  0  0  0  0
   22.2653   -9.4096  -17.3491 N   0  0  0  0  0  0  0  0  0  0  0  0
   23.0692   -8.3720  -16.7579 C   0  0  1  0  0  0  0  0  0  0  0  0
   24.1008   -7.8070  -17.6956 C   0  0  0  0  0  0  0  0  0  0  0  0
   25.0690   -6.4893  -16.9133 S   0  0  0  0  0  0  0  0  0  0  0  0
   22.2477   -7.2498  -16.2370 C   0  0  0  0  0  0  0  0  0  0  0  0
   21.6205   -6.5071  -17.0340 O   0  0  0  0  0  0  0  0  0  0  0  0
   22.1653   -7.0106  -14.8567 N   0  0  0  0  0  0  0  0  0  0  0  0
   21.2854   -5.9773  -14.2865 C   0  0  1  0  0  0  0  0  0  0  0  0
   20.9744   -6.3528  -12.8795 C   0  0  0  0  0  0  0  0  0  0  0  0
   19.9627   -7.4313  -12.8384 C   0  0  0  0  0  0  0  0  0  0  0  0
   19.2739   -7.9829  -13.9113 C   0  0  0  0  0  0  0  0  0  0  0  0
   18.4367   -8.9416  -13.4786 N   0  0  0  0  0  0  0  0  0  0  0  0
   18.5987   -8.9906  -12.1490 C   0  0  0  0  0  0  0  0  0  0  0  0
   19.5195   -8.0794  -11.7614 N   0  0  0  0  0  0  0  0  0  0  0  0
   22.0304   -4.7034  -14.3127 C   0  0  0  0  0  0  0  0  0  0  0  0
   23.3196   -4.6679  -14.8010 O   0  0  0  0  0  0  0  0  0  0  0  0
   21.5499   -3.6043  -13.9036 O   0  0  0  0  0  0  0  0  0  0  0  0
  2  1  1  1
  2  9  1  0
  3  2  1  0
  3  4  1  0
  4  5  2  0
  5  6  1  0
  7  6  1  0
  8  4  1  0
  8  7  2  0
  9 11  1  0
  9 10  2  0
 11 12  1  0
 12 15  1  0
 12 13  1  6
 14 13  1  0
 15 16  2  0
 17 15  1  0
 17 18  1  0
 18 25  1  0
 19 20  1  0
 18 19  1  1
 20 24  1  0
 21 20  2  0
 21 22  1  0
 22 23  1  0
 24 23  2  0
 25 26  1  0
 27 25  2  0
M  END
$$$$
