HCH.pdb
     RDKit          3D

 27 28  0  0  1  0  0  0  0  0999 V2000
   17.0842  -18.0513    2.2310 N   0  0  0  0  0  0  0  0  0  0  0  0
   16.5757  -17.8461    3.5687 C   0  0  1  0  0  0  0  0  0  0  0  0
   16.6628  -19.1295    4.3549 C   0  0  0  0  0  0  0  0  0  0  0  0
   15.8326  -20.2236    3.7991 C   0  0  0  0  0  0  0  0  0  0  0  0
   14.4328  -20.2773    3.8771 C   0  0  0  0  0  0  0  0  0  0  0  0
   14.0110  -21.3916    3.2784 N   0  0  0  0  0  0  0  0  0  0  0  0
   15.0934  -22.0390    2.8276 C   0  0  0  0  0  0  0  0  0  0  0  0
   16.1798  -21.3406    3.1391 N   0  0  0  0  0  0  0  0  0  0  0  0
   17.4766  -16.8753    4.2479 C   0  0  0  0  0  0  0  0  0  0  0  0
   18.6678  -16.8497    3.8508 O   0  0  0  0  0  0  0  0  0  0  0  0
   17.0990  -16.0001    5.2835 N   0  0  0  0  0  0  0  0  0  0  0  0
   17.9411  -14.9573    5.8086 C   0  0  1  0  0  0  0  0  0  0  0  0
   17.8656  -13.6758    5.0245 C   0  0  0  0  0  0  0  0  0  0  0  0
   18.1995  -13.9456    3.2635 S   0  0  0  0  0  0  0  0  0  0  0  0
   17.6411  -14.6525    7.2308 C   0  0  0  0  0  0  0  0  0  0  0  0
   16.4480  -14.5730    7.6186 O   0  0  0  0  0  0  0  0  0  0  0  0
   18.6829  -14.4518    8.1494 N   0  0  0  0  0  0  0  0  0  0  0  0
   18.4363  -14.1910    9.5770 C   0  0  1  0  0  0  0  0  0  0  0  0
   18.9723  -15.3378   10.3610 C   0  0  0  0  0  0  0  0  0  0  0  0
   18.1707  -16.5570   10.1174 C   0  0  0  0  0  0  0  0  0  0  0  0
   18.2642  -17.4261    9.0376 C   0  0  0  0  0  0  0  0  0  0  0  0
   17.3693  -18.4209    9.1669 N   0  0  0  0  0  0  0  0  0  0  0  0
   16.7217  -18.1783   10.3151 C   0  0  0  0  0  0  0  0  0  0  0  0
   17.2045  -17.0535   10.8897 N   0  0  0  0  0  0  0  0  0  0  0  0
   19.1656  -12.9573    9.9301 C   0  0  0  0  0  0  0  0  0  0  0  0
   19.0899  -12.4539   11.2118 O   0  0  0  0  0  0  0  0  0  0  0  0
   19.8799  -12.3084    9.1086 O   0  0  0  0  0  0  0  0  0  0  0  0
  2  1  1  6
  2  9  1  0
  3  2  1  0
  3  4  1  0
  4  5  2  0
  5  6  1  0
  7  6  1  0
  8  4  1  0
  8  7  2  0
  9 11  1  0
  9 10  2  0
 11 12  1  0
 12 15  1  0
 12 13  1  6
 14 13  1  0
 15 16  2  0
 17 15  1  0
 17 18  1  0
 18 25  1  0
 19 20  1  0
 18 19  1  1
 20 24  1  0
 21 20  2  0
 21 22  1  0
 22 23  1  0
 24 23  2  0
 25 26  1  0
 27 25  2  0
M  END
$$$$
