HCH.pdb
     RDKit          3D

 27 28  0  0  1  0  0  0  0  0999 V2000
   25.1531  -10.9506  -20.3049 N   0  0  0  0  0  0  0  0  0  0  0  0
   24.8103   -9.7631  -19.5551 C   0  0  1  0  0  0  0  0  0  0  0  0
   23.8256   -8.9289  -20.3343 C   0  0  0  0  0  0  0  0  0  0  0  0
   24.3617   -8.4244  -21.6201 C   0  0  0  0  0  0  0  0  0  0  0  0
   25.5489   -7.6886  -21.7522 C   0  0  0  0  0  0  0  0  0  0  0  0
   25.7329   -7.3963  -23.0401 N   0  0  0  0  0  0  0  0  0  0  0  0
   24.7059   -7.9210  -23.7210 C   0  0  0  0  0  0  0  0  0  0  0  0
   23.8883   -8.5342  -22.8721 N   0  0  0  0  0  0  0  0  0  0  0  0
   24.1054  -10.2000  -18.3190 C   0  0  0  0  0  0  0  0  0  0  0  0
   23.3740  -11.2154  -18.4249 O   0  0  0  0  0  0  0  0  0  0  0  0
   24.1963   -9.5704  -17.0635 N   0  0  0  0  0  0  0  0  0  0  0  0
   23.6019  -10.0830  -15.8567 C   0  0  1  0  0  0  0  0  0  0  0  0
   24.5687  -10.1804  -14.7084 C   0  0  0  0  0  0  0  0  0  0  0  0
   26.0200  -11.1788  -15.1356 S   0  0  0  0  0  0  0  0  0  0  0  0
   22.4344   -9.2775  -15.4167 C   0  0  0  0  0  0  0  0  0  0  0  0
   21.4958   -9.8245  -14.7843 O   0  0  0  0  0  0  0  0  0  0  0  0
   22.3701   -7.9050  -15.7019 N   0  0  0  0  0  0  0  0  0  0  0  0
   21.1888   -7.0873  -15.3812 C   0  0  1  0  0  0  0  0  0  0  0  0
   21.1264   -6.9156  -13.9034 C   0  0  0  0  0  0  0  0  0  0  0  0
   20.4087   -8.0470  -13.2761 C   0  0  0  0  0  0  0  0  0  0  0  0
   19.5139   -8.9190  -13.8836 C   0  0  0  0  0  0  0  0  0  0  0  0
   19.0671   -9.8184  -12.9900 N   0  0  0  0  0  0  0  0  0  0  0  0
   19.6750   -9.5138  -11.8348 C   0  0  0  0  0  0  0  0  0  0  0  0
   20.4850   -8.4448  -12.0064 N   0  0  0  0  0  0  0  0  0  0  0  0
   21.3737   -5.7752  -16.0312 C   0  0  0  0  0  0  0  0  0  0  0  0
   20.4383   -4.7779  -15.8511 O   0  0  0  0  0  0  0  0  0  0  0  0
   22.3660   -5.4937  -16.7676 O   0  0  0  0  0  0  0  0  0  0  0  0
  2  1  1  6
  2  9  1  0
  3  2  1  0
  3  4  1  0
  4  5  2  0
  5  6  1  0
  7  6  1  0
  8  4  1  0
  8  7  2  0
  9 11  1  0
  9 10  2  0
 11 12  1  0
 12 15  1  0
 12 13  1  1
 14 13  1  0
 15 16  2  0
 17 15  1  0
 17 18  1  0
 18 25  1  0
 19 20  1  0
 18 19  1  1
 20 24  1  0
 21 20  2  0
 21 22  1  0
 22 23  1  0
 24 23  2  0
 25 26  1  0
 27 25  2  0
M  END
$$$$
