HCH.pdb
     RDKit          3D

 27 28  0  0  1  0  0  0  0  0999 V2000
   28.6387  -23.8265  -17.0198 N   0  0  0  0  0  0  0  0  0  0  0  0
   28.3705  -22.4633  -17.4192 C   0  0  1  0  0  0  0  0  0  0  0  0
   27.7601  -22.4415  -18.7976 C   0  0  0  0  0  0  0  0  0  0  0  0
   28.7030  -22.8350  -19.8706 C   0  0  0  0  0  0  0  0  0  0  0  0
   28.6435  -24.0463  -20.5761 C   0  0  0  0  0  0  0  0  0  0  0  0
   29.6367  -24.0755  -21.4653 N   0  0  0  0  0  0  0  0  0  0  0  0
   30.3171  -22.9282  -21.3443 C   0  0  0  0  0  0  0  0  0  0  0  0
   29.7586  -22.1890  -20.3921 N   0  0  0  0  0  0  0  0  0  0  0  0
   27.3393  -21.9186  -16.4944 C   0  0  0  0  0  0  0  0  0  0  0  0
   26.5384  -22.7511  -16.0016 O   0  0  0  0  0  0  0  0  0  0  0  0
   27.1980  -20.5643  -16.1382 N   0  0  0  0  0  0  0  0  0  0  0  0
   26.2420  -20.0757  -15.1792 C   0  0  1  0  0  0  0  0  0  0  0  0
   26.6792  -18.8128  -14.4888 C   0  0  0  0  0  0  0  0  0  0  0  0
   28.4681  -18.5559  -14.6288 S   0  0  0  0  0  0  0  0  0  0  0  0
   24.9068  -19.8383  -15.7845 C   0  0  0  0  0  0  0  0  0  0  0  0
   24.8031  -19.6452  -17.0223 O   0  0  0  0  0  0  0  0  0  0  0  0
   23.7551  -19.8278  -14.9828 N   0  0  0  0  0  0  0  0  0  0  0  0
   22.4062  -19.6422  -15.5425 C   0  0  1  0  0  0  0  0  0  0  0  0
   22.1327  -20.7628  -16.4842 C   0  0  0  0  0  0  0  0  0  0  0  0
   20.7739  -20.6436  -17.0569 C   0  0  0  0  0  0  0  0  0  0  0  0
   19.8334  -19.6544  -16.7982 C   0  0  0  0  0  0  0  0  0  0  0  0
   18.7146  -19.8845  -17.5070 N   0  0  0  0  0  0  0  0  0  0  0  0
   18.9509  -21.0057  -18.2026 C   0  0  0  0  0  0  0  0  0  0  0  0
   20.1936  -21.4648  -17.9317 N   0  0  0  0  0  0  0  0  0  0  0  0
   21.4535  -19.6896  -14.4162 C   0  0  0  0  0  0  0  0  0  0  0  0
   20.1178  -19.4211  -14.6305 O   0  0  0  0  0  0  0  0  0  0  0  0
   21.7906  -19.9693  -13.2270 O   0  0  0  0  0  0  0  0  0  0  0  0
  2  1  1  1
  2  9  1  0
  3  2  1  0
  3  4  1  0
  4  5  2  0
  5  6  1  0
  7  6  1  0
  8  4  1  0
  8  7  2  0
  9 11  1  0
  9 10  2  0
 11 12  1  0
 12 15  1  0
 12 13  1  6
 14 13  1  0
 15 16  2  0
 17 15  1  0
 17 18  1  0
 18 25  1  0
 19 20  1  0
 18 19  1  6
 20 24  1  0
 21 20  2  0
 21 22  1  0
 22 23  1  0
 24 23  2  0
 25 26  1  0
 27 25  2  0
M  END
$$$$
