HCH.pdb
     RDKit          3D

 27 28  0  0  1  0  0  0  0  0999 V2000
   24.9380  -35.4214  -12.4239 N   0  0  0  0  0  0  0  0  0  0  0  0
   25.2976  -34.4951  -11.3738 C   0  0  1  0  0  0  0  0  0  0  0  0
   24.9861  -33.0840  -11.8035 C   0  0  0  0  0  0  0  0  0  0  0  0
   25.8574  -32.5898  -12.8952 C   0  0  0  0  0  0  0  0  0  0  0  0
   26.9984  -31.7961  -12.7039 C   0  0  0  0  0  0  0  0  0  0  0  0
   27.5432  -31.5325  -13.8920 N   0  0  0  0  0  0  0  0  0  0  0  0
   26.7871  -32.1310  -14.8215 C   0  0  0  0  0  0  0  0  0  0  0  0
   25.7813  -32.7616  -14.2250 N   0  0  0  0  0  0  0  0  0  0  0  0
   24.4233  -34.7809  -10.2037 C   0  0  0  0  0  0  0  0  0  0  0  0
   23.3305  -35.3482  -10.4510 O   0  0  0  0  0  0  0  0  0  0  0  0
   24.7252  -34.4675   -8.8651 N   0  0  0  0  0  0  0  0  0  0  0  0
   23.9804  -34.9531   -7.7330 C   0  0  1  0  0  0  0  0  0  0  0  0
   24.8168  -35.7352   -6.7575 C   0  0  0  0  0  0  0  0  0  0  0  0
   26.2723  -34.7985   -6.2193 S   0  0  0  0  0  0  0  0  0  0  0  0
   23.3015  -33.8589   -6.9931 C   0  0  0  0  0  0  0  0  0  0  0  0
   23.7421  -32.6838   -7.0649 O   0  0  0  0  0  0  0  0  0  0  0  0
   22.1673  -34.1270   -6.2113 N   0  0  0  0  0  0  0  0  0  0  0  0
   21.4238  -33.0670   -5.5108 C   0  0  1  0  0  0  0  0  0  0  0  0
   20.0149  -33.5182   -5.3414 C   0  0  0  0  0  0  0  0  0  0  0  0
   19.2660  -33.3789   -6.6095 C   0  0  0  0  0  0  0  0  0  0  0  0
   19.7204  -32.8284   -7.8013 C   0  0  0  0  0  0  0  0  0  0  0  0
   18.7515  -32.8780   -8.7318 N   0  0  0  0  0  0  0  0  0  0  0  0
   17.7009  -33.4534   -8.1301 C   0  0  0  0  0  0  0  0  0  0  0  0
   18.0104  -33.7561   -6.8491 N   0  0  0  0  0  0  0  0  0  0  0  0
   22.0556  -32.8880   -4.1890 C   0  0  0  0  0  0  0  0  0  0  0  0
   21.6028  -31.9041   -3.3353 O   0  0  0  0  0  0  0  0  0  0  0  0
   23.0172  -33.6004   -3.7718 O   0  0  0  0  0  0  0  0  0  0  0  0
  2  1  1  6
  2  9  1  0
  3  2  1  0
  3  4  1  0
  4  5  2  0
  5  6  1  0
  7  6  1  0
  8  4  1  0
  8  7  2  0
  9 11  1  0
  9 10  2  0
 11 12  1  0
 12 15  1  0
 12 13  1  1
 14 13  1  0
 15 16  2  0
 17 15  1  0
 17 18  1  0
 18 25  1  0
 19 20  1  0
 18 19  1  1
 20 24  1  0
 21 20  2  0
 21 22  1  0
 22 23  1  0
 24 23  2  0
 25 26  1  0
 27 25  2  0
M  END
$$$$
