HCH.pdb
     RDKit          3D

 27 28  0  0  1  0  0  0  0  0999 V2000
   22.3323  -13.2096  -18.2889 N   0  0  0  0  0  0  0  0  0  0  0  0
   23.1212  -12.0907  -18.7534 C   0  0  1  0  0  0  0  0  0  0  0  0
   22.3483  -11.3092  -19.7851 C   0  0  0  0  0  0  0  0  0  0  0  0
   22.1153  -12.0557  -21.0435 C   0  0  0  0  0  0  0  0  0  0  0  0
   23.0821  -12.8361  -21.6953 C   0  0  0  0  0  0  0  0  0  0  0  0
   22.5399  -13.3645  -22.7929 N   0  0  0  0  0  0  0  0  0  0  0  0
   21.2695  -12.9450  -22.8544 C   0  0  0  0  0  0  0  0  0  0  0  0
   21.0176  -12.1640  -21.8097 N   0  0  0  0  0  0  0  0  0  0  0  0
   23.3255  -11.1745  -17.5983 C   0  0  0  0  0  0  0  0  0  0  0  0
   22.4356  -11.1893  -16.7121 O   0  0  0  0  0  0  0  0  0  0  0  0
   24.4220  -10.3085  -17.4292 N   0  0  0  0  0  0  0  0  0  0  0  0
   24.6145   -9.4620  -16.2808 C   0  0  1  0  0  0  0  0  0  0  0  0
   26.0130   -9.5116  -15.7288 C   0  0  0  0  0  0  0  0  0  0  0  0
   26.4335  -11.1639  -15.1132 S   0  0  0  0  0  0  0  0  0  0  0  0
   24.2738   -8.0441  -16.5617 C   0  0  0  0  0  0  0  0  0  0  0  0
   24.4978   -7.5571  -17.6987 O   0  0  0  0  0  0  0  0  0  0  0  0
   23.7014   -7.2400  -15.5642 N   0  0  0  0  0  0  0  0  0  0  0  0
   23.2498   -5.8631  -15.8238 C   0  0  1  0  0  0  0  0  0  0  0  0
   22.2049   -5.9060  -16.8838 C   0  0  0  0  0  0  0  0  0  0  0  0
   21.6976   -4.5466  -17.1722 C   0  0  0  0  0  0  0  0  0  0  0  0
   20.6013   -3.9160  -16.5975 C   0  0  0  0  0  0  0  0  0  0  0  0
   20.4534   -2.6842  -17.1153 N   0  0  0  0  0  0  0  0  0  0  0  0
   21.4462   -2.5439  -18.0050 C   0  0  0  0  0  0  0  0  0  0  0  0
   22.1978   -3.6675  -18.0401 N   0  0  0  0  0  0  0  0  0  0  0  0
   22.6698   -5.3475  -14.5683 C   0  0  0  0  0  0  0  0  0  0  0  0
   22.6288   -3.9890  -14.3340 O   0  0  0  0  0  0  0  0  0  0  0  0
   22.1913   -6.0927  -13.6617 O   0  0  0  0  0  0  0  0  0  0  0  0
  2  1  1  1
  2  9  1  0
  3  2  1  0
  3  4  1  0
  4  5  2  0
  5  6  1  0
  7  6  1  0
  8  4  1  0
  8  7  2  0
  9 11  1  0
  9 10  2  0
 11 12  1  0
 12 15  1  0
 12 13  1  6
 14 13  1  0
 15 16  2  0
 17 15  1  0
 17 18  1  0
 18 25  1  0
 19 20  1  0
 18 19  1  6
 20 24  1  0
 21 20  2  0
 21 22  1  0
 22 23  1  0
 24 23  2  0
 25 26  1  0
 27 25  2  0
M  END
$$$$
