HCH.pdb
     RDKit          3D

 27 28  0  0  1  0  0  0  0  0999 V2000
   18.2045  -14.3431  -19.7392 N   0  0  0  0  0  0  0  0  0  0  0  0
   18.0134  -13.6525  -18.4837 C   0  0  1  0  0  0  0  0  0  0  0  0
   18.5869  -14.4700  -17.3542 C   0  0  0  0  0  0  0  0  0  0  0  0
   17.8356  -15.7180  -17.0836 C   0  0  0  0  0  0  0  0  0  0  0  0
   16.5000  -15.7649  -16.6564 C   0  0  0  0  0  0  0  0  0  0  0  0
   16.1398  -17.0403  -16.5097 N   0  0  0  0  0  0  0  0  0  0  0  0
   17.1990  -17.7954  -16.8288 C   0  0  0  0  0  0  0  0  0  0  0  0
   18.2103  -17.0047  -17.1711 N   0  0  0  0  0  0  0  0  0  0  0  0
   18.8072  -12.3946  -18.5372 C   0  0  0  0  0  0  0  0  0  0  0  0
   19.8491  -12.4235  -19.2378 O   0  0  0  0  0  0  0  0  0  0  0  0
   18.4823  -11.1972  -17.8726 N   0  0  0  0  0  0  0  0  0  0  0  0
   19.2248   -9.9711  -18.0058 C   0  0  1  0  0  0  0  0  0  0  0  0
   18.5616   -8.9648  -18.9059 C   0  0  0  0  0  0  0  0  0  0  0  0
   19.7061   -7.6489  -19.3999 S   0  0  0  0  0  0  0  0  0  0  0  0
   19.4853   -9.3241  -16.6946 C   0  0  0  0  0  0  0  0  0  0  0  0
   18.5939   -9.3184  -15.8084 O   0  0  0  0  0  0  0  0  0  0  0  0
   20.7235   -8.7166  -16.4357 N   0  0  0  0  0  0  0  0  0  0  0  0
   21.0276   -8.0614  -15.1530 C   0  0  1  0  0  0  0  0  0  0  0  0
   22.4723   -8.2651  -14.8550 C   0  0  0  0  0  0  0  0  0  0  0  0
   22.7562   -9.6944  -14.6000 C   0  0  0  0  0  0  0  0  0  0  0  0
   21.8425  -10.7395  -14.5478 C   0  0  0  0  0  0  0  0  0  0  0  0
   22.4783  -11.8962  -14.2927 N   0  0  0  0  0  0  0  0  0  0  0  0
   23.7765  -11.5798  -14.1861 C   0  0  0  0  0  0  0  0  0  0  0  0
   23.9454  -10.2511  -14.3714 N   0  0  0  0  0  0  0  0  0  0  0  0
   20.7478   -6.6216  -15.3185 C   0  0  0  0  0  0  0  0  0  0  0  0
   20.8359   -5.7726  -14.2354 O   0  0  0  0  0  0  0  0  0  0  0  0
   20.4215   -6.0958  -16.4245 O   0  0  0  0  0  0  0  0  0  0  0  0
  2  1  1  6
  2  9  1  0
  3  2  1  0
  3  4  1  0
  4  5  2  0
  5  6  1  0
  7  6  1  0
  8  4  1  0
  8  7  2  0
  9 11  1  0
  9 10  2  0
 11 12  1  0
 12 15  1  0
 12 13  1  6
 14 13  1  0
 15 16  2  0
 17 15  1  0
 17 18  1  0
 18 25  1  0
 19 20  1  0
 18 19  1  6
 20 24  1  0
 21 20  2  0
 21 22  1  0
 22 23  1  0
 24 23  2  0
 25 26  1  0
 27 25  2  0
M  END
$$$$
