SGE.pdb
     RDKit          3D

 20 19  0  0  1  0  0  0  0  0999 V2000
    7.9621  -13.1820   16.3070 O   0  0  0  0  0  0  0  0  0  0  0  0
    7.5830  -13.9616   17.3940 C   0  0  0  0  0  0  0  0  0  0  0  0
    8.4785  -13.6226   18.5692 C   0  0  2  0  0  0  0  0  0  0  0  0
    9.8560  -13.8105   18.1906 N   0  0  0  0  0  0  0  0  0  0  0  0
    8.1352  -14.5192   19.6951 C   0  0  0  0  0  0  0  0  0  0  0  0
    7.0245  -14.4615   20.2841 O   0  0  0  0  0  0  0  0  0  0  0  0
    9.0816  -15.4771   20.1312 N   0  0  0  0  0  0  0  0  0  0  0  0
    8.7449  -16.3405   21.2440 C   0  0  0  0  0  0  0  0  0  0  0  0
    9.1645  -15.6873   22.5280 C   0  0  0  0  0  0  0  0  0  0  0  0
   10.3550  -15.3868   22.7742 O   0  0  0  0  0  0  0  0  0  0  0  0
    8.1898  -15.3890   23.5173 N   0  0  0  0  0  0  0  0  0  0  0  0
    8.4992  -14.5888   24.6772 C   0  0  1  0  0  0  0  0  0  0  0  0
    7.2491  -13.8905   25.1630 C   0  0  0  0  0  0  0  0  0  0  0  0
    7.6188  -12.9670   26.2807 C   0  0  0  0  0  0  0  0  0  0  0  0
    6.4539  -12.1805   26.7703 C   0  0  0  0  0  0  0  0  0  0  0  0
    5.2900  -12.4189   26.3773 O   0  0  0  0  0  0  0  0  0  0  0  0
    9.0879  -15.4361   25.7348 C   0  0  0  0  0  0  0  0  0  0  0  0
    8.7762  -16.6465   25.7735 O   0  0  0  0  0  0  0  0  0  0  0  0
    6.6505  -11.1565   27.6841 O   0  0  0  0  0  0  0  0  0  0  0  0
    9.9698  -14.9573   26.6880 O   0  0  0  0  0  0  0  0  0  0  0  0
  1  2  1  0
  3  2  1  0
  3  4  1  6
  5  3  1  0
  6  5  2  0
  7  5  1  0
  8  7  1  0
  9 11  1  0
  9  8  1  0
 10  9  2  0
 12 11  1  0
 12 13  1  1
 13 14  1  0
 14 15  1  0
 15 16  2  0
 17 12  1  0
 17 20  1  0
 18 17  2  0
 19 15  1  0
M  END
$$$$
