SGE.pdb
     RDKit          3D

 20 19  0  0  1  0  0  0  0  0999 V2000
    9.1601  -14.2723   17.2646 O   0  0  0  0  0  0  0  0  0  0  0  0
    7.9239  -13.6404   17.3394 C   0  0  0  0  0  0  0  0  0  0  0  0
    7.7802  -13.0182   18.7143 C   0  0  2  0  0  0  0  0  0  0  0  0
    8.9978  -12.3278   19.0563 N   0  0  0  0  0  0  0  0  0  0  0  0
    7.5169  -14.0967   19.6925 C   0  0  0  0  0  0  0  0  0  0  0  0
    6.5075  -14.8441   19.6117 O   0  0  0  0  0  0  0  0  0  0  0  0
    8.4253  -14.3021   20.7584 N   0  0  0  0  0  0  0  0  0  0  0  0
    8.1919  -15.3953   21.6790 C   0  0  0  0  0  0  0  0  0  0  0  0
    9.3219  -15.4695   22.6634 C   0  0  0  0  0  0  0  0  0  0  0  0
   10.5239  -15.4640   22.3121 O   0  0  0  0  0  0  0  0  0  0  0  0
    9.0404  -15.5498   24.0535 N   0  0  0  0  0  0  0  0  0  0  0  0
   10.0883  -15.6457   25.0404 C   0  0  1  0  0  0  0  0  0  0  0  0
    9.5716  -15.1719   26.3802 C   0  0  0  0  0  0  0  0  0  0  0  0
   10.7113  -15.1375   27.3491 C   0  0  0  0  0  0  0  0  0  0  0  0
   10.2836  -14.7020   28.7067 C   0  0  0  0  0  0  0  0  0  0  0  0
    9.1403  -14.2385   28.9167 O   0  0  0  0  0  0  0  0  0  0  0  0
   10.5872  -17.0343   25.1164 C   0  0  0  0  0  0  0  0  0  0  0  0
    9.7792  -17.9706   24.9311 O   0  0  0  0  0  0  0  0  0  0  0  0
   11.1643  -14.8074   29.7722 O   0  0  0  0  0  0  0  0  0  0  0  0
   11.9074  -17.3532   25.3829 O   0  0  0  0  0  0  0  0  0  0  0  0
  1  2  1  0
  3  2  1  0
  3  4  1  1
  5  3  1  0
  6  5  2  0
  7  5  1  0
  8  7  1  0
  9 11  1  0
  9  8  1  0
 10  9  2  0
 12 11  1  0
 12 13  1  1
 13 14  1  0
 14 15  1  0
 15 16  2  0
 17 12  1  0
 17 20  1  0
 18 17  2  0
 19 15  1  0
M  END
$$$$
