SGE.pdb
     RDKit          3D

 20 19  0  0  1  0  0  0  0  0999 V2000
    8.3177  -15.7260   17.7016 O   0  0  0  0  0  0  0  0  0  0  0  0
    9.1975  -16.7668   17.9769 C   0  0  0  0  0  0  0  0  0  0  0  0
    8.3951  -17.9774   18.4113 C   0  0  2  0  0  0  0  0  0  0  0  0
    7.4097  -18.2838   17.4056 N   0  0  0  0  0  0  0  0  0  0  0  0
    7.7292  -17.6635   19.6947 C   0  0  0  0  0  0  0  0  0  0  0  0
    6.5442  -18.0108   19.9384 O   0  0  0  0  0  0  0  0  0  0  0  0
    8.4409  -16.9488   20.6878 N   0  0  0  0  0  0  0  0  0  0  0  0
    7.8314  -16.7571   21.9873 C   0  0  0  0  0  0  0  0  0  0  0  0
    8.7284  -15.9084   22.8397 C   0  0  0  0  0  0  0  0  0  0  0  0
    9.8590  -15.5282   22.4585 O   0  0  0  0  0  0  0  0  0  0  0  0
    8.2986  -15.5090   24.1334 N   0  0  0  0  0  0  0  0  0  0  0  0
    9.1057  -14.6630   24.9786 C   0  0  1  0  0  0  0  0  0  0  0  0
    8.2449  -14.0576   26.0645 C   0  0  0  0  0  0  0  0  0  0  0  0
    7.3940  -12.9852   25.4604 C   0  0  0  0  0  0  0  0  0  0  0  0
    6.5324  -12.3134   26.4712 C   0  0  0  0  0  0  0  0  0  0  0  0
    6.5370  -12.6628   27.6728 O   0  0  0  0  0  0  0  0  0  0  0  0
   10.2262  -15.4384   25.5496 C   0  0  0  0  0  0  0  0  0  0  0  0
   10.0842  -16.6716   25.7000 O   0  0  0  0  0  0  0  0  0  0  0  0
    5.7003  -11.2742   26.0841 O   0  0  0  0  0  0  0  0  0  0  0  0
   11.4292  -14.8679   25.9278 O   0  0  0  0  0  0  0  0  0  0  0  0
  1  2  1  0
  3  2  1  0
  3  4  1  6
  5  3  1  0
  6  5  2  0
  7  5  1  0
  8  7  1  0
  9 11  1  0
  9  8  1  0
 10  9  2  0
 12 11  1  0
 12 13  1  1
 13 14  1  0
 14 15  1  0
 15 16  2  0
 17 12  1  0
 17 20  1  0
 18 17  2  0
 19 15  1  0
M  END
$$$$
