SGE.pdb
     RDKit          3D

 20 19  0  0  1  0  0  0  0  0999 V2000
    7.8623  -12.6206   17.1350 O   0  0  0  0  0  0  0  0  0  0  0  0
    8.3387  -13.8480   17.5819 C   0  0  0  0  0  0  0  0  0  0  0  0
    7.6995  -14.1573   18.9212 C   0  0  2  0  0  0  0  0  0  0  0  0
    7.9986  -13.0970   19.8499 N   0  0  0  0  0  0  0  0  0  0  0  0
    8.2491  -15.4376   19.4192 C   0  0  0  0  0  0  0  0  0  0  0  0
    8.0050  -16.5367   18.8565 O   0  0  0  0  0  0  0  0  0  0  0  0
    9.0781  -15.4361   20.5664 N   0  0  0  0  0  0  0  0  0  0  0  0
    9.7538  -16.6595   20.9460 C   0  0  0  0  0  0  0  0  0  0  0  0
   10.6510  -16.3916   22.1186 C   0  0  0  0  0  0  0  0  0  0  0  0
   11.3315  -15.3455   22.2220 O   0  0  0  0  0  0  0  0  0  0  0  0
   10.7476  -17.3486   23.1640 N   0  0  0  0  0  0  0  0  0  0  0  0
   11.6245  -17.1591   24.2938 C   0  0  1  0  0  0  0  0  0  0  0  0
   11.3338  -18.2057   25.3457 C   0  0  0  0  0  0  0  0  0  0  0  0
   12.1313  -17.8885   26.5715 C   0  0  0  0  0  0  0  0  0  0  0  0
   12.0027  -18.9417   27.6154 C   0  0  0  0  0  0  0  0  0  0  0  0
   11.2369  -19.9204   27.4685 O   0  0  0  0  0  0  0  0  0  0  0  0
   13.0345  -17.2136   23.8555 C   0  0  0  0  0  0  0  0  0  0  0  0
   13.3147  -17.8605   22.8226 O   0  0  0  0  0  0  0  0  0  0  0  0
   12.7442  -18.8469   28.7830 O   0  0  0  0  0  0  0  0  0  0  0  0
   14.0646  -16.5832   24.5316 O   0  0  0  0  0  0  0  0  0  0  0  0
  1  2  1  0
  3  2  1  0
  3  4  1  1
  5  3  1  0
  6  5  2  0
  7  5  1  0
  8  7  1  0
  9 11  1  0
  9  8  1  0
 10  9  2  0
 12 11  1  0
 12 13  1  1
 13 14  1  0
 14 15  1  0
 15 16  2  0
 17 12  1  0
 17 20  1  0
 18 17  2  0
 19 15  1  0
M  END
$$$$
