SGE.pdb
     RDKit          3D

 20 19  0  0  1  0  0  0  0  0999 V2000
    9.9031  -15.4607   20.9928 O   0  0  0  0  0  0  0  0  0  0  0  0
   10.7780  -16.4049   20.4673 C   0  0  0  0  0  0  0  0  0  0  0  0
   10.8696  -17.5705   21.4322 C   0  0  2  0  0  0  0  0  0  0  0  0
    9.5520  -18.1071   21.6604 N   0  0  0  0  0  0  0  0  0  0  0  0
   11.4457  -17.0824   22.7047 C   0  0  0  0  0  0  0  0  0  0  0  0
   12.5601  -16.4996   22.7568 O   0  0  0  0  0  0  0  0  0  0  0  0
   10.7266  -17.2729   23.9089 N   0  0  0  0  0  0  0  0  0  0  0  0
   11.3274  -16.8562   25.1589 C   0  0  0  0  0  0  0  0  0  0  0  0
   11.5695  -18.0592   26.0225 C   0  0  0  0  0  0  0  0  0  0  0  0
   11.2542  -19.2181   25.6682 O   0  0  0  0  0  0  0  0  0  0  0  0
   12.1790  -17.9004   27.2957 N   0  0  0  0  0  0  0  0  0  0  0  0
   12.4262  -19.0219   28.1690 C   0  0  1  0  0  0  0  0  0  0  0  0
   13.4324  -18.6312   29.2280 C   0  0  0  0  0  0  0  0  0  0  0  0
   13.7030  -19.8204   30.0948 C   0  0  0  0  0  0  0  0  0  0  0  0
   14.7868  -19.5630   31.0820 C   0  0  0  0  0  0  0  0  0  0  0  0
   14.5626  -18.9736   32.1629 O   0  0  0  0  0  0  0  0  0  0  0  0
   11.1591  -19.4818   28.7740 C   0  0  0  0  0  0  0  0  0  0  0  0
   10.1942  -18.6875   28.8164 O   0  0  0  0  0  0  0  0  0  0  0  0
   16.0799  -19.9816   30.8087 O   0  0  0  0  0  0  0  0  0  0  0  0
   10.9847  -20.7510   29.2978 O   0  0  0  0  0  0  0  0  0  0  0  0
  1  2  1  0
  3  2  1  0
  3  4  1  1
  5  3  1  0
  6  5  2  0
  7  5  1  0
  8  7  1  0
  9 11  1  0
  9  8  1  0
 10  9  2  0
 12 11  1  0
 12 13  1  1
 13 14  1  0
 14 15  1  0
 15 16  2  0
 17 12  1  0
 17 20  1  0
 18 17  2  0
 19 15  1  0
M  END
$$$$
