SGE.pdb
     RDKit          3D

 20 19  0  0  1  0  0  0  0  0999 V2000
    5.6614  -14.1250   17.6547 O   0  0  0  0  0  0  0  0  0  0  0  0
    6.8017  -14.7376   18.1621 C   0  0  0  0  0  0  0  0  0  0  0  0
    7.3680  -13.8680   19.2672 C   0  0  2  0  0  0  0  0  0  0  0  0
    7.5723  -12.5322   18.7672 N   0  0  0  0  0  0  0  0  0  0  0  0
    8.6565  -14.4474   19.7069 C   0  0  0  0  0  0  0  0  0  0  0  0
    9.7642  -13.9790   19.3360 O   0  0  0  0  0  0  0  0  0  0  0  0
    8.6530  -15.5662   20.5739 N   0  0  0  0  0  0  0  0  0  0  0  0
    9.7926  -16.4598   20.5717 C   0  0  0  0  0  0  0  0  0  0  0  0
   10.1110  -16.8670   21.9804 C   0  0  0  0  0  0  0  0  0  0  0  0
    9.3332  -17.5616   22.6737 O   0  0  0  0  0  0  0  0  0  0  0  0
   11.3372  -16.4599   22.5708 N   0  0  0  0  0  0  0  0  0  0  0  0
   11.7392  -16.9080   23.8818 C   0  0  1  0  0  0  0  0  0  0  0  0
   13.1611  -16.4723   24.1556 C   0  0  0  0  0  0  0  0  0  0  0  0
   14.0880  -17.3223   23.3449 C   0  0  0  0  0  0  0  0  0  0  0  0
   15.2909  -16.5712   22.8928 C   0  0  0  0  0  0  0  0  0  0  0  0
   15.5625  -15.4357   23.3434 O   0  0  0  0  0  0  0  0  0  0  0  0
   10.8095  -16.3839   24.9035 C   0  0  0  0  0  0  0  0  0  0  0  0
   10.8879  -16.8312   26.0686 O   0  0  0  0  0  0  0  0  0  0  0  0
   16.1384  -17.1327   21.9502 O   0  0  0  0  0  0  0  0  0  0  0  0
    9.8529  -15.4199   24.6363 O   0  0  0  0  0  0  0  0  0  0  0  0
  1  2  1  0
  3  2  1  0
  3  4  1  6
  5  3  1  0
  6  5  2  0
  7  5  1  0
  8  7  1  0
  9 11  1  0
  9  8  1  0
 10  9  2  0
 12 11  1  0
 12 13  1  1
 13 14  1  0
 14 15  1  0
 15 16  2  0
 17 12  1  0
 17 20  1  0
 18 17  2  0
 19 15  1  0
M  END
$$$$
