SGE.pdb
     RDKit          3D

 20 19  0  0  1  0  0  0  0  0999 V2000
    7.1073  -13.6607   19.3366 O   0  0  0  0  0  0  0  0  0  0  0  0
    8.0106  -12.6545   19.0132 C   0  0  0  0  0  0  0  0  0  0  0  0
    8.7700  -13.0671   17.7677 C   0  0  2  0  0  0  0  0  0  0  0  0
    7.8333  -13.3876   16.7208 N   0  0  0  0  0  0  0  0  0  0  0  0
    9.5939  -14.2527   18.0913 C   0  0  0  0  0  0  0  0  0  0  0  0
    9.3742  -15.3820   17.5810 O   0  0  0  0  0  0  0  0  0  0  0  0
   10.6675  -14.1219   19.0044 N   0  0  0  0  0  0  0  0  0  0  0  0
   11.5254  -15.2629   19.2475 C   0  0  0  0  0  0  0  0  0  0  0  0
   12.5822  -14.8900   20.2453 C   0  0  0  0  0  0  0  0  0  0  0  0
   12.9679  -13.7101   20.4100 O   0  0  0  0  0  0  0  0  0  0  0  0
   13.1823  -15.8989   21.0453 N   0  0  0  0  0  0  0  0  0  0  0  0
   14.1357  -15.5850   22.0817 C   0  0  1  0  0  0  0  0  0  0  0  0
   13.8621  -16.4367   23.3008 C   0  0  0  0  0  0  0  0  0  0  0  0
   12.4753  -16.1507   23.7846 C   0  0  0  0  0  0  0  0  0  0  0  0
   12.1181  -16.9602   24.9815 C   0  0  0  0  0  0  0  0  0  0  0  0
   12.9771  -17.2915   25.8291 O   0  0  0  0  0  0  0  0  0  0  0  0
   15.5115  -15.7862   21.5822 C   0  0  0  0  0  0  0  0  0  0  0  0
   15.6773  -16.4618   20.5431 O   0  0  0  0  0  0  0  0  0  0  0  0
   10.8053  -17.3627   25.1728 O   0  0  0  0  0  0  0  0  0  0  0  0
   16.6302  -15.2634   22.2076 O   0  0  0  0  0  0  0  0  0  0  0  0
  1  2  1  0
  3  2  1  0
  3  4  1  6
  5  3  1  0
  6  5  2  0
  7  5  1  0
  8  7  1  0
  9 11  1  0
  9  8  1  0
 10  9  2  0
 12 11  1  0
 12 13  1  1
 13 14  1  0
 14 15  1  0
 15 16  2  0
 17 12  1  0
 17 20  1  0
 18 17  2  0
 19 15  1  0
M  END
$$$$
