SGE.pdb
     RDKit          3D

 20 19  0  0  1  0  0  0  0  0999 V2000
    8.0775  -19.0219   18.4769 O   0  0  0  0  0  0  0  0  0  0  0  0
    7.9752  -17.9765   17.5659 C   0  0  0  0  0  0  0  0  0  0  0  0
    8.8543  -16.8350   18.0376 C   0  0  2  0  0  0  0  0  0  0  0  0
   10.1873  -17.3261   18.2784 N   0  0  0  0  0  0  0  0  0  0  0  0
    8.2822  -16.2874   19.2874 C   0  0  0  0  0  0  0  0  0  0  0  0
    7.1229  -15.7998   19.3374 O   0  0  0  0  0  0  0  0  0  0  0  0
    9.0573  -16.3083   20.4715 N   0  0  0  0  0  0  0  0  0  0  0  0
    8.4342  -15.9382   21.7253 C   0  0  0  0  0  0  0  0  0  0  0  0
    9.4080  -16.1460   22.8478 C   0  0  0  0  0  0  0  0  0  0  0  0
   10.5084  -16.7220   22.6881 O   0  0  0  0  0  0  0  0  0  0  0  0
    9.0899  -15.6789   24.1511 N   0  0  0  0  0  0  0  0  0  0  0  0
    9.9910  -15.8503   25.2646 C   0  0  1  0  0  0  0  0  0  0  0  0
    9.5160  -15.0216   26.4369 C   0  0  0  0  0  0  0  0  0  0  0  0
   10.4801  -15.1938   27.5682 C   0  0  0  0  0  0  0  0  0  0  0  0
   10.0704  -14.4304   28.7786 C   0  0  0  0  0  0  0  0  0  0  0  0
    9.0215  -13.7483   28.7996 O   0  0  0  0  0  0  0  0  0  0  0  0
   10.0894  -17.2807   25.6213 C   0  0  0  0  0  0  0  0  0  0  0  0
    9.0871  -18.0090   25.4524 O   0  0  0  0  0  0  0  0  0  0  0  0
   10.8620  -14.4683   29.9162 O   0  0  0  0  0  0  0  0  0  0  0  0
   11.2380  -17.8578   26.1345 O   0  0  0  0  0  0  0  0  0  0  0  0
  1  2  1  0
  3  2  1  0
  3  4  1  1
  5  3  1  0
  6  5  2  0
  7  5  1  0
  8  7  1  0
  9 11  1  0
  9  8  1  0
 10  9  2  0
 12 11  1  0
 12 13  1  1
 13 14  1  0
 14 15  1  0
 15 16  2  0
 17 12  1  0
 17 20  1  0
 18 17  2  0
 19 15  1  0
M  END
$$$$
