SGE.pdb
     RDKit          3D

 20 19  0  0  1  0  0  0  0  0999 V2000
    0.9458  -20.8121   21.9999 O   0  0  0  0  0  0  0  0  0  0  0  0
    1.0124  -19.4482   21.7382 C   0  0  0  0  0  0  0  0  0  0  0  0
    2.0896  -19.2062   20.6994 C   0  0  2  0  0  0  0  0  0  0  0  0
    1.7907  -19.9690   19.5141 N   0  0  0  0  0  0  0  0  0  0  0  0
    3.3895  -19.6329   21.2627 C   0  0  0  0  0  0  0  0  0  0  0  0
    3.9970  -20.6547   20.8492 O   0  0  0  0  0  0  0  0  0  0  0  0
    3.9773  -18.8727   22.3019 N   0  0  0  0  0  0  0  0  0  0  0  0
    5.2773  -19.2618   22.8077 C   0  0  0  0  0  0  0  0  0  0  0  0
    5.6971  -18.3118   23.8906 C   0  0  0  0  0  0  0  0  0  0  0  0
    5.0509  -17.2752   24.1661 O   0  0  0  0  0  0  0  0  0  0  0  0
    6.8704  -18.5790   24.6455 N   0  0  0  0  0  0  0  0  0  0  0  0
    7.4756  -17.5819   25.4945 C   0  0  1  0  0  0  0  0  0  0  0  0
    8.5295  -18.2265   26.3664 C   0  0  0  0  0  0  0  0  0  0  0  0
    7.8718  -18.7571   27.6013 C   0  0  0  0  0  0  0  0  0  0  0  0
    8.8370  -19.4432   28.5031 C   0  0  0  0  0  0  0  0  0  0  0  0
    9.1157  -20.6553   28.3647 O   0  0  0  0  0  0  0  0  0  0  0  0
    8.0478  -16.4960   24.6721 C   0  0  0  0  0  0  0  0  0  0  0  0
    8.2987  -15.4002   25.2199 O   0  0  0  0  0  0  0  0  0  0  0  0
    9.4483  -18.7328   29.5247 O   0  0  0  0  0  0  0  0  0  0  0  0
    8.3214  -16.6298   23.3219 O   0  0  0  0  0  0  0  0  0  0  0  0
  1  2  1  0
  3  2  1  0
  3  4  1  6
  5  3  1  0
  6  5  2  0
  7  5  1  0
  8  7  1  0
  9 11  1  0
  9  8  1  0
 10  9  2  0
 12 11  1  0
 12 13  1  6
 13 14  1  0
 14 15  1  0
 15 16  2  0
 17 12  1  0
 17 20  1  0
 18 17  2  0
 19 15  1  0
M  END
$$$$
