SGE.pdb
     RDKit          3D

 20 19  0  0  1  0  0  0  0  0999 V2000
    9.3610  -16.5484   16.1850 O   0  0  0  0  0  0  0  0  0  0  0  0
    8.0331  -16.7218   16.5590 C   0  0  0  0  0  0  0  0  0  0  0  0
    7.9955  -17.4357   17.8958 C   0  0  2  0  0  0  0  0  0  0  0  0
    6.6287  -17.7357   18.2393 N   0  0  0  0  0  0  0  0  0  0  0  0
    8.5925  -16.5488   18.9187 C   0  0  0  0  0  0  0  0  0  0  0  0
    9.8235  -16.2881   18.9448 O   0  0  0  0  0  0  0  0  0  0  0  0
    7.7588  -15.9694   19.9049 N   0  0  0  0  0  0  0  0  0  0  0  0
    8.3488  -15.0970   20.8988 C   0  0  0  0  0  0  0  0  0  0  0  0
    8.7188  -15.8993   22.1116 C   0  0  0  0  0  0  0  0  0  0  0  0
    7.8915  -16.6072   22.7301 O   0  0  0  0  0  0  0  0  0  0  0  0
   10.0543  -15.8696   22.5947 N   0  0  0  0  0  0  0  0  0  0  0  0
   10.5149  -16.7717   23.6221 C   0  0  1  0  0  0  0  0  0  0  0  0
   11.9931  -17.0354   23.4437 C   0  0  0  0  0  0  0  0  0  0  0  0
   12.7135  -15.7244   23.4086 C   0  0  0  0  0  0  0  0  0  0  0  0
   14.1781  -15.8918   23.2028 C   0  0  0  0  0  0  0  0  0  0  0  0
   14.8176  -15.1592   22.4151 O   0  0  0  0  0  0  0  0  0  0  0  0
   10.2257  -16.2090   24.9572 C   0  0  0  0  0  0  0  0  0  0  0  0
    9.8327  -15.0244   25.0342 O   0  0  0  0  0  0  0  0  0  0  0  0
   14.8615  -16.8798   23.8950 O   0  0  0  0  0  0  0  0  0  0  0  0
   10.3679  -16.9282   26.1312 O   0  0  0  0  0  0  0  0  0  0  0  0
  1  2  1  0
  3  2  1  0
  3  4  1  1
  5  3  1  0
  6  5  2  0
  7  5  1  0
  8  7  1  0
  9 11  1  0
  9  8  1  0
 10  9  2  0
 12 11  1  0
 12 13  1  1
 13 14  1  0
 14 15  1  0
 15 16  2  0
 17 12  1  0
 17 20  1  0
 18 17  2  0
 19 15  1  0
M  END
$$$$
