SGE.pdb
     RDKit          3D

 20 19  0  0  1  0  0  0  0  0999 V2000
    8.1206  -12.0272   19.0836 O   0  0  0  0  0  0  0  0  0  0  0  0
    9.3433  -12.6826   18.9918 C   0  0  0  0  0  0  0  0  0  0  0  0
    9.0925  -14.1216   18.5861 C   0  0  2  0  0  0  0  0  0  0  0  0
    8.2167  -14.1501   17.4423 N   0  0  0  0  0  0  0  0  0  0  0  0
    8.4635  -14.8275   19.7241 C   0  0  0  0  0  0  0  0  0  0  0  0
    7.2216  -15.0213   19.7899 O   0  0  0  0  0  0  0  0  0  0  0  0
    9.2778  -15.3045   20.7790 N   0  0  0  0  0  0  0  0  0  0  0  0
    8.6583  -16.0161   21.8776 C   0  0  0  0  0  0  0  0  0  0  0  0
    9.2239  -15.5208   23.1762 C   0  0  0  0  0  0  0  0  0  0  0  0
   10.4351  -15.2368   23.3195 O   0  0  0  0  0  0  0  0  0  0  0  0
    8.3702  -15.3603   24.3002 N   0  0  0  0  0  0  0  0  0  0  0  0
    8.8760  -14.9682   25.5932 C   0  0  1  0  0  0  0  0  0  0  0  0
    7.7607  -14.3605   26.4138 C   0  0  0  0  0  0  0  0  0  0  0  0
    7.5214  -12.9624   25.9376 C   0  0  0  0  0  0  0  0  0  0  0  0
    6.4561  -12.2760   26.7182 C   0  0  0  0  0  0  0  0  0  0  0  0
    5.8717  -12.8423   27.6689 O   0  0  0  0  0  0  0  0  0  0  0  0
    9.4748  -16.1327   26.2774 C   0  0  0  0  0  0  0  0  0  0  0  0
    9.1951  -17.2787   25.8622 O   0  0  0  0  0  0  0  0  0  0  0  0
    6.0937  -10.9777   26.3936 O   0  0  0  0  0  0  0  0  0  0  0  0
   10.3323  -16.0200   27.3580 O   0  0  0  0  0  0  0  0  0  0  0  0
  1  2  1  0
  3  2  1  0
  3  4  1  6
  5  3  1  0
  6  5  2  0
  7  5  1  0
  8  7  1  0
  9 11  1  0
  9  8  1  0
 10  9  2  0
 12 11  1  0
 12 13  1  1
 13 14  1  0
 14 15  1  0
 15 16  2  0
 17 12  1  0
 17 20  1  0
 18 17  2  0
 19 15  1  0
M  END
$$$$
