SGE.pdb
     RDKit          3D

 20 19  0  0  1  0  0  0  0  0999 V2000
    7.3569  -13.8890   17.8542 O   0  0  0  0  0  0  0  0  0  0  0  0
    7.0736  -13.3375   19.0986 C   0  0  0  0  0  0  0  0  0  0  0  0
    8.3726  -12.8824   19.7341 C   0  0  2  0  0  0  0  0  0  0  0  0
    9.1185  -12.0947   18.7857 N   0  0  0  0  0  0  0  0  0  0  0  0
    9.1504  -14.0799   20.1216 C   0  0  0  0  0  0  0  0  0  0  0  0
    8.7480  -14.8859   21.0005 O   0  0  0  0  0  0  0  0  0  0  0  0
   10.3900  -14.3357   19.4880 N   0  0  0  0  0  0  0  0  0  0  0  0
   11.0358  -15.6146   19.6993 C   0  0  0  0  0  0  0  0  0  0  0  0
   11.9277  -15.5312   20.9031 C   0  0  0  0  0  0  0  0  0  0  0  0
   12.7686  -14.6162   21.0574 O   0  0  0  0  0  0  0  0  0  0  0  0
   11.8315  -16.5182   21.9202 N   0  0  0  0  0  0  0  0  0  0  0  0
   12.6724  -16.4914   23.0921 C   0  0  1  0  0  0  0  0  0  0  0  0
   12.2278  -17.5620   24.0631 C   0  0  0  0  0  0  0  0  0  0  0  0
   13.0062  -17.4119   25.3322 C   0  0  0  0  0  0  0  0  0  0  0  0
   12.6443  -18.4453   26.3405 C   0  0  0  0  0  0  0  0  0  0  0  0
   11.7653  -19.3059   26.1109 O   0  0  0  0  0  0  0  0  0  0  0  0
   14.0870  -16.6699   22.7048 C   0  0  0  0  0  0  0  0  0  0  0  0
   14.3457  -17.3250   21.6715 O   0  0  0  0  0  0  0  0  0  0  0  0
   13.2897  -18.4649   27.5674 O   0  0  0  0  0  0  0  0  0  0  0  0
   15.1442  -16.1474   23.4294 O   0  0  0  0  0  0  0  0  0  0  0  0
  1  2  1  0
  3  2  1  0
  3  4  1  6
  5  3  1  0
  6  5  2  0
  7  5  1  0
  8  7  1  0
  9 11  1  0
  9  8  1  0
 10  9  2  0
 12 11  1  0
 12 13  1  1
 13 14  1  0
 14 15  1  0
 15 16  2  0
 17 12  1  0
 17 20  1  0
 18 17  2  0
 19 15  1  0
M  END
$$$$
