RIS.pdb
     RDKit          3D

 26 25  0  0  1  0  0  0  0  0999 V2000
   17.5804  -23.0796  -16.2291 N   0  0  0  0  0  0  0  0  0  0  0  0
   17.3504  -23.3750  -14.8762 C   0  0  0  0  0  0  0  0  0  0  0  0
   17.0985  -24.5902  -14.4716 N   0  0  0  0  0  0  0  0  0  0  0  0
   17.3831  -22.3529  -13.8850 N   0  0  0  0  0  0  0  0  0  0  0  0
   18.6697  -21.9316  -13.3742 C   0  0  0  0  0  0  0  0  0  0  0  0
   19.0226  -20.5490  -13.8825 C   0  0  0  0  0  0  0  0  0  0  0  0
   20.4289  -20.1878  -13.4778 C   0  0  0  0  0  0  0  0  0  0  0  0
   21.4544  -20.9082  -14.2911 C   0  0  2  0  0  0  0  0  0  0  0  0
   21.4535  -22.3190  -13.9560 N   0  0  0  0  0  0  0  0  0  0  0  0
   22.8166  -20.3530  -14.1077 C   0  0  0  0  0  0  0  0  0  0  0  0
   23.0720  -19.1267  -14.2154 O   0  0  0  0  0  0  0  0  0  0  0  0
   16.9479  -24.7856  -13.4550 C   0  0  0  0  0  0  0  0  0  0  0  0
   25.1472  -21.2783   -9.7437 C   0  0  0  0  0  0  0  0  0  0  0  0
   24.7322  -20.7017  -11.0783 C   0  0  2  0  0  0  0  0  0  0  0  0
   25.6184  -21.1508  -12.2000 C   0  0  0  0  0  0  0  0  0  0  0  0
   27.0862  -21.0046  -11.8777 C   0  0  2  0  0  0  0  0  0  0  0  0
   25.2613  -20.6904  -13.5622 N   0  0  0  0  0  0  0  0  0  0  0  0
   23.8984  -21.2088  -13.7978 C   0  0  0  0  0  0  0  0  0  0  0  0
   26.0807  -21.0583  -14.6789 O   0  0  0  0  0  0  0  0  0  0  0  0
   26.1075  -22.2960  -15.0103 O   0  0  0  0  0  0  0  0  0  0  0  0
   29.2076  -20.1806  -18.2989 C   0  0  0  0  0  0  0  0  0  0  0  0
   28.3835  -19.6487  -17.3393 C   0  0  1  0  0  0  0  0  0  0  0  0
   27.7138  -20.7696  -16.5432 N   0  0  0  0  0  0  0  0  0  0  0  0
   26.8829  -20.2336  -15.4888 C   0  0  0  0  0  0  0  0  0  0  0  0
   28.7659  -21.6478  -15.9949 O   0  0  0  0  0  0  0  0  0  0  0  0
   29.1835  -22.7366  -16.7304 O   0  0  0  0  0  0  0  0  0  0  0  0
  2  3  2  0
  2  1  1  0
  4  2  1  0
  5  6  1  0
  5  4  1  0
  6  7  1  0
  7  8  1  0
  8  9  1  1
 10 11  2  0
 10  8  1  0
 13 14  1  0
 13 12  1  0
 14 16  1  0
 14 15  1  6
 16 17  1  6
 17 10  1  0
 18 16  1  0
 19 18  2  0
 21 20  1  0
 22 21  1  6
 22 23  1  0
 23 18  1  0
 24 22  1  0
 25 24  1  0
 26 24  2  0
M  END
$$$$
