RIS.pdb
     RDKit          3D

 26 25  0  0  1  0  0  0  0  0999 V2000
   27.0397  -23.5103  -18.6004 N   0  0  0  0  0  0  0  0  0  0  0  0
   28.0403  -23.0715  -19.4818 C   0  0  0  0  0  0  0  0  0  0  0  0
   27.9463  -23.2498  -20.7715 N   0  0  0  0  0  0  0  0  0  0  0  0
   29.2056  -22.4098  -18.9998 N   0  0  0  0  0  0  0  0  0  0  0  0
   29.2255  -21.9692  -17.6216 C   0  0  0  0  0  0  0  0  0  0  0  0
   28.3979  -20.7124  -17.4478 C   0  0  0  0  0  0  0  0  0  0  0  0
   27.1819  -21.0012  -16.6052 C   0  0  0  0  0  0  0  0  0  0  0  0
   27.5413  -21.3970  -15.2101 C   0  0  2  0  0  0  0  0  0  0  0  0
   28.5046  -22.4805  -15.2332 N   0  0  0  0  0  0  0  0  0  0  0  0
   26.3585  -21.7984  -14.4117 C   0  0  0  0  0  0  0  0  0  0  0  0
   25.8464  -22.9444  -14.4827 O   0  0  0  0  0  0  0  0  0  0  0  0
   28.6910  -22.8844  -21.4088 C   0  0  0  0  0  0  0  0  0  0  0  0
   26.5280  -20.6063   -9.3700 C   0  0  0  0  0  0  0  0  0  0  0  0
   26.1899  -21.3002  -10.6701 C   0  0  2  0  0  0  0  0  0  0  0  0
   24.9593  -20.7420  -11.3174 C   0  0  0  0  0  0  0  0  0  0  0  0
   23.7817  -20.6797  -10.3745 C   0  0  2  0  0  0  0  0  0  0  0  0
   24.6156  -21.2596  -12.6624 N   0  0  0  0  0  0  0  0  0  0  0  0
   25.7547  -20.8798  -13.5226 C   0  0  0  0  0  0  0  0  0  0  0  0
   23.4070  -20.8346  -13.3046 O   0  0  0  0  0  0  0  0  0  0  0  0
   23.3091  -19.5965  -13.6207 O   0  0  0  0  0  0  0  0  0  0  0  0
   20.3574  -23.2385  -14.7160 C   0  0  0  0  0  0  0  0  0  0  0  0
   20.5229  -22.0136  -15.3121 C   0  0  1  0  0  0  0  0  0  0  0  0
   21.1351  -21.0253  -14.3186 N   0  0  0  0  0  0  0  0  0  0  0  0
   22.2793  -21.6021  -13.6497 C   0  0  0  0  0  0  0  0  0  0  0  0
   20.0952  -20.6326  -13.3474 O   0  0  0  0  0  0  0  0  0  0  0  0
   18.9762  -19.9628  -13.7947 O   0  0  0  0  0  0  0  0  0  0  0  0
  2  3  2  0
  2  1  1  0
  4  2  1  0
  5  6  1  0
  5  4  1  0
  6  7  1  0
  7  8  1  0
  8  9  1  6
 10 11  2  0
 10  8  1  0
 13 14  1  0
 13 12  1  0
 14 16  1  0
 14 15  1  6
 16 17  1  6
 17 10  1  0
 18 16  1  0
 19 18  2  0
 21 20  1  0
 22 21  1  6
 22 23  1  0
 23 18  1  0
 24 22  1  0
 25 24  1  0
 26 24  2  0
M  END
$$$$
