RIS.pdb
     RDKit          3D

 26 25  0  0  1  0  0  0  0  0999 V2000
   22.7845  -30.4946  -13.0434 N   0  0  0  0  0  0  0  0  0  0  0  0
   22.4502  -31.5658  -12.2000 C   0  0  0  0  0  0  0  0  0  0  0  0
   22.7684  -32.7971  -12.4942 N   0  0  0  0  0  0  0  0  0  0  0  0
   21.7456  -31.3495  -10.9814 N   0  0  0  0  0  0  0  0  0  0  0  0
   21.3669  -29.9959  -10.6372 C   0  0  0  0  0  0  0  0  0  0  0  0
   21.0283  -29.2005  -11.8811 C   0  0  0  0  0  0  0  0  0  0  0  0
   19.7272  -28.4636  -11.6907 C   0  0  0  0  0  0  0  0  0  0  0  0
   19.3076  -28.4173  -10.2576 C   0  0  2  0  0  0  0  0  0  0  0  0
   18.8134  -29.7156   -9.8420 N   0  0  0  0  0  0  0  0  0  0  0  0
   18.2747  -27.3853  -10.0018 C   0  0  0  0  0  0  0  0  0  0  0  0
   17.0425  -27.6195  -10.0883 O   0  0  0  0  0  0  0  0  0  0  0  0
   22.4290  -33.5855  -11.8964 C   0  0  0  0  0  0  0  0  0  0  0  0
   17.6668  -25.2344   -5.5688 C   0  0  0  0  0  0  0  0  0  0  0  0
   17.4616  -25.6987   -6.9929 C   0  0  2  0  0  0  0  0  0  0  0  0
   17.7898  -24.6367   -7.9976 C   0  0  0  0  0  0  0  0  0  0  0  0
   17.1742  -23.3009   -7.6562 C   0  0  2  0  0  0  0  0  0  0  0  0
   17.6583  -25.0024   -9.4273 N   0  0  0  0  0  0  0  0  0  0  0  0
   18.6544  -26.0715   -9.6433 C   0  0  0  0  0  0  0  0  0  0  0  0
   17.8430  -24.0056  -10.4402 O   0  0  0  0  0  0  0  0  0  0  0  0
   18.9529  -23.3650  -10.4440 O   0  0  0  0  0  0  0  0  0  0  0  0
   15.5429  -23.3442  -13.8410 C   0  0  0  0  0  0  0  0  0  0  0  0
   16.8688  -22.9907  -13.8320 C   0  0  1  0  0  0  0  0  0  0  0  0
   17.2947  -22.5885  -12.4194 N   0  0  0  0  0  0  0  0  0  0  0  0
   16.9568  -23.6172  -11.4619 C   0  0  0  0  0  0  0  0  0  0  0  0
   16.6395  -21.3105  -12.0786 O   0  0  0  0  0  0  0  0  0  0  0  0
   17.0107  -20.1648  -12.7495 O   0  0  0  0  0  0  0  0  0  0  0  0
  2  3  2  0
  2  1  1  0
  4  2  1  0
  5  6  1  0
  5  4  1  0
  6  7  1  0
  7  8  1  0
  8  9  1  6
 10 11  2  0
 10  8  1  0
 13 14  1  0
 13 12  1  0
 14 16  1  0
 14 15  1  6
 16 17  1  6
 17 10  1  0
 18 16  1  0
 19 18  2  0
 21 20  1  0
 22 21  1  6
 22 23  1  0
 23 18  1  0
 24 22  1  0
 25 24  1  0
 26 24  2  0
M  END
$$$$
