RIS.pdb
     RDKit          3D

 26 25  0  0  1  0  0  0  0  0999 V2000
   20.3338  -17.1824  -14.5894 N   0  0  0  0  0  0  0  0  0  0  0  0
   21.6156  -17.6728  -14.8843 C   0  0  0  0  0  0  0  0  0  0  0  0
   21.9283  -18.9277  -14.7082 N   0  0  0  0  0  0  0  0  0  0  0  0
   22.6324  -16.8138  -15.3909 N   0  0  0  0  0  0  0  0  0  0  0  0
   22.2846  -15.4430  -15.6974 C   0  0  0  0  0  0  0  0  0  0  0  0
   23.4586  -14.7184  -16.3231 C   0  0  0  0  0  0  0  0  0  0  0  0
   23.7294  -13.4313  -15.5868 C   0  0  0  0  0  0  0  0  0  0  0  0
   22.6509  -12.4197  -15.8003 C   0  0  2  0  0  0  0  0  0  0  0  0
   22.1055  -12.5490  -17.1376 N   0  0  0  0  0  0  0  0  0  0  0  0
   23.1249  -11.0314  -15.5873 C   0  0  0  0  0  0  0  0  0  0  0  0
   23.8352  -10.6979  -14.6050 O   0  0  0  0  0  0  0  0  0  0  0  0
   22.8925  -19.2662  -14.9322 C   0  0  0  0  0  0  0  0  0  0  0  0
   25.3930   -8.5587  -19.5660 C   0  0  0  0  0  0  0  0  0  0  0  0
   24.9281   -9.0416  -18.2108 C   0  0  2  0  0  0  0  0  0  0  0  0
   23.7822   -8.2383  -17.6754 C   0  0  0  0  0  0  0  0  0  0  0  0
   23.9870   -6.7511  -17.8369 C   0  0  2  0  0  0  0  0  0  0  0  0
   23.2568   -8.6237  -16.3448 N   0  0  0  0  0  0  0  0  0  0  0  0
   22.7832  -10.0134  -16.5069 C   0  0  0  0  0  0  0  0  0  0  0  0
   22.2056   -7.8587  -15.7422 O   0  0  0  0  0  0  0  0  0  0  0  0
   21.1350   -7.6845  -16.4248 O   0  0  0  0  0  0  0  0  0  0  0  0
   20.0401   -8.2481  -12.9631 C   0  0  0  0  0  0  0  0  0  0  0  0
   20.4300   -6.9456  -12.7774 C   0  0  2  0  0  0  0  0  0  0  0  0
   21.0835   -6.4072  -14.0509 N   0  0  0  0  0  0  0  0  0  0  0  0
   22.1767   -7.2540  -14.4720 C   0  0  0  0  0  0  0  0  0  0  0  0
   21.5480   -5.0302  -13.7929 O   0  0  0  0  0  0  0  0  0  0  0  0
   22.8945   -4.7472  -13.8812 O   0  0  0  0  0  0  0  0  0  0  0  0
  2  3  2  0
  2  1  1  0
  4  2  1  0
  5  6  1  0
  5  4  1  0
  6  7  1  0
  7  8  1  0
  8  9  1  6
 10 11  2  0
 10  8  1  0
 13 14  1  0
 13 12  1  0
 14 16  1  0
 14 15  1  6
 16 17  1  1
 17 10  1  0
 18 16  1  0
 19 18  2  0
 21 20  1  0
 22 21  1  6
 22 23  1  0
 23 18  1  0
 24 22  1  0
 25 24  1  0
 26 24  2  0
M  END
$$$$
