RIS.pdb
     RDKit          3D

 26 25  0  0  1  0  0  0  0  0999 V2000
   27.7350  -27.0767  -16.1809 N   0  0  0  0  0  0  0  0  0  0  0  0
   27.8065  -26.4142  -17.4164 C   0  0  0  0  0  0  0  0  0  0  0  0
   28.0746  -27.0518  -18.5234 N   0  0  0  0  0  0  0  0  0  0  0  0
   27.5876  -25.0101  -17.5110 N   0  0  0  0  0  0  0  0  0  0  0  0
   26.7715  -24.3719  -16.5008 C   0  0  0  0  0  0  0  0  0  0  0  0
   25.3154  -24.7558  -16.6656 C   0  0  0  0  0  0  0  0  0  0  0  0
   24.4713  -24.0560  -15.6314 C   0  0  0  0  0  0  0  0  0  0  0  0
   24.8034  -22.6037  -15.5183 C   0  0  2  0  0  0  0  0  0  0  0  0
   26.2061  -22.4385  -15.1898 N   0  0  0  0  0  0  0  0  0  0  0  0
   23.9697  -21.9078  -14.5094 C   0  0  0  0  0  0  0  0  0  0  0  0
   24.3843  -21.6364  -13.3540 O   0  0  0  0  0  0  0  0  0  0  0  0
   28.1960  -26.5240  -19.4184 C   0  0  0  0  0  0  0  0  0  0  0  0
   20.8843  -17.0505  -14.2257 C   0  0  0  0  0  0  0  0  0  0  0  0
   20.8709  -18.4366  -13.6221 C   0  0  2  0  0  0  0  0  0  0  0  0
   21.7206  -19.4055  -14.3864 C   0  0  0  0  0  0  0  0  0  0  0  0
   21.4869  -19.3367  -15.8765 C   0  0  2  0  0  0  0  0  0  0  0  0
   21.7980  -20.7888  -13.8613 N   0  0  0  0  0  0  0  0  0  0  0  0
   22.6477  -21.5181  -14.8246 C   0  0  0  0  0  0  0  0  0  0  0  0
   20.5977  -21.5451  -13.6594 O   0  0  0  0  0  0  0  0  0  0  0  0
   20.0078  -22.0069  -14.6991 O   0  0  0  0  0  0  0  0  0  0  0  0
   17.3103  -23.9270  -11.0161 C   0  0  0  0  0  0  0  0  0  0  0  0
   18.5281  -23.2959  -11.0584 C   0  0  1  0  0  0  0  0  0  0  0  0
   18.7177  -22.6123  -12.4131 N   0  0  0  0  0  0  0  0  0  0  0  0
   19.9542  -21.8645  -12.4495 C   0  0  0  0  0  0  0  0  0  0  0  0
   17.5584  -21.7328  -12.6604 O   0  0  0  0  0  0  0  0  0  0  0  0
   16.4281  -22.2597  -13.2483 O   0  0  0  0  0  0  0  0  0  0  0  0
  2  3  2  0
  2  1  1  0
  4  2  1  0
  5  6  1  0
  5  4  1  0
  6  7  1  0
  7  8  1  0
  8  9  1  1
 10 11  2  0
 10  8  1  0
 13 14  1  0
 13 12  1  0
 14 16  1  0
 14 15  1  1
 16 17  1  6
 17 10  1  0
 18 16  1  0
 19 18  2  0
 21 20  1  0
 22 21  1  6
 22 23  1  0
 23 18  1  0
 24 22  1  0
 25 24  1  0
 26 24  2  0
M  END
$$$$
