RIS.pdb
     RDKit          3D

 26 25  0  0  1  0  0  0  0  0999 V2000
   18.3646  -17.6155  -15.4247 N   0  0  0  0  0  0  0  0  0  0  0  0
   18.6000  -16.7923  -16.5371 C   0  0  0  0  0  0  0  0  0  0  0  0
   17.9777  -15.6558  -16.6946 N   0  0  0  0  0  0  0  0  0  0  0  0
   19.5337  -17.1678  -17.5448 N   0  0  0  0  0  0  0  0  0  0  0  0
   20.5245  -18.1724  -17.2239 C   0  0  0  0  0  0  0  0  0  0  0  0
   20.5577  -18.4366  -15.7326 C   0  0  0  0  0  0  0  0  0  0  0  0
   21.6295  -19.4447  -15.4054 C   0  0  0  0  0  0  0  0  0  0  0  0
   22.7620  -19.4028  -16.3789 C   0  0  2  0  0  0  0  0  0  0  0  0
   22.3681  -20.0271  -17.6270 N   0  0  0  0  0  0  0  0  0  0  0  0
   23.9838  -20.0597  -15.8565 C   0  0  0  0  0  0  0  0  0  0  0  0
   24.3200  -21.2273  -16.1796 O   0  0  0  0  0  0  0  0  0  0  0  0
   18.1694  -15.0629  -17.5349 C   0  0  0  0  0  0  0  0  0  0  0  0
   28.4230  -17.9413  -16.5665 C   0  0  0  0  0  0  0  0  0  0  0  0
   27.3222  -18.9298  -16.2551 C   0  0  2  0  0  0  0  0  0  0  0  0
   27.1637  -19.1705  -14.7847 C   0  0  0  0  0  0  0  0  0  0  0  0
   28.4651  -19.5314  -14.1094 C   0  0  2  0  0  0  0  0  0  0  0  0
   26.0222  -20.0155  -14.3628 N   0  0  0  0  0  0  0  0  0  0  0  0
   24.8305  -19.3745  -14.9552 C   0  0  0  0  0  0  0  0  0  0  0  0
   25.7694  -20.2315  -12.9689 O   0  0  0  0  0  0  0  0  0  0  0  0
   25.3024  -19.2477  -12.2932 O   0  0  0  0  0  0  0  0  0  0  0  0
   26.0797  -19.9374   -9.0153 C   0  0  0  0  0  0  0  0  0  0  0  0
   26.7040  -20.6766   -9.9883 C   0  0  1  0  0  0  0  0  0  0  0  0
   25.6687  -21.4581  -10.7983 N   0  0  0  0  0  0  0  0  0  0  0  0
   25.9643  -21.4016  -12.2121 C   0  0  0  0  0  0  0  0  0  0  0  0
   24.3323  -20.9001  -10.5130 O   0  0  0  0  0  0  0  0  0  0  0  0
   23.8358  -20.9676   -9.2286 O   0  0  0  0  0  0  0  0  0  0  0  0
  2  3  2  0
  2  1  1  0
  4  2  1  0
  5  6  1  0
  5  4  1  0
  6  7  1  0
  7  8  1  0
  8  9  1  6
 10 11  2  0
 10  8  1  0
 13 14  1  0
 13 12  1  0
 14 16  1  0
 14 15  1  1
 16 17  1  6
 17 10  1  0
 18 16  1  0
 19 18  2  0
 21 20  1  0
 22 21  1  1
 22 23  1  0
 23 18  1  0
 24 22  1  0
 25 24  1  0
 26 24  2  0
M  END
$$$$
