RIS.pdb
     RDKit          3D

 26 25  0  0  1  0  0  0  0  0999 V2000
   18.1454  -27.7066   -8.7756 N   0  0  0  0  0  0  0  0  0  0  0  0
   18.9153  -27.2542   -9.8587 C   0  0  0  0  0  0  0  0  0  0  0  0
   19.2516  -28.0457  -10.8407 N   0  0  0  0  0  0  0  0  0  0  0  0
   19.3627  -25.9039   -9.9290 N   0  0  0  0  0  0  0  0  0  0  0  0
   18.5432  -24.8758   -9.3246 C   0  0  0  0  0  0  0  0  0  0  0  0
   17.8328  -24.0621  -10.3866 C   0  0  0  0  0  0  0  0  0  0  0  0
   18.8149  -23.1746  -11.1075 C   0  0  0  0  0  0  0  0  0  0  0  0
   19.1668  -21.9586  -10.3140 C   0  0  2  0  0  0  0  0  0  0  0  0
   17.9867  -21.1420  -10.1059 N   0  0  0  0  0  0  0  0  0  0  0  0
   20.2271  -21.1476  -10.9585 C   0  0  0  0  0  0  0  0  0  0  0  0
   20.0011  -20.0315  -11.4914 O   0  0  0  0  0  0  0  0  0  0  0  0
   19.8628  -27.6946  -11.6137 C   0  0  0  0  0  0  0  0  0  0  0  0
   24.9051  -20.9529   -8.4557 C   0  0  0  0  0  0  0  0  0  0  0  0
   23.6452  -20.7217   -9.2588 C   0  0  2  0  0  0  0  0  0  0  0  0
   23.8203  -21.0473  -10.7108 C   0  0  0  0  0  0  0  0  0  0  0  0
   25.1156  -20.5153  -11.2756 C   0  0  2  0  0  0  0  0  0  0  0  0
   22.6518  -20.8235  -11.5939 N   0  0  0  0  0  0  0  0  0  0  0  0
   21.5600  -21.6175  -10.9945 C   0  0  0  0  0  0  0  0  0  0  0  0
   22.7343  -21.1529  -12.9861 O   0  0  0  0  0  0  0  0  0  0  0  0
   23.1116  -22.3389  -13.2917 O   0  0  0  0  0  0  0  0  0  0  0  0
   20.6239  -19.5490  -15.9736 C   0  0  0  0  0  0  0  0  0  0  0  0
   21.2089  -20.7749  -16.1687 C   0  0  1  0  0  0  0  0  0  0  0  0
   22.5599  -20.8308  -15.4543 N   0  0  0  0  0  0  0  0  0  0  0  0
   22.4520  -20.3397  -14.0991 C   0  0  0  0  0  0  0  0  0  0  0  0
   23.5333  -20.0376  -16.2302 O   0  0  0  0  0  0  0  0  0  0  0  0
   23.8380  -20.4212  -17.5189 O   0  0  0  0  0  0  0  0  0  0  0  0
  2  3  2  0
  2  1  1  0
  4  2  1  0
  5  6  1  0
  5  4  1  0
  6  7  1  0
  7  8  1  0
  8  9  1  6
 10 11  2  0
 10  8  1  0
 13 14  1  0
 13 12  1  0
 14 16  1  0
 14 15  1  6
 16 17  1  6
 17 10  1  0
 18 16  1  0
 19 18  2  0
 21 20  1  0
 22 21  1  1
 22 23  1  0
 23 18  1  0
 24 22  1  0
 25 24  1  0
 26 24  2  0
M  END
$$$$
