RIS.pdb
     RDKit          3D

 26 25  0  0  1  0  0  0  0  0999 V2000
   14.7768  -13.9459  -16.7927 N   0  0  0  0  0  0  0  0  0  0  0  0
   15.2790  -13.8785  -18.1018 C   0  0  0  0  0  0  0  0  0  0  0  0
   14.4889  -13.7883  -19.1369 N   0  0  0  0  0  0  0  0  0  0  0  0
   16.6804  -13.9062  -18.3535 N   0  0  0  0  0  0  0  0  0  0  0  0
   17.5540  -13.1771  -17.4595 C   0  0  0  0  0  0  0  0  0  0  0  0
   18.3370  -12.1232  -18.2152 C   0  0  0  0  0  0  0  0  0  0  0  0
   19.1113  -11.2590  -17.2531 C   0  0  0  0  0  0  0  0  0  0  0  0
   20.4912  -11.7779  -17.0109 C   0  0  2  0  0  0  0  0  0  0  0  0
   20.4290  -13.1186  -16.4620 N   0  0  0  0  0  0  0  0  0  0  0  0
   21.2752  -10.9043  -16.1057 C   0  0  0  0  0  0  0  0  0  0  0  0
   21.1385  -10.9217  -14.8560 O   0  0  0  0  0  0  0  0  0  0  0  0
   13.4633  -13.9665  -19.0331 C   0  0  0  0  0  0  0  0  0  0  0  0
   25.2063  -11.1868  -14.6636 C   0  0  0  0  0  0  0  0  0  0  0  0
   24.9706  -10.7658  -16.0964 C   0  0  1  0  0  0  0  0  0  0  0  0
   24.4457   -9.3667  -16.2064 C   0  0  0  0  0  0  0  0  0  0  0  0
   25.4204   -8.3360  -15.6892 C   0  0  2  0  0  0  0  0  0  0  0  0
   23.0501   -9.1374  -15.7651 N   0  0  0  0  0  0  0  0  0  0  0  0
   22.2256  -10.0012  -16.6346 C   0  0  0  0  0  0  0  0  0  0  0  0
   22.4992   -7.8148  -15.7943 O   0  0  0  0  0  0  0  0  0  0  0  0
   22.5065   -7.1958  -16.9164 O   0  0  0  0  0  0  0  0  0  0  0  0
   19.1924   -6.4149  -15.1413 C   0  0  0  0  0  0  0  0  0  0  0  0
   20.0158   -5.5773  -14.4318 C   0  0  2  0  0  0  0  0  0  0  0  0
   21.4579   -5.7227  -14.9195 N   0  0  0  0  0  0  0  0  0  0  0  0
   21.9338   -7.0756  -14.7389 C   0  0  0  0  0  0  0  0  0  0  0  0
   22.3009   -4.7610  -14.1825 O   0  0  0  0  0  0  0  0  0  0  0  0
   22.1093   -3.4100  -14.3799 O   0  0  0  0  0  0  0  0  0  0  0  0
  2  3  2  0
  2  1  1  0
  4  2  1  0
  5  6  1  0
  5  4  1  0
  6  7  1  0
  7  8  1  0
  8  9  1  1
 10 11  2  0
 10  8  1  0
 13 14  1  0
 13 12  1  0
 14 16  1  0
 14 15  1  6
 16 17  1  1
 17 10  1  0
 18 16  1  0
 19 18  2  0
 21 20  1  0
 22 21  1  6
 22 23  1  0
 23 18  1  0
 24 22  1  0
 25 24  1  0
 26 24  2  0
M  END
$$$$
