RIS.pdb
     RDKit          3D

 26 25  0  0  1  0  0  0  0  0999 V2000
   29.0410  -27.4009  -16.5442 N   0  0  0  0  0  0  0  0  0  0  0  0
   27.6725  -27.1757  -16.7613 C   0  0  0  0  0  0  0  0  0  0  0  0
   26.7601  -27.9774  -16.2833 N   0  0  0  0  0  0  0  0  0  0  0  0
   27.2230  -26.0555  -17.5172 N   0  0  0  0  0  0  0  0  0  0  0  0
   28.1965  -25.0649  -17.9234 C   0  0  0  0  0  0  0  0  0  0  0  0
   28.7702  -24.3499  -16.7175 C   0  0  0  0  0  0  0  0  0  0  0  0
   27.8456  -23.2432  -16.2788 C   0  0  0  0  0  0  0  0  0  0  0  0
   28.2288  -21.9218  -16.8611 C   0  0  2  0  0  0  0  0  0  0  0  0
   29.5839  -21.5815  -16.4730 N   0  0  0  0  0  0  0  0  0  0  0  0
   27.3062  -20.8344  -16.4562 C   0  0  0  0  0  0  0  0  0  0  0  0
   27.5464  -20.0607  -15.4947 O   0  0  0  0  0  0  0  0  0  0  0  0
   25.7466  -27.7833  -16.4554 C   0  0  0  0  0  0  0  0  0  0  0  0
   26.4514  -17.3281  -19.7497 C   0  0  0  0  0  0  0  0  0  0  0  0
   26.5228  -18.0811  -18.4407 C   0  0  2  0  0  0  0  0  0  0  0  0
   25.1966  -18.6412  -18.0256 C   0  0  0  0  0  0  0  0  0  0  0  0
   24.0989  -17.6044  -18.0291 C   0  0  2  0  0  0  0  0  0  0  0  0
   25.1826  -19.5159  -16.8298 N   0  0  0  0  0  0  0  0  0  0  0  0
   26.0961  -20.6293  -17.1578 C   0  0  0  0  0  0  0  0  0  0  0  0
   23.9462  -20.0718  -16.3651 O   0  0  0  0  0  0  0  0  0  0  0  0
   23.3087  -20.8456  -17.1634 O   0  0  0  0  0  0  0  0  0  0  0  0
   21.7041  -19.1341  -12.8803 C   0  0  0  0  0  0  0  0  0  0  0  0
   21.7326  -20.4315  -13.3265 C   0  0  1  0  0  0  0  0  0  0  0  0
   22.0198  -20.4634  -14.8283 N   0  0  0  0  0  0  0  0  0  0  0  0
   23.3123  -19.8869  -15.1226 C   0  0  0  0  0  0  0  0  0  0  0  0
   20.9425  -19.7352  -15.5268 O   0  0  0  0  0  0  0  0  0  0  0  0
   19.6796  -20.2863  -15.5740 O   0  0  0  0  0  0  0  0  0  0  0  0
  2  3  2  0
  2  1  1  0
  4  2  1  0
  5  6  1  0
  5  4  1  0
  6  7  1  0
  7  8  1  0
  8  9  1  1
 10 11  2  0
 10  8  1  0
 13 14  1  0
 13 12  1  0
 14 16  1  0
 14 15  1  6
 16 17  1  1
 17 10  1  0
 18 16  1  0
 19 18  2  0
 21 20  1  0
 22 21  1  1
 22 23  1  0
 23 18  1  0
 24 22  1  0
 25 24  1  0
 26 24  2  0
M  END
$$$$
