RIS.pdb
     RDKit          3D

 26 25  0  0  1  0  0  0  0  0999 V2000
   17.5049  -16.1972  -16.9192 N   0  0  0  0  0  0  0  0  0  0  0  0
   17.3382  -15.8235  -18.2619 C   0  0  0  0  0  0  0  0  0  0  0  0
   16.6316  -16.5413  -19.0922 N   0  0  0  0  0  0  0  0  0  0  0  0
   17.9378  -14.6378  -18.7745 N   0  0  0  0  0  0  0  0  0  0  0  0
   18.7056  -13.8093  -17.8701 C   0  0  0  0  0  0  0  0  0  0  0  0
   19.9498  -14.5356  -17.4021 C   0  0  0  0  0  0  0  0  0  0  0  0
   20.7841  -13.6322  -16.5303 C   0  0  0  0  0  0  0  0  0  0  0  0
   21.3374  -12.4689  -17.2870 C   0  0  2  0  0  0  0  0  0  0  0  0
   22.3124  -12.9257  -18.2582 N   0  0  0  0  0  0  0  0  0  0  0  0
   21.9555  -11.4562  -16.3984 C   0  0  0  0  0  0  0  0  0  0  0  0
   21.3901  -11.0244  -15.3617 O   0  0  0  0  0  0  0  0  0  0  0  0
   16.4772  -16.2117  -20.0729 C   0  0  0  0  0  0  0  0  0  0  0  0
   27.2904  -11.7196  -15.7366 C   0  0  0  0  0  0  0  0  0  0  0  0
   25.8012  -11.5393  -15.5479 C   0  0  2  0  0  0  0  0  0  0  0  0
   25.3300  -10.1768  -15.9561 C   0  0  0  0  0  0  0  0  0  0  0  0
   26.1920   -9.0702  -15.3974 C   0  0  2  0  0  0  0  0  0  0  0  0
   23.8769   -9.9093  -15.8473 N   0  0  0  0  0  0  0  0  0  0  0  0
   23.2336  -10.9313  -16.6979 C   0  0  0  0  0  0  0  0  0  0  0  0
   23.3566   -8.6260  -16.2163 O   0  0  0  0  0  0  0  0  0  0  0  0
   23.6092   -8.2035  -17.3995 O   0  0  0  0  0  0  0  0  0  0  0  0
   19.9363   -6.7642  -15.2933 C   0  0  0  0  0  0  0  0  0  0  0  0
   20.7322   -6.4096  -16.3534 C   0  0  1  0  0  0  0  0  0  0  0  0
   22.2030   -6.4314  -15.9353 N   0  0  0  0  0  0  0  0  0  0  0  0
   22.5850   -7.7367  -15.4458 C   0  0  0  0  0  0  0  0  0  0  0  0
   22.4123   -5.3960  -14.9043 O   0  0  0  0  0  0  0  0  0  0  0  0
   22.2499   -4.0691  -15.2414 O   0  0  0  0  0  0  0  0  0  0  0  0
  2  3  2  0
  2  1  1  0
  4  2  1  0
  5  6  1  0
  5  4  1  0
  6  7  1  0
  7  8  1  0
  8  9  1  6
 10 11  2  0
 10  8  1  0
 13 14  1  0
 13 12  1  0
 14 16  1  0
 14 15  1  6
 16 17  1  1
 17 10  1  0
 18 16  1  0
 19 18  2  0
 21 20  1  0
 22 21  1  6
 22 23  1  0
 23 18  1  0
 24 22  1  0
 25 24  1  0
 26 24  2  0
M  END
$$$$
