RIS.pdb
     RDKit          3D

 26 25  0  0  1  0  0  0  0  0999 V2000
   29.7967  -18.1404  -19.2635 N   0  0  0  0  0  0  0  0  0  0  0  0
   28.7034  -19.0171  -19.1825 C   0  0  0  0  0  0  0  0  0  0  0  0
   28.5782  -20.0355  -19.9894 N   0  0  0  0  0  0  0  0  0  0  0  0
   27.6806  -18.8284  -18.2096 N   0  0  0  0  0  0  0  0  0  0  0  0
   27.7242  -17.6377  -17.3884 C   0  0  0  0  0  0  0  0  0  0  0  0
   28.0958  -17.9833  -15.9611 C   0  0  0  0  0  0  0  0  0  0  0  0
   27.0121  -18.8177  -15.3275 C   0  0  0  0  0  0  0  0  0  0  0  0
   27.5664  -19.9179  -14.4823 C   0  0  2  0  0  0  0  0  0  0  0  0
   28.3063  -20.8537  -15.3067 N   0  0  0  0  0  0  0  0  0  0  0  0
   26.5136  -20.6407  -13.7298 C   0  0  0  0  0  0  0  0  0  0  0  0
   26.0041  -21.7164  -14.1349 O   0  0  0  0  0  0  0  0  0  0  0  0
   27.7307  -20.6466  -19.9378 C   0  0  0  0  0  0  0  0  0  0  0  0
   27.0354  -20.7805   -8.5260 C   0  0  0  0  0  0  0  0  0  0  0  0
   26.6261  -21.2142   -9.9153 C   0  0  2  0  0  0  0  0  0  0  0  0
   25.3043  -20.6436  -10.3305 C   0  0  0  0  0  0  0  0  0  0  0  0
   24.1877  -21.0096   -9.3823 C   0  0  2  0  0  0  0  0  0  0  0  0
   24.9362  -20.7752  -11.7595 N   0  0  0  0  0  0  0  0  0  0  0  0
   26.0379  -20.1284  -12.5009 C   0  0  0  0  0  0  0  0  0  0  0  0
   23.6973  -20.2312  -12.2317 O   0  0  0  0  0  0  0  0  0  0  0  0
   23.7126  -19.0330  -12.6858 O   0  0  0  0  0  0  0  0  0  0  0  0
   21.2704  -20.8958  -15.7294 C   0  0  0  0  0  0  0  0  0  0  0  0
   22.1405  -21.1163  -14.6915 C   0  0  2  0  0  0  0  0  0  0  0  0
   21.5190  -20.6435  -13.3766 N   0  0  0  0  0  0  0  0  0  0  0  0
   22.4293  -20.8399  -12.2712 C   0  0  0  0  0  0  0  0  0  0  0  0
   20.2581  -21.3805  -13.1629 O   0  0  0  0  0  0  0  0  0  0  0  0
   19.0731  -20.8252  -13.5968 O   0  0  0  0  0  0  0  0  0  0  0  0
  2  3  2  0
  2  1  1  0
  4  2  1  0
  5  6  1  0
  5  4  1  0
  6  7  1  0
  7  8  1  0
  8  9  1  6
 10 11  2  0
 10  8  1  0
 13 14  1  0
 13 12  1  0
 14 16  1  0
 14 15  1  6
 16 17  1  6
 17 10  1  0
 18 16  1  0
 19 18  2  0
 21 20  1  0
 22 21  1  6
 22 23  1  0
 23 18  1  0
 24 22  1  0
 25 24  1  0
 26 24  2  0
M  END
$$$$
