RIS.pdb
     RDKit          3D

 26 25  0  0  1  0  0  0  0  0999 V2000
   26.8258  -19.4125  -18.4438 N   0  0  0  0  0  0  0  0  0  0  0  0
   25.5410  -19.7095  -17.9624 C   0  0  0  0  0  0  0  0  0  0  0  0
   24.7532  -20.5478  -18.5791 N   0  0  0  0  0  0  0  0  0  0  0  0
   25.0434  -19.1032  -16.7737 N   0  0  0  0  0  0  0  0  0  0  0  0
   25.8969  -18.1721  -16.0676 C   0  0  0  0  0  0  0  0  0  0  0  0
   26.8663  -18.9095  -15.1669 C   0  0  0  0  0  0  0  0  0  0  0  0
   26.1149  -19.6741  -14.1072 C   0  0  0  0  0  0  0  0  0  0  0  0
   27.0259  -20.2541  -13.0749 C   0  0  2  0  0  0  0  0  0  0  0  0
   27.9535  -21.1806  -13.6944 N   0  0  0  0  0  0  0  0  0  0  0  0
   26.2878  -20.9398  -11.9875 C   0  0  0  0  0  0  0  0  0  0  0  0
   25.8685  -22.1207  -12.0889 O   0  0  0  0  0  0  0  0  0  0  0  0
   23.7938  -20.7383  -18.2080 C   0  0  0  0  0  0  0  0  0  0  0  0
   27.5297  -19.4538   -7.0061 C   0  0  0  0  0  0  0  0  0  0  0  0
   27.1234  -20.3047   -8.1879 C   0  0  2  0  0  0  0  0  0  0  0  0
   25.6495  -20.2552   -8.4533 C   0  0  0  0  0  0  0  0  0  0  0  0
   24.8269  -20.6480   -7.2496 C   0  0  2  0  0  0  0  0  0  0  0  0
   25.1754  -20.8614   -9.7193 N   0  0  0  0  0  0  0  0  0  0  0  0
   26.0260  -20.2683  -10.7712 C   0  0  0  0  0  0  0  0  0  0  0  0
   23.8056  -20.7139  -10.1136 O   0  0  0  0  0  0  0  0  0  0  0  0
   23.4328  -19.5632  -10.5370 O   0  0  0  0  0  0  0  0  0  0  0  0
   21.3374  -21.1892  -12.9104 C   0  0  0  0  0  0  0  0  0  0  0  0
   21.1205  -22.0573  -11.8700 C   0  0  2  0  0  0  0  0  0  0  0  0
   21.4367  -21.3716  -10.5402 N   0  0  0  0  0  0  0  0  0  0  0  0
   22.7804  -21.6776  -10.1041 C   0  0  0  0  0  0  0  0  0  0  0  0
   20.4422  -21.8074   -9.5403 O   0  0  0  0  0  0  0  0  0  0  0  0
   19.1088  -21.5287   -9.7527 O   0  0  0  0  0  0  0  0  0  0  0  0
  2  3  2  0
  2  1  1  0
  4  2  1  0
  5  6  1  0
  5  4  1  0
  6  7  1  0
  7  8  1  0
  8  9  1  6
 10 11  2  0
 10  8  1  0
 13 14  1  0
 13 12  1  0
 14 16  1  0
 14 15  1  6
 16 17  1  6
 17 10  1  0
 18 16  1  0
 19 18  2  0
 21 20  1  0
 22 21  1  6
 22 23  1  0
 23 18  1  0
 24 22  1  0
 25 24  1  0
 26 24  2  0
M  END
$$$$
