RIS.pdb
     RDKit          3D

 26 25  0  0  1  0  0  0  0  0999 V2000
   26.4753  -17.1090  -18.9957 N   0  0  0  0  0  0  0  0  0  0  0  0
   25.4686  -16.1361  -18.8934 C   0  0  0  0  0  0  0  0  0  0  0  0
   25.5355  -15.0071  -19.5451 N   0  0  0  0  0  0  0  0  0  0  0  0
   24.3265  -16.3443  -18.0685 N   0  0  0  0  0  0  0  0  0  0  0  0
   24.2535  -17.5620  -17.2901 C   0  0  0  0  0  0  0  0  0  0  0  0
   23.7667  -18.7157  -18.1425 C   0  0  0  0  0  0  0  0  0  0  0  0
   23.6267  -19.9607  -17.3043 C   0  0  0  0  0  0  0  0  0  0  0  0
   24.7355  -20.1031  -16.3132 C   0  0  2  0  0  0  0  0  0  0  0  0
   25.9186  -20.6325  -16.9633 N   0  0  0  0  0  0  0  0  0  0  0  0
   24.3656  -20.9694  -15.1686 C   0  0  0  0  0  0  0  0  0  0  0  0
   24.4963  -22.2197  -15.1912 O   0  0  0  0  0  0  0  0  0  0  0  0
   24.7956  -14.2793  -19.4142 C   0  0  0  0  0  0  0  0  0  0  0  0
   26.1163  -20.6287  -10.3350 C   0  0  0  0  0  0  0  0  0  0  0  0
   25.4766  -21.1067  -11.6188 C   0  0  2  0  0  0  0  0  0  0  0  0
   24.0102  -20.8047  -11.6785 C   0  0  0  0  0  0  0  0  0  0  0  0
   23.2912  -21.1500  -10.3965 C   0  0  2  0  0  0  0  0  0  0  0  0
   23.2864  -21.2327  -12.8983 N   0  0  0  0  0  0  0  0  0  0  0  0
   23.8408  -20.4005  -13.9855 C   0  0  0  0  0  0  0  0  0  0  0  0
   21.8571  -21.1441  -12.9497 O   0  0  0  0  0  0  0  0  0  0  0  0
   21.3329  -19.9788  -12.8515 O   0  0  0  0  0  0  0  0  0  0  0  0
   19.0359  -24.2513  -13.3506 C   0  0  0  0  0  0  0  0  0  0  0  0
   18.7771  -23.0373  -13.9357 C   0  0  1  0  0  0  0  0  0  0  0  0
   19.4974  -21.9239  -13.1741 N   0  0  0  0  0  0  0  0  0  0  0  0
   20.9178  -22.1813  -13.0976 C   0  0  0  0  0  0  0  0  0  0  0  0
   18.9041  -21.8182  -11.8268 O   0  0  0  0  0  0  0  0  0  0  0  0
   17.5977  -21.3965  -11.6987 O   0  0  0  0  0  0  0  0  0  0  0  0
  2  3  2  0
  2  1  1  0
  4  2  1  0
  5  6  1  0
  5  4  1  0
  6  7  1  0
  7  8  1  0
  8  9  1  6
 10 11  2  0
 10  8  1  0
 13 14  1  0
 13 12  1  0
 14 16  1  0
 14 15  1  6
 16 17  1  6
 17 10  1  0
 18 16  1  0
 19 18  2  0
 21 20  1  0
 22 21  1  6
 22 23  1  0
 23 18  1  0
 24 22  1  0
 25 24  1  0
 26 24  2  0
M  END
$$$$
