RIS.pdb
     RDKit          3D

 26 25  0  0  1  0  0  0  0  0999 V2000
   31.7650  -24.3254  -15.6013 N   0  0  0  0  0  0  0  0  0  0  0  0
   31.0082  -24.1518  -16.7708 C   0  0  0  0  0  0  0  0  0  0  0  0
   30.8300  -25.1232  -17.6243 N   0  0  0  0  0  0  0  0  0  0  0  0
   30.4010  -22.8998  -17.0740 N   0  0  0  0  0  0  0  0  0  0  0  0
   30.3028  -21.9107  -16.0224 C   0  0  0  0  0  0  0  0  0  0  0  0
   28.9340  -21.9499  -15.3747 C   0  0  0  0  0  0  0  0  0  0  0  0
   28.7706  -20.7868  -14.4298 C   0  0  0  0  0  0  0  0  0  0  0  0
   29.1189  -21.1479  -13.0225 C   0  0  2  0  0  0  0  0  0  0  0  0
   30.0102  -22.2915  -13.0086 N   0  0  0  0  0  0  0  0  0  0  0  0
   27.9215  -21.4389  -12.1986 C   0  0  0  0  0  0  0  0  0  0  0  0
   27.3691  -22.5681  -12.1755 O   0  0  0  0  0  0  0  0  0  0  0  0
   30.2907  -24.9573  -18.5051 C   0  0  0  0  0  0  0  0  0  0  0  0
   27.9852  -19.7261   -7.3593 C   0  0  0  0  0  0  0  0  0  0  0  0
   27.6638  -20.5401   -8.5922 C   0  0  2  0  0  0  0  0  0  0  0  0
   26.4059  -20.0875   -9.2690 C   0  0  0  0  0  0  0  0  0  0  0  0
   25.2129  -20.0891   -8.3435 C   0  0  2  0  0  0  0  0  0  0  0  0
   26.1206  -20.6593  -10.6057 N   0  0  0  0  0  0  0  0  0  0  0  0
   27.3493  -20.4283  -11.3923 C   0  0  0  0  0  0  0  0  0  0  0  0
   25.0045  -20.1789  -11.3653 O   0  0  0  0  0  0  0  0  0  0  0  0
   25.2541  -19.4233  -12.3699 O   0  0  0  0  0  0  0  0  0  0  0  0
   22.1581  -21.7476  -14.2254 C   0  0  0  0  0  0  0  0  0  0  0  0
   23.0710  -21.6631  -13.2044 C   0  0  1  0  0  0  0  0  0  0  0  0
   22.7010  -20.5157  -12.2636 N   0  0  0  0  0  0  0  0  0  0  0  0
   23.6338  -20.4244  -11.1631 C   0  0  0  0  0  0  0  0  0  0  0  0
   21.3251  -20.7347  -11.7761 O   0  0  0  0  0  0  0  0  0  0  0  0
   20.2672  -20.2210  -12.4956 O   0  0  0  0  0  0  0  0  0  0  0  0
  2  3  2  0
  2  1  1  0
  4  2  1  0
  5  6  1  0
  5  4  1  0
  6  7  1  0
  7  8  1  0
  8  9  1  6
 10 11  2  0
 10  8  1  0
 13 14  1  0
 13 12  1  0
 14 16  1  0
 14 15  1  6
 16 17  1  6
 17 10  1  0
 18 16  1  0
 19 18  2  0
 21 20  1  0
 22 21  1  6
 22 23  1  0
 23 18  1  0
 24 22  1  0
 25 24  1  0
 26 24  2  0
M  END
$$$$
