QYV.pdb
     RDKit          3D

 29 29  0  0  1  0  0  0  0  0999 V2000
   13.6283  -16.7434   17.2911 N   0  0  0  0  0  0  0  0  0  0  0  0
   12.8573  -17.7570   17.8999 C   0  0  0  0  0  0  0  0  0  0  0  0
   13.3748  -18.9183   18.0448 O   0  0  0  0  0  0  0  0  0  0  0  0
   11.4863  -17.5592   18.3838 C   0  0  0  0  0  0  0  0  0  0  0  0
   11.3533  -16.5927   19.5216 C   0  0  0  0  0  0  0  0  0  0  0  0
   11.0942  -17.3266   20.7925 C   0  0  2  0  0  0  0  0  0  0  0  0
   10.0107  -18.2931   20.6592 N   0  0  0  0  0  0  0  0  0  0  0  0
   10.7250  -16.3770   21.9055 C   0  0  0  0  0  0  0  0  0  0  0  0
   11.5078  -15.4633   22.2284 O   0  0  0  0  0  0  0  0  0  0  0  0
    5.9548  -11.4111   27.3726 O   0  0  0  0  0  0  0  0  0  0  0  0
    6.3709  -12.3987   26.4728 C   0  0  0  0  0  0  0  0  0  0  0  0
    7.0591  -12.0736   25.3264 C   0  0  0  0  0  0  0  0  0  0  0  0
    7.4637  -13.0553   24.4472 C   0  0  0  0  0  0  0  0  0  0  0  0
    7.1949  -14.3976   24.6826 C   0  0  0  0  0  0  0  0  0  0  0  0
    7.6407  -15.4028   23.7234 C   0  0  0  0  0  0  0  0  0  0  0  0
    9.1310  -15.6674   23.7419 C   0  0  2  0  0  0  0  0  0  0  0  0
    9.5005  -16.4897   22.6077 N   0  0  0  0  0  0  0  0  0  0  0  0
    9.5827  -16.2653   25.0212 C   0  0  0  0  0  0  0  0  0  0  0  0
    9.7029  -17.5104   25.0964 O   0  0  0  0  0  0  0  0  0  0  0  0
    6.5087  -14.7089   25.8281 C   0  0  0  0  0  0  0  0  0  0  0  0
    6.0885  -13.7378   26.7324 C   0  0  0  0  0  0  0  0  0  0  0  0
   11.4628  -13.7554   27.8268 C   0  0  0  0  0  0  0  0  0  0  0  0
   10.7566  -14.9802   28.3658 C   0  0  1  0  0  0  0  0  0  0  0  0
    9.3931  -14.5420   28.8530 C   0  0  0  0  0  0  0  0  0  0  0  0
   10.5612  -16.0307   27.3077 C   0  0  2  0  0  0  0  0  0  0  0  0
    9.8764  -15.4788   26.1408 N   0  0  0  0  0  0  0  0  0  0  0  0
    9.6974  -17.0967   27.8630 C   0  0  0  0  0  0  0  0  0  0  0  0
    8.5293  -17.2274   27.4460 O   0  0  0  0  0  0  0  0  0  0  0  0
   10.1767  -17.9450   28.8378 O   0  0  0  0  0  0  0  0  0  0  0  0
  1  2  1  0
  2  3  2  0
  2  4  1  0
  4  5  1  0
  6  5  1  0
  6  7  1  6
  8  6  1  0
  8  9  2  0
 10 11  1  0
 11 12  2  0
 12 13  1  0
 14 13  2  0
 14 15  1  0
 16 15  1  1
 16 17  1  0
 17  8  1  0
 18 16  1  0
 18 26  1  0
 19 18  2  0
 20 14  1  0
 21 20  2  0
 21 11  1  0
 23 22  1  6
 23 25  1  0
 24 23  1  0
 25 26  1  6
 25 27  1  0
 27 28  2  0
 27 29  1  0
M  END
$$$$
