QYV.pdb
     RDKit          3D

 29 29  0  0  1  0  0  0  0  0999 V2000
   11.1156  -19.7933   17.4681 N   0  0  0  0  0  0  0  0  0  0  0  0
   11.1952  -18.3866   17.5537 C   0  0  0  0  0  0  0  0  0  0  0  0
   10.4242  -17.6821   16.8143 O   0  0  0  0  0  0  0  0  0  0  0  0
   12.1150  -17.6748   18.4484 C   0  0  0  0  0  0  0  0  0  0  0  0
   11.4572  -16.7179   19.3961 C   0  0  0  0  0  0  0  0  0  0  0  0
   11.4017  -17.3053   20.7646 C   0  0  2  0  0  0  0  0  0  0  0  0
   10.5237  -18.4675   20.8298 N   0  0  0  0  0  0  0  0  0  0  0  0
   10.9020  -16.2982   21.7709 C   0  0  0  0  0  0  0  0  0  0  0  0
   11.5419  -15.2480   21.9698 O   0  0  0  0  0  0  0  0  0  0  0  0
    5.5062  -11.8085   27.1650 O   0  0  0  0  0  0  0  0  0  0  0  0
    6.0578  -12.7297   26.2677 C   0  0  0  0  0  0  0  0  0  0  0  0
    5.8596  -14.0825   26.4237 C   0  0  0  0  0  0  0  0  0  0  0  0
    6.4082  -14.9806   25.5333 C   0  0  0  0  0  0  0  0  0  0  0  0
    7.1748  -14.5585   24.4547 C   0  0  0  0  0  0  0  0  0  0  0  0
    7.7377  -15.5447   23.5382 C   0  0  0  0  0  0  0  0  0  0  0  0
    9.2479  -15.6407   23.5733 C   0  0  2  0  0  0  0  0  0  0  0  0
    9.7123  -16.5080   22.5096 N   0  0  0  0  0  0  0  0  0  0  0  0
    9.7556  -16.0776   24.8960 C   0  0  0  0  0  0  0  0  0  0  0  0
   10.1312  -17.2649   25.0363 O   0  0  0  0  0  0  0  0  0  0  0  0
    7.3652  -13.2084   24.3098 C   0  0  0  0  0  0  0  0  0  0  0  0
    6.8229  -12.2802   25.1940 C   0  0  0  0  0  0  0  0  0  0  0  0
   10.9318  -14.8985   29.6011 C   0  0  0  0  0  0  0  0  0  0  0  0
   10.2326  -14.5490   28.3056 C   0  0  1  0  0  0  0  0  0  0  0  0
   10.8256  -13.2507   27.8041 C   0  0  0  0  0  0  0  0  0  0  0  0
   10.4423  -15.5990   27.2497 C   0  0  2  0  0  0  0  0  0  0  0  0
    9.8253  -15.2026   25.9859 N   0  0  0  0  0  0  0  0  0  0  0  0
    9.7783  -16.8453   27.6932 C   0  0  0  0  0  0  0  0  0  0  0  0
    8.5938  -17.0646   27.3705 O   0  0  0  0  0  0  0  0  0  0  0  0
   10.4617  -17.7641   28.4603 O   0  0  0  0  0  0  0  0  0  0  0  0
  1  2  1  0
  2  3  2  0
  2  4  1  0
  4  5  1  0
  6  5  1  0
  6  7  1  6
  8  6  1  0
  8  9  2  0
 10 11  1  0
 11 12  2  0
 12 13  1  0
 14 13  2  0
 14 15  1  0
 16 15  1  1
 16 17  1  0
 17  8  1  0
 18 16  1  0
 18 26  1  0
 19 18  2  0
 20 14  1  0
 21 20  2  0
 21 11  1  0
 23 22  1  1
 23 25  1  0
 24 23  1  0
 25 26  1  6
 25 27  1  0
 27 28  2  0
 27 29  1  0
M  END
$$$$
