QYV.pdb
     RDKit          3D

 29 29  0  0  1  0  0  0  0  0999 V2000
   12.7544  -21.6584   22.8403 N   0  0  0  0  0  0  0  0  0  0  0  0
   12.3552  -21.5984   21.4876 C   0  0  0  0  0  0  0  0  0  0  0  0
   12.5701  -22.6134   20.7387 O   0  0  0  0  0  0  0  0  0  0  0  0
   11.7008  -20.4334   20.8814 C   0  0  0  0  0  0  0  0  0  0  0  0
   11.4567  -19.2896   21.8187 C   0  0  0  0  0  0  0  0  0  0  0  0
   10.6986  -18.2095   21.1262 C   0  0  2  0  0  0  0  0  0  0  0  0
   11.3750  -17.7487   19.9196 N   0  0  0  0  0  0  0  0  0  0  0  0
   10.5060  -17.0143   22.0267 C   0  0  0  0  0  0  0  0  0  0  0  0
   11.3453  -16.0936   22.0260 O   0  0  0  0  0  0  0  0  0  0  0  0
    6.8335  -12.5751   18.8225 O   0  0  0  0  0  0  0  0  0  0  0  0
    7.0705  -13.2405   20.0304 C   0  0  0  0  0  0  0  0  0  0  0  0
    7.7912  -12.6470   21.0413 C   0  0  0  0  0  0  0  0  0  0  0  0
    8.0184  -13.3126   22.2270 C   0  0  0  0  0  0  0  0  0  0  0  0
    7.5332  -14.5957   22.4448 C   0  0  0  0  0  0  0  0  0  0  0  0
    7.7996  -15.2631   23.7148 C   0  0  0  0  0  0  0  0  0  0  0  0
    9.1980  -15.8282   23.8431 C   0  0  2  0  0  0  0  0  0  0  0  0
    9.3869  -16.9001   22.8868 N   0  0  0  0  0  0  0  0  0  0  0  0
    9.5049  -16.2679   25.2253 C   0  0  0  0  0  0  0  0  0  0  0  0
    9.5475  -17.4957   25.4727 O   0  0  0  0  0  0  0  0  0  0  0  0
    6.8166  -15.1765   21.4303 C   0  0  0  0  0  0  0  0  0  0  0  0
    6.5727  -14.5271   20.2236 C   0  0  0  0  0  0  0  0  0  0  0  0
   10.8221  -13.3751   28.0184 C   0  0  0  0  0  0  0  0  0  0  0  0
   10.2183  -14.6565   28.5503 C   0  0  1  0  0  0  0  0  0  0  0  0
    8.7613  -14.3827   28.8515 C   0  0  0  0  0  0  0  0  0  0  0  0
   10.2876  -15.7730   27.5454 C   0  0  2  0  0  0  0  0  0  0  0  0
    9.7467  -15.3517   26.2551 N   0  0  0  0  0  0  0  0  0  0  0  0
    9.4484  -16.8910   28.0319 C   0  0  0  0  0  0  0  0  0  0  0  0
    8.3674  -17.1464   27.4648 O   0  0  0  0  0  0  0  0  0  0  0  0
    9.8549  -17.6506   29.1078 O   0  0  0  0  0  0  0  0  0  0  0  0
  1  2  1  0
  2  3  2  0
  2  4  1  0
  4  5  1  0
  6  5  1  0
  6  7  1  6
  8  6  1  0
  8  9  2  0
 10 11  1  0
 11 12  2  0
 12 13  1  0
 14 13  2  0
 14 15  1  0
 16 15  1  1
 16 17  1  0
 17  8  1  0
 18 16  1  0
 18 26  1  0
 19 18  2  0
 20 14  1  0
 21 20  2  0
 21 11  1  0
 23 22  1  6
 23 25  1  0
 24 23  1  0
 25 26  1  6
 25 27  1  0
 27 28  2  0
 27 29  1  0
M  END
$$$$
