QYV.pdb
     RDKit          3D

 29 29  0  0  1  0  0  0  0  0999 V2000
    2.1598  -18.3204   21.7403 N   0  0  0  0  0  0  0  0  0  0  0  0
    3.0952  -18.8494   20.8249 C   0  0  0  0  0  0  0  0  0  0  0  0
    3.1891  -18.3154   19.6658 O   0  0  0  0  0  0  0  0  0  0  0  0
    3.9770  -19.9834   21.1237 C   0  0  0  0  0  0  0  0  0  0  0  0
    5.2675  -19.6184   21.7929 C   0  0  0  0  0  0  0  0  0  0  0  0
    6.0635  -18.7131   20.9167 C   0  0  2  0  0  0  0  0  0  0  0  0
    6.7595  -19.4397   19.8616 N   0  0  0  0  0  0  0  0  0  0  0  0
    7.1000  -17.9571   21.7111 C   0  0  0  0  0  0  0  0  0  0  0  0
    8.2523  -18.4166   21.8256 O   0  0  0  0  0  0  0  0  0  0  0  0
    8.1245  -12.2708   17.9491 O   0  0  0  0  0  0  0  0  0  0  0  0
    7.9590  -12.8248   19.2233 C   0  0  0  0  0  0  0  0  0  0  0  0
    6.7393  -13.3100   19.6363 C   0  0  0  0  0  0  0  0  0  0  0  0
    6.5883  -13.8535   20.8941 C   0  0  0  0  0  0  0  0  0  0  0  0
    7.6514  -13.9315   21.7846 C   0  0  0  0  0  0  0  0  0  0  0  0
    7.4452  -14.5131   23.1069 C   0  0  0  0  0  0  0  0  0  0  0  0
    7.7290  -15.9978   23.1882 C   0  0  2  0  0  0  0  0  0  0  0  0
    6.8045  -16.7242   22.3414 N   0  0  0  0  0  0  0  0  0  0  0  0
    7.7053  -16.5018   24.5823 C   0  0  0  0  0  0  0  0  0  0  0  0
    6.6497  -16.3868   25.2479 O   0  0  0  0  0  0  0  0  0  0  0  0
    8.8615  -13.4449   21.3617 C   0  0  0  0  0  0  0  0  0  0  0  0
    9.0415  -12.8912   20.0975 C   0  0  0  0  0  0  0  0  0  0  0  0
    7.5183  -19.6763   25.7204 C   0  0  0  0  0  0  0  0  0  0  0  0
    8.7303  -19.1674   26.4698 C   0  0  1  0  0  0  0  0  0  0  0  0
    9.9586  -19.6532   25.7323 C   0  0  0  0  0  0  0  0  0  0  0  0
    8.7753  -17.6650   26.5169 C   0  0  2  0  0  0  0  0  0  0  0  0
    8.8257  -17.0993   25.1706 N   0  0  0  0  0  0  0  0  0  0  0  0
   10.0159  -17.2573   27.2136 C   0  0  0  0  0  0  0  0  0  0  0  0
   10.9336  -16.7066   26.5732 O   0  0  0  0  0  0  0  0  0  0  0  0
   10.1624  -17.4829   28.5654 O   0  0  0  0  0  0  0  0  0  0  0  0
  1  2  1  0
  2  3  2  0
  2  4  1  0
  4  5  1  0
  6  5  1  0
  6  7  1  6
  8  6  1  0
  8  9  2  0
 10 11  1  0
 11 12  2  0
 12 13  1  0
 14 13  2  0
 14 15  1  0
 16 15  1  1
 16 17  1  0
 17  8  1  0
 18 16  1  0
 18 26  1  0
 19 18  2  0
 20 14  1  0
 21 20  2  0
 21 11  1  0
 23 22  1  6
 23 25  1  0
 24 23  1  0
 25 26  1  6
 25 27  1  0
 27 28  2  0
 27 29  1  0
M  END
$$$$
