QYV.pdb
     RDKit          3D

 29 29  0  0  1  0  0  0  0  0999 V2000
    8.6694  -18.9851   17.4883 N   0  0  0  0  0  0  0  0  0  0  0  0
    7.6288  -19.1352   18.4302 C   0  0  0  0  0  0  0  0  0  0  0  0
    6.4383  -19.3307   18.0036 O   0  0  0  0  0  0  0  0  0  0  0  0
    7.8298  -19.0828   19.8827 C   0  0  0  0  0  0  0  0  0  0  0  0
    9.2365  -18.7970   20.3139 C   0  0  0  0  0  0  0  0  0  0  0  0
    9.3269  -18.7876   21.8014 C   0  0  2  0  0  0  0  0  0  0  0  0
    8.0257  -18.9698   22.4333 N   0  0  0  0  0  0  0  0  0  0  0  0
    9.9013  -17.4864   22.3051 C   0  0  0  0  0  0  0  0  0  0  0  0
   11.1331  -17.3633   22.4447 O   0  0  0  0  0  0  0  0  0  0  0  0
    7.3161  -13.3473   17.1924 O   0  0  0  0  0  0  0  0  0  0  0  0
    7.6161  -13.5135   18.5490 C   0  0  0  0  0  0  0  0  0  0  0  0
    6.6884  -14.0267   19.4263 C   0  0  0  0  0  0  0  0  0  0  0  0
    6.9955  -14.1857   20.7607 C   0  0  0  0  0  0  0  0  0  0  0  0
    8.2414  -13.8375   21.2663 C   0  0  0  0  0  0  0  0  0  0  0  0
    8.5221  -14.0213   22.6864 C   0  0  0  0  0  0  0  0  0  0  0  0
    9.5733  -15.0686   22.9856 C   0  0  2  0  0  0  0  0  0  0  0  0
    9.0765  -16.3824   22.6302 N   0  0  0  0  0  0  0  0  0  0  0  0
   10.0336  -15.0205   24.3941 C   0  0  0  0  0  0  0  0  0  0  0  0
   11.2241  -14.7079   24.6298 O   0  0  0  0  0  0  0  0  0  0  0  0
    9.1573  -13.3274   20.3826 C   0  0  0  0  0  0  0  0  0  0  0  0
    8.8734  -13.1564   19.0307 C   0  0  0  0  0  0  0  0  0  0  0  0
    9.0045  -13.6071   28.8409 C   0  0  0  0  0  0  0  0  0  0  0  0
    8.5593  -14.0647   27.4691 C   0  0  1  0  0  0  0  0  0  0  0  0
    8.4627  -12.8380   26.5891 C   0  0  0  0  0  0  0  0  0  0  0  0
    9.5435  -15.0142   26.8436 C   0  0  2  0  0  0  0  0  0  0  0  0
    9.1772  -15.3139   25.4612 N   0  0  0  0  0  0  0  0  0  0  0  0
    9.5053  -16.2881   27.5964 C   0  0  0  0  0  0  0  0  0  0  0  0
    8.9552  -17.2882   27.0939 O   0  0  0  0  0  0  0  0  0  0  0  0
   10.0740  -16.3747   28.8489 O   0  0  0  0  0  0  0  0  0  0  0  0
  1  2  1  0
  2  3  2  0
  2  4  1  0
  4  5  1  0
  6  5  1  0
  6  7  1  1
  8  6  1  0
  8  9  2  0
 10 11  1  0
 11 12  2  0
 12 13  1  0
 14 13  2  0
 14 15  1  0
 16 15  1  1
 16 17  1  0
 17  8  1  0
 18 16  1  0
 18 26  1  0
 19 18  2  0
 20 14  1  0
 21 20  2  0
 21 11  1  0
 23 22  1  1
 23 25  1  0
 24 23  1  0
 25 26  1  6
 25 27  1  0
 27 28  2  0
 27 29  1  0
M  END
$$$$
