QYV.pdb
     RDKit          3D

 29 29  0  0  1  0  0  0  0  0999 V2000
    7.8610  -12.9112   16.4815 N   0  0  0  0  0  0  0  0  0  0  0  0
    8.1921  -14.2098   16.0382 C   0  0  0  0  0  0  0  0  0  0  0  0
    7.8429  -14.5635   14.8590 O   0  0  0  0  0  0  0  0  0  0  0  0
    8.9209  -15.1886   16.8530 C   0  0  0  0  0  0  0  0  0  0  0  0
    9.3196  -14.7030   18.2137 C   0  0  0  0  0  0  0  0  0  0  0  0
    9.3486  -15.8393   19.1775 C   0  0  2  0  0  0  0  0  0  0  0  0
    8.1341  -16.6437   19.1172 N   0  0  0  0  0  0  0  0  0  0  0  0
    9.5012  -15.3481   20.5960 C   0  0  0  0  0  0  0  0  0  0  0  0
   10.6190  -14.9892   21.0128 O   0  0  0  0  0  0  0  0  0  0  0  0
    7.1235  -12.3382   28.6359 O   0  0  0  0  0  0  0  0  0  0  0  0
    7.1724  -12.7386   27.2961 C   0  0  0  0  0  0  0  0  0  0  0  0
    6.4568  -13.8265   26.8511 C   0  0  0  0  0  0  0  0  0  0  0  0
    6.5129  -14.2117   25.5286 C   0  0  0  0  0  0  0  0  0  0  0  0
    7.2865  -13.5229   24.6032 C   0  0  0  0  0  0  0  0  0  0  0  0
    7.3175  -13.9673   23.2137 C   0  0  0  0  0  0  0  0  0  0  0  0
    8.4933  -14.8554   22.8672 C   0  0  2  0  0  0  0  0  0  0  0  0
    8.4011  -15.2796   21.4848 N   0  0  0  0  0  0  0  0  0  0  0  0
    8.6182  -16.0115   23.7869 C   0  0  0  0  0  0  0  0  0  0  0  0
    7.6931  -16.8561   23.8238 O   0  0  0  0  0  0  0  0  0  0  0  0
    7.9948  -12.4407   25.0585 C   0  0  0  0  0  0  0  0  0  0  0  0
    7.9561  -12.0305   26.3880 C   0  0  0  0  0  0  0  0  0  0  0  0
   10.7349  -18.7973   23.6262 C   0  0  0  0  0  0  0  0  0  0  0  0
   10.9965  -18.2389   25.0079 C   0  0  1  0  0  0  0  0  0  0  0  0
   12.2595  -17.4096   24.9321 C   0  0  0  0  0  0  0  0  0  0  0  0
    9.8790  -17.3493   25.4783 C   0  0  2  0  0  0  0  0  0  0  0  0
    9.7366  -16.1825   24.6103 N   0  0  0  0  0  0  0  0  0  0  0  0
   10.2157  -16.8540   26.8319 C   0  0  0  0  0  0  0  0  0  0  0  0
   10.2338  -17.6466   27.7947 O   0  0  0  0  0  0  0  0  0  0  0  0
   10.5091  -15.5225   27.0338 O   0  0  0  0  0  0  0  0  0  0  0  0
  1  2  1  0
  2  3  2  0
  2  4  1  0
  4  5  1  0
  6  5  1  0
  6  7  1  1
  8  6  1  0
  8  9  2  0
 10 11  1  0
 11 12  2  0
 12 13  1  0
 14 13  2  0
 14 15  1  0
 16 15  1  1
 16 17  1  0
 17  8  1  0
 18 16  1  0
 18 26  1  0
 19 18  2  0
 20 14  1  0
 21 20  2  0
 21 11  1  0
 23 22  1  6
 23 25  1  0
 24 23  1  0
 25 26  1  6
 25 27  1  0
 27 28  2  0
 27 29  1  0
M  END
$$$$
