QYV.pdb
     RDKit          3D

 29 29  0  0  1  0  0  0  0  0999 V2000
   10.1709  -16.2695   15.7533 N   0  0  0  0  0  0  0  0  0  0  0  0
    8.9403  -16.2666   16.4448 C   0  0  0  0  0  0  0  0  0  0  0  0
    7.8575  -16.3719   15.7711 O   0  0  0  0  0  0  0  0  0  0  0  0
    8.8245  -16.1514   17.9029 C   0  0  0  0  0  0  0  0  0  0  0  0
   10.1299  -16.1401   18.6394 C   0  0  0  0  0  0  0  0  0  0  0  0
   10.0339  -16.9759   19.8695 C   0  0  2  0  0  0  0  0  0  0  0  0
    8.8874  -17.8759   19.8358 N   0  0  0  0  0  0  0  0  0  0  0  0
    9.9046  -16.1175   21.1038 C   0  0  0  0  0  0  0  0  0  0  0  0
   10.7875  -15.2814   21.3747 O   0  0  0  0  0  0  0  0  0  0  0  0
    6.5726  -11.3401   27.6725 O   0  0  0  0  0  0  0  0  0  0  0  0
    6.7533  -12.1932   26.5782 C   0  0  0  0  0  0  0  0  0  0  0  0
    7.5887  -11.8521   25.5393 C   0  0  0  0  0  0  0  0  0  0  0  0
    7.7588  -12.7008   24.4663 C   0  0  0  0  0  0  0  0  0  0  0  0
    7.0996  -13.9213   24.3934 C   0  0  0  0  0  0  0  0  0  0  0  0
    7.3081  -14.7872   23.2376 C   0  0  0  0  0  0  0  0  0  0  0  0
    8.6519  -15.4836   23.2122 C   0  0  2  0  0  0  0  0  0  0  0  0
    8.7976  -16.2306   21.9792 N   0  0  0  0  0  0  0  0  0  0  0  0
    8.8650  -16.3435   24.4010 C   0  0  0  0  0  0  0  0  0  0  0  0
    8.2920  -16.0425   25.4742 O   0  0  0  0  0  0  0  0  0  0  0  0
    6.2702  -14.2500   25.4345 C   0  0  0  0  0  0  0  0  0  0  0  0
    6.0804  -13.4119   26.5295 C   0  0  0  0  0  0  0  0  0  0  0  0
    9.6231  -20.4139   24.1981 C   0  0  0  0  0  0  0  0  0  0  0  0
   10.5072  -19.6370   25.1490 C   0  0  1  0  0  0  0  0  0  0  0  0
   11.8146  -19.3670   24.4374 C   0  0  0  0  0  0  0  0  0  0  0  0
    9.9002  -18.3156   25.5321 C   0  0  2  0  0  0  0  0  0  0  0  0
    9.6853  -17.4763   24.3555 N   0  0  0  0  0  0  0  0  0  0  0  0
   10.8521  -17.6036   26.4141 C   0  0  0  0  0  0  0  0  0  0  0  0
   11.5375  -16.6669   25.9578 O   0  0  0  0  0  0  0  0  0  0  0  0
   10.9848  -17.9700   27.7362 O   0  0  0  0  0  0  0  0  0  0  0  0
  1  2  1  0
  2  3  2  0
  2  4  1  0
  4  5  1  0
  6  5  1  0
  6  7  1  6
  8  6  1  0
  8  9  2  0
 10 11  1  0
 11 12  2  0
 12 13  1  0
 14 13  2  0
 14 15  1  0
 16 15  1  1
 16 17  1  0
 17  8  1  0
 18 16  1  0
 18 26  1  0
 19 18  2  0
 20 14  1  0
 21 20  2  0
 21 11  1  0
 23 22  1  6
 23 25  1  0
 24 23  1  0
 25 26  1  6
 25 27  1  0
 27 28  2  0
 27 29  1  0
M  END
$$$$
