QYV.pdb
     RDKit          3D

 29 29  0  0  1  0  0  0  0  0999 V2000
    8.2362  -13.5534   18.9668 N   0  0  0  0  0  0  0  0  0  0  0  0
    7.7558  -14.8339   18.6173 C   0  0  0  0  0  0  0  0  0  0  0  0
    6.9959  -14.9461   17.5938 O   0  0  0  0  0  0  0  0  0  0  0  0
    8.0785  -16.0569   19.3610 C   0  0  0  0  0  0  0  0  0  0  0  0
    9.0385  -15.8687   20.4964 C   0  0  0  0  0  0  0  0  0  0  0  0
    9.2913  -17.1698   21.1777 C   0  0  2  0  0  0  0  0  0  0  0  0
    8.5473  -18.2648   20.5670 N   0  0  0  0  0  0  0  0  0  0  0  0
    8.9009  -17.1083   22.6339 C   0  0  0  0  0  0  0  0  0  0  0  0
    7.7399  -17.3997   22.9790 O   0  0  0  0  0  0  0  0  0  0  0  0
   10.2567  -16.3903   31.4047 O   0  0  0  0  0  0  0  0  0  0  0  0
   10.3556  -16.2749   30.0137 C   0  0  0  0  0  0  0  0  0  0  0  0
   10.4122  -17.3894   29.2085 C   0  0  0  0  0  0  0  0  0  0  0  0
   10.5097  -17.2632   27.8393 C   0  0  0  0  0  0  0  0  0  0  0  0
   10.5542  -16.0180   27.2255 C   0  0  0  0  0  0  0  0  0  0  0  0
   10.6595  -15.9318   25.7726 C   0  0  0  0  0  0  0  0  0  0  0  0
    9.4700  -16.4949   25.0248 C   0  0  2  0  0  0  0  0  0  0  0  0
    9.8223  -16.7248   23.6383 N   0  0  0  0  0  0  0  0  0  0  0  0
    8.2673  -15.6370   25.1486 C   0  0  0  0  0  0  0  0  0  0  0  0
    7.2897  -16.0596   25.8091 O   0  0  0  0  0  0  0  0  0  0  0  0
   10.4969  -14.9151   28.0381 C   0  0  0  0  0  0  0  0  0  0  0  0
   10.3984  -15.0141   29.4230 C   0  0  0  0  0  0  0  0  0  0  0  0
    8.2471  -11.9847   26.5013 C   0  0  0  0  0  0  0  0  0  0  0  0
    7.1387  -12.9863   26.2611 C   0  0  1  0  0  0  0  0  0  0  0  0
    5.8278  -12.2974   26.5697 C   0  0  0  0  0  0  0  0  0  0  0  0
    7.0986  -13.4520   24.8318 C   0  0  2  0  0  0  0  0  0  0  0  0
    8.1962  -14.3742   24.5496 N   0  0  0  0  0  0  0  0  0  0  0  0
    7.2746  -12.2743   23.9526 C   0  0  0  0  0  0  0  0  0  0  0  0
    6.4208  -11.3653   23.9566 O   0  0  0  0  0  0  0  0  0  0  0  0
    8.3764  -12.1770   23.1302 O   0  0  0  0  0  0  0  0  0  0  0  0
  1  2  1  0
  2  3  2  0
  2  4  1  0
  4  5  1  0
  6  5  1  0
  6  7  1  6
  8  6  1  0
  8  9  2  0
 10 11  1  0
 11 12  2  0
 12 13  1  0
 14 13  2  0
 14 15  1  0
 16 15  1  1
 16 17  1  0
 17  8  1  0
 18 16  1  0
 18 26  1  0
 19 18  2  0
 20 14  1  0
 21 20  2  0
 21 11  1  0
 23 22  1  6
 23 25  1  0
 24 23  1  0
 25 26  1  1
 25 27  1  0
 27 28  2  0
 27 29  1  0
M  END
$$$$
