QYV.pdb
     RDKit          3D

 29 29  0  0  1  0  0  0  0  0999 V2000
    8.5102  -19.9965   17.6468 N   0  0  0  0  0  0  0  0  0  0  0  0
    7.4071  -20.2824   18.4799 C   0  0  0  0  0  0  0  0  0  0  0  0
    6.5572  -21.1579   18.0942 O   0  0  0  0  0  0  0  0  0  0  0  0
    7.1732  -19.6331   19.7748 C   0  0  0  0  0  0  0  0  0  0  0  0
    8.2199  -18.6395   20.1792 C   0  0  0  0  0  0  0  0  0  0  0  0
    8.0220  -18.2328   21.5992 C   0  0  2  0  0  0  0  0  0  0  0  0
    6.6295  -17.9156   21.8922 N   0  0  0  0  0  0  0  0  0  0  0  0
    8.8488  -17.0172   21.9390 C   0  0  0  0  0  0  0  0  0  0  0  0
   10.0837  -17.0399   21.7760 O   0  0  0  0  0  0  0  0  0  0  0  0
    8.2843  -13.3092   16.5538 O   0  0  0  0  0  0  0  0  0  0  0  0
    8.2915  -13.3353   17.9529 C   0  0  0  0  0  0  0  0  0  0  0  0
    9.4680  -13.4503   18.6573 C   0  0  0  0  0  0  0  0  0  0  0  0
    9.4625  -13.4750   20.0356 C   0  0  0  0  0  0  0  0  0  0  0  0
    8.2804  -13.3857   20.7595 C   0  0  0  0  0  0  0  0  0  0  0  0
    8.3218  -13.4179   22.2177 C   0  0  0  0  0  0  0  0  0  0  0  0
    9.0036  -14.6389   22.7971 C   0  0  2  0  0  0  0  0  0  0  0  0
    8.2614  -15.8324   22.4451 N   0  0  0  0  0  0  0  0  0  0  0  0
    9.2043  -14.5318   24.2622 C   0  0  0  0  0  0  0  0  0  0  0  0
   10.2934  -14.0842   24.6911 O   0  0  0  0  0  0  0  0  0  0  0  0
    7.1148  -13.2714   20.0465 C   0  0  0  0  0  0  0  0  0  0  0  0
    7.0919  -13.2439   18.6550 C   0  0  0  0  0  0  0  0  0  0  0  0
    7.6943  -12.3425   26.6602 C   0  0  0  0  0  0  0  0  0  0  0  0
    7.4120  -13.7420   27.1612 C   0  0  1  0  0  0  0  0  0  0  0  0
    6.0273  -14.1247   26.6871 C   0  0  0  0  0  0  0  0  0  0  0  0
    8.3890  -14.7455   26.6137 C   0  0  2  0  0  0  0  0  0  0  0  0
    8.2139  -14.9160   25.1731 N   0  0  0  0  0  0  0  0  0  0  0  0
    8.1181  -16.0546   27.2492 C   0  0  0  0  0  0  0  0  0  0  0  0
    7.6919  -17.0018   26.5589 O   0  0  0  0  0  0  0  0  0  0  0  0
    8.3342  -16.2322   28.5988 O   0  0  0  0  0  0  0  0  0  0  0  0
  1  2  1  0
  2  3  2  0
  2  4  1  0
  4  5  1  0
  6  5  1  0
  6  7  1  6
  8  6  1  0
  8  9  2  0
 10 11  1  0
 11 12  2  0
 12 13  1  0
 14 13  2  0
 14 15  1  0
 16 15  1  1
 16 17  1  0
 17  8  1  0
 18 16  1  0
 18 26  1  0
 19 18  2  0
 20 14  1  0
 21 20  2  0
 21 11  1  0
 23 22  1  6
 23 25  1  0
 24 23  1  0
 25 26  1  6
 25 27  1  0
 27 28  2  0
 27 29  1  0
M  END
$$$$
