QYV.pdb
     RDKit          3D

 29 29  0  0  1  0  0  0  0  0999 V2000
    9.1178  -12.9504   16.9408 N   0  0  0  0  0  0  0  0  0  0  0  0
    9.0909  -14.3500   16.7587 C   0  0  0  0  0  0  0  0  0  0  0  0
    8.8281  -14.8125   15.5949 O   0  0  0  0  0  0  0  0  0  0  0  0
    9.3503  -15.3170   17.8313 C   0  0  0  0  0  0  0  0  0  0  0  0
    9.6512  -14.7094   19.1679 C   0  0  0  0  0  0  0  0  0  0  0  0
    9.9615  -15.7769   20.1604 C   0  0  2  0  0  0  0  0  0  0  0  0
    9.0575  -16.9150   20.0457 N   0  0  0  0  0  0  0  0  0  0  0  0
    9.8619  -15.2548   21.5726 C   0  0  0  0  0  0  0  0  0  0  0  0
   10.5833  -14.3068   21.9372 O   0  0  0  0  0  0  0  0  0  0  0  0
    5.4767  -11.1336   27.5842 O   0  0  0  0  0  0  0  0  0  0  0  0
    5.9085  -12.1495   26.7243 C   0  0  0  0  0  0  0  0  0  0  0  0
    5.7852  -13.4757   27.0698 C   0  0  0  0  0  0  0  0  0  0  0  0
    6.2144  -14.4679   26.2144 C   0  0  0  0  0  0  0  0  0  0  0  0
    6.7824  -14.1699   24.9824 C   0  0  0  0  0  0  0  0  0  0  0  0
    7.2245  -15.2525   24.1096 C   0  0  0  0  0  0  0  0  0  0  0  0
    8.7121  -15.2623   23.8297 C   0  0  2  0  0  0  0  0  0  0  0  0
    8.9631  -15.8133   22.5134 N   0  0  0  0  0  0  0  0  0  0  0  0
    9.4793  -15.9775   24.8775 C   0  0  0  0  0  0  0  0  0  0  0  0
    9.9111  -17.1277   24.6303 O   0  0  0  0  0  0  0  0  0  0  0  0
    6.8999  -12.8450   24.6493 C   0  0  0  0  0  0  0  0  0  0  0  0
    6.4749  -11.8236   25.4940 C   0  0  0  0  0  0  0  0  0  0  0  0
   11.4320  -13.8990   27.9443 C   0  0  0  0  0  0  0  0  0  0  0  0
   10.7734  -15.2052   28.3310 C   0  0  1  0  0  0  0  0  0  0  0  0
    9.4336  -14.8736   28.9503 C   0  0  0  0  0  0  0  0  0  0  0  0
   10.5330  -16.0907   27.1396 C   0  0  2  0  0  0  0  0  0  0  0  0
    9.7320  -15.4041   26.1288 N   0  0  0  0  0  0  0  0  0  0  0  0
    9.7620  -17.2730   27.5855 C   0  0  0  0  0  0  0  0  0  0  0  0
   10.3246  -18.1635   28.2532 O   0  0  0  0  0  0  0  0  0  0  0  0
    8.4266  -17.3947   27.2669 O   0  0  0  0  0  0  0  0  0  0  0  0
  1  2  1  0
  2  3  2  0
  2  4  1  0
  4  5  1  0
  6  5  1  0
  6  7  1  1
  8  6  1  0
  8  9  2  0
 10 11  1  0
 11 12  2  0
 12 13  1  0
 14 13  2  0
 14 15  1  0
 16 15  1  1
 16 17  1  0
 17  8  1  0
 18 16  1  0
 18 26  1  0
 19 18  2  0
 20 14  1  0
 21 20  2  0
 21 11  1  0
 23 22  1  6
 23 25  1  0
 24 23  1  0
 25 26  1  6
 25 27  1  0
 27 28  2  0
 27 29  1  0
M  END
$$$$
