QYV.pdb
     RDKit          3D

 29 29  0  0  1  0  0  0  0  0999 V2000
    8.1529  -12.6179   17.9426 N   0  0  0  0  0  0  0  0  0  0  0  0
    7.8984  -13.7499   17.1387 C   0  0  0  0  0  0  0  0  0  0  0  0
    8.2286  -13.7119   15.9029 O   0  0  0  0  0  0  0  0  0  0  0  0
    7.2744  -14.9807   17.6374 C   0  0  0  0  0  0  0  0  0  0  0  0
    6.9551  -14.9761   19.1018 C   0  0  0  0  0  0  0  0  0  0  0  0
    8.2062  -15.1017   19.9017 C   0  0  2  0  0  0  0  0  0  0  0  0
    9.0361  -16.2140   19.4549 N   0  0  0  0  0  0  0  0  0  0  0  0
    7.9001  -15.3183   21.3633 C   0  0  0  0  0  0  0  0  0  0  0  0
    7.0508  -14.6066   21.9327 O   0  0  0  0  0  0  0  0  0  0  0  0
    8.3656  -19.1505   29.4225 O   0  0  0  0  0  0  0  0  0  0  0  0
    8.5219  -18.8314   28.0691 C   0  0  0  0  0  0  0  0  0  0  0  0
    7.5046  -19.0393   27.1660 C   0  0  0  0  0  0  0  0  0  0  0  0
    7.6703  -18.7211   25.8350 C   0  0  0  0  0  0  0  0  0  0  0  0
    8.8592  -18.1836   25.3587 C   0  0  0  0  0  0  0  0  0  0  0  0
    8.9909  -17.8636   23.9412 C   0  0  0  0  0  0  0  0  0  0  0  0
    8.2723  -16.6011   23.5156 C   0  0  2  0  0  0  0  0  0  0  0  0
    8.5547  -16.3179   22.1230 N   0  0  0  0  0  0  0  0  0  0  0  0
    8.5975  -15.4455   24.3856 C   0  0  0  0  0  0  0  0  0  0  0  0
    9.7327  -14.9224   24.2951 O   0  0  0  0  0  0  0  0  0  0  0  0
    9.8653  -17.9810   26.2680 C   0  0  0  0  0  0  0  0  0  0  0  0
    9.7246  -18.2933   27.6171 C   0  0  0  0  0  0  0  0  0  0  0  0
    5.5869  -13.3870   26.7892 C   0  0  0  0  0  0  0  0  0  0  0  0
    6.7908  -12.7905   26.0933 C   0  0  1  0  0  0  0  0  0  0  0  0
    7.1874  -11.5458   26.8562 C   0  0  0  0  0  0  0  0  0  0  0  0
    7.9639  -13.7314   26.0887 C   0  0  2  0  0  0  0  0  0  0  0  0
    7.6742  -14.9271   25.3005 N   0  0  0  0  0  0  0  0  0  0  0  0
    8.2151  -14.1700   27.4799 C   0  0  0  0  0  0  0  0  0  0  0  0
    7.9389  -15.3375   27.8207 O   0  0  0  0  0  0  0  0  0  0  0  0
    8.7523  -13.2957   28.4001 O   0  0  0  0  0  0  0  0  0  0  0  0
  1  2  1  0
  2  3  2  0
  2  4  1  0
  4  5  1  0
  6  5  1  0
  6  7  1  6
  8  6  1  0
  8  9  2  0
 10 11  1  0
 11 12  2  0
 12 13  1  0
 14 13  2  0
 14 15  1  0
 16 15  1  1
 16 17  1  0
 17  8  1  0
 18 16  1  0
 18 26  1  0
 19 18  2  0
 20 14  1  0
 21 20  2  0
 21 11  1  0
 23 22  1  1
 23 25  1  0
 24 23  1  0
 25 26  1  6
 25 27  1  0
 27 28  2  0
 27 29  1  0
M  END
$$$$
