QYV.pdb
     RDKit          3D

 29 29  0  0  1  0  0  0  0  0999 V2000
    8.0779  -13.4854   20.1359 N   0  0  0  0  0  0  0  0  0  0  0  0
    7.9405  -14.5463   19.2149 C   0  0  0  0  0  0  0  0  0  0  0  0
    8.5905  -14.4913   18.1140 O   0  0  0  0  0  0  0  0  0  0  0  0
    7.0919  -15.7210   19.4446 C   0  0  0  0  0  0  0  0  0  0  0  0
    6.3234  -15.7008   20.7312 C   0  0  0  0  0  0  0  0  0  0  0  0
    6.3895  -17.0353   21.3912 C   0  0  2  0  0  0  0  0  0  0  0  0
    5.2749  -17.8942   21.0097 N   0  0  0  0  0  0  0  0  0  0  0  0
    6.3703  -16.9024   22.8941 C   0  0  0  0  0  0  0  0  0  0  0  0
    5.2831  -16.8282   23.4978 O   0  0  0  0  0  0  0  0  0  0  0  0
    5.8908  -22.5352   26.5864 O   0  0  0  0  0  0  0  0  0  0  0  0
    6.5258  -21.3036   26.3913 C   0  0  0  0  0  0  0  0  0  0  0  0
    6.4592  -20.3094   27.3403 C   0  0  0  0  0  0  0  0  0  0  0  0
    7.0888  -19.1000   27.1368 C   0  0  0  0  0  0  0  0  0  0  0  0
    7.8079  -18.8410   25.9771 C   0  0  0  0  0  0  0  0  0  0  0  0
    8.4569  -17.5457   25.8033 C   0  0  0  0  0  0  0  0  0  0  0  0
    7.6222  -16.5224   25.0633 C   0  0  2  0  0  0  0  0  0  0  0  0
    7.5636  -16.8583   23.6550 N   0  0  0  0  0  0  0  0  0  0  0  0
    8.1074  -15.1376   25.2755 C   0  0  0  0  0  0  0  0  0  0  0  0
    9.1616  -14.7732   24.7041 O   0  0  0  0  0  0  0  0  0  0  0  0
    7.8672  -19.8393   25.0391 C   0  0  0  0  0  0  0  0  0  0  0  0
    7.2409  -21.0693   25.2190 C   0  0  0  0  0  0  0  0  0  0  0  0
    5.8092  -11.8831   25.6399 C   0  0  0  0  0  0  0  0  0  0  0  0
    6.8628  -11.9382   26.7244 C   0  0  1  0  0  0  0  0  0  0  0  0
    6.1857  -12.4068   27.9935 C   0  0  0  0  0  0  0  0  0  0  0  0
    7.9630  -12.9087   26.3940 C   0  0  2  0  0  0  0  0  0  0  0  0
    7.4221  -14.2323   26.0934 N   0  0  0  0  0  0  0  0  0  0  0  0
    8.8345  -13.0476   27.5823 C   0  0  0  0  0  0  0  0  0  0  0  0
    8.8250  -14.1092   28.2367 O   0  0  0  0  0  0  0  0  0  0  0  0
    9.6559  -12.0106   27.9692 O   0  0  0  0  0  0  0  0  0  0  0  0
  1  2  1  0
  2  3  2  0
  2  4  1  0
  4  5  1  0
  6  5  1  0
  6  7  1  6
  8  6  1  0
  8  9  2  0
 10 11  1  0
 11 12  2  0
 12 13  1  0
 14 13  2  0
 14 15  1  0
 16 15  1  1
 16 17  1  0
 17  8  1  0
 18 16  1  0
 18 26  1  0
 19 18  2  0
 20 14  1  0
 21 20  2  0
 21 11  1  0
 23 22  1  6
 23 25  1  0
 24 23  1  0
 25 26  1  1
 25 27  1  0
 27 28  2  0
 27 29  1  0
M  END
$$$$
