QYV.pdb
     RDKit          3D

 29 29  0  0  1  0  0  0  0  0999 V2000
   11.4258  -21.0057   19.4772 N   0  0  0  0  0  0  0  0  0  0  0  0
   12.4124  -20.5206   20.3626 C   0  0  0  0  0  0  0  0  0  0  0  0
   12.7655  -21.2543   21.3497 O   0  0  0  0  0  0  0  0  0  0  0  0
   13.0664  -19.2150   20.2186 C   0  0  0  0  0  0  0  0  0  0  0  0
   12.7333  -18.2222   21.2908 C   0  0  0  0  0  0  0  0  0  0  0  0
   11.3578  -17.6862   21.0865 C   0  0  2  0  0  0  0  0  0  0  0  0
   11.1816  -17.1141   19.7571 N   0  0  0  0  0  0  0  0  0  0  0  0
   11.0365  -16.6095   22.0936 C   0  0  0  0  0  0  0  0  0  0  0  0
   11.7733  -15.6097   22.1912 O   0  0  0  0  0  0  0  0  0  0  0  0
    6.8383  -13.1125   18.6981 O   0  0  0  0  0  0  0  0  0  0  0  0
    7.1460  -13.6582   19.9493 C   0  0  0  0  0  0  0  0  0  0  0  0
    7.9062  -12.9635   20.8621 C   0  0  0  0  0  0  0  0  0  0  0  0
    8.2030  -13.5115   22.0917 C   0  0  0  0  0  0  0  0  0  0  0  0
    7.7505  -14.7740   22.4532 C   0  0  0  0  0  0  0  0  0  0  0  0
    8.0906  -15.3155   23.7648 C   0  0  0  0  0  0  0  0  0  0  0  0
    9.5473  -15.6936   23.9267 C   0  0  2  0  0  0  0  0  0  0  0  0
    9.9089  -16.6966   22.9456 N   0  0  0  0  0  0  0  0  0  0  0  0
    9.8660  -16.1369   25.3051 C   0  0  0  0  0  0  0  0  0  0  0  0
    9.9351  -17.3653   25.5433 O   0  0  0  0  0  0  0  0  0  0  0  0
    6.9940  -15.4563   21.5355 C   0  0  0  0  0  0  0  0  0  0  0  0
    6.6797  -14.9266   20.2873 C   0  0  0  0  0  0  0  0  0  0  0  0
   11.1200  -13.2667   28.0862 C   0  0  0  0  0  0  0  0  0  0  0  0
   10.4832  -14.5188   28.6484 C   0  0  1  0  0  0  0  0  0  0  0  0
    9.0353  -14.1983   28.9473 C   0  0  0  0  0  0  0  0  0  0  0  0
   10.5185  -15.6590   27.6686 C   0  0  2  0  0  0  0  0  0  0  0  0
   10.0902  -15.2235   26.3413 N   0  0  0  0  0  0  0  0  0  0  0  0
    9.5628  -16.6940   28.1232 C   0  0  0  0  0  0  0  0  0  0  0  0
    8.4799  -16.8435   27.5229 O   0  0  0  0  0  0  0  0  0  0  0  0
    9.8633  -17.4928   29.2054 O   0  0  0  0  0  0  0  0  0  0  0  0
  1  2  1  0
  2  3  2  0
  2  4  1  0
  4  5  1  0
  6  5  1  0
  6  7  1  6
  8  6  1  0
  8  9  2  0
 10 11  1  0
 11 12  2  0
 12 13  1  0
 14 13  2  0
 14 15  1  0
 16 15  1  1
 16 17  1  0
 17  8  1  0
 18 16  1  0
 18 26  1  0
 19 18  2  0
 20 14  1  0
 21 20  2  0
 21 11  1  0
 23 22  1  6
 23 25  1  0
 24 23  1  0
 25 26  1  6
 25 27  1  0
 27 28  2  0
 27 29  1  0
M  END
$$$$
