RAF.pdb
     RDKit          3D

 28 28  0  0  1  0  0  0  0  0999 V2000
    2.7559  -18.2074   20.4143 N   0  0  0  0  0  0  0  0  0  0  0  0
    2.6972  -18.9932   21.5976 C   0  0  0  0  0  0  0  0  0  0  0  0
    1.5279  -19.2091   22.0958 N   0  0  0  0  0  0  0  0  0  0  0  0
    3.8621  -19.5248   22.2174 N   0  0  0  0  0  0  0  0  0  0  0  0
    4.9131  -18.6241   22.6380 C   0  0  0  0  0  0  0  0  0  0  0  0
    5.0977  -17.4873   21.6553 C   0  0  0  0  0  0  0  0  0  0  0  0
    6.2588  -16.6650   22.0922 C   0  0  0  0  0  0  0  0  0  0  0  0
    7.5520  -17.0376   21.4087 C   0  0  2  0  0  0  0  0  0  0  0  0
    7.4099  -18.0953   20.4596 N   0  0  0  0  0  0  0  0  0  0  0  0
    8.6283  -17.3570   22.3535 C   0  0  0  0  0  0  0  0  0  0  0  0
    8.7364  -18.4780   22.9013 O   0  0  0  0  0  0  0  0  0  0  0  0
    1.3995  -19.8768   22.8788 C   0  0  0  0  0  0  0  0  0  0  0  0
   11.9956  -15.9641   23.0668 C   0  0  2  0  0  0  0  0  0  0  0  0
   10.7457  -16.6752   23.5365 N   0  0  0  0  0  0  0  0  0  0  0  0
    9.6006  -16.3725   22.6777 C   0  0  0  0  0  0  0  0  0  0  0  0
   10.4166  -16.1346   24.8874 O   0  0  0  0  0  0  0  0  0  0  0  0
   10.7839  -14.9667   25.1664 N   0  0  0  0  0  0  0  0  0  0  0  0
    9.7167  -16.8726   25.8565 C   0  0  1  0  0  0  0  0  0  0  0  0
    9.7059  -16.4115   27.2209 C   0  0  0  0  0  0  0  0  0  0  0  0
    8.3246  -15.9827   27.6500 C   0  0  0  0  0  0  0  0  0  0  0  0
    8.0015  -14.6916   27.0544 C   0  0  0  0  0  0  0  0  0  0  0  0
    8.7509  -13.5866   27.3659 C   0  0  0  0  0  0  0  0  0  0  0  0
    8.4988  -12.3373   26.8024 C   0  0  0  0  0  0  0  0  0  0  0  0
    7.4474  -12.2405   25.8994 C   0  0  0  0  0  0  0  0  0  0  0  0
    6.6768  -13.3282   25.5652 C   0  0  0  0  0  0  0  0  0  0  0  0
    6.9722  -14.5607   26.1597 C   0  0  0  0  0  0  0  0  0  0  0  0
   10.2182  -17.5183   28.0516 O   0  0  0  0  0  0  0  0  0  0  0  0
   10.5503  -18.7437   27.4961 O   0  0  0  0  0  0  0  0  0  0  0  0
  2  1  1  0
  2  4  1  0
  3  2  2  0
  4  5  1  0
  5  6  1  0
  6  7  1  0
  7  8  1  0
  8  9  1  6
 10  8  1  0
 11 10  2  0
 13 12  1  6
 13 15  1  0
 13 14  1  0
 14 10  1  0
 15 17  1  0
 16 15  2  0
 17 18  1  0
 18 26  1  0
 19 20  1  0
 18 19  1  1
 20 25  2  0
 21 22  2  0
 21 20  1  0
 22 23  1  0
 23 24  2  0
 25 24  1  0
 26 28  2  0
 26 27  1  0
M  END
$$$$
