RAF.pdb
     RDKit          3D

 28 28  0  0  1  0  0  0  0  0999 V2000
    9.2965  -13.8089   16.1517 N   0  0  0  0  0  0  0  0  0  0  0  0
    7.8804  -13.6999   16.0892 C   0  0  0  0  0  0  0  0  0  0  0  0
    7.3302  -13.9104   14.9426 N   0  0  0  0  0  0  0  0  0  0  0  0
    7.0907  -13.3748   17.2270 N   0  0  0  0  0  0  0  0  0  0  0  0
    7.7359  -13.2041   18.5104 C   0  0  0  0  0  0  0  0  0  0  0  0
    8.4688  -14.4587   18.9359 C   0  0  0  0  0  0  0  0  0  0  0  0
    8.0458  -14.8106   20.3188 C   0  0  0  0  0  0  0  0  0  0  0  0
    9.1902  -14.8739   21.3010 C   0  0  2  0  0  0  0  0  0  0  0  0
   10.3860  -15.4243   20.7468 N   0  0  0  0  0  0  0  0  0  0  0  0
    8.8439  -15.5799   22.5397 C   0  0  0  0  0  0  0  0  0  0  0  0
    7.7774  -15.3701   23.1619 O   0  0  0  0  0  0  0  0  0  0  0  0
    6.3060  -13.8056   14.8179 C   0  0  0  0  0  0  0  0  0  0  0  0
   10.3140  -18.4722   24.4952 C   0  0  2  0  0  0  0  0  0  0  0  0
    9.4587  -17.2343   24.3377 N   0  0  0  0  0  0  0  0  0  0  0  0
    9.7370  -16.5460   23.0771 C   0  0  0  0  0  0  0  0  0  0  0  0
    9.8462  -16.2935   25.4286 O   0  0  0  0  0  0  0  0  0  0  0  0
   10.7623  -15.4650   25.2021 N   0  0  0  0  0  0  0  0  0  0  0  0
    9.2332  -16.2945   26.6927 C   0  0  1  0  0  0  0  0  0  0  0  0
    9.7401  -15.4237   27.7219 C   0  0  0  0  0  0  0  0  0  0  0  0
    8.6402  -14.5943   28.3371 C   0  0  0  0  0  0  0  0  0  0  0  0
    8.1396  -13.6354   27.3595 C   0  0  0  0  0  0  0  0  0  0  0  0
    6.9429  -13.8607   26.7294 C   0  0  0  0  0  0  0  0  0  0  0  0
    6.4096  -12.9615   25.8081 C   0  0  0  0  0  0  0  0  0  0  0  0
    7.1376  -11.8087   25.5406 C   0  0  0  0  0  0  0  0  0  0  0  0
    8.3399  -11.5523   26.1545 C   0  0  0  0  0  0  0  0  0  0  0  0
    8.8313  -12.4881   27.0723 C   0  0  0  0  0  0  0  0  0  0  0  0
   10.4028  -16.2826   28.7222 O   0  0  0  0  0  0  0  0  0  0  0  0
   11.1811  -15.7435   29.7341 O   0  0  0  0  0  0  0  0  0  0  0  0
  2  1  1  0
  2  4  1  0
  3  2  2  0
  4  5  1  0
  5  6  1  0
  6  7  1  0
  7  8  1  0
  8  9  1  6
 10  8  1  0
 11 10  2  0
 13 12  1  6
 13 15  1  0
 13 14  1  0
 14 10  1  0
 15 17  1  0
 16 15  2  0
 17 18  1  0
 18 26  1  0
 19 20  1  0
 18 19  1  1
 20 25  2  0
 21 22  2  0
 21 20  1  0
 22 23  1  0
 23 24  2  0
 25 24  1  0
 26 28  2  0
 26 27  1  0
M  END
$$$$
