RAF.pdb
     RDKit          3D

 28 28  0  0  1  0  0  0  0  0999 V2000
   10.3133  -14.8240   16.1129 N   0  0  0  0  0  0  0  0  0  0  0  0
    8.9801  -14.7975   15.6199 C   0  0  0  0  0  0  0  0  0  0  0  0
    8.8236  -14.4769   14.3811 N   0  0  0  0  0  0  0  0  0  0  0  0
    7.8589  -15.1068   16.4392 N   0  0  0  0  0  0  0  0  0  0  0  0
    7.2369  -14.0548   17.2131 C   0  0  0  0  0  0  0  0  0  0  0  0
    8.2669  -13.2109   17.9336 C   0  0  0  0  0  0  0  0  0  0  0  0
    7.8683  -13.0914   19.3626 C   0  0  0  0  0  0  0  0  0  0  0  0
    8.9002  -13.6314   20.3229 C   0  0  2  0  0  0  0  0  0  0  0  0
   10.0258  -14.2248   19.6743 N   0  0  0  0  0  0  0  0  0  0  0  0
    8.3373  -14.5688   21.3014 C   0  0  0  0  0  0  0  0  0  0  0  0
    7.2375  -14.3750   21.8681 O   0  0  0  0  0  0  0  0  0  0  0  0
    7.8881  -14.5199   13.9357 C   0  0  0  0  0  0  0  0  0  0  0  0
    9.0396  -18.1207   22.3051 C   0  0  2  0  0  0  0  0  0  0  0  0
    8.5108  -16.7308   22.5833 N   0  0  0  0  0  0  0  0  0  0  0  0
    9.0484  -15.7524   21.6378 C   0  0  0  0  0  0  0  0  0  0  0  0
    9.0100  -16.3350   23.9322 O   0  0  0  0  0  0  0  0  0  0  0  0
   10.1134  -15.7403   24.0072 N   0  0  0  0  0  0  0  0  0  0  0  0
    8.3021  -16.5978   25.1169 C   0  0  1  0  0  0  0  0  0  0  0  0
    8.8054  -16.0873   26.3661 C   0  0  0  0  0  0  0  0  0  0  0  0
    7.7097  -15.4543   27.1876 C   0  0  0  0  0  0  0  0  0  0  0  0
    7.3254  -14.1776   26.5975 C   0  0  0  0  0  0  0  0  0  0  0  0
    8.0928  -13.0628   26.8168 C   0  0  0  0  0  0  0  0  0  0  0  0
    7.7823  -11.8268   26.2530 C   0  0  0  0  0  0  0  0  0  0  0  0
    6.6526  -11.7540   25.4475 C   0  0  0  0  0  0  0  0  0  0  0  0
    5.8621  -12.8520   25.2072 C   0  0  0  0  0  0  0  0  0  0  0  0
    6.2183  -14.0703   25.7976 C   0  0  0  0  0  0  0  0  0  0  0  0
    9.4324  -17.2218   27.0713 O   0  0  0  0  0  0  0  0  0  0  0  0
   10.2454  -17.0244   28.1761 O   0  0  0  0  0  0  0  0  0  0  0  0
  2  1  1  0
  2  4  1  0
  3  2  2  0
  4  5  1  0
  5  6  1  0
  6  7  1  0
  7  8  1  0
  8  9  1  6
 10  8  1  0
 11 10  2  0
 13 12  1  6
 13 15  1  0
 13 14  1  0
 14 10  1  0
 15 17  1  0
 16 15  2  0
 17 18  1  0
 18 26  1  0
 19 20  1  0
 18 19  1  1
 20 25  2  0
 21 22  2  0
 21 20  1  0
 22 23  1  0
 23 24  2  0
 25 24  1  0
 26 28  2  0
 26 27  1  0
M  END
$$$$
