RAF.pdb
     RDKit          3D

 28 28  0  0  1  0  0  0  0  0999 V2000
    8.2918  -14.3922   14.7477 N   0  0  0  0  0  0  0  0  0  0  0  0
    8.4449  -13.9145   16.0779 C   0  0  0  0  0  0  0  0  0  0  0  0
    8.0862  -12.6972   16.3044 N   0  0  0  0  0  0  0  0  0  0  0  0
    8.9675  -14.7260   17.1231 N   0  0  0  0  0  0  0  0  0  0  0  0
    9.8229  -15.8441   16.7900 C   0  0  0  0  0  0  0  0  0  0  0  0
    9.2553  -17.1507   17.3027 C   0  0  0  0  0  0  0  0  0  0  0  0
   10.1933  -17.7128   18.3124 C   0  0  0  0  0  0  0  0  0  0  0  0
    9.5841  -17.8566   19.6860 C   0  0  2  0  0  0  0  0  0  0  0  0
    8.2942  -18.4696   19.6752 N   0  0  0  0  0  0  0  0  0  0  0  0
    9.5277  -16.5893   20.4234 C   0  0  0  0  0  0  0  0  0  0  0  0
   10.5441  -15.8940   20.6513 O   0  0  0  0  0  0  0  0  0  0  0  0
    8.2416  -12.2619   17.2328 C   0  0  0  0  0  0  0  0  0  0  0  0
    6.8271  -14.2453   21.5928 C   0  0  2  0  0  0  0  0  0  0  0  0
    8.1889  -14.8923   21.7178 N   0  0  0  0  0  0  0  0  0  0  0  0
    8.2820  -16.1084   20.9097 C   0  0  0  0  0  0  0  0  0  0  0  0
    8.3428  -15.3160   23.1400 O   0  0  0  0  0  0  0  0  0  0  0  0
    7.5994  -16.2312   23.5717 N   0  0  0  0  0  0  0  0  0  0  0  0
    9.2793  -14.7376   24.0129 C   0  0  2  0  0  0  0  0  0  0  0  0
    9.2184  -15.0487   25.4179 C   0  0  0  0  0  0  0  0  0  0  0  0
    7.7959  -15.0668   25.9201 C   0  0  0  0  0  0  0  0  0  0  0  0
    7.3589  -13.7071   26.2136 C   0  0  0  0  0  0  0  0  0  0  0  0
    6.0303  -13.4459   26.4290 C   0  0  0  0  0  0  0  0  0  0  0  0
    5.5669  -12.1688   26.7393 C   0  0  0  0  0  0  0  0  0  0  0  0
    6.5059  -11.1485   26.8259 C   0  0  0  0  0  0  0  0  0  0  0  0
    7.8448  -11.3761   26.6160 C   0  0  0  0  0  0  0  0  0  0  0  0
    8.2580  -12.6775   26.3073 C   0  0  0  0  0  0  0  0  0  0  0  0
    9.8787  -16.3562   25.5965 O   0  0  0  0  0  0  0  0  0  0  0  0
   10.5218  -16.9895   24.5450 O   0  0  0  0  0  0  0  0  0  0  0  0
  2  1  1  0
  2  4  1  0
  3  2  2  0
  4  5  1  0
  5  6  1  0
  6  7  1  0
  7  8  1  0
  8  9  1  6
 10  8  1  0
 11 10  2  0
 13 12  1  6
 13 15  1  0
 13 14  1  0
 14 10  1  0
 15 17  1  0
 16 15  2  0
 17 18  1  0
 18 26  1  0
 19 20  1  0
 18 19  1  6
 20 25  2  0
 21 22  2  0
 21 20  1  0
 22 23  1  0
 23 24  2  0
 25 24  1  0
 26 28  2  0
 26 27  1  0
M  END
$$$$
