RAF.pdb
     RDKit          3D

 28 28  0  0  1  0  0  0  0  0999 V2000
    8.7045  -12.4550   16.4312 N   0  0  0  0  0  0  0  0  0  0  0  0
    8.2039  -13.5463   15.6699 C   0  0  0  0  0  0  0  0  0  0  0  0
    8.3787  -13.4948   14.3937 N   0  0  0  0  0  0  0  0  0  0  0  0
    7.5389  -14.6517   16.2697 N   0  0  0  0  0  0  0  0  0  0  0  0
    7.9439  -15.0907   17.5872 C   0  0  0  0  0  0  0  0  0  0  0  0
    7.8382  -13.9729   18.6029 C   0  0  0  0  0  0  0  0  0  0  0  0
    7.5924  -14.5704   19.9437 C   0  0  0  0  0  0  0  0  0  0  0  0
    8.2205  -15.9315   20.1209 C   0  0  2  0  0  0  0  0  0  0  0  0
    7.7276  -16.9095   19.2042 N   0  0  0  0  0  0  0  0  0  0  0  0
    8.1144  -16.4372   21.4942 C   0  0  0  0  0  0  0  0  0  0  0  0
    7.0360  -16.4433   22.1309 O   0  0  0  0  0  0  0  0  0  0  0  0
    7.9878  -14.2291   13.7743 C   0  0  0  0  0  0  0  0  0  0  0  0
    9.8000  -18.8833   23.5725 C   0  0  2  0  0  0  0  0  0  0  0  0
    9.2002  -17.4960   23.5061 N   0  0  0  0  0  0  0  0  0  0  0  0
    9.2668  -16.9463   22.1518 C   0  0  0  0  0  0  0  0  0  0  0  0
   10.0438  -16.6134   24.3634 O   0  0  0  0  0  0  0  0  0  0  0  0
   11.1620  -16.2493   23.9232 N   0  0  0  0  0  0  0  0  0  0  0  0
    9.6429  -16.1743   25.6362 C   0  0  1  0  0  0  0  0  0  0  0  0
   10.5647  -15.4161   26.4423 C   0  0  0  0  0  0  0  0  0  0  0  0
   10.4083  -13.9327   26.2160 C   0  0  0  0  0  0  0  0  0  0  0  0
    9.0199  -13.5442   26.4334 C   0  0  0  0  0  0  0  0  0  0  0  0
    8.6603  -12.9067   27.5927 C   0  0  0  0  0  0  0  0  0  0  0  0
    7.3523  -12.4916   27.8351 C   0  0  0  0  0  0  0  0  0  0  0  0
    6.4050  -12.7463   26.8513 C   0  0  0  0  0  0  0  0  0  0  0  0
    6.7319  -13.3829   25.6781 C   0  0  0  0  0  0  0  0  0  0  0  0
    8.0604  -13.7793   25.4841 C   0  0  0  0  0  0  0  0  0  0  0  0
   10.3090  -15.7853   27.8479 O   0  0  0  0  0  0  0  0  0  0  0  0
   11.0823  -15.2775   28.8797 O   0  0  0  0  0  0  0  0  0  0  0  0
  2  1  1  0
  2  4  1  0
  3  2  2  0
  4  5  1  0
  5  6  1  0
  6  7  1  0
  7  8  1  0
  8  9  1  6
 10  8  1  0
 11 10  2  0
 13 12  1  6
 13 15  1  0
 13 14  1  0
 14 10  1  0
 15 17  1  0
 16 15  2  0
 17 18  1  0
 18 26  1  0
 19 20  1  0
 18 19  1  1
 20 25  2  0
 21 22  2  0
 21 20  1  0
 22 23  1  0
 23 24  2  0
 25 24  1  0
 26 28  2  0
 26 27  1  0
M  END
$$$$
