RAF.pdb
     RDKit          3D

 28 28  0  0  1  0  0  0  0  0999 V2000
    9.2458  -14.9833   16.7099 N   0  0  0  0  0  0  0  0  0  0  0  0
    8.6169  -13.7304   16.4738 C   0  0  0  0  0  0  0  0  0  0  0  0
    8.3240  -13.4471   15.2508 N   0  0  0  0  0  0  0  0  0  0  0  0
    8.3170  -12.8189   17.5241 N   0  0  0  0  0  0  0  0  0  0  0  0
    8.5505  -13.2178   18.8949 C   0  0  0  0  0  0  0  0  0  0  0  0
    7.4676  -14.1502   19.3949 C   0  0  0  0  0  0  0  0  0  0  0  0
    7.7853  -14.5400   20.7958 C   0  0  0  0  0  0  0  0  0  0  0  0
    7.8546  -16.0333   21.0046 C   0  0  2  0  0  0  0  0  0  0  0  0
    6.8660  -16.7570   20.2705 N   0  0  0  0  0  0  0  0  0  0  0  0
    7.8047  -16.4170   22.4199 C   0  0  0  0  0  0  0  0  0  0  0  0
    6.7281  -16.5864   23.0369 O   0  0  0  0  0  0  0  0  0  0  0  0
    7.8924  -12.5366   15.0054 C   0  0  0  0  0  0  0  0  0  0  0  0
    9.9208  -18.4825   24.4572 C   0  0  2  0  0  0  0  0  0  0  0  0
    9.0285  -17.2608   24.4542 N   0  0  0  0  0  0  0  0  0  0  0  0
    9.0124  -16.6107   23.1436 C   0  0  0  0  0  0  0  0  0  0  0  0
    9.6266  -16.2802   25.4061 O   0  0  0  0  0  0  0  0  0  0  0  0
   10.5295  -15.5163   24.9841 N   0  0  0  0  0  0  0  0  0  0  0  0
    9.2250  -16.1752   26.7483 C   0  0  1  0  0  0  0  0  0  0  0  0
    9.8809  -15.2231   27.6072 C   0  0  0  0  0  0  0  0  0  0  0  0
    8.8848  -14.3496   28.3288 C   0  0  0  0  0  0  0  0  0  0  0  0
    8.1306  -13.5595   27.3629 C   0  0  0  0  0  0  0  0  0  0  0  0
    6.8581  -13.9337   27.0161 C   0  0  0  0  0  0  0  0  0  0  0  0
    6.0875  -13.1969   26.1187 C   0  0  0  0  0  0  0  0  0  0  0  0
    6.6551  -12.0512   25.5749 C   0  0  0  0  0  0  0  0  0  0  0  0
    7.9276  -11.6481   25.9012 C   0  0  0  0  0  0  0  0  0  0  0  0
    8.6594  -12.4239   26.8080 C   0  0  0  0  0  0  0  0  0  0  0  0
   10.7131  -15.9971   28.5485 O   0  0  0  0  0  0  0  0  0  0  0  0
   11.5653  -15.3691   29.4428 O   0  0  0  0  0  0  0  0  0  0  0  0
  2  1  1  0
  2  4  1  0
  3  2  2  0
  4  5  1  0
  5  6  1  0
  6  7  1  0
  7  8  1  0
  8  9  1  6
 10  8  1  0
 11 10  2  0
 13 12  1  6
 13 15  1  0
 13 14  1  0
 14 10  1  0
 15 17  1  0
 16 15  2  0
 17 18  1  0
 18 26  1  0
 19 20  1  0
 18 19  1  1
 20 25  2  0
 21 22  2  0
 21 20  1  0
 22 23  1  0
 23 24  2  0
 25 24  1  0
 26 28  2  0
 26 27  1  0
M  END
$$$$
