RAF.pdb
     RDKit          3D

 28 28  0  0  1  0  0  0  0  0999 V2000
    5.9934  -20.9831   24.9269 N   0  0  0  0  0  0  0  0  0  0  0  0
    6.5246  -21.9145   23.9934 C   0  0  0  0  0  0  0  0  0  0  0  0
    7.3889  -22.7595   24.4414 N   0  0  0  0  0  0  0  0  0  0  0  0
    6.1334  -21.9291   22.6256 N   0  0  0  0  0  0  0  0  0  0  0  0
    5.5070  -20.7558   22.0566 C   0  0  0  0  0  0  0  0  0  0  0  0
    6.4756  -19.5956   21.9683 C   0  0  0  0  0  0  0  0  0  0  0  0
    5.6958  -18.3319   21.8675 C   0  0  0  0  0  0  0  0  0  0  0  0
    6.0990  -17.4670   20.6979 C   0  0  2  0  0  0  0  0  0  0  0  0
    6.3471  -18.2070   19.5017 N   0  0  0  0  0  0  0  0  0  0  0  0
    7.2450  -16.6000   20.9944 C   0  0  0  0  0  0  0  0  0  0  0  0
    8.2751  -17.0154   21.5730 O   0  0  0  0  0  0  0  0  0  0  0  0
    7.7443  -23.5253   23.8391 C   0  0  0  0  0  0  0  0  0  0  0  0
    8.1181  -12.9659   20.2921 C   0  0  2  0  0  0  0  0  0  0  0  0
    8.2995  -14.3121   20.9581 N   0  0  0  0  0  0  0  0  0  0  0  0
    7.2107  -15.2293   20.6207 C   0  0  0  0  0  0  0  0  0  0  0  0
    8.2216  -14.0855   22.4305 O   0  0  0  0  0  0  0  0  0  0  0  0
    7.8469  -12.9592   22.8400 N   0  0  0  0  0  0  0  0  0  0  0  0
    8.5482  -15.0735   23.3744 C   0  0  1  0  0  0  0  0  0  0  0  0
    9.6791  -14.8713   24.2430 C   0  0  0  0  0  0  0  0  0  0  0  0
    9.6454  -13.5080   24.8883 C   0  0  0  0  0  0  0  0  0  0  0  0
    8.3546  -13.2993   25.5335 C   0  0  0  0  0  0  0  0  0  0  0  0
    7.5574  -12.2524   25.1484 C   0  0  0  0  0  0  0  0  0  0  0  0
    6.3046  -12.0272   25.7155 C   0  0  0  0  0  0  0  0  0  0  0  0
    5.8776  -12.9093   26.7003 C   0  0  0  0  0  0  0  0  0  0  0  0
    6.6516  -13.9685   27.1094 C   0  0  0  0  0  0  0  0  0  0  0  0
    7.9024  -14.1502   26.5074 C   0  0  0  0  0  0  0  0  0  0  0  0
    9.6476  -15.9528   25.2465 O   0  0  0  0  0  0  0  0  0  0  0  0
   10.7145  -16.1741   26.1028 O   0  0  0  0  0  0  0  0  0  0  0  0
  2  1  1  0
  2  4  1  0
  3  2  2  0
  4  5  1  0
  5  6  1  0
  6  7  1  0
  7  8  1  0
  8  9  1  6
 10  8  1  0
 11 10  2  0
 13 12  1  6
 13 15  1  0
 13 14  1  0
 14 10  1  0
 15 17  1  0
 16 15  2  0
 17 18  1  0
 18 26  1  0
 19 20  1  0
 18 19  1  1
 20 25  2  0
 21 22  2  0
 21 20  1  0
 22 23  1  0
 23 24  2  0
 25 24  1  0
 26 28  2  0
 26 27  1  0
M  END
$$$$
