RAF.pdb
     RDKit          3D

 28 28  0  0  1  0  0  0  0  0999 V2000
    7.6776  -19.0463   15.5345 N   0  0  0  0  0  0  0  0  0  0  0  0
    7.4554  -20.3899   15.9424 C   0  0  0  0  0  0  0  0  0  0  0  0
    6.5481  -21.0490   15.3067 N   0  0  0  0  0  0  0  0  0  0  0  0
    8.1891  -20.9960   16.9999 N   0  0  0  0  0  0  0  0  0  0  0  0
    9.0764  -20.1824   17.8020 C   0  0  0  0  0  0  0  0  0  0  0  0
    8.3420  -19.0234   18.4420 C   0  0  0  0  0  0  0  0  0  0  0  0
    9.2948  -18.2768   19.3080 C   0  0  0  0  0  0  0  0  0  0  0  0
    8.7372  -17.9455   20.6710 C   0  0  2  0  0  0  0  0  0  0  0  0
    7.3227  -18.1188   20.7648 N   0  0  0  0  0  0  0  0  0  0  0  0
    9.1063  -16.6015   21.1300 C   0  0  0  0  0  0  0  0  0  0  0  0
   10.2729  -16.1544   21.0438 O   0  0  0  0  0  0  0  0  0  0  0  0
    6.2440  -21.9848   15.6342 C   0  0  0  0  0  0  0  0  0  0  0  0
    7.1498  -13.5279   22.1076 C   0  0  2  0  0  0  0  0  0  0  0  0
    8.4104  -14.3626   22.0523 N   0  0  0  0  0  0  0  0  0  0  0  0
    8.1192  -15.7523   21.6993 C   0  0  0  0  0  0  0  0  0  0  0  0
    8.9800  -14.3862   23.4309 O   0  0  0  0  0  0  0  0  0  0  0  0
    9.6894  -13.4173   23.7980 N   0  0  0  0  0  0  0  0  0  0  0  0
    8.7580  -15.4410   24.3319 C   0  0  1  0  0  0  0  0  0  0  0  0
    9.6725  -15.6356   25.4274 C   0  0  0  0  0  0  0  0  0  0  0  0
    9.0777  -15.1731   26.7345 C   0  0  0  0  0  0  0  0  0  0  0  0
    8.0370  -14.1840   26.4804 C   0  0  0  0  0  0  0  0  0  0  0  0
    8.3512  -12.8496   26.4563 C   0  0  0  0  0  0  0  0  0  0  0  0
    7.3979  -11.8685   26.1912 C   0  0  0  0  0  0  0  0  0  0  0  0
    6.0958  -12.2875   25.9475 C   0  0  0  0  0  0  0  0  0  0  0  0
    5.7473  -13.6166   25.9640 C   0  0  0  0  0  0  0  0  0  0  0  0
    6.7432  -14.5623   26.2354 C   0  0  0  0  0  0  0  0  0  0  0  0
   10.0071  -17.0726   25.4564 O   0  0  0  0  0  0  0  0  0  0  0  0
   10.9292  -17.5809   26.3573 O   0  0  0  0  0  0  0  0  0  0  0  0
  2  1  1  0
  2  4  1  0
  3  2  2  0
  4  5  1  0
  5  6  1  0
  6  7  1  0
  7  8  1  0
  8  9  1  6
 10  8  1  0
 11 10  2  0
 13 12  1  6
 13 15  1  0
 13 14  1  0
 14 10  1  0
 15 17  1  0
 16 15  2  0
 17 18  1  0
 18 26  1  0
 19 20  1  0
 18 19  1  1
 20 25  2  0
 21 22  2  0
 21 20  1  0
 22 23  1  0
 23 24  2  0
 25 24  1  0
 26 28  2  0
 26 27  1  0
M  END
$$$$
