RAF.pdb
     RDKit          3D

 28 28  0  0  1  0  0  0  0  0999 V2000
    8.1287  -11.7043   18.3868 N   0  0  0  0  0  0  0  0  0  0  0  0
    8.2389  -13.0944   18.1102 C   0  0  0  0  0  0  0  0  0  0  0  0
    8.0587  -13.4609   16.8874 N   0  0  0  0  0  0  0  0  0  0  0  0
    8.5332  -14.0511   19.1211 N   0  0  0  0  0  0  0  0  0  0  0  0
    8.6019  -15.4527   18.7700 C   0  0  0  0  0  0  0  0  0  0  0  0
    7.4970  -16.2472   19.4333 C   0  0  0  0  0  0  0  0  0  0  0  0
    8.0858  -17.4811   20.0215 C   0  0  0  0  0  0  0  0  0  0  0  0
    7.0584  -18.4172   20.6103 C   0  0  2  0  0  0  0  0  0  0  0  0
    5.8576  -18.5005   19.8416 N   0  0  0  0  0  0  0  0  0  0  0  0
    6.7353  -18.1078   22.0077 C   0  0  0  0  0  0  0  0  0  0  0  0
    5.6776  -17.5280   22.3446 O   0  0  0  0  0  0  0  0  0  0  0  0
    8.0719  -14.4646   16.6266 C   0  0  0  0  0  0  0  0  0  0  0  0
    7.2746  -19.6749   25.1541 C   0  0  2  0  0  0  0  0  0  0  0  0
    7.2919  -18.3336   24.4545 N   0  0  0  0  0  0  0  0  0  0  0  0
    7.6419  -18.4698   23.0405 C   0  0  0  0  0  0  0  0  0  0  0  0
    8.3772  -17.5262   25.0837 O   0  0  0  0  0  0  0  0  0  0  0  0
    9.5015  -17.5030   24.5250 N   0  0  0  0  0  0  0  0  0  0  0  0
    8.1963  -16.7942   26.2691 C   0  0  1  0  0  0  0  0  0  0  0  0
    9.3159  -16.0909   26.8403 C   0  0  0  0  0  0  0  0  0  0  0  0
    8.8701  -14.8745   27.6135 C   0  0  0  0  0  0  0  0  0  0  0  0
    8.0888  -13.9989   26.7482 C   0  0  0  0  0  0  0  0  0  0  0  0
    8.6447  -13.4967   25.5999 C   0  0  0  0  0  0  0  0  0  0  0  0
    7.9303  -12.6783   24.7272 C   0  0  0  0  0  0  0  0  0  0  0  0
    6.6147  -12.3795   25.0589 C   0  0  0  0  0  0  0  0  0  0  0  0
    6.0272  -12.8663   26.2019 C   0  0  0  0  0  0  0  0  0  0  0  0
    6.7887  -13.6845   27.0448 C   0  0  0  0  0  0  0  0  0  0  0  0
   10.0334  -17.0528   27.6991 O   0  0  0  0  0  0  0  0  0  0  0  0
   11.2693  -16.7487   28.2472 O   0  0  0  0  0  0  0  0  0  0  0  0
  2  1  1  0
  2  4  1  0
  3  2  2  0
  4  5  1  0
  5  6  1  0
  6  7  1  0
  7  8  1  0
  8  9  1  6
 10  8  1  0
 11 10  2  0
 13 12  1  6
 13 15  1  0
 13 14  1  0
 14 10  1  0
 15 17  1  0
 16 15  2  0
 17 18  1  0
 18 26  1  0
 19 20  1  0
 18 19  1  1
 20 25  2  0
 21 22  2  0
 21 20  1  0
 22 23  1  0
 23 24  2  0
 25 24  1  0
 26 28  2  0
 26 27  1  0
M  END
$$$$
