RAF.pdb
     RDKit          3D

 28 28  0  0  1  0  0  0  0  0999 V2000
   12.7957  -13.2502   20.1480 N   0  0  0  0  0  0  0  0  0  0  0  0
   12.8316  -14.4899   19.4531 C   0  0  0  0  0  0  0  0  0  0  0  0
   13.9917  -15.0211   19.2693 N   0  0  0  0  0  0  0  0  0  0  0  0
   11.6540  -15.1295   18.9754 N   0  0  0  0  0  0  0  0  0  0  0  0
   10.4335  -14.3630   18.8513 C   0  0  0  0  0  0  0  0  0  0  0  0
   10.3652  -13.2554   19.8812 C   0  0  0  0  0  0  0  0  0  0  0  0
    8.9348  -12.9561   20.1634 C   0  0  0  0  0  0  0  0  0  0  0  0
    7.9977  -14.0742   19.7761 C   0  0  2  0  0  0  0  0  0  0  0  0
    6.9960  -13.6781   18.8383 N   0  0  0  0  0  0  0  0  0  0  0  0
    7.3693  -14.7219   20.9331 C   0  0  0  0  0  0  0  0  0  0  0  0
    6.4144  -14.2078   21.5595 O   0  0  0  0  0  0  0  0  0  0  0  0
   14.0872  -15.9341   18.7868 C   0  0  0  0  0  0  0  0  0  0  0  0
    7.2031  -18.2068   22.2203 C   0  0  1  0  0  0  0  0  0  0  0  0
    7.1837  -16.7139   22.4644 N   0  0  0  0  0  0  0  0  0  0  0  0
    7.8438  -15.9840   21.3818 C   0  0  0  0  0  0  0  0  0  0  0  0
    7.9866  -16.4619   23.6963 O   0  0  0  0  0  0  0  0  0  0  0  0
    9.2058  -16.1910   23.5666 N   0  0  0  0  0  0  0  0  0  0  0  0
    7.4398  -16.5146   24.9893 C   0  0  1  0  0  0  0  0  0  0  0  0
    8.2752  -16.2036   26.1205 C   0  0  0  0  0  0  0  0  0  0  0  0
    7.5065  -15.4716   27.1925 C   0  0  0  0  0  0  0  0  0  0  0  0
    7.1963  -14.1202   26.7416 C   0  0  0  0  0  0  0  0  0  0  0  0
    5.9319  -13.8161   26.3072 C   0  0  0  0  0  0  0  0  0  0  0  0
    5.5793  -12.5334   25.8922 C   0  0  0  0  0  0  0  0  0  0  0  0
    6.5628  -11.5528   25.9313 C   0  0  0  0  0  0  0  0  0  0  0  0
    7.8396  -11.8239   26.3611 C   0  0  0  0  0  0  0  0  0  0  0  0
    8.1418  -13.1290   26.7675 C   0  0  0  0  0  0  0  0  0  0  0  0
    8.8209  -17.4825   26.6148 O   0  0  0  0  0  0  0  0  0  0  0  0
    9.8744  -17.5180   27.5145 O   0  0  0  0  0  0  0  0  0  0  0  0
  2  1  1  0
  2  4  1  0
  3  2  2  0
  4  5  1  0
  5  6  1  0
  6  7  1  0
  7  8  1  0
  8  9  1  6
 10  8  1  0
 11 10  2  0
 13 12  1  6
 13 15  1  0
 13 14  1  0
 14 10  1  0
 15 17  1  0
 16 15  2  0
 17 18  1  0
 18 26  1  0
 19 20  1  0
 18 19  1  1
 20 25  2  0
 21 22  2  0
 21 20  1  0
 22 23  1  0
 23 24  2  0
 25 24  1  0
 26 28  2  0
 26 27  1  0
M  END
$$$$
