RAF.pdb
     RDKit          3D

 28 28  0  0  1  0  0  0  0  0999 V2000
    7.9216  -12.2962   17.2893 N   0  0  0  0  0  0  0  0  0  0  0  0
    7.8196  -13.4747   16.5007 C   0  0  0  0  0  0  0  0  0  0  0  0
    7.9364  -13.3334   15.2246 N   0  0  0  0  0  0  0  0  0  0  0  0
    7.5991  -14.7579   17.0739 N   0  0  0  0  0  0  0  0  0  0  0  0
    7.6057  -14.9000   18.5135 C   0  0  0  0  0  0  0  0  0  0  0  0
    7.2966  -16.3214   18.9336 C   0  0  0  0  0  0  0  0  0  0  0  0
    7.4423  -16.4227   20.4113 C   0  0  0  0  0  0  0  0  0  0  0  0
    8.8771  -16.3870   20.8790 C   0  0  2  0  0  0  0  0  0  0  0  0
    9.7819  -17.0432   19.9899 N   0  0  0  0  0  0  0  0  0  0  0  0
    9.0494  -16.9079   22.2398 C   0  0  0  0  0  0  0  0  0  0  0  0
    8.2871  -16.5981   23.1839 O   0  0  0  0  0  0  0  0  0  0  0  0
    7.9740  -14.1605   14.6001 C   0  0  0  0  0  0  0  0  0  0  0  0
   11.5262  -19.2590   23.9198 C   0  0  1  0  0  0  0  0  0  0  0  0
   10.4153  -18.2324   23.8914 N   0  0  0  0  0  0  0  0  0  0  0  0
   10.1166  -17.8019   22.5254 C   0  0  0  0  0  0  0  0  0  0  0  0
   10.9147  -17.0276   24.6156 O   0  0  0  0  0  0  0  0  0  0  0  0
   11.5337  -16.1537   23.9600 N   0  0  0  0  0  0  0  0  0  0  0  0
   10.7233  -16.8297   25.9932 C   0  0  1  0  0  0  0  0  0  0  0  0
   10.1362  -15.5974   26.4528 C   0  0  0  0  0  0  0  0  0  0  0  0
    8.8837  -15.2593   25.6826 C   0  0  0  0  0  0  0  0  0  0  0  0
    8.3216  -14.0089   26.1791 C   0  0  0  0  0  0  0  0  0  0  0  0
    6.9658  -13.8073   26.1485 C   0  0  0  0  0  0  0  0  0  0  0  0
    6.3788  -12.6412   26.6358 C   0  0  0  0  0  0  0  0  0  0  0  0
    7.2211  -11.6703   27.1634 C   0  0  0  0  0  0  0  0  0  0  0  0
    8.5839  -11.8407   27.2093 C   0  0  0  0  0  0  0  0  0  0  0  0
    9.1230  -13.0308   26.7066 C   0  0  0  0  0  0  0  0  0  0  0  0
    9.8647  -15.7631   27.8938 O   0  0  0  0  0  0  0  0  0  0  0  0
   10.2860  -14.8228   28.8204 O   0  0  0  0  0  0  0  0  0  0  0  0
  2  1  1  0
  2  4  1  0
  3  2  2  0
  4  5  1  0
  5  6  1  0
  6  7  1  0
  7  8  1  0
  8  9  1  6
 10  8  1  0
 11 10  2  0
 13 12  1  6
 13 15  1  0
 13 14  1  0
 14 10  1  0
 15 17  1  0
 16 15  2  0
 17 18  1  0
 18 26  1  0
 19 20  1  0
 18 19  1  1
 20 25  2  0
 21 22  2  0
 21 20  1  0
 22 23  1  0
 23 24  2  0
 25 24  1  0
 26 28  2  0
 26 27  1  0
M  END
$$$$
