RAF.pdb
     RDKit          3D

 28 28  0  0  1  0  0  0  0  0999 V2000
    8.8632  -21.9790   18.8130 N   0  0  0  0  0  0  0  0  0  0  0  0
    9.5002  -21.8441   20.0768 C   0  0  0  0  0  0  0  0  0  0  0  0
   10.7217  -22.2476   20.1592 N   0  0  0  0  0  0  0  0  0  0  0  0
    8.8376  -21.2927   21.2086 N   0  0  0  0  0  0  0  0  0  0  0  0
    7.4353  -20.9515   21.1104 C   0  0  0  0  0  0  0  0  0  0  0  0
    7.1995  -19.8552   20.0931 C   0  0  0  0  0  0  0  0  0  0  0  0
    7.4014  -18.5387   20.7574 C   0  0  0  0  0  0  0  0  0  0  0  0
    7.1709  -17.3607   19.8423 C   0  0  2  0  0  0  0  0  0  0  0  0
    7.2253  -17.6981   18.4555 N   0  0  0  0  0  0  0  0  0  0  0  0
    8.0724  -16.2362   20.1175 C   0  0  0  0  0  0  0  0  0  0  0  0
    9.3181  -16.3315   20.0302 O   0  0  0  0  0  0  0  0  0  0  0  0
   11.2455  -22.1760   21.0514 C   0  0  0  0  0  0  0  0  0  0  0  0
    7.6422  -12.5425   20.8424 C   0  0  1  0  0  0  0  0  0  0  0  0
    8.3986  -13.8525   20.8652 N   0  0  0  0  0  0  0  0  0  0  0  0
    7.5366  -14.9769   20.5004 C   0  0  0  0  0  0  0  0  0  0  0  0
    8.8256  -14.0863   22.2754 O   0  0  0  0  0  0  0  0  0  0  0  0
    9.6903  -13.3215   22.7696 N   0  0  0  0  0  0  0  0  0  0  0  0
    8.3044  -15.1205   23.0705 C   0  0  1  0  0  0  0  0  0  0  0  0
    8.7673  -15.2681   24.4264 C   0  0  0  0  0  0  0  0  0  0  0  0
    7.6166  -15.3702   25.3967 C   0  0  0  0  0  0  0  0  0  0  0  0
    7.1923  -14.0351   25.8012 C   0  0  0  0  0  0  0  0  0  0  0  0
    8.0752  -13.1977   26.4328 C   0  0  0  0  0  0  0  0  0  0  0  0
    7.7258  -11.9038   26.8144 C   0  0  0  0  0  0  0  0  0  0  0  0
    6.4338  -11.4779   26.5320 C   0  0  0  0  0  0  0  0  0  0  0  0
    5.5244  -12.2917   25.9002 C   0  0  0  0  0  0  0  0  0  0  0  0
    5.9262  -13.5827   25.5377 C   0  0  0  0  0  0  0  0  0  0  0  0
    9.6199  -16.4721   24.4597 O   0  0  0  0  0  0  0  0  0  0  0  0
   10.3078  -16.8377   25.6057 O   0  0  0  0  0  0  0  0  0  0  0  0
  2  1  1  0
  2  4  1  0
  3  2  2  0
  4  5  1  0
  5  6  1  0
  6  7  1  0
  7  8  1  0
  8  9  1  6
 10  8  1  0
 11 10  2  0
 13 12  1  6
 13 15  1  0
 13 14  1  0
 14 10  1  0
 15 17  1  0
 16 15  2  0
 17 18  1  0
 18 26  1  0
 19 20  1  0
 18 19  1  1
 20 25  2  0
 21 22  2  0
 21 20  1  0
 22 23  1  0
 23 24  2  0
 25 24  1  0
 26 28  2  0
 26 27  1  0
M  END
$$$$
