RAF.pdb
     RDKit          3D

 28 28  0  0  1  0  0  0  0  0999 V2000
    8.1083  -12.6403   16.3252 N   0  0  0  0  0  0  0  0  0  0  0  0
    7.8382  -13.8377   15.6078 C   0  0  0  0  0  0  0  0  0  0  0  0
    8.1993  -13.8693   14.3707 N   0  0  0  0  0  0  0  0  0  0  0  0
    7.2004  -14.9583   16.2091 N   0  0  0  0  0  0  0  0  0  0  0  0
    7.0979  -15.0244   17.6505 C   0  0  0  0  0  0  0  0  0  0  0  0
    8.4256  -14.7319   18.3166 C   0  0  0  0  0  0  0  0  0  0  0  0
    8.2709  -14.9140   19.7857 C   0  0  0  0  0  0  0  0  0  0  0  0
    8.4199  -16.3476   20.2339 C   0  0  2  0  0  0  0  0  0  0  0  0
    7.6978  -17.2754   19.4229 N   0  0  0  0  0  0  0  0  0  0  0  0
    8.0740  -16.5454   21.6461 C   0  0  0  0  0  0  0  0  0  0  0  0
    7.1473  -15.9188   22.2093 O   0  0  0  0  0  0  0  0  0  0  0  0
    8.0258  -14.7097   13.7884 C   0  0  0  0  0  0  0  0  0  0  0  0
    8.6654  -19.1956   24.1875 C   0  0  2  0  0  0  0  0  0  0  0  0
    8.4684  -17.7390   23.8296 N   0  0  0  0  0  0  0  0  0  0  0  0
    8.8040  -17.4799   22.4293 C   0  0  0  0  0  0  0  0  0  0  0  0
    9.4354  -16.9527   24.6494 O   0  0  0  0  0  0  0  0  0  0  0  0
   10.6195  -16.8565   24.2428 N   0  0  0  0  0  0  0  0  0  0  0  0
    9.0799  -16.3182   25.8513 C   0  0  1  0  0  0  0  0  0  0  0  0
   10.1048  -15.6956   26.6491 C   0  0  0  0  0  0  0  0  0  0  0  0
   10.1994  -14.2154   26.3727 C   0  0  0  0  0  0  0  0  0  0  0  0
    8.8770  -13.6094   26.4722 C   0  0  0  0  0  0  0  0  0  0  0  0
    8.5025  -12.9674   27.6242 C   0  0  0  0  0  0  0  0  0  0  0  0
    7.2606  -12.3496   27.7582 C   0  0  0  0  0  0  0  0  0  0  0  0
    6.3961  -12.4033   26.6718 C   0  0  0  0  0  0  0  0  0  0  0  0
    6.7403  -13.0384   25.5028 C   0  0  0  0  0  0  0  0  0  0  0  0
    8.0001  -13.6431   25.4200 C   0  0  0  0  0  0  0  0  0  0  0  0
    9.7741  -15.9687   28.0610 O   0  0  0  0  0  0  0  0  0  0  0  0
   10.6230  -15.5874   29.0878 O   0  0  0  0  0  0  0  0  0  0  0  0
  2  1  1  0
  2  4  1  0
  3  2  2  0
  4  5  1  0
  5  6  1  0
  6  7  1  0
  7  8  1  0
  8  9  1  6
 10  8  1  0
 11 10  2  0
 13 12  1  6
 13 15  1  0
 13 14  1  0
 14 10  1  0
 15 17  1  0
 16 15  2  0
 17 18  1  0
 18 26  1  0
 19 20  1  0
 18 19  1  1
 20 25  2  0
 21 22  2  0
 21 20  1  0
 22 23  1  0
 23 24  2  0
 25 24  1  0
 26 28  2  0
 26 27  1  0
M  END
$$$$
