RAF.pdb
     RDKit          3D

 28 28  0  0  1  0  0  0  0  0999 V2000
    6.9492  -20.0344   15.0846 N   0  0  0  0  0  0  0  0  0  0  0  0
    6.7589  -18.6357   14.9153 C   0  0  0  0  0  0  0  0  0  0  0  0
    6.4754  -18.2264   13.7262 N   0  0  0  0  0  0  0  0  0  0  0  0
    6.8719  -17.7156   15.9945 N   0  0  0  0  0  0  0  0  0  0  0  0
    7.9203  -17.8997   16.9740 C   0  0  0  0  0  0  0  0  0  0  0  0
    7.4631  -18.7770   18.1200 C   0  0  0  0  0  0  0  0  0  0  0  0
    8.5505  -18.8393   19.1343 C   0  0  0  0  0  0  0  0  0  0  0  0
    8.1668  -18.2420   20.4664 C   0  0  2  0  0  0  0  0  0  0  0  0
    6.7597  -18.2535   20.7110 N   0  0  0  0  0  0  0  0  0  0  0  0
    8.6955  -16.8872   20.6606 C   0  0  0  0  0  0  0  0  0  0  0  0
    9.8987  -16.5972   20.4691 O   0  0  0  0  0  0  0  0  0  0  0  0
    6.3480  -17.2163   13.5288 C   0  0  0  0  0  0  0  0  0  0  0  0
    7.2409  -13.4580   21.2251 C   0  0  2  0  0  0  0  0  0  0  0  0
    8.3281  -14.4993   21.3751 N   0  0  0  0  0  0  0  0  0  0  0  0
    7.8288  -15.8431   21.0827 C   0  0  0  0  0  0  0  0  0  0  0  0
    8.7359  -14.5019   22.8101 O   0  0  0  0  0  0  0  0  0  0  0  0
    9.3594  -13.5061   23.2531 N   0  0  0  0  0  0  0  0  0  0  0  0
    8.4538  -15.5658   23.6832 C   0  0  1  0  0  0  0  0  0  0  0  0
    8.7748  -15.4339   25.0810 C   0  0  0  0  0  0  0  0  0  0  0  0
    7.5304  -15.3712   25.9317 C   0  0  0  0  0  0  0  0  0  0  0  0
    7.2301  -13.9839   26.2652 C   0  0  0  0  0  0  0  0  0  0  0  0
    5.9274  -13.5607   26.3272 C   0  0  0  0  0  0  0  0  0  0  0  0
    5.5887  -12.2526   26.6679 C   0  0  0  0  0  0  0  0  0  0  0  0
    6.6267  -11.3727   26.9482 C   0  0  0  0  0  0  0  0  0  0  0  0
    7.9428  -11.7644   26.8954 C   0  0  0  0  0  0  0  0  0  0  0  0
    8.2291  -13.0900   26.5481 C   0  0  0  0  0  0  0  0  0  0  0  0
    9.6235  -16.5875   25.4367 O   0  0  0  0  0  0  0  0  0  0  0  0
    9.4905  -17.8071   24.7924 O   0  0  0  0  0  0  0  0  0  0  0  0
  2  1  1  0
  2  4  1  0
  3  2  2  0
  4  5  1  0
  5  6  1  0
  6  7  1  0
  7  8  1  0
  8  9  1  6
 10  8  1  0
 11 10  2  0
 13 12  1  6
 13 15  1  0
 13 14  1  0
 14 10  1  0
 15 17  1  0
 16 15  2  0
 17 18  1  0
 18 26  1  0
 19 20  1  0
 18 19  1  1
 20 25  2  0
 21 22  2  0
 21 20  1  0
 22 23  1  0
 23 24  2  0
 25 24  1  0
 26 28  2  0
 26 27  1  0
M  END
$$$$
