RAF.pdb
     RDKit          3D

 28 28  0  0  1  0  0  0  0  0999 V2000
    7.0952  -21.3161   15.9451 N   0  0  0  0  0  0  0  0  0  0  0  0
    5.8370  -21.5441   16.5665 C   0  0  0  0  0  0  0  0  0  0  0  0
    5.1842  -22.5911   16.1929 N   0  0  0  0  0  0  0  0  0  0  0  0
    5.3065  -20.6698   17.5555 N   0  0  0  0  0  0  0  0  0  0  0  0
    6.0494  -19.4843   17.9233 C   0  0  0  0  0  0  0  0  0  0  0  0
    7.3237  -19.8335   18.6624 C   0  0  0  0  0  0  0  0  0  0  0  0
    8.0661  -18.5760   18.9504 C   0  0  0  0  0  0  0  0  0  0  0  0
    7.8380  -18.0480   20.3460 C   0  0  2  0  0  0  0  0  0  0  0  0
    6.4570  -17.9173   20.6863 N   0  0  0  0  0  0  0  0  0  0  0  0
    8.5362  -16.7830   20.6014 C   0  0  0  0  0  0  0  0  0  0  0  0
    9.7731  -16.6521   20.4548 O   0  0  0  0  0  0  0  0  0  0  0  0
    4.2574  -22.8128   16.6018 C   0  0  0  0  0  0  0  0  0  0  0  0
    7.5650  -13.1975   20.9402 C   0  0  2  0  0  0  0  0  0  0  0  0
    8.4578  -14.3642   21.3018 N   0  0  0  0  0  0  0  0  0  0  0  0
    7.8032  -15.6448   21.0334 C   0  0  0  0  0  0  0  0  0  0  0  0
    8.6813  -14.3033   22.7756 O   0  0  0  0  0  0  0  0  0  0  0  0
    8.2010  -13.3322   23.4104 N   0  0  0  0  0  0  0  0  0  0  0  0
    9.4027  -15.2812   23.4804 C   0  0  1  0  0  0  0  0  0  0  0  0
    9.4585  -15.2156   24.9181 C   0  0  0  0  0  0  0  0  0  0  0  0
    8.0976  -15.4230   25.5355 C   0  0  0  0  0  0  0  0  0  0  0  0
    7.4886  -14.1319   25.8324 C   0  0  0  0  0  0  0  0  0  0  0  0
    6.2729  -13.8066   25.2883 C   0  0  0  0  0  0  0  0  0  0  0  0
    5.6378  -12.5970   25.5632 C   0  0  0  0  0  0  0  0  0  0  0  0
    6.2825  -11.7134   26.4198 C   0  0  0  0  0  0  0  0  0  0  0  0
    7.5011  -12.0084   26.9821 C   0  0  0  0  0  0  0  0  0  0  0  0
    8.0963  -13.2373   26.6734 C   0  0  0  0  0  0  0  0  0  0  0  0
   10.4213  -16.2441   25.3572 O   0  0  0  0  0  0  0  0  0  0  0  0
   11.0347  -16.1756   26.5979 O   0  0  0  0  0  0  0  0  0  0  0  0
  2  1  1  0
  2  4  1  0
  3  2  2  0
  4  5  1  0
  5  6  1  0
  6  7  1  0
  7  8  1  0
  8  9  1  6
 10  8  1  0
 11 10  2  0
 13 12  1  6
 13 15  1  0
 13 14  1  0
 14 10  1  0
 15 17  1  0
 16 15  2  0
 17 18  1  0
 18 26  1  0
 19 20  1  0
 18 19  1  1
 20 25  2  0
 21 22  2  0
 21 20  1  0
 22 23  1  0
 23 24  2  0
 25 24  1  0
 26 28  2  0
 26 27  1  0
M  END
$$$$
