RAF.pdb
     RDKit          3D

 28 28  0  0  1  0  0  0  0  0999 V2000
    8.8347  -12.9436   14.5820 N   0  0  0  0  0  0  0  0  0  0  0  0
    8.3530  -13.8727   15.5443 C   0  0  0  0  0  0  0  0  0  0  0  0
    8.8093  -15.0761   15.4711 N   0  0  0  0  0  0  0  0  0  0  0  0
    7.4118  -13.5107   16.5478 N   0  0  0  0  0  0  0  0  0  0  0  0
    7.5393  -14.0753   17.8736 C   0  0  0  0  0  0  0  0  0  0  0  0
    8.4116  -13.2151   18.7631 C   0  0  0  0  0  0  0  0  0  0  0  0
    8.3764  -13.7701   20.1436 C   0  0  0  0  0  0  0  0  0  0  0  0
    8.9376  -15.1677   20.2455 C   0  0  2  0  0  0  0  0  0  0  0  0
    8.6474  -15.9817   19.1084 N   0  0  0  0  0  0  0  0  0  0  0  0
    8.5294  -15.8612   21.4724 C   0  0  0  0  0  0  0  0  0  0  0  0
    7.3680  -16.2954   21.6489 O   0  0  0  0  0  0  0  0  0  0  0  0
    8.5943  -15.7713   16.2100 C   0  0  0  0  0  0  0  0  0  0  0  0
    9.9488  -18.2408   23.5562 C   0  0  2  0  0  0  0  0  0  0  0  0
    9.1838  -16.9393   23.6535 N   0  0  0  0  0  0  0  0  0  0  0  0
    9.4702  -16.0617   22.5184 C   0  0  0  0  0  0  0  0  0  0  0  0
    9.6772  -16.2320   24.8708 O   0  0  0  0  0  0  0  0  0  0  0  0
   10.6704  -15.4724   24.7558 N   0  0  0  0  0  0  0  0  0  0  0  0
    9.0812  -16.3787   26.1345 C   0  0  1  0  0  0  0  0  0  0  0  0
    9.5726  -15.5971   27.2399 C   0  0  0  0  0  0  0  0  0  0  0  0
    8.4576  -14.8512   27.9301 C   0  0  0  0  0  0  0  0  0  0  0  0
    7.9050  -13.8462   27.0298 C   0  0  0  0  0  0  0  0  0  0  0  0
    6.7748  -14.1231   26.3048 C   0  0  0  0  0  0  0  0  0  0  0  0
    6.1935  -13.1868   25.4520 C   0  0  0  0  0  0  0  0  0  0  0  0
    6.8022  -11.9417   25.3548 C   0  0  0  0  0  0  0  0  0  0  0  0
    7.9355  -11.6316   26.0675 C   0  0  0  0  0  0  0  0  0  0  0  0
    8.4794  -12.6081   26.9103 C   0  0  0  0  0  0  0  0  0  0  0  0
   10.2550  -16.5316   28.1558 O   0  0  0  0  0  0  0  0  0  0  0  0
   10.3080  -17.8910   27.8921 O   0  0  0  0  0  0  0  0  0  0  0  0
  2  1  1  0
  2  4  1  0
  3  2  2  0
  4  5  1  0
  5  6  1  0
  6  7  1  0
  7  8  1  0
  8  9  1  6
 10  8  1  0
 11 10  2  0
 13 12  1  6
 13 15  1  0
 13 14  1  0
 14 10  1  0
 15 17  1  0
 16 15  2  0
 17 18  1  0
 18 26  1  0
 19 20  1  0
 18 19  1  1
 20 25  2  0
 21 22  2  0
 21 20  1  0
 22 23  1  0
 23 24  2  0
 25 24  1  0
 26 28  2  0
 26 27  1  0
M  END
$$$$
