KSN.pdb
     RDKit          3D

 24 23  0  0  1  0  0  0  0  0999 V2000
   28.6540  -21.0748   -9.4633 N   0  0  0  0  0  0  0  0  0  0  0  0
   27.2271  -21.0496   -9.2764 C   0  0  1  0  0  0  0  0  0  0  0  0
   26.7504  -20.0889   -8.2278 C   0  0  0  0  0  0  0  0  0  0  0  0
   27.2423  -20.2964   -6.8497 C   0  0  0  0  0  0  0  0  0  0  0  0
   27.9745  -19.1367   -6.2503 C   0  0  0  0  0  0  0  0  0  0  0  0
   28.3551  -19.4232   -4.7963 C   0  0  0  0  0  0  0  0  0  0  0  0
   29.7238  -19.8850   -4.7670 N   0  0  0  0  0  0  0  0  0  0  0  0
   26.6389  -20.6516  -10.6084 C   0  0  0  0  0  0  0  0  0  0  0  0
   27.1413  -19.6608  -11.1587 O   0  0  0  0  0  0  0  0  0  0  0  0
   24.7228  -23.3092  -12.8997 O   0  0  0  0  0  0  0  0  0  0  0  0
   25.1867  -22.1429  -13.5048 C   0  0  0  0  0  0  0  0  0  0  0  0
   25.0486  -21.0297  -12.5245 C   0  0  2  0  0  0  0  0  0  0  0  0
   25.5799  -21.3455  -11.2172 N   0  0  0  0  0  0  0  0  0  0  0  0
   23.5712  -20.7786  -12.3458 C   0  0  0  0  0  0  0  0  0  0  0  0
   23.0098  -20.8794  -11.2245 O   0  0  0  0  0  0  0  0  0  0  0  0
   18.8228  -19.4736  -12.6676 N   0  0  0  0  0  0  0  0  0  0  0  0
   19.6825  -18.4189  -13.0793 C   0  0  0  0  0  0  0  0  0  0  0  0
   19.2832  -17.2294  -13.1664 O   0  0  0  0  0  0  0  0  0  0  0  0
   21.0823  -18.7286  -13.4139 C   0  0  0  0  0  0  0  0  0  0  0  0
   21.3182  -20.2203  -13.3302 C   0  0  2  0  0  0  0  0  0  0  0  0
   22.7607  -20.4149  -13.4613 N   0  0  0  0  0  0  0  0  0  0  0  0
   20.6890  -20.9301  -14.4743 C   0  0  0  0  0  0  0  0  0  0  0  0
   21.2691  -20.8160  -15.7408 O   0  0  0  0  0  0  0  0  0  0  0  0
   19.6542  -21.6374  -14.3791 O   0  0  0  0  0  0  0  0  0  0  0  0
  2  1  1  6
  3  2  1  0
  4  5  1  0
  4  3  1  0
  5  6  1  0
  6  7  1  0
  8 13  1  0
  8  2  1  0
  9  8  2  0
 10 11  1  0
 12 11  1  6
 12 13  1  0
 12 14  1  0
 14 15  2  0
 17 16  1  0
 17 19  1  0
 18 17  2  0
 20 19  1  6
 21 14  1  0
 21 20  1  0
 22 20  1  0
 22 23  1  0
 24 22  2  0
M  END
$$$$
