KSN.pdb
     RDKit          3D

 24 23  0  0  1  0  0  0  0  0999 V2000
   19.6524  -21.0887  -12.5642 N   0  0  0  0  0  0  0  0  0  0  0  0
   20.5399  -21.8277  -13.4231 C   0  0  1  0  0  0  0  0  0  0  0  0
   19.9147  -22.3186  -14.6952 C   0  0  0  0  0  0  0  0  0  0  0  0
   18.8843  -23.3714  -14.5774 C   0  0  0  0  0  0  0  0  0  0  0  0
   19.4009  -24.7391  -14.2566 C   0  0  0  0  0  0  0  0  0  0  0  0
   18.2670  -25.7663  -14.2602 C   0  0  0  0  0  0  0  0  0  0  0  0
   18.8326  -27.0691  -13.9945 N   0  0  0  0  0  0  0  0  0  0  0  0
   21.6697  -20.8866  -13.7646 C   0  0  0  0  0  0  0  0  0  0  0  0
   21.3532  -19.7157  -14.0208 O   0  0  0  0  0  0  0  0  0  0  0  0
   25.5192  -22.2694  -14.2018 O   0  0  0  0  0  0  0  0  0  0  0  0
   25.4472  -20.9501  -13.7593 C   0  0  0  0  0  0  0  0  0  0  0  0
   24.1135  -20.4085  -14.1426 C   0  0  2  0  0  0  0  0  0  0  0  0
   23.0163  -21.2854  -13.7986 N   0  0  0  0  0  0  0  0  0  0  0  0
   24.1073  -20.2710  -15.6455 C   0  0  0  0  0  0  0  0  0  0  0  0
   23.6961  -21.1929  -16.3964 O   0  0  0  0  0  0  0  0  0  0  0  0
   21.8559  -18.7900  -17.5239 N   0  0  0  0  0  0  0  0  0  0  0  0
   22.4901  -17.5512  -17.8142 C   0  0  0  0  0  0  0  0  0  0  0  0
   21.8370  -16.4860  -17.9582 O   0  0  0  0  0  0  0  0  0  0  0  0
   23.9555  -17.5143  -17.9504 C   0  0  0  0  0  0  0  0  0  0  0  0
   24.5338  -18.8916  -17.7123 C   0  0  2  0  0  0  0  0  0  0  0  0
   24.5748  -19.0736  -16.2628 N   0  0  0  0  0  0  0  0  0  0  0  0
   25.9386  -18.9757  -18.1900 C   0  0  0  0  0  0  0  0  0  0  0  0
   26.1902  -19.5134  -19.4552 O   0  0  0  0  0  0  0  0  0  0  0  0
   26.9318  -18.5901  -17.5228 O   0  0  0  0  0  0  0  0  0  0  0  0
  2  1  1  1
  3  2  1  0
  4  5  1  0
  4  3  1  0
  5  6  1  0
  6  7  1  0
  8 13  1  0
  8  2  1  0
  9  8  2  0
 10 11  1  0
 12 11  1  6
 12 13  1  0
 12 14  1  0
 14 15  2  0
 17 16  1  0
 17 19  1  0
 18 17  2  0
 20 19  1  1
 21 14  1  0
 21 20  1  0
 22 20  1  0
 22 23  1  0
 24 22  2  0
M  END
$$$$
