KSN.pdb
     RDKit          3D

 24 23  0  0  1  0  0  0  0  0999 V2000
   25.6968  -22.0912  -11.3254 N   0  0  0  0  0  0  0  0  0  0  0  0
   24.7494  -21.1189  -11.8035 C   0  0  1  0  0  0  0  0  0  0  0  0
   24.1776  -20.2277  -10.7412 C   0  0  0  0  0  0  0  0  0  0  0  0
   22.7368  -20.3709  -10.4449 C   0  0  0  0  0  0  0  0  0  0  0  0
   21.9617  -21.1979  -11.4224 C   0  0  0  0  0  0  0  0  0  0  0  0
   20.4637  -21.1461  -11.1152 C   0  0  0  0  0  0  0  0  0  0  0  0
   19.7745  -21.9839  -12.0695 N   0  0  0  0  0  0  0  0  0  0  0  0
   25.4930  -20.2701  -12.8062 C   0  0  0  0  0  0  0  0  0  0  0  0
   24.9036  -19.2601  -13.2178 O   0  0  0  0  0  0  0  0  0  0  0  0
   29.1396  -21.4736  -14.4799 O   0  0  0  0  0  0  0  0  0  0  0  0
   28.9351  -20.1019  -14.3456 C   0  0  0  0  0  0  0  0  0  0  0  0
   27.4660  -19.8565  -14.3160 C   0  0  2  0  0  0  0  0  0  0  0  0
   26.7831  -20.5810  -13.2673 N   0  0  0  0  0  0  0  0  0  0  0  0
   26.9078  -20.3561  -15.6262 C   0  0  0  0  0  0  0  0  0  0  0  0
   26.2847  -21.4457  -15.7118 O   0  0  0  0  0  0  0  0  0  0  0  0
   22.3887  -19.9579  -17.6153 N   0  0  0  0  0  0  0  0  0  0  0  0
   23.7331  -20.1077  -18.0524 C   0  0  0  0  0  0  0  0  0  0  0  0
   24.0494  -20.9033  -18.9737 O   0  0  0  0  0  0  0  0  0  0  0  0
   24.7868  -19.3075  -17.4069 C   0  0  0  0  0  0  0  0  0  0  0  0
   26.1440  -19.7094  -17.9402 C   0  0  2  0  0  0  0  0  0  0  0  0
   27.0751  -19.5939  -16.8196 N   0  0  0  0  0  0  0  0  0  0  0  0
   26.6155  -18.7607  -18.9825 C   0  0  0  0  0  0  0  0  0  0  0  0
   27.0431  -19.2677  -20.2128 O   0  0  0  0  0  0  0  0  0  0  0  0
   26.6566  -17.5135  -18.8306 O   0  0  0  0  0  0  0  0  0  0  0  0
  2  1  1  1
  3  2  1  0
  4  5  1  0
  4  3  1  0
  5  6  1  0
  6  7  1  0
  8 13  1  0
  8  2  1  0
  9  8  2  0
 10 11  1  0
 12 11  1  6
 12 13  1  0
 12 14  1  0
 14 15  2  0
 17 16  1  0
 17 19  1  0
 18 17  2  0
 20 19  1  1
 21 14  1  0
 21 20  1  0
 22 20  1  0
 22 23  1  0
 24 22  2  0
M  END
$$$$
