KSN.pdb
     RDKit          3D

 24 23  0  0  1  0  0  0  0  0999 V2000
   18.2810  -12.8191  -15.5307 N   0  0  0  0  0  0  0  0  0  0  0  0
   18.0712  -11.4543  -15.9364 C   0  0  1  0  0  0  0  0  0  0  0  0
   16.6915  -10.9282  -15.6723 C   0  0  0  0  0  0  0  0  0  0  0  0
   15.5643  -11.6442  -16.3054 C   0  0  0  0  0  0  0  0  0  0  0  0
   14.2118  -11.0518  -16.0609 C   0  0  0  0  0  0  0  0  0  0  0  0
   13.1324  -11.8190  -16.8271 C   0  0  0  0  0  0  0  0  0  0  0  0
   11.8396  -11.3499  -16.3840 N   0  0  0  0  0  0  0  0  0  0  0  0
   19.0668  -10.6296  -15.1571 C   0  0  0  0  0  0  0  0  0  0  0  0
   18.9657  -10.6660  -13.9221 O   0  0  0  0  0  0  0  0  0  0  0  0
   22.5034   -9.4346  -16.8770 O   0  0  0  0  0  0  0  0  0  0  0  0
   22.4728   -9.4720  -15.4845 C   0  0  0  0  0  0  0  0  0  0  0  0
   21.0900   -9.1338  -15.0454 C   0  0  2  0  0  0  0  0  0  0  0  0
   20.0650   -9.8530  -15.7687 N   0  0  0  0  0  0  0  0  0  0  0  0
   20.8805   -7.6674  -15.3346 C   0  0  0  0  0  0  0  0  0  0  0  0
   20.4539   -7.2627  -16.4469 O   0  0  0  0  0  0  0  0  0  0  0  0
   20.5849   -2.6469  -15.0393 N   0  0  0  0  0  0  0  0  0  0  0  0
   19.5753   -3.3523  -14.3293 C   0  0  0  0  0  0  0  0  0  0  0  0
   18.5510   -2.7769  -13.8803 O   0  0  0  0  0  0  0  0  0  0  0  0
   19.7337   -4.7998  -14.1131 C   0  0  0  0  0  0  0  0  0  0  0  0
   21.0819   -5.2566  -14.6248 C   0  0  2  0  0  0  0  0  0  0  0  0
   21.1653   -6.6873  -14.3387 N   0  0  0  0  0  0  0  0  0  0  0  0
   22.1899   -4.6091  -13.8751 C   0  0  0  0  0  0  0  0  0  0  0  0
   22.7833   -3.4605  -14.4061 O   0  0  0  0  0  0  0  0  0  0  0  0
   22.6369   -5.0311  -12.7785 O   0  0  0  0  0  0  0  0  0  0  0  0
  2  1  1  1
  3  2  1  0
  4  5  1  0
  4  3  1  0
  5  6  1  0
  6  7  1  0
  8 13  1  0
  8  2  1  0
  9  8  2  0
 10 11  1  0
 12 11  1  6
 12 13  1  0
 12 14  1  0
 14 15  2  0
 17 16  1  0
 17 19  1  0
 18 17  2  0
 20 19  1  1
 21 14  1  0
 21 20  1  0
 22 20  1  0
 22 23  1  0
 24 22  2  0
M  END
$$$$
