KSN.pdb
     RDKit          3D

 24 23  0  0  1  0  0  0  0  0999 V2000
   12.8541  -19.4863    4.1575 N   0  0  0  0  0  0  0  0  0  0  0  0
   14.2646  -19.7200    4.3225 C   0  0  1  0  0  0  0  0  0  0  0  0
   15.0387  -19.8059    3.0406 C   0  0  0  0  0  0  0  0  0  0  0  0
   14.6854  -20.8998    2.1118 C   0  0  0  0  0  0  0  0  0  0  0  0
   15.6028  -21.0663    0.9409 C   0  0  0  0  0  0  0  0  0  0  0  0
   15.1582  -22.2359    0.0603 C   0  0  0  0  0  0  0  0  0  0  0  0
   16.0422  -22.3081   -1.0803 N   0  0  0  0  0  0  0  0  0  0  0  0
   14.7878  -18.5590    5.1331 C   0  0  0  0  0  0  0  0  0  0  0  0
   14.2493  -17.4603    4.9333 O   0  0  0  0  0  0  0  0  0  0  0  0
   17.8016  -19.1208    7.8621 O   0  0  0  0  0  0  0  0  0  0  0  0
   16.8215  -18.2160    8.2646 C   0  0  0  0  0  0  0  0  0  0  0  0
   16.1698  -17.6694    7.0416 C   0  0  2  0  0  0  0  0  0  0  0  0
   15.8267  -18.6844    6.0704 N   0  0  0  0  0  0  0  0  0  0  0  0
   17.1696  -16.7528    6.3799 C   0  0  0  0  0  0  0  0  0  0  0  0
   17.9164  -17.1454    5.4466 O   0  0  0  0  0  0  0  0  0  0  0  0
   19.9425  -12.6463    5.1983 N   0  0  0  0  0  0  0  0  0  0  0  0
   18.5736  -12.2753    5.2946 C   0  0  0  0  0  0  0  0  0  0  0  0
   18.1656  -11.1376    4.9468 O   0  0  0  0  0  0  0  0  0  0  0  0
   17.6044  -13.2524    5.8174 C   0  0  0  0  0  0  0  0  0  0  0  0
   18.3199  -14.5131    6.2493 C   0  0  2  0  0  0  0  0  0  0  0  0
   17.2955  -15.3966    6.8023 N   0  0  0  0  0  0  0  0  0  0  0  0
   19.2804  -14.2372    7.3494 C   0  0  0  0  0  0  0  0  0  0  0  0
   20.5028  -13.6330    7.0425 O   0  0  0  0  0  0  0  0  0  0  0  0
   19.0649  -14.5149    8.5564 O   0  0  0  0  0  0  0  0  0  0  0  0
  2  1  1  6
  3  2  1  0
  4  5  1  0
  4  3  1  0
  5  6  1  0
  6  7  1  0
  8 13  1  0
  8  2  1  0
  9  8  2  0
 10 11  1  0
 12 11  1  1
 12 13  1  0
 12 14  1  0
 14 15  2  0
 17 16  1  0
 17 19  1  0
 18 17  2  0
 20 19  1  1
 21 14  1  0
 21 20  1  0
 22 20  1  0
 22 23  1  0
 24 22  2  0
M  END
$$$$
