KSN.pdb
     RDKit          3D

 24 23  0  0  1  0  0  0  0  0999 V2000
   21.0893  -15.2824  -18.9168 N   0  0  0  0  0  0  0  0  0  0  0  0
   20.2106  -14.5510  -18.0424 C   0  0  1  0  0  0  0  0  0  0  0  0
   20.0185  -15.1686  -16.6890 C   0  0  0  0  0  0  0  0  0  0  0  0
   19.4800  -16.5442  -16.6461 C   0  0  0  0  0  0  0  0  0  0  0  0
   18.0757  -16.6661  -16.1427 C   0  0  0  0  0  0  0  0  0  0  0  0
   17.6392  -18.1316  -16.0904 C   0  0  0  0  0  0  0  0  0  0  0  0
   16.2654  -18.1814  -15.6455 N   0  0  0  0  0  0  0  0  0  0  0  0
   20.8320  -13.1857  -17.8733 C   0  0  0  0  0  0  0  0  0  0  0  0
   21.6840  -13.0748  -16.9797 O   0  0  0  0  0  0  0  0  0  0  0  0
   19.4222   -9.7834  -19.8631 O   0  0  0  0  0  0  0  0  0  0  0  0
   20.8017   -9.8709  -19.6878 C   0  0  0  0  0  0  0  0  0  0  0  0
   21.0618  -10.7633  -18.5236 C   0  0  2  0  0  0  0  0  0  0  0  0
   20.4849  -12.0813  -18.6692 N   0  0  0  0  0  0  0  0  0  0  0  0
   20.4021  -10.1285  -17.3238 C   0  0  0  0  0  0  0  0  0  0  0  0
   19.3130  -10.5547  -16.8601 O   0  0  0  0  0  0  0  0  0  0  0  0
   19.4128   -7.5533  -13.1413 N   0  0  0  0  0  0  0  0  0  0  0  0
   20.0046   -8.8458  -13.1227 C   0  0  0  0  0  0  0  0  0  0  0  0
   20.0982   -9.5205  -12.0654 O   0  0  0  0  0  0  0  0  0  0  0  0
   20.5236   -9.4113  -14.3789 C   0  0  0  0  0  0  0  0  0  0  0  0
   20.4064   -8.3951  -15.4931 C   0  0  2  0  0  0  0  0  0  0  0  0
   21.0060   -9.0117  -16.6747 N   0  0  0  0  0  0  0  0  0  0  0  0
   21.2064   -7.1778  -15.1981 C   0  0  0  0  0  0  0  0  0  0  0  0
   20.6369   -6.1688  -14.4165 O   0  0  0  0  0  0  0  0  0  0  0  0
   22.3792   -6.9909  -15.6104 O   0  0  0  0  0  0  0  0  0  0  0  0
  2  1  1  6
  3  2  1  0
  4  5  1  0
  4  3  1  0
  5  6  1  0
  6  7  1  0
  8 13  1  0
  8  2  1  0
  9  8  2  0
 10 11  1  0
 12 11  1  6
 12 13  1  0
 12 14  1  0
 14 15  2  0
 17 16  1  0
 17 19  1  0
 18 17  2  0
 20 19  1  1
 21 14  1  0
 21 20  1  0
 22 20  1  0
 22 23  1  0
 24 22  2  0
M  END
$$$$
