KSN.pdb
     RDKit          3D

 24 23  0  0  1  0  0  0  0  0999 V2000
   19.8170  -12.9266  -16.4744 N   0  0  0  0  0  0  0  0  0  0  0  0
   19.5681  -11.5831  -16.9265 C   0  0  1  0  0  0  0  0  0  0  0  0
   18.1440  -11.1315  -16.7921 C   0  0  0  0  0  0  0  0  0  0  0  0
   17.0910  -12.1221  -17.0985 C   0  0  0  0  0  0  0  0  0  0  0  0
   15.6903  -11.5947  -17.0753 C   0  0  0  0  0  0  0  0  0  0  0  0
   14.6864  -12.6947  -17.4260 C   0  0  0  0  0  0  0  0  0  0  0  0
   13.3642  -12.1126  -17.4508 N   0  0  0  0  0  0  0  0  0  0  0  0
   20.4462  -10.6899  -16.0839 C   0  0  0  0  0  0  0  0  0  0  0  0
   20.2541  -10.7246  -14.8597 O   0  0  0  0  0  0  0  0  0  0  0  0
   24.2859   -7.8567  -15.5575 O   0  0  0  0  0  0  0  0  0  0  0  0
   23.6046   -8.7268  -16.4061 C   0  0  0  0  0  0  0  0  0  0  0  0
   22.2383   -8.9358  -15.8503 C   0  0  2  0  0  0  0  0  0  0  0  0
   21.4357   -9.8539  -16.6275 N   0  0  0  0  0  0  0  0  0  0  0  0
   21.5357   -7.6007  -15.8904 C   0  0  0  0  0  0  0  0  0  0  0  0
   20.8205   -7.2540  -16.8656 O   0  0  0  0  0  0  0  0  0  0  0  0
   17.5988   -4.2163  -15.3450 N   0  0  0  0  0  0  0  0  0  0  0  0
   18.9269   -4.2110  -14.8382 C   0  0  0  0  0  0  0  0  0  0  0  0
   19.5333   -3.1422  -14.5698 O   0  0  0  0  0  0  0  0  0  0  0  0
   19.6132   -5.4952  -14.6212 C   0  0  0  0  0  0  0  0  0  0  0  0
   21.0974   -5.3386  -14.8670 C   0  0  2  0  0  0  0  0  0  0  0  0
   21.6667   -6.6833  -14.8066 N   0  0  0  0  0  0  0  0  0  0  0  0
   21.7434   -4.5557  -13.7814 C   0  0  0  0  0  0  0  0  0  0  0  0
   21.7011   -3.1598  -13.8389 O   0  0  0  0  0  0  0  0  0  0  0  0
   22.3347   -5.0716  -12.7994 O   0  0  0  0  0  0  0  0  0  0  0  0
  2  1  1  1
  3  2  1  0
  4  5  1  0
  4  3  1  0
  5  6  1  0
  6  7  1  0
  8 13  1  0
  8  2  1  0
  9  8  2  0
 10 11  1  0
 12 11  1  6
 12 13  1  0
 12 14  1  0
 14 15  2  0
 17 16  1  0
 17 19  1  0
 18 17  2  0
 20 19  1  1
 21 14  1  0
 21 20  1  0
 22 20  1  0
 22 23  1  0
 24 22  2  0
M  END
$$$$
