KSN.pdb
     RDKit          3D

 24 23  0  0  1  0  0  0  0  0999 V2000
   18.3465  -13.1661  -15.5394 N   0  0  0  0  0  0  0  0  0  0  0  0
   18.2567  -11.9103  -16.2369 C   0  0  1  0  0  0  0  0  0  0  0  0
   16.8934  -11.2848  -16.2261 C   0  0  0  0  0  0  0  0  0  0  0  0
   15.7878  -12.0678  -16.8166 C   0  0  0  0  0  0  0  0  0  0  0  0
   14.4333  -11.4387  -16.7159 C   0  0  0  0  0  0  0  0  0  0  0  0
   13.3812  -12.2894  -17.4304 C   0  0  0  0  0  0  0  0  0  0  0  0
   12.1068  -11.6161  -17.3293 N   0  0  0  0  0  0  0  0  0  0  0  0
   19.2270  -10.9808  -15.5490 C   0  0  0  0  0  0  0  0  0  0  0  0
   19.1113  -10.8752  -14.3193 O   0  0  0  0  0  0  0  0  0  0  0  0
   23.3454   -8.5534  -15.4883 O   0  0  0  0  0  0  0  0  0  0  0  0
   22.5446   -9.4852  -16.1456 C   0  0  0  0  0  0  0  0  0  0  0  0
   21.1631   -9.3708  -15.6001 C   0  0  2  0  0  0  0  0  0  0  0  0
   20.2179  -10.2607  -16.2369 N   0  0  0  0  0  0  0  0  0  0  0  0
   20.6930   -7.9638  -15.8781 C   0  0  0  0  0  0  0  0  0  0  0  0
   20.1048   -7.6578  -16.9472 O   0  0  0  0  0  0  0  0  0  0  0  0
   18.0274   -3.5947  -15.9129 N   0  0  0  0  0  0  0  0  0  0  0  0
   18.6056   -4.0500  -14.6966 C   0  0  0  0  0  0  0  0  0  0  0  0
   18.7278   -3.2991  -13.6950 O   0  0  0  0  0  0  0  0  0  0  0  0
   19.0756   -5.4422  -14.6070 C   0  0  0  0  0  0  0  0  0  0  0  0
   20.4758   -5.5545  -15.1680 C   0  0  2  0  0  0  0  0  0  0  0  0
   20.9071   -6.9288  -14.9208 N   0  0  0  0  0  0  0  0  0  0  0  0
   21.4222   -4.6747  -14.4338 C   0  0  0  0  0  0  0  0  0  0  0  0
   21.5267   -3.3328  -14.8102 O   0  0  0  0  0  0  0  0  0  0  0  0
   22.1469   -5.0616  -13.4822 O   0  0  0  0  0  0  0  0  0  0  0  0
  2  1  1  1
  3  2  1  0
  4  5  1  0
  4  3  1  0
  5  6  1  0
  6  7  1  0
  8 13  1  0
  8  2  1  0
  9  8  2  0
 10 11  1  0
 12 11  1  6
 12 13  1  0
 12 14  1  0
 14 15  2  0
 17 16  1  0
 17 19  1  0
 18 17  2  0
 20 19  1  1
 21 14  1  0
 21 20  1  0
 22 20  1  0
 22 23  1  0
 24 22  2  0
M  END
$$$$
