KSN.pdb
     RDKit          3D

 24 23  0  0  1  0  0  0  0  0999 V2000
   20.7153  -14.6638  -18.9090 N   0  0  0  0  0  0  0  0  0  0  0  0
   19.6454  -13.7037  -18.9819 C   0  0  1  0  0  0  0  0  0  0  0  0
   18.5271  -13.9384  -18.0102 C   0  0  0  0  0  0  0  0  0  0  0  0
   18.0110  -15.3185  -17.8968 C   0  0  0  0  0  0  0  0  0  0  0  0
   16.9415  -15.5193  -16.8691 C   0  0  0  0  0  0  0  0  0  0  0  0
   16.5337  -16.9915  -16.7851 C   0  0  0  0  0  0  0  0  0  0  0  0
   15.6403  -17.1526  -15.6610 N   0  0  0  0  0  0  0  0  0  0  0  0
   20.2703  -12.3602  -18.6936 C   0  0  0  0  0  0  0  0  0  0  0  0
   21.1682  -12.3420  -17.8390 O   0  0  0  0  0  0  0  0  0  0  0  0
   20.7815   -7.6880  -19.8538 O   0  0  0  0  0  0  0  0  0  0  0  0
   20.0443   -8.8462  -20.0917 C   0  0  0  0  0  0  0  0  0  0  0  0
   20.5152   -9.8942  -19.1434 C   0  0  2  0  0  0  0  0  0  0  0  0
   19.8778  -11.1770  -19.3414 N   0  0  0  0  0  0  0  0  0  0  0  0
   20.1449   -9.4328  -17.7550 C   0  0  0  0  0  0  0  0  0  0  0  0
   19.2220   -9.9782  -17.0964 O   0  0  0  0  0  0  0  0  0  0  0  0
   21.2633   -9.1318  -12.4301 N   0  0  0  0  0  0  0  0  0  0  0  0
   20.4833   -8.5653  -13.4749 C   0  0  0  0  0  0  0  0  0  0  0  0
   19.5982   -7.7000  -13.2515 O   0  0  0  0  0  0  0  0  0  0  0  0
   20.7186   -9.0050  -14.8600 C   0  0  0  0  0  0  0  0  0  0  0  0
   20.4828   -7.8569  -15.8162 C   0  0  2  0  0  0  0  0  0  0  0  0
   20.8426   -8.3494  -17.1443 N   0  0  0  0  0  0  0  0  0  0  0  0
   21.3927   -6.7184  -15.5254 C   0  0  0  0  0  0  0  0  0  0  0  0
   22.3355   -6.3452  -16.4874 O   0  0  0  0  0  0  0  0  0  0  0  0
   21.3720   -6.0578  -14.4561 O   0  0  0  0  0  0  0  0  0  0  0  0
  2  1  1  1
  3  2  1  0
  4  5  1  0
  4  3  1  0
  5  6  1  0
  6  7  1  0
  8 13  1  0
  8  2  1  0
  9  8  2  0
 10 11  1  0
 12 11  1  6
 12 13  1  0
 12 14  1  0
 14 15  2  0
 17 16  1  0
 17 19  1  0
 18 17  2  0
 20 19  1  1
 21 14  1  0
 21 20  1  0
 22 20  1  0
 22 23  1  0
 24 22  2  0
M  END
$$$$
