KSN.pdb
     RDKit          3D

 24 23  0  0  1  0  0  0  0  0999 V2000
   24.1285  -13.5568  -17.0792 N   0  0  0  0  0  0  0  0  0  0  0  0
   24.3717  -12.4161  -16.2359 C   0  0  1  0  0  0  0  0  0  0  0  0
   25.7388  -11.8148  -16.3757 C   0  0  0  0  0  0  0  0  0  0  0  0
   26.7995  -12.6760  -16.9390 C   0  0  0  0  0  0  0  0  0  0  0  0
   28.1556  -12.0481  -17.0239 C   0  0  0  0  0  0  0  0  0  0  0  0
   29.1692  -13.0173  -17.6356 C   0  0  0  0  0  0  0  0  0  0  0  0
   30.4411  -12.3396  -17.7392 N   0  0  0  0  0  0  0  0  0  0  0  0
   23.3411  -11.3834  -16.6237 C   0  0  0  0  0  0  0  0  0  0  0  0
   23.0363  -11.3329  -17.8242 O   0  0  0  0  0  0  0  0  0  0  0  0
   20.3320  -10.3920  -14.4192 O   0  0  0  0  0  0  0  0  0  0  0  0
   20.3590   -9.9260  -15.7320 C   0  0  0  0  0  0  0  0  0  0  0  0
   21.7559   -9.5137  -16.0452 C   0  0  2  0  0  0  0  0  0  0  0  0
   22.7418  -10.5130  -15.6981 N   0  0  0  0  0  0  0  0  0  0  0  0
   22.0558   -8.2952  -15.2068 C   0  0  0  0  0  0  0  0  0  0  0  0
   22.5818   -8.3845  -14.0674 O   0  0  0  0  0  0  0  0  0  0  0  0
   22.3047   -3.4187  -13.6774 N   0  0  0  0  0  0  0  0  0  0  0  0
   22.4128   -3.4063  -15.0948 C   0  0  0  0  0  0  0  0  0  0  0  0
   22.6607   -2.3523  -15.7348 O   0  0  0  0  0  0  0  0  0  0  0  0
   22.2287   -4.6650  -15.8357 C   0  0  0  0  0  0  0  0  0  0  0  0
   21.9525   -5.7984  -14.8729 C   0  0  2  0  0  0  0  0  0  0  0  0
   21.7458   -6.9907  -15.6923 N   0  0  0  0  0  0  0  0  0  0  0  0
   20.6879   -5.5736  -14.1251 C   0  0  0  0  0  0  0  0  0  0  0  0
   20.7520   -5.0342  -12.8373 O   0  0  0  0  0  0  0  0  0  0  0  0
   19.5463   -5.8400  -14.5792 O   0  0  0  0  0  0  0  0  0  0  0  0
  2  1  1  6
  3  2  1  0
  4  5  1  0
  4  3  1  0
  5  6  1  0
  6  7  1  0
  8 13  1  0
  8  2  1  0
  9  8  2  0
 10 11  1  0
 12 11  1  1
 12 13  1  0
 12 14  1  0
 14 15  2  0
 17 16  1  0
 17 19  1  0
 18 17  2  0
 20 19  1  6
 21 14  1  0
 21 20  1  0
 22 20  1  0
 22 23  1  0
 24 22  2  0
M  END
$$$$
