KSN.pdb
     RDKit          3D

 24 23  0  0  1  0  0  0  0  0999 V2000
   17.1134  -12.5283  -15.0603 N   0  0  0  0  0  0  0  0  0  0  0  0
   17.0934  -11.4406  -16.0027 C   0  0  1  0  0  0  0  0  0  0  0  0
   15.9149  -11.4383  -16.9306 C   0  0  0  0  0  0  0  0  0  0  0  0
   15.7606  -12.6029  -17.8272 C   0  0  0  0  0  0  0  0  0  0  0  0
   14.5744  -12.5558  -18.7388 C   0  0  0  0  0  0  0  0  0  0  0  0
   14.5488  -13.7728  -19.6658 C   0  0  0  0  0  0  0  0  0  0  0  0
   15.7710  -13.7833  -20.4364 N   0  0  0  0  0  0  0  0  0  0  0  0
   17.0703  -10.1756  -15.1793 C   0  0  0  0  0  0  0  0  0  0  0  0
   16.0293   -9.9498  -14.5452 O   0  0  0  0  0  0  0  0  0  0  0  0
   19.2025   -8.9888  -12.4821 O   0  0  0  0  0  0  0  0  0  0  0  0
   18.0667   -8.2837  -12.8746 C   0  0  0  0  0  0  0  0  0  0  0  0
   18.1500   -8.0587  -14.3448 C   0  0  2  0  0  0  0  0  0  0  0  0
   18.1531   -9.2828  -15.1146 N   0  0  0  0  0  0  0  0  0  0  0  0
   19.4667   -7.3715  -14.6131 C   0  0  0  0  0  0  0  0  0  0  0  0
   20.4998   -8.0143  -14.9329 O   0  0  0  0  0  0  0  0  0  0  0  0
   22.9232   -3.6842  -15.3945 N   0  0  0  0  0  0  0  0  0  0  0  0
   21.6837   -3.0069  -15.2331 C   0  0  0  0  0  0  0  0  0  0  0  0
   21.5911   -1.7560  -15.3251 O   0  0  0  0  0  0  0  0  0  0  0  0
   20.4722   -3.7937  -14.9495 C   0  0  0  0  0  0  0  0  0  0  0  0
   20.8264   -5.2567  -14.8006 C   0  0  2  0  0  0  0  0  0  0  0  0
   19.5752   -5.9534  -14.5092 N   0  0  0  0  0  0  0  0  0  0  0  0
   21.7173   -5.4788  -13.6320 C   0  0  0  0  0  0  0  0  0  0  0  0
   23.0964   -5.3212  -13.7950 O   0  0  0  0  0  0  0  0  0  0  0  0
   21.3084   -5.8041  -12.4886 O   0  0  0  0  0  0  0  0  0  0  0  0
  2  1  1  1
  3  2  1  0
  4  5  1  0
  4  3  1  0
  5  6  1  0
  6  7  1  0
  8 13  1  0
  8  2  1  0
  9  8  2  0
 10 11  1  0
 12 11  1  1
 12 13  1  0
 12 14  1  0
 14 15  2  0
 17 16  1  0
 17 19  1  0
 18 17  2  0
 20 19  1  1
 21 14  1  0
 21 20  1  0
 22 20  1  0
 22 23  1  0
 24 22  2  0
M  END
$$$$
