KSN.pdb
     RDKit          3D

 24 23  0  0  1  0  0  0  0  0999 V2000
   21.5485  -19.6923  -14.4134 N   0  0  0  0  0  0  0  0  0  0  0  0
   21.5176  -19.0468  -15.6995 C   0  0  1  0  0  0  0  0  0  0  0  0
   20.3108  -19.3663  -16.5310 C   0  0  0  0  0  0  0  0  0  0  0  0
   19.9215  -20.7881  -16.6356 C   0  0  0  0  0  0  0  0  0  0  0  0
   18.4681  -21.0712  -16.4169 C   0  0  0  0  0  0  0  0  0  0  0  0
   18.1483  -22.5399  -16.7026 C   0  0  0  0  0  0  0  0  0  0  0  0
   16.7380  -22.7518  -16.4704 N   0  0  0  0  0  0  0  0  0  0  0  0
   21.5419  -17.5631  -15.4222 C   0  0  0  0  0  0  0  0  0  0  0  0
   20.9417  -17.1825  -14.4064 O   0  0  0  0  0  0  0  0  0  0  0  0
   23.5052  -15.0935  -17.9611 O   0  0  0  0  0  0  0  0  0  0  0  0
   23.3989  -14.5421  -16.6859 C   0  0  0  0  0  0  0  0  0  0  0  0
   22.2727  -15.2194  -15.9843 C   0  0  2  0  0  0  0  0  0  0  0  0
   22.1997  -16.6388  -16.2506 N   0  0  0  0  0  0  0  0  0  0  0  0
   20.9951  -14.6109  -16.5089 C   0  0  0  0  0  0  0  0  0  0  0  0
   20.1465  -15.2891  -17.1435 O   0  0  0  0  0  0  0  0  0  0  0  0
   17.1175  -11.5304  -17.4362 N   0  0  0  0  0  0  0  0  0  0  0  0
   17.0760  -12.6278  -16.5336 C   0  0  0  0  0  0  0  0  0  0  0  0
   15.9929  -13.0710  -16.0729 O   0  0  0  0  0  0  0  0  0  0  0  0
   18.3391  -13.2645  -16.1257 C   0  0  0  0  0  0  0  0  0  0  0  0
   19.5043  -12.6028  -16.8275 C   0  0  2  0  0  0  0  0  0  0  0  0
   20.7125  -13.2296  -16.2954 N   0  0  0  0  0  0  0  0  0  0  0  0
   19.5897  -11.1591  -16.4850 C   0  0  0  0  0  0  0  0  0  0  0  0
   18.5529  -10.3092  -16.8801 O   0  0  0  0  0  0  0  0  0  0  0  0
   20.5462  -10.6421  -15.8541 O   0  0  0  0  0  0  0  0  0  0  0  0
  2  1  1  1
  3  2  1  0
  4  5  1  0
  4  3  1  0
  5  6  1  0
  6  7  1  0
  8 13  1  0
  8  2  1  0
  9  8  2  0
 10 11  1  0
 12 11  1  6
 12 13  1  0
 12 14  1  0
 14 15  2  0
 17 16  1  0
 17 19  1  0
 18 17  2  0
 20 19  1  1
 21 14  1  0
 21 20  1  0
 22 20  1  0
 22 23  1  0
 24 22  2  0
M  END
$$$$
