KSN.pdb
     RDKit          3D

 24 23  0  0  1  0  0  0  0  0999 V2000
   26.0745  -22.1308  -11.3353 N   0  0  0  0  0  0  0  0  0  0  0  0
   25.2811  -20.9306  -11.2958 C   0  0  1  0  0  0  0  0  0  0  0  0
   25.6031  -20.0049  -10.1603 C   0  0  0  0  0  0  0  0  0  0  0  0
   25.1940  -20.4318   -8.8059 C   0  0  0  0  0  0  0  0  0  0  0  0
   23.8396  -21.0625   -8.7157 C   0  0  0  0  0  0  0  0  0  0  0  0
   23.4795  -21.3782   -7.2625 C   0  0  0  0  0  0  0  0  0  0  0  0
   22.1753  -21.9997   -7.2419 N   0  0  0  0  0  0  0  0  0  0  0  0
   25.5419  -20.2152  -12.5993 C   0  0  0  0  0  0  0  0  0  0  0  0
   24.8228  -19.2353  -12.8435 O   0  0  0  0  0  0  0  0  0  0  0  0
   27.9342  -21.9099  -15.4090 O   0  0  0  0  0  0  0  0  0  0  0  0
   27.9517  -20.5204  -15.5106 C   0  0  0  0  0  0  0  0  0  0  0  0
   26.7576  -19.9917  -14.7937 C   0  0  2  0  0  0  0  0  0  0  0  0
   26.5374  -20.6135  -13.5069 N   0  0  0  0  0  0  0  0  0  0  0  0
   25.5531  -20.3122  -15.6448 C   0  0  0  0  0  0  0  0  0  0  0  0
   24.8864  -21.3669  -15.4843 O   0  0  0  0  0  0  0  0  0  0  0  0
   20.4246  -18.6881  -16.5754 N   0  0  0  0  0  0  0  0  0  0  0  0
   21.4534  -19.5972  -16.9443 C   0  0  0  0  0  0  0  0  0  0  0  0
   21.2643  -20.5104  -17.7882 O   0  0  0  0  0  0  0  0  0  0  0  0
   22.7799  -19.4656  -16.3197 C   0  0  0  0  0  0  0  0  0  0  0  0
   23.8623  -19.5881  -17.3691 C   0  0  2  0  0  0  0  0  0  0  0  0
   25.1332  -19.4133  -16.6691 N   0  0  0  0  0  0  0  0  0  0  0  0
   23.7728  -18.4893  -18.3658 C   0  0  0  0  0  0  0  0  0  0  0  0
   22.9596  -18.6618  -19.4894 O   0  0  0  0  0  0  0  0  0  0  0  0
   24.3886  -17.3980  -18.2656 O   0  0  0  0  0  0  0  0  0  0  0  0
  2  1  1  1
  3  2  1  0
  4  5  1  0
  4  3  1  0
  5  6  1  0
  6  7  1  0
  8 13  1  0
  8  2  1  0
  9  8  2  0
 10 11  1  0
 12 11  1  6
 12 13  1  0
 12 14  1  0
 14 15  2  0
 17 16  1  0
 17 19  1  0
 18 17  2  0
 20 19  1  1
 21 14  1  0
 21 20  1  0
 22 20  1  0
 22 23  1  0
 24 22  2  0
M  END
$$$$
