KSN.pdb
     RDKit          3D

 24 23  0  0  1  0  0  0  0  0999 V2000
   20.9707  -14.3231  -15.8619 N   0  0  0  0  0  0  0  0  0  0  0  0
   20.4573  -14.4379  -17.2016 C   0  0  1  0  0  0  0  0  0  0  0  0
   19.4915  -15.5672  -17.4068 C   0  0  0  0  0  0  0  0  0  0  0  0
   19.2495  -16.4644  -16.2576 C   0  0  0  0  0  0  0  0  0  0  0  0
   20.2935  -17.5133  -16.0338 C   0  0  0  0  0  0  0  0  0  0  0  0
   19.8831  -18.4606  -14.9046 C   0  0  0  0  0  0  0  0  0  0  0  0
   20.9240  -19.4490  -14.7392 N   0  0  0  0  0  0  0  0  0  0  0  0
   19.7542  -13.1340  -17.4920 C   0  0  0  0  0  0  0  0  0  0  0  0
   19.0786  -13.0916  -18.5306 O   0  0  0  0  0  0  0  0  0  0  0  0
   17.6990  -10.9890  -15.0858 O   0  0  0  0  0  0  0  0  0  0  0  0
   17.7304  -10.7740  -16.4621 C   0  0  0  0  0  0  0  0  0  0  0  0
   19.1562  -10.7618  -16.8935 C   0  0  2  0  0  0  0  0  0  0  0  0
   19.8411  -12.0121  -16.6510 N   0  0  0  0  0  0  0  0  0  0  0  0
   19.8590   -9.7122  -16.0676 C   0  0  0  0  0  0  0  0  0  0  0  0
   20.3913   -9.9829  -14.9603 O   0  0  0  0  0  0  0  0  0  0  0  0
   22.8989   -5.0353  -15.8790 N   0  0  0  0  0  0  0  0  0  0  0  0
   21.4830   -5.0502  -16.0048 C   0  0  0  0  0  0  0  0  0  0  0  0
   20.7623   -4.1351  -15.5303 O   0  0  0  0  0  0  0  0  0  0  0  0
   20.8410   -6.1706  -16.7117 C   0  0  0  0  0  0  0  0  0  0  0  0
   20.6402   -7.3340  -15.7663 C   0  0  2  0  0  0  0  0  0  0  0  0
   19.9390   -8.3651  -16.5286 N   0  0  0  0  0  0  0  0  0  0  0  0
   19.7488   -6.9623  -14.6367 C   0  0  0  0  0  0  0  0  0  0  0  0
   18.3648   -7.0415  -14.8147 O   0  0  0  0  0  0  0  0  0  0  0  0
   20.1614   -6.5753  -13.5141 O   0  0  0  0  0  0  0  0  0  0  0  0
  2  1  1  1
  3  2  1  0
  4  5  1  0
  4  3  1  0
  5  6  1  0
  6  7  1  0
  8 13  1  0
  8  2  1  0
  9  8  2  0
 10 11  1  0
 12 11  1  1
 12 13  1  0
 12 14  1  0
 14 15  2  0
 17 16  1  0
 17 19  1  0
 18 17  2  0
 20 19  1  6
 21 14  1  0
 21 20  1  0
 22 20  1  0
 22 23  1  0
 24 22  2  0
M  END
$$$$
