LMQ.pdb
     RDKit          3D

 26 25  0  0  1  0  0  0  0  0999 V2000
    5.0394  -20.0155   20.6578 C   0  0  0  0  0  0  0  0  0  0  0  0
    5.4046  -18.5968   20.3263 C   0  0  1  0  0  0  0  0  0  0  0  0
    4.1515  -17.7899   20.1853 C   0  0  0  0  0  0  0  0  0  0  0  0
    6.2712  -18.0232   21.4269 C   0  0  0  0  0  0  0  0  0  0  0  0
    6.6319  -16.5936   21.1820 C   0  0  2  0  0  0  0  0  0  0  0  0
    7.4336  -16.4763   20.0016 N   0  0  0  0  0  0  0  0  0  0  0  0
    7.3793  -16.1069   22.3829 C   0  0  0  0  0  0  0  0  0  0  0  0
    8.6328  -16.0297   22.3645 O   0  0  0  0  0  0  0  0  0  0  0  0
    6.9090  -10.3559   26.4064 C   0  0  0  0  0  0  0  0  0  0  0  0
    7.0601  -12.1306   26.7128 S   0  0  0  0  0  0  0  0  0  0  0  0
    6.3780  -12.9897   25.2383 C   0  0  0  0  0  0  0  0  0  0  0  0
    6.4640  -14.4533   25.5344 C   0  0  0  0  0  0  0  0  0  0  0  0
    7.4324  -15.2139   24.7009 C   0  0  2  0  0  0  0  0  0  0  0  0
    6.6863  -15.7309   23.5444 N   0  0  0  0  0  0  0  0  0  0  0  0
    8.0114  -16.4122   25.3591 C   0  0  0  0  0  0  0  0  0  0  0  0
    7.2307  -17.3795   25.5285 O   0  0  0  0  0  0  0  0  0  0  0  0
    9.9162  -19.0772   21.4558 N   0  0  0  0  0  0  0  0  0  0  0  0
   10.7292  -19.8426   22.3687 C   0  0  0  0  0  0  0  0  0  0  0  0
   11.3199  -20.8147   21.9018 O   0  0  0  0  0  0  0  0  0  0  0  0
   10.7804  -19.3989   23.7663 C   0  0  0  0  0  0  0  0  0  0  0  0
   10.0307  -18.1937   24.1538 C   0  0  0  0  0  0  0  0  0  0  0  0
   10.1229  -17.7128   25.5597 C   0  0  2  0  0  0  0  0  0  0  0  0
    9.3312  -16.5252   25.7885 N   0  0  0  0  0  0  0  0  0  0  0  0
   11.4489  -17.7010   26.1777 C   0  0  0  0  0  0  0  0  0  0  0  0
   12.2642  -16.5614   26.1300 O   0  0  0  0  0  0  0  0  0  0  0  0
   11.9663  -18.6914   26.7892 O   0  0  0  0  0  0  0  0  0  0  0  0
  2  3  1  1
  2  1  1  0
  4  5  1  0
  4  2  1  0
  5  7  1  0
  5  6  1  6
  7  8  2  0
  9 10  1  0
 10 11  1  0
 12 11  1  0
 13 12  1  1
 13 14  1  0
 14  7  1  0
 15 13  1  0
 16 15  2  0
 17 18  1  0
 18 20  1  0
 18 19  2  0
 20 21  1  0
 22 21  1  6
 22 23  1  0
 22 24  1  0
 23 15  1  0
 24 25  1  0
 26 24  2  0
M  END
$$$$
