LMQ.pdb
     RDKit          3D

 26 25  0  0  1  0  0  0  0  0999 V2000
    9.3644  -19.3567   18.6314 C   0  0  0  0  0  0  0  0  0  0  0  0
    8.4998  -18.1481   18.8499 C   0  0  1  0  0  0  0  0  0  0  0  0
    7.1154  -18.5951   19.2031 C   0  0  0  0  0  0  0  0  0  0  0  0
    9.0751  -17.3053   19.9679 C   0  0  0  0  0  0  0  0  0  0  0  0
    8.2083  -16.1351   20.3038 C   0  0  2  0  0  0  0  0  0  0  0  0
    8.2095  -15.1883   19.2298 N   0  0  0  0  0  0  0  0  0  0  0  0
    8.7492  -15.5199   21.5554 C   0  0  0  0  0  0  0  0  0  0  0  0
    9.7631  -14.7796   21.5143 O   0  0  0  0  0  0  0  0  0  0  0  0
    6.0388  -11.0699   25.7325 C   0  0  0  0  0  0  0  0  0  0  0  0
    7.0494  -12.5468   25.9848 S   0  0  0  0  0  0  0  0  0  0  0  0
    6.5221  -13.7790   24.7273 C   0  0  0  0  0  0  0  0  0  0  0  0
    7.4137  -14.9660   24.9105 C   0  0  0  0  0  0  0  0  0  0  0  0
    8.5765  -15.0353   23.9862 C   0  0  2  0  0  0  0  0  0  0  0  0
    8.1284  -15.7642   22.7906 N   0  0  0  0  0  0  0  0  0  0  0  0
    9.7349  -15.8072   24.5024 C   0  0  0  0  0  0  0  0  0  0  0  0
   10.8668  -15.3071   24.2958 O   0  0  0  0  0  0  0  0  0  0  0  0
   10.2244  -14.0485   29.2730 N   0  0  0  0  0  0  0  0  0  0  0  0
   10.6646  -15.3405   29.7390 C   0  0  0  0  0  0  0  0  0  0  0  0
   10.8780  -15.4505   30.9449 O   0  0  0  0  0  0  0  0  0  0  0  0
   10.8194  -16.4046   28.7409 C   0  0  0  0  0  0  0  0  0  0  0  0
   10.2588  -16.2001   27.3960 C   0  0  0  0  0  0  0  0  0  0  0  0
   10.3934  -17.2889   26.3896 C   0  0  2  0  0  0  0  0  0  0  0  0
    9.6449  -17.0189   25.1828 N   0  0  0  0  0  0  0  0  0  0  0  0
   10.3060  -18.6655   26.8769 C   0  0  0  0  0  0  0  0  0  0  0  0
    9.1554  -19.4395   26.6698 O   0  0  0  0  0  0  0  0  0  0  0  0
   11.2326  -19.2630   27.5149 O   0  0  0  0  0  0  0  0  0  0  0  0
  2  3  1  1
  2  1  1  0
  4  5  1  0
  4  2  1  0
  5  7  1  0
  5  6  1  6
  7  8  2  0
  9 10  1  0
 10 11  1  0
 12 11  1  0
 13 12  1  1
 13 14  1  0
 14  7  1  0
 15 13  1  0
 16 15  2  0
 17 18  1  0
 18 20  1  0
 18 19  2  0
 20 21  1  0
 22 21  1  1
 22 23  1  0
 22 24  1  0
 23 15  1  0
 24 25  1  0
 26 24  2  0
M  END
$$$$
