LMQ.pdb
     RDKit          3D

 26 25  0  0  1  0  0  0  0  0999 V2000
    7.4440  -12.0471   18.3031 C   0  0  0  0  0  0  0  0  0  0  0  0
    7.7601  -13.4386   18.7720 C   0  0  1  0  0  0  0  0  0  0  0  0
    8.9266  -13.9632   17.9941 C   0  0  0  0  0  0  0  0  0  0  0  0
    8.0884  -13.4161   20.2495 C   0  0  0  0  0  0  0  0  0  0  0  0
    8.4007  -14.7761   20.7850 C   0  0  2  0  0  0  0  0  0  0  0  0
    7.2850  -15.6540   20.5994 N   0  0  0  0  0  0  0  0  0  0  0  0
    8.7216  -14.6240   22.2381 C   0  0  0  0  0  0  0  0  0  0  0  0
    9.6308  -13.8416   22.6108 O   0  0  0  0  0  0  0  0  0  0  0  0
    7.9390  -12.3912   28.6084 C   0  0  0  0  0  0  0  0  0  0  0  0
    7.8604  -12.7848   26.8462 S   0  0  0  0  0  0  0  0  0  0  0  0
    7.0025  -14.4031   26.6956 C   0  0  0  0  0  0  0  0  0  0  0  0
    6.9588  -14.7148   25.2334 C   0  0  0  0  0  0  0  0  0  0  0  0
    8.2583  -15.1124   24.6298 C   0  0  2  0  0  0  0  0  0  0  0  0
    8.0089  -15.3553   23.2014 N   0  0  0  0  0  0  0  0  0  0  0  0
    8.8211  -16.3842   25.1494 C   0  0  0  0  0  0  0  0  0  0  0  0
    7.9894  -17.2788   25.4360 O   0  0  0  0  0  0  0  0  0  0  0  0
   14.4136  -18.9725   23.1841 N   0  0  0  0  0  0  0  0  0  0  0  0
   13.0120  -18.6683   23.0310 C   0  0  0  0  0  0  0  0  0  0  0  0
   12.4241  -19.2205   22.1029 O   0  0  0  0  0  0  0  0  0  0  0  0
   12.4129  -17.7321   23.9886 C   0  0  0  0  0  0  0  0  0  0  0  0
   12.0239  -18.2311   25.3170 C   0  0  0  0  0  0  0  0  0  0  0  0
   10.6697  -17.8998   25.8394 C   0  0  2  0  0  0  0  0  0  0  0  0
   10.1778  -16.6383   25.3334 N   0  0  0  0  0  0  0  0  0  0  0  0
   10.4258  -18.1329   27.2629 C   0  0  0  0  0  0  0  0  0  0  0  0
   10.3624  -17.0694   28.1744 O   0  0  0  0  0  0  0  0  0  0  0  0
   10.2596  -19.2826   27.7854 O   0  0  0  0  0  0  0  0  0  0  0  0
  2  3  1  6
  2  1  1  0
  4  5  1  0
  4  2  1  0
  5  7  1  0
  5  6  1  1
  7  8  2  0
  9 10  1  0
 10 11  1  0
 12 11  1  0
 13 12  1  1
 13 14  1  0
 14  7  1  0
 15 13  1  0
 16 15  2  0
 17 18  1  0
 18 20  1  0
 18 19  2  0
 20 21  1  0
 22 21  1  1
 22 23  1  0
 22 24  1  0
 23 15  1  0
 24 25  1  0
 26 24  2  0
M  END
$$$$
