LMQ.pdb
     RDKit          3D

 26 25  0  0  1  0  0  0  0  0999 V2000
    8.5266  -12.9772   18.4505 C   0  0  0  0  0  0  0  0  0  0  0  0
    8.2452  -13.0462   19.9243 C   0  0  1  0  0  0  0  0  0  0  0  0
    7.4099  -11.8680   20.3179 C   0  0  0  0  0  0  0  0  0  0  0  0
    7.5134  -14.3322   20.2436 C   0  0  0  0  0  0  0  0  0  0  0  0
    8.4007  -15.3487   20.8864 C   0  0  2  0  0  0  0  0  0  0  0  0
    7.7492  -16.6228   20.9315 N   0  0  0  0  0  0  0  0  0  0  0  0
    8.7144  -14.8628   22.2660 C   0  0  0  0  0  0  0  0  0  0  0  0
    9.3028  -13.7662   22.4363 O   0  0  0  0  0  0  0  0  0  0  0  0
    7.8774  -11.9734   27.4789 C   0  0  0  0  0  0  0  0  0  0  0  0
    6.3748  -12.3171   26.5353 S   0  0  0  0  0  0  0  0  0  0  0  0
    6.5889  -13.9742   25.7700 C   0  0  0  0  0  0  0  0  0  0  0  0
    7.7754  -13.8632   24.8660 C   0  0  0  0  0  0  0  0  0  0  0  0
    8.5927  -15.0987   24.7364 C   0  0  2  0  0  0  0  0  0  0  0  0
    8.3540  -15.6286   23.3859 N   0  0  0  0  0  0  0  0  0  0  0  0
    8.2095  -16.1964   25.6597 C   0  0  0  0  0  0  0  0  0  0  0  0
    7.0509  -16.6566   25.5185 O   0  0  0  0  0  0  0  0  0  0  0  0
   10.3193  -19.1202   22.5023 N   0  0  0  0  0  0  0  0  0  0  0  0
   11.3433  -19.5925   23.4017 C   0  0  0  0  0  0  0  0  0  0  0  0
   12.0574  -20.5073   22.9956 O   0  0  0  0  0  0  0  0  0  0  0  0
   11.4434  -18.9456   24.7148 C   0  0  0  0  0  0  0  0  0  0  0  0
   10.4783  -17.8895   25.0585 C   0  0  0  0  0  0  0  0  0  0  0  0
    9.8673  -17.8905   26.4161 C   0  0  2  0  0  0  0  0  0  0  0  0
    9.0342  -16.7319   26.6458 N   0  0  0  0  0  0  0  0  0  0  0  0
   10.7286  -18.2655   27.5377 C   0  0  0  0  0  0  0  0  0  0  0  0
   11.1592  -19.5880   27.7145 O   0  0  0  0  0  0  0  0  0  0  0  0
   11.1466  -17.4542   28.4262 O   0  0  0  0  0  0  0  0  0  0  0  0
  2  3  1  6
  2  1  1  0
  4  5  1  0
  4  2  1  0
  5  7  1  0
  5  6  1  1
  7  8  2  0
  9 10  1  0
 10 11  1  0
 12 11  1  0
 13 12  1  1
 13 14  1  0
 14  7  1  0
 15 13  1  0
 16 15  2  0
 17 18  1  0
 18 20  1  0
 18 19  2  0
 20 21  1  0
 22 21  1  6
 22 23  1  0
 22 24  1  0
 23 15  1  0
 24 25  1  0
 26 24  2  0
M  END
$$$$
