LMQ.pdb
     RDKit          3D

 26 25  0  0  1  0  0  0  0  0999 V2000
    6.5820  -12.2915   18.3106 C   0  0  0  0  0  0  0  0  0  0  0  0
    7.2622  -13.5306   18.8185 C   0  0  1  0  0  0  0  0  0  0  0  0
    8.4539  -13.8205   17.9601 C   0  0  0  0  0  0  0  0  0  0  0  0
    7.6940  -13.3227   20.2544 C   0  0  0  0  0  0  0  0  0  0  0  0
    8.3039  -14.5505   20.8498 C   0  0  2  0  0  0  0  0  0  0  0  0
    7.4683  -15.6885   20.6120 N   0  0  0  0  0  0  0  0  0  0  0  0
    8.4645  -14.3060   22.3168 C   0  0  0  0  0  0  0  0  0  0  0  0
    8.9413  -13.2211   22.7330 O   0  0  0  0  0  0  0  0  0  0  0  0
    5.9266  -11.9370   26.5605 C   0  0  0  0  0  0  0  0  0  0  0  0
    7.2183  -13.1063   27.0405 S   0  0  0  0  0  0  0  0  0  0  0  0
    6.5888  -14.7894   26.6552 C   0  0  0  0  0  0  0  0  0  0  0  0
    6.7418  -14.9610   25.1772 C   0  0  0  0  0  0  0  0  0  0  0  0
    8.1441  -14.9916   24.6834 C   0  0  2  0  0  0  0  0  0  0  0  0
    8.0834  -15.2882   23.2446 N   0  0  0  0  0  0  0  0  0  0  0  0
    8.9851  -16.0663   25.2682 C   0  0  0  0  0  0  0  0  0  0  0  0
    8.3919  -17.1318   25.5630 O   0  0  0  0  0  0  0  0  0  0  0  0
   15.3338  -16.7330   25.1312 N   0  0  0  0  0  0  0  0  0  0  0  0
   14.3921  -16.3937   24.0927 C   0  0  0  0  0  0  0  0  0  0  0  0
   14.8625  -16.0267   23.0176 O   0  0  0  0  0  0  0  0  0  0  0  0
   12.9640  -16.5141   24.4067 C   0  0  0  0  0  0  0  0  0  0  0  0
   12.5706  -16.9512   25.7554 C   0  0  0  0  0  0  0  0  0  0  0  0
   11.1218  -17.0449   26.0849 C   0  0  2  0  0  0  0  0  0  0  0  0
   10.3540  -15.9671   25.5034 N   0  0  0  0  0  0  0  0  0  0  0  0
   10.7693  -17.3816   27.4643 C   0  0  0  0  0  0  0  0  0  0  0  0
   10.5771  -16.3841   28.4307 O   0  0  0  0  0  0  0  0  0  0  0  0
   10.6153  -18.5693   27.8980 O   0  0  0  0  0  0  0  0  0  0  0  0
  2  3  1  6
  2  1  1  0
  4  5  1  0
  4  2  1  0
  5  7  1  0
  5  6  1  1
  7  8  2  0
  9 10  1  0
 10 11  1  0
 12 11  1  0
 13 12  1  1
 13 14  1  0
 14  7  1  0
 15 13  1  0
 16 15  2  0
 17 18  1  0
 18 20  1  0
 18 19  2  0
 20 21  1  0
 22 21  1  1
 22 23  1  0
 22 24  1  0
 23 15  1  0
 24 25  1  0
 26 24  2  0
M  END
$$$$
