LMQ.pdb
     RDKit          3D

 26 25  0  0  1  0  0  0  0  0999 V2000
    7.5757  -11.9064   19.5234 C   0  0  0  0  0  0  0  0  0  0  0  0
    7.4902  -13.4059   19.5359 C   0  0  1  0  0  0  0  0  0  0  0  0
    7.2000  -13.8903   18.1495 C   0  0  0  0  0  0  0  0  0  0  0  0
    8.7991  -13.9868   20.0263 C   0  0  0  0  0  0  0  0  0  0  0  0
    8.6108  -15.2704   20.7685 C   0  0  2  0  0  0  0  0  0  0  0  0
    7.3153  -15.8172   20.4992 N   0  0  0  0  0  0  0  0  0  0  0  0
    8.7704  -14.9741   22.2259 C   0  0  0  0  0  0  0  0  0  0  0  0
    9.8266  -14.4482   22.6568 O   0  0  0  0  0  0  0  0  0  0  0  0
    7.1404  -11.9498   28.2826 C   0  0  0  0  0  0  0  0  0  0  0  0
    7.4043  -12.5806   26.6096 S   0  0  0  0  0  0  0  0  0  0  0  0
    6.4406  -14.1388   26.4654 C   0  0  0  0  0  0  0  0  0  0  0  0
    6.5191  -14.5434   25.0276 C   0  0  0  0  0  0  0  0  0  0  0  0
    7.8773  -14.9070   24.5436 C   0  0  2  0  0  0  0  0  0  0  0  0
    7.7400  -15.2814   23.1284 N   0  0  0  0  0  0  0  0  0  0  0  0
    8.4752  -16.0941   25.2050 C   0  0  0  0  0  0  0  0  0  0  0  0
    7.7310  -17.0984   25.3129 O   0  0  0  0  0  0  0  0  0  0  0  0
   14.5319  -16.0419   23.9808 N   0  0  0  0  0  0  0  0  0  0  0  0
   13.3778  -16.9043   24.0494 C   0  0  0  0  0  0  0  0  0  0  0  0
   13.0466  -17.4691   23.0087 O   0  0  0  0  0  0  0  0  0  0  0  0
   12.7028  -17.0317   25.3457 C   0  0  0  0  0  0  0  0  0  0  0  0
   11.4952  -17.8675   25.4355 C   0  0  0  0  0  0  0  0  0  0  0  0
   10.3409  -17.3764   26.2371 C   0  0  2  0  0  0  0  0  0  0  0  0
    9.7752  -16.1596   25.6996 N   0  0  0  0  0  0  0  0  0  0  0  0
   10.4766  -17.4050   27.6935 C   0  0  0  0  0  0  0  0  0  0  0  0
   10.9806  -18.5335   28.3556 O   0  0  0  0  0  0  0  0  0  0  0  0
   10.1563  -16.4434   28.4649 O   0  0  0  0  0  0  0  0  0  0  0  0
  2  3  1  6
  2  1  1  0
  4  5  1  0
  4  2  1  0
  5  7  1  0
  5  6  1  1
  7  8  2  0
  9 10  1  0
 10 11  1  0
 12 11  1  0
 13 12  1  1
 13 14  1  0
 14  7  1  0
 15 13  1  0
 16 15  2  0
 17 18  1  0
 18 20  1  0
 18 19  2  0
 20 21  1  0
 22 21  1  6
 22 23  1  0
 22 24  1  0
 23 15  1  0
 24 25  1  0
 26 24  2  0
M  END
$$$$
