LMQ.pdb
     RDKit          3D

 26 25  0  0  1  0  0  0  0  0999 V2000
    6.3077  -17.7138   17.1309 C   0  0  0  0  0  0  0  0  0  0  0  0
    6.2767  -18.1788   18.5588 C   0  0  1  0  0  0  0  0  0  0  0  0
    6.6945  -19.6152   18.6142 C   0  0  0  0  0  0  0  0  0  0  0  0
    7.2155  -17.3318   19.3910 C   0  0  0  0  0  0  0  0  0  0  0  0
    7.3186  -17.8136   20.8021 C   0  0  2  0  0  0  0  0  0  0  0  0
    6.0160  -18.0692   21.3387 N   0  0  0  0  0  0  0  0  0  0  0  0
    8.0189  -16.7517   21.5892 C   0  0  0  0  0  0  0  0  0  0  0  0
    9.1033  -16.2672   21.1807 O   0  0  0  0  0  0  0  0  0  0  0  0
    6.8037  -11.3794   27.1365 C   0  0  0  0  0  0  0  0  0  0  0  0
    6.2074  -12.7471   26.1166 S   0  0  0  0  0  0  0  0  0  0  0  0
    7.6712  -13.4565   25.2612 C   0  0  0  0  0  0  0  0  0  0  0  0
    7.1474  -14.5382   24.3708 C   0  0  0  0  0  0  0  0  0  0  0  0
    8.1733  -15.2440   23.5581 C   0  0  2  0  0  0  0  0  0  0  0  0
    7.4704  -16.2853   22.7944 N   0  0  0  0  0  0  0  0  0  0  0  0
    9.2020  -15.9666   24.3479 C   0  0  0  0  0  0  0  0  0  0  0  0
    8.8288  -17.0318   24.8958 O   0  0  0  0  0  0  0  0  0  0  0  0
   16.2380  -17.0366   25.1225 N   0  0  0  0  0  0  0  0  0  0  0  0
   15.3050  -16.3493   24.2636 C   0  0  0  0  0  0  0  0  0  0  0  0
   15.6750  -15.2759   23.7917 O   0  0  0  0  0  0  0  0  0  0  0  0
   14.0038  -16.9853   24.0294 C   0  0  0  0  0  0  0  0  0  0  0  0
   12.8096  -16.1331   23.9179 C   0  0  0  0  0  0  0  0  0  0  0  0
   11.6081  -16.4723   24.7288 C   0  0  2  0  0  0  0  0  0  0  0  0
   10.5192  -15.5464   24.5136 N   0  0  0  0  0  0  0  0  0  0  0  0
   11.8281  -16.8552   26.1236 C   0  0  0  0  0  0  0  0  0  0  0  0
   12.2332  -18.1529   26.4670 O   0  0  0  0  0  0  0  0  0  0  0  0
   11.6726  -16.0737   27.1173 O   0  0  0  0  0  0  0  0  0  0  0  0
  2  3  1  6
  2  1  1  0
  4  5  1  0
  4  2  1  0
  5  7  1  0
  5  6  1  1
  7  8  2  0
  9 10  1  0
 10 11  1  0
 12 11  1  0
 13 12  1  1
 13 14  1  0
 14  7  1  0
 15 13  1  0
 16 15  2  0
 17 18  1  0
 18 20  1  0
 18 19  2  0
 20 21  1  0
 22 21  1  1
 22 23  1  0
 22 24  1  0
 23 15  1  0
 24 25  1  0
 26 24  2  0
M  END
$$$$
