LMQ.pdb
     RDKit          3D

 26 25  0  0  1  0  0  0  0  0999 V2000
    7.2975  -12.4257   17.9932 C   0  0  0  0  0  0  0  0  0  0  0  0
    7.4918  -13.8503   18.4277 C   0  0  1  0  0  0  0  0  0  0  0  0
    7.8330  -14.6837   17.2319 C   0  0  0  0  0  0  0  0  0  0  0  0
    8.6073  -13.9241   19.4483 C   0  0  0  0  0  0  0  0  0  0  0  0
    8.6557  -15.2451   20.1456 C   0  0  2  0  0  0  0  0  0  0  0  0
    7.3708  -15.8756   20.1101 N   0  0  0  0  0  0  0  0  0  0  0  0
    9.0856  -14.9931   21.5560 C   0  0  0  0  0  0  0  0  0  0  0  0
   10.2358  -14.5525   21.8020 O   0  0  0  0  0  0  0  0  0  0  0  0
    6.6806  -11.1373   26.0512 C   0  0  0  0  0  0  0  0  0  0  0  0
    6.2735  -12.8233   26.5591 S   0  0  0  0  0  0  0  0  0  0  0  0
    7.6975  -13.8847   26.0867 C   0  0  0  0  0  0  0  0  0  0  0  0
    7.4839  -14.2508   24.6522 C   0  0  0  0  0  0  0  0  0  0  0  0
    8.6250  -14.9435   23.9971 C   0  0  2  0  0  0  0  0  0  0  0  0
    8.2066  -15.2470   22.6207 N   0  0  0  0  0  0  0  0  0  0  0  0
    8.9812  -16.2550   24.5948 C   0  0  0  0  0  0  0  0  0  0  0  0
    8.1037  -17.1490   24.5258 O   0  0  0  0  0  0  0  0  0  0  0  0
   10.5053  -13.8190   29.6195 N   0  0  0  0  0  0  0  0  0  0  0  0
   10.4072  -15.2189   29.9524 C   0  0  0  0  0  0  0  0  0  0  0  0
   10.8407  -15.5579   31.0519 O   0  0  0  0  0  0  0  0  0  0  0  0
    9.8035  -16.1119   28.9570 C   0  0  0  0  0  0  0  0  0  0  0  0
   10.0023  -15.8171   27.5292 C   0  0  0  0  0  0  0  0  0  0  0  0
   10.2877  -16.9425   26.5974 C   0  0  2  0  0  0  0  0  0  0  0  0
   10.1959  -16.5459   25.2105 N   0  0  0  0  0  0  0  0  0  0  0  0
    9.6884  -18.2397   26.9110 C   0  0  0  0  0  0  0  0  0  0  0  0
   10.4698  -19.3126   27.3628 O   0  0  0  0  0  0  0  0  0  0  0  0
    8.4472  -18.5040   26.8014 O   0  0  0  0  0  0  0  0  0  0  0  0
  2  3  1  6
  2  1  1  0
  4  5  1  0
  4  2  1  0
  5  7  1  0
  5  6  1  1
  7  8  2  0
  9 10  1  0
 10 11  1  0
 12 11  1  0
 13 12  1  1
 13 14  1  0
 14  7  1  0
 15 13  1  0
 16 15  2  0
 17 18  1  0
 18 20  1  0
 18 19  2  0
 20 21  1  0
 22 21  1  1
 22 23  1  0
 22 24  1  0
 23 15  1  0
 24 25  1  0
 26 24  2  0
M  END
$$$$
