LMQ.pdb
     RDKit          3D

 26 25  0  0  1  0  0  0  0  0999 V2000
    7.7848  -21.3211   22.8192 C   0  0  0  0  0  0  0  0  0  0  0  0
    7.2194  -20.0922   22.1665 C   0  0  1  0  0  0  0  0  0  0  0  0
    5.7286  -20.1091   22.3018 C   0  0  0  0  0  0  0  0  0  0  0  0
    7.7876  -18.8558   22.8296 C   0  0  0  0  0  0  0  0  0  0  0  0
    7.2560  -17.5931   22.2323 C   0  0  2  0  0  0  0  0  0  0  0  0
    7.4542  -17.5895   20.8144 N   0  0  0  0  0  0  0  0  0  0  0  0
    7.9813  -16.4527   22.8734 C   0  0  0  0  0  0  0  0  0  0  0  0
    9.1153  -16.1060   22.4592 O   0  0  0  0  0  0  0  0  0  0  0  0
    5.3787  -10.9961   25.4329 C   0  0  0  0  0  0  0  0  0  0  0  0
    6.2452  -11.7990   26.8008 S   0  0  0  0  0  0  0  0  0  0  0  0
    7.6899  -12.6767   26.0795 C   0  0  0  0  0  0  0  0  0  0  0  0
    7.1318  -13.8325   25.3114 C   0  0  0  0  0  0  0  0  0  0  0  0
    8.1333  -14.6479   24.5743 C   0  0  2  0  0  0  0  0  0  0  0  0
    7.4012  -15.7574   23.9462 N   0  0  0  0  0  0  0  0  0  0  0  0
    9.1603  -15.2931   25.4305 C   0  0  0  0  0  0  0  0  0  0  0  0
    9.9048  -14.5179   26.0777 O   0  0  0  0  0  0  0  0  0  0  0  0
    9.9780  -21.2665   28.2407 N   0  0  0  0  0  0  0  0  0  0  0  0
   10.6680  -20.1497   28.8382 C   0  0  0  0  0  0  0  0  0  0  0  0
   10.8604  -20.2031   30.0514 O   0  0  0  0  0  0  0  0  0  0  0  0
   11.0774  -19.0536   27.9531 C   0  0  0  0  0  0  0  0  0  0  0  0
   10.0444  -18.3413   27.1847 C   0  0  0  0  0  0  0  0  0  0  0  0
   10.4601  -17.2400   26.2732 C   0  0  2  0  0  0  0  0  0  0  0  0
    9.3433  -16.6678   25.5559 N   0  0  0  0  0  0  0  0  0  0  0  0
   11.6661  -17.4527   25.4728 C   0  0  0  0  0  0  0  0  0  0  0  0
   11.7006  -18.4095   24.4484 O   0  0  0  0  0  0  0  0  0  0  0  0
   12.7567  -16.8140   25.6313 O   0  0  0  0  0  0  0  0  0  0  0  0
  2  3  1  1
  2  1  1  0
  4  5  1  0
  4  2  1  0
  5  7  1  0
  5  6  1  6
  7  8  2  0
  9 10  1  0
 10 11  1  0
 12 11  1  0
 13 12  1  1
 13 14  1  0
 14  7  1  0
 15 13  1  0
 16 15  2  0
 17 18  1  0
 18 20  1  0
 18 19  2  0
 20 21  1  0
 22 21  1  6
 22 23  1  0
 22 24  1  0
 23 15  1  0
 24 25  1  0
 26 24  2  0
M  END
$$$$
