LMQ.pdb
     RDKit          3D

 26 25  0  0  1  0  0  0  0  0999 V2000
    7.7759  -11.8470   18.7571 C   0  0  0  0  0  0  0  0  0  0  0  0
    7.7074  -13.3009   19.1281 C   0  0  1  0  0  0  0  0  0  0  0  0
    8.1520  -14.1248   17.9599 C   0  0  0  0  0  0  0  0  0  0  0  0
    8.6012  -13.5651   20.3208 C   0  0  0  0  0  0  0  0  0  0  0  0
    8.4698  -14.9629   20.8333 C   0  0  2  0  0  0  0  0  0  0  0  0
    7.1226  -15.4244   20.6848 N   0  0  0  0  0  0  0  0  0  0  0  0
    8.8727  -14.9529   22.2738 C   0  0  0  0  0  0  0  0  0  0  0  0
   10.0458  -14.6495   22.6048 O   0  0  0  0  0  0  0  0  0  0  0  0
    7.3311  -11.8394   27.6415 C   0  0  0  0  0  0  0  0  0  0  0  0
    6.0779  -12.3125   26.4283 S   0  0  0  0  0  0  0  0  0  0  0  0
    6.9644  -13.0766   25.0112 C   0  0  0  0  0  0  0  0  0  0  0  0
    7.1958  -14.5054   25.3885 C   0  0  0  0  0  0  0  0  0  0  0  0
    8.3248  -15.1723   24.6874 C   0  0  2  0  0  0  0  0  0  0  0  0
    7.9425  -15.2831   23.2721 N   0  0  0  0  0  0  0  0  0  0  0  0
    8.5947  -16.5640   25.1287 C   0  0  0  0  0  0  0  0  0  0  0  0
    7.8897  -17.4567   24.5996 O   0  0  0  0  0  0  0  0  0  0  0  0
   12.2517  -21.7253   24.5940 N   0  0  0  0  0  0  0  0  0  0  0  0
   11.3506  -20.6818   24.1702 C   0  0  0  0  0  0  0  0  0  0  0  0
   10.2241  -21.0309   23.8226 O   0  0  0  0  0  0  0  0  0  0  0  0
   11.8527  -19.3034   24.1893 C   0  0  0  0  0  0  0  0  0  0  0  0
   10.9158  -18.2135   24.5041 C   0  0  0  0  0  0  0  0  0  0  0  0
   10.4081  -18.0841   25.8976 C   0  0  2  0  0  0  0  0  0  0  0  0
    9.5556  -16.9293   26.0680 N   0  0  0  0  0  0  0  0  0  0  0  0
   11.3629  -18.3137   26.9820 C   0  0  0  0  0  0  0  0  0  0  0  0
   12.2159  -17.2947   27.4289 O   0  0  0  0  0  0  0  0  0  0  0  0
   11.5040  -19.4222   27.5935 O   0  0  0  0  0  0  0  0  0  0  0  0
  2  3  1  6
  2  1  1  0
  4  5  1  0
  4  2  1  0
  5  7  1  0
  5  6  1  1
  7  8  2  0
  9 10  1  0
 10 11  1  0
 12 11  1  0
 13 12  1  1
 13 14  1  0
 14  7  1  0
 15 13  1  0
 16 15  2  0
 17 18  1  0
 18 20  1  0
 18 19  2  0
 20 21  1  0
 22 21  1  6
 22 23  1  0
 22 24  1  0
 23 15  1  0
 24 25  1  0
 26 24  2  0
M  END
$$$$
