LMQ.pdb
     RDKit          3D

 26 25  0  0  1  0  0  0  0  0999 V2000
    7.3461  -12.3177   18.5175 C   0  0  0  0  0  0  0  0  0  0  0  0
    7.6193  -13.7217   18.9761 C   0  0  1  0  0  0  0  0  0  0  0  0
    8.7126  -14.3059   18.1368 C   0  0  0  0  0  0  0  0  0  0  0  0
    8.0314  -13.7108   20.4326 C   0  0  0  0  0  0  0  0  0  0  0  0
    8.3551  -15.0775   20.9438 C   0  0  2  0  0  0  0  0  0  0  0  0
    7.2037  -15.9250   20.8663 N   0  0  0  0  0  0  0  0  0  0  0  0
    8.8128  -14.9306   22.3602 C   0  0  0  0  0  0  0  0  0  0  0  0
    9.9840  -14.5550   22.6152 O   0  0  0  0  0  0  0  0  0  0  0  0
    6.7233  -10.9801   27.4150 C   0  0  0  0  0  0  0  0  0  0  0  0
    5.9741  -12.4312   26.6408 S   0  0  0  0  0  0  0  0  0  0  0  0
    7.1458  -13.0167   25.3517 C   0  0  0  0  0  0  0  0  0  0  0  0
    7.3381  -14.4791   25.5995 C   0  0  0  0  0  0  0  0  0  0  0  0
    8.4200  -15.1207   24.8063 C   0  0  2  0  0  0  0  0  0  0  0  0
    7.9369  -15.2115   23.4207 N   0  0  0  0  0  0  0  0  0  0  0  0
    8.7359  -16.5164   25.2017 C   0  0  0  0  0  0  0  0  0  0  0  0
    8.0677  -17.4146   24.6352 O   0  0  0  0  0  0  0  0  0  0  0  0
   11.6863  -20.4121   22.9109 N   0  0  0  0  0  0  0  0  0  0  0  0
   12.1424  -19.0532   23.0711 C   0  0  0  0  0  0  0  0  0  0  0  0
   13.0033  -18.6623   22.2850 O   0  0  0  0  0  0  0  0  0  0  0  0
   11.5446  -18.2602   24.1511 C   0  0  0  0  0  0  0  0  0  0  0  0
   10.5012  -18.8754   24.9863 C   0  0  0  0  0  0  0  0  0  0  0  0
   10.1599  -18.2423   26.2898 C   0  0  2  0  0  0  0  0  0  0  0  0
    9.7014  -16.8800   26.1369 N   0  0  0  0  0  0  0  0  0  0  0  0
   11.0826  -18.4634   27.4033 C   0  0  0  0  0  0  0  0  0  0  0  0
   11.5220  -17.4014   28.2065 O   0  0  0  0  0  0  0  0  0  0  0  0
   11.5571  -19.5995   27.7296 O   0  0  0  0  0  0  0  0  0  0  0  0
  2  3  1  6
  2  1  1  0
  4  5  1  0
  4  2  1  0
  5  7  1  0
  5  6  1  1
  7  8  2  0
  9 10  1  0
 10 11  1  0
 12 11  1  0
 13 12  1  1
 13 14  1  0
 14  7  1  0
 15 13  1  0
 16 15  2  0
 17 18  1  0
 18 20  1  0
 18 19  2  0
 20 21  1  0
 22 21  1  6
 22 23  1  0
 22 24  1  0
 23 15  1  0
 24 25  1  0
 26 24  2  0
M  END
$$$$
