LMQ.pdb
     RDKit          3D

 26 25  0  0  1  0  0  0  0  0999 V2000
    7.0962  -20.5035   20.2278 C   0  0  0  0  0  0  0  0  0  0  0  0
    7.3535  -19.0439   19.9840 C   0  0  1  0  0  0  0  0  0  0  0  0
    6.1252  -18.4228   19.3952 C   0  0  0  0  0  0  0  0  0  0  0  0
    7.7053  -18.3635   21.2896 C   0  0  0  0  0  0  0  0  0  0  0  0
    7.8823  -16.8876   21.1338 C   0  0  2  0  0  0  0  0  0  0  0  0
    8.7874  -16.6039   20.0613 N   0  0  0  0  0  0  0  0  0  0  0  0
    8.4111  -16.3594   22.4295 C   0  0  0  0  0  0  0  0  0  0  0  0
    9.6228  -16.5019   22.7281 O   0  0  0  0  0  0  0  0  0  0  0  0
    5.8523  -11.2728   25.9834 C   0  0  0  0  0  0  0  0  0  0  0  0
    7.5114  -11.9032   26.3242 S   0  0  0  0  0  0  0  0  0  0  0  0
    7.3641  -13.7249   26.5170 C   0  0  0  0  0  0  0  0  0  0  0  0
    7.0644  -14.2633   25.1541 C   0  0  0  0  0  0  0  0  0  0  0  0
    8.0951  -15.1753   24.5909 C   0  0  2  0  0  0  0  0  0  0  0  0
    7.5573  -15.6980   23.3264 N   0  0  0  0  0  0  0  0  0  0  0  0
    8.3823  -16.3742   25.4181 C   0  0  0  0  0  0  0  0  0  0  0  0
    7.5442  -17.3052   25.3493 O   0  0  0  0  0  0  0  0  0  0  0  0
   10.0441  -21.2459   24.3488 N   0  0  0  0  0  0  0  0  0  0  0  0
   11.1637  -20.3366   24.3386 C   0  0  0  0  0  0  0  0  0  0  0  0
   12.1045  -20.6258   23.6017 O   0  0  0  0  0  0  0  0  0  0  0  0
   11.0844  -19.1537   25.2028 C   0  0  0  0  0  0  0  0  0  0  0  0
    9.8523  -18.9213   25.9727 C   0  0  0  0  0  0  0  0  0  0  0  0
    9.8008  -17.7683   26.9130 C   0  0  2  0  0  0  0  0  0  0  0  0
    9.4940  -16.5247   26.2431 N   0  0  0  0  0  0  0  0  0  0  0  0
   10.8534  -17.6825   27.9254 C   0  0  0  0  0  0  0  0  0  0  0  0
   11.1869  -18.7855   28.7243 O   0  0  0  0  0  0  0  0  0  0  0  0
   11.5350  -16.6340   28.1674 O   0  0  0  0  0  0  0  0  0  0  0  0
  2  3  1  1
  2  1  1  0
  4  5  1  0
  4  2  1  0
  5  7  1  0
  5  6  1  6
  7  8  2  0
  9 10  1  0
 10 11  1  0
 12 11  1  0
 13 12  1  1
 13 14  1  0
 14  7  1  0
 15 13  1  0
 16 15  2  0
 17 18  1  0
 18 20  1  0
 18 19  2  0
 20 21  1  0
 22 21  1  6
 22 23  1  0
 22 24  1  0
 23 15  1  0
 24 25  1  0
 26 24  2  0
M  END
$$$$
