IHH.pdb
     RDKit          3D

 29 30  0  0  1  0  0  0  0  0999 V2000
    8.5294  -12.2047   21.8658 C   0  0  0  0  0  0  0  0  0  0  0  0
    8.5463  -13.3690   20.9026 C   0  0  0  0  0  0  0  0  0  0  0  0
    8.9320  -12.8891   19.4963 C   0  0  2  0  0  0  0  0  0  0  0  0
    7.7667  -12.0523   19.0144 C   0  0  0  0  0  0  0  0  0  0  0  0
    9.0164  -14.1115   18.6122 C   0  0  2  0  0  0  0  0  0  0  0  0
    7.8055  -14.8930   18.7560 N   0  0  0  0  0  0  0  0  0  0  0  0
   10.1771  -14.9785   18.9999 C   0  0  0  0  0  0  0  0  0  0  0  0
   10.0087  -16.0526   19.6329 O   0  0  0  0  0  0  0  0  0  0  0  0
   11.5137  -14.6281   18.6715 N   0  0  0  0  0  0  0  0  0  0  0  0
   12.6611  -15.4763   18.9246 C   0  0  1  0  0  0  0  0  0  0  0  0
   13.7706  -15.0904   17.9520 C   0  0  0  0  0  0  0  0  0  0  0  0
   13.5431  -15.7070   16.6317 C   0  0  0  0  0  0  0  0  0  0  0  0
   12.8890  -16.8814   16.3503 C   0  0  0  0  0  0  0  0  0  0  0  0
   12.9255  -17.0429   15.0261 N   0  0  0  0  0  0  0  0  0  0  0  0
   13.5759  -16.0177   14.4640 C   0  0  0  0  0  0  0  0  0  0  0  0
   13.9500  -15.2058   15.4533 N   0  0  0  0  0  0  0  0  0  0  0  0
   13.1015  -15.2339   20.3236 C   0  0  0  0  0  0  0  0  0  0  0  0
   12.9975  -14.0812   20.8655 O   0  0  0  0  0  0  0  0  0  0  0  0
   13.6447  -16.3326   21.0412 N   0  0  0  0  0  0  0  0  0  0  0  0
   13.9208  -16.2463   22.4536 C   0  0  1  0  0  0  0  0  0  0  0  0
   13.5799  -17.5213   23.1807 C   0  0  0  0  0  0  0  0  0  0  0  0
   12.1928  -17.5913   23.6285 C   0  0  0  0  0  0  0  0  0  0  0  0
   11.2443  -16.6187   23.4534 C   0  0  0  0  0  0  0  0  0  0  0  0
   10.1148  -17.0804   24.0096 N   0  0  0  0  0  0  0  0  0  0  0  0
   10.3454  -18.3018   24.5171 C   0  0  0  0  0  0  0  0  0  0  0  0
   11.6150  -18.5991   24.2772 N   0  0  0  0  0  0  0  0  0  0  0  0
   15.2975  -15.8015   22.6572 C   0  0  0  0  0  0  0  0  0  0  0  0
   16.1530  -15.6798   21.7397 O   0  0  0  0  0  0  0  0  0  0  0  0
   15.7313  -15.4815   23.9343 O   0  0  0  0  0  0  0  0  0  0  0  0
  2  1  1  0
  3  2  1  0
  3  4  1  6
  5  3  1  0
  5  6  1  1
  7  5  1  0
  7  8  2  0
  9  7  1  0
 10  9  1  0
 10 11  1  6
 12 11  1  0
 12 16  1  0
 13 14  1  0
 13 12  2  0
 14 15  1  0
 15 16  2  0
 17 10  1  0
 18 17  2  0
 19 17  1  0
 20 19  1  0
 20 21  1  6
 21 22  1  0
 22 26  1  0
 23 22  2  0
 23 24  1  0
 24 25  1  0
 26 25  2  0
 27 29  1  0
 27 20  1  0
 28 27  2  0
M  END
$$$$
