IHH.pdb
     RDKit          3D

 29 30  0  0  1  0  0  0  0  0999 V2000
    6.5677  -11.4398   27.0329 C   0  0  0  0  0  0  0  0  0  0  0  0
    6.1942  -12.6066   26.1482 C   0  0  0  0  0  0  0  0  0  0  0  0
    7.3916  -13.5533   25.9843 C   0  0  2  0  0  0  0  0  0  0  0  0
    8.4819  -12.7272   25.3366 C   0  0  0  0  0  0  0  0  0  0  0  0
    6.9840  -14.6268   25.0023 C   0  0  2  0  0  0  0  0  0  0  0  0
    5.7954  -15.2965   25.4884 N   0  0  0  0  0  0  0  0  0  0  0  0
    8.0651  -15.6545   24.8471 C   0  0  0  0  0  0  0  0  0  0  0  0
    8.1924  -16.5992   25.6681 O   0  0  0  0  0  0  0  0  0  0  0  0
    8.9906  -15.6085   23.7708 N   0  0  0  0  0  0  0  0  0  0  0  0
   10.0187  -16.6035   23.5407 C   0  0  1  0  0  0  0  0  0  0  0  0
   10.5698  -16.4114   22.1318 C   0  0  0  0  0  0  0  0  0  0  0  0
    9.6256  -16.9359   21.1275 C   0  0  0  0  0  0  0  0  0  0  0  0
    8.4450  -17.6026   21.3465 C   0  0  0  0  0  0  0  0  0  0  0  0
    7.9266  -17.8851   20.1498 N   0  0  0  0  0  0  0  0  0  0  0  0
    8.7334  -17.4231   19.1877 C   0  0  0  0  0  0  0  0  0  0  0  0
    9.7698  -16.8442   19.7948 N   0  0  0  0  0  0  0  0  0  0  0  0
   11.0933  -16.3822   24.5438 C   0  0  0  0  0  0  0  0  0  0  0  0
   11.7834  -15.3067   24.5557 O   0  0  0  0  0  0  0  0  0  0  0  0
   11.3281  -17.4120   25.4933 N   0  0  0  0  0  0  0  0  0  0  0  0
   12.4031  -17.3226   26.4499 C   0  0  1  0  0  0  0  0  0  0  0  0
   11.9017  -17.2894   27.8704 C   0  0  0  0  0  0  0  0  0  0  0  0
   11.0237  -16.1601   28.1590 C   0  0  0  0  0  0  0  0  0  0  0  0
   11.3392  -14.8374   27.9942 C   0  0  0  0  0  0  0  0  0  0  0  0
   10.2610  -14.1361   28.3735 N   0  0  0  0  0  0  0  0  0  0  0  0
    9.3002  -14.9890   28.7636 C   0  0  0  0  0  0  0  0  0  0  0  0
    9.7796  -16.2177   28.6272 N   0  0  0  0  0  0  0  0  0  0  0  0
   13.3766  -18.3812   26.1928 C   0  0  0  0  0  0  0  0  0  0  0  0
   13.2098  -19.3225   25.3716 O   0  0  0  0  0  0  0  0  0  0  0  0
   14.5804  -18.3855   26.8805 O   0  0  0  0  0  0  0  0  0  0  0  0
  2  1  1  0
  3  2  1  0
  3  4  1  6
  5  3  1  0
  5  6  1  1
  7  5  1  0
  7  8  2  0
  9  7  1  0
 10  9  1  0
 10 11  1  6
 12 11  1  0
 12 16  1  0
 13 14  1  0
 13 12  2  0
 14 15  1  0
 15 16  2  0
 17 10  1  0
 18 17  2  0
 19 17  1  0
 20 19  1  0
 20 21  1  1
 21 22  1  0
 22 26  1  0
 23 22  2  0
 23 24  1  0
 24 25  1  0
 26 25  2  0
 27 29  1  0
 27 20  1  0
 28 27  2  0
M  END
$$$$
