IHH.pdb
     RDKit          3D

 29 30  0  0  1  0  0  0  0  0999 V2000
    7.1567  -12.0899   19.3292 C   0  0  0  0  0  0  0  0  0  0  0  0
    7.7596  -13.3168   18.6852 C   0  0  0  0  0  0  0  0  0  0  0  0
    8.4226  -14.2032   19.7489 C   0  0  2  0  0  0  0  0  0  0  0  0
    9.5915  -13.4020   20.2802 C   0  0  0  0  0  0  0  0  0  0  0  0
    8.9808  -15.4147   19.0393 C   0  0  2  0  0  0  0  0  0  0  0  0
    7.9019  -16.1324   18.3925 N   0  0  0  0  0  0  0  0  0  0  0  0
    9.6448  -16.3484   20.0071 C   0  0  0  0  0  0  0  0  0  0  0  0
    8.9740  -17.1483   20.7092 O   0  0  0  0  0  0  0  0  0  0  0  0
   11.0549  -16.3722   20.1744 N   0  0  0  0  0  0  0  0  0  0  0  0
   11.7432  -17.1938   21.1497 C   0  0  1  0  0  0  0  0  0  0  0  0
   13.2074  -17.3067   20.7385 C   0  0  0  0  0  0  0  0  0  0  0  0
   13.3664  -18.2791   19.6411 C   0  0  0  0  0  0  0  0  0  0  0  0
   12.5587  -19.3473   19.3365 C   0  0  0  0  0  0  0  0  0  0  0  0
   13.0863  -19.9450   18.2664 N   0  0  0  0  0  0  0  0  0  0  0  0
   14.1926  -19.2959   17.8862 C   0  0  0  0  0  0  0  0  0  0  0  0
   14.3563  -18.2787   18.7324 N   0  0  0  0  0  0  0  0  0  0  0  0
   11.6340  -16.5159   22.4682 C   0  0  0  0  0  0  0  0  0  0  0  0
   11.3215  -15.2801   22.5590 O   0  0  0  0  0  0  0  0  0  0  0  0
   11.8901  -17.2924   23.6295 N   0  0  0  0  0  0  0  0  0  0  0  0
   11.0257  -17.2305   24.7818 C   0  0  1  0  0  0  0  0  0  0  0  0
    9.5776  -17.4381   24.4207 C   0  0  0  0  0  0  0  0  0  0  0  0
    8.8264  -16.1972   24.2617 C   0  0  0  0  0  0  0  0  0  0  0  0
    9.3366  -14.9313   24.3775 C   0  0  0  0  0  0  0  0  0  0  0  0
    8.3184  -14.0864   24.1595 N   0  0  0  0  0  0  0  0  0  0  0  0
    7.2058  -14.7970   23.9149 C   0  0  0  0  0  0  0  0  0  0  0  0
    7.5311  -16.0806   23.9805 N   0  0  0  0  0  0  0  0  0  0  0  0
   11.5141  -18.1463   25.8101 C   0  0  0  0  0  0  0  0  0  0  0  0
   11.0754  -18.1960   26.9905 O   0  0  0  0  0  0  0  0  0  0  0  0
   12.5304  -19.0383   25.5050 O   0  0  0  0  0  0  0  0  0  0  0  0
  2  1  1  0
  3  2  1  0
  3  4  1  6
  5  3  1  0
  5  6  1  1
  7  5  1  0
  7  8  2  0
  9  7  1  0
 10  9  1  0
 10 11  1  6
 12 11  1  0
 12 16  1  0
 13 14  1  0
 13 12  2  0
 14 15  1  0
 15 16  2  0
 17 10  1  0
 18 17  2  0
 19 17  1  0
 20 19  1  0
 20 21  1  6
 21 22  1  0
 22 26  1  0
 23 22  2  0
 23 24  1  0
 24 25  1  0
 26 25  2  0
 27 29  1  0
 27 20  1  0
 28 27  2  0
M  END
$$$$
