IHH.pdb
     RDKit          3D

 29 30  0  0  1  0  0  0  0  0999 V2000
    7.8945  -12.0363   18.4675 C   0  0  0  0  0  0  0  0  0  0  0  0
    8.1942  -13.5095   18.3147 C   0  0  0  0  0  0  0  0  0  0  0  0
    7.9643  -14.2390   19.6458 C   0  0  2  0  0  0  0  0  0  0  0  0
    9.0117  -13.6991   20.5956 C   0  0  0  0  0  0  0  0  0  0  0  0
    8.2647  -15.7015   19.4140 C   0  0  2  0  0  0  0  0  0  0  0  0
    7.3001  -16.2483   18.4823 N   0  0  0  0  0  0  0  0  0  0  0  0
    8.1693  -16.4809   20.6918 C   0  0  0  0  0  0  0  0  0  0  0  0
    7.0631  -16.6747   21.2588 O   0  0  0  0  0  0  0  0  0  0  0  0
    9.3185  -17.0334   21.3173 N   0  0  0  0  0  0  0  0  0  0  0  0
    9.3193  -17.6172   22.6436 C   0  0  1  0  0  0  0  0  0  0  0  0
   10.5222  -18.5474   22.7608 C   0  0  0  0  0  0  0  0  0  0  0  0
   10.5990  -19.1312   24.1130 C   0  0  0  0  0  0  0  0  0  0  0  0
    9.6838  -19.0242   25.1315 C   0  0  0  0  0  0  0  0  0  0  0  0
   10.1684  -19.7116   26.1676 N   0  0  0  0  0  0  0  0  0  0  0  0
   11.3507  -20.2462   25.8416 C   0  0  0  0  0  0  0  0  0  0  0  0
   11.6061  -19.8861   24.5834 N   0  0  0  0  0  0  0  0  0  0  0  0
    9.4351  -16.5069   23.6253 C   0  0  0  0  0  0  0  0  0  0  0  0
   10.2634  -15.5489   23.4542 O   0  0  0  0  0  0  0  0  0  0  0  0
    8.5894  -16.5472   24.7656 N   0  0  0  0  0  0  0  0  0  0  0  0
    8.4466  -15.4076   25.6371 C   0  0  1  0  0  0  0  0  0  0  0  0
    7.0590  -14.8223   25.5884 C   0  0  0  0  0  0  0  0  0  0  0  0
    6.8718  -13.6758   26.4716 C   0  0  0  0  0  0  0  0  0  0  0  0
    7.8394  -13.0976   27.2499 C   0  0  0  0  0  0  0  0  0  0  0  0
    7.2521  -12.0826   27.9004 N   0  0  0  0  0  0  0  0  0  0  0  0
    5.9592  -12.0247   27.5431 C   0  0  0  0  0  0  0  0  0  0  0  0
    5.7428  -13.0011   26.6726 N   0  0  0  0  0  0  0  0  0  0  0  0
    8.8902  -15.7619   26.9833 C   0  0  0  0  0  0  0  0  0  0  0  0
    9.8560  -15.2193   27.5843 O   0  0  0  0  0  0  0  0  0  0  0  0
    8.2281  -16.7599   27.6814 O   0  0  0  0  0  0  0  0  0  0  0  0
  2  1  1  0
  3  2  1  0
  3  4  1  1
  5  3  1  0
  5  6  1  6
  7  5  1  0
  7  8  2  0
  9  7  1  0
 10  9  1  0
 10 11  1  6
 12 11  1  0
 12 16  1  0
 13 14  1  0
 13 12  2  0
 14 15  1  0
 15 16  2  0
 17 10  1  0
 18 17  2  0
 19 17  1  0
 20 19  1  0
 20 21  1  1
 21 22  1  0
 22 26  1  0
 23 22  2  0
 23 24  1  0
 24 25  1  0
 26 25  2  0
 27 29  1  0
 27 20  1  0
 28 27  2  0
M  END
$$$$
