IHH.pdb
     RDKit          3D

 29 30  0  0  1  0  0  0  0  0999 V2000
    7.0710  -12.2287   19.8303 C   0  0  0  0  0  0  0  0  0  0  0  0
    7.6845  -13.0794   18.7425 C   0  0  0  0  0  0  0  0  0  0  0  0
    9.0175  -13.6723   19.2204 C   0  0  2  0  0  0  0  0  0  0  0  0
    9.9248  -12.4883   19.4765 C   0  0  0  0  0  0  0  0  0  0  0  0
    9.5995  -14.4560   18.0672 C   0  0  2  0  0  0  0  0  0  0  0  0
    8.6330  -15.4356   17.6156 N   0  0  0  0  0  0  0  0  0  0  0  0
   10.8411  -15.1868   18.4837 C   0  0  0  0  0  0  0  0  0  0  0  0
   10.7855  -16.1993   19.2283 O   0  0  0  0  0  0  0  0  0  0  0  0
   12.1308  -14.7711   18.0582 N   0  0  0  0  0  0  0  0  0  0  0  0
   13.3706  -15.3244   18.5650 C   0  0  1  0  0  0  0  0  0  0  0  0
   14.5027  -14.9056   17.6330 C   0  0  0  0  0  0  0  0  0  0  0  0
   14.3671  -15.5643   16.3204 C   0  0  0  0  0  0  0  0  0  0  0  0
   14.3603  -16.9106   16.0487 C   0  0  0  0  0  0  0  0  0  0  0  0
   14.2140  -17.0433   14.7289 N   0  0  0  0  0  0  0  0  0  0  0  0
   14.1285  -15.8352   14.1603 C   0  0  0  0  0  0  0  0  0  0  0  0
   14.2231  -14.9368   15.1411 N   0  0  0  0  0  0  0  0  0  0  0  0
   13.5933  -14.7630   19.9233 C   0  0  0  0  0  0  0  0  0  0  0  0
   12.7833  -13.9187   20.4372 O   0  0  0  0  0  0  0  0  0  0  0  0
   14.7430  -15.1990   20.6342 N   0  0  0  0  0  0  0  0  0  0  0  0
   14.6357  -15.8143   21.9337 C   0  0  1  0  0  0  0  0  0  0  0  0
   13.7452  -17.0296   21.9179 C   0  0  0  0  0  0  0  0  0  0  0  0
   12.3675  -16.7557   22.3133 C   0  0  0  0  0  0  0  0  0  0  0  0
   11.8470  -15.5220   22.6018 C   0  0  0  0  0  0  0  0  0  0  0  0
   10.5579  -15.7142   22.9172 N   0  0  0  0  0  0  0  0  0  0  0  0
   10.2774  -17.0243   22.8300 C   0  0  0  0  0  0  0  0  0  0  0  0
   11.3893  -17.6454   22.4612 N   0  0  0  0  0  0  0  0  0  0  0  0
   15.9719  -16.0693   22.4665 C   0  0  0  0  0  0  0  0  0  0  0  0
   16.2512  -16.1406   23.6935 O   0  0  0  0  0  0  0  0  0  0  0  0
   17.0335  -16.2509   21.5937 O   0  0  0  0  0  0  0  0  0  0  0  0
  2  1  1  0
  3  2  1  0
  3  4  1  6
  5  3  1  0
  5  6  1  1
  7  5  1  0
  7  8  2  0
  9  7  1  0
 10  9  1  0
 10 11  1  6
 12 11  1  0
 12 16  1  0
 13 14  1  0
 13 12  2  0
 14 15  1  0
 15 16  2  0
 17 10  1  0
 18 17  2  0
 19 17  1  0
 20 19  1  0
 20 21  1  6
 21 22  1  0
 22 26  1  0
 23 22  2  0
 23 24  1  0
 24 25  1  0
 26 25  2  0
 27 29  1  0
 27 20  1  0
 28 27  2  0
M  END
$$$$
