IHH.pdb
     RDKit          3D

 29 30  0  0  1  0  0  0  0  0999 V2000
    6.3840  -11.5477   26.9898 C   0  0  0  0  0  0  0  0  0  0  0  0
    6.0161  -12.6912   26.0731 C   0  0  0  0  0  0  0  0  0  0  0  0
    7.1998  -13.6580   25.9288 C   0  0  2  0  0  0  0  0  0  0  0  0
    8.2958  -12.8660   25.2491 C   0  0  0  0  0  0  0  0  0  0  0  0
    6.7710  -14.7547   24.9821 C   0  0  2  0  0  0  0  0  0  0  0  0
    5.6456  -15.4673   25.5505 N   0  0  0  0  0  0  0  0  0  0  0  0
    7.8799  -15.7398   24.7600 C   0  0  0  0  0  0  0  0  0  0  0  0
    8.0869  -16.6842   25.5651 O   0  0  0  0  0  0  0  0  0  0  0  0
    8.7431  -15.6519   23.6356 N   0  0  0  0  0  0  0  0  0  0  0  0
    9.8286  -16.5748   23.3712 C   0  0  1  0  0  0  0  0  0  0  0  0
   10.3092  -16.3575   21.9402 C   0  0  0  0  0  0  0  0  0  0  0  0
    9.2100  -16.5804   20.9825 C   0  0  0  0  0  0  0  0  0  0  0  0
    8.5565  -17.7565   20.7068 C   0  0  0  0  0  0  0  0  0  0  0  0
    7.6373  -17.4858   19.7781 N   0  0  0  0  0  0  0  0  0  0  0  0
    7.6865  -16.1874   19.4590 C   0  0  0  0  0  0  0  0  0  0  0  0
    8.6511  -15.6416   20.2003 N   0  0  0  0  0  0  0  0  0  0  0  0
   10.9235  -16.2699   24.3293 C   0  0  0  0  0  0  0  0  0  0  0  0
   11.1494  -15.0763   24.7263 O   0  0  0  0  0  0  0  0  0  0  0  0
   11.7141  -17.3557   24.7910 N   0  0  0  0  0  0  0  0  0  0  0  0
   12.1234  -17.4558   26.1698 C   0  0  1  0  0  0  0  0  0  0  0  0
   10.9529  -17.4075   27.1174 C   0  0  0  0  0  0  0  0  0  0  0  0
   10.7321  -16.0945   27.7147 C   0  0  0  0  0  0  0  0  0  0  0  0
   11.2940  -14.9183   27.2941 C   0  0  0  0  0  0  0  0  0  0  0  0
   10.8319  -13.9595   28.1098 N   0  0  0  0  0  0  0  0  0  0  0  0
   10.0074  -14.5143   29.0127 C   0  0  0  0  0  0  0  0  0  0  0  0
    9.9568  -15.8147   28.7591 N   0  0  0  0  0  0  0  0  0  0  0  0
   12.9749  -18.6301   26.3439 C   0  0  0  0  0  0  0  0  0  0  0  0
   14.1441  -18.6026   26.8138 O   0  0  0  0  0  0  0  0  0  0  0  0
   12.4998  -19.8800   25.9784 O   0  0  0  0  0  0  0  0  0  0  0  0
  2  1  1  0
  3  2  1  0
  3  4  1  6
  5  3  1  0
  5  6  1  1
  7  5  1  0
  7  8  2  0
  9  7  1  0
 10  9  1  0
 10 11  1  6
 12 11  1  0
 12 16  1  0
 13 14  1  0
 13 12  2  0
 14 15  1  0
 15 16  2  0
 17 10  1  0
 18 17  2  0
 19 17  1  0
 20 19  1  0
 20 21  1  1
 21 22  1  0
 22 26  1  0
 23 22  2  0
 23 24  1  0
 24 25  1  0
 26 25  2  0
 27 29  1  0
 27 20  1  0
 28 27  2  0
M  END
$$$$
