IHH.pdb
     RDKit          3D

 29 30  0  0  1  0  0  0  0  0999 V2000
    8.2704  -11.8698   19.2882 C   0  0  0  0  0  0  0  0  0  0  0  0
    8.4012  -13.3721   19.1913 C   0  0  0  0  0  0  0  0  0  0  0  0
    7.7191  -14.0429   20.3919 C   0  0  2  0  0  0  0  0  0  0  0  0
    8.5112  -13.6119   21.6073 C   0  0  0  0  0  0  0  0  0  0  0  0
    7.8968  -15.5349   20.2332 C   0  0  2  0  0  0  0  0  0  0  0  0
    7.1707  -15.9837   19.0633 N   0  0  0  0  0  0  0  0  0  0  0  0
    7.3596  -16.2718   21.4239 C   0  0  0  0  0  0  0  0  0  0  0  0
    6.1674  -16.1279   21.7990 O   0  0  0  0  0  0  0  0  0  0  0  0
    8.1686  -17.1620   22.1790 N   0  0  0  0  0  0  0  0  0  0  0  0
    7.7409  -17.8070   23.4041 C   0  0  1  0  0  0  0  0  0  0  0  0
    8.0386  -19.2987   23.2937 C   0  0  0  0  0  0  0  0  0  0  0  0
    7.5848  -20.0110   24.5027 C   0  0  0  0  0  0  0  0  0  0  0  0
    6.9562  -19.4862   25.6053 C   0  0  0  0  0  0  0  0  0  0  0  0
    6.7333  -20.4969   26.4476 N   0  0  0  0  0  0  0  0  0  0  0  0
    7.1964  -21.6355   25.9192 C   0  0  0  0  0  0  0  0  0  0  0  0
    7.7154  -21.3289   24.7299 N   0  0  0  0  0  0  0  0  0  0  0  0
    8.5191  -17.2126   24.5225 C   0  0  0  0  0  0  0  0  0  0  0  0
    9.7640  -16.9494   24.4031 O   0  0  0  0  0  0  0  0  0  0  0  0
    7.8286  -16.9457   25.7346 N   0  0  0  0  0  0  0  0  0  0  0  0
    8.4731  -16.2740   26.8356 C   0  0  1  0  0  0  0  0  0  0  0  0
    7.5181  -15.4038   27.6110 C   0  0  0  0  0  0  0  0  0  0  0  0
    7.1394  -14.1787   26.9147 C   0  0  0  0  0  0  0  0  0  0  0  0
    7.6303  -13.7593   25.7066 C   0  0  0  0  0  0  0  0  0  0  0  0
    7.0247  -12.5952   25.4302 N   0  0  0  0  0  0  0  0  0  0  0  0
    6.1817  -12.2930   26.4305 C   0  0  0  0  0  0  0  0  0  0  0  0
    6.2627  -13.2666   27.3268 N   0  0  0  0  0  0  0  0  0  0  0  0
    9.1812  -17.2514   27.6587 C   0  0  0  0  0  0  0  0  0  0  0  0
    9.0160  -18.4990   27.5892 O   0  0  0  0  0  0  0  0  0  0  0  0
   10.1078  -16.8158   28.5933 O   0  0  0  0  0  0  0  0  0  0  0  0
  2  1  1  0
  3  2  1  0
  3  4  1  1
  5  3  1  0
  5  6  1  6
  7  5  1  0
  7  8  2  0
  9  7  1  0
 10  9  1  0
 10 11  1  6
 12 11  1  0
 12 16  1  0
 13 14  1  0
 13 12  2  0
 14 15  1  0
 15 16  2  0
 17 10  1  0
 18 17  2  0
 19 17  1  0
 20 19  1  0
 20 21  1  1
 21 22  1  0
 22 26  1  0
 23 22  2  0
 23 24  1  0
 24 25  1  0
 26 25  2  0
 27 29  1  0
 27 20  1  0
 28 27  2  0
M  END
$$$$
