IHH.pdb
     RDKit          3D

 29 30  0  0  1  0  0  0  0  0999 V2000
    7.6654  -12.1072   22.7592 C   0  0  0  0  0  0  0  0  0  0  0  0
    7.3821  -13.4346   22.0951 C   0  0  0  0  0  0  0  0  0  0  0  0
    8.1707  -13.5509   20.7831 C   0  0  2  0  0  0  0  0  0  0  0  0
    7.5330  -12.5613   19.8320 C   0  0  0  0  0  0  0  0  0  0  0  0
    7.9274  -14.9375   20.2344 C   0  0  2  0  0  0  0  0  0  0  0  0
    6.5041  -15.1441   20.0645 N   0  0  0  0  0  0  0  0  0  0  0  0
    8.4398  -15.9873   21.1750 C   0  0  0  0  0  0  0  0  0  0  0  0
    7.6537  -16.7374   21.8091 O   0  0  0  0  0  0  0  0  0  0  0  0
    9.8299  -16.1819   21.3917 N   0  0  0  0  0  0  0  0  0  0  0  0
   10.3789  -17.1276   22.3426 C   0  0  1  0  0  0  0  0  0  0  0  0
   11.6882  -17.6718   21.7810 C   0  0  0  0  0  0  0  0  0  0  0  0
   12.2970  -18.6336   22.7189 C   0  0  0  0  0  0  0  0  0  0  0  0
   11.8127  -19.0477   23.9355 C   0  0  0  0  0  0  0  0  0  0  0  0
   12.6917  -19.9212   24.4306 N   0  0  0  0  0  0  0  0  0  0  0  0
   13.7087  -20.0728   23.5746 C   0  0  0  0  0  0  0  0  0  0  0  0
   13.4589  -19.2816   22.5307 N   0  0  0  0  0  0  0  0  0  0  0  0
   10.6326  -16.3958   23.6114 C   0  0  0  0  0  0  0  0  0  0  0  0
   10.8636  -15.1389   23.6219 O   0  0  0  0  0  0  0  0  0  0  0  0
   10.6096  -17.1448   24.8179 N   0  0  0  0  0  0  0  0  0  0  0  0
    9.7126  -16.8085   25.8954 C   0  0  1  0  0  0  0  0  0  0  0  0
    8.3016  -16.5872   25.4151 C   0  0  0  0  0  0  0  0  0  0  0  0
    7.7878  -15.2499   25.6924 C   0  0  0  0  0  0  0  0  0  0  0  0
    8.4670  -14.2475   26.3330 C   0  0  0  0  0  0  0  0  0  0  0  0
    7.6395  -13.1934   26.3804 N   0  0  0  0  0  0  0  0  0  0  0  0
    6.4794  -13.5219   25.7897 C   0  0  0  0  0  0  0  0  0  0  0  0
    6.5851  -14.7771   25.3759 N   0  0  0  0  0  0  0  0  0  0  0  0
    9.8247  -17.8073   26.9557 C   0  0  0  0  0  0  0  0  0  0  0  0
    9.8705  -19.0521   26.7641 O   0  0  0  0  0  0  0  0  0  0  0  0
    9.8878  -17.3968   28.2783 O   0  0  0  0  0  0  0  0  0  0  0  0
  2  1  1  0
  3  2  1  0
  3  4  1  6
  5  3  1  0
  5  6  1  1
  7  5  1  0
  7  8  2  0
  9  7  1  0
 10  9  1  0
 10 11  1  6
 12 11  1  0
 12 16  1  0
 13 14  1  0
 13 12  2  0
 14 15  1  0
 15 16  2  0
 17 10  1  0
 18 17  2  0
 19 17  1  0
 20 19  1  0
 20 21  1  6
 21 22  1  0
 22 26  1  0
 23 22  2  0
 23 24  1  0
 24 25  1  0
 26 25  2  0
 27 29  1  0
 27 20  1  0
 28 27  2  0
M  END
$$$$
