IHH.pdb
     RDKit          3D

 29 30  0  0  1  0  0  0  0  0999 V2000
    7.5754  -11.8495   18.7424 C   0  0  0  0  0  0  0  0  0  0  0  0
    8.3109  -13.1252   18.4031 C   0  0  0  0  0  0  0  0  0  0  0  0
    8.2699  -14.0942   19.5932 C   0  0  2  0  0  0  0  0  0  0  0  0
    9.0173  -13.4016   20.7122 C   0  0  0  0  0  0  0  0  0  0  0  0
    9.0618  -15.3199   19.2016 C   0  0  2  0  0  0  0  0  0  0  0  0
    8.4148  -15.9728   18.0823 N   0  0  0  0  0  0  0  0  0  0  0  0
    9.1323  -16.3010   20.3337 C   0  0  0  0  0  0  0  0  0  0  0  0
    8.1337  -16.9911   20.6644 O   0  0  0  0  0  0  0  0  0  0  0  0
   10.3244  -16.4951   21.0810 N   0  0  0  0  0  0  0  0  0  0  0  0
   10.3919  -17.2369   22.3239 C   0  0  1  0  0  0  0  0  0  0  0  0
   11.7464  -17.9340   22.3971 C   0  0  0  0  0  0  0  0  0  0  0  0
   11.7752  -19.1102   21.5078 C   0  0  0  0  0  0  0  0  0  0  0  0
   12.0839  -19.1492   20.1700 C   0  0  0  0  0  0  0  0  0  0  0  0
   11.9810  -20.4216   19.7810 N   0  0  0  0  0  0  0  0  0  0  0  0
   11.6203  -21.1836   20.8198 C   0  0  0  0  0  0  0  0  0  0  0  0
   11.4967  -20.3733   21.8715 N   0  0  0  0  0  0  0  0  0  0  0  0
   10.2583  -16.2626   23.4387 C   0  0  0  0  0  0  0  0  0  0  0  0
   11.1403  -15.3615   23.6464 O   0  0  0  0  0  0  0  0  0  0  0  0
    9.1111  -16.3679   24.2695 N   0  0  0  0  0  0  0  0  0  0  0  0
    8.8027  -15.3640   25.2573 C   0  0  1  0  0  0  0  0  0  0  0  0
    7.5013  -14.6612   24.9696 C   0  0  0  0  0  0  0  0  0  0  0  0
    7.1032  -13.7119   26.0039 C   0  0  0  0  0  0  0  0  0  0  0  0
    5.9966  -13.8165   26.8044 C   0  0  0  0  0  0  0  0  0  0  0  0
    6.0032  -12.7440   27.6093 N   0  0  0  0  0  0  0  0  0  0  0  0
    7.0775  -11.9907   27.3245 C   0  0  0  0  0  0  0  0  0  0  0  0
    7.7374  -12.5931   26.3450 N   0  0  0  0  0  0  0  0  0  0  0  0
    8.8722  -15.9531   26.5924 C   0  0  0  0  0  0  0  0  0  0  0  0
    8.5887  -17.1513   26.8613 O   0  0  0  0  0  0  0  0  0  0  0  0
    9.2736  -15.1719   27.6649 O   0  0  0  0  0  0  0  0  0  0  0  0
  2  1  1  0
  3  2  1  0
  3  4  1  1
  5  3  1  0
  5  6  1  6
  7  5  1  0
  7  8  2  0
  9  7  1  0
 10  9  1  0
 10 11  1  1
 12 11  1  0
 12 16  1  0
 13 14  1  0
 13 12  2  0
 14 15  1  0
 15 16  2  0
 17 10  1  0
 18 17  2  0
 19 17  1  0
 20 19  1  0
 20 21  1  6
 21 22  1  0
 22 26  1  0
 23 22  2  0
 23 24  1  0
 24 25  1  0
 26 25  2  0
 27 29  1  0
 27 20  1  0
 28 27  2  0
M  END
$$$$
