IHH.pdb
     RDKit          3D

 29 30  0  0  1  0  0  0  0  0999 V2000
    6.4161  -11.3280   27.4576 C   0  0  0  0  0  0  0  0  0  0  0  0
    5.8959  -12.3500   26.4735 C   0  0  0  0  0  0  0  0  0  0  0  0
    6.9944  -13.3672   26.1340 C   0  0  2  0  0  0  0  0  0  0  0  0
    8.0940  -12.5743   25.4611 C   0  0  0  0  0  0  0  0  0  0  0  0
    6.4230  -14.3202   25.1102 C   0  0  2  0  0  0  0  0  0  0  0  0
    5.2732  -14.9975   25.6733 N   0  0  0  0  0  0  0  0  0  0  0  0
    7.4301  -15.3611   24.7209 C   0  0  0  0  0  0  0  0  0  0  0  0
    7.5241  -16.4474   25.3484 O   0  0  0  0  0  0  0  0  0  0  0  0
    8.3197  -15.1688   23.6306 N   0  0  0  0  0  0  0  0  0  0  0  0
    9.2935  -16.1494   23.1944 C   0  0  1  0  0  0  0  0  0  0  0  0
    9.6304  -15.8777   21.7321 C   0  0  0  0  0  0  0  0  0  0  0  0
    8.4255  -15.9953   20.8897 C   0  0  0  0  0  0  0  0  0  0  0  0
    7.5495  -17.0503   20.8128 C   0  0  0  0  0  0  0  0  0  0  0  0
    6.6119  -16.7171   19.9236 N   0  0  0  0  0  0  0  0  0  0  0  0
    6.8631  -15.4957   19.4386 C   0  0  0  0  0  0  0  0  0  0  0  0
    7.9740  -15.0620   20.0350 N   0  0  0  0  0  0  0  0  0  0  0  0
   10.5072  -15.9856   24.0370 C   0  0  0  0  0  0  0  0  0  0  0  0
   11.1073  -14.8613   24.1309 O   0  0  0  0  0  0  0  0  0  0  0  0
   10.9797  -17.1272   24.7376 N   0  0  0  0  0  0  0  0  0  0  0  0
   12.0332  -17.0264   25.7167 C   0  0  1  0  0  0  0  0  0  0  0  0
   11.5598  -17.3804   27.1027 C   0  0  0  0  0  0  0  0  0  0  0  0
   10.8583  -16.2953   27.7808 C   0  0  0  0  0  0  0  0  0  0  0  0
   10.5559  -15.0743   27.2384 C   0  0  0  0  0  0  0  0  0  0  0  0
    9.9148  -14.3804   28.1901 N   0  0  0  0  0  0  0  0  0  0  0  0
    9.8173  -15.1394   29.2933 C   0  0  0  0  0  0  0  0  0  0  0  0
   10.3963  -16.3024   29.0286 N   0  0  0  0  0  0  0  0  0  0  0  0
   13.1899  -17.8006   25.2730 C   0  0  0  0  0  0  0  0  0  0  0  0
   13.1246  -18.8485   24.5758 O   0  0  0  0  0  0  0  0  0  0  0  0
   14.4657  -17.3861   25.6229 O   0  0  0  0  0  0  0  0  0  0  0  0
  2  1  1  0
  3  2  1  0
  3  4  1  6
  5  3  1  0
  5  6  1  1
  7  5  1  0
  7  8  2  0
  9  7  1  0
 10  9  1  0
 10 11  1  6
 12 11  1  0
 12 16  1  0
 13 14  1  0
 13 12  2  0
 14 15  1  0
 15 16  2  0
 17 10  1  0
 18 17  2  0
 19 17  1  0
 20 19  1  0
 20 21  1  1
 21 22  1  0
 22 26  1  0
 23 22  2  0
 23 24  1  0
 24 25  1  0
 26 25  2  0
 27 29  1  0
 27 20  1  0
 28 27  2  0
M  END
$$$$
