IHH.pdb
     RDKit          3D

 29 30  0  0  1  0  0  0  0  0999 V2000
    6.9533  -12.3255   19.7474 C   0  0  0  0  0  0  0  0  0  0  0  0
    7.6831  -13.5532   19.2538 C   0  0  0  0  0  0  0  0  0  0  0  0
    7.9799  -14.5009   20.4246 C   0  0  2  0  0  0  0  0  0  0  0  0
    8.8600  -13.7169   21.3740 C   0  0  0  0  0  0  0  0  0  0  0  0
    8.7997  -15.6464   19.8782 C   0  0  2  0  0  0  0  0  0  0  0  0
    8.0226  -16.3648   18.8895 N   0  0  0  0  0  0  0  0  0  0  0  0
    9.1721  -16.6100   20.9655 C   0  0  0  0  0  0  0  0  0  0  0  0
    8.3091  -17.3430   21.5138 O   0  0  0  0  0  0  0  0  0  0  0  0
   10.5102  -16.7384   21.4238 N   0  0  0  0  0  0  0  0  0  0  0  0
   10.9343  -17.6835   22.4372 C   0  0  1  0  0  0  0  0  0  0  0  0
   12.4201  -17.9664   22.2419 C   0  0  0  0  0  0  0  0  0  0  0  0
   12.6407  -18.7770   21.0297 C   0  0  0  0  0  0  0  0  0  0  0  0
   12.2853  -20.0859   20.8137 C   0  0  0  0  0  0  0  0  0  0  0  0
   12.6822  -20.4011   19.5792 N   0  0  0  0  0  0  0  0  0  0  0  0
   13.2725  -19.3435   19.0107 C   0  0  0  0  0  0  0  0  0  0  0  0
   13.2426  -18.3549   19.9050 N   0  0  0  0  0  0  0  0  0  0  0  0
   10.7044  -17.0549   23.7646 C   0  0  0  0  0  0  0  0  0  0  0  0
   11.1227  -15.8760   24.0258 O   0  0  0  0  0  0  0  0  0  0  0  0
   10.0005  -17.8132   24.7377 N   0  0  0  0  0  0  0  0  0  0  0  0
    9.7646  -17.3008   26.0645 C   0  0  1  0  0  0  0  0  0  0  0  0
    8.3253  -16.9090   26.2773 C   0  0  0  0  0  0  0  0  0  0  0  0
    7.3683  -17.9157   25.8301 C   0  0  0  0  0  0  0  0  0  0  0  0
    6.6144  -17.8531   24.6882 C   0  0  0  0  0  0  0  0  0  0  0  0
    5.8740  -18.9707   24.6561 N   0  0  0  0  0  0  0  0  0  0  0  0
    6.1529  -19.7108   25.7410 C   0  0  0  0  0  0  0  0  0  0  0  0
    7.0645  -19.0552   26.4462 N   0  0  0  0  0  0  0  0  0  0  0  0
   10.2695  -18.2507   27.0531 C   0  0  0  0  0  0  0  0  0  0  0  0
   10.7674  -19.3748   26.7761 O   0  0  0  0  0  0  0  0  0  0  0  0
   10.2146  -17.9296   28.4006 O   0  0  0  0  0  0  0  0  0  0  0  0
  2  1  1  0
  3  2  1  0
  3  4  1  1
  5  3  1  0
  5  6  1  6
  7  5  1  0
  7  8  2  0
  9  7  1  0
 10  9  1  0
 10 11  1  6
 12 11  1  0
 12 16  1  0
 13 14  1  0
 13 12  2  0
 14 15  1  0
 15 16  2  0
 17 10  1  0
 18 17  2  0
 19 17  1  0
 20 19  1  0
 20 21  1  1
 21 22  1  0
 22 26  1  0
 23 22  2  0
 23 24  1  0
 24 25  1  0
 26 25  2  0
 27 29  1  0
 27 20  1  0
 28 27  2  0
M  END
$$$$
