IHH.pdb
     RDKit          3D

 29 30  0  0  1  0  0  0  0  0999 V2000
    6.8129  -12.3006   19.9917 C   0  0  0  0  0  0  0  0  0  0  0  0
    7.5805  -12.8880   18.8301 C   0  0  0  0  0  0  0  0  0  0  0  0
    8.7634  -13.7216   19.3427 C   0  0  2  0  0  0  0  0  0  0  0  0
    9.6439  -12.7572   20.1076 C   0  0  0  0  0  0  0  0  0  0  0  0
    9.5386  -14.1916   18.1339 C   0  0  2  0  0  0  0  0  0  0  0  0
    8.6661  -14.9642   17.2741 N   0  0  0  0  0  0  0  0  0  0  0  0
   10.6874  -15.0673   18.5369 C   0  0  0  0  0  0  0  0  0  0  0  0
   10.5230  -16.2901   18.7829 O   0  0  0  0  0  0  0  0  0  0  0  0
   12.0078  -14.5584   18.6588 N   0  0  0  0  0  0  0  0  0  0  0  0
   13.1516  -15.3549   19.0553 C   0  0  1  0  0  0  0  0  0  0  0  0
   14.4171  -14.6620   18.5609 C   0  0  0  0  0  0  0  0  0  0  0  0
   14.7484  -15.0985   17.1916 C   0  0  0  0  0  0  0  0  0  0  0  0
   13.9377  -15.7491   16.2940 C   0  0  0  0  0  0  0  0  0  0  0  0
   14.6557  -15.9421   15.1858 N   0  0  0  0  0  0  0  0  0  0  0  0
   15.8844  -15.4391   15.3505 C   0  0  0  0  0  0  0  0  0  0  0  0
   15.9322  -14.9253   16.5799 N   0  0  0  0  0  0  0  0  0  0  0  0
   13.1570  -15.4289   20.5400 C   0  0  0  0  0  0  0  0  0  0  0  0
   13.5788  -14.4572   21.2548 O   0  0  0  0  0  0  0  0  0  0  0  0
   12.6749  -16.6225   21.1402 N   0  0  0  0  0  0  0  0  0  0  0  0
   12.6720  -16.7971   22.5713 C   0  0  1  0  0  0  0  0  0  0  0  0
   11.5671  -17.7120   23.0324 C   0  0  0  0  0  0  0  0  0  0  0  0
   10.2311  -17.2530   22.6669 C   0  0  0  0  0  0  0  0  0  0  0  0
    9.7755  -15.9640   22.7522 C   0  0  0  0  0  0  0  0  0  0  0  0
    8.5055  -15.9772   22.3221 N   0  0  0  0  0  0  0  0  0  0  0  0
    8.1738  -17.2319   21.9781 C   0  0  0  0  0  0  0  0  0  0  0  0
    9.2348  -17.9972   22.1936 N   0  0  0  0  0  0  0  0  0  0  0  0
   14.0015  -17.2068   23.0174 C   0  0  0  0  0  0  0  0  0  0  0  0
   14.9700  -17.4519   22.2489 O   0  0  0  0  0  0  0  0  0  0  0  0
   14.2554  -17.3469   24.3730 O   0  0  0  0  0  0  0  0  0  0  0  0
  2  1  1  0
  3  2  1  0
  3  4  1  1
  5  3  1  0
  5  6  1  6
  7  5  1  0
  7  8  2  0
  9  7  1  0
 10  9  1  0
 10 11  1  1
 12 11  1  0
 12 16  1  0
 13 14  1  0
 13 12  2  0
 14 15  1  0
 15 16  2  0
 17 10  1  0
 18 17  2  0
 19 17  1  0
 20 19  1  0
 20 21  1  6
 21 22  1  0
 22 26  1  0
 23 22  2  0
 23 24  1  0
 24 25  1  0
 26 25  2  0
 27 29  1  0
 27 20  1  0
 28 27  2  0
M  END
$$$$
