KVM.pdb
     RDKit          3D

 25 24  0  0  1  0  0  0  0  0999 V2000
   27.0172  -23.8291  -17.3373 N   0  0  0  0  0  0  0  0  0  0  0  0
   26.0901  -23.5050  -16.2763 C   0  0  1  0  0  0  0  0  0  0  0  0
   25.6340  -24.7645  -15.5363 C   0  0  0  0  0  0  0  0  0  0  0  0
   24.7031  -25.5484  -16.4015 C   0  0  0  0  0  0  0  0  0  0  0  0
   25.3776  -26.7140  -17.0410 C   0  0  0  0  0  0  0  0  0  0  0  0
   24.4429  -27.4411  -17.9775 C   0  0  0  0  0  0  0  0  0  0  0  0
   25.2387  -28.4490  -18.6944 N   0  0  0  0  0  0  0  0  0  0  0  0
   26.7336  -22.5780  -15.3158 C   0  0  0  0  0  0  0  0  0  0  0  0
   27.9922  -22.6045  -15.1226 O   0  0  0  0  0  0  0  0  0  0  0  0
   26.8889  -19.0726  -15.6028 C   0  0  0  0  0  0  0  0  0  0  0  0
   26.2692  -19.3378  -14.2776 C   0  0  2  0  0  0  0  0  0  0  0  0
   26.5817  -18.2007  -13.3278 C   0  0  0  0  0  0  0  0  0  0  0  0
   26.5621  -20.6781  -13.6757 C   0  0  2  0  0  0  0  0  0  0  0  0
   25.9536  -21.6526  -14.6024 N   0  0  0  0  0  0  0  0  0  0  0  0
   25.9761  -20.9025  -12.3427 C   0  0  0  0  0  0  0  0  0  0  0  0
   24.7464  -21.1313  -12.2113 O   0  0  0  0  0  0  0  0  0  0  0  0
   28.5683  -19.1166   -6.4138 C   0  0  0  0  0  0  0  0  0  0  0  0
   26.9391  -19.7761   -6.0719 S   0  0  0  0  0  0  0  0  0  0  0  0
   26.0921  -20.3891   -7.5179 C   0  0  0  0  0  0  0  0  0  0  0  0
   26.9224  -20.2451   -8.7955 C   0  0  0  0  0  0  0  0  0  0  0  0
   26.0825  -20.9269   -9.8830 C   0  0  2  0  0  0  0  0  0  0  0  0
   26.7554  -20.8736  -11.1581 N   0  0  0  0  0  0  0  0  0  0  0  0
   24.7499  -20.3147   -9.9935 C   0  0  0  0  0  0  0  0  0  0  0  0
   23.6477  -20.8051   -9.3152 O   0  0  0  0  0  0  0  0  0  0  0  0
   24.5955  -19.3115  -10.7259 O   0  0  0  0  0  0  0  0  0  0  0  0
  2  1  1  6
  3  2  1  0
  3  4  1  0
  4  5  1  0
  5  6  1  0
  7  6  1  0
  8  9  2  0
  8  2  1  0
 11 10  1  6
 11 13  1  0
 11 12  1  0
 13 14  1  6
 14  8  1  0
 15 22  1  0
 15 13  1  0
 16 15  2  0
 17 18  1  0
 18 19  1  0
 19 20  1  0
 21 20  1  1
 21 23  1  0
 21 22  1  0
 23 24  1  0
 25 23  2  0
M  END
$$$$
