KVM.pdb
     RDKit          3D

 25 24  0  0  1  0  0  0  0  0999 V2000
   23.8206  -19.1442  -18.2018 N   0  0  0  0  0  0  0  0  0  0  0  0
   24.3699  -18.4597  -17.0529 C   0  0  1  0  0  0  0  0  0  0  0  0
   23.3683  -17.4574  -16.4749 C   0  0  0  0  0  0  0  0  0  0  0  0
   22.1724  -17.3695  -17.3647 C   0  0  0  0  0  0  0  0  0  0  0  0
   21.2079  -16.3283  -16.9086 C   0  0  0  0  0  0  0  0  0  0  0  0
   20.8970  -15.3483  -18.0141 C   0  0  0  0  0  0  0  0  0  0  0  0
   19.9740  -14.3448  -17.4624 N   0  0  0  0  0  0  0  0  0  0  0  0
   24.7335  -19.4469  -16.0093 C   0  0  0  0  0  0  0  0  0  0  0  0
   24.0153  -20.4786  -15.8049 O   0  0  0  0  0  0  0  0  0  0  0  0
   28.5283  -21.2000  -13.4286 C   0  0  0  0  0  0  0  0  0  0  0  0
   27.8235  -20.2250  -14.3023 C   0  0  2  0  0  0  0  0  0  0  0  0
   28.3836  -18.8363  -14.0783 C   0  0  0  0  0  0  0  0  0  0  0  0
   26.3270  -20.2520  -14.2369 C   0  0  2  0  0  0  0  0  0  0  0  0
   25.8846  -19.2517  -15.2280 N   0  0  0  0  0  0  0  0  0  0  0  0
   25.7548  -19.8731  -12.9332 C   0  0  0  0  0  0  0  0  0  0  0  0
   25.5187  -18.6683  -12.6604 O   0  0  0  0  0  0  0  0  0  0  0  0
   20.2423  -20.4756  -10.5178 C   0  0  0  0  0  0  0  0  0  0  0  0
   21.1770  -20.2262   -9.0111 S   0  0  0  0  0  0  0  0  0  0  0  0
   22.9382  -20.1008   -9.2684 C   0  0  0  0  0  0  0  0  0  0  0  0
   23.3727  -20.6072  -10.6458 C   0  0  0  0  0  0  0  0  0  0  0  0
   24.8885  -20.3759  -10.6839 C   0  0  2  0  0  0  0  0  0  0  0  0
   25.4446  -20.8316  -11.9348 N   0  0  0  0  0  0  0  0  0  0  0  0
   25.5615  -21.0476   -9.5620 C   0  0  0  0  0  0  0  0  0  0  0  0
   26.0194  -22.3511   -9.6423 O   0  0  0  0  0  0  0  0  0  0  0  0
   25.7320  -20.4260   -8.4891 O   0  0  0  0  0  0  0  0  0  0  0  0
  2  1  1  6
  3  2  1  0
  3  4  1  0
  4  5  1  0
  5  6  1  0
  7  6  1  0
  8  9  2  0
  8  2  1  0
 11 10  1  1
 11 13  1  0
 11 12  1  0
 13 14  1  6
 14  8  1  0
 15 22  1  0
 15 13  1  0
 16 15  2  0
 17 18  1  0
 18 19  1  0
 19 20  1  0
 21 20  1  6
 21 23  1  0
 21 22  1  0
 23 24  1  0
 25 23  2  0
M  END
$$$$
