KVM.pdb
     RDKit          3D

 25 24  0  0  1  0  0  0  0  0999 V2000
   20.8956  -20.8268  -11.2442 N   0  0  0  0  0  0  0  0  0  0  0  0
   21.6321  -21.4397  -12.3269 C   0  0  1  0  0  0  0  0  0  0  0  0
   20.8174  -21.4353  -13.6224 C   0  0  0  0  0  0  0  0  0  0  0  0
   19.5594  -22.2161  -13.4296 C   0  0  0  0  0  0  0  0  0  0  0  0
   19.7693  -23.6785  -13.6292 C   0  0  0  0  0  0  0  0  0  0  0  0
   18.4804  -24.4453  -13.4553 C   0  0  0  0  0  0  0  0  0  0  0  0
   18.6284  -25.2831  -12.2556 N   0  0  0  0  0  0  0  0  0  0  0  0
   22.9026  -20.7086  -12.5443 C   0  0  0  0  0  0  0  0  0  0  0  0
   22.9778  -19.4527  -12.3467 O   0  0  0  0  0  0  0  0  0  0  0  0
   26.1343  -21.4402  -10.9529 C   0  0  0  0  0  0  0  0  0  0  0  0
   26.3401  -21.4506  -12.4253 C   0  0  2  0  0  0  0  0  0  0  0  0
   27.7561  -21.0230  -12.7488 C   0  0  0  0  0  0  0  0  0  0  0  0
   25.3223  -20.7043  -13.2326 C   0  0  2  0  0  0  0  0  0  0  0  0
   24.0468  -21.4008  -12.9746 N   0  0  0  0  0  0  0  0  0  0  0  0
   25.5523  -20.7168  -14.6878 C   0  0  0  0  0  0  0  0  0  0  0  0
   25.4982  -21.7919  -15.3380 O   0  0  0  0  0  0  0  0  0  0  0  0
   23.8669  -16.7787  -19.9316 C   0  0  0  0  0  0  0  0  0  0  0  0
   23.9160  -16.4978  -18.1639 S   0  0  0  0  0  0  0  0  0  0  0  0
   25.1286  -17.4903  -17.3103 C   0  0  0  0  0  0  0  0  0  0  0  0
   25.0316  -18.9764  -17.6632 C   0  0  0  0  0  0  0  0  0  0  0  0
   26.1304  -19.6460  -16.8283 C   0  0  2  0  0  0  0  0  0  0  0  0
   25.8410  -19.5363  -15.4190 N   0  0  0  0  0  0  0  0  0  0  0  0
   27.4507  -19.0654  -17.1155 C   0  0  0  0  0  0  0  0  0  0  0  0
   28.0917  -19.2401  -18.3296 O   0  0  0  0  0  0  0  0  0  0  0  0
   28.0254  -18.3854  -16.2358 O   0  0  0  0  0  0  0  0  0  0  0  0
  2  1  1  1
  3  2  1  0
  3  4  1  0
  4  5  1  0
  5  6  1  0
  7  6  1  0
  8  9  2  0
  8  2  1  0
 11 10  1  1
 11 13  1  0
 11 12  1  0
 13 14  1  6
 14  8  1  0
 15 22  1  0
 15 13  1  0
 16 15  2  0
 17 18  1  0
 18 19  1  0
 19 20  1  0
 21 20  1  6
 21 23  1  0
 21 22  1  0
 23 24  1  0
 25 23  2  0
M  END
$$$$
