KVM.pdb
     RDKit          3D

 25 24  0  0  1  0  0  0  0  0999 V2000
   27.5397  -20.0308  -15.3195 N   0  0  0  0  0  0  0  0  0  0  0  0
   27.7681  -18.7480  -14.6929 C   0  0  1  0  0  0  0  0  0  0  0  0
   27.3099  -17.6014  -15.5969 C   0  0  0  0  0  0  0  0  0  0  0  0
   28.4498  -17.1414  -16.4447 C   0  0  0  0  0  0  0  0  0  0  0  0
   28.3916  -17.7102  -17.8215 C   0  0  0  0  0  0  0  0  0  0  0  0
   29.5792  -17.2733  -18.6449 C   0  0  0  0  0  0  0  0  0  0  0  0
   29.4488  -17.9017  -19.9683 N   0  0  0  0  0  0  0  0  0  0  0  0
   27.0344  -18.6818  -13.4072 C   0  0  0  0  0  0  0  0  0  0  0  0
   26.8844  -17.5752  -12.7948 O   0  0  0  0  0  0  0  0  0  0  0  0
   24.4913  -21.9353  -12.6592 C   0  0  0  0  0  0  0  0  0  0  0  0
   24.2944  -20.5067  -12.2974 C   0  0  2  0  0  0  0  0  0  0  0  0
   23.6638  -19.7655  -13.4573 C   0  0  0  0  0  0  0  0  0  0  0  0
   25.4984  -19.7977  -11.7567 C   0  0  2  0  0  0  0  0  0  0  0  0
   26.4925  -19.8503  -12.8465 N   0  0  0  0  0  0  0  0  0  0  0  0
   26.1050  -20.4210  -10.5675 C   0  0  0  0  0  0  0  0  0  0  0  0
   26.7024  -21.5244  -10.6541 O   0  0  0  0  0  0  0  0  0  0  0  0
   28.8140  -17.9280   -5.0778 C   0  0  0  0  0  0  0  0  0  0  0  0
   28.6864  -19.6915   -4.7956 S   0  0  0  0  0  0  0  0  0  0  0  0
   27.7637  -20.5574   -6.0538 C   0  0  0  0  0  0  0  0  0  0  0  0
   27.3300  -19.6447   -7.2032 C   0  0  0  0  0  0  0  0  0  0  0  0
   26.5401  -20.5592   -8.1480 C   0  0  2  0  0  0  0  0  0  0  0  0
   26.0486  -19.8188   -9.2847 N   0  0  0  0  0  0  0  0  0  0  0  0
   25.4203  -21.2103   -7.4516 C   0  0  0  0  0  0  0  0  0  0  0  0
   25.6066  -22.2334   -6.5384 O   0  0  0  0  0  0  0  0  0  0  0  0
   24.2503  -20.8325   -7.6860 O   0  0  0  0  0  0  0  0  0  0  0  0
  2  1  1  6
  3  2  1  0
  3  4  1  0
  4  5  1  0
  5  6  1  0
  7  6  1  0
  8  9  2  0
  8  2  1  0
 11 10  1  6
 11 13  1  0
 11 12  1  0
 13 14  1  6
 14  8  1  0
 15 22  1  0
 15 13  1  0
 16 15  2  0
 17 18  1  0
 18 19  1  0
 19 20  1  0
 21 20  1  1
 21 23  1  0
 21 22  1  0
 23 24  1  0
 25 23  2  0
M  END
$$$$
