KVM.pdb
     RDKit          3D

 25 24  0  0  1  0  0  0  0  0999 V2000
   13.5861  -11.7542  -11.4877 N   0  0  0  0  0  0  0  0  0  0  0  0
   14.8404  -11.0451  -11.3672 C   0  0  1  0  0  0  0  0  0  0  0  0
   15.6898  -11.2048  -12.6301 C   0  0  0  0  0  0  0  0  0  0  0  0
   15.8033  -12.6516  -12.9818 C   0  0  0  0  0  0  0  0  0  0  0  0
   16.6825  -12.8751  -14.1648 C   0  0  0  0  0  0  0  0  0  0  0  0
   16.8296  -14.3469  -14.4672 C   0  0  0  0  0  0  0  0  0  0  0  0
   17.6076  -14.4625  -15.7100 N   0  0  0  0  0  0  0  0  0  0  0  0
   14.5803   -9.6057  -11.1301 C   0  0  0  0  0  0  0  0  0  0  0  0
   13.5968   -9.0174  -11.6857 O   0  0  0  0  0  0  0  0  0  0  0  0
   14.2356   -7.6910   -7.7199 C   0  0  0  0  0  0  0  0  0  0  0  0
   15.3838   -7.2587   -8.5596 C   0  0  2  0  0  0  0  0  0  0  0  0
   15.7902   -5.8485   -8.1871 C   0  0  0  0  0  0  0  0  0  0  0  0
   15.2128   -7.4293  -10.0382 C   0  0  2  0  0  0  0  0  0  0  0  0
   15.4245   -8.8696  -10.2822 N   0  0  0  0  0  0  0  0  0  0  0  0
   16.1809   -6.6885  -10.8656 C   0  0  0  0  0  0  0  0  0  0  0  0
   17.4145   -6.9131  -10.7681 O   0  0  0  0  0  0  0  0  0  0  0  0
   18.4697   -6.2196  -16.9870 C   0  0  0  0  0  0  0  0  0  0  0  0
   17.8574   -4.6243  -16.4523 S   0  0  0  0  0  0  0  0  0  0  0  0
   17.7881   -4.4368  -14.6791 C   0  0  0  0  0  0  0  0  0  0  0  0
   16.7055   -5.3052  -14.0341 C   0  0  0  0  0  0  0  0  0  0  0  0
   16.7939   -4.9868  -12.5362 C   0  0  2  0  0  0  0  0  0  0  0  0
   15.7786   -5.7005  -11.8003 N   0  0  0  0  0  0  0  0  0  0  0  0
   16.6714   -3.5426  -12.2872 C   0  0  0  0  0  0  0  0  0  0  0  0
   17.7535   -2.6823  -12.3527 O   0  0  0  0  0  0  0  0  0  0  0  0
   15.5505   -3.0626  -12.0046 O   0  0  0  0  0  0  0  0  0  0  0  0
  2  1  1  6
  3  2  1  0
  3  4  1  0
  4  5  1  0
  5  6  1  0
  7  6  1  0
  8  9  2  0
  8  2  1  0
 11 10  1  1
 11 13  1  0
 11 12  1  0
 13 14  1  1
 14  8  1  0
 15 22  1  0
 15 13  1  0
 16 15  2  0
 17 18  1  0
 18 19  1  0
 19 20  1  0
 21 20  1  6
 21 23  1  0
 21 22  1  0
 23 24  1  0
 25 23  2  0
M  END
$$$$
