KVM.pdb
     RDKit          3D

 25 24  0  0  1  0  0  0  0  0999 V2000
   24.5969  -24.6681  -15.7119 N   0  0  0  0  0  0  0  0  0  0  0  0
   24.1093  -23.6251  -14.8375 C   0  0  1  0  0  0  0  0  0  0  0  0
   23.0590  -24.1650  -13.8643 C   0  0  0  0  0  0  0  0  0  0  0  0
   21.6932  -23.7911  -14.3381 C   0  0  0  0  0  0  0  0  0  0  0  0
   21.5942  -23.7929  -15.8256 C   0  0  0  0  0  0  0  0  0  0  0  0
   20.1906  -23.4740  -16.2811 C   0  0  0  0  0  0  0  0  0  0  0  0
   19.3762  -24.6796  -16.0655 N   0  0  0  0  0  0  0  0  0  0  0  0
   25.2379  -23.0478  -14.0701 C   0  0  0  0  0  0  0  0  0  0  0  0
   26.2027  -23.7788  -13.6739 O   0  0  0  0  0  0  0  0  0  0  0  0
   26.8656  -19.6149  -15.0592 C   0  0  0  0  0  0  0  0  0  0  0  0
   26.5031  -19.6803  -13.6188 C   0  0  2  0  0  0  0  0  0  0  0  0
   27.4364  -18.8007  -12.8140 C   0  0  0  0  0  0  0  0  0  0  0  0
   26.3768  -21.0559  -13.0386 C   0  0  2  0  0  0  0  0  0  0  0  0
   25.2541  -21.6756  -13.7694 N   0  0  0  0  0  0  0  0  0  0  0  0
   26.0525  -21.0973  -11.6021 C   0  0  0  0  0  0  0  0  0  0  0  0
   24.8572  -21.1460  -11.2140 O   0  0  0  0  0  0  0  0  0  0  0  0
   28.3207  -18.2866   -5.2904 C   0  0  0  0  0  0  0  0  0  0  0  0
   28.3809  -20.0347   -5.6730 S   0  0  0  0  0  0  0  0  0  0  0  0
   27.1988  -20.5426   -6.9095 C   0  0  0  0  0  0  0  0  0  0  0  0
   27.7811  -20.5314   -8.3248 C   0  0  0  0  0  0  0  0  0  0  0  0
   26.6505  -21.0646   -9.2138 C   0  0  2  0  0  0  0  0  0  0  0  0
   27.0548  -21.0855  -10.5987 N   0  0  0  0  0  0  0  0  0  0  0  0
   25.4260  -20.2645   -9.0611 C   0  0  0  0  0  0  0  0  0  0  0  0
   24.3527  -20.6863   -8.2961 O   0  0  0  0  0  0  0  0  0  0  0  0
   25.3409  -19.1583   -9.6406 O   0  0  0  0  0  0  0  0  0  0  0  0
  2  1  1  6
  3  2  1  0
  3  4  1  0
  4  5  1  0
  5  6  1  0
  7  6  1  0
  8  9  2  0
  8  2  1  0
 11 10  1  6
 11 13  1  0
 11 12  1  0
 13 14  1  6
 14  8  1  0
 15 22  1  0
 15 13  1  0
 16 15  2  0
 17 18  1  0
 18 19  1  0
 19 20  1  0
 21 20  1  1
 21 23  1  0
 21 22  1  0
 23 24  1  0
 25 23  2  0
M  END
$$$$
