KVM.pdb
     RDKit          3D

 25 24  0  0  1  0  0  0  0  0999 V2000
   18.5229  -13.8812  -15.8106 N   0  0  0  0  0  0  0  0  0  0  0  0
   18.8180  -12.7554  -16.6683 C   0  0  1  0  0  0  0  0  0  0  0  0
   17.5527  -12.2361  -17.3547 C   0  0  0  0  0  0  0  0  0  0  0  0
   16.8750  -13.3543  -18.0757 C   0  0  0  0  0  0  0  0  0  0  0  0
   15.6894  -12.8874  -18.8496 C   0  0  0  0  0  0  0  0  0  0  0  0
   15.0705  -14.0169  -19.6374 C   0  0  0  0  0  0  0  0  0  0  0  0
   13.8200  -13.5088  -20.2216 N   0  0  0  0  0  0  0  0  0  0  0  0
   19.4258  -11.6646  -15.8704 C   0  0  0  0  0  0  0  0  0  0  0  0
   18.9458  -11.3360  -14.7374 O   0  0  0  0  0  0  0  0  0  0  0  0
   22.9055  -11.7454  -14.8258 C   0  0  0  0  0  0  0  0  0  0  0  0
   22.6772  -10.4401  -15.5000 C   0  0  2  0  0  0  0  0  0  0  0  0
   23.6102   -9.3952  -14.9254 C   0  0  0  0  0  0  0  0  0  0  0  0
   21.2558   -9.9689  -15.5472 C   0  0  2  0  0  0  0  0  0  0  0  0
   20.5477  -10.9762  -16.3613 N   0  0  0  0  0  0  0  0  0  0  0  0
   21.0568   -8.6567  -16.1869 C   0  0  0  0  0  0  0  0  0  0  0  0
   21.3135   -8.4907  -17.4069 O   0  0  0  0  0  0  0  0  0  0  0  0
   16.9690   -2.7554  -18.4992 C   0  0  0  0  0  0  0  0  0  0  0  0
   17.0963   -4.1768  -17.4179 S   0  0  0  0  0  0  0  0  0  0  0  0
   18.7737   -4.7079  -17.1209 C   0  0  0  0  0  0  0  0  0  0  0  0
   18.8488   -6.0459  -16.3817 C   0  0  0  0  0  0  0  0  0  0  0  0
   20.3493   -6.2984  -16.1876 C   0  0  2  0  0  0  0  0  0  0  0  0
   20.5726   -7.5314  -15.4724 N   0  0  0  0  0  0  0  0  0  0  0  0
   20.9929   -5.1831  -15.4770 C   0  0  0  0  0  0  0  0  0  0  0  0
   21.3565   -4.0082  -16.1115 O   0  0  0  0  0  0  0  0  0  0  0  0
   21.2250   -5.2900  -14.2517 O   0  0  0  0  0  0  0  0  0  0  0  0
  2  1  1  1
  3  2  1  0
  3  4  1  0
  4  5  1  0
  5  6  1  0
  7  6  1  0
  8  9  2  0
  8  2  1  0
 11 10  1  1
 11 13  1  0
 11 12  1  0
 13 14  1  6
 14  8  1  0
 15 22  1  0
 15 13  1  0
 16 15  2  0
 17 18  1  0
 18 19  1  0
 19 20  1  0
 21 20  1  1
 21 23  1  0
 21 22  1  0
 23 24  1  0
 25 23  2  0
M  END
$$$$
