KVM.pdb
     RDKit          3D

 25 24  0  0  1  0  0  0  0  0999 V2000
   24.3675  -24.6961  -15.1054 N   0  0  0  0  0  0  0  0  0  0  0  0
   24.0055  -23.5252  -14.3384 C   0  0  1  0  0  0  0  0  0  0  0  0
   22.7457  -23.7763  -13.5068 C   0  0  0  0  0  0  0  0  0  0  0  0
   21.5828  -24.0150  -14.4126 C   0  0  0  0  0  0  0  0  0  0  0  0
   21.0328  -22.7455  -14.9677 C   0  0  0  0  0  0  0  0  0  0  0  0
   19.8180  -23.0043  -15.8260 C   0  0  0  0  0  0  0  0  0  0  0  0
   19.3849  -21.7094  -16.3728 N   0  0  0  0  0  0  0  0  0  0  0  0
   25.1215  -23.1528  -13.4375 C   0  0  0  0  0  0  0  0  0  0  0  0
   25.7906  -24.0437  -12.8205 O   0  0  0  0  0  0  0  0  0  0  0  0
   27.6760  -20.4100  -14.5034 C   0  0  0  0  0  0  0  0  0  0  0  0
   27.1712  -20.1879  -13.1227 C   0  0  2  0  0  0  0  0  0  0  0  0
   28.2299  -19.4907  -12.2948 C   0  0  0  0  0  0  0  0  0  0  0  0
   26.6100  -21.3923  -12.4306 C   0  0  2  0  0  0  0  0  0  0  0  0
   25.4548  -21.8005  -13.2537 N   0  0  0  0  0  0  0  0  0  0  0  0
   26.1209  -21.1512  -11.0619 C   0  0  0  0  0  0  0  0  0  0  0  0
   24.8955  -20.9774  -10.8383 O   0  0  0  0  0  0  0  0  0  0  0  0
   29.5669  -19.6528   -5.3599 C   0  0  0  0  0  0  0  0  0  0  0  0
   27.9022  -20.1335   -4.9088 S   0  0  0  0  0  0  0  0  0  0  0  0
   26.8018  -20.3130   -6.3019 C   0  0  0  0  0  0  0  0  0  0  0  0
   27.5430  -20.6151   -7.6065 C   0  0  0  0  0  0  0  0  0  0  0  0
   26.4325  -20.8512   -8.6380 C   0  0  2  0  0  0  0  0  0  0  0  0
   26.9920  -21.1042   -9.9436 N   0  0  0  0  0  0  0  0  0  0  0  0
   25.5083  -19.7089   -8.7014 C   0  0  0  0  0  0  0  0  0  0  0  0
   24.2422  -19.7449   -8.1439 O   0  0  0  0  0  0  0  0  0  0  0  0
   25.8705  -18.6593   -9.2791 O   0  0  0  0  0  0  0  0  0  0  0  0
  2  1  1  1
  3  2  1  0
  3  4  1  0
  4  5  1  0
  5  6  1  0
  7  6  1  0
  8  9  2  0
  8  2  1  0
 11 10  1  6
 11 13  1  0
 11 12  1  0
 13 14  1  6
 14  8  1  0
 15 22  1  0
 15 13  1  0
 16 15  2  0
 17 18  1  0
 18 19  1  0
 19 20  1  0
 21 20  1  1
 21 23  1  0
 21 22  1  0
 23 24  1  0
 25 23  2  0
M  END
$$$$
