KVM.pdb
     RDKit          3D

 25 24  0  0  1  0  0  0  0  0999 V2000
   19.4258  -25.1044  -10.4560 N   0  0  0  0  0  0  0  0  0  0  0  0
   18.2746  -25.6880   -9.8045 C   0  0  1  0  0  0  0  0  0  0  0  0
   18.2415  -27.2060   -9.9951 C   0  0  0  0  0  0  0  0  0  0  0  0
   19.5909  -27.7793   -9.7120 C   0  0  0  0  0  0  0  0  0  0  0  0
   19.5930  -29.2688   -9.7735 C   0  0  0  0  0  0  0  0  0  0  0  0
   20.8948  -29.8360   -9.2608 C   0  0  0  0  0  0  0  0  0  0  0  0
   20.8021  -31.3007   -9.3578 N   0  0  0  0  0  0  0  0  0  0  0  0
   18.3083  -25.3764   -8.3561 C   0  0  0  0  0  0  0  0  0  0  0  0
   19.3786  -24.9702   -7.7981 O   0  0  0  0  0  0  0  0  0  0  0  0
   15.4010  -23.8915   -4.6980 C   0  0  0  0  0  0  0  0  0  0  0  0
   15.7350  -24.4256   -6.0446 C   0  0  2  0  0  0  0  0  0  0  0  0
   14.6247  -25.3356   -6.5261 C   0  0  0  0  0  0  0  0  0  0  0  0
   17.0868  -25.0572   -6.1802 C   0  0  2  0  0  0  0  0  0  0  0  0
   17.1486  -25.5279   -7.5778 N   0  0  0  0  0  0  0  0  0  0  0  0
   17.3202  -26.2200   -5.3060 C   0  0  0  0  0  0  0  0  0  0  0  0
   16.9392  -27.3686   -5.6485 O   0  0  0  0  0  0  0  0  0  0  0  0
   20.7181  -27.0428    0.8379 C   0  0  0  0  0  0  0  0  0  0  0  0
   20.6761  -28.4490   -0.2696 S   0  0  0  0  0  0  0  0  0  0  0  0
   19.3358  -28.3991   -1.4466 C   0  0  0  0  0  0  0  0  0  0  0  0
   19.3750  -27.1540   -2.3357 C   0  0  0  0  0  0  0  0  0  0  0  0
   18.1533  -27.2934   -3.2527 C   0  0  2  0  0  0  0  0  0  0  0  0
   17.9766  -26.1065   -4.0539 N   0  0  0  0  0  0  0  0  0  0  0  0
   16.9313  -27.5631   -2.4801 C   0  0  0  0  0  0  0  0  0  0  0  0
   16.4871  -28.8468   -2.2154 O   0  0  0  0  0  0  0  0  0  0  0  0
   16.2600  -26.6026   -2.0404 O   0  0  0  0  0  0  0  0  0  0  0  0
  2  1  1  6
  3  2  1  0
  3  4  1  0
  4  5  1  0
  5  6  1  0
  7  6  1  0
  8  9  2  0
  8  2  1  0
 11 10  1  1
 11 13  1  0
 11 12  1  0
 13 14  1  6
 14  8  1  0
 15 22  1  0
 15 13  1  0
 16 15  2  0
 17 18  1  0
 18 19  1  0
 19 20  1  0
 21 20  1  1
 21 23  1  0
 21 22  1  0
 23 24  1  0
 25 23  2  0
M  END
$$$$
