KVM.pdb
     RDKit          3D

 25 24  0  0  1  0  0  0  0  0999 V2000
   27.9627  -23.5298  -17.4780 N   0  0  0  0  0  0  0  0  0  0  0  0
   26.8722  -23.2773  -16.5629 C   0  0  1  0  0  0  0  0  0  0  0  0
   26.4056  -24.5691  -15.8883 C   0  0  0  0  0  0  0  0  0  0  0  0
   25.8320  -25.4935  -16.9112 C   0  0  0  0  0  0  0  0  0  0  0  0
   24.4462  -25.9221  -16.5673 C   0  0  0  0  0  0  0  0  0  0  0  0
   23.4258  -25.2173  -17.4283 C   0  0  0  0  0  0  0  0  0  0  0  0
   23.0659  -26.1350  -18.5199 N   0  0  0  0  0  0  0  0  0  0  0  0
   27.3034  -22.3107  -15.5257 C   0  0  0  0  0  0  0  0  0  0  0  0
   28.5228  -22.2366  -15.1657 O   0  0  0  0  0  0  0  0  0  0  0  0
   26.8644  -18.6534  -15.6777 C   0  0  0  0  0  0  0  0  0  0  0  0
   26.2320  -19.1564  -14.4296 C   0  0  2  0  0  0  0  0  0  0  0  0
   26.2453  -18.0713  -13.3738 C   0  0  0  0  0  0  0  0  0  0  0  0
   26.7563  -20.4606  -13.9112 C   0  0  2  0  0  0  0  0  0  0  0  0
   26.3619  -21.4591  -14.9242 N   0  0  0  0  0  0  0  0  0  0  0  0
   26.1923  -20.8878  -12.6189 C   0  0  0  0  0  0  0  0  0  0  0  0
   25.0271  -21.3560  -12.5493 O   0  0  0  0  0  0  0  0  0  0  0  0
   28.6979  -19.7859   -6.4132 C   0  0  0  0  0  0  0  0  0  0  0  0
   26.9573  -20.1668   -6.2367 S   0  0  0  0  0  0  0  0  0  0  0  0
   26.1811  -20.7064   -7.7501 C   0  0  0  0  0  0  0  0  0  0  0  0
   27.0297  -20.4101   -8.9889 C   0  0  0  0  0  0  0  0  0  0  0  0
   26.2231  -20.9872  -10.1590 C   0  0  2  0  0  0  0  0  0  0  0  0
   26.9223  -20.7957  -11.4064 N   0  0  0  0  0  0  0  0  0  0  0  0
   24.8845  -20.3830  -10.2367 C   0  0  0  0  0  0  0  0  0  0  0  0
   23.7757  -20.9521   -9.6351 O   0  0  0  0  0  0  0  0  0  0  0  0
   24.7310  -19.3134  -10.8683 O   0  0  0  0  0  0  0  0  0  0  0  0
  2  1  1  6
  3  2  1  0
  3  4  1  0
  4  5  1  0
  5  6  1  0
  7  6  1  0
  8  9  2  0
  8  2  1  0
 11 10  1  6
 11 13  1  0
 11 12  1  0
 13 14  1  6
 14  8  1  0
 15 22  1  0
 15 13  1  0
 16 15  2  0
 17 18  1  0
 18 19  1  0
 19 20  1  0
 21 20  1  1
 21 23  1  0
 21 22  1  0
 23 24  1  0
 25 23  2  0
M  END
$$$$
