KVM.pdb
     RDKit          3D

 25 24  0  0  1  0  0  0  0  0999 V2000
   17.8874  -11.9534  -15.3009 N   0  0  0  0  0  0  0  0  0  0  0  0
   17.4871  -10.5751  -15.1266 C   0  0  1  0  0  0  0  0  0  0  0  0
   15.9768  -10.4102  -15.3099 C   0  0  0  0  0  0  0  0  0  0  0  0
   15.5719  -10.9290  -16.6502 C   0  0  0  0  0  0  0  0  0  0  0  0
   14.1321  -10.6735  -16.9404 C   0  0  0  0  0  0  0  0  0  0  0  0
   13.9486   -9.3866  -17.7083 C   0  0  0  0  0  0  0  0  0  0  0  0
   12.5107   -9.2420  -17.9822 N   0  0  0  0  0  0  0  0  0  0  0  0
   17.8701  -10.1105  -13.7726 C   0  0  0  0  0  0  0  0  0  0  0  0
   17.8282  -10.8989  -12.7732 O   0  0  0  0  0  0  0  0  0  0  0  0
   21.1875   -8.4039  -13.1446 C   0  0  0  0  0  0  0  0  0  0  0  0
   20.0710   -7.5788  -12.6125 C   0  0  2  0  0  0  0  0  0  0  0  0
   20.5633   -6.7318  -11.4581 C   0  0  0  0  0  0  0  0  0  0  0  0
   18.8127   -8.3199  -12.2779 C   0  0  2  0  0  0  0  0  0  0  0  0
   18.2870   -8.7833  -13.5770 N   0  0  0  0  0  0  0  0  0  0  0  0
   17.7649   -7.5076  -11.6355 C   0  0  0  0  0  0  0  0  0  0  0  0
   17.2475   -6.5324  -12.2382 O   0  0  0  0  0  0  0  0  0  0  0  0
   13.2967   -9.3031   -7.0585 C   0  0  0  0  0  0  0  0  0  0  0  0
   13.0005   -7.5676   -7.3847 S   0  0  0  0  0  0  0  0  0  0  0  0
   14.2684   -6.7940   -8.3736 C   0  0  0  0  0  0  0  0  0  0  0  0
   15.3163   -7.7895   -8.8768 C   0  0  0  0  0  0  0  0  0  0  0  0
   16.2320   -6.9620   -9.7875 C   0  0  2  0  0  0  0  0  0  0  0  0
   17.2922   -7.7790  -10.3262 N   0  0  0  0  0  0  0  0  0  0  0  0
   16.8012   -5.8104   -9.0715 C   0  0  0  0  0  0  0  0  0  0  0  0
   16.2067   -4.5607   -9.0815 O   0  0  0  0  0  0  0  0  0  0  0  0
   17.8633   -5.9549   -8.4251 O   0  0  0  0  0  0  0  0  0  0  0  0
  2  1  1  1
  3  2  1  0
  3  4  1  0
  4  5  1  0
  5  6  1  0
  7  6  1  0
  8  9  2  0
  8  2  1  0
 11 10  1  1
 11 13  1  0
 11 12  1  0
 13 14  1  6
 14  8  1  0
 15 22  1  0
 15 13  1  0
 16 15  2  0
 17 18  1  0
 18 19  1  0
 19 20  1  0
 21 20  1  1
 21 23  1  0
 21 22  1  0
 23 24  1  0
 25 23  2  0
M  END
$$$$
