KVM.pdb
     RDKit          3D

 25 24  0  0  1  0  0  0  0  0999 V2000
   26.2927  -18.6992  -16.3557 N   0  0  0  0  0  0  0  0  0  0  0  0
   26.6501  -19.6555  -15.3319 C   0  0  1  0  0  0  0  0  0  0  0  0
   28.1541  -19.6288  -15.0507 C   0  0  0  0  0  0  0  0  0  0  0  0
   28.8831  -20.3483  -16.1372 C   0  0  0  0  0  0  0  0  0  0  0  0
   28.5820  -21.8084  -16.1448 C   0  0  0  0  0  0  0  0  0  0  0  0
   29.7413  -22.6035  -16.6953 C   0  0  0  0  0  0  0  0  0  0  0  0
   30.0334  -22.0785  -18.0379 N   0  0  0  0  0  0  0  0  0  0  0  0
   25.9124  -19.3506  -14.0834 C   0  0  0  0  0  0  0  0  0  0  0  0
   25.6205  -18.1508  -13.7713 O   0  0  0  0  0  0  0  0  0  0  0  0
   22.6347  -20.3810  -13.5322 C   0  0  0  0  0  0  0  0  0  0  0  0
   23.3876  -20.8647  -12.3449 C   0  0  2  0  0  0  0  0  0  0  0  0
   22.4688  -20.9229  -11.1429 C   0  0  0  0  0  0  0  0  0  0  0  0
   24.6688  -20.1474  -12.0470 C   0  0  2  0  0  0  0  0  0  0  0  0
   25.5248  -20.3923  -13.2242 N   0  0  0  0  0  0  0  0  0  0  0  0
   25.3920  -20.6340  -10.8592 C   0  0  0  0  0  0  0  0  0  0  0  0
   25.8900  -21.7887  -10.8381 O   0  0  0  0  0  0  0  0  0  0  0  0
   28.7336  -19.9785   -3.7893 C   0  0  0  0  0  0  0  0  0  0  0  0
   28.0916  -19.0931   -5.2070 S   0  0  0  0  0  0  0  0  0  0  0  0
   27.2352  -20.1322   -6.3779 C   0  0  0  0  0  0  0  0  0  0  0  0
   26.8015  -19.3746   -7.6349 C   0  0  0  0  0  0  0  0  0  0  0  0
   26.1476  -20.4400   -8.5239 C   0  0  2  0  0  0  0  0  0  0  0  0
   25.5623  -19.8385   -9.6974 N   0  0  0  0  0  0  0  0  0  0  0  0
   25.1259  -21.1992   -7.7872 C   0  0  0  0  0  0  0  0  0  0  0  0
   25.4445  -22.2459   -6.9396 O   0  0  0  0  0  0  0  0  0  0  0  0
   23.9195  -20.8956   -7.9245 O   0  0  0  0  0  0  0  0  0  0  0  0
  2  1  1  6
  3  2  1  0
  3  4  1  0
  4  5  1  0
  5  6  1  0
  7  6  1  0
  8  9  2  0
  8  2  1  0
 11 10  1  6
 11 13  1  0
 11 12  1  0
 13 14  1  6
 14  8  1  0
 15 22  1  0
 15 13  1  0
 16 15  2  0
 17 18  1  0
 18 19  1  0
 19 20  1  0
 21 20  1  1
 21 23  1  0
 21 22  1  0
 23 24  1  0
 25 23  2  0
M  END
$$$$
