WCW.pdb
     RDKit          3D

 35 38  0  0  1  0  0  0  0  0999 V2000
    9.0014  -18.6151   19.9111 N   0  0  0  0  0  0  0  0  0  0  0  0
    8.1140  -17.6255   20.5677 C   0  0  1  0  0  0  0  0  0  0  0  0
    7.1562  -17.1309   19.5392 C   0  0  0  0  0  0  0  0  0  0  0  0
    7.5479  -15.8734   18.8855 C   0  0  0  0  0  0  0  0  0  0  0  0
    7.7337  -15.6425   17.5338 C   0  0  0  0  0  0  0  0  0  0  0  0
    8.0181  -14.3562   17.3049 N   0  0  0  0  0  0  0  0  0  0  0  0
    8.0246  -13.7266   18.4987 C   0  0  0  0  0  0  0  0  0  0  0  0
    8.2678  -12.3938   18.7947 C   0  0  0  0  0  0  0  0  0  0  0  0
    8.2355  -11.9538   20.0987 C   0  0  0  0  0  0  0  0  0  0  0  0
    7.9538  -12.8720   21.0897 C   0  0  0  0  0  0  0  0  0  0  0  0
    7.7141  -14.1811   20.7738 C   0  0  0  0  0  0  0  0  0  0  0  0
    7.7357  -14.6618   19.4805 C   0  0  0  0  0  0  0  0  0  0  0  0
    7.6058  -18.1415   21.8311 C   0  0  0  0  0  0  0  0  0  0  0  0
    6.5880  -18.8993   21.8005 O   0  0  0  0  0  0  0  0  0  0  0  0
    8.1551  -17.8589   23.0998 N   0  0  0  0  0  0  0  0  0  0  0  0
    7.8324  -18.3644   24.3800 C   0  0  1  0  0  0  0  0  0  0  0  0
    7.7608  -19.8685   24.5421 C   0  0  0  0  0  0  0  0  0  0  0  0
    7.2563  -20.2548   26.2154 S   0  0  0  0  0  0  0  0  0  0  0  0
    8.5494  -17.7133   25.4852 C   0  0  0  0  0  0  0  0  0  0  0  0
    8.2218  -17.9948   26.6959 O   0  0  0  0  0  0  0  0  0  0  0  0
    9.5999  -16.7702   25.3775 N   0  0  0  0  0  0  0  0  0  0  0  0
   10.2823  -16.1510   26.4587 C   0  0  1  0  0  0  0  0  0  0  0  0
    9.8697  -14.7895   26.8738 C   0  0  0  0  0  0  0  0  0  0  0  0
    8.4184  -14.5919   26.6765 C   0  0  0  0  0  0  0  0  0  0  0  0
    7.5395  -15.5256   26.1887 C   0  0  0  0  0  0  0  0  0  0  0  0
    6.2963  -14.9666   26.1420 N   0  0  0  0  0  0  0  0  0  0  0  0
    6.4066  -13.6950   26.5982 C   0  0  0  0  0  0  0  0  0  0  0  0
    5.4630  -12.7020   26.7572 C   0  0  0  0  0  0  0  0  0  0  0  0
    5.8229  -11.4601   27.2522 C   0  0  0  0  0  0  0  0  0  0  0  0
    7.1265  -11.1749   27.5993 C   0  0  0  0  0  0  0  0  0  0  0  0
    8.0619  -12.1796   27.4335 C   0  0  0  0  0  0  0  0  0  0  0  0
    7.7100  -13.4164   26.9420 C   0  0  0  0  0  0  0  0  0  0  0  0
   10.3644  -17.1317   27.5846 C   0  0  0  0  0  0  0  0  0  0  0  0
    9.8125  -18.2547   27.5481 O   0  0  0  0  0  0  0  0  0  0  0  0
   11.0737  -16.7823   28.7078 O   0  0  0  0  0  0  0  0  0  0  0  0
  2  3  1  0
  2  1  1  6
  4  3  1  0
  5  4  2  0
  6  7  1  0
  6  5  1  0
  7 12  2  0
  8  7  1  0
  8  9  2  0
  9 10  1  0
 10 11  2  0
 12  4  1  0
 12 11  1  0
 13  2  1  0
 13 15  1  0
 14 13  2  0
 16 15  1  0
 16 17  1  6
 17 18  1  0
 19 20  2  0
 19 16  1  0
 21 19  1  0
 22 21  1  0
 22 33  1  0
 22 23  1  1
 24 23  1  0
 25 24  2  0
 26 27  1  0
 26 25  1  0
 27 32  2  0
 28 29  2  0
 28 27  1  0
 29 30  1  0
 30 31  2  0
 32 24  1  0
 32 31  1  0
 33 35  1  0
 34 33  2  0
M  END
$$$$
