WCW.pdb
     RDKit          3D

 35 38  0  0  1  0  0  0  0  0999 V2000
    6.6304  -21.4263   22.5667 N   0  0  0  0  0  0  0  0  0  0  0  0
    7.0820  -20.0904   23.0243 C   0  0  1  0  0  0  0  0  0  0  0  0
    8.1209  -20.3030   24.0709 C   0  0  0  0  0  0  0  0  0  0  0  0
    7.6141  -20.8371   25.3436 C   0  0  0  0  0  0  0  0  0  0  0  0
    7.4829  -22.1639   25.7142 C   0  0  0  0  0  0  0  0  0  0  0  0
    7.0530  -22.2659   26.9762 N   0  0  0  0  0  0  0  0  0  0  0  0
    6.8949  -21.0121   27.4503 C   0  0  0  0  0  0  0  0  0  0  0  0
    6.4682  -20.5857   28.6989 C   0  0  0  0  0  0  0  0  0  0  0  0
    6.3657  -19.2414   28.9772 C   0  0  0  0  0  0  0  0  0  0  0  0
    6.7003  -18.3428   27.9848 C   0  0  0  0  0  0  0  0  0  0  0  0
    7.1218  -18.7866   26.7615 C   0  0  0  0  0  0  0  0  0  0  0  0
    7.2394  -20.1240   26.4429 C   0  0  0  0  0  0  0  0  0  0  0  0
    7.3735  -19.2243   21.8905 C   0  0  0  0  0  0  0  0  0  0  0  0
    8.0890  -19.6904   20.9513 O   0  0  0  0  0  0  0  0  0  0  0  0
    6.9260  -17.8931   21.7534 N   0  0  0  0  0  0  0  0  0  0  0  0
    7.5129  -16.7830   21.1038 C   0  0  1  0  0  0  0  0  0  0  0  0
    6.5828  -15.7646   20.4784 C   0  0  0  0  0  0  0  0  0  0  0  0
    5.2296  -15.4373   21.6033 S   0  0  0  0  0  0  0  0  0  0  0  0
    8.6115  -16.1563   21.8522 C   0  0  0  0  0  0  0  0  0  0  0  0
    9.2691  -15.1941   21.3101 O   0  0  0  0  0  0  0  0  0  0  0  0
    9.0575  -16.4982   23.1517 N   0  0  0  0  0  0  0  0  0  0  0  0
   10.1647  -15.9262   23.8335 C   0  0  1  0  0  0  0  0  0  0  0  0
    9.9563  -14.6804   24.6087 C   0  0  0  0  0  0  0  0  0  0  0  0
    8.6409  -14.6888   25.2825 C   0  0  0  0  0  0  0  0  0  0  0  0
    7.7953  -15.7647   25.3802 C   0  0  0  0  0  0  0  0  0  0  0  0
    6.6787  -15.3768   26.0606 N   0  0  0  0  0  0  0  0  0  0  0  0
    6.8337  -14.0691   26.3814 C   0  0  0  0  0  0  0  0  0  0  0  0
    6.0103  -13.1969   27.0619 C   0  0  0  0  0  0  0  0  0  0  0  0
    6.3937  -11.8830   27.2707 C   0  0  0  0  0  0  0  0  0  0  0  0
    7.6013  -11.4045   26.8085 C   0  0  0  0  0  0  0  0  0  0  0  0
    8.4160  -12.2898   26.1271 C   0  0  0  0  0  0  0  0  0  0  0  0
    8.0404  -13.5974   25.9165 C   0  0  0  0  0  0  0  0  0  0  0  0
   10.8556  -17.0100   24.5979 C   0  0  0  0  0  0  0  0  0  0  0  0
   10.3810  -18.1618   24.7213 O   0  0  0  0  0  0  0  0  0  0  0  0
   12.0611  -16.7269   25.1923 O   0  0  0  0  0  0  0  0  0  0  0  0
  2  3  1  0
  2  1  1  6
  4  3  1  0
  5  4  2  0
  6  7  1  0
  6  5  1  0
  7 12  2  0
  8  7  1  0
  8  9  2  0
  9 10  1  0
 10 11  2  0
 12  4  1  0
 12 11  1  0
 13  2  1  0
 13 15  1  0
 14 13  2  0
 16 15  1  0
 16 17  1  1
 17 18  1  0
 19 20  2  0
 19 16  1  0
 21 19  1  0
 22 21  1  0
 22 33  1  0
 22 23  1  1
 24 23  1  0
 25 24  2  0
 26 27  1  0
 26 25  1  0
 27 32  2  0
 28 29  2  0
 28 27  1  0
 29 30  1  0
 30 31  2  0
 32 24  1  0
 32 31  1  0
 33 35  1  0
 34 33  2  0
M  END
$$$$
