WCW.pdb
     RDKit          3D

 35 38  0  0  1  0  0  0  0  0999 V2000
    6.4666  -18.2309   22.1222 N   0  0  0  0  0  0  0  0  0  0  0  0
    7.5582  -17.2395   22.2747 C   0  0  1  0  0  0  0  0  0  0  0  0
    6.9279  -15.9185   22.5531 C   0  0  0  0  0  0  0  0  0  0  0  0
    6.7185  -15.0730   21.3684 C   0  0  0  0  0  0  0  0  0  0  0  0
    5.6530  -15.0989   20.4858 C   0  0  0  0  0  0  0  0  0  0  0  0
    5.7708  -14.1335   19.5682 N   0  0  0  0  0  0  0  0  0  0  0  0
    6.9119  -13.4632   19.8332 C   0  0  0  0  0  0  0  0  0  0  0  0
    7.4776  -12.3834   19.1720 C   0  0  0  0  0  0  0  0  0  0  0  0
    8.6698  -11.8491   19.6059 C   0  0  0  0  0  0  0  0  0  0  0  0
    9.2748  -12.4154   20.7093 C   0  0  0  0  0  0  0  0  0  0  0  0
    8.6967  -13.4782   21.3475 C   0  0  0  0  0  0  0  0  0  0  0  0
    7.5031  -14.0420   20.9457 C   0  0  0  0  0  0  0  0  0  0  0  0
    8.5945  -17.7412   23.1664 C   0  0  0  0  0  0  0  0  0  0  0  0
    8.2382  -18.2193   24.2869 O   0  0  0  0  0  0  0  0  0  0  0  0
    9.9773  -17.7325   22.8852 N   0  0  0  0  0  0  0  0  0  0  0  0
   11.0962  -17.7672   23.7486 C   0  0  1  0  0  0  0  0  0  0  0  0
   12.4712  -17.7030   23.1171 C   0  0  0  0  0  0  0  0  0  0  0  0
   13.7123  -17.8826   24.3942 S   0  0  0  0  0  0  0  0  0  0  0  0
   10.9774  -16.8969   24.9268 C   0  0  0  0  0  0  0  0  0  0  0  0
   11.2017  -15.6376   24.8000 O   0  0  0  0  0  0  0  0  0  0  0  0
   10.6353  -17.2911   26.2429 N   0  0  0  0  0  0  0  0  0  0  0  0
   10.9621  -16.5938   27.4367 C   0  0  1  0  0  0  0  0  0  0  0  0
   10.4041  -15.2364   27.6429 C   0  0  0  0  0  0  0  0  0  0  0  0
    9.0129  -15.1545   27.1506 C   0  0  0  0  0  0  0  0  0  0  0  0
    8.1750  -16.2181   26.9297 C   0  0  0  0  0  0  0  0  0  0  0  0
    6.9839  -15.7415   26.4668 N   0  0  0  0  0  0  0  0  0  0  0  0
    7.0855  -14.3915   26.4019 C   0  0  0  0  0  0  0  0  0  0  0  0
    6.1797  -13.4304   26.0048 C   0  0  0  0  0  0  0  0  0  0  0  0
    6.5201  -12.0886   26.0273 C   0  0  0  0  0  0  0  0  0  0  0  0
    7.7663  -11.6700   26.4429 C   0  0  0  0  0  0  0  0  0  0  0  0
    8.6645  -12.6446   26.8370 C   0  0  0  0  0  0  0  0  0  0  0  0
    8.3318  -13.9803   26.8170 C   0  0  0  0  0  0  0  0  0  0  0  0
   10.7535  -17.5194   28.5925 C   0  0  0  0  0  0  0  0  0  0  0  0
   10.2444  -18.6562   28.4683 O   0  0  0  0  0  0  0  0  0  0  0  0
   11.1345  -17.1012   29.8442 O   0  0  0  0  0  0  0  0  0  0  0  0
  2  3  1  0
  2  1  1  1
  4  3  1  0
  5  4  2  0
  6  7  1  0
  6  5  1  0
  7 12  2  0
  8  7  1  0
  8  9  2  0
  9 10  1  0
 10 11  2  0
 12  4  1  0
 12 11  1  0
 13  2  1  0
 13 15  1  0
 14 13  2  0
 16 15  1  0
 16 17  1  6
 17 18  1  0
 19 20  2  0
 19 16  1  0
 21 19  1  0
 22 21  1  0
 22 33  1  0
 22 23  1  1
 24 23  1  0
 25 24  2  0
 26 27  1  0
 26 25  1  0
 27 32  2  0
 28 29  2  0
 28 27  1  0
 29 30  1  0
 30 31  2  0
 32 24  1  0
 32 31  1  0
 33 35  1  0
 34 33  2  0
M  END
$$$$
