WCW.pdb
     RDKit          3D

 35 38  0  0  1  0  0  0  0  0999 V2000
    8.0120  -17.7154   20.6641 N   0  0  0  0  0  0  0  0  0  0  0  0
    8.7638  -16.8334   21.5886 C   0  0  1  0  0  0  0  0  0  0  0  0
    7.8074  -15.8220   22.1198 C   0  0  0  0  0  0  0  0  0  0  0  0
    7.2951  -14.8729   21.1204 C   0  0  0  0  0  0  0  0  0  0  0  0
    5.9754  -14.6183   20.7911 C   0  0  0  0  0  0  0  0  0  0  0  0
    5.8908  -13.6377   19.8861 N   0  0  0  0  0  0  0  0  0  0  0  0
    7.1492  -13.2367   19.6080 C   0  0  0  0  0  0  0  0  0  0  0  0
    7.5922  -12.2544   18.7352 C   0  0  0  0  0  0  0  0  0  0  0  0
    8.9389  -12.0081   18.5908 C   0  0  0  0  0  0  0  0  0  0  0  0
    9.8229  -12.7609   19.3366 C   0  0  0  0  0  0  0  0  0  0  0  0
    9.3628  -13.7226   20.1936 C   0  0  0  0  0  0  0  0  0  0  0  0
    8.0223  -13.9995   20.3683 C   0  0  0  0  0  0  0  0  0  0  0  0
    9.5664  -17.6177   22.5167 C   0  0  0  0  0  0  0  0  0  0  0  0
    9.0942  -18.7212   22.9298 O   0  0  0  0  0  0  0  0  0  0  0  0
   10.8366  -17.2430   23.0040 N   0  0  0  0  0  0  0  0  0  0  0  0
   11.6100  -17.7654   24.0660 C   0  0  1  0  0  0  0  0  0  0  0  0
   13.0203  -18.2174   23.7496 C   0  0  0  0  0  0  0  0  0  0  0  0
   13.4631  -17.6535   22.1096 S   0  0  0  0  0  0  0  0  0  0  0  0
   11.5351  -16.9849   25.3089 C   0  0  0  0  0  0  0  0  0  0  0  0
   11.9647  -15.7734   25.3140 O   0  0  0  0  0  0  0  0  0  0  0  0
   11.0298  -17.4219   26.5572 N   0  0  0  0  0  0  0  0  0  0  0  0
   11.0469  -16.6842   27.7711 C   0  0  1  0  0  0  0  0  0  0  0  0
   10.4311  -15.3364   27.7930 C   0  0  0  0  0  0  0  0  0  0  0  0
    9.0615  -15.3699   27.2384 C   0  0  0  0  0  0  0  0  0  0  0  0
    8.3294  -16.4997   26.9742 C   0  0  0  0  0  0  0  0  0  0  0  0
    7.1235  -16.1231   26.4601 N   0  0  0  0  0  0  0  0  0  0  0  0
    7.1109  -14.7688   26.4071 C   0  0  0  0  0  0  0  0  0  0  0  0
    6.1441  -13.8856   25.9744 C   0  0  0  0  0  0  0  0  0  0  0  0
    6.3660  -12.5197   26.0195 C   0  0  0  0  0  0  0  0  0  0  0  0
    7.5515  -11.9993   26.4935 C   0  0  0  0  0  0  0  0  0  0  0  0
    8.5120  -12.8966   26.9228 C   0  0  0  0  0  0  0  0  0  0  0  0
    8.2971  -14.2557   26.8806 C   0  0  0  0  0  0  0  0  0  0  0  0
   10.5829  -17.5830   28.8726 C   0  0  0  0  0  0  0  0  0  0  0  0
   10.1118  -18.7240   28.6645 O   0  0  0  0  0  0  0  0  0  0  0  0
   10.6753  -17.1344   30.1675 O   0  0  0  0  0  0  0  0  0  0  0  0
  2  3  1  0
  2  1  1  1
  4  3  1  0
  5  4  2  0
  6  7  1  0
  6  5  1  0
  7 12  2  0
  8  7  1  0
  8  9  2  0
  9 10  1  0
 10 11  2  0
 12  4  1  0
 12 11  1  0
 13  2  1  0
 13 15  1  0
 14 13  2  0
 16 15  1  0
 16 17  1  6
 17 18  1  0
 19 20  2  0
 19 16  1  0
 21 19  1  0
 22 21  1  0
 22 33  1  0
 22 23  1  6
 24 23  1  0
 25 24  2  0
 26 27  1  0
 26 25  1  0
 27 32  2  0
 28 29  2  0
 28 27  1  0
 29 30  1  0
 30 31  2  0
 32 24  1  0
 32 31  1  0
 33 35  1  0
 34 33  2  0
M  END
$$$$
