WCW.pdb
     RDKit          3D

 35 38  0  0  1  0  0  0  0  0999 V2000
    6.4120  -18.0129   25.1510 N   0  0  0  0  0  0  0  0  0  0  0  0
    7.5154  -17.1664   24.6374 C   0  0  1  0  0  0  0  0  0  0  0  0
    7.6199  -15.9771   25.5289 C   0  0  0  0  0  0  0  0  0  0  0  0
    6.7606  -14.8455   25.1507 C   0  0  0  0  0  0  0  0  0  0  0  0
    5.6689  -14.3435   25.8371 C   0  0  0  0  0  0  0  0  0  0  0  0
    5.1774  -13.2613   25.2244 N   0  0  0  0  0  0  0  0  0  0  0  0
    5.9357  -13.0389   24.1301 C   0  0  0  0  0  0  0  0  0  0  0  0
    5.8324  -12.0442   23.1694 C   0  0  0  0  0  0  0  0  0  0  0  0
    6.7137  -12.0036   22.1127 C   0  0  0  0  0  0  0  0  0  0  0  0
    7.6936  -12.9728   22.0435 C   0  0  0  0  0  0  0  0  0  0  0  0
    7.7782  -13.9426   23.0045 C   0  0  0  0  0  0  0  0  0  0  0  0
    6.9161  -14.0179   24.0792 C   0  0  0  0  0  0  0  0  0  0  0  0
    8.7019  -17.9669   24.3684 C   0  0  0  0  0  0  0  0  0  0  0  0
    9.1954  -18.6427   25.3228 O   0  0  0  0  0  0  0  0  0  0  0  0
    9.3576  -18.0473   23.1215 N   0  0  0  0  0  0  0  0  0  0  0  0
   10.6909  -17.7496   22.7576 C   0  0  1  0  0  0  0  0  0  0  0  0
   10.9217  -17.1070   21.4058 C   0  0  0  0  0  0  0  0  0  0  0  0
   12.6710  -17.1456   21.0289 S   0  0  0  0  0  0  0  0  0  0  0  0
   11.4813  -17.1172   23.8230 C   0  0  0  0  0  0  0  0  0  0  0  0
   11.2307  -15.8995   24.1495 O   0  0  0  0  0  0  0  0  0  0  0  0
   12.5331  -17.7074   24.5647 N   0  0  0  0  0  0  0  0  0  0  0  0
   13.4100  -17.0321   25.4553 C   0  0  1  0  0  0  0  0  0  0  0  0
   13.3187  -17.3286   26.9044 C   0  0  0  0  0  0  0  0  0  0  0  0
   12.0692  -16.7872   27.4789 C   0  0  0  0  0  0  0  0  0  0  0  0
   11.0561  -17.5249   28.0372 C   0  0  0  0  0  0  0  0  0  0  0  0
   10.0720  -16.6716   28.4415 N   0  0  0  0  0  0  0  0  0  0  0  0
   10.4747  -15.4143   28.1347 C   0  0  0  0  0  0  0  0  0  0  0  0
    9.8635  -14.1928   28.3250 C   0  0  0  0  0  0  0  0  0  0  0  0
   10.4843  -13.0231   27.9209 C   0  0  0  0  0  0  0  0  0  0  0  0
   11.7243  -13.0387   27.3182 C   0  0  0  0  0  0  0  0  0  0  0  0
   12.3247  -14.2704   27.1330 C   0  0  0  0  0  0  0  0  0  0  0  0
   11.7124  -15.4368   27.5328 C   0  0  0  0  0  0  0  0  0  0  0  0
   14.7969  -17.1181   24.9028 C   0  0  0  0  0  0  0  0  0  0  0  0
   15.0675  -17.7198   23.8389 O   0  0  0  0  0  0  0  0  0  0  0  0
   15.8172  -16.5132   25.5955 O   0  0  0  0  0  0  0  0  0  0  0  0
  2  3  1  0
  2  1  1  1
  4  3  1  0
  5  4  2  0
  6  7  1  0
  6  5  1  0
  7 12  2  0
  8  7  1  0
  8  9  2  0
  9 10  1  0
 10 11  2  0
 12  4  1  0
 12 11  1  0
 13  2  1  0
 13 15  1  0
 14 13  2  0
 16 15  1  0
 16 17  1  6
 17 18  1  0
 19 20  2  0
 19 16  1  0
 21 19  1  0
 22 21  1  0
 22 33  1  0
 22 23  1  1
 24 23  1  0
 25 24  2  0
 26 27  1  0
 26 25  1  0
 27 32  2  0
 28 29  2  0
 28 27  1  0
 29 30  1  0
 30 31  2  0
 32 24  1  0
 32 31  1  0
 33 35  1  0
 34 33  2  0
M  END
$$$$
