WCW.pdb
     RDKit          3D

 35 38  0  0  1  0  0  0  0  0999 V2000
    9.5016  -17.1877   19.9422 N   0  0  0  0  0  0  0  0  0  0  0  0
    9.1951  -16.6424   21.2862 C   0  0  1  0  0  0  0  0  0  0  0  0
    7.7207  -16.4424   21.3630 C   0  0  0  0  0  0  0  0  0  0  0  0
    7.1822  -15.4540   20.4170 C   0  0  0  0  0  0  0  0  0  0  0  0
    6.1621  -15.6278   19.4982 C   0  0  0  0  0  0  0  0  0  0  0  0
    5.8971  -14.4840   18.8584 N   0  0  0  0  0  0  0  0  0  0  0  0
    6.7373  -13.5464   19.3450 C   0  0  0  0  0  0  0  0  0  0  0  0
    6.8602  -12.2073   19.0065 C   0  0  0  0  0  0  0  0  0  0  0  0
    7.8024  -11.4171   19.6253 C   0  0  0  0  0  0  0  0  0  0  0  0
    8.6093  -11.9946   20.5844 C   0  0  0  0  0  0  0  0  0  0  0  0
    8.4679  -13.3170   20.9042 C   0  0  0  0  0  0  0  0  0  0  0  0
    7.5359  -14.1423   20.3090 C   0  0  0  0  0  0  0  0  0  0  0  0
    9.8693  -17.4099   22.3241 C   0  0  0  0  0  0  0  0  0  0  0  0
    9.9567  -18.6674   22.1753 O   0  0  0  0  0  0  0  0  0  0  0  0
   10.4330  -16.8637   23.4967 N   0  0  0  0  0  0  0  0  0  0  0  0
   11.1619  -17.4745   24.5429 C   0  0  1  0  0  0  0  0  0  0  0  0
   12.5297  -18.0334   24.2108 C   0  0  0  0  0  0  0  0  0  0  0  0
   13.5382  -16.7348   23.5035 S   0  0  0  0  0  0  0  0  0  0  0  0
   11.1534  -16.7217   25.8049 C   0  0  0  0  0  0  0  0  0  0  0  0
   11.7490  -15.5839   25.8591 O   0  0  0  0  0  0  0  0  0  0  0  0
   10.5471  -17.1128   27.0232 N   0  0  0  0  0  0  0  0  0  0  0  0
   10.7056  -16.4706   28.2804 C   0  0  1  0  0  0  0  0  0  0  0  0
    9.5927  -15.6421   28.8012 C   0  0  0  0  0  0  0  0  0  0  0  0
    8.5167  -15.5075   27.7969 C   0  0  0  0  0  0  0  0  0  0  0  0
    7.7095  -16.5201   27.3438 C   0  0  0  0  0  0  0  0  0  0  0  0
    6.8517  -16.0072   26.4159 N   0  0  0  0  0  0  0  0  0  0  0  0
    7.1274  -14.6855   26.2963 C   0  0  0  0  0  0  0  0  0  0  0  0
    6.5623  -13.7076   25.5050 C   0  0  0  0  0  0  0  0  0  0  0  0
    7.0223  -12.4029   25.5600 C   0  0  0  0  0  0  0  0  0  0  0  0
    8.0534  -12.0391   26.3999 C   0  0  0  0  0  0  0  0  0  0  0  0
    8.6111  -13.0301   27.1866 C   0  0  0  0  0  0  0  0  0  0  0  0
    8.1579  -14.3290   27.1364 C   0  0  0  0  0  0  0  0  0  0  0  0
   11.2250  -17.4758   29.2582 C   0  0  0  0  0  0  0  0  0  0  0  0
   11.6131  -17.1668   30.4075 O   0  0  0  0  0  0  0  0  0  0  0  0
   11.2810  -18.7939   28.8760 O   0  0  0  0  0  0  0  0  0  0  0  0
  2  3  1  0
  2  1  1  6
  4  3  1  0
  5  4  2  0
  6  7  1  0
  6  5  1  0
  7 12  2  0
  8  7  1  0
  8  9  2  0
  9 10  1  0
 10 11  2  0
 12  4  1  0
 12 11  1  0
 13  2  1  0
 13 15  1  0
 14 13  2  0
 16 15  1  0
 16 17  1  6
 17 18  1  0
 19 20  2  0
 19 16  1  0
 21 19  1  0
 22 21  1  0
 22 33  1  0
 22 23  1  1
 24 23  1  0
 25 24  2  0
 26 27  1  0
 26 25  1  0
 27 32  2  0
 28 29  2  0
 28 27  1  0
 29 30  1  0
 30 31  2  0
 32 24  1  0
 32 31  1  0
 33 35  1  0
 34 33  2  0
M  END
$$$$
