WCW.pdb
     RDKit          3D

 35 38  0  0  1  0  0  0  0  0999 V2000
    6.5860  -17.5334   23.9838 N   0  0  0  0  0  0  0  0  0  0  0  0
    7.9486  -17.3291   23.4367 C   0  0  1  0  0  0  0  0  0  0  0  0
    8.4387  -16.0131   23.9345 C   0  0  0  0  0  0  0  0  0  0  0  0
    7.6723  -14.8507   23.4618 C   0  0  0  0  0  0  0  0  0  0  0  0
    6.6606  -14.1764   24.1228 C   0  0  0  0  0  0  0  0  0  0  0  0
    6.2460  -13.1231   23.4110 N   0  0  0  0  0  0  0  0  0  0  0  0
    6.9757  -13.0916   22.2760 C   0  0  0  0  0  0  0  0  0  0  0  0
    6.9247  -12.1989   21.2160 C   0  0  0  0  0  0  0  0  0  0  0  0
    7.7617  -12.3552   20.1343 C   0  0  0  0  0  0  0  0  0  0  0  0
    8.6446  -13.4158   20.1410 C   0  0  0  0  0  0  0  0  0  0  0  0
    8.6792  -14.2820   21.1991 C   0  0  0  0  0  0  0  0  0  0  0  0
    7.8589  -14.1599   22.3019 C   0  0  0  0  0  0  0  0  0  0  0  0
    8.7682  -18.5177   23.6272 C   0  0  0  0  0  0  0  0  0  0  0  0
    8.7524  -19.0779   24.7661 O   0  0  0  0  0  0  0  0  0  0  0  0
    9.5920  -19.0990   22.6398 N   0  0  0  0  0  0  0  0  0  0  0  0
   10.9977  -19.0949   22.4894 C   0  0  1  0  0  0  0  0  0  0  0  0
   11.5518  -19.0897   21.0800 C   0  0  0  0  0  0  0  0  0  0  0  0
   13.3389  -19.1590   21.1520 S   0  0  0  0  0  0  0  0  0  0  0  0
   11.6971  -18.1508   23.3720 C   0  0  0  0  0  0  0  0  0  0  0  0
   11.7949  -16.9187   23.0188 O   0  0  0  0  0  0  0  0  0  0  0  0
   12.3066  -18.4431   24.6161 N   0  0  0  0  0  0  0  0  0  0  0  0
   12.0840  -17.7552   25.8389 C   0  0  1  0  0  0  0  0  0  0  0  0
   10.7001  -17.3574   26.1894 C   0  0  0  0  0  0  0  0  0  0  0  0
   10.6718  -16.5963   27.4560 C   0  0  0  0  0  0  0  0  0  0  0  0
   11.0305  -17.0767   28.6901 C   0  0  0  0  0  0  0  0  0  0  0  0
   10.8565  -16.0833   29.6082 N   0  0  0  0  0  0  0  0  0  0  0  0
   10.3930  -14.9957   28.9453 C   0  0  0  0  0  0  0  0  0  0  0  0
   10.0546  -13.7356   29.3919 C   0  0  0  0  0  0  0  0  0  0  0  0
    9.5969  -12.7735   28.5078 C   0  0  0  0  0  0  0  0  0  0  0  0
    9.4635  -13.0397   27.1615 C   0  0  0  0  0  0  0  0  0  0  0  0
    9.8053  -14.3075   26.7282 C   0  0  0  0  0  0  0  0  0  0  0  0
   10.2611  -15.2683   27.6025 C   0  0  0  0  0  0  0  0  0  0  0  0
   12.8002  -18.4893   26.9271 C   0  0  0  0  0  0  0  0  0  0  0  0
   13.0863  -17.9631   28.0264 O   0  0  0  0  0  0  0  0  0  0  0  0
   13.1619  -19.7962   26.7082 O   0  0  0  0  0  0  0  0  0  0  0  0
  2  3  1  0
  2  1  1  1
  4  3  1  0
  5  4  2  0
  6  7  1  0
  6  5  1  0
  7 12  2  0
  8  7  1  0
  8  9  2  0
  9 10  1  0
 10 11  2  0
 12  4  1  0
 12 11  1  0
 13  2  1  0
 13 15  1  0
 14 13  2  0
 16 15  1  0
 16 17  1  6
 17 18  1  0
 19 20  2  0
 19 16  1  0
 21 19  1  0
 22 21  1  0
 22 33  1  0
 22 23  1  1
 24 23  1  0
 25 24  2  0
 26 27  1  0
 26 25  1  0
 27 32  2  0
 28 29  2  0
 28 27  1  0
 29 30  1  0
 30 31  2  0
 32 24  1  0
 32 31  1  0
 33 35  1  0
 34 33  2  0
M  END
$$$$
