WCW.pdb
     RDKit          3D

 35 38  0  0  1  0  0  0  0  0999 V2000
    6.1882  -18.1089   24.6218 N   0  0  0  0  0  0  0  0  0  0  0  0
    7.2772  -17.2121   24.1660 C   0  0  1  0  0  0  0  0  0  0  0  0
    7.8882  -16.5975   25.3779 C   0  0  0  0  0  0  0  0  0  0  0  0
    7.2069  -15.3900   25.8674 C   0  0  0  0  0  0  0  0  0  0  0  0
    6.0724  -15.3175   26.6565 C   0  0  0  0  0  0  0  0  0  0  0  0
    5.7849  -14.0479   26.9620 N   0  0  0  0  0  0  0  0  0  0  0  0
    6.7221  -13.2712   26.3788 C   0  0  0  0  0  0  0  0  0  0  0  0
    6.8626  -11.8917   26.3942 C   0  0  0  0  0  0  0  0  0  0  0  0
    7.8982  -11.2903   25.7153 C   0  0  0  0  0  0  0  0  0  0  0  0
    8.7831  -12.0968   25.0290 C   0  0  0  0  0  0  0  0  0  0  0  0
    8.6265  -13.4557   25.0304 C   0  0  0  0  0  0  0  0  0  0  0  0
    7.6038  -14.0972   25.6986 C   0  0  0  0  0  0  0  0  0  0  0  0
    8.1303  -17.8832   23.1951 C   0  0  0  0  0  0  0  0  0  0  0  0
    8.5819  -19.0322   23.4903 O   0  0  0  0  0  0  0  0  0  0  0  0
    8.5045  -17.3511   21.9429 N   0  0  0  0  0  0  0  0  0  0  0  0
    9.7807  -17.1425   21.3715 C   0  0  1  0  0  0  0  0  0  0  0  0
    9.8383  -16.5091   19.9971 C   0  0  0  0  0  0  0  0  0  0  0  0
   11.5417  -16.4455   19.4513 S   0  0  0  0  0  0  0  0  0  0  0  0
   10.7706  -16.5717   22.2956 C   0  0  0  0  0  0  0  0  0  0  0  0
   10.8053  -15.2983   22.4672 O   0  0  0  0  0  0  0  0  0  0  0  0
   11.7356  -17.2810   23.0507 N   0  0  0  0  0  0  0  0  0  0  0  0
   12.8804  -16.7230   23.6801 C   0  0  1  0  0  0  0  0  0  0  0  0
   12.6959  -15.5881   24.6151 C   0  0  0  0  0  0  0  0  0  0  0  0
   11.7534  -15.9406   25.6976 C   0  0  0  0  0  0  0  0  0  0  0  0
   11.5127  -17.2048   26.1731 C   0  0  0  0  0  0  0  0  0  0  0  0
   10.5738  -17.1245   27.1591 N   0  0  0  0  0  0  0  0  0  0  0  0
   10.2363  -15.8185   27.2917 C   0  0  0  0  0  0  0  0  0  0  0  0
    9.3424  -15.1924   28.1347 C   0  0  0  0  0  0  0  0  0  0  0  0
    9.1680  -13.8198   28.0837 C   0  0  0  0  0  0  0  0  0  0  0  0
    9.8751  -13.0379   27.1951 C   0  0  0  0  0  0  0  0  0  0  0  0
   10.7668  -13.6793   26.3553 C   0  0  0  0  0  0  0  0  0  0  0  0
   10.9447  -15.0437   26.4014 C   0  0  0  0  0  0  0  0  0  0  0  0
   13.7019  -17.8420   24.2362 C   0  0  0  0  0  0  0  0  0  0  0  0
   14.8085  -17.6601   24.7925 O   0  0  0  0  0  0  0  0  0  0  0  0
   13.2217  -19.1243   24.1282 O   0  0  0  0  0  0  0  0  0  0  0  0
  2  3  1  0
  2  1  1  1
  4  3  1  0
  5  4  2  0
  6  7  1  0
  6  5  1  0
  7 12  2  0
  8  7  1  0
  8  9  2  0
  9 10  1  0
 10 11  2  0
 12  4  1  0
 12 11  1  0
 13  2  1  0
 13 15  1  0
 14 13  2  0
 16 15  1  0
 16 17  1  6
 17 18  1  0
 19 20  2  0
 19 16  1  0
 21 19  1  0
 22 21  1  0
 22 33  1  0
 22 23  1  1
 24 23  1  0
 25 24  2  0
 26 27  1  0
 26 25  1  0
 27 32  2  0
 28 29  2  0
 28 27  1  0
 29 30  1  0
 30 31  2  0
 32 24  1  0
 32 31  1  0
 33 35  1  0
 34 33  2  0
M  END
$$$$
