WCW.pdb
     RDKit          3D

 35 38  0  0  1  0  0  0  0  0999 V2000
    8.7850  -16.8574   21.2122 N   0  0  0  0  0  0  0  0  0  0  0  0
   10.0090  -16.4143   21.9216 C   0  0  1  0  0  0  0  0  0  0  0  0
    9.8456  -14.9671   22.2357 C   0  0  0  0  0  0  0  0  0  0  0  0
    9.6095  -14.1052   21.0681 C   0  0  0  0  0  0  0  0  0  0  0  0
   10.5364  -13.6583   20.1428 C   0  0  0  0  0  0  0  0  0  0  0  0
    9.9418  -12.9507   19.1765 N   0  0  0  0  0  0  0  0  0  0  0  0
    8.6211  -12.9216   19.4532 C   0  0  0  0  0  0  0  0  0  0  0  0
    7.5849  -12.3155   18.7590 C   0  0  0  0  0  0  0  0  0  0  0  0
    6.2924  -12.3991   19.2256 C   0  0  0  0  0  0  0  0  0  0  0  0
    6.0647  -13.1002   20.3922 C   0  0  0  0  0  0  0  0  0  0  0  0
    7.1021  -13.6927   21.0585 C   0  0  0  0  0  0  0  0  0  0  0  0
    8.4104  -13.6336   20.6240 C   0  0  0  0  0  0  0  0  0  0  0  0
   10.3571  -17.3441   22.9869 C   0  0  0  0  0  0  0  0  0  0  0  0
    9.4260  -18.0328   23.5064 O   0  0  0  0  0  0  0  0  0  0  0  0
   11.6580  -17.5383   23.4980 N   0  0  0  0  0  0  0  0  0  0  0  0
   12.1231  -18.3517   24.5567 C   0  0  1  0  0  0  0  0  0  0  0  0
   12.9841  -19.5448   24.1978 C   0  0  0  0  0  0  0  0  0  0  0  0
   13.4514  -20.4032   25.6972 S   0  0  0  0  0  0  0  0  0  0  0  0
   12.6498  -17.6039   25.7069 C   0  0  0  0  0  0  0  0  0  0  0  0
   13.8338  -17.8646   26.1340 O   0  0  0  0  0  0  0  0  0  0  0  0
   11.9845  -16.5899   26.4375 N   0  0  0  0  0  0  0  0  0  0  0  0
   11.0113  -16.7918   27.4525 C   0  0  1  0  0  0  0  0  0  0  0  0
    9.5810  -16.6007   27.1146 C   0  0  0  0  0  0  0  0  0  0  0  0
    9.1671  -15.1989   27.3331 C   0  0  0  0  0  0  0  0  0  0  0  0
    9.3499  -14.4776   28.4857 C   0  0  0  0  0  0  0  0  0  0  0  0
    8.8247  -13.2321   28.3045 N   0  0  0  0  0  0  0  0  0  0  0  0
    8.3204  -13.1842   27.0472 C   0  0  0  0  0  0  0  0  0  0  0  0
    7.6845  -12.1706   26.3616 C   0  0  0  0  0  0  0  0  0  0  0  0
    7.2521  -12.3627   25.0605 C   0  0  0  0  0  0  0  0  0  0  0  0
    7.4395  -13.5643   24.4108 C   0  0  0  0  0  0  0  0  0  0  0  0
    8.0774  -14.5717   25.1108 C   0  0  0  0  0  0  0  0  0  0  0  0
    8.5097  -14.3866   26.4046 C   0  0  0  0  0  0  0  0  0  0  0  0
   11.3073  -18.0892   28.1346 C   0  0  0  0  0  0  0  0  0  0  0  0
   11.2532  -19.1929   27.5464 O   0  0  0  0  0  0  0  0  0  0  0  0
   11.6498  -18.0674   29.4646 O   0  0  0  0  0  0  0  0  0  0  0  0
  2  3  1  0
  2  1  1  1
  4  3  1  0
  5  4  2  0
  6  7  1  0
  6  5  1  0
  7 12  2  0
  8  7  1  0
  8  9  2  0
  9 10  1  0
 10 11  2  0
 12  4  1  0
 12 11  1  0
 13  2  1  0
 13 15  1  0
 14 13  2  0
 16 15  1  0
 16 17  1  6
 17 18  1  0
 19 20  2  0
 19 16  1  0
 21 19  1  0
 22 21  1  0
 22 33  1  0
 22 23  1  6
 24 23  1  0
 25 24  2  0
 26 27  1  0
 26 25  1  0
 27 32  2  0
 28 29  2  0
 28 27  1  0
 29 30  1  0
 30 31  2  0
 32 24  1  0
 32 31  1  0
 33 35  1  0
 34 33  2  0
M  END
$$$$
