WCW.pdb
     RDKit          3D

 35 38  0  0  1  0  0  0  0  0999 V2000
    6.7756  -18.0766   25.3873 N   0  0  0  0  0  0  0  0  0  0  0  0
    7.5367  -17.4538   24.2780 C   0  0  1  0  0  0  0  0  0  0  0  0
    8.4494  -16.4389   24.8753 C   0  0  0  0  0  0  0  0  0  0  0  0
    7.8059  -15.5064   25.8126 C   0  0  0  0  0  0  0  0  0  0  0  0
    7.5153  -15.7138   27.1496 C   0  0  0  0  0  0  0  0  0  0  0  0
    6.9930  -14.6128   27.6999 N   0  0  0  0  0  0  0  0  0  0  0  0
    6.9320  -13.6705   26.7354 C   0  0  0  0  0  0  0  0  0  0  0  0
    6.4677  -12.3655   26.8016 C   0  0  0  0  0  0  0  0  0  0  0  0
    6.4844  -11.5637   25.6827 C   0  0  0  0  0  0  0  0  0  0  0  0
    6.9752  -12.0949   24.5074 C   0  0  0  0  0  0  0  0  0  0  0  0
    7.4309  -13.3840   24.4666 C   0  0  0  0  0  0  0  0  0  0  0  0
    7.4326  -14.2194   25.5648 C   0  0  0  0  0  0  0  0  0  0  0  0
    8.0795  -18.4693   23.3864 C   0  0  0  0  0  0  0  0  0  0  0  0
    7.5997  -19.6424   23.4549 O   0  0  0  0  0  0  0  0  0  0  0  0
    9.1109  -18.2538   22.4478 N   0  0  0  0  0  0  0  0  0  0  0  0
    9.0562  -17.9326   21.0721 C   0  0  1  0  0  0  0  0  0  0  0  0
    7.6877  -17.7813   20.4415 C   0  0  0  0  0  0  0  0  0  0  0  0
    6.7702  -19.3027   20.6588 S   0  0  0  0  0  0  0  0  0  0  0  0
    9.9847  -16.8698   20.6623 C   0  0  0  0  0  0  0  0  0  0  0  0
    9.5115  -15.7323   20.2956 O   0  0  0  0  0  0  0  0  0  0  0  0
   11.3976  -16.9476   20.6157 N   0  0  0  0  0  0  0  0  0  0  0  0
   12.3055  -15.9508   21.0631 C   0  0  1  0  0  0  0  0  0  0  0  0
   11.7618  -14.6642   21.5584 C   0  0  0  0  0  0  0  0  0  0  0  0
   10.7287  -14.1373   20.6422 C   0  0  0  0  0  0  0  0  0  0  0  0
   10.9326  -13.7396   19.3451 C   0  0  0  0  0  0  0  0  0  0  0  0
    9.7453  -13.3041   18.8345 N   0  0  0  0  0  0  0  0  0  0  0  0
    8.8134  -13.4320   19.8104 C   0  0  0  0  0  0  0  0  0  0  0  0
    7.4657  -13.1397   19.8235 C   0  0  0  0  0  0  0  0  0  0  0  0
    6.7071  -13.3617   20.9602 C   0  0  0  0  0  0  0  0  0  0  0  0
    7.2681  -13.8772   22.1094 C   0  0  0  0  0  0  0  0  0  0  0  0
    8.6203  -14.1644   22.0821 C   0  0  0  0  0  0  0  0  0  0  0  0
    9.3798  -13.9460   20.9549 C   0  0  0  0  0  0  0  0  0  0  0  0
   13.2879  -16.5932   21.9897 C   0  0  0  0  0  0  0  0  0  0  0  0
   14.2703  -15.9817   22.4673 O   0  0  0  0  0  0  0  0  0  0  0  0
   13.1048  -17.9118   22.3277 O   0  0  0  0  0  0  0  0  0  0  0  0
  2  3  1  0
  2  1  1  1
  4  3  1  0
  5  4  2  0
  6  7  1  0
  6  5  1  0
  7 12  2  0
  8  7  1  0
  8  9  2  0
  9 10  1  0
 10 11  2  0
 12  4  1  0
 12 11  1  0
 13  2  1  0
 13 15  1  0
 14 13  2  0
 16 15  1  0
 16 17  1  1
 17 18  1  0
 19 20  2  0
 19 16  1  0
 21 19  1  0
 22 21  1  0
 22 33  1  0
 22 23  1  1
 24 23  1  0
 25 24  2  0
 26 27  1  0
 26 25  1  0
 27 32  2  0
 28 29  2  0
 28 27  1  0
 29 30  1  0
 30 31  2  0
 32 24  1  0
 32 31  1  0
 33 35  1  0
 34 33  2  0
M  END
$$$$
