KQK.pdb
     RDKit          3D

 28 27  0  0  1  0  0  0  0  0999 V2000
   22.6019  -23.9222  -17.2200 N   0  0  0  0  0  0  0  0  0  0  0  0
   22.1379  -24.6181  -16.0605 C   0  0  1  0  0  0  0  0  0  0  0  0
   23.2043  -25.5980  -15.5089 C   0  0  0  0  0  0  0  0  0  0  0  0
   23.5806  -26.4588  -16.6700 C   0  0  0  0  0  0  0  0  0  0  0  0
   22.5609  -27.5086  -16.9338 C   0  0  0  0  0  0  0  0  0  0  0  0
   22.8207  -28.4184  -18.0907 C   0  0  0  0  0  0  0  0  0  0  0  0
   23.8153  -29.4253  -17.8864 N   0  0  0  0  0  0  0  0  0  0  0  0
   21.7620  -23.7488  -14.9241 C   0  0  0  0  0  0  0  0  0  0  0  0
   22.5476  -23.6641  -13.9535 O   0  0  0  0  0  0  0  0  0  0  0  0
   21.5738  -19.9335  -12.6306 N   0  0  0  0  0  0  0  0  0  0  0  0
   21.6935  -19.5172  -13.9849 C   0  0  0  0  0  0  0  0  0  0  0  0
   22.6295  -18.7397  -14.2943 O   0  0  0  0  0  0  0  0  0  0  0  0
   20.7023  -20.0097  -15.0299 C   0  0  0  0  0  0  0  0  0  0  0  0
   19.7190  -20.8621  -14.3224 C   0  0  0  0  0  0  0  0  0  0  0  0
   20.2070  -22.1363  -13.7466 C   0  0  2  0  0  0  0  0  0  0  0  0
   20.5709  -23.0233  -14.8928 N   0  0  0  0  0  0  0  0  0  0  0  0
   19.2959  -22.9077  -12.8998 C   0  0  0  0  0  0  0  0  0  0  0  0
   18.3875  -23.6065  -13.4886 O   0  0  0  0  0  0  0  0  0  0  0  0
   19.2773  -22.9999  -11.4985 N   0  0  0  0  0  0  0  0  0  0  0  0
   18.2948  -23.9045  -10.7959 C   0  0  1  0  0  0  0  0  0  0  0  0
   18.6282  -23.9657   -9.3740 C   0  0  0  0  0  0  0  0  0  0  0  0
   17.8022  -24.6924   -8.4362 C   0  0  0  0  0  0  0  0  0  0  0  0
   18.1686  -25.2975   -7.1663 C   0  0  0  0  0  0  0  0  0  0  0  0
   17.0933  -26.0047   -6.3913 C   0  0  0  0  0  0  0  0  0  0  0  0
   17.6442  -26.7127   -5.2433 N   0  0  0  0  0  0  0  0  0  0  0  0
   17.0426  -23.0518  -11.0048 C   0  0  0  0  0  0  0  0  0  0  0  0
   17.1858  -21.7722  -11.0485 O   0  0  0  0  0  0  0  0  0  0  0  0
   15.7648  -23.4667  -11.1491 O   0  0  0  0  0  0  0  0  0  0  0  0
  2  1  1  6
  2  3  1  0
  3  4  1  0
  4  5  1  0
  5  6  1  0
  7  6  1  0
  8  2  1  0
  8  9  2  0
 10 11  1  0
 11 13  1  0
 11 12  2  0
 13 14  1  0
 15 14  1  6
 15 16  1  0
 16  8  1  0
 17 15  1  0
 18 17  2  0
 19 17  1  0
 20 19  1  0
 20 26  1  0
 20 21  1  1
 22 23  1  0
 22 21  1  0
 23 24  1  0
 24 25  1  0
 26 28  1  0
 27 26  2  0
M  END
$$$$
