KQK.pdb
     RDKit          3D

 28 27  0  0  1  0  0  0  0  0999 V2000
   27.9629  -22.5813  -17.1934 N   0  0  0  0  0  0  0  0  0  0  0  0
   27.4637  -21.4143  -16.5355 C   0  0  1  0  0  0  0  0  0  0  0  0
   26.8309  -20.4130  -17.5349 C   0  0  0  0  0  0  0  0  0  0  0  0
   27.5751  -20.6158  -18.8139 C   0  0  0  0  0  0  0  0  0  0  0  0
   26.6541  -20.8063  -19.9657 C   0  0  0  0  0  0  0  0  0  0  0  0
   27.2865  -20.9447  -21.3127 C   0  0  0  0  0  0  0  0  0  0  0  0
   26.3945  -21.1923  -22.4026 N   0  0  0  0  0  0  0  0  0  0  0  0
   26.4266  -21.6741  -15.5131 C   0  0  0  0  0  0  0  0  0  0  0  0
   25.5454  -22.5274  -15.7618 O   0  0  0  0  0  0  0  0  0  0  0  0
   27.0562  -20.3388   -9.5321 N   0  0  0  0  0  0  0  0  0  0  0  0
   27.7604  -21.3728  -10.2078 C   0  0  0  0  0  0  0  0  0  0  0  0
   28.8043  -21.8317   -9.6825 O   0  0  0  0  0  0  0  0  0  0  0  0
   27.2510  -21.9050  -11.5398 C   0  0  0  0  0  0  0  0  0  0  0  0
   26.0839  -21.0746  -11.9170 C   0  0  0  0  0  0  0  0  0  0  0  0
   25.4237  -21.3687  -13.2096 C   0  0  2  0  0  0  0  0  0  0  0  0
   26.3931  -21.0076  -14.2880 N   0  0  0  0  0  0  0  0  0  0  0  0
   24.1761  -20.6715  -13.5248 C   0  0  0  0  0  0  0  0  0  0  0  0
   24.2672  -19.5327  -14.1207 O   0  0  0  0  0  0  0  0  0  0  0  0
   22.8586  -21.0845  -13.2674 N   0  0  0  0  0  0  0  0  0  0  0  0
   21.6869  -20.2107  -13.6425 C   0  0  1  0  0  0  0  0  0  0  0  0
   21.0077  -20.7872  -14.8014 C   0  0  0  0  0  0  0  0  0  0  0  0
   19.7721  -20.2309  -15.3053 C   0  0  0  0  0  0  0  0  0  0  0  0
   18.9565  -20.6700  -16.4257 C   0  0  0  0  0  0  0  0  0  0  0  0
   17.7665  -19.8315  -16.7966 C   0  0  0  0  0  0  0  0  0  0  0  0
   17.0465  -20.4020  -17.9275 N   0  0  0  0  0  0  0  0  0  0  0  0
   20.8513  -20.4324  -12.3810 C   0  0  0  0  0  0  0  0  0  0  0  0
   19.7909  -19.7171  -12.2277 O   0  0  0  0  0  0  0  0  0  0  0  0
   21.0808  -21.2982  -11.3693 O   0  0  0  0  0  0  0  0  0  0  0  0
  2  1  1  6
  2  3  1  0
  3  4  1  0
  4  5  1  0
  5  6  1  0
  7  6  1  0
  8  2  1  0
  8  9  2  0
 10 11  1  0
 11 13  1  0
 11 12  2  0
 13 14  1  0
 15 14  1  1
 15 16  1  0
 16  8  1  0
 17 15  1  0
 18 17  2  0
 19 17  1  0
 20 19  1  0
 20 26  1  0
 20 21  1  6
 22 23  1  0
 22 21  1  0
 23 24  1  0
 24 25  1  0
 26 28  1  0
 27 26  2  0
M  END
$$$$
