KQK.pdb
     RDKit          3D

 28 27  0  0  1  0  0  0  0  0999 V2000
   28.5149  -25.3483  -17.0163 N   0  0  0  0  0  0  0  0  0  0  0  0
   27.5159  -26.3555  -16.8390 C   0  0  1  0  0  0  0  0  0  0  0  0
   26.3194  -26.1596  -17.8041 C   0  0  0  0  0  0  0  0  0  0  0  0
   25.9874  -24.7056  -17.7233 C   0  0  0  0  0  0  0  0  0  0  0  0
   25.0807  -24.4076  -16.5830 C   0  0  0  0  0  0  0  0  0  0  0  0
   24.6730  -22.9806  -16.4071 C   0  0  0  0  0  0  0  0  0  0  0  0
   23.7591  -22.7158  -15.3396 N   0  0  0  0  0  0  0  0  0  0  0  0
   27.9866  -27.7412  -17.0556 C   0  0  0  0  0  0  0  0  0  0  0  0
   28.7453  -27.9680  -18.0249 O   0  0  0  0  0  0  0  0  0  0  0  0
   27.9199  -34.6210  -15.1528 N   0  0  0  0  0  0  0  0  0  0  0  0
   27.6048  -33.2608  -14.8840 C   0  0  0  0  0  0  0  0  0  0  0  0
   26.4235  -32.9667  -14.5769 O   0  0  0  0  0  0  0  0  0  0  0  0
   28.6845  -32.1913  -14.9696 C   0  0  0  0  0  0  0  0  0  0  0  0
   27.9913  -30.8916  -15.1259 C   0  0  0  0  0  0  0  0  0  0  0  0
   28.1445  -30.1854  -16.4185 C   0  0  2  0  0  0  0  0  0  0  0  0
   27.6189  -28.8000  -16.2250 N   0  0  0  0  0  0  0  0  0  0  0  0
   27.4563  -30.7286  -17.5905 C   0  0  0  0  0  0  0  0  0  0  0  0
   26.7786  -29.9061  -18.3146 O   0  0  0  0  0  0  0  0  0  0  0  0
   27.4365  -32.0551  -18.0516 N   0  0  0  0  0  0  0  0  0  0  0  0
   28.0544  -32.4220  -19.3786 C   0  0  1  0  0  0  0  0  0  0  0  0
   29.4253  -31.9172  -19.4274 C   0  0  0  0  0  0  0  0  0  0  0  0
   30.2997  -32.2157  -20.5393 C   0  0  0  0  0  0  0  0  0  0  0  0
   31.7498  -32.3149  -20.5667 C   0  0  0  0  0  0  0  0  0  0  0  0
   32.4057  -32.6255  -21.8820 C   0  0  0  0  0  0  0  0  0  0  0  0
   33.8545  -32.4963  -21.7967 N   0  0  0  0  0  0  0  0  0  0  0  0
   28.0606  -33.9397  -19.1913 C   0  0  0  0  0  0  0  0  0  0  0  0
   27.9682  -34.3988  -17.9911 O   0  0  0  0  0  0  0  0  0  0  0  0
   28.1580  -34.8974  -20.1396 O   0  0  0  0  0  0  0  0  0  0  0  0
  2  1  1  6
  2  3  1  0
  3  4  1  0
  4  5  1  0
  5  6  1  0
  7  6  1  0
  8  2  1  0
  8  9  2  0
 10 11  1  0
 11 13  1  0
 11 12  2  0
 13 14  1  0
 15 14  1  1
 15 16  1  0
 16  8  1  0
 17 15  1  0
 18 17  2  0
 19 17  1  0
 20 19  1  0
 20 26  1  0
 20 21  1  1
 22 23  1  0
 22 21  1  0
 23 24  1  0
 24 25  1  0
 26 28  1  0
 27 26  2  0
M  END
$$$$
