KQK.pdb
     RDKit          3D

 28 27  0  0  1  0  0  0  0  0999 V2000
   28.4942  -22.5269  -16.4170 N   0  0  0  0  0  0  0  0  0  0  0  0
   27.4647  -21.8086  -17.1012 C   0  0  1  0  0  0  0  0  0  0  0  0
   26.5725  -22.7471  -17.9525 C   0  0  0  0  0  0  0  0  0  0  0  0
   25.9861  -23.7164  -16.9792 C   0  0  0  0  0  0  0  0  0  0  0  0
   26.1008  -25.1195  -17.4583 C   0  0  0  0  0  0  0  0  0  0  0  0
   25.4400  -26.1681  -16.6233 C   0  0  0  0  0  0  0  0  0  0  0  0
   25.5889  -27.5166  -17.0754 N   0  0  0  0  0  0  0  0  0  0  0  0
   26.5399  -21.0609  -16.2213 C   0  0  0  0  0  0  0  0  0  0  0  0
   26.4207  -21.4299  -15.0313 O   0  0  0  0  0  0  0  0  0  0  0  0
   25.0710  -15.2848  -17.2665 N   0  0  0  0  0  0  0  0  0  0  0  0
   26.3421  -15.7797  -16.8654 C   0  0  0  0  0  0  0  0  0  0  0  0
   27.3548  -15.0637  -17.0605 O   0  0  0  0  0  0  0  0  0  0  0  0
   26.4617  -17.1503  -16.2141 C   0  0  0  0  0  0  0  0  0  0  0  0
   25.0991  -17.7302  -16.1787 C   0  0  0  0  0  0  0  0  0  0  0  0
   24.9659  -19.1384  -15.7401 C   0  0  2  0  0  0  0  0  0  0  0  0
   25.7989  -19.9653  -16.6649 N   0  0  0  0  0  0  0  0  0  0  0  0
   23.6315  -19.7396  -15.7364 C   0  0  0  0  0  0  0  0  0  0  0  0
   23.2231  -20.2838  -16.8306 O   0  0  0  0  0  0  0  0  0  0  0  0
   22.7125  -19.8137  -14.6769 N   0  0  0  0  0  0  0  0  0  0  0  0
   21.3447  -20.4178  -14.8802 C   0  0  1  0  0  0  0  0  0  0  0  0
   21.1732  -21.5416  -13.9612 C   0  0  0  0  0  0  0  0  0  0  0  0
   19.9507  -22.3126  -13.9327 C   0  0  0  0  0  0  0  0  0  0  0  0
   19.5948  -23.4393  -13.0859 C   0  0  0  0  0  0  0  0  0  0  0  0
   18.2276  -24.0383  -13.2552 C   0  0  0  0  0  0  0  0  0  0  0  0
   18.0249  -25.1633  -12.3518 N   0  0  0  0  0  0  0  0  0  0  0  0
   20.5178  -19.2218  -14.4064 C   0  0  0  0  0  0  0  0  0  0  0  0
   21.0922  -18.3568  -13.6438 O   0  0  0  0  0  0  0  0  0  0  0  0
   19.2252  -18.9396  -14.6807 O   0  0  0  0  0  0  0  0  0  0  0  0
  2  1  1  1
  2  3  1  0
  3  4  1  0
  4  5  1  0
  5  6  1  0
  7  6  1  0
  8  2  1  0
  8  9  2  0
 10 11  1  0
 11 13  1  0
 11 12  2  0
 13 14  1  0
 15 14  1  6
 15 16  1  0
 16  8  1  0
 17 15  1  0
 18 17  2  0
 19 17  1  0
 20 19  1  0
 20 26  1  0
 20 21  1  1
 22 23  1  0
 22 21  1  0
 23 24  1  0
 24 25  1  0
 26 28  1  0
 27 26  2  0
M  END
$$$$
