KQK.pdb
     RDKit          3D

 28 27  0  0  1  0  0  0  0  0999 V2000
   15.6601  -21.0007    0.2281 N   0  0  0  0  0  0  0  0  0  0  0  0
   15.1738  -20.3077    1.3802 C   0  0  1  0  0  0  0  0  0  0  0  0
   14.2379  -21.1967    2.2377 C   0  0  0  0  0  0  0  0  0  0  0  0
   13.3270  -21.8617    1.2586 C   0  0  0  0  0  0  0  0  0  0  0  0
   12.2476  -22.6261    1.9381 C   0  0  0  0  0  0  0  0  0  0  0  0
   11.3157  -23.3947    1.0581 C   0  0  0  0  0  0  0  0  0  0  0  0
   10.2908  -24.1362    1.7249 N   0  0  0  0  0  0  0  0  0  0  0  0
   16.2245  -19.8215    2.3011 C   0  0  0  0  0  0  0  0  0  0  0  0
   17.2494  -20.5224    2.4588 O   0  0  0  0  0  0  0  0  0  0  0  0
   18.1835  -14.3128    2.4785 N   0  0  0  0  0  0  0  0  0  0  0  0
   17.0715  -14.3350    3.3642 C   0  0  0  0  0  0  0  0  0  0  0  0
   16.4691  -13.2589    3.5998 O   0  0  0  0  0  0  0  0  0  0  0  0
   16.6287  -15.6413    4.0080 C   0  0  0  0  0  0  0  0  0  0  0  0
   17.4882  -16.7099    3.4482 C   0  0  0  0  0  0  0  0  0  0  0  0
   17.2134  -18.1018    3.8726 C   0  0  2  0  0  0  0  0  0  0  0  0
   16.1173  -18.6176    2.9977 N   0  0  0  0  0  0  0  0  0  0  0  0
   16.7844  -18.3334    5.2527 C   0  0  0  0  0  0  0  0  0  0  0  0
   15.5170  -18.3829    5.4795 O   0  0  0  0  0  0  0  0  0  0  0  0
   17.5826  -18.5206    6.3931 N   0  0  0  0  0  0  0  0  0  0  0  0
   16.9600  -18.6319    7.7631 C   0  0  1  0  0  0  0  0  0  0  0  0
   17.9171  -19.2509    8.6783 C   0  0  0  0  0  0  0  0  0  0  0  0
   17.5862  -19.4946   10.0643 C   0  0  0  0  0  0  0  0  0  0  0  0
   18.4019  -20.0833   11.1136 C   0  0  0  0  0  0  0  0  0  0  0  0
   17.7542  -20.3363   12.4453 C   0  0  0  0  0  0  0  0  0  0  0  0
   18.6278  -21.1032   13.3237 N   0  0  0  0  0  0  0  0  0  0  0  0
   16.8431  -17.1362    8.0593 C   0  0  0  0  0  0  0  0  0  0  0  0
   15.9628  -16.7600    8.9215 O   0  0  0  0  0  0  0  0  0  0  0  0
   17.5538  -16.1207    7.5213 O   0  0  0  0  0  0  0  0  0  0  0  0
  2  1  1  6
  2  3  1  0
  3  4  1  0
  4  5  1  0
  5  6  1  0
  7  6  1  0
  8  2  1  0
  8  9  2  0
 10 11  1  0
 11 13  1  0
 11 12  2  0
 13 14  1  0
 15 14  1  1
 15 16  1  0
 16  8  1  0
 17 15  1  0
 18 17  2  0
 19 17  1  0
 20 19  1  0
 20 26  1  0
 20 21  1  1
 22 23  1  0
 22 21  1  0
 23 24  1  0
 24 25  1  0
 26 28  1  0
 27 26  2  0
M  END
$$$$
