EII.pdb
     RDKit          3D

 26 25  0  0  1  0  0  0  0  0999 V2000
    9.9201  -15.7645   19.7029 N   0  0  0  0  0  0  0  0  0  0  0  0
    9.3865  -16.5269   20.7731 C   0  0  1  0  0  0  0  0  0  0  0  0
    9.9960  -17.8795   20.8652 C   0  0  0  0  0  0  0  0  0  0  0  0
   11.4543  -17.9350   20.6296 C   0  0  0  0  0  0  0  0  0  0  0  0
   12.1076  -19.2362   20.6469 C   0  0  0  0  0  0  0  0  0  0  0  0
   11.5570  -20.2841   20.3054 O   0  0  0  0  0  0  0  0  0  0  0  0
    9.4899  -15.7718   22.0507 C   0  0  0  0  0  0  0  0  0  0  0  0
   10.5399  -15.0450   22.2639 O   0  0  0  0  0  0  0  0  0  0  0  0
   13.4503  -19.3683   21.0701 O   0  0  0  0  0  0  0  0  0  0  0  0
    5.7275  -13.1073   26.0080 C   0  0  0  0  0  0  0  0  0  0  0  0
    7.1444  -13.4557   25.6715 C   0  0  0  0  0  0  0  0  0  0  0  0
    7.3112  -14.4923   24.6377 C   0  0  2  0  0  0  0  0  0  0  0  0
    6.5764  -15.7409   25.0990 C   0  0  0  0  0  0  0  0  0  0  0  0
    8.7102  -14.9044   24.2861 C   0  0  2  0  0  0  0  0  0  0  0  0
    8.5429  -15.7640   23.0816 N   0  0  0  0  0  0  0  0  0  0  0  0
    9.2671  -15.7553   25.3491 C   0  0  0  0  0  0  0  0  0  0  0  0
    9.4924  -16.9943   25.0926 O   0  0  0  0  0  0  0  0  0  0  0  0
   10.5993  -13.2625   29.9311 C   0  0  0  0  0  0  0  0  0  0  0  0
   11.0622  -14.1795   28.8506 C   0  0  0  0  0  0  0  0  0  0  0  0
   10.5480  -15.5695   28.9063 C   0  0  2  0  0  0  0  0  0  0  0  0
   11.4238  -16.4917   29.7274 C   0  0  0  0  0  0  0  0  0  0  0  0
   10.2761  -16.2281   27.5873 C   0  0  2  0  0  0  0  0  0  0  0  0
    9.5932  -15.3540   26.6550 N   0  0  0  0  0  0  0  0  0  0  0  0
    9.5900  -17.5293   27.7334 C   0  0  0  0  0  0  0  0  0  0  0  0
    8.3441  -17.6083   27.7701 O   0  0  0  0  0  0  0  0  0  0  0  0
   10.3305  -18.6878   27.8332 O   0  0  0  0  0  0  0  0  0  0  0  0
  2  1  1  6
  2  3  1  0
  4  3  1  0
  4  5  1  0
  5  9  1  0
  6  5  2  0
  7  2  1  0
  8  7  2  0
 10 11  1  0
 11 12  1  0
 12 14  1  0
 12 13  1  1
 14 15  1  6
 15  7  1  0
 16 17  2  0
 16 14  1  0
 18 19  1  0
 19 20  1  0
 20 22  1  0
 20 21  1  6
 22 23  1  6
 23 16  1  0
 24 22  1  0
 25 24  2  0
 26 24  1  0
M  END
$$$$
