EII.pdb
     RDKit          3D

 26 25  0  0  1  0  0  0  0  0999 V2000
   12.4973  -17.0720   19.5453 N   0  0  0  0  0  0  0  0  0  0  0  0
   11.8910  -17.4178   20.7797 C   0  0  1  0  0  0  0  0  0  0  0  0
   12.8483  -18.0510   21.7243 C   0  0  0  0  0  0  0  0  0  0  0  0
   12.2948  -18.3971   23.0507 C   0  0  0  0  0  0  0  0  0  0  0  0
   11.9246  -19.7824   23.3044 C   0  0  0  0  0  0  0  0  0  0  0  0
   12.5062  -20.7489   22.8089 O   0  0  0  0  0  0  0  0  0  0  0  0
   11.2096  -16.2358   21.3727 C   0  0  0  0  0  0  0  0  0  0  0  0
   11.9275  -15.2327   21.7660 O   0  0  0  0  0  0  0  0  0  0  0  0
   10.8441  -20.0997   24.1595 O   0  0  0  0  0  0  0  0  0  0  0  0
    7.2949  -13.9538   18.7951 C   0  0  0  0  0  0  0  0  0  0  0  0
    8.4565  -14.1252   19.7243 C   0  0  0  0  0  0  0  0  0  0  0  0
    8.1124  -14.5415   21.0952 C   0  0  2  0  0  0  0  0  0  0  0  0
    7.2501  -13.4539   21.7160 C   0  0  0  0  0  0  0  0  0  0  0  0
    9.2427  -14.8087   22.0448 C   0  0  2  0  0  0  0  0  0  0  0  0
    9.8301  -16.0878   21.5585 N   0  0  0  0  0  0  0  0  0  0  0  0
    8.7171  -15.0615   23.3953 C   0  0  0  0  0  0  0  0  0  0  0  0
    8.7329  -16.2642   23.8480 O   0  0  0  0  0  0  0  0  0  0  0  0
    7.0252  -10.8313   26.7421 C   0  0  0  0  0  0  0  0  0  0  0  0
    7.7784  -12.0668   26.3832 C   0  0  0  0  0  0  0  0  0  0  0  0
    6.9780  -13.3094   26.2604 C   0  0  2  0  0  0  0  0  0  0  0  0
    6.4334  -13.7957   27.5865 C   0  0  0  0  0  0  0  0  0  0  0  0
    7.6465  -14.4623   25.5739 C   0  0  2  0  0  0  0  0  0  0  0  0
    8.1840  -14.1062   24.2763 N   0  0  0  0  0  0  0  0  0  0  0  0
    6.7840  -15.6611   25.5079 C   0  0  0  0  0  0  0  0  0  0  0  0
    5.8908  -15.7741   24.6425 O   0  0  0  0  0  0  0  0  0  0  0  0
    6.9593  -16.6829   26.4166 O   0  0  0  0  0  0  0  0  0  0  0  0
  2  1  1  6
  2  3  1  0
  4  3  1  0
  4  5  1  0
  5  9  1  0
  6  5  2  0
  7  2  1  0
  8  7  2  0
 10 11  1  0
 11 12  1  0
 12 14  1  0
 12 13  1  1
 14 15  1  6
 15  7  1  0
 16 17  2  0
 16 14  1  0
 18 19  1  0
 19 20  1  0
 20 22  1  0
 20 21  1  1
 22 23  1  6
 23 16  1  0
 24 22  1  0
 25 24  2  0
 26 24  1  0
M  END
$$$$
