EII.pdb
     RDKit          3D

 26 25  0  0  1  0  0  0  0  0999 V2000
    8.5048  -15.3713   19.8991 N   0  0  0  0  0  0  0  0  0  0  0  0
    8.5403  -16.2096   21.0424 C   0  0  1  0  0  0  0  0  0  0  0  0
    9.3978  -17.4070   20.8416 C   0  0  0  0  0  0  0  0  0  0  0  0
    8.7727  -18.5153   20.0891 C   0  0  0  0  0  0  0  0  0  0  0  0
    9.5516  -19.7255   19.8678 C   0  0  0  0  0  0  0  0  0  0  0  0
    9.5987  -20.6653   20.6631 O   0  0  0  0  0  0  0  0  0  0  0  0
    8.9320  -15.4290   22.2467 C   0  0  0  0  0  0  0  0  0  0  0  0
    9.9747  -14.6643   22.1838 O   0  0  0  0  0  0  0  0  0  0  0  0
   10.3187  -19.8896   18.6913 O   0  0  0  0  0  0  0  0  0  0  0  0
    5.5152  -12.5947   25.1014 C   0  0  0  0  0  0  0  0  0  0  0  0
    6.7867  -13.0754   24.4734 C   0  0  0  0  0  0  0  0  0  0  0  0
    7.5427  -14.0674   25.2578 C   0  0  2  0  0  0  0  0  0  0  0  0
    7.9564  -13.4166   26.5681 C   0  0  0  0  0  0  0  0  0  0  0  0
    8.7807  -14.6459   24.6386 C   0  0  2  0  0  0  0  0  0  0  0  0
    8.2730  -15.4343   23.4817 N   0  0  0  0  0  0  0  0  0  0  0  0
    9.4103  -15.5983   25.5663 C   0  0  0  0  0  0  0  0  0  0  0  0
    9.0803  -16.8382   25.4951 O   0  0  0  0  0  0  0  0  0  0  0  0
   10.8631  -14.7842   30.2775 C   0  0  0  0  0  0  0  0  0  0  0  0
   11.7003  -14.5660   29.0634 C   0  0  0  0  0  0  0  0  0  0  0  0
   12.0430  -15.7765   28.2780 C   0  0  2  0  0  0  0  0  0  0  0  0
   13.3003  -15.6091   27.4517 C   0  0  0  0  0  0  0  0  0  0  0  0
   10.9632  -16.3168   27.3894 C   0  0  2  0  0  0  0  0  0  0  0  0
   10.3641  -15.2970   26.5523 N   0  0  0  0  0  0  0  0  0  0  0  0
    9.9480  -17.0899   28.1356 C   0  0  0  0  0  0  0  0  0  0  0  0
    8.8058  -16.6315   28.3471 O   0  0  0  0  0  0  0  0  0  0  0  0
   10.2572  -18.3453   28.6142 O   0  0  0  0  0  0  0  0  0  0  0  0
  2  1  1  6
  2  3  1  0
  4  3  1  0
  4  5  1  0
  5  9  1  0
  6  5  2  0
  7  2  1  0
  8  7  2  0
 10 11  1  0
 11 12  1  0
 12 14  1  0
 12 13  1  1
 14 15  1  6
 15  7  1  0
 16 17  2  0
 16 14  1  0
 18 19  1  0
 19 20  1  0
 20 22  1  0
 20 21  1  6
 22 23  1  1
 23 16  1  0
 24 22  1  0
 25 24  2  0
 26 24  1  0
M  END
$$$$
