EII.pdb
     RDKit          3D

 26 25  0  0  1  0  0  0  0  0999 V2000
   10.2146  -18.8282   19.9477 N   0  0  0  0  0  0  0  0  0  0  0  0
   11.1959  -17.8058   19.9992 C   0  0  1  0  0  0  0  0  0  0  0  0
   11.6227  -17.3604   18.6468 C   0  0  0  0  0  0  0  0  0  0  0  0
   12.9939  -17.7494   18.2547 C   0  0  0  0  0  0  0  0  0  0  0  0
   13.4796  -17.3409   16.9442 C   0  0  0  0  0  0  0  0  0  0  0  0
   12.9327  -17.6490   15.8840 O   0  0  0  0  0  0  0  0  0  0  0  0
   10.7247  -16.6758   20.8443 C   0  0  0  0  0  0  0  0  0  0  0  0
   11.5917  -15.8215   21.2854 O   0  0  0  0  0  0  0  0  0  0  0  0
   14.6409  -16.5444   16.8167 O   0  0  0  0  0  0  0  0  0  0  0  0
    7.9401  -13.1198   20.2956 C   0  0  0  0  0  0  0  0  0  0  0  0
    7.2627  -14.4252   20.5769 C   0  0  0  0  0  0  0  0  0  0  0  0
    7.6027  -15.0476   21.8684 C   0  0  2  0  0  0  0  0  0  0  0  0
    7.0872  -14.1444   22.9775 C   0  0  0  0  0  0  0  0  0  0  0  0
    9.0516  -15.3154   22.1509 C   0  0  2  0  0  0  0  0  0  0  0  0
    9.4009  -16.4302   21.2274 N   0  0  0  0  0  0  0  0  0  0  0  0
    9.2120  -15.8247   23.5216 C   0  0  0  0  0  0  0  0  0  0  0  0
    9.3377  -17.0914   23.6980 O   0  0  0  0  0  0  0  0  0  0  0  0
   10.3611  -12.2929   27.6879 C   0  0  0  0  0  0  0  0  0  0  0  0
   10.5354  -13.5041   26.8364 C   0  0  0  0  0  0  0  0  0  0  0  0
    9.5954  -14.6231   27.0890 C   0  0  2  0  0  0  0  0  0  0  0  0
    9.8678  -15.3416   28.3933 C   0  0  0  0  0  0  0  0  0  0  0  0
    9.4789  -15.6483   26.0013 C   0  0  2  0  0  0  0  0  0  0  0  0
    9.2465  -15.0586   24.6983 N   0  0  0  0  0  0  0  0  0  0  0  0
    8.4920  -16.7022   26.3181 C   0  0  0  0  0  0  0  0  0  0  0  0
    7.2791  -16.5584   26.0578 O   0  0  0  0  0  0  0  0  0  0  0  0
    8.9072  -17.8737   26.9147 O   0  0  0  0  0  0  0  0  0  0  0  0
  2  1  1  6
  2  3  1  0
  4  3  1  0
  4  5  1  0
  5  9  1  0
  6  5  2  0
  7  2  1  0
  8  7  2  0
 10 11  1  0
 11 12  1  0
 12 14  1  0
 12 13  1  1
 14 15  1  6
 15  7  1  0
 16 17  2  0
 16 14  1  0
 18 19  1  0
 19 20  1  0
 20 22  1  0
 20 21  1  1
 22 23  1  6
 23 16  1  0
 24 22  1  0
 25 24  2  0
 26 24  1  0
M  END
$$$$
