EII.pdb
     RDKit          3D

 26 25  0  0  1  0  0  0  0  0999 V2000
    7.8706  -17.0899   20.5923 N   0  0  0  0  0  0  0  0  0  0  0  0
    7.8472  -17.2788   21.9976 C   0  0  1  0  0  0  0  0  0  0  0  0
    8.4437  -18.5778   22.4054 C   0  0  0  0  0  0  0  0  0  0  0  0
    7.9714  -19.7573   21.6496 C   0  0  0  0  0  0  0  0  0  0  0  0
    8.5871  -21.0473   21.9273 C   0  0  0  0  0  0  0  0  0  0  0  0
    9.2571  -21.6775   21.1076 O   0  0  0  0  0  0  0  0  0  0  0  0
    8.4817  -16.1237   22.6875 C   0  0  0  0  0  0  0  0  0  0  0  0
    9.5049  -15.5523   22.1373 O   0  0  0  0  0  0  0  0  0  0  0  0
    8.4430  -21.6628   23.1921 O   0  0  0  0  0  0  0  0  0  0  0  0
    5.2580  -12.8389   25.5038 C   0  0  0  0  0  0  0  0  0  0  0  0
    6.3515  -13.3195   24.6009 C   0  0  0  0  0  0  0  0  0  0  0  0
    7.6013  -13.7113   25.2760 C   0  0  2  0  0  0  0  0  0  0  0  0
    8.1852  -12.4754   25.9417 C   0  0  0  0  0  0  0  0  0  0  0  0
    8.6856  -14.3169   24.4343 C   0  0  2  0  0  0  0  0  0  0  0  0
    8.0787  -15.5713   23.9090 N   0  0  0  0  0  0  0  0  0  0  0  0
    9.8216  -14.7098   25.2824 C   0  0  0  0  0  0  0  0  0  0  0  0
   10.6187  -13.7959   25.7076 O   0  0  0  0  0  0  0  0  0  0  0  0
    9.5732  -13.6142   29.4228 C   0  0  0  0  0  0  0  0  0  0  0  0
   10.1358  -14.2072   28.1760 C   0  0  0  0  0  0  0  0  0  0  0  0
   10.2040  -15.6880   28.1280 C   0  0  2  0  0  0  0  0  0  0  0  0
   10.8359  -16.2914   29.3642 C   0  0  0  0  0  0  0  0  0  0  0  0
   10.8675  -16.2814   26.9217 C   0  0  2  0  0  0  0  0  0  0  0  0
   10.1437  -16.0130   25.6955 N   0  0  0  0  0  0  0  0  0  0  0  0
   11.1650  -17.7198   27.0877 C   0  0  0  0  0  0  0  0  0  0  0  0
   10.3524  -18.5986   26.7310 O   0  0  0  0  0  0  0  0  0  0  0  0
   12.3620  -18.1124   27.6478 O   0  0  0  0  0  0  0  0  0  0  0  0
  2  1  1  6
  2  3  1  0
  4  3  1  0
  4  5  1  0
  5  9  1  0
  6  5  2  0
  7  2  1  0
  8  7  2  0
 10 11  1  0
 11 12  1  0
 12 14  1  0
 12 13  1  6
 14 15  1  1
 15  7  1  0
 16 17  2  0
 16 14  1  0
 18 19  1  0
 19 20  1  0
 20 22  1  0
 20 21  1  1
 22 23  1  6
 23 16  1  0
 24 22  1  0
 25 24  2  0
 26 24  1  0
M  END
$$$$
