EII.pdb
     RDKit          3D

 26 25  0  0  1  0  0  0  0  0999 V2000
   10.4295  -19.2101   21.4257 N   0  0  0  0  0  0  0  0  0  0  0  0
   11.6117  -18.4356   21.5428 C   0  0  1  0  0  0  0  0  0  0  0  0
   12.3521  -18.3326   20.2581 C   0  0  0  0  0  0  0  0  0  0  0  0
   12.2827  -19.5265   19.3891 C   0  0  0  0  0  0  0  0  0  0  0  0
   12.9963  -19.4994   18.1201 C   0  0  0  0  0  0  0  0  0  0  0  0
   12.4554  -19.2851   17.0341 O   0  0  0  0  0  0  0  0  0  0  0  0
   11.3033  -17.1023   22.1263 C   0  0  0  0  0  0  0  0  0  0  0  0
   12.2463  -16.2181   22.1977 O   0  0  0  0  0  0  0  0  0  0  0  0
   14.3912  -19.7250   18.0672 O   0  0  0  0  0  0  0  0  0  0  0  0
    6.3565  -14.8935   21.4436 C   0  0  0  0  0  0  0  0  0  0  0  0
    7.8430  -15.0326   21.5586 C   0  0  0  0  0  0  0  0  0  0  0  0
    8.3682  -15.0789   22.9344 C   0  0  2  0  0  0  0  0  0  0  0  0
    8.0244  -13.7635   23.6151 C   0  0  0  0  0  0  0  0  0  0  0  0
    9.8422  -15.2975   23.1088 C   0  0  2  0  0  0  0  0  0  0  0  0
   10.0621  -16.6884   22.6241 N   0  0  0  0  0  0  0  0  0  0  0  0
   10.1887  -15.2792   24.5383 C   0  0  0  0  0  0  0  0  0  0  0  0
   10.5968  -14.1778   25.0598 O   0  0  0  0  0  0  0  0  0  0  0  0
    8.5716  -12.8882   27.6902 C   0  0  0  0  0  0  0  0  0  0  0  0
    9.4463  -13.8669   26.9833 C   0  0  0  0  0  0  0  0  0  0  0  0
    9.4338  -15.2542   27.5075 C   0  0  2  0  0  0  0  0  0  0  0  0
    9.6541  -15.3233   29.0036 C   0  0  0  0  0  0  0  0  0  0  0  0
   10.3719  -16.2197   26.8477 C   0  0  2  0  0  0  0  0  0  0  0  0
   10.1202  -16.3638   25.4280 N   0  0  0  0  0  0  0  0  0  0  0  0
   10.4209  -17.5256   27.5386 C   0  0  0  0  0  0  0  0  0  0  0  0
    9.7268  -18.4911   27.1567 O   0  0  0  0  0  0  0  0  0  0  0  0
   11.2461  -17.6936   28.6301 O   0  0  0  0  0  0  0  0  0  0  0  0
  2  1  1  6
  2  3  1  0
  4  3  1  0
  4  5  1  0
  5  9  1  0
  6  5  2  0
  7  2  1  0
  8  7  2  0
 10 11  1  0
 11 12  1  0
 12 14  1  0
 12 13  1  6
 14 15  1  1
 15  7  1  0
 16 17  2  0
 16 14  1  0
 18 19  1  0
 19 20  1  0
 20 22  1  0
 20 21  1  1
 22 23  1  6
 23 16  1  0
 24 22  1  0
 25 24  2  0
 26 24  1  0
M  END
$$$$
