EII.pdb
     RDKit          3D

 26 25  0  0  1  0  0  0  0  0999 V2000
    9.8022  -19.3457   21.3378 N   0  0  0  0  0  0  0  0  0  0  0  0
   11.0061  -18.6117   21.1862 C   0  0  1  0  0  0  0  0  0  0  0  0
   11.5277  -18.6586   19.7951 C   0  0  0  0  0  0  0  0  0  0  0  0
   11.9131  -19.9999   19.3074 C   0  0  0  0  0  0  0  0  0  0  0  0
   12.5062  -20.1087   17.9821 C   0  0  0  0  0  0  0  0  0  0  0  0
   12.8232  -21.1782   17.4588 O   0  0  0  0  0  0  0  0  0  0  0  0
   10.8305  -17.2187   21.6777 C   0  0  0  0  0  0  0  0  0  0  0  0
   11.8122  -16.3838   21.5537 O   0  0  0  0  0  0  0  0  0  0  0  0
   12.7571  -18.9560   17.2026 O   0  0  0  0  0  0  0  0  0  0  0  0
    6.0139  -14.6625   21.3929 C   0  0  0  0  0  0  0  0  0  0  0  0
    7.4699  -15.0119   21.3788 C   0  0  0  0  0  0  0  0  0  0  0  0
    8.1455  -14.9547   22.6870 C   0  0  2  0  0  0  0  0  0  0  0  0
    7.9794  -13.5492   23.2426 C   0  0  0  0  0  0  0  0  0  0  0  0
    9.6099  -15.2783   22.7276 C   0  0  2  0  0  0  0  0  0  0  0  0
    9.6801  -16.6973   22.2813 N   0  0  0  0  0  0  0  0  0  0  0  0
   10.0965  -15.2382   24.1153 C   0  0  0  0  0  0  0  0  0  0  0  0
   11.1816  -14.5984   24.3700 O   0  0  0  0  0  0  0  0  0  0  0  0
    8.6765  -12.2565   27.5271 C   0  0  0  0  0  0  0  0  0  0  0  0
    9.4278  -13.3063   26.7816 C   0  0  0  0  0  0  0  0  0  0  0  0
    9.4324  -14.6613   27.3847 C   0  0  2  0  0  0  0  0  0  0  0  0
   10.0547  -14.6926   28.7643 C   0  0  0  0  0  0  0  0  0  0  0  0
   10.0538  -15.7499   26.5623 C   0  0  2  0  0  0  0  0  0  0  0  0
    9.4890  -15.8377   25.2308 N   0  0  0  0  0  0  0  0  0  0  0  0
   10.0507  -17.0561   27.2543 C   0  0  0  0  0  0  0  0  0  0  0  0
   10.7138  -17.2430   28.2959 O   0  0  0  0  0  0  0  0  0  0  0  0
    9.3040  -18.0987   26.7482 O   0  0  0  0  0  0  0  0  0  0  0  0
  2  1  1  6
  2  3  1  0
  4  3  1  0
  4  5  1  0
  5  9  1  0
  6  5  2  0
  7  2  1  0
  8  7  2  0
 10 11  1  0
 11 12  1  0
 12 14  1  0
 12 13  1  6
 14 15  1  1
 15  7  1  0
 16 17  2  0
 16 14  1  0
 18 19  1  0
 19 20  1  0
 20 22  1  0
 20 21  1  1
 22 23  1  6
 23 16  1  0
 24 22  1  0
 25 24  2  0
 26 24  1  0
M  END
$$$$
