EII.pdb
     RDKit          3D

 26 25  0  0  1  0  0  0  0  0999 V2000
   12.8045  -16.8561   19.7425 N   0  0  0  0  0  0  0  0  0  0  0  0
   11.7947  -17.4976   20.5040 C   0  0  1  0  0  0  0  0  0  0  0  0
   12.2514  -18.7911   21.0765 C   0  0  0  0  0  0  0  0  0  0  0  0
   13.5990  -18.7748   21.6841 C   0  0  0  0  0  0  0  0  0  0  0  0
   14.1312  -20.0208   22.2173 C   0  0  0  0  0  0  0  0  0  0  0  0
   13.6297  -20.6312   23.1628 O   0  0  0  0  0  0  0  0  0  0  0  0
   11.2633  -16.5753   21.5433 C   0  0  0  0  0  0  0  0  0  0  0  0
   12.0559  -15.6903   22.0577 O   0  0  0  0  0  0  0  0  0  0  0  0
   15.2878  -20.6131   21.6599 O   0  0  0  0  0  0  0  0  0  0  0  0
    6.3441  -14.4316   21.0298 C   0  0  0  0  0  0  0  0  0  0  0  0
    7.7926  -14.6030   21.3681 C   0  0  0  0  0  0  0  0  0  0  0  0
    8.0663  -15.2877   22.6437 C   0  0  2  0  0  0  0  0  0  0  0  0
    7.4463  -14.4660   23.7627 C   0  0  0  0  0  0  0  0  0  0  0  0
    9.5013  -15.5265   23.0105 C   0  0  2  0  0  0  0  0  0  0  0  0
    9.9554  -16.5627   22.0421 N   0  0  0  0  0  0  0  0  0  0  0  0
    9.5858  -16.1238   24.3522 C   0  0  0  0  0  0  0  0  0  0  0  0
    9.6586  -17.4028   24.4543 O   0  0  0  0  0  0  0  0  0  0  0  0
   10.5895  -12.7306   28.6511 C   0  0  0  0  0  0  0  0  0  0  0  0
   10.7948  -13.8421   27.6790 C   0  0  0  0  0  0  0  0  0  0  0  0
   10.0662  -15.1026   27.9620 C   0  0  2  0  0  0  0  0  0  0  0  0
   10.6082  -15.8414   29.1669 C   0  0  0  0  0  0  0  0  0  0  0  0
    9.9554  -16.0728   26.8245 C   0  0  2  0  0  0  0  0  0  0  0  0
    9.5985  -15.4323   25.5747 N   0  0  0  0  0  0  0  0  0  0  0  0
    9.0695  -17.2143   27.1365 C   0  0  0  0  0  0  0  0  0  0  0  0
    7.8400  -17.1619   26.9240 O   0  0  0  0  0  0  0  0  0  0  0  0
    9.6002  -18.3672   27.6749 O   0  0  0  0  0  0  0  0  0  0  0  0
  2  1  1  1
  2  3  1  0
  4  3  1  0
  4  5  1  0
  5  9  1  0
  6  5  2  0
  7  2  1  0
  8  7  2  0
 10 11  1  0
 11 12  1  0
 12 14  1  0
 12 13  1  1
 14 15  1  6
 15  7  1  0
 16 17  2  0
 16 14  1  0
 18 19  1  0
 19 20  1  0
 20 22  1  0
 20 21  1  1
 22 23  1  6
 23 16  1  0
 24 22  1  0
 25 24  2  0
 26 24  1  0
M  END
$$$$
