EII.pdb
     RDKit          3D

 26 25  0  0  1  0  0  0  0  0999 V2000
    9.5260  -15.5987   19.9699 N   0  0  0  0  0  0  0  0  0  0  0  0
    8.9844  -16.2914   21.0826 C   0  0  1  0  0  0  0  0  0  0  0  0
    9.4551  -17.6992   21.1583 C   0  0  0  0  0  0  0  0  0  0  0  0
    9.0102  -18.5766   20.0547 C   0  0  0  0  0  0  0  0  0  0  0  0
    9.3571  -19.9896   20.1130 C   0  0  0  0  0  0  0  0  0  0  0  0
    9.3868  -20.7292   19.1282 O   0  0  0  0  0  0  0  0  0  0  0  0
    9.2452  -15.5395   22.3394 C   0  0  0  0  0  0  0  0  0  0  0  0
   10.3589  -14.8904   22.4597 O   0  0  0  0  0  0  0  0  0  0  0  0
    9.6881  -20.6052   21.3422 O   0  0  0  0  0  0  0  0  0  0  0  0
    5.4972  -12.6319   24.9067 C   0  0  0  0  0  0  0  0  0  0  0  0
    6.7901  -13.1467   24.3541 C   0  0  0  0  0  0  0  0  0  0  0  0
    7.4735  -14.1557   25.1824 C   0  0  2  0  0  0  0  0  0  0  0  0
    7.7513  -13.5386   26.5440 C   0  0  0  0  0  0  0  0  0  0  0  0
    8.7710  -14.7102   24.6728 C   0  0  2  0  0  0  0  0  0  0  0  0
    8.3878  -15.4573   23.4429 N   0  0  0  0  0  0  0  0  0  0  0  0
    9.3072  -15.6945   25.6256 C   0  0  0  0  0  0  0  0  0  0  0  0
    9.5152  -16.8959   25.2195 O   0  0  0  0  0  0  0  0  0  0  0  0
   10.2796  -13.6731   30.3222 C   0  0  0  0  0  0  0  0  0  0  0  0
   11.0330  -14.3602   29.2346 C   0  0  0  0  0  0  0  0  0  0  0  0
   10.8033  -15.8192   29.0995 C   0  0  2  0  0  0  0  0  0  0  0  0
   11.9172  -16.6514   29.6980 C   0  0  0  0  0  0  0  0  0  0  0  0
   10.5326  -16.3211   27.7130 C   0  0  2  0  0  0  0  0  0  0  0  0
    9.6303  -15.4624   26.9727 N   0  0  0  0  0  0  0  0  0  0  0  0
   10.0951  -17.7330   27.6959 C   0  0  0  0  0  0  0  0  0  0  0  0
    8.8887  -18.0424   27.7887 O   0  0  0  0  0  0  0  0  0  0  0  0
   11.0298  -18.7393   27.5760 O   0  0  0  0  0  0  0  0  0  0  0  0
  2  1  1  6
  2  3  1  0
  4  3  1  0
  4  5  1  0
  5  9  1  0
  6  5  2  0
  7  2  1  0
  8  7  2  0
 10 11  1  0
 11 12  1  0
 12 14  1  0
 12 13  1  1
 14 15  1  6
 15  7  1  0
 16 17  2  0
 16 14  1  0
 18 19  1  0
 19 20  1  0
 20 22  1  0
 20 21  1  6
 22 23  1  1
 23 16  1  0
 24 22  1  0
 25 24  2  0
 26 24  1  0
M  END
$$$$
