EII.pdb
     RDKit          3D

 26 25  0  0  1  0  0  0  0  0999 V2000
   12.7947  -16.8448   19.8137 N   0  0  0  0  0  0  0  0  0  0  0  0
   11.9255  -17.5244   20.7045 C   0  0  1  0  0  0  0  0  0  0  0  0
   12.5895  -18.6681   21.3831 C   0  0  0  0  0  0  0  0  0  0  0  0
   12.9744  -19.7911   20.5021 C   0  0  0  0  0  0  0  0  0  0  0  0
   13.6056  -20.9567   21.1049 C   0  0  0  0  0  0  0  0  0  0  0  0
   13.0928  -22.0766   21.1317 O   0  0  0  0  0  0  0  0  0  0  0  0
   11.3200  -16.5682   21.6700 C   0  0  0  0  0  0  0  0  0  0  0  0
   12.0485  -15.6044   22.1352 O   0  0  0  0  0  0  0  0  0  0  0  0
   14.8800  -20.8601   21.7098 O   0  0  0  0  0  0  0  0  0  0  0  0
    6.4832  -14.6863   20.7162 C   0  0  0  0  0  0  0  0  0  0  0  0
    7.8964  -14.7513   21.2068 C   0  0  0  0  0  0  0  0  0  0  0  0
    8.0709  -15.3161   22.5565 C   0  0  2  0  0  0  0  0  0  0  0  0
    7.3918  -14.3854   23.5486 C   0  0  0  0  0  0  0  0  0  0  0  0
    9.4733  -15.5363   23.0419 C   0  0  2  0  0  0  0  0  0  0  0  0
   10.0040  -16.6010   22.1460 N   0  0  0  0  0  0  0  0  0  0  0  0
    9.4537  -16.0897   24.4047 C   0  0  0  0  0  0  0  0  0  0  0  0
    9.4562  -17.3663   24.5519 O   0  0  0  0  0  0  0  0  0  0  0  0
   10.4499  -12.4762   28.4302 C   0  0  0  0  0  0  0  0  0  0  0  0
   10.7298  -13.6845   27.6030 C   0  0  0  0  0  0  0  0  0  0  0  0
    9.9723  -14.9097   27.9561 C   0  0  2  0  0  0  0  0  0  0  0  0
   10.5046  -15.5979   29.1949 C   0  0  0  0  0  0  0  0  0  0  0  0
    9.8292  -15.9351   26.8718 C   0  0  2  0  0  0  0  0  0  0  0  0
    9.4341  -15.3573   25.6031 N   0  0  0  0  0  0  0  0  0  0  0  0
    8.9550  -17.0600   27.2662 C   0  0  0  0  0  0  0  0  0  0  0  0
    9.4056  -18.0527   27.8755 O   0  0  0  0  0  0  0  0  0  0  0  0
    7.6113  -17.0245   26.9598 O   0  0  0  0  0  0  0  0  0  0  0  0
  2  1  1  1
  2  3  1  0
  4  3  1  0
  4  5  1  0
  5  9  1  0
  6  5  2  0
  7  2  1  0
  8  7  2  0
 10 11  1  0
 11 12  1  0
 12 14  1  0
 12 13  1  1
 14 15  1  6
 15  7  1  0
 16 17  2  0
 16 14  1  0
 18 19  1  0
 19 20  1  0
 20 22  1  0
 20 21  1  1
 22 23  1  6
 23 16  1  0
 24 22  1  0
 25 24  2  0
 26 24  1  0
M  END
$$$$
