EII.pdb
     RDKit          3D

 26 25  0  0  1  0  0  0  0  0999 V2000
   12.5893  -16.4859   19.3875 N   0  0  0  0  0  0  0  0  0  0  0  0
   11.7227  -17.2298   20.2280 C   0  0  1  0  0  0  0  0  0  0  0  0
   12.3472  -18.4872   20.7163 C   0  0  0  0  0  0  0  0  0  0  0  0
   13.6873  -18.3357   21.3218 C   0  0  0  0  0  0  0  0  0  0  0  0
   14.3602  -19.5283   21.8169 C   0  0  0  0  0  0  0  0  0  0  0  0
   15.4831  -19.5211   22.3238 O   0  0  0  0  0  0  0  0  0  0  0  0
   11.2209  -16.3787   21.3401 C   0  0  0  0  0  0  0  0  0  0  0  0
   11.9369  -15.3727   21.7293 O   0  0  0  0  0  0  0  0  0  0  0  0
   13.7398  -20.7966   21.7389 O   0  0  0  0  0  0  0  0  0  0  0  0
    6.3710  -14.4993   20.9249 C   0  0  0  0  0  0  0  0  0  0  0  0
    7.8117  -14.6003   21.3200 C   0  0  0  0  0  0  0  0  0  0  0  0
    8.0737  -15.3360   22.5695 C   0  0  2  0  0  0  0  0  0  0  0  0
    7.3743  -14.6037   23.7036 C   0  0  0  0  0  0  0  0  0  0  0  0
    9.5049  -15.5243   22.9781 C   0  0  2  0  0  0  0  0  0  0  0  0
   10.0185  -16.5559   22.0347 N   0  0  0  0  0  0  0  0  0  0  0  0
    9.5713  -16.1039   24.3286 C   0  0  0  0  0  0  0  0  0  0  0  0
    9.4485  -17.3764   24.4602 O   0  0  0  0  0  0  0  0  0  0  0  0
   10.5423  -12.7614   28.6827 C   0  0  0  0  0  0  0  0  0  0  0  0
   10.8433  -13.8936   27.7607 C   0  0  0  0  0  0  0  0  0  0  0  0
   10.0412  -15.1262   27.9534 C   0  0  2  0  0  0  0  0  0  0  0  0
   10.4412  -15.9052   29.1881 C   0  0  0  0  0  0  0  0  0  0  0  0
    9.9943  -16.0738   26.7926 C   0  0  2  0  0  0  0  0  0  0  0  0
    9.7618  -15.4018   25.5301 N   0  0  0  0  0  0  0  0  0  0  0  0
    9.0506  -17.1907   27.0095 C   0  0  0  0  0  0  0  0  0  0  0  0
    9.4214  -18.2660   27.5253 O   0  0  0  0  0  0  0  0  0  0  0  0
    7.7300  -17.0548   26.6379 O   0  0  0  0  0  0  0  0  0  0  0  0
  2  1  1  1
  2  3  1  0
  4  3  1  0
  4  5  1  0
  5  9  1  0
  6  5  2  0
  7  2  1  0
  8  7  2  0
 10 11  1  0
 11 12  1  0
 12 14  1  0
 12 13  1  1
 14 15  1  6
 15  7  1  0
 16 17  2  0
 16 14  1  0
 18 19  1  0
 19 20  1  0
 20 22  1  0
 20 21  1  1
 22 23  1  6
 23 16  1  0
 24 22  1  0
 25 24  2  0
 26 24  1  0
M  END
$$$$
