EII.pdb
     RDKit          3D

 26 25  0  0  1  0  0  0  0  0999 V2000
   12.8309  -16.6703   19.8420 N   0  0  0  0  0  0  0  0  0  0  0  0
   12.0127  -17.3682   20.7664 C   0  0  1  0  0  0  0  0  0  0  0  0
   12.7505  -18.4457   21.4762 C   0  0  0  0  0  0  0  0  0  0  0  0
   13.3113  -19.5057   20.6116 C   0  0  0  0  0  0  0  0  0  0  0  0
   14.0942  -20.5633   21.2351 C   0  0  0  0  0  0  0  0  0  0  0  0
   13.9438  -21.7616   20.9919 O   0  0  0  0  0  0  0  0  0  0  0  0
   11.3611  -16.4158   21.7053 C   0  0  0  0  0  0  0  0  0  0  0  0
   12.0405  -15.4030   22.1397 O   0  0  0  0  0  0  0  0  0  0  0  0
   15.0995  -20.2596   22.1821 O   0  0  0  0  0  0  0  0  0  0  0  0
    6.3420  -14.5860   21.1135 C   0  0  0  0  0  0  0  0  0  0  0  0
    7.7909  -14.6896   21.4769 C   0  0  0  0  0  0  0  0  0  0  0  0
    8.0736  -15.3519   22.7624 C   0  0  2  0  0  0  0  0  0  0  0  0
    7.3871  -14.5586   23.8628 C   0  0  0  0  0  0  0  0  0  0  0  0
    9.5112  -15.5118   23.1606 C   0  0  2  0  0  0  0  0  0  0  0  0
   10.0493  -16.5013   22.1863 N   0  0  0  0  0  0  0  0  0  0  0  0
    9.5993  -16.1276   24.4937 C   0  0  0  0  0  0  0  0  0  0  0  0
    9.6751  -17.4077   24.5778 O   0  0  0  0  0  0  0  0  0  0  0  0
   10.3592  -12.7058   28.7143 C   0  0  0  0  0  0  0  0  0  0  0  0
   10.7701  -13.8491   27.8503 C   0  0  0  0  0  0  0  0  0  0  0  0
   10.0955  -15.1437   28.1126 C   0  0  2  0  0  0  0  0  0  0  0  0
   10.6725  -15.8810   29.3021 C   0  0  0  0  0  0  0  0  0  0  0  0
   10.0206  -16.0970   26.9580 C   0  0  2  0  0  0  0  0  0  0  0  0
    9.6125  -15.4532   25.7257 N   0  0  0  0  0  0  0  0  0  0  0  0
    9.2014  -17.2900   27.2593 C   0  0  0  0  0  0  0  0  0  0  0  0
    9.6981  -18.3030   27.7948 O   0  0  0  0  0  0  0  0  0  0  0  0
    7.8588  -17.2969   26.9463 O   0  0  0  0  0  0  0  0  0  0  0  0
  2  1  1  6
  2  3  1  0
  4  3  1  0
  4  5  1  0
  5  9  1  0
  6  5  2  0
  7  2  1  0
  8  7  2  0
 10 11  1  0
 11 12  1  0
 12 14  1  0
 12 13  1  1
 14 15  1  6
 15  7  1  0
 16 17  2  0
 16 14  1  0
 18 19  1  0
 19 20  1  0
 20 22  1  0
 20 21  1  1
 22 23  1  6
 23 16  1  0
 24 22  1  0
 25 24  2  0
 26 24  1  0
M  END
$$$$
