EII.pdb
     RDKit          3D

 26 25  0  0  1  0  0  0  0  0999 V2000
   12.6076  -16.7809   19.5600 N   0  0  0  0  0  0  0  0  0  0  0  0
   11.9360  -17.4733   20.5995 C   0  0  1  0  0  0  0  0  0  0  0  0
   12.8286  -18.4178   21.3210 C   0  0  0  0  0  0  0  0  0  0  0  0
   13.2001  -19.6368   20.5714 C   0  0  0  0  0  0  0  0  0  0  0  0
   14.0807  -20.6015   21.2148 C   0  0  0  0  0  0  0  0  0  0  0  0
   14.4903  -21.6267   20.6679 O   0  0  0  0  0  0  0  0  0  0  0  0
   11.2696  -16.5114   21.5181 C   0  0  0  0  0  0  0  0  0  0  0  0
   11.9042  -15.4382   21.8668 O   0  0  0  0  0  0  0  0  0  0  0  0
   14.5253  -20.4052   22.5427 O   0  0  0  0  0  0  0  0  0  0  0  0
    6.2415  -14.8294   20.9998 C   0  0  0  0  0  0  0  0  0  0  0  0
    7.6927  -14.8706   21.3664 C   0  0  0  0  0  0  0  0  0  0  0  0
    8.0011  -15.5234   22.6508 C   0  0  2  0  0  0  0  0  0  0  0  0
    7.3121  -14.7389   23.7561 C   0  0  0  0  0  0  0  0  0  0  0  0
    9.4456  -15.6558   23.0341 C   0  0  2  0  0  0  0  0  0  0  0  0
    9.9883  -16.6479   22.0650 N   0  0  0  0  0  0  0  0  0  0  0  0
    9.5589  -16.2544   24.3730 C   0  0  0  0  0  0  0  0  0  0  0  0
    9.6961  -17.5286   24.4691 O   0  0  0  0  0  0  0  0  0  0  0  0
   10.3802  -12.7517   28.5410 C   0  0  0  0  0  0  0  0  0  0  0  0
   10.7224  -13.8916   27.6432 C   0  0  0  0  0  0  0  0  0  0  0  0
   10.0825  -15.1911   27.9619 C   0  0  2  0  0  0  0  0  0  0  0  0
   10.7145  -15.8864   29.1488 C   0  0  0  0  0  0  0  0  0  0  0  0
    9.9861  -16.1754   26.8352 C   0  0  2  0  0  0  0  0  0  0  0  0
    9.5353  -15.5691   25.5988 N   0  0  0  0  0  0  0  0  0  0  0  0
    9.1901  -17.3691   27.1911 C   0  0  0  0  0  0  0  0  0  0  0  0
    7.9559  -17.4086   27.0040 O   0  0  0  0  0  0  0  0  0  0  0  0
    9.8121  -18.4688   27.7428 O   0  0  0  0  0  0  0  0  0  0  0  0
  2  1  1  6
  2  3  1  0
  4  3  1  0
  4  5  1  0
  5  9  1  0
  6  5  2  0
  7  2  1  0
  8  7  2  0
 10 11  1  0
 11 12  1  0
 12 14  1  0
 12 13  1  1
 14 15  1  6
 15  7  1  0
 16 17  2  0
 16 14  1  0
 18 19  1  0
 19 20  1  0
 20 22  1  0
 20 21  1  1
 22 23  1  6
 23 16  1  0
 24 22  1  0
 25 24  2  0
 26 24  1  0
M  END
$$$$
