IWN.pdb
     RDKit          3D

 31 32  0  0  1  0  0  0  0  0999 V2000
    6.7423  -12.9456   18.6934 C   0  0  0  0  0  0  0  0  0  0  0  0
    7.5694  -14.0727   19.2203 C   0  0  0  0  0  0  0  0  0  0  0  0
    7.9660  -13.9464   20.6725 C   0  0  2  0  0  0  0  0  0  0  0  0
    8.9690  -12.7825   20.7134 C   0  0  0  0  0  0  0  0  0  0  0  0
    8.7389  -15.1911   21.0575 C   0  0  2  0  0  0  0  0  0  0  0  0
    7.7672  -16.2874   20.9489 N   0  0  0  0  0  0  0  0  0  0  0  0
    9.2753  -15.1892   22.4138 C   0  0  0  0  0  0  0  0  0  0  0  0
   10.2129  -14.3628   22.7065 O   0  0  0  0  0  0  0  0  0  0  0  0
    8.8875  -16.0073   23.5004 N   0  0  0  0  0  0  0  0  0  0  0  0
    9.5524  -16.0677   24.7821 C   0  0  1  0  0  0  0  0  0  0  0  0
    8.6560  -16.1999   25.9626 C   0  0  0  0  0  0  0  0  0  0  0  0
    7.4818  -15.3405   26.0096 C   0  0  0  0  0  0  0  0  0  0  0  0
    6.1905  -15.7049   25.7324 C   0  0  0  0  0  0  0  0  0  0  0  0
    5.4054  -14.6310   25.8754 N   0  0  0  0  0  0  0  0  0  0  0  0
    6.1219  -13.5524   26.2403 C   0  0  0  0  0  0  0  0  0  0  0  0
    5.7857  -12.2402   26.5104 C   0  0  0  0  0  0  0  0  0  0  0  0
    6.7433  -11.3173   26.8781 C   0  0  0  0  0  0  0  0  0  0  0  0
    8.0517  -11.7421   26.9691 C   0  0  0  0  0  0  0  0  0  0  0  0
    8.3700  -13.0490   26.6974 C   0  0  0  0  0  0  0  0  0  0  0  0
    7.4373  -14.0015   26.3258 C   0  0  0  0  0  0  0  0  0  0  0  0
   10.6969  -17.0112   24.7722 C   0  0  0  0  0  0  0  0  0  0  0  0
   11.1836  -17.4453   25.8749 O   0  0  0  0  0  0  0  0  0  0  0  0
   14.2773  -20.3991   23.1169 N   0  0  0  0  0  0  0  0  0  0  0  0
   13.3528  -20.1111   22.0761 C   0  0  0  0  0  0  0  0  0  0  0  0
   13.5031  -20.7291   21.0055 O   0  0  0  0  0  0  0  0  0  0  0  0
   12.2944  -19.1409   22.2744 C   0  0  0  0  0  0  0  0  0  0  0  0
   12.3778  -18.4125   23.5955 C   0  0  2  0  0  0  0  0  0  0  0  0
   11.2585  -17.4387   23.5485 N   0  0  0  0  0  0  0  0  0  0  0  0
   13.6361  -17.6793   23.7321 C   0  0  0  0  0  0  0  0  0  0  0  0
   14.7188  -18.0609   24.4843 O   0  0  0  0  0  0  0  0  0  0  0  0
   13.7694  -16.5758   23.1048 O   0  0  0  0  0  0  0  0  0  0  0  0
  2  1  1  0
  3  2  1  0
  3  4  1  6
  5  7  1  0
  5  3  1  0
  5  6  1  1
  7  8  2  0
  9  7  1  0
 10  9  1  0
 10 11  1  1
 12 13  2  0
 12 11  1  0
 14 13  1  0
 15 20  2  0
 15 14  1  0
 16 15  1  0
 17 18  1  0
 17 16  2  0
 18 19  2  0
 19 20  1  0
 20 12  1  0
 21 10  1  0
 22 21  2  0
 23 24  1  0
 24 26  1  0
 25 24  2  0
 27 26  1  6
 27 28  1  0
 28 21  1  0
 29 27  1  0
 29 30  1  0
 31 29  2  0
M  END
$$$$
