IWN.pdb
     RDKit          3D

 31 32  0  0  1  0  0  0  0  0999 V2000
    6.9743  -12.1871   18.5173 C   0  0  0  0  0  0  0  0  0  0  0  0
    7.5883  -13.4885   18.9193 C   0  0  0  0  0  0  0  0  0  0  0  0
    8.0245  -13.5671   20.3636 C   0  0  2  0  0  0  0  0  0  0  0  0
    9.1659  -12.5458   20.4927 C   0  0  0  0  0  0  0  0  0  0  0  0
    8.6427  -14.9309   20.5931 C   0  0  2  0  0  0  0  0  0  0  0  0
    7.5693  -15.8874   20.2912 N   0  0  0  0  0  0  0  0  0  0  0  0
    9.1044  -15.1777   21.9544 C   0  0  0  0  0  0  0  0  0  0  0  0
   10.0877  -14.4883   22.4080 O   0  0  0  0  0  0  0  0  0  0  0  0
    8.5955  -16.1120   22.8864 N   0  0  0  0  0  0  0  0  0  0  0  0
    9.1177  -16.3390   24.2147 C   0  0  1  0  0  0  0  0  0  0  0  0
    8.0968  -16.4840   25.2876 C   0  0  0  0  0  0  0  0  0  0  0  0
    7.2614  -15.3270   25.5760 C   0  0  0  0  0  0  0  0  0  0  0  0
    5.8932  -15.2747   25.5289 C   0  0  0  0  0  0  0  0  0  0  0  0
    5.5037  -14.0349   25.8470 N   0  0  0  0  0  0  0  0  0  0  0  0
    6.5623  -13.2466   26.1080 C   0  0  0  0  0  0  0  0  0  0  0  0
    6.6873  -11.9212   26.4760 C   0  0  0  0  0  0  0  0  0  0  0  0
    7.9257  -11.3518   26.6906 C   0  0  0  0  0  0  0  0  0  0  0  0
    9.0410  -12.1454   26.5269 C   0  0  0  0  0  0  0  0  0  0  0  0
    8.9006  -13.4604   26.1606 C   0  0  0  0  0  0  0  0  0  0  0  0
    7.6760  -14.0649   25.9367 C   0  0  0  0  0  0  0  0  0  0  0  0
   10.1736  -17.3805   24.2277 C   0  0  0  0  0  0  0  0  0  0  0  0
   10.0325  -18.4498   23.5363 O   0  0  0  0  0  0  0  0  0  0  0  0
   15.2809  -19.2058   23.8052 N   0  0  0  0  0  0  0  0  0  0  0  0
   14.8051  -18.5039   24.9462 C   0  0  0  0  0  0  0  0  0  0  0  0
   15.4123  -18.6959   26.0163 O   0  0  0  0  0  0  0  0  0  0  0  0
   13.6662  -17.6131   24.8449 C   0  0  0  0  0  0  0  0  0  0  0  0
   12.3358  -18.3047   25.0309 C   0  0  2  0  0  0  0  0  0  0  0  0
   11.3423  -17.2021   25.0011 N   0  0  0  0  0  0  0  0  0  0  0  0
   12.2522  -18.9806   26.3254 C   0  0  0  0  0  0  0  0  0  0  0  0
   12.7745  -20.2123   26.6316 O   0  0  0  0  0  0  0  0  0  0  0  0
   11.6408  -18.3946   27.2804 O   0  0  0  0  0  0  0  0  0  0  0  0
  2  1  1  0
  3  2  1  0
  3  4  1  6
  5  7  1  0
  5  3  1  0
  5  6  1  1
  7  8  2  0
  9  7  1  0
 10  9  1  0
 10 11  1  1
 12 13  2  0
 12 11  1  0
 14 13  1  0
 15 20  2  0
 15 14  1  0
 16 15  1  0
 17 18  1  0
 17 16  2  0
 18 19  2  0
 19 20  1  0
 20 12  1  0
 21 10  1  0
 22 21  2  0
 23 24  1  0
 24 26  1  0
 25 24  2  0
 27 26  1  1
 27 28  1  0
 28 21  1  0
 29 27  1  0
 29 30  1  0
 31 29  2  0
M  END
$$$$
