IWN.pdb
     RDKit          3D

 31 32  0  0  1  0  0  0  0  0999 V2000
    8.7183  -15.8290   15.1494 C   0  0  0  0  0  0  0  0  0  0  0  0
    8.1250  -14.8683   16.1278 C   0  0  0  0  0  0  0  0  0  0  0  0
    8.6805  -14.9630   17.5295 C   0  0  2  0  0  0  0  0  0  0  0  0
    8.4489  -16.4220   17.9538 C   0  0  0  0  0  0  0  0  0  0  0  0
    7.8150  -14.1115   18.4354 C   0  0  2  0  0  0  0  0  0  0  0  0
    8.0673  -12.7289   18.0077 N   0  0  0  0  0  0  0  0  0  0  0  0
    8.1238  -14.2130   19.8572 C   0  0  0  0  0  0  0  0  0  0  0  0
    9.2534  -13.7711   20.2774 O   0  0  0  0  0  0  0  0  0  0  0  0
    7.3146  -14.7535   20.8836 N   0  0  0  0  0  0  0  0  0  0  0  0
    7.6688  -14.8171   22.2833 C   0  0  1  0  0  0  0  0  0  0  0  0
    6.5232  -14.8674   23.2318 C   0  0  0  0  0  0  0  0  0  0  0  0
    6.8277  -14.7790   24.6527 C   0  0  0  0  0  0  0  0  0  0  0  0
    7.0479  -15.8263   25.5081 C   0  0  0  0  0  0  0  0  0  0  0  0
    7.2824  -15.3352   26.7303 N   0  0  0  0  0  0  0  0  0  0  0  0
    7.2284  -13.9909   26.7307 C   0  0  0  0  0  0  0  0  0  0  0  0
    7.3985  -13.0374   27.7154 C   0  0  0  0  0  0  0  0  0  0  0  0
    7.2905  -11.6909   27.4339 C   0  0  0  0  0  0  0  0  0  0  0  0
    7.0068  -11.3207   26.1365 C   0  0  0  0  0  0  0  0  0  0  0  0
    6.8403  -12.2799   25.1694 C   0  0  0  0  0  0  0  0  0  0  0  0
    6.9407  -13.6382   25.4146 C   0  0  0  0  0  0  0  0  0  0  0  0
    8.7267  -15.8232   22.5451 C   0  0  0  0  0  0  0  0  0  0  0  0
    8.6297  -17.0027   22.0545 O   0  0  0  0  0  0  0  0  0  0  0  0
   13.5130  -17.7836   22.2401 N   0  0  0  0  0  0  0  0  0  0  0  0
   13.3605  -16.6218   23.0451 C   0  0  0  0  0  0  0  0  0  0  0  0
   14.2995  -16.3456   23.8149 O   0  0  0  0  0  0  0  0  0  0  0  0
   12.1608  -15.8132   22.9571 C   0  0  0  0  0  0  0  0  0  0  0  0
   10.9242  -16.5017   23.4859 C   0  0  2  0  0  0  0  0  0  0  0  0
    9.8487  -15.4895   23.3360 N   0  0  0  0  0  0  0  0  0  0  0  0
   11.0571  -16.8431   24.9020 C   0  0  0  0  0  0  0  0  0  0  0  0
   10.3159  -16.3238   25.9337 O   0  0  0  0  0  0  0  0  0  0  0  0
   11.9380  -17.7021   25.2415 O   0  0  0  0  0  0  0  0  0  0  0  0
  2  1  1  0
  3  2  1  0
  3  4  1  1
  5  7  1  0
  5  3  1  0
  5  6  1  6
  7  8  2  0
  9  7  1  0
 10  9  1  0
 10 11  1  1
 12 13  2  0
 12 11  1  0
 14 13  1  0
 15 20  2  0
 15 14  1  0
 16 15  1  0
 17 18  1  0
 17 16  2  0
 18 19  2  0
 19 20  1  0
 20 12  1  0
 21 10  1  0
 22 21  2  0
 23 24  1  0
 24 26  1  0
 25 24  2  0
 27 26  1  1
 27 28  1  0
 28 21  1  0
 29 27  1  0
 29 30  1  0
 31 29  2  0
M  END
$$$$
