IWN.pdb
     RDKit          3D

 31 32  0  0  1  0  0  0  0  0999 V2000
    7.2468  -12.0719   20.2002 C   0  0  0  0  0  0  0  0  0  0  0  0
    7.4596  -13.4481   20.7414 C   0  0  0  0  0  0  0  0  0  0  0  0
    8.4654  -14.2818   19.9828 C   0  0  2  0  0  0  0  0  0  0  0  0
    7.7974  -14.5831   18.6318 C   0  0  0  0  0  0  0  0  0  0  0  0
    8.6063  -15.6107   20.6963 C   0  0  2  0  0  0  0  0  0  0  0  0
    7.2418  -16.1514   20.7598 N   0  0  0  0  0  0  0  0  0  0  0  0
    9.1285  -15.5287   22.0556 C   0  0  0  0  0  0  0  0  0  0  0  0
    9.9076  -14.5552   22.3606 O   0  0  0  0  0  0  0  0  0  0  0  0
    8.8837  -16.4117   23.1330 N   0  0  0  0  0  0  0  0  0  0  0  0
    9.5036  -16.3346   24.4362 C   0  0  1  0  0  0  0  0  0  0  0  0
    8.5656  -16.3255   25.5916 C   0  0  0  0  0  0  0  0  0  0  0  0
    7.4971  -15.3367   25.5770 C   0  0  0  0  0  0  0  0  0  0  0  0
    6.1939  -15.5470   25.2106 C   0  0  0  0  0  0  0  0  0  0  0  0
    5.5292  -14.3911   25.3207 N   0  0  0  0  0  0  0  0  0  0  0  0
    6.3388  -13.4059   25.7495 C   0  0  0  0  0  0  0  0  0  0  0  0
    6.1379  -12.0663   26.0195 C   0  0  0  0  0  0  0  0  0  0  0  0
    7.1685  -11.2635   26.4640 C   0  0  0  0  0  0  0  0  0  0  0  0
    8.4106  -11.8374   26.6324 C   0  0  0  0  0  0  0  0  0  0  0  0
    8.5945  -13.1697   26.3597 C   0  0  0  0  0  0  0  0  0  0  0  0
    7.5855  -14.0046   25.9124 C   0  0  0  0  0  0  0  0  0  0  0  0
   10.6351  -17.2840   24.5721 C   0  0  0  0  0  0  0  0  0  0  0  0
   10.5437  -18.4682   24.0918 O   0  0  0  0  0  0  0  0  0  0  0  0
   14.4313  -15.3130   23.4896 N   0  0  0  0  0  0  0  0  0  0  0  0
   14.4062  -16.6925   23.8320 C   0  0  0  0  0  0  0  0  0  0  0  0
   14.5898  -17.5039   22.9053 O   0  0  0  0  0  0  0  0  0  0  0  0
   14.1760  -17.1109   25.2005 C   0  0  0  0  0  0  0  0  0  0  0  0
   12.9001  -17.8981   25.3885 C   0  0  2  0  0  0  0  0  0  0  0  0
   11.8213  -16.8907   25.2307 N   0  0  0  0  0  0  0  0  0  0  0  0
   12.8127  -18.4774   26.7288 C   0  0  0  0  0  0  0  0  0  0  0  0
   13.5734  -19.5105   27.2162 O   0  0  0  0  0  0  0  0  0  0  0  0
   11.9563  -17.9982   27.5450 O   0  0  0  0  0  0  0  0  0  0  0  0
  2  1  1  0
  3  2  1  0
  3  4  1  6
  5  7  1  0
  5  3  1  0
  5  6  1  1
  7  8  2  0
  9  7  1  0
 10  9  1  0
 10 11  1  1
 12 13  2  0
 12 11  1  0
 14 13  1  0
 15 20  2  0
 15 14  1  0
 16 15  1  0
 17 18  1  0
 17 16  2  0
 18 19  2  0
 19 20  1  0
 20 12  1  0
 21 10  1  0
 22 21  2  0
 23 24  1  0
 24 26  1  0
 25 24  2  0
 27 26  1  1
 27 28  1  0
 28 21  1  0
 29 27  1  0
 29 30  1  0
 31 29  2  0
M  END
$$$$
