IWN.pdb
     RDKit          3D

 31 32  0  0  1  0  0  0  0  0999 V2000
    6.5520  -12.5145   18.9463 C   0  0  0  0  0  0  0  0  0  0  0  0
    7.3679  -13.7134   19.3059 C   0  0  0  0  0  0  0  0  0  0  0  0
    7.9612  -13.6861   20.6950 C   0  0  2  0  0  0  0  0  0  0  0  0
    9.0159  -12.5688   20.6575 C   0  0  0  0  0  0  0  0  0  0  0  0
    8.7174  -14.9814   20.9074 C   0  0  2  0  0  0  0  0  0  0  0  0
    7.6976  -16.0343   20.8087 N   0  0  0  0  0  0  0  0  0  0  0  0
    9.3774  -15.1052   22.2021 C   0  0  0  0  0  0  0  0  0  0  0  0
   10.3748  -14.3403   22.4629 O   0  0  0  0  0  0  0  0  0  0  0  0
    9.0559  -15.9896   23.2580 N   0  0  0  0  0  0  0  0  0  0  0  0
    9.7443  -16.0645   24.5264 C   0  0  1  0  0  0  0  0  0  0  0  0
    8.8717  -16.2439   25.7185 C   0  0  0  0  0  0  0  0  0  0  0  0
    7.6989  -15.3876   25.8233 C   0  0  0  0  0  0  0  0  0  0  0  0
    6.3945  -15.7614   25.6340 C   0  0  0  0  0  0  0  0  0  0  0  0
    5.6151  -14.6877   25.8063 N   0  0  0  0  0  0  0  0  0  0  0  0
    6.3482  -13.6001   26.1060 C   0  0  0  0  0  0  0  0  0  0  0  0
    6.0237  -12.2843   26.3726 C   0  0  0  0  0  0  0  0  0  0  0  0
    6.9982  -11.3516   26.6628 C   0  0  0  0  0  0  0  0  0  0  0  0
    8.3116  -11.7703   26.6795 C   0  0  0  0  0  0  0  0  0  0  0  0
    8.6182  -13.0809   26.4122 C   0  0  0  0  0  0  0  0  0  0  0  0
    7.6683  -14.0432   26.1171 C   0  0  0  0  0  0  0  0  0  0  0  0
   10.9089  -16.9815   24.4750 C   0  0  0  0  0  0  0  0  0  0  0  0
   11.4533  -17.3930   25.5593 O   0  0  0  0  0  0  0  0  0  0  0  0
   12.7010  -21.0034   22.4739 N   0  0  0  0  0  0  0  0  0  0  0  0
   12.8248  -20.0240   21.4508 C   0  0  0  0  0  0  0  0  0  0  0  0
   12.9076  -20.4424   20.2809 O   0  0  0  0  0  0  0  0  0  0  0  0
   12.8515  -18.6122   21.7778 C   0  0  0  0  0  0  0  0  0  0  0  0
   12.5964  -18.3222   23.2385 C   0  0  2  0  0  0  0  0  0  0  0  0
   11.4265  -17.4086   23.2319 N   0  0  0  0  0  0  0  0  0  0  0  0
   13.7281  -17.6355   23.8608 C   0  0  0  0  0  0  0  0  0  0  0  0
   14.0392  -16.3050   23.7316 O   0  0  0  0  0  0  0  0  0  0  0  0
   14.5198  -18.3116   24.5992 O   0  0  0  0  0  0  0  0  0  0  0  0
  2  1  1  0
  3  2  1  0
  3  4  1  6
  5  7  1  0
  5  3  1  0
  5  6  1  1
  7  8  2  0
  9  7  1  0
 10  9  1  0
 10 11  1  1
 12 13  2  0
 12 11  1  0
 14 13  1  0
 15 20  2  0
 15 14  1  0
 16 15  1  0
 17 18  1  0
 17 16  2  0
 18 19  2  0
 19 20  1  0
 20 12  1  0
 21 10  1  0
 22 21  2  0
 23 24  1  0
 24 26  1  0
 25 24  2  0
 27 26  1  6
 27 28  1  0
 28 21  1  0
 29 27  1  0
 29 30  1  0
 31 29  2  0
M  END
$$$$
