IWN.pdb
     RDKit          3D

 31 32  0  0  1  0  0  0  0  0999 V2000
    7.3690  -12.6762   16.3893 C   0  0  0  0  0  0  0  0  0  0  0  0
    8.1657  -13.7364   17.0774 C   0  0  0  0  0  0  0  0  0  0  0  0
    8.0789  -13.7195   18.5855 C   0  0  2  0  0  0  0  0  0  0  0  0
    8.8705  -12.4750   19.0178 C   0  0  0  0  0  0  0  0  0  0  0  0
    8.8428  -14.9169   19.1126 C   0  0  2  0  0  0  0  0  0  0  0  0
    8.0957  -16.0848   18.6266 N   0  0  0  0  0  0  0  0  0  0  0  0
    8.9290  -15.0026   20.5660 C   0  0  0  0  0  0  0  0  0  0  0  0
    9.9955  -14.5874   21.1473 O   0  0  0  0  0  0  0  0  0  0  0  0
    7.9565  -15.5006   21.4642 N   0  0  0  0  0  0  0  0  0  0  0  0
    8.0745  -15.5113   22.9045 C   0  0  1  0  0  0  0  0  0  0  0  0
    6.7964  -15.3636   23.6524 C   0  0  0  0  0  0  0  0  0  0  0  0
    6.8851  -15.0830   25.0782 C   0  0  0  0  0  0  0  0  0  0  0  0
    6.8055  -15.9953   26.0973 C   0  0  0  0  0  0  0  0  0  0  0  0
    6.9188  -15.3444   27.2607 N   0  0  0  0  0  0  0  0  0  0  0  0
    7.0725  -14.0225   27.0632 C   0  0  0  0  0  0  0  0  0  0  0  0
    7.2311  -12.9501   27.9190 C   0  0  0  0  0  0  0  0  0  0  0  0
    7.3766  -11.6654   27.4370 C   0  0  0  0  0  0  0  0  0  0  0  0
    7.3593  -11.4798   26.0710 C   0  0  0  0  0  0  0  0  0  0  0  0
    7.2006  -12.5553   25.2336 C   0  0  0  0  0  0  0  0  0  0  0  0
    7.0516  -13.8566   25.6807 C   0  0  0  0  0  0  0  0  0  0  0  0
    8.9422  -16.6144   23.3843 C   0  0  0  0  0  0  0  0  0  0  0  0
    8.9140  -17.7557   22.8030 O   0  0  0  0  0  0  0  0  0  0  0  0
   14.4339  -17.3593   24.4554 N   0  0  0  0  0  0  0  0  0  0  0  0
   13.1646  -17.9356   24.1766 C   0  0  0  0  0  0  0  0  0  0  0  0
   13.1082  -19.1792   24.1439 O   0  0  0  0  0  0  0  0  0  0  0  0
   12.0060  -17.0961   23.9447 C   0  0  0  0  0  0  0  0  0  0  0  0
   10.8075  -17.4692   24.7857 C   0  0  2  0  0  0  0  0  0  0  0  0
    9.8061  -16.4157   24.4843 N   0  0  0  0  0  0  0  0  0  0  0  0
   11.1155  -17.4327   26.2152 C   0  0  0  0  0  0  0  0  0  0  0  0
   10.5967  -16.5547   27.1337 O   0  0  0  0  0  0  0  0  0  0  0  0
   11.9424  -18.2855   26.6822 O   0  0  0  0  0  0  0  0  0  0  0  0
  2  1  1  0
  3  2  1  0
  3  4  1  1
  5  7  1  0
  5  3  1  0
  5  6  1  1
  7  8  2  0
  9  7  1  0
 10  9  1  0
 10 11  1  1
 12 13  2  0
 12 11  1  0
 14 13  1  0
 15 20  2  0
 15 14  1  0
 16 15  1  0
 17 18  1  0
 17 16  2  0
 18 19  2  0
 19 20  1  0
 20 12  1  0
 21 10  1  0
 22 21  2  0
 23 24  1  0
 24 26  1  0
 25 24  2  0
 27 26  1  6
 27 28  1  0
 28 21  1  0
 29 27  1  0
 29 30  1  0
 31 29  2  0
M  END
$$$$
