IWN.pdb
     RDKit          3D

 31 32  0  0  1  0  0  0  0  0999 V2000
    8.0143  -12.4789   19.7772 C   0  0  0  0  0  0  0  0  0  0  0  0
    8.1547  -13.8049   20.4512 C   0  0  0  0  0  0  0  0  0  0  0  0
    8.9429  -14.8333   19.6744 C   0  0  2  0  0  0  0  0  0  0  0  0
    8.0359  -15.2274   18.4979 C   0  0  0  0  0  0  0  0  0  0  0  0
    9.0823  -16.0689   20.5397 C   0  0  2  0  0  0  0  0  0  0  0  0
    7.7050  -16.5236   20.7728 N   0  0  0  0  0  0  0  0  0  0  0  0
    9.7150  -15.8468   21.8349 C   0  0  0  0  0  0  0  0  0  0  0  0
   10.8942  -15.3405   21.8680 O   0  0  0  0  0  0  0  0  0  0  0  0
    9.1855  -16.1228   23.1171 N   0  0  0  0  0  0  0  0  0  0  0  0
    9.8296  -15.8136   24.3733 C   0  0  1  0  0  0  0  0  0  0  0  0
    9.4810  -14.4925   24.9632 C   0  0  0  0  0  0  0  0  0  0  0  0
    8.1154  -14.3101   25.4336 C   0  0  0  0  0  0  0  0  0  0  0  0
    7.1261  -15.2576   25.4585 C   0  0  0  0  0  0  0  0  0  0  0  0
    6.0135  -14.6981   25.9476 N   0  0  0  0  0  0  0  0  0  0  0  0
    6.2167  -13.4041   26.2546 C   0  0  0  0  0  0  0  0  0  0  0  0
    5.4052  -12.4174   26.7795 C   0  0  0  0  0  0  0  0  0  0  0  0
    5.8828  -11.1426   27.0046 C   0  0  0  0  0  0  0  0  0  0  0  0
    7.1988  -10.8786   26.6899 C   0  0  0  0  0  0  0  0  0  0  0  0
    7.9925  -11.8694   26.1689 C   0  0  0  0  0  0  0  0  0  0  0  0
    7.5483  -13.1580   25.9294 C   0  0  0  0  0  0  0  0  0  0  0  0
    9.7643  -16.9477   25.3270 C   0  0  0  0  0  0  0  0  0  0  0  0
    9.9209  -16.7440   26.5821 O   0  0  0  0  0  0  0  0  0  0  0  0
   12.4653  -21.3175   25.0517 N   0  0  0  0  0  0  0  0  0  0  0  0
   12.3862  -20.4258   23.9473 C   0  0  0  0  0  0  0  0  0  0  0  0
   13.2167  -20.5892   23.0340 O   0  0  0  0  0  0  0  0  0  0  0  0
   11.3789  -19.3843   23.9082 C   0  0  0  0  0  0  0  0  0  0  0  0
   10.5412  -19.3022   25.1630 C   0  0  2  0  0  0  0  0  0  0  0  0
    9.5285  -18.2599   24.8599 N   0  0  0  0  0  0  0  0  0  0  0  0
   11.3317  -18.8713   26.3158 C   0  0  0  0  0  0  0  0  0  0  0  0
   11.2030  -19.3291   27.6032 O   0  0  0  0  0  0  0  0  0  0  0  0
   12.2341  -17.9861   26.1391 O   0  0  0  0  0  0  0  0  0  0  0  0
  2  1  1  0
  3  2  1  0
  3  4  1  6
  5  7  1  0
  5  3  1  0
  5  6  1  1
  7  8  2  0
  9  7  1  0
 10  9  1  0
 10 11  1  1
 12 13  2  0
 12 11  1  0
 14 13  1  0
 15 20  2  0
 15 14  1  0
 16 15  1  0
 17 18  1  0
 17 16  2  0
 18 19  2  0
 19 20  1  0
 20 12  1  0
 21 10  1  0
 22 21  2  0
 23 24  1  0
 24 26  1  0
 25 24  2  0
 27 26  1  6
 27 28  1  0
 28 21  1  0
 29 27  1  0
 29 30  1  0
 31 29  2  0
M  END
$$$$
