IWN.pdb
     RDKit          3D

 31 32  0  0  1  0  0  0  0  0999 V2000
    6.8076  -12.7745   19.0546 C   0  0  0  0  0  0  0  0  0  0  0  0
    7.5268  -14.0115   19.4843 C   0  0  0  0  0  0  0  0  0  0  0  0
    8.0089  -14.0025   20.9160 C   0  0  2  0  0  0  0  0  0  0  0  0
    9.0885  -12.9097   20.9677 C   0  0  0  0  0  0  0  0  0  0  0  0
    8.7161  -15.3156   21.1810 C   0  0  2  0  0  0  0  0  0  0  0  0
    7.6672  -16.3382   21.0706 N   0  0  0  0  0  0  0  0  0  0  0  0
    9.3291  -15.4310   22.4994 C   0  0  0  0  0  0  0  0  0  0  0  0
   10.3251  -14.6737   22.7863 O   0  0  0  0  0  0  0  0  0  0  0  0
    8.9612  -16.2995   23.5534 N   0  0  0  0  0  0  0  0  0  0  0  0
    9.5824  -16.3435   24.8575 C   0  0  1  0  0  0  0  0  0  0  0  0
    8.6481  -16.2792   26.0140 C   0  0  0  0  0  0  0  0  0  0  0  0
    7.5530  -15.3230   25.9361 C   0  0  0  0  0  0  0  0  0  0  0  0
    6.2496  -15.5975   25.6156 C   0  0  0  0  0  0  0  0  0  0  0  0
    5.5558  -14.4537   25.6392 N   0  0  0  0  0  0  0  0  0  0  0  0
    6.3459  -13.4147   25.9651 C   0  0  0  0  0  0  0  0  0  0  0  0
    6.1137  -12.0623   26.1228 C   0  0  0  0  0  0  0  0  0  0  0  0
    7.1298  -11.1981   26.4756 C   0  0  0  0  0  0  0  0  0  0  0  0
    8.3900  -11.7233   26.6675 C   0  0  0  0  0  0  0  0  0  0  0  0
    8.6050  -13.0690   26.5068 C   0  0  0  0  0  0  0  0  0  0  0  0
    7.6112  -13.9651   26.1536 C   0  0  0  0  0  0  0  0  0  0  0  0
   10.6033  -17.4154   24.9524 C   0  0  0  0  0  0  0  0  0  0  0  0
   11.3648  -17.4907   25.9799 O   0  0  0  0  0  0  0  0  0  0  0  0
   14.8501  -16.6517   22.3871 N   0  0  0  0  0  0  0  0  0  0  0  0
   13.7114  -17.3747   21.9377 C   0  0  0  0  0  0  0  0  0  0  0  0
   13.8490  -18.0494   20.9002 O   0  0  0  0  0  0  0  0  0  0  0  0
   12.4610  -17.3139   22.6683 C   0  0  0  0  0  0  0  0  0  0  0  0
   12.1030  -18.6044   23.3678 C   0  0  2  0  0  0  0  0  0  0  0  0
   10.7437  -18.3611   23.9124 N   0  0  0  0  0  0  0  0  0  0  0  0
   13.0120  -18.8902   24.4775 C   0  0  0  0  0  0  0  0  0  0  0  0
   13.4991  -17.9793   25.3812 O   0  0  0  0  0  0  0  0  0  0  0  0
   13.4082  -20.0917   24.6466 O   0  0  0  0  0  0  0  0  0  0  0  0
  2  1  1  0
  3  2  1  0
  3  4  1  6
  5  7  1  0
  5  3  1  0
  5  6  1  1
  7  8  2  0
  9  7  1  0
 10  9  1  0
 10 11  1  1
 12 13  2  0
 12 11  1  0
 14 13  1  0
 15 20  2  0
 15 14  1  0
 16 15  1  0
 17 18  1  0
 17 16  2  0
 18 19  2  0
 19 20  1  0
 20 12  1  0
 21 10  1  0
 22 21  2  0
 23 24  1  0
 24 26  1  0
 25 24  2  0
 27 26  1  1
 27 28  1  0
 28 21  1  0
 29 27  1  0
 29 30  1  0
 31 29  2  0
M  END
$$$$
