IWN.pdb
     RDKit          3D

 31 32  0  0  1  0  0  0  0  0999 V2000
    7.3637  -11.9726   18.4940 C   0  0  0  0  0  0  0  0  0  0  0  0
    7.2669  -13.2209   19.3093 C   0  0  0  0  0  0  0  0  0  0  0  0
    8.1339  -14.3619   18.8313 C   0  0  2  0  0  0  0  0  0  0  0  0
    7.5219  -14.7944   17.4894 C   0  0  0  0  0  0  0  0  0  0  0  0
    7.9443  -15.5254   19.7828 C   0  0  2  0  0  0  0  0  0  0  0  0
    6.5086  -15.8313   19.7234 N   0  0  0  0  0  0  0  0  0  0  0  0
    8.2952  -15.2502   21.1714 C   0  0  0  0  0  0  0  0  0  0  0  0
    8.6346  -14.0561   21.4980 O   0  0  0  0  0  0  0  0  0  0  0  0
    8.3129  -16.1565   22.2570 N   0  0  0  0  0  0  0  0  0  0  0  0
    8.8668  -15.8865   23.5643 C   0  0  1  0  0  0  0  0  0  0  0  0
    7.9071  -15.9800   24.6978 C   0  0  0  0  0  0  0  0  0  0  0  0
    8.1594  -15.1379   25.8583 C   0  0  0  0  0  0  0  0  0  0  0  0
    8.9294  -15.4549   26.9462 C   0  0  0  0  0  0  0  0  0  0  0  0
    8.9019  -14.4261   27.8011 N   0  0  0  0  0  0  0  0  0  0  0  0
    8.1393  -13.4236   27.3282 C   0  0  0  0  0  0  0  0  0  0  0  0
    7.8038  -12.1772   27.8195 C   0  0  0  0  0  0  0  0  0  0  0  0
    6.9861  -11.3237   27.1075 C   0  0  0  0  0  0  0  0  0  0  0  0
    6.5105  -11.7506   25.8860 C   0  0  0  0  0  0  0  0  0  0  0  0
    6.8526  -12.9919   25.4114 C   0  0  0  0  0  0  0  0  0  0  0  0
    7.6691  -13.8741   26.0972 C   0  0  0  0  0  0  0  0  0  0  0  0
   10.1481  -16.6004   23.7848 C   0  0  0  0  0  0  0  0  0  0  0  0
   10.2387  -17.8537   23.5351 O   0  0  0  0  0  0  0  0  0  0  0  0
   15.7416  -16.1793   22.9536 N   0  0  0  0  0  0  0  0  0  0  0  0
   14.9729  -15.9393   24.1251 C   0  0  0  0  0  0  0  0  0  0  0  0
   15.5416  -16.1257   25.2171 O   0  0  0  0  0  0  0  0  0  0  0  0
   13.5952  -15.4993   24.0285 C   0  0  0  0  0  0  0  0  0  0  0  0
   12.5880  -16.6026   24.2550 C   0  0  2  0  0  0  0  0  0  0  0  0
   11.2778  -15.9051   24.2708 N   0  0  0  0  0  0  0  0  0  0  0  0
   12.7872  -17.2625   25.5451 C   0  0  0  0  0  0  0  0  0  0  0  0
   12.1648  -16.9397   26.7250 O   0  0  0  0  0  0  0  0  0  0  0  0
   13.6127  -18.2337   25.6116 O   0  0  0  0  0  0  0  0  0  0  0  0
  2  1  1  0
  3  2  1  0
  3  4  1  6
  5  7  1  0
  5  3  1  0
  5  6  1  1
  7  8  2  0
  9  7  1  0
 10  9  1  0
 10 11  1  1
 12 13  2  0
 12 11  1  0
 14 13  1  0
 15 20  2  0
 15 14  1  0
 16 15  1  0
 17 18  1  0
 17 16  2  0
 18 19  2  0
 19 20  1  0
 20 12  1  0
 21 10  1  0
 22 21  2  0
 23 24  1  0
 24 26  1  0
 25 24  2  0
 27 26  1  1
 27 28  1  0
 28 21  1  0
 29 27  1  0
 29 30  1  0
 31 29  2  0
M  END
$$$$
