IWN.pdb
     RDKit          3D

 31 32  0  0  1  0  0  0  0  0999 V2000
    8.2068  -12.0692   19.3408 C   0  0  0  0  0  0  0  0  0  0  0  0
    7.7084  -13.1703   20.2191 C   0  0  0  0  0  0  0  0  0  0  0  0
    8.1582  -14.5560   19.8197 C   0  0  2  0  0  0  0  0  0  0  0  0
    7.4521  -14.8362   18.4836 C   0  0  0  0  0  0  0  0  0  0  0  0
    7.5878  -15.5406   20.8197 C   0  0  2  0  0  0  0  0  0  0  0  0
    6.1495  -15.2443   20.8626 N   0  0  0  0  0  0  0  0  0  0  0  0
    8.1187  -15.4228   22.1730 C   0  0  0  0  0  0  0  0  0  0  0  0
    8.0681  -14.2820   22.7595 O   0  0  0  0  0  0  0  0  0  0  0  0
    8.7065  -16.4365   22.9650 N   0  0  0  0  0  0  0  0  0  0  0  0
    9.3868  -16.2277   24.2228 C   0  0  1  0  0  0  0  0  0  0  0  0
    8.5483  -16.3994   25.4402 C   0  0  0  0  0  0  0  0  0  0  0  0
    7.4710  -15.4428   25.6500 C   0  0  0  0  0  0  0  0  0  0  0  0
    6.1322  -15.6654   25.4626 C   0  0  0  0  0  0  0  0  0  0  0  0
    5.4695  -14.5389   25.7485 N   0  0  0  0  0  0  0  0  0  0  0  0
    6.3148  -13.5615   26.1233 C   0  0  0  0  0  0  0  0  0  0  0  0
    6.1309  -12.2492   26.5126 C   0  0  0  0  0  0  0  0  0  0  0  0
    7.2004  -11.4487   26.8581 C   0  0  0  0  0  0  0  0  0  0  0  0
    8.4642  -11.9967   26.8040 C   0  0  0  0  0  0  0  0  0  0  0  0
    8.6308  -13.3021   26.4150 C   0  0  0  0  0  0  0  0  0  0  0  0
    7.5828  -14.1339   26.0613 C   0  0  0  0  0  0  0  0  0  0  0  0
   10.6925  -16.9294   24.2733 C   0  0  0  0  0  0  0  0  0  0  0  0
   10.7600  -18.1839   24.0220 O   0  0  0  0  0  0  0  0  0  0  0  0
   13.5216  -16.2892   21.9516 N   0  0  0  0  0  0  0  0  0  0  0  0
   14.3278  -15.6220   22.9139 C   0  0  0  0  0  0  0  0  0  0  0  0
   15.1321  -14.7753   22.4816 O   0  0  0  0  0  0  0  0  0  0  0  0
   14.2021  -15.9292   24.3248 C   0  0  0  0  0  0  0  0  0  0  0  0
   13.1515  -16.9717   24.6282 C   0  0  2  0  0  0  0  0  0  0  0  0
   11.8711  -16.2213   24.5978 N   0  0  0  0  0  0  0  0  0  0  0  0
   13.3289  -17.5489   25.9605 C   0  0  0  0  0  0  0  0  0  0  0  0
   12.5137  -17.3474   27.0460 O   0  0  0  0  0  0  0  0  0  0  0  0
   14.3283  -18.3165   26.1637 O   0  0  0  0  0  0  0  0  0  0  0  0
  2  1  1  0
  3  2  1  0
  3  4  1  6
  5  7  1  0
  5  3  1  0
  5  6  1  1
  7  8  2  0
  9  7  1  0
 10  9  1  0
 10 11  1  1
 12 13  2  0
 12 11  1  0
 14 13  1  0
 15 20  2  0
 15 14  1  0
 16 15  1  0
 17 18  1  0
 17 16  2  0
 18 19  2  0
 19 20  1  0
 20 12  1  0
 21 10  1  0
 22 21  2  0
 23 24  1  0
 24 26  1  0
 25 24  2  0
 27 26  1  1
 27 28  1  0
 28 21  1  0
 29 27  1  0
 29 30  1  0
 31 29  2  0
M  END
$$$$
