YQN.pdb
     RDKit          3D

 30 30  0  0  1  0  0  0  0  0999 V2000
    7.0186  -11.4396   19.0159 O   0  0  0  0  0  0  0  0  0  0  0  0
    7.6194  -12.6272   19.4297 C   0  0  0  0  0  0  0  0  0  0  0  0
    7.6775  -13.0096   20.7506 C   0  0  0  0  0  0  0  0  0  0  0  0
    8.2750  -14.1844   21.1328 C   0  0  0  0  0  0  0  0  0  0  0  0
    8.8490  -15.0383   20.1842 C   0  0  0  0  0  0  0  0  0  0  0  0
    9.4756  -16.2875   20.6463 C   0  0  0  0  0  0  0  0  0  0  0  0
   10.7097  -15.9479   21.4412 C   0  0  2  0  0  0  0  0  0  0  0  0
   11.5117  -15.0183   20.6795 N   0  0  0  0  0  0  0  0  0  0  0  0
   11.4965  -17.1328   21.8172 C   0  0  0  0  0  0  0  0  0  0  0  0
   10.9439  -18.0897   22.4590 O   0  0  0  0  0  0  0  0  0  0  0  0
    8.7934  -14.6622   18.8700 C   0  0  0  0  0  0  0  0  0  0  0  0
    8.1818  -13.4623   18.4933 C   0  0  0  0  0  0  0  0  0  0  0  0
   13.4597  -19.2276   15.9005 N   0  0  0  0  0  0  0  0  0  0  0  0
   12.6212  -19.1540   17.0686 C   0  0  0  0  0  0  0  0  0  0  0  0
   11.3915  -19.0180   16.9619 O   0  0  0  0  0  0  0  0  0  0  0  0
   13.2688  -19.2475   18.3782 C   0  0  0  0  0  0  0  0  0  0  0  0
   12.7434  -18.2074   19.3185 C   0  0  0  0  0  0  0  0  0  0  0  0
   13.3479  -18.4185   20.6861 C   0  0  2  0  0  0  0  0  0  0  0  0
   12.8704  -17.2890   21.5024 N   0  0  0  0  0  0  0  0  0  0  0  0
   14.8471  -18.3470   20.5696 C   0  0  0  0  0  0  0  0  0  0  0  0
   15.4725  -19.0364   19.7032 O   0  0  0  0  0  0  0  0  0  0  0  0
   15.4404  -13.6009   18.5159 N   0  0  0  0  0  0  0  0  0  0  0  0
   15.6594  -14.9796   18.8522 C   0  0  0  0  0  0  0  0  0  0  0  0
   16.2764  -15.7040   18.0432 O   0  0  0  0  0  0  0  0  0  0  0  0
   15.1705  -15.5232   20.1144 C   0  0  0  0  0  0  0  0  0  0  0  0
   16.1791  -16.2670   20.9417 C   0  0  2  0  0  0  0  0  0  0  0  0
   15.5115  -17.4811   21.4666 N   0  0  0  0  0  0  0  0  0  0  0  0
   16.6467  -15.5480   22.1363 C   0  0  0  0  0  0  0  0  0  0  0  0
   17.6350  -14.5973   22.0383 O   0  0  0  0  0  0  0  0  0  0  0  0
   16.1554  -15.7895   23.2509 O   0  0  0  0  0  0  0  0  0  0  0  0
  2  1  1  0
  3  2  2  0
  4  3  1  0
  5 11  1  0
  5  4  2  0
  6  5  1  0
  7  6  1  0
  7  8  1  6
  9  7  1  0
  9 10  2  0
 11 12  2  0
 12  2  1  0
 13 14  1  0
 14 15  2  0
 14 16  1  0
 16 17  1  0
 18 17  1  6
 18 19  1  0
 19  9  1  0
 20 18  1  0
 21 20  2  0
 22 23  1  0
 23 24  2  0
 25 23  1  0
 26 25  1  1
 26 27  1  0
 26 28  1  0
 27 20  1  0
 28 29  1  0
 30 28  2  0
M  END
$$$$
