YQN.pdb
     RDKit          3D

 30 30  0  0  1  0  0  0  0  0999 V2000
    5.7942  -10.1639   27.2685 O   0  0  0  0  0  0  0  0  0  0  0  0
    6.1178  -11.2287   26.4294 C   0  0  0  0  0  0  0  0  0  0  0  0
    6.9987  -11.1058   25.3790 C   0  0  0  0  0  0  0  0  0  0  0  0
    7.3011  -12.1699   24.5667 C   0  0  0  0  0  0  0  0  0  0  0  0
    6.7189  -13.4241   24.7821 C   0  0  0  0  0  0  0  0  0  0  0  0
    7.0784  -14.5331   23.8835 C   0  0  0  0  0  0  0  0  0  0  0  0
    8.2094  -15.3134   24.5017 C   0  0  2  0  0  0  0  0  0  0  0  0
    9.3907  -14.4818   24.5224 N   0  0  0  0  0  0  0  0  0  0  0  0
    8.4759  -16.5852   23.8119 C   0  0  0  0  0  0  0  0  0  0  0  0
    7.5664  -17.4805   23.7478 O   0  0  0  0  0  0  0  0  0  0  0  0
    5.8428  -13.5508   25.8252 C   0  0  0  0  0  0  0  0  0  0  0  0
    5.5428  -12.4587   26.6457 C   0  0  0  0  0  0  0  0  0  0  0  0
   12.4104  -19.3649   18.5611 N   0  0  0  0  0  0  0  0  0  0  0  0
   11.1687  -18.7965   19.0171 C   0  0  0  0  0  0  0  0  0  0  0  0
   10.4818  -18.0835   18.2676 O   0  0  0  0  0  0  0  0  0  0  0  0
   10.7480  -19.0913   20.3879 C   0  0  0  0  0  0  0  0  0  0  0  0
   10.5055  -17.8334   21.1631 C   0  0  0  0  0  0  0  0  0  0  0  0
    9.9366  -18.1826   22.5176 C   0  0  2  0  0  0  0  0  0  0  0  0
    9.7141  -16.8919   23.1920 N   0  0  0  0  0  0  0  0  0  0  0  0
   10.9627  -18.9725   23.2854 C   0  0  0  0  0  0  0  0  0  0  0  0
   11.0585  -20.2332   23.1488 O   0  0  0  0  0  0  0  0  0  0  0  0
   14.6613  -16.5504   23.1020 N   0  0  0  0  0  0  0  0  0  0  0  0
   14.6667  -17.8712   23.6654 C   0  0  0  0  0  0  0  0  0  0  0  0
   15.1991  -18.7974   23.0183 O   0  0  0  0  0  0  0  0  0  0  0  0
   14.0621  -18.1258   24.9682 C   0  0  0  0  0  0  0  0  0  0  0  0
   12.8165  -18.9646   24.9594 C   0  0  2  0  0  0  0  0  0  0  0  0
   11.8029  -18.2425   24.1555 N   0  0  0  0  0  0  0  0  0  0  0  0
   12.1898  -19.1507   26.2767 C   0  0  0  0  0  0  0  0  0  0  0  0
   11.1182  -18.3781   26.6568 O   0  0  0  0  0  0  0  0  0  0  0  0
   12.6201  -20.0087   27.0647 O   0  0  0  0  0  0  0  0  0  0  0  0
  2  1  1  0
  3  2  2  0
  4  3  1  0
  5 11  1  0
  5  4  2  0
  6  5  1  0
  7  6  1  0
  7  8  1  6
  9  7  1  0
  9 10  2  0
 11 12  2  0
 12  2  1  0
 13 14  1  0
 14 15  2  0
 14 16  1  0
 16 17  1  0
 18 17  1  6
 18 19  1  0
 19  9  1  0
 20 18  1  0
 21 20  2  0
 22 23  1  0
 23 24  2  0
 25 23  1  0
 26 25  1  1
 26 27  1  0
 26 28  1  0
 27 20  1  0
 28 29  1  0
 30 28  2  0
M  END
$$$$
