YQN.pdb
     RDKit          3D

 30 30  0  0  1  0  0  0  0  0999 V2000
    5.9463  -10.8665   28.1909 O   0  0  0  0  0  0  0  0  0  0  0  0
    6.5372  -11.8349   27.3812 C   0  0  0  0  0  0  0  0  0  0  0  0
    7.2321  -11.5220   26.2351 C   0  0  0  0  0  0  0  0  0  0  0  0
    7.8051  -12.4944   25.4543 C   0  0  0  0  0  0  0  0  0  0  0  0
    7.7006  -13.8461   25.8012 C   0  0  0  0  0  0  0  0  0  0  0  0
    8.3349  -14.8495   24.9309 C   0  0  0  0  0  0  0  0  0  0  0  0
    7.3622  -15.2394   23.8483 C   0  0  2  0  0  0  0  0  0  0  0  0
    6.4283  -16.2011   24.3873 N   0  0  0  0  0  0  0  0  0  0  0  0
    8.0223  -15.7680   22.6444 C   0  0  0  0  0  0  0  0  0  0  0  0
    8.1082  -17.0302   22.4646 O   0  0  0  0  0  0  0  0  0  0  0  0
    7.0107  -14.1617   26.9398 C   0  0  0  0  0  0  0  0  0  0  0  0
    6.4313  -13.1615   27.7269 C   0  0  0  0  0  0  0  0  0  0  0  0
    5.5753  -14.8627   19.5847 N   0  0  0  0  0  0  0  0  0  0  0  0
    6.7702  -14.6622   18.8069 C   0  0  0  0  0  0  0  0  0  0  0  0
    6.9470  -15.2763   17.7421 O   0  0  0  0  0  0  0  0  0  0  0  0
    7.7609  -13.7113   19.3140 C   0  0  0  0  0  0  0  0  0  0  0  0
    9.1174  -14.3387   19.4058 C   0  0  0  0  0  0  0  0  0  0  0  0
    9.0650  -15.5053   20.3632 C   0  0  2  0  0  0  0  0  0  0  0  0
    8.5853  -14.9430   21.6376 N   0  0  0  0  0  0  0  0  0  0  0  0
   10.4592  -16.0409   20.5515 C   0  0  0  0  0  0  0  0  0  0  0  0
   11.0818  -16.6033   19.5958 O   0  0  0  0  0  0  0  0  0  0  0  0
   15.5340  -15.0352   23.4069 N   0  0  0  0  0  0  0  0  0  0  0  0
   14.7174  -15.8297   22.5330 C   0  0  0  0  0  0  0  0  0  0  0  0
   15.1938  -16.8823   22.0588 O   0  0  0  0  0  0  0  0  0  0  0  0
   13.3578  -15.4150   22.2058 C   0  0  0  0  0  0  0  0  0  0  0  0
   12.3385  -16.5150   22.1272 C   0  0  2  0  0  0  0  0  0  0  0  0
   11.0298  -15.8850   21.8344 N   0  0  0  0  0  0  0  0  0  0  0  0
   12.1294  -17.2520   23.3825 C   0  0  0  0  0  0  0  0  0  0  0  0
   10.9342  -17.1617   24.0557 O   0  0  0  0  0  0  0  0  0  0  0  0
   13.0299  -17.9665   23.8523 O   0  0  0  0  0  0  0  0  0  0  0  0
  2  1  1  0
  3  2  2  0
  4  3  1  0
  5 11  1  0
  5  4  2  0
  6  5  1  0
  7  6  1  0
  7  8  1  1
  9  7  1  0
  9 10  2  0
 11 12  2  0
 12  2  1  0
 13 14  1  0
 14 15  2  0
 14 16  1  0
 16 17  1  0
 18 17  1  6
 18 19  1  0
 19  9  1  0
 20 18  1  0
 21 20  2  0
 22 23  1  0
 23 24  2  0
 25 23  1  0
 26 25  1  1
 26 27  1  0
 26 28  1  0
 27 20  1  0
 28 29  1  0
 30 28  2  0
M  END
$$$$
