YQN.pdb
     RDKit          3D

 30 30  0  0  1  0  0  0  0  0999 V2000
    6.0188  -11.4722   28.6612 O   0  0  0  0  0  0  0  0  0  0  0  0
    6.3165  -12.3691   27.6367 C   0  0  0  0  0  0  0  0  0  0  0  0
    5.7073  -12.3175   26.4036 C   0  0  0  0  0  0  0  0  0  0  0  0
    6.0180  -13.2126   25.4108 C   0  0  0  0  0  0  0  0  0  0  0  0
    6.9719  -14.2146   25.6219 C   0  0  0  0  0  0  0  0  0  0  0  0
    7.2701  -15.1482   24.5237 C   0  0  0  0  0  0  0  0  0  0  0  0
    8.6270  -14.8173   23.9586 C   0  0  2  0  0  0  0  0  0  0  0  0
    8.9804  -13.4737   24.3553 N   0  0  0  0  0  0  0  0  0  0  0  0
    8.6936  -14.9664   22.4964 C   0  0  0  0  0  0  0  0  0  0  0  0
    8.5943  -16.1251   21.9669 O   0  0  0  0  0  0  0  0  0  0  0  0
    7.5800  -14.2695   26.8462 C   0  0  0  0  0  0  0  0  0  0  0  0
    7.2545  -13.3516   27.8498 C   0  0  0  0  0  0  0  0  0  0  0  0
    7.0574  -13.9812   17.8154 N   0  0  0  0  0  0  0  0  0  0  0  0
    8.3955  -13.8444   17.3019 C   0  0  0  0  0  0  0  0  0  0  0  0
    8.7453  -14.4401   16.2700 O   0  0  0  0  0  0  0  0  0  0  0  0
    9.3212  -12.9800   18.0361 C   0  0  0  0  0  0  0  0  0  0  0  0
    8.9147  -12.8449   19.4708 C   0  0  0  0  0  0  0  0  0  0  0  0
    9.3546  -14.0721   20.2329 C   0  0  2  0  0  0  0  0  0  0  0  0
    8.8640  -13.8743   21.6079 N   0  0  0  0  0  0  0  0  0  0  0  0
   10.8591  -14.1214   20.2457 C   0  0  0  0  0  0  0  0  0  0  0  0
   11.5165  -13.8501   21.3000 O   0  0  0  0  0  0  0  0  0  0  0  0
   15.7401  -15.1506   18.9807 N   0  0  0  0  0  0  0  0  0  0  0  0
   14.8925  -15.7398   19.9788 C   0  0  0  0  0  0  0  0  0  0  0  0
   15.3984  -16.5243   20.8086 O   0  0  0  0  0  0  0  0  0  0  0  0
   13.4683  -15.4277   20.0224 C   0  0  0  0  0  0  0  0  0  0  0  0
   12.9713  -14.4862   18.9633 C   0  0  2  0  0  0  0  0  0  0  0  0
   11.4914  -14.4817   19.0349 N   0  0  0  0  0  0  0  0  0  0  0  0
   13.2806  -14.8919   17.5840 C   0  0  0  0  0  0  0  0  0  0  0  0
   14.3636  -14.3604   16.9248 O   0  0  0  0  0  0  0  0  0  0  0  0
   12.5675  -15.7206   16.9950 O   0  0  0  0  0  0  0  0  0  0  0  0
  2  1  1  0
  3  2  2  0
  4  3  1  0
  5 11  1  0
  5  4  2  0
  6  5  1  0
  7  6  1  0
  7  8  1  6
  9  7  1  0
  9 10  2  0
 11 12  2  0
 12  2  1  0
 13 14  1  0
 14 15  2  0
 14 16  1  0
 16 17  1  0
 18 17  1  6
 18 19  1  0
 19  9  1  0
 20 18  1  0
 21 20  2  0
 22 23  1  0
 23 24  2  0
 25 23  1  0
 26 25  1  1
 26 27  1  0
 26 28  1  0
 27 20  1  0
 28 29  1  0
 30 28  2  0
M  END
$$$$
