YQN.pdb
     RDKit          3D

 30 30  0  0  1  0  0  0  0  0999 V2000
    4.8755  -10.6858   28.2619 O   0  0  0  0  0  0  0  0  0  0  0  0
    5.6369  -11.5660   27.4950 C   0  0  0  0  0  0  0  0  0  0  0  0
    6.2094  -12.7031   28.0181 C   0  0  0  0  0  0  0  0  0  0  0  0
    6.9552  -13.5543   27.2418 C   0  0  0  0  0  0  0  0  0  0  0  0
    7.1591  -13.2915   25.8825 C   0  0  0  0  0  0  0  0  0  0  0  0
    7.9653  -14.2372   25.0936 C   0  0  0  0  0  0  0  0  0  0  0  0
    7.0424  -15.0770   24.2491 C   0  0  2  0  0  0  0  0  0  0  0  0
    6.2639  -15.9291   25.1184 N   0  0  0  0  0  0  0  0  0  0  0  0
    7.7532  -15.8720   23.2357 C   0  0  0  0  0  0  0  0  0  0  0  0
    7.1886  -16.8914   22.7114 O   0  0  0  0  0  0  0  0  0  0  0  0
    6.5918  -12.1623   25.3583 C   0  0  0  0  0  0  0  0  0  0  0  0
    5.8340  -11.3027   26.1600 C   0  0  0  0  0  0  0  0  0  0  0  0
    7.9597  -15.2023   18.0034 N   0  0  0  0  0  0  0  0  0  0  0  0
    8.3462  -14.1121   18.8607 C   0  0  0  0  0  0  0  0  0  0  0  0
    8.2508  -12.9352   18.4761 O   0  0  0  0  0  0  0  0  0  0  0  0
    8.8500  -14.4413   20.1952 C   0  0  0  0  0  0  0  0  0  0  0  0
    8.7697  -15.9133   20.4573 C   0  0  0  0  0  0  0  0  0  0  0  0
    9.6571  -16.2618   21.6284 C   0  0  2  0  0  0  0  0  0  0  0  0
    9.0642  -15.5708   22.7865 N   0  0  0  0  0  0  0  0  0  0  0  0
   11.0344  -15.7100   21.3739 C   0  0  0  0  0  0  0  0  0  0  0  0
   11.5084  -15.6437   20.1956 O   0  0  0  0  0  0  0  0  0  0  0  0
   14.2093  -18.4026   24.1779 N   0  0  0  0  0  0  0  0  0  0  0  0
   12.7992  -18.5725   23.9664 C   0  0  0  0  0  0  0  0  0  0  0  0
   12.2728  -19.6617   24.2770 O   0  0  0  0  0  0  0  0  0  0  0  0
   11.9976  -17.4937   23.3997 C   0  0  0  0  0  0  0  0  0  0  0  0
   12.7212  -16.2019   23.1493 C   0  0  2  0  0  0  0  0  0  0  0  0
   11.7616  -15.2754   22.5044 N   0  0  0  0  0  0  0  0  0  0  0  0
   13.8445  -16.2980   22.2051 C   0  0  0  0  0  0  0  0  0  0  0  0
   14.9952  -15.5746   22.4111 O   0  0  0  0  0  0  0  0  0  0  0  0
   13.7695  -17.0343   21.2079 O   0  0  0  0  0  0  0  0  0  0  0  0
  2  1  1  0
  3  2  2  0
  4  3  1  0
  5 11  1  0
  5  4  2  0
  6  5  1  0
  7  6  1  0
  7  8  1  1
  9  7  1  0
  9 10  2  0
 11 12  2  0
 12  2  1  0
 13 14  1  0
 14 15  2  0
 14 16  1  0
 16 17  1  0
 18 17  1  6
 18 19  1  0
 19  9  1  0
 20 18  1  0
 21 20  2  0
 22 23  1  0
 23 24  2  0
 25 23  1  0
 26 25  1  6
 26 27  1  0
 26 28  1  0
 27 20  1  0
 28 29  1  0
 30 28  2  0
M  END
$$$$
