YQN.pdb
     RDKit          3D

 30 30  0  0  1  0  0  0  0  0999 V2000
    6.9646  -12.9481   16.7459 O   0  0  0  0  0  0  0  0  0  0  0  0
    7.2438  -13.2877   18.0685 C   0  0  0  0  0  0  0  0  0  0  0  0
    7.4294  -12.3453   19.0543 C   0  0  0  0  0  0  0  0  0  0  0  0
    7.7033  -12.7054   20.3500 C   0  0  0  0  0  0  0  0  0  0  0  0
    7.8035  -14.0532   20.7134 C   0  0  0  0  0  0  0  0  0  0  0  0
    8.0971  -14.3861   22.1168 C   0  0  0  0  0  0  0  0  0  0  0  0
    8.5876  -15.8089   22.1871 C   0  0  2  0  0  0  0  0  0  0  0  0
    7.6026  -16.6707   21.5749 N   0  0  0  0  0  0  0  0  0  0  0  0
    8.8870  -16.2475   23.5592 C   0  0  0  0  0  0  0  0  0  0  0  0
    9.7699  -15.6326   24.2485 O   0  0  0  0  0  0  0  0  0  0  0  0
    7.6196  -14.9933   19.7366 C   0  0  0  0  0  0  0  0  0  0  0  0
    7.3410  -14.6134   18.4199 C   0  0  0  0  0  0  0  0  0  0  0  0
    6.7595  -21.4530   27.5735 N   0  0  0  0  0  0  0  0  0  0  0  0
    6.7424  -20.0466   27.8810 C   0  0  0  0  0  0  0  0  0  0  0  0
    5.8308  -19.5560   28.5669 O   0  0  0  0  0  0  0  0  0  0  0  0
    7.8347  -19.2227   27.3603 C   0  0  0  0  0  0  0  0  0  0  0  0
    7.5045  -18.6778   26.0052 C   0  0  0  0  0  0  0  0  0  0  0  0
    8.6413  -17.8071   25.5258 C   0  0  2  0  0  0  0  0  0  0  0  0
    8.2383  -17.3409   24.1877 N   0  0  0  0  0  0  0  0  0  0  0  0
    9.8810  -18.6523   25.4036 C   0  0  0  0  0  0  0  0  0  0  0  0
   10.1020  -19.3480   24.3623 O   0  0  0  0  0  0  0  0  0  0  0  0
   14.9612  -19.4619   25.9738 N   0  0  0  0  0  0  0  0  0  0  0  0
   14.2689  -18.5168   25.1435 C   0  0  0  0  0  0  0  0  0  0  0  0
   14.9104  -17.9133   24.2579 O   0  0  0  0  0  0  0  0  0  0  0  0
   12.8442  -18.2667   25.3312 C   0  0  0  0  0  0  0  0  0  0  0  0
   12.1486  -19.1537   26.3233 C   0  0  2  0  0  0  0  0  0  0  0  0
   10.7741  -18.6289   26.4980 N   0  0  0  0  0  0  0  0  0  0  0  0
   12.7306  -19.1426   27.6738 C   0  0  0  0  0  0  0  0  0  0  0  0
   12.4289  -18.1332   28.5571 O   0  0  0  0  0  0  0  0  0  0  0  0
   13.5030  -20.0451   28.0356 O   0  0  0  0  0  0  0  0  0  0  0  0
  2  1  1  0
  3  2  2  0
  4  3  1  0
  5 11  1  0
  5  4  2  0
  6  5  1  0
  7  6  1  0
  7  8  1  1
  9  7  1  0
  9 10  2  0
 11 12  2  0
 12  2  1  0
 13 14  1  0
 14 15  2  0
 14 16  1  0
 16 17  1  0
 18 17  1  6
 18 19  1  0
 19  9  1  0
 20 18  1  0
 21 20  2  0
 22 23  1  0
 23 24  2  0
 25 23  1  0
 26 25  1  6
 26 27  1  0
 26 28  1  0
 27 20  1  0
 28 29  1  0
 30 28  2  0
M  END
$$$$
