YQN.pdb
     RDKit          3D

 30 30  0  0  1  0  0  0  0  0999 V2000
    8.8416  -13.0851   16.3674 O   0  0  0  0  0  0  0  0  0  0  0  0
    8.5423  -13.3688   17.6988 C   0  0  0  0  0  0  0  0  0  0  0  0
    7.5597  -12.7047   18.3972 C   0  0  0  0  0  0  0  0  0  0  0  0
    7.2839  -13.0027   19.7082 C   0  0  0  0  0  0  0  0  0  0  0  0
    7.9986  -13.9993   20.3824 C   0  0  0  0  0  0  0  0  0  0  0  0
    7.6623  -14.2814   21.7873 C   0  0  0  0  0  0  0  0  0  0  0  0
    6.9386  -15.6010   21.8589 C   0  0  2  0  0  0  0  0  0  0  0  0
    5.6016  -15.4263   21.3398 N   0  0  0  0  0  0  0  0  0  0  0  0
    6.9037  -16.1655   23.2171 C   0  0  0  0  0  0  0  0  0  0  0  0
    6.1418  -15.6502   24.1040 O   0  0  0  0  0  0  0  0  0  0  0  0
    8.9762  -14.6619   19.6919 C   0  0  0  0  0  0  0  0  0  0  0  0
    9.2478  -14.3489   18.3562 C   0  0  0  0  0  0  0  0  0  0  0  0
    6.3059  -21.5374   25.4836 N   0  0  0  0  0  0  0  0  0  0  0  0
    6.7326  -20.8677   26.6846 C   0  0  0  0  0  0  0  0  0  0  0  0
    6.6473  -21.4270   27.7899 O   0  0  0  0  0  0  0  0  0  0  0  0
    7.2700  -19.5122   26.5538 C   0  0  0  0  0  0  0  0  0  0  0  0
    7.1427  -19.0117   25.1483 C   0  0  0  0  0  0  0  0  0  0  0  0
    7.8065  -17.6600   25.0368 C   0  0  2  0  0  0  0  0  0  0  0  0
    7.6829  -17.2803   23.6188 N   0  0  0  0  0  0  0  0  0  0  0  0
    9.2637  -17.8054   25.3857 C   0  0  0  0  0  0  0  0  0  0  0  0
    9.9473  -18.7880   24.9563 O   0  0  0  0  0  0  0  0  0  0  0  0
    9.6146  -19.8132   29.8673 N   0  0  0  0  0  0  0  0  0  0  0  0
    9.8076  -18.4172   29.5918 C   0  0  0  0  0  0  0  0  0  0  0  0
   10.3589  -17.7053   30.4574 O   0  0  0  0  0  0  0  0  0  0  0  0
    9.3681  -17.8421   28.3254 C   0  0  0  0  0  0  0  0  0  0  0  0
   10.4347  -17.1799   27.5015 C   0  0  2  0  0  0  0  0  0  0  0  0
    9.8218  -16.8006   26.2070 N   0  0  0  0  0  0  0  0  0  0  0  0
   11.5649  -18.0496   27.1427 C   0  0  0  0  0  0  0  0  0  0  0  0
   11.3474  -19.2684   26.5451 O   0  0  0  0  0  0  0  0  0  0  0  0
   12.7324  -17.6952   27.3746 O   0  0  0  0  0  0  0  0  0  0  0  0
  2  1  1  0
  3  2  2  0
  4  3  1  0
  5 11  1  0
  5  4  2  0
  6  5  1  0
  7  6  1  0
  7  8  1  1
  9  7  1  0
  9 10  2  0
 11 12  2  0
 12  2  1  0
 13 14  1  0
 14 15  2  0
 14 16  1  0
 16 17  1  0
 18 17  1  6
 18 19  1  0
 19  9  1  0
 20 18  1  0
 21 20  2  0
 22 23  1  0
 23 24  2  0
 25 23  1  0
 26 25  1  1
 26 27  1  0
 26 28  1  0
 27 20  1  0
 28 29  1  0
 30 28  2  0
M  END
$$$$
