YQN.pdb
     RDKit          3D

 30 30  0  0  1  0  0  0  0  0999 V2000
    6.3243  -13.1700   16.4432 O   0  0  0  0  0  0  0  0  0  0  0  0
    7.0803  -13.4075   17.5898 C   0  0  0  0  0  0  0  0  0  0  0  0
    7.1176  -12.5307   18.6501 C   0  0  0  0  0  0  0  0  0  0  0  0
    7.8702  -12.7875   19.7686 C   0  0  0  0  0  0  0  0  0  0  0  0
    8.6300  -13.9586   19.8679 C   0  0  0  0  0  0  0  0  0  0  0  0
    9.4183  -14.1873   21.0897 C   0  0  0  0  0  0  0  0  0  0  0  0
    8.8164  -15.3416   21.8482 C   0  0  2  0  0  0  0  0  0  0  0  0
    7.5664  -14.9125   22.4321 N   0  0  0  0  0  0  0  0  0  0  0  0
    9.7159  -15.8857   22.8774 C   0  0  0  0  0  0  0  0  0  0  0  0
    9.8502  -15.2795   23.9942 O   0  0  0  0  0  0  0  0  0  0  0  0
    8.5958  -14.8330   18.8162 C   0  0  0  0  0  0  0  0  0  0  0  0
    7.8249  -14.5597   17.6819 C   0  0  0  0  0  0  0  0  0  0  0  0
   11.8962  -21.3462   24.2213 N   0  0  0  0  0  0  0  0  0  0  0  0
   12.6067  -20.5421   25.1812 C   0  0  0  0  0  0  0  0  0  0  0  0
   13.3951  -21.0618   25.9877 O   0  0  0  0  0  0  0  0  0  0  0  0
   12.3683  -19.0977   25.1686 C   0  0  0  0  0  0  0  0  0  0  0  0
   11.2955  -18.7337   24.1895 C   0  0  0  0  0  0  0  0  0  0  0  0
   11.6147  -17.3923   23.5739 C   0  0  2  0  0  0  0  0  0  0  0  0
   10.4658  -17.0774   22.7072 N   0  0  0  0  0  0  0  0  0  0  0  0
   12.8515  -17.5298   22.7267 C   0  0  0  0  0  0  0  0  0  0  0  0
   12.7943  -18.0219   21.5554 O   0  0  0  0  0  0  0  0  0  0  0  0
   16.4919  -13.9774   20.7965 N   0  0  0  0  0  0  0  0  0  0  0  0
   15.8324  -15.2304   20.5585 C   0  0  0  0  0  0  0  0  0  0  0  0
   16.1591  -15.8996   19.5558 O   0  0  0  0  0  0  0  0  0  0  0  0
   14.8008  -15.7121   21.4703 C   0  0  0  0  0  0  0  0  0  0  0  0
   15.2200  -16.7988   22.4182 C   0  0  2  0  0  0  0  0  0  0  0  0
   14.0643  -17.0866   23.2997 N   0  0  0  0  0  0  0  0  0  0  0  0
   16.3100  -16.4307   23.3342 C   0  0  0  0  0  0  0  0  0  0  0  0
   16.0574  -15.6728   24.4530 O   0  0  0  0  0  0  0  0  0  0  0  0
   17.4744  -16.7994   23.1099 O   0  0  0  0  0  0  0  0  0  0  0  0
  2  1  1  0
  3  2  2  0
  4  3  1  0
  5 11  1  0
  5  4  2  0
  6  5  1  0
  7  6  1  0
  7  8  1  1
  9  7  1  0
  9 10  2  0
 11 12  2  0
 12  2  1  0
 13 14  1  0
 14 15  2  0
 14 16  1  0
 16 17  1  0
 18 17  1  6
 18 19  1  0
 19  9  1  0
 20 18  1  0
 21 20  2  0
 22 23  1  0
 23 24  2  0
 25 23  1  0
 26 25  1  6
 26 27  1  0
 26 28  1  0
 27 20  1  0
 28 29  1  0
 30 28  2  0
M  END
$$$$
