YQN.pdb
     RDKit          3D

 30 30  0  0  1  0  0  0  0  0999 V2000
    8.2142  -12.9616   23.1264 O   0  0  0  0  0  0  0  0  0  0  0  0
    7.8071  -13.4530   21.8873 C   0  0  0  0  0  0  0  0  0  0  0  0
    7.9797  -12.7507   20.7163 C   0  0  0  0  0  0  0  0  0  0  0  0
    7.5701  -13.2565   19.5081 C   0  0  0  0  0  0  0  0  0  0  0  0
    6.9588  -14.5128   19.4273 C   0  0  0  0  0  0  0  0  0  0  0  0
    6.5397  -15.0104   18.1069 C   0  0  0  0  0  0  0  0  0  0  0  0
    7.6963  -15.7372   17.4711 C   0  0  2  0  0  0  0  0  0  0  0  0
    7.2234  -16.4171   16.2872 N   0  0  0  0  0  0  0  0  0  0  0  0
    8.3580  -16.6792   18.3872 C   0  0  0  0  0  0  0  0  0  0  0  0
    8.1046  -17.9293   18.3111 O   0  0  0  0  0  0  0  0  0  0  0  0
    6.7853  -15.2145   20.5889 C   0  0  0  0  0  0  0  0  0  0  0  0
    7.2071  -14.6879   21.8139 C   0  0  0  0  0  0  0  0  0  0  0  0
   12.3944  -18.8075   16.6584 N   0  0  0  0  0  0  0  0  0  0  0  0
   12.9097  -19.1109   17.9681 C   0  0  0  0  0  0  0  0  0  0  0  0
   13.8481  -19.9111   18.1132 O   0  0  0  0  0  0  0  0  0  0  0  0
   12.2915  -18.4425   19.1144 C   0  0  0  0  0  0  0  0  0  0  0  0
   11.1606  -17.5609   18.6830 C   0  0  0  0  0  0  0  0  0  0  0  0
   10.3183  -17.2042   19.8845 C   0  0  2  0  0  0  0  0  0  0  0  0
    9.2894  -16.2789   19.3789 N   0  0  0  0  0  0  0  0  0  0  0  0
   11.1822  -16.4853   20.8859 C   0  0  0  0  0  0  0  0  0  0  0  0
   11.6720  -15.3401   20.6292 O   0  0  0  0  0  0  0  0  0  0  0  0
   10.3089  -15.2769   25.7384 N   0  0  0  0  0  0  0  0  0  0  0  0
   10.3839  -16.4780   24.9550 C   0  0  0  0  0  0  0  0  0  0  0  0
    9.3252  -17.0780   24.6738 O   0  0  0  0  0  0  0  0  0  0  0  0
   11.6718  -16.9870   24.4969 C   0  0  0  0  0  0  0  0  0  0  0  0
   12.1604  -16.4461   23.1840 C   0  0  2  0  0  0  0  0  0  0  0  0
   11.4151  -17.1469   22.1122 N   0  0  0  0  0  0  0  0  0  0  0  0
   13.5771  -16.7152   22.8957 C   0  0  0  0  0  0  0  0  0  0  0  0
   14.5538  -15.8421   23.3123 O   0  0  0  0  0  0  0  0  0  0  0  0
   13.9113  -17.7355   22.2715 O   0  0  0  0  0  0  0  0  0  0  0  0
  2  1  1  0
  3  2  2  0
  4  3  1  0
  5 11  1  0
  5  4  2  0
  6  5  1  0
  7  6  1  0
  7  8  1  6
  9  7  1  0
  9 10  2  0
 11 12  2  0
 12  2  1  0
 13 14  1  0
 14 15  2  0
 14 16  1  0
 16 17  1  0
 18 17  1  6
 18 19  1  0
 19  9  1  0
 20 18  1  0
 21 20  2  0
 22 23  1  0
 23 24  2  0
 25 23  1  0
 26 25  1  1
 26 27  1  0
 26 28  1  0
 27 20  1  0
 28 29  1  0
 30 28  2  0
M  END
$$$$
