YQN.pdb
     RDKit          3D

 30 30  0  0  1  0  0  0  0  0999 V2000
    8.0316  -12.4911   16.5333 O   0  0  0  0  0  0  0  0  0  0  0  0
    7.9212  -13.0341   17.8122 C   0  0  0  0  0  0  0  0  0  0  0  0
    7.1331  -12.4740   18.7918 C   0  0  0  0  0  0  0  0  0  0  0  0
    7.0410  -13.0280   20.0440 C   0  0  0  0  0  0  0  0  0  0  0  0
    7.7512  -14.1896   20.3677 C   0  0  0  0  0  0  0  0  0  0  0  0
    7.6163  -14.7446   21.7243 C   0  0  0  0  0  0  0  0  0  0  0  0
    8.5010  -15.9583   21.8438 C   0  0  2  0  0  0  0  0  0  0  0  0
    8.1935  -16.8656   20.7622 N   0  0  0  0  0  0  0  0  0  0  0  0
    8.3789  -16.6339   23.1450 C   0  0  0  0  0  0  0  0  0  0  0  0
    7.3516  -17.3499   23.3996 O   0  0  0  0  0  0  0  0  0  0  0  0
    8.5358  -14.7498   19.3970 C   0  0  0  0  0  0  0  0  0  0  0  0
    8.6212  -14.1755   18.1247 C   0  0  0  0  0  0  0  0  0  0  0  0
   11.5129  -20.7309   20.9889 N   0  0  0  0  0  0  0  0  0  0  0  0
   11.3740  -19.3189   21.2338 C   0  0  0  0  0  0  0  0  0  0  0  0
   11.9913  -18.4898   20.5456 O   0  0  0  0  0  0  0  0  0  0  0  0
   10.4812  -18.9004   22.3158 C   0  0  0  0  0  0  0  0  0  0  0  0
   11.0827  -17.7858   23.1146 C   0  0  0  0  0  0  0  0  0  0  0  0
   10.3205  -17.6304   24.4089 C   0  0  2  0  0  0  0  0  0  0  0  0
    9.3581  -16.5416   24.1668 N   0  0  0  0  0  0  0  0  0  0  0  0
   11.2810  -17.2115   25.4897 C   0  0  0  0  0  0  0  0  0  0  0  0
   12.4913  -16.9290   25.2199 O   0  0  0  0  0  0  0  0  0  0  0  0
   10.3249  -13.3774   28.8388 N   0  0  0  0  0  0  0  0  0  0  0  0
    9.3938  -13.8173   27.8381 C   0  0  0  0  0  0  0  0  0  0  0  0
    8.3916  -13.1114   27.5991 O   0  0  0  0  0  0  0  0  0  0  0  0
    9.6146  -15.0647   27.1149 C   0  0  0  0  0  0  0  0  0  0  0  0
   10.8112  -15.8658   27.5409 C   0  0  2  0  0  0  0  0  0  0  0  0
   10.7679  -17.1508   26.8045 N   0  0  0  0  0  0  0  0  0  0  0  0
   10.8240  -16.2460   28.9615 C   0  0  0  0  0  0  0  0  0  0  0  0
   11.5732  -15.5353   29.8690 O   0  0  0  0  0  0  0  0  0  0  0  0
   10.1581  -17.2149   29.3615 O   0  0  0  0  0  0  0  0  0  0  0  0
  2  1  1  0
  3  2  2  0
  4  3  1  0
  5 11  1  0
  5  4  2  0
  6  5  1  0
  7  6  1  0
  7  8  1  6
  9  7  1  0
  9 10  2  0
 11 12  2  0
 12  2  1  0
 13 14  1  0
 14 15  2  0
 14 16  1  0
 16 17  1  0
 18 17  1  6
 18 19  1  0
 19  9  1  0
 20 18  1  0
 21 20  2  0
 22 23  1  0
 23 24  2  0
 25 23  1  0
 26 25  1  1
 26 27  1  0
 26 28  1  0
 27 20  1  0
 28 29  1  0
 30 28  2  0
M  END
$$$$
