DIM.pdb
     RDKit          3D

 25 24  0  0  1  0  0  0  0  0999 V2000
   18.4166  -11.5159  -17.1071 N   0  0  0  0  0  0  0  0  0  0  0  0
   19.2170  -10.3694  -17.4765 C   0  0  1  0  0  0  0  0  0  0  0  0
   18.5402   -9.4721  -18.4682 C   0  0  0  0  0  0  0  0  0  0  0  0
   18.3380  -10.2207  -19.7275 C   0  0  0  0  0  0  0  0  0  0  0  0
   19.2285  -10.2792  -20.6035 O   0  0  0  0  0  0  0  0  0  0  0  0
   19.6351   -9.6720  -16.2514 C   0  0  0  0  0  0  0  0  0  0  0  0
   18.8653   -9.4380  -15.2819 O   0  0  0  0  0  0  0  0  0  0  0  0
   17.1382  -10.8857  -19.9713 O   0  0  0  0  0  0  0  0  0  0  0  0
   24.7746  -10.4644  -14.5911 C   0  0  0  0  0  0  0  0  0  0  0  0
   23.6057   -9.7331  -15.1932 C   0  0  0  0  0  0  0  0  0  0  0  0
   22.5080   -9.3944  -14.2391 C   0  0  2  0  0  0  0  0  0  0  0  0
   21.9061  -10.7205  -13.7791 C   0  0  0  0  0  0  0  0  0  0  0  0
   21.4308   -8.5488  -14.8728 C   0  0  2  0  0  0  0  0  0  0  0  0
   20.9703   -9.2182  -16.1063 N   0  0  0  0  0  0  0  0  0  0  0  0
   21.9407   -7.2454  -15.3292 C   0  0  0  0  0  0  0  0  0  0  0  0
   22.5030   -7.1633  -16.4510 O   0  0  0  0  0  0  0  0  0  0  0  0
   21.5531   -1.0381  -19.0222 C   0  0  0  0  0  0  0  0  0  0  0  0
   20.9650   -2.6645  -18.4860 S   0  0  0  0  0  0  0  0  0  0  0  0
   21.8698   -3.1291  -16.9921 C   0  0  0  0  0  0  0  0  0  0  0  0
   21.4417   -4.5084  -16.4834 C   0  0  0  0  0  0  0  0  0  0  0  0
   22.2095   -4.7434  -15.2054 C   0  0  2  0  0  0  0  0  0  0  0  0
   21.8596   -6.0269  -14.6166 N   0  0  0  0  0  0  0  0  0  0  0  0
   22.0195   -3.6254  -14.2833 C   0  0  0  0  0  0  0  0  0  0  0  0
   22.7512   -2.4608  -14.4619 O   0  0  0  0  0  0  0  0  0  0  0  0
   21.2168   -3.6601  -13.3214 O   0  0  0  0  0  0  0  0  0  0  0  0
  2  1  1  1
  2  3  1  0
  3  4  1  0
  4  8  1  0
  4  5  2  0
  6  7  2  0
  6  2  1  0
  9 10  1  0
 10 11  1  0
 11 12  1  6
 11 13  1  0
 13 14  1  6
 14  6  1  0
 15 22  1  0
 15 13  1  0
 16 15  2  0
 18 17  1  0
 19 18  1  0
 21 20  1  6
 20 19  1  0
 21 22  1  0
 21 23  1  0
 23 24  1  0
 25 23  2  0
M  END
$$$$
