DIM.pdb
     RDKit          3D

 25 24  0  0  1  0  0  0  0  0999 V2000
   17.5783  -11.3823  -15.6235 N   0  0  0  0  0  0  0  0  0  0  0  0
   18.1964  -10.3095  -16.3709 C   0  0  1  0  0  0  0  0  0  0  0  0
   17.2206   -9.2634  -16.8181 C   0  0  0  0  0  0  0  0  0  0  0  0
   16.1942   -9.9024  -17.6699 C   0  0  0  0  0  0  0  0  0  0  0  0
   16.5068  -10.5806  -18.6730 O   0  0  0  0  0  0  0  0  0  0  0  0
   19.3109   -9.7658  -15.5807 C   0  0  0  0  0  0  0  0  0  0  0  0
   19.2275   -9.4823  -14.3561 O   0  0  0  0  0  0  0  0  0  0  0  0
   14.8402   -9.7630  -17.3727 O   0  0  0  0  0  0  0  0  0  0  0  0
   23.9921  -12.0671  -15.5014 C   0  0  0  0  0  0  0  0  0  0  0  0
   22.8409  -11.1614  -15.1580 C   0  0  0  0  0  0  0  0  0  0  0  0
   22.9353   -9.7766  -15.7090 C   0  0  2  0  0  0  0  0  0  0  0  0
   24.1412   -9.1222  -15.0383 C   0  0  0  0  0  0  0  0  0  0  0  0
   21.7001   -8.9566  -15.4281 C   0  0  2  0  0  0  0  0  0  0  0  0
   20.5703   -9.5300  -16.1873 N   0  0  0  0  0  0  0  0  0  0  0  0
   21.8195   -7.5779  -15.9301 C   0  0  0  0  0  0  0  0  0  0  0  0
   21.8771   -7.3775  -17.1702 O   0  0  0  0  0  0  0  0  0  0  0  0
   19.9725   -0.9078  -18.3796 C   0  0  0  0  0  0  0  0  0  0  0  0
   19.5156   -2.4825  -17.6112 S   0  0  0  0  0  0  0  0  0  0  0  0
   21.0016   -3.2091  -16.8832 C   0  0  0  0  0  0  0  0  0  0  0  0
   20.7197   -4.5968  -16.3008 C   0  0  0  0  0  0  0  0  0  0  0  0
   22.0210   -5.0766  -15.7055 C   0  0  2  0  0  0  0  0  0  0  0  0
   21.8741   -6.4080  -15.1380 N   0  0  0  0  0  0  0  0  0  0  0  0
   22.5312   -4.1024  -14.7426 C   0  0  0  0  0  0  0  0  0  0  0  0
   23.3425   -3.0673  -15.1829 O   0  0  0  0  0  0  0  0  0  0  0  0
   22.2717   -4.1503  -13.5174 O   0  0  0  0  0  0  0  0  0  0  0  0
  2  1  1  1
  2  3  1  0
  3  4  1  0
  4  8  1  0
  4  5  2  0
  6  7  2  0
  6  2  1  0
  9 10  1  0
 10 11  1  0
 11 12  1  1
 11 13  1  0
 13 14  1  6
 14  6  1  0
 15 22  1  0
 15 13  1  0
 16 15  2  0
 18 17  1  0
 19 18  1  0
 21 20  1  1
 20 19  1  0
 21 22  1  0
 21 23  1  0
 23 24  1  0
 25 23  2  0
M  END
$$$$
