DIM.pdb
     RDKit          3D

 25 24  0  0  1  0  0  0  0  0999 V2000
   22.5357  -21.3298  -15.5640 N   0  0  0  0  0  0  0  0  0  0  0  0
   22.7787  -20.6194  -14.3279 C   0  0  1  0  0  0  0  0  0  0  0  0
   21.6452  -20.7266  -13.3532 C   0  0  0  0  0  0  0  0  0  0  0  0
   20.4410  -20.1127  -13.9534 C   0  0  0  0  0  0  0  0  0  0  0  0
   20.5135  -19.0771  -14.6506 O   0  0  0  0  0  0  0  0  0  0  0  0
   24.0663  -21.0637  -13.7742 C   0  0  0  0  0  0  0  0  0  0  0  0
   24.4332  -22.2682  -13.7357 O   0  0  0  0  0  0  0  0  0  0  0  0
   19.1835  -20.6788  -13.7547 O   0  0  0  0  0  0  0  0  0  0  0  0
   28.5063  -18.7242  -15.2603 C   0  0  0  0  0  0  0  0  0  0  0  0
   27.5108  -19.6863  -14.6716 C   0  0  0  0  0  0  0  0  0  0  0  0
   27.3504  -19.6072  -13.1890 C   0  0  2  0  0  0  0  0  0  0  0  0
   28.6961  -20.0011  -12.5837 C   0  0  0  0  0  0  0  0  0  0  0  0
   26.2785  -20.5352  -12.6725 C   0  0  2  0  0  0  0  0  0  0  0  0
   24.9804  -20.1198  -13.2418 N   0  0  0  0  0  0  0  0  0  0  0  0
   26.0956  -20.4210  -11.2162 C   0  0  0  0  0  0  0  0  0  0  0  0
   25.4932  -19.4213  -10.7484 O   0  0  0  0  0  0  0  0  0  0  0  0
   29.7079  -20.0688   -5.3944 C   0  0  0  0  0  0  0  0  0  0  0  0
   28.3341  -19.0291   -5.9519 S   0  0  0  0  0  0  0  0  0  0  0  0
   27.1191  -20.0879   -6.7700 C   0  0  0  0  0  0  0  0  0  0  0  0
   27.4345  -20.2566   -8.2587 C   0  0  0  0  0  0  0  0  0  0  0  0
   26.3564  -21.1519   -8.8193 C   0  0  2  0  0  0  0  0  0  0  0  0
   26.5376  -21.3525  -10.2487 N   0  0  0  0  0  0  0  0  0  0  0  0
   25.0335  -20.6293   -8.4828 C   0  0  0  0  0  0  0  0  0  0  0  0
   24.4030  -21.0604   -7.3251 O   0  0  0  0  0  0  0  0  0  0  0  0
   24.4246  -19.7971   -9.1952 O   0  0  0  0  0  0  0  0  0  0  0  0
  2  1  1  6
  2  3  1  0
  3  4  1  0
  4  8  1  0
  4  5  2  0
  6  7  2  0
  6  2  1  0
  9 10  1  0
 10 11  1  0
 11 12  1  1
 11 13  1  0
 13 14  1  6
 14  6  1  0
 15 22  1  0
 15 13  1  0
 16 15  2  0
 18 17  1  0
 19 18  1  0
 21 20  1  6
 20 19  1  0
 21 22  1  0
 21 23  1  0
 23 24  1  0
 25 23  2  0
M  END
$$$$
