DIM.pdb
     RDKit          3D

 25 24  0  0  1  0  0  0  0  0999 V2000
   23.0743  -19.1412  -14.7680 N   0  0  0  0  0  0  0  0  0  0  0  0
   22.7294  -20.2617  -13.9212 C   0  0  1  0  0  0  0  0  0  0  0  0
   21.7318  -21.1890  -14.5470 C   0  0  0  0  0  0  0  0  0  0  0  0
   20.4190  -20.5102  -14.6015 C   0  0  0  0  0  0  0  0  0  0  0  0
   20.2100  -19.5526  -15.3782 O   0  0  0  0  0  0  0  0  0  0  0  0
   23.9677  -20.9353  -13.5031 C   0  0  0  0  0  0  0  0  0  0  0  0
   24.0625  -22.1792  -13.3271 O   0  0  0  0  0  0  0  0  0  0  0  0
   19.3725  -20.9250  -13.7807 O   0  0  0  0  0  0  0  0  0  0  0  0
   28.8267  -19.4938  -15.3945 C   0  0  0  0  0  0  0  0  0  0  0  0
   27.7202  -20.2859  -14.7531 C   0  0  0  0  0  0  0  0  0  0  0  0
   27.5718  -20.0928  -13.2797 C   0  0  2  0  0  0  0  0  0  0  0  0
   28.8386  -20.6539  -12.6372 C   0  0  0  0  0  0  0  0  0  0  0  0
   26.3673  -20.8095  -12.7206 C   0  0  2  0  0  0  0  0  0  0  0  0
   25.1481  -20.1848  -13.2728 N   0  0  0  0  0  0  0  0  0  0  0  0
   26.2420  -20.6374  -11.2639 C   0  0  0  0  0  0  0  0  0  0  0  0
   25.9623  -19.5026  -10.8002 O   0  0  0  0  0  0  0  0  0  0  0  0
   29.1634  -19.4565   -5.7336 C   0  0  0  0  0  0  0  0  0  0  0  0
   27.5118  -18.8001   -6.0803 S   0  0  0  0  0  0  0  0  0  0  0  0
   26.5451  -20.0974   -6.8859 C   0  0  0  0  0  0  0  0  0  0  0  0
   26.9712  -20.2907   -8.3438 C   0  0  0  0  0  0  0  0  0  0  0  0
   26.1448  -21.4359   -8.8763 C   0  0  2  0  0  0  0  0  0  0  0  0
   26.4043  -21.6510  -10.2915 N   0  0  0  0  0  0  0  0  0  0  0  0
   24.7286  -21.2214   -8.5852 C   0  0  0  0  0  0  0  0  0  0  0  0
   24.2347  -21.5349   -7.3276 O   0  0  0  0  0  0  0  0  0  0  0  0
   23.9193  -20.7612   -9.4241 O   0  0  0  0  0  0  0  0  0  0  0  0
  2  1  1  6
  2  3  1  0
  3  4  1  0
  4  8  1  0
  4  5  2  0
  6  7  2  0
  6  2  1  0
  9 10  1  0
 10 11  1  0
 11 12  1  1
 11 13  1  0
 13 14  1  6
 14  6  1  0
 15 22  1  0
 15 13  1  0
 16 15  2  0
 18 17  1  0
 19 18  1  0
 21 20  1  6
 20 19  1  0
 21 22  1  0
 21 23  1  0
 23 24  1  0
 25 23  2  0
M  END
$$$$
