DIM.pdb
     RDKit          3D

 25 24  0  0  1  0  0  0  0  0999 V2000
   19.2628  -11.5034  -19.1411 N   0  0  0  0  0  0  0  0  0  0  0  0
   20.0372  -10.2820  -19.1352 C   0  0  1  0  0  0  0  0  0  0  0  0
   19.6028   -9.3030  -20.1837 C   0  0  0  0  0  0  0  0  0  0  0  0
   19.9368   -9.8519  -21.5158 C   0  0  0  0  0  0  0  0  0  0  0  0
   19.9597  -11.0841  -21.7281 O   0  0  0  0  0  0  0  0  0  0  0  0
   20.0245   -9.7223  -17.7756 C   0  0  0  0  0  0  0  0  0  0  0  0
   19.0714   -9.8731  -16.9657 O   0  0  0  0  0  0  0  0  0  0  0  0
   20.2370   -9.0012  -22.5775 O   0  0  0  0  0  0  0  0  0  0  0  0
   23.9760  -10.7668  -14.6262 C   0  0  0  0  0  0  0  0  0  0  0  0
   22.6402  -10.3084  -15.1449 C   0  0  0  0  0  0  0  0  0  0  0  0
   22.4941   -8.8310  -15.3065 C   0  0  2  0  0  0  0  0  0  0  0  0
   22.5978   -8.2275  -13.9074 C   0  0  0  0  0  0  0  0  0  0  0  0
   21.1717   -8.4441  -15.9217 C   0  0  2  0  0  0  0  0  0  0  0  0
   21.1246   -8.9627  -17.3039 N   0  0  0  0  0  0  0  0  0  0  0  0
   21.0304   -6.9863  -16.0701 C   0  0  0  0  0  0  0  0  0  0  0  0
   21.8373   -6.3616  -16.8048 O   0  0  0  0  0  0  0  0  0  0  0  0
   21.1324   -1.5057  -19.8519 C   0  0  0  0  0  0  0  0  0  0  0  0
   20.2137   -3.0225  -19.4854 S   0  0  0  0  0  0  0  0  0  0  0  0
   20.3984   -3.3843  -17.7243 C   0  0  0  0  0  0  0  0  0  0  0  0
   19.6636   -4.6702  -17.3360 C   0  0  0  0  0  0  0  0  0  0  0  0
   19.8018   -4.7990  -15.8385 C   0  0  2  0  0  0  0  0  0  0  0  0
   20.0440   -6.1813  -15.4552 N   0  0  0  0  0  0  0  0  0  0  0  0
   18.6398   -4.2193  -15.1675 C   0  0  0  0  0  0  0  0  0  0  0  0
   18.5959   -2.8524  -14.9367 O   0  0  0  0  0  0  0  0  0  0  0  0
   17.6616   -4.9009  -14.7812 O   0  0  0  0  0  0  0  0  0  0  0  0
  2  1  1  1
  2  3  1  0
  3  4  1  0
  4  8  1  0
  4  5  2  0
  6  7  2  0
  6  2  1  0
  9 10  1  0
 10 11  1  0
 11 12  1  1
 11 13  1  0
 13 14  1  6
 14  6  1  0
 15 22  1  0
 15 13  1  0
 16 15  2  0
 18 17  1  0
 19 18  1  0
 21 20  1  6
 20 19  1  0
 21 22  1  0
 21 23  1  0
 23 24  1  0
 25 23  2  0
M  END
$$$$
