DIM.pdb
     RDKit          3D

 25 24  0  0  1  0  0  0  0  0999 V2000
   17.9229  -12.0475  -17.0677 N   0  0  0  0  0  0  0  0  0  0  0  0
   18.6250  -10.8607  -17.5038 C   0  0  1  0  0  0  0  0  0  0  0  0
   17.7167   -9.8145  -18.0758 C   0  0  0  0  0  0  0  0  0  0  0  0
   17.1996  -10.2921  -19.3764 C   0  0  0  0  0  0  0  0  0  0  0  0
   17.4899  -11.4249  -19.8194 O   0  0  0  0  0  0  0  0  0  0  0  0
   19.4531  -10.3681  -16.3931 C   0  0  0  0  0  0  0  0  0  0  0  0
   19.0585  -10.3105  -15.1981 O   0  0  0  0  0  0  0  0  0  0  0  0
   16.3679   -9.4833  -20.1480 O   0  0  0  0  0  0  0  0  0  0  0  0
   24.2294  -12.3398  -15.7773 C   0  0  0  0  0  0  0  0  0  0  0  0
   22.9374  -11.6119  -15.5240 C   0  0  0  0  0  0  0  0  0  0  0  0
   23.0013  -10.1287  -15.6849 C   0  0  2  0  0  0  0  0  0  0  0  0
   23.9444   -9.6131  -14.5999 C   0  0  0  0  0  0  0  0  0  0  0  0
   21.6521   -9.4710  -15.5293 C   0  0  2  0  0  0  0  0  0  0  0  0
   20.7775   -9.9219  -16.6309 N   0  0  0  0  0  0  0  0  0  0  0  0
   21.7221   -8.0092  -15.6891 C   0  0  0  0  0  0  0  0  0  0  0  0
   22.1272   -7.5281  -16.7780 O   0  0  0  0  0  0  0  0  0  0  0  0
   19.4460   -0.7396  -15.6560 C   0  0  0  0  0  0  0  0  0  0  0  0
   18.9910   -2.4543  -15.2934 S   0  0  0  0  0  0  0  0  0  0  0  0
   20.5058   -3.4367  -15.2123 C   0  0  0  0  0  0  0  0  0  0  0  0
   20.2005   -4.9212  -14.9953 C   0  0  0  0  0  0  0  0  0  0  0  0
   21.5364   -5.6191  -14.9144 C   0  0  2  0  0  0  0  0  0  0  0  0
   21.3649   -7.0497  -14.7140 N   0  0  0  0  0  0  0  0  0  0  0  0
   22.3744   -4.9990  -13.8898 C   0  0  0  0  0  0  0  0  0  0  0  0
   22.5161   -5.6179  -12.6568 O   0  0  0  0  0  0  0  0  0  0  0  0
   22.9841   -3.9183  -14.0660 O   0  0  0  0  0  0  0  0  0  0  0  0
  2  1  1  1
  2  3  1  0
  3  4  1  0
  4  8  1  0
  4  5  2  0
  6  7  2  0
  6  2  1  0
  9 10  1  0
 10 11  1  0
 11 12  1  1
 11 13  1  0
 13 14  1  6
 14  6  1  0
 15 22  1  0
 15 13  1  0
 16 15  2  0
 18 17  1  0
 19 18  1  0
 21 20  1  1
 20 19  1  0
 21 22  1  0
 21 23  1  0
 23 24  1  0
 25 23  2  0
M  END
$$$$
