DIM.pdb
     RDKit          3D

 25 24  0  0  1  0  0  0  0  0999 V2000
   21.5544  -15.5065  -15.6227 N   0  0  0  0  0  0  0  0  0  0  0  0
   21.6003  -14.3407  -16.4773 C   0  0  1  0  0  0  0  0  0  0  0  0
   20.2673  -13.9865  -17.0641 C   0  0  0  0  0  0  0  0  0  0  0  0
   19.7238  -15.1718  -17.7619 C   0  0  0  0  0  0  0  0  0  0  0  0
   18.5767  -15.6056  -17.5173 O   0  0  0  0  0  0  0  0  0  0  0  0
   22.2207  -13.2348  -15.7330 C   0  0  0  0  0  0  0  0  0  0  0  0
   21.7526  -12.7615  -14.6635 O   0  0  0  0  0  0  0  0  0  0  0  0
   20.4842  -15.8410  -18.7185 O   0  0  0  0  0  0  0  0  0  0  0  0
   27.6095  -13.1197  -15.5446 C   0  0  0  0  0  0  0  0  0  0  0  0
   26.1699  -12.8885  -15.1739 C   0  0  0  0  0  0  0  0  0  0  0  0
   25.5681  -11.6331  -15.7141 C   0  0  2  0  0  0  0  0  0  0  0  0
   26.2693  -10.4749  -15.0074 C   0  0  0  0  0  0  0  0  0  0  0  0
   24.0829  -11.5480  -15.4615 C   0  0  2  0  0  0  0  0  0  0  0  0
   23.4146  -12.6345  -16.2063 N   0  0  0  0  0  0  0  0  0  0  0  0
   23.4943  -10.3127  -16.0046 C   0  0  0  0  0  0  0  0  0  0  0  0
   23.3376  -10.2006  -17.2472 O   0  0  0  0  0  0  0  0  0  0  0  0
   18.4438   -6.1157  -18.9237 C   0  0  0  0  0  0  0  0  0  0  0  0
   19.0074   -7.6312  -18.1085 S   0  0  0  0  0  0  0  0  0  0  0  0
   20.5142   -7.2506  -17.1859 C   0  0  0  0  0  0  0  0  0  0  0  0
   21.1643   -8.5188  -16.6261 C   0  0  0  0  0  0  0  0  0  0  0  0
   22.3712   -8.0634  -15.8425 C   0  0  2  0  0  0  0  0  0  0  0  0
   23.0652   -9.1965  -15.2503 N   0  0  0  0  0  0  0  0  0  0  0  0
   21.9881   -7.0543  -14.8568 C   0  0  0  0  0  0  0  0  0  0  0  0
   21.6391   -5.7814  -15.2827 O   0  0  0  0  0  0  0  0  0  0  0  0
   21.9565   -7.2787  -13.6242 O   0  0  0  0  0  0  0  0  0  0  0  0
  2  1  1  1
  2  3  1  0
  3  4  1  0
  4  8  1  0
  4  5  2  0
  6  7  2  0
  6  2  1  0
  9 10  1  0
 10 11  1  0
 11 12  1  1
 11 13  1  0
 13 14  1  6
 14  6  1  0
 15 22  1  0
 15 13  1  0
 16 15  2  0
 18 17  1  0
 19 18  1  0
 21 20  1  1
 20 19  1  0
 21 22  1  0
 21 23  1  0
 23 24  1  0
 25 23  2  0
M  END
$$$$
