DIM.pdb
     RDKit          3D

 25 24  0  0  1  0  0  0  0  0999 V2000
   21.1426   -8.9617  -15.9323 N   0  0  0  0  0  0  0  0  0  0  0  0
   20.5702   -7.6743  -15.6055 C   0  0  1  0  0  0  0  0  0  0  0  0
   21.1258   -7.0846  -14.3445 C   0  0  0  0  0  0  0  0  0  0  0  0
   20.8324   -8.0001  -13.2207 C   0  0  0  0  0  0  0  0  0  0  0  0
   19.7231   -8.5671  -13.1119 O   0  0  0  0  0  0  0  0  0  0  0  0
   20.7061   -6.7886  -16.7713 C   0  0  0  0  0  0  0  0  0  0  0  0
   21.6939   -6.8072  -17.5530 O   0  0  0  0  0  0  0  0  0  0  0  0
   21.7944   -8.2559  -12.2459 O   0  0  0  0  0  0  0  0  0  0  0  0
   16.8356   -6.3561  -20.3040 C   0  0  0  0  0  0  0  0  0  0  0  0
   18.2158   -6.2161  -19.7218 C   0  0  0  0  0  0  0  0  0  0  0  0
   18.4605   -4.9533  -18.9631 C   0  0  2  0  0  0  0  0  0  0  0  0
   18.4356   -3.8191  -19.9856 C   0  0  0  0  0  0  0  0  0  0  0  0
   19.7904   -4.9551  -18.2501 C   0  0  2  0  0  0  0  0  0  0  0  0
   19.6938   -5.8433  -17.0738 N   0  0  0  0  0  0  0  0  0  0  0  0
   20.1246   -3.6358  -17.6890 C   0  0  0  0  0  0  0  0  0  0  0  0
   19.4629   -3.1961  -16.7144 O   0  0  0  0  0  0  0  0  0  0  0  0
   24.7121    2.6992  -16.8621 C   0  0  0  0  0  0  0  0  0  0  0  0
   24.4200    1.2615  -17.9235 S   0  0  0  0  0  0  0  0  0  0  0  0
   22.9679    0.3841  -17.3006 C   0  0  0  0  0  0  0  0  0  0  0  0
   22.6457   -0.8446  -18.1555 C   0  0  0  0  0  0  0  0  0  0  0  0
   21.4347   -1.4898  -17.5269 C   0  0  2  0  0  0  0  0  0  0  0  0
   21.1525   -2.7773  -18.1426 N   0  0  0  0  0  0  0  0  0  0  0  0
   20.2924   -0.5787  -17.5677 C   0  0  0  0  0  0  0  0  0  0  0  0
   19.8955    0.0713  -16.4087 O   0  0  0  0  0  0  0  0  0  0  0  0
   19.6385   -0.3470  -18.6115 O   0  0  0  0  0  0  0  0  0  0  0  0
  2  1  1  6
  2  3  1  0
  3  4  1  0
  4  8  1  0
  4  5  2  0
  6  7  2  0
  6  2  1  0
  9 10  1  0
 10 11  1  0
 11 12  1  6
 11 13  1  0
 13 14  1  1
 14  6  1  0
 15 22  1  0
 15 13  1  0
 16 15  2  0
 18 17  1  0
 19 18  1  0
 21 20  1  6
 20 19  1  0
 21 22  1  0
 21 23  1  0
 23 24  1  0
 25 23  2  0
M  END
$$$$
