DIM.pdb
     RDKit          3D

 25 24  0  0  1  0  0  0  0  0999 V2000
   22.8296  -12.1211  -17.5589 N   0  0  0  0  0  0  0  0  0  0  0  0
   23.2366  -10.7371  -17.4558 C   0  0  1  0  0  0  0  0  0  0  0  0
   23.4746  -10.0914  -18.7873 C   0  0  0  0  0  0  0  0  0  0  0  0
   24.5517  -10.8247  -19.4868 C   0  0  0  0  0  0  0  0  0  0  0  0
   25.3289  -11.5879  -18.8723 O   0  0  0  0  0  0  0  0  0  0  0  0
   22.2574  -10.0184  -16.6272 C   0  0  0  0  0  0  0  0  0  0  0  0
   21.0200  -10.2546  -16.6428 O   0  0  0  0  0  0  0  0  0  0  0  0
   24.7288  -10.6819  -20.8613 O   0  0  0  0  0  0  0  0  0  0  0  0
   22.2077  -10.4231  -11.7228 C   0  0  0  0  0  0  0  0  0  0  0  0
   21.8318  -10.0232  -13.1236 C   0  0  0  0  0  0  0  0  0  0  0  0
   22.0278   -8.5784  -13.4465 C   0  0  2  0  0  0  0  0  0  0  0  0
   21.0736   -7.7975  -12.5452 C   0  0  0  0  0  0  0  0  0  0  0  0
   21.7243   -8.2618  -14.8903 C   0  0  2  0  0  0  0  0  0  0  0  0
   22.6817   -8.9930  -15.7450 N   0  0  0  0  0  0  0  0  0  0  0  0
   21.9534   -6.8433  -15.2106 C   0  0  0  0  0  0  0  0  0  0  0  0
   22.9967   -6.2790  -14.7931 O   0  0  0  0  0  0  0  0  0  0  0  0
   21.3467   -5.2321  -21.5174 C   0  0  0  0  0  0  0  0  0  0  0  0
   20.4780   -4.3881  -20.1713 S   0  0  0  0  0  0  0  0  0  0  0  0
   21.2849   -4.8266  -18.6147 C   0  0  0  0  0  0  0  0  0  0  0  0
   20.6394   -4.1080  -17.4267 C   0  0  0  0  0  0  0  0  0  0  0  0
   21.3576   -4.6017  -16.1944 C   0  0  2  0  0  0  0  0  0  0  0  0
   21.0957   -6.0151  -15.9705 N   0  0  0  0  0  0  0  0  0  0  0  0
   21.0187   -3.7719  -15.0398 C   0  0  0  0  0  0  0  0  0  0  0  0
   21.8735   -2.7478  -14.6603 O   0  0  0  0  0  0  0  0  0  0  0  0
   19.9787   -3.9366  -14.3601 O   0  0  0  0  0  0  0  0  0  0  0  0
  2  1  1  6
  2  3  1  0
  3  4  1  0
  4  8  1  0
  4  5  2  0
  6  7  2  0
  6  2  1  0
  9 10  1  0
 10 11  1  0
 11 12  1  1
 11 13  1  0
 13 14  1  6
 14  6  1  0
 15 22  1  0
 15 13  1  0
 16 15  2  0
 18 17  1  0
 19 18  1  0
 21 20  1  6
 20 19  1  0
 21 22  1  0
 21 23  1  0
 23 24  1  0
 25 23  2  0
M  END
$$$$
