DIM.pdb
     RDKit          3D

 25 24  0  0  1  0  0  0  0  0999 V2000
   16.2355   -9.9372  -14.4880 N   0  0  0  0  0  0  0  0  0  0  0  0
   17.0889   -9.2736  -15.4487 C   0  0  1  0  0  0  0  0  0  0  0  0
   16.3704   -8.2381  -16.2598 C   0  0  0  0  0  0  0  0  0  0  0  0
   15.2796   -8.8948  -17.0123 C   0  0  0  0  0  0  0  0  0  0  0  0
   15.4928   -9.8922  -17.7359 O   0  0  0  0  0  0  0  0  0  0  0  0
   18.2687   -8.7472  -14.7466 C   0  0  0  0  0  0  0  0  0  0  0  0
   18.2597   -8.3793  -13.5417 O   0  0  0  0  0  0  0  0  0  0  0  0
   13.9746   -8.4135  -16.9327 O   0  0  0  0  0  0  0  0  0  0  0  0
   22.1817  -11.7267  -15.0027 C   0  0  0  0  0  0  0  0  0  0  0  0
   21.5746  -10.5301  -14.3223 C   0  0  0  0  0  0  0  0  0  0  0  0
   21.8226   -9.2213  -14.9973 C   0  0  2  0  0  0  0  0  0  0  0  0
   23.1533   -8.6993  -14.4596 C   0  0  0  0  0  0  0  0  0  0  0  0
   20.7381   -8.2105  -14.7162 C   0  0  2  0  0  0  0  0  0  0  0  0
   19.5095   -8.6281  -15.4219 N   0  0  0  0  0  0  0  0  0  0  0  0
   21.0518   -6.8853  -15.2754 C   0  0  0  0  0  0  0  0  0  0  0  0
   21.3305   -6.7834  -16.4973 O   0  0  0  0  0  0  0  0  0  0  0  0
   16.6606   -2.6083  -16.5491 C   0  0  0  0  0  0  0  0  0  0  0  0
   18.0818   -2.2292  -15.4930 S   0  0  0  0  0  0  0  0  0  0  0  0
   19.3130   -3.5342  -15.7113 C   0  0  0  0  0  0  0  0  0  0  0  0
   20.5439   -3.2964  -14.8323 C   0  0  0  0  0  0  0  0  0  0  0  0
   21.5105   -4.4112  -15.1500 C   0  0  2  0  0  0  0  0  0  0  0  0
   21.0701   -5.6659  -14.5600 N   0  0  0  0  0  0  0  0  0  0  0  0
   22.8662   -4.0404  -14.7486 C   0  0  0  0  0  0  0  0  0  0  0  0
   23.5880   -3.1462  -15.5252 O   0  0  0  0  0  0  0  0  0  0  0  0
   23.4244   -4.4936  -13.7221 O   0  0  0  0  0  0  0  0  0  0  0  0
  2  1  1  1
  2  3  1  0
  3  4  1  0
  4  8  1  0
  4  5  2  0
  6  7  2  0
  6  2  1  0
  9 10  1  0
 10 11  1  0
 11 12  1  1
 11 13  1  0
 13 14  1  6
 14  6  1  0
 15 22  1  0
 15 13  1  0
 16 15  2  0
 18 17  1  0
 19 18  1  0
 21 20  1  1
 20 19  1  0
 21 22  1  0
 21 23  1  0
 23 24  1  0
 25 23  2  0
M  END
$$$$
