DIM.pdb
     RDKit          3D

 25 24  0  0  1  0  0  0  0  0999 V2000
   17.1846  -10.1846  -16.8040 N   0  0  0  0  0  0  0  0  0  0  0  0
   16.9597  -10.1545  -15.3757 C   0  0  1  0  0  0  0  0  0  0  0  0
   16.5039  -11.4708  -14.8224 C   0  0  0  0  0  0  0  0  0  0  0  0
   15.1537  -11.7669  -15.3484 C   0  0  0  0  0  0  0  0  0  0  0  0
   14.2796  -10.8777  -15.4434 O   0  0  0  0  0  0  0  0  0  0  0  0
   18.1681   -9.6344  -14.7190 C   0  0  0  0  0  0  0  0  0  0  0  0
   18.3732   -9.6997  -13.4778 O   0  0  0  0  0  0  0  0  0  0  0  0
   14.8192  -13.0568  -15.7551 O   0  0  0  0  0  0  0  0  0  0  0  0
   22.7163   -9.5813  -17.8795 C   0  0  0  0  0  0  0  0  0  0  0  0
   21.5678   -9.0120  -17.0919 C   0  0  0  0  0  0  0  0  0  0  0  0
   21.5921   -9.3079  -15.6283 C   0  0  2  0  0  0  0  0  0  0  0  0
   21.4384  -10.8209  -15.4873 C   0  0  0  0  0  0  0  0  0  0  0  0
   20.4770   -8.6196  -14.8802 C   0  0  2  0  0  0  0  0  0  0  0  0
   19.1887   -9.0159  -15.4843 N   0  0  0  0  0  0  0  0  0  0  0  0
   20.5216   -7.1563  -15.0343 C   0  0  0  0  0  0  0  0  0  0  0  0
   19.9470   -6.6234  -16.0177 O   0  0  0  0  0  0  0  0  0  0  0  0
   18.7862   -0.1022  -15.1438 C   0  0  0  0  0  0  0  0  0  0  0  0
   18.4543   -1.8585  -14.8537 S   0  0  0  0  0  0  0  0  0  0  0  0
   20.0380   -2.7165  -14.7051 C   0  0  0  0  0  0  0  0  0  0  0  0
   19.8431   -4.2185  -14.4804 C   0  0  0  0  0  0  0  0  0  0  0  0
   21.2267   -4.8181  -14.4150 C   0  0  2  0  0  0  0  0  0  0  0  0
   21.1622   -6.2488  -14.1595 N   0  0  0  0  0  0  0  0  0  0  0  0
   22.0465   -4.1036  -13.4385 C   0  0  0  0  0  0  0  0  0  0  0  0
   22.4313   -2.7962  -13.6959 O   0  0  0  0  0  0  0  0  0  0  0  0
   22.4291   -4.6155  -12.3604 O   0  0  0  0  0  0  0  0  0  0  0  0
  2  1  1  6
  2  3  1  0
  3  4  1  0
  4  8  1  0
  4  5  2  0
  6  7  2  0
  6  2  1  0
  9 10  1  0
 10 11  1  0
 11 12  1  6
 11 13  1  0
 13 14  1  6
 14  6  1  0
 15 22  1  0
 15 13  1  0
 16 15  2  0
 18 17  1  0
 19 18  1  0
 21 20  1  1
 20 19  1  0
 21 22  1  0
 21 23  1  0
 23 24  1  0
 25 23  2  0
M  END
$$$$
