YGM.pdb
     RDKit          3D

 25 25  0  0  1  0  0  0  0  0999 V2000
   19.1541  -16.7930  -19.9535 O   0  0  0  0  0  0  0  0  0  0  0  0
   19.5469  -17.5821  -18.8791 C   0  0  0  0  0  0  0  0  0  0  0  0
   19.7685  -17.0370  -17.6229 C   0  0  0  0  0  0  0  0  0  0  0  0
   20.1570  -17.8442  -16.5774 C   0  0  0  0  0  0  0  0  0  0  0  0
   20.3467  -19.2119  -16.7055 C   0  0  0  0  0  0  0  0  0  0  0  0
   20.7585  -20.0396  -15.5659 C   0  0  0  0  0  0  0  0  0  0  0  0
   22.1509  -19.6744  -15.0358 C   0  0  2  0  0  0  0  0  0  0  0  0
   23.1100  -20.1272  -16.0017 N   0  0  0  0  0  0  0  0  0  0  0  0
   22.3374  -20.4245  -13.7730 C   0  0  0  0  0  0  0  0  0  0  0  0
   23.2219  -21.3038  -13.6217 O   0  0  0  0  0  0  0  0  0  0  0  0
   20.1232  -19.7509  -17.9647 C   0  0  0  0  0  0  0  0  0  0  0  0
   19.7345  -18.9411  -19.0099 C   0  0  0  0  0  0  0  0  0  0  0  0
   21.4940  -20.1602  -12.6645 N   0  0  0  0  0  0  0  0  0  0  0  0
   21.5896  -20.8219  -11.4051 C   0  0  0  0  0  0  0  0  0  0  0  0
   20.3781  -21.6150  -11.0737 C   0  0  0  0  0  0  0  0  0  0  0  0
   19.2982  -21.2803  -11.6173 O   0  0  0  0  0  0  0  0  0  0  0  0
   16.5419  -26.7643   -7.3337 C   0  0  0  0  0  0  0  0  0  0  0  0
   17.9929  -25.8708   -7.8321 S   0  0  0  0  0  0  0  0  0  0  0  0
   17.9622  -24.0979   -7.6186 C   0  0  0  0  0  0  0  0  0  0  0  0
   19.1072  -23.3294   -8.1496 C   0  0  0  0  0  0  0  0  0  0  0  0
   19.2517  -23.4038   -9.6390 C   0  0  2  0  0  0  0  0  0  0  0  0
   20.3802  -22.7103  -10.1908 N   0  0  0  0  0  0  0  0  0  0  0  0
   18.0036  -23.1742  -10.3738 C   0  0  0  0  0  0  0  0  0  0  0  0
   17.3875  -24.2029  -11.0683 O   0  0  0  0  0  0  0  0  0  0  0  0
   17.4463  -22.0434  -10.4032 O   0  0  0  0  0  0  0  0  0  0  0  0
  1  2  1  0
  2 12  2  0
  2  3  1  0
  3  4  2  0
  4  5  1  0
  5  6  1  0
  6  7  1  0
  7  8  1  6
  7  9  1  0
  9 10  2  0
 11  5  2  0
 12 11  1  0
 13  9  1  0
 13 14  1  0
 15 14  1  0
 15 22  1  0
 16 15  2  0
 17 18  1  0
 18 19  1  0
 20 19  1  0
 21 22  1  0
 21 20  1  1
 23 21  1  0
 24 23  1  0
 25 23  2  0
M  END
$$$$
