YGM.pdb
     RDKit          3D

 25 25  0  0  1  0  0  0  0  0999 V2000
   16.8610  -17.8935  -16.6374 O   0  0  0  0  0  0  0  0  0  0  0  0
   17.1564  -16.5553  -16.8683 C   0  0  0  0  0  0  0  0  0  0  0  0
   16.1865  -15.5699  -16.7571 C   0  0  0  0  0  0  0  0  0  0  0  0
   16.5091  -14.2522  -16.9920 C   0  0  0  0  0  0  0  0  0  0  0  0
   17.7838  -13.8349  -17.3441 C   0  0  0  0  0  0  0  0  0  0  0  0
   18.0894  -12.4198  -17.5835 C   0  0  0  0  0  0  0  0  0  0  0  0
   19.2071  -11.8893  -16.6767 C   0  0  2  0  0  0  0  0  0  0  0  0
   18.7031  -11.8830  -15.3336 N   0  0  0  0  0  0  0  0  0  0  0  0
   19.4789  -10.4978  -17.1033 C   0  0  0  0  0  0  0  0  0  0  0  0
   19.8820  -10.1999  -18.2554 O   0  0  0  0  0  0  0  0  0  0  0  0
   18.7494  -14.8258  -17.4536 C   0  0  0  0  0  0  0  0  0  0  0  0
   18.4244  -16.1441  -17.2181 C   0  0  0  0  0  0  0  0  0  0  0  0
   19.2843   -9.4298  -16.1915 N   0  0  0  0  0  0  0  0  0  0  0  0
   19.4204   -8.0507  -16.5271 C   0  0  0  0  0  0  0  0  0  0  0  0
   20.5184   -7.3794  -15.7853 C   0  0  0  0  0  0  0  0  0  0  0  0
   20.9112   -7.9133  -14.7202 O   0  0  0  0  0  0  0  0  0  0  0  0
   26.0002   -1.4657  -15.6765 C   0  0  0  0  0  0  0  0  0  0  0  0
   24.5729   -2.1925  -16.4425 S   0  0  0  0  0  0  0  0  0  0  0  0
   23.8646   -3.6213  -15.6383 C   0  0  0  0  0  0  0  0  0  0  0  0
   22.7533   -4.3084  -16.3285 C   0  0  0  0  0  0  0  0  0  0  0  0
   22.1370   -5.4188  -15.5334 C   0  0  2  0  0  0  0  0  0  0  0  0
   21.1335   -6.1881  -16.2117 N   0  0  0  0  0  0  0  0  0  0  0  0
   21.7642   -5.0409  -14.1664 C   0  0  0  0  0  0  0  0  0  0  0  0
   22.6560   -5.1961  -13.1173 O   0  0  0  0  0  0  0  0  0  0  0  0
   20.6291   -4.5644  -13.8932 O   0  0  0  0  0  0  0  0  0  0  0  0
  1  2  1  0
  2 12  2  0
  2  3  1  0
  3  4  2  0
  4  5  1  0
  5  6  1  0
  6  7  1  0
  7  8  1  1
  7  9  1  0
  9 10  2  0
 11  5  2  0
 12 11  1  0
 13  9  1  0
 13 14  1  0
 15 14  1  0
 15 22  1  0
 16 15  2  0
 17 18  1  0
 18 19  1  0
 20 19  1  0
 21 22  1  0
 21 20  1  6
 23 21  1  0
 24 23  1  0
 25 23  2  0
M  END
$$$$
