YGM.pdb
     RDKit          3D

 25 25  0  0  1  0  0  0  0  0999 V2000
   20.7071  -20.8901  -20.7961 O   0  0  0  0  0  0  0  0  0  0  0  0
   21.5243  -20.6684  -19.6941 C   0  0  0  0  0  0  0  0  0  0  0  0
   22.3877  -21.6471  -19.2241 C   0  0  0  0  0  0  0  0  0  0  0  0
   23.1854  -21.3983  -18.1299 C   0  0  0  0  0  0  0  0  0  0  0  0
   23.1798  -20.1918  -17.4463 C   0  0  0  0  0  0  0  0  0  0  0  0
   24.0476  -19.9635  -16.2853 C   0  0  0  0  0  0  0  0  0  0  0  0
   23.7104  -20.8767  -15.0998 C   0  0  2  0  0  0  0  0  0  0  0  0
   22.3422  -20.6314  -14.7450 N   0  0  0  0  0  0  0  0  0  0  0  0
   24.5871  -20.4645  -13.9802 C   0  0  0  0  0  0  0  0  0  0  0  0
   24.2823  -19.5543  -13.1695 O   0  0  0  0  0  0  0  0  0  0  0  0
   22.3138  -19.2169  -17.9217 C   0  0  0  0  0  0  0  0  0  0  0  0
   21.5162  -19.4681  -19.0170 C   0  0  0  0  0  0  0  0  0  0  0  0
   25.8352  -21.1087  -13.7876 N   0  0  0  0  0  0  0  0  0  0  0  0
   26.7328  -20.8204  -12.7180 C   0  0  0  0  0  0  0  0  0  0  0  0
   26.2637  -21.3457  -11.4101 C   0  0  0  0  0  0  0  0  0  0  0  0
   25.4920  -22.3347  -11.4244 O   0  0  0  0  0  0  0  0  0  0  0  0
   28.5319  -18.0687   -5.9956 C   0  0  0  0  0  0  0  0  0  0  0  0
   28.8572  -19.8027   -6.1941 S   0  0  0  0  0  0  0  0  0  0  0  0
   27.9407  -20.6553   -7.4680 C   0  0  0  0  0  0  0  0  0  0  0  0
   26.5784  -20.1674   -7.7674 C   0  0  0  0  0  0  0  0  0  0  0  0
   25.9252  -20.8586   -8.9251 C   0  0  2  0  0  0  0  0  0  0  0  0
   26.6366  -20.7964  -10.1697 N   0  0  0  0  0  0  0  0  0  0  0  0
   24.4902  -20.5850   -9.0536 C   0  0  0  0  0  0  0  0  0  0  0  0
   23.5651  -21.2583   -8.2721 O   0  0  0  0  0  0  0  0  0  0  0  0
   24.0448  -19.7351   -9.8718 O   0  0  0  0  0  0  0  0  0  0  0  0
  1  2  1  0
  2 12  2  0
  2  3  1  0
  3  4  2  0
  4  5  1  0
  5  6  1  0
  6  7  1  0
  7  8  1  1
  7  9  1  0
  9 10  2  0
 11  5  2  0
 12 11  1  0
 13  9  1  0
 13 14  1  0
 15 14  1  0
 15 22  1  0
 16 15  2  0
 17 18  1  0
 18 19  1  0
 20 19  1  0
 21 22  1  0
 21 20  1  1
 23 21  1  0
 24 23  1  0
 25 23  2  0
M  END
$$$$
