YGM.pdb
     RDKit          3D

 25 25  0  0  1  0  0  0  0  0999 V2000
   17.4174  -13.6177  -18.0647 O   0  0  0  0  0  0  0  0  0  0  0  0
   17.6992  -12.8340  -16.9521 C   0  0  0  0  0  0  0  0  0  0  0  0
   18.9475  -12.8568  -16.3476 C   0  0  0  0  0  0  0  0  0  0  0  0
   19.1972  -12.0692  -15.2464 C   0  0  0  0  0  0  0  0  0  0  0  0
   18.2485  -11.2273  -14.6856 C   0  0  0  0  0  0  0  0  0  0  0  0
   18.5540  -10.4003  -13.5126 C   0  0  0  0  0  0  0  0  0  0  0  0
   18.7163   -8.9142  -13.8564 C   0  0  2  0  0  0  0  0  0  0  0  0
   19.9367   -8.7762  -14.5976 N   0  0  0  0  0  0  0  0  0  0  0  0
   18.8402   -8.1895  -12.5713 C   0  0  0  0  0  0  0  0  0  0  0  0
   19.9464   -7.8787  -12.0630 O   0  0  0  0  0  0  0  0  0  0  0  0
   17.0019  -11.2092  -15.2952 C   0  0  0  0  0  0  0  0  0  0  0  0
   16.7541  -11.9985  -16.3974 C   0  0  0  0  0  0  0  0  0  0  0  0
   17.6740   -7.8147  -11.8576 N   0  0  0  0  0  0  0  0  0  0  0  0
   17.6724   -6.9855  -10.6977 C   0  0  0  0  0  0  0  0  0  0  0  0
   16.3113   -6.7636  -10.1458 C   0  0  0  0  0  0  0  0  0  0  0  0
   15.3343   -7.1061  -10.8542 O   0  0  0  0  0  0  0  0  0  0  0  0
   14.2905   -3.6720   -3.8775 C   0  0  0  0  0  0  0  0  0  0  0  0
   13.4526   -5.1399   -4.4209 S   0  0  0  0  0  0  0  0  0  0  0  0
   13.5078   -5.5006   -6.1692 C   0  0  0  0  0  0  0  0  0  0  0  0
   14.8395   -5.6738   -6.7858 C   0  0  0  0  0  0  0  0  0  0  0  0
   14.7978   -5.9396   -8.2597 C   0  0  2  0  0  0  0  0  0  0  0  0
   16.0649   -6.1950   -8.8827 N   0  0  0  0  0  0  0  0  0  0  0  0
   13.9492   -5.0098   -9.0119 C   0  0  0  0  0  0  0  0  0  0  0  0
   12.6265   -5.3177   -9.2870 O   0  0  0  0  0  0  0  0  0  0  0  0
   14.3843   -3.9042   -9.4344 O   0  0  0  0  0  0  0  0  0  0  0  0
  1  2  1  0
  2 12  2  0
  2  3  1  0
  3  4  2  0
  4  5  1  0
  5  6  1  0
  6  7  1  0
  7  8  1  6
  7  9  1  0
  9 10  2  0
 11  5  2  0
 12 11  1  0
 13  9  1  0
 13 14  1  0
 15 14  1  0
 15 22  1  0
 16 15  2  0
 17 18  1  0
 18 19  1  0
 20 19  1  0
 21 22  1  0
 21 20  1  1
 23 21  1  0
 24 23  1  0
 25 23  2  0
M  END
$$$$
