YGM.pdb
     RDKit          3D

 25 25  0  0  1  0  0  0  0  0999 V2000
   17.1218  -21.5754  -11.8679 O   0  0  0  0  0  0  0  0  0  0  0  0
   18.5037  -21.7201  -11.8997 C   0  0  0  0  0  0  0  0  0  0  0  0
   19.1679  -22.0772  -13.0640 C   0  0  0  0  0  0  0  0  0  0  0  0
   20.5379  -22.2129  -13.0648 C   0  0  0  0  0  0  0  0  0  0  0  0
   21.3207  -22.0085  -11.9385 C   0  0  0  0  0  0  0  0  0  0  0  0
   22.7796  -22.1601  -11.9801 C   0  0  0  0  0  0  0  0  0  0  0  0
   23.5017  -20.8712  -12.3930 C   0  0  2  0  0  0  0  0  0  0  0  0
   22.7501  -20.2827  -13.4639 N   0  0  0  0  0  0  0  0  0  0  0  0
   24.8361  -21.2710  -12.8945 C   0  0  0  0  0  0  0  0  0  0  0  0
   25.1669  -21.1902  -14.1039 O   0  0  0  0  0  0  0  0  0  0  0  0
   20.6500  -21.6515  -10.7771 C   0  0  0  0  0  0  0  0  0  0  0  0
   19.2785  -21.5162  -10.7785 C   0  0  0  0  0  0  0  0  0  0  0  0
   25.8078  -21.7721  -11.9918 N   0  0  0  0  0  0  0  0  0  0  0  0
   27.2122  -21.5657  -12.1256 C   0  0  0  0  0  0  0  0  0  0  0  0
   27.7727  -20.6887  -11.0657 C   0  0  0  0  0  0  0  0  0  0  0  0
   27.9647  -19.4823  -11.3514 O   0  0  0  0  0  0  0  0  0  0  0  0
   29.0046  -21.0167   -4.2888 C   0  0  0  0  0  0  0  0  0  0  0  0
   27.9381  -19.9914   -5.2703 S   0  0  0  0  0  0  0  0  0  0  0  0
   28.1708  -20.0458   -7.0402 C   0  0  0  0  0  0  0  0  0  0  0  0
   29.2132  -20.9544   -7.5611 C   0  0  0  0  0  0  0  0  0  0  0  0
   29.3257  -20.9586   -9.0552 C   0  0  2  0  0  0  0  0  0  0  0  0
   28.0955  -21.1373   -9.7719 N   0  0  0  0  0  0  0  0  0  0  0  0
   30.4303  -21.7741   -9.5701 C   0  0  0  0  0  0  0  0  0  0  0  0
   30.2642  -23.1295   -9.8052 O   0  0  0  0  0  0  0  0  0  0  0  0
   31.5639  -21.2803   -9.8172 O   0  0  0  0  0  0  0  0  0  0  0  0
  1  2  1  0
  2 12  2  0
  2  3  1  0
  3  4  2  0
  4  5  1  0
  5  6  1  0
  6  7  1  0
  7  8  1  6
  7  9  1  0
  9 10  2  0
 11  5  2  0
 12 11  1  0
 13  9  1  0
 13 14  1  0
 15 14  1  0
 15 22  1  0
 16 15  2  0
 17 18  1  0
 18 19  1  0
 20 19  1  0
 21 22  1  0
 21 20  1  1
 23 21  1  0
 24 23  1  0
 25 23  2  0
M  END
$$$$
