YGM.pdb
     RDKit          3D

 25 25  0  0  1  0  0  0  0  0999 V2000
   15.6530  -14.5497  -16.8284 O   0  0  0  0  0  0  0  0  0  0  0  0
   16.6690  -13.6035  -16.8904 C   0  0  0  0  0  0  0  0  0  0  0  0
   18.0031  -13.9769  -16.9605 C   0  0  0  0  0  0  0  0  0  0  0  0
   18.9878  -13.0166  -17.0209 C   0  0  0  0  0  0  0  0  0  0  0  0
   18.7210  -11.6557  -17.0160 C   0  0  0  0  0  0  0  0  0  0  0  0
   19.7987  -10.6622  -17.0847 C   0  0  0  0  0  0  0  0  0  0  0  0
   20.6021  -10.5625  -15.7818 C   0  0  2  0  0  0  0  0  0  0  0  0
   19.6799  -10.2337  -14.7333 N   0  0  0  0  0  0  0  0  0  0  0  0
   21.5617   -9.4485  -15.9559 C   0  0  0  0  0  0  0  0  0  0  0  0
   22.4684   -9.4538  -16.8256 O   0  0  0  0  0  0  0  0  0  0  0  0
   17.3843  -11.2890  -16.9458 C   0  0  0  0  0  0  0  0  0  0  0  0
   16.4003  -12.2519  -16.8853 C   0  0  0  0  0  0  0  0  0  0  0  0
   21.4788   -8.3085  -15.1171 N   0  0  0  0  0  0  0  0  0  0  0  0
   22.2966   -7.1485  -15.2531 C   0  0  0  0  0  0  0  0  0  0  0  0
   21.5111   -5.8889  -15.3083 C   0  0  0  0  0  0  0  0  0  0  0  0
   22.1461   -4.8130  -15.4228 O   0  0  0  0  0  0  0  0  0  0  0  0
   17.0487   -0.5289  -18.1946 C   0  0  0  0  0  0  0  0  0  0  0  0
   18.1509   -1.9206  -18.1799 S   0  0  0  0  0  0  0  0  0  0  0  0
   18.3243   -2.7969  -16.6334 C   0  0  0  0  0  0  0  0  0  0  0  0
   19.2013   -3.9861  -16.6205 C   0  0  0  0  0  0  0  0  0  0  0  0
   19.2567   -4.6872  -15.2976 C   0  0  2  0  0  0  0  0  0  0  0  0
   20.1067   -5.8417  -15.2395 N   0  0  0  0  0  0  0  0  0  0  0  0
   17.9458   -4.8899  -14.6722 C   0  0  0  0  0  0  0  0  0  0  0  0
   17.2752   -6.0955  -14.8010 O   0  0  0  0  0  0  0  0  0  0  0  0
   17.3819   -3.9849  -13.9991 O   0  0  0  0  0  0  0  0  0  0  0  0
  1  2  1  0
  2 12  2  0
  2  3  1  0
  3  4  2  0
  4  5  1  0
  5  6  1  0
  6  7  1  0
  7  8  1  1
  7  9  1  0
  9 10  2  0
 11  5  2  0
 12 11  1  0
 13  9  1  0
 13 14  1  0
 15 14  1  0
 15 22  1  0
 16 15  2  0
 17 18  1  0
 18 19  1  0
 20 19  1  0
 21 22  1  0
 21 20  1  6
 23 21  1  0
 24 23  1  0
 25 23  2  0
M  END
$$$$
