YGM.pdb
     RDKit          3D

 25 25  0  0  1  0  0  0  0  0999 V2000
   17.5197  -21.9405  -16.5816 O   0  0  0  0  0  0  0  0  0  0  0  0
   18.6502  -21.5940  -15.8514 C   0  0  0  0  0  0  0  0  0  0  0  0
   19.1293  -20.2923  -15.8323 C   0  0  0  0  0  0  0  0  0  0  0  0
   20.2518  -19.9791  -15.0994 C   0  0  0  0  0  0  0  0  0  0  0  0
   20.9563  -20.9134  -14.3550 C   0  0  0  0  0  0  0  0  0  0  0  0
   22.1475  -20.5398  -13.5838 C   0  0  0  0  0  0  0  0  0  0  0  0
   23.4384  -20.6088  -14.4095 C   0  0  2  0  0  0  0  0  0  0  0  0
   23.5816  -21.9598  -14.8699 N   0  0  0  0  0  0  0  0  0  0  0  0
   24.5521  -20.2855  -13.4889 C   0  0  0  0  0  0  0  0  0  0  0  0
   24.6854  -19.1625  -12.9414 O   0  0  0  0  0  0  0  0  0  0  0  0
   20.4717  -22.2137  -14.3784 C   0  0  0  0  0  0  0  0  0  0  0  0
   19.3479  -22.5250  -15.1128 C   0  0  0  0  0  0  0  0  0  0  0  0
   25.5293  -21.2686  -13.1914 N   0  0  0  0  0  0  0  0  0  0  0  0
   26.6805  -21.0394  -12.3820 C   0  0  0  0  0  0  0  0  0  0  0  0
   26.4913  -21.4650  -10.9715 C   0  0  0  0  0  0  0  0  0  0  0  0
   25.6329  -22.3506  -10.7421 O   0  0  0  0  0  0  0  0  0  0  0  0
   29.8295  -18.4956   -5.6594 C   0  0  0  0  0  0  0  0  0  0  0  0
   28.5591  -19.5369   -4.9858 S   0  0  0  0  0  0  0  0  0  0  0  0
   27.4835  -20.3560   -6.1528 C   0  0  0  0  0  0  0  0  0  0  0  0
   27.7913  -20.1956   -7.5892 C   0  0  0  0  0  0  0  0  0  0  0  0
   26.8871  -20.9736   -8.4958 C   0  0  2  0  0  0  0  0  0  0  0  0
   27.2179  -20.9312   -9.8914 N   0  0  0  0  0  0  0  0  0  0  0  0
   25.4587  -20.7833   -8.2239 C   0  0  0  0  0  0  0  0  0  0  0  0
   24.8034  -21.5636   -7.2849 O   0  0  0  0  0  0  0  0  0  0  0  0
   24.7763  -19.9112   -8.8271 O   0  0  0  0  0  0  0  0  0  0  0  0
  1  2  1  0
  2 12  2  0
  2  3  1  0
  3  4  2  0
  4  5  1  0
  5  6  1  0
  6  7  1  0
  7  8  1  1
  7  9  1  0
  9 10  2  0
 11  5  2  0
 12 11  1  0
 13  9  1  0
 13 14  1  0
 15 14  1  0
 15 22  1  0
 16 15  2  0
 17 18  1  0
 18 19  1  0
 20 19  1  0
 21 22  1  0
 21 20  1  1
 23 21  1  0
 24 23  1  0
 25 23  2  0
M  END
$$$$
