YGM.pdb
     RDKit          3D

 25 25  0  0  1  0  0  0  0  0999 V2000
   18.2502  -20.3605  -15.5180 O   0  0  0  0  0  0  0  0  0  0  0  0
   19.4946  -20.2560  -14.9082 C   0  0  0  0  0  0  0  0  0  0  0  0
   20.4230  -19.3088  -15.3147 C   0  0  0  0  0  0  0  0  0  0  0  0
   21.6480  -19.2291  -14.6914 C   0  0  0  0  0  0  0  0  0  0  0  0
   22.0241  -20.0632  -13.6493 C   0  0  0  0  0  0  0  0  0  0  0  0
   23.3387  -19.9451  -13.0080 C   0  0  0  0  0  0  0  0  0  0  0  0
   24.4932  -20.3422  -13.9367 C   0  0  2  0  0  0  0  0  0  0  0  0
   24.2964  -21.7151  -14.3028 N   0  0  0  0  0  0  0  0  0  0  0  0
   25.7388  -20.2209  -13.1456 C   0  0  0  0  0  0  0  0  0  0  0  0
   26.0978  -19.1522  -12.5910 O   0  0  0  0  0  0  0  0  0  0  0  0
   21.0907  -21.0084  -13.2475 C   0  0  0  0  0  0  0  0  0  0  0  0
   19.8651  -21.0865  -13.8728 C   0  0  0  0  0  0  0  0  0  0  0  0
   26.5868  -21.3461  -12.9883 N   0  0  0  0  0  0  0  0  0  0  0  0
   27.8589  -21.3111  -12.3452 C   0  0  0  0  0  0  0  0  0  0  0  0
   27.7590  -21.2967  -10.8633 C   0  0  0  0  0  0  0  0  0  0  0  0
   28.7713  -21.6451  -10.2094 O   0  0  0  0  0  0  0  0  0  0  0  0
   29.1309  -19.9441   -4.1417 C   0  0  0  0  0  0  0  0  0  0  0  0
   28.4257  -19.1262   -5.5509 S   0  0  0  0  0  0  0  0  0  0  0  0
   27.2623  -20.0634   -6.5297 C   0  0  0  0  0  0  0  0  0  0  0  0
   27.4051  -20.0013   -7.9991 C   0  0  0  0  0  0  0  0  0  0  0  0
   26.4093  -20.8377   -8.7432 C   0  0  2  0  0  0  0  0  0  0  0  0
   26.5993  -20.9165  -10.1632 N   0  0  0  0  0  0  0  0  0  0  0  0
   25.0166  -20.6033   -8.3483 C   0  0  0  0  0  0  0  0  0  0  0  0
   24.5526  -21.0040   -7.1056 O   0  0  0  0  0  0  0  0  0  0  0  0
   24.1936  -20.0337   -9.1153 O   0  0  0  0  0  0  0  0  0  0  0  0
  1  2  1  0
  2 12  2  0
  2  3  1  0
  3  4  2  0
  4  5  1  0
  5  6  1  0
  6  7  1  0
  7  8  1  1
  7  9  1  0
  9 10  2  0
 11  5  2  0
 12 11  1  0
 13  9  1  0
 13 14  1  0
 15 14  1  0
 15 22  1  0
 16 15  2  0
 17 18  1  0
 18 19  1  0
 20 19  1  0
 21 22  1  0
 21 20  1  6
 23 21  1  0
 24 23  1  0
 25 23  2  0
M  END
$$$$
