YGM.pdb
     RDKit          3D

 25 25  0  0  1  0  0  0  0  0999 V2000
   32.9140  -24.7379  -17.8108 O   0  0  0  0  0  0  0  0  0  0  0  0
   32.1031  -23.8817  -17.0753 C   0  0  0  0  0  0  0  0  0  0  0  0
   31.6713  -24.2115  -15.7990 C   0  0  0  0  0  0  0  0  0  0  0  0
   30.8684  -23.3428  -15.0945 C   0  0  0  0  0  0  0  0  0  0  0  0
   30.4510  -22.1195  -15.5970 C   0  0  0  0  0  0  0  0  0  0  0  0
   29.5972  -21.2192  -14.8136 C   0  0  0  0  0  0  0  0  0  0  0  0
   28.1079  -21.5725  -14.9134 C   0  0  2  0  0  0  0  0  0  0  0  0
   27.6808  -21.2582  -16.2463 N   0  0  0  0  0  0  0  0  0  0  0  0
   27.3963  -20.6985  -13.9533 C   0  0  0  0  0  0  0  0  0  0  0  0
   27.7229  -19.5040  -13.7408 O   0  0  0  0  0  0  0  0  0  0  0  0
   30.8865  -21.7958  -16.8743 C   0  0  0  0  0  0  0  0  0  0  0  0
   31.6901  -22.6668  -17.5778 C   0  0  0  0  0  0  0  0  0  0  0  0
   26.2904  -21.2045  -13.2247 N   0  0  0  0  0  0  0  0  0  0  0  0
   25.6213  -20.4967  -12.1834 C   0  0  0  0  0  0  0  0  0  0  0  0
   25.9574  -21.0045  -10.8286 C   0  0  0  0  0  0  0  0  0  0  0  0
   26.1310  -22.2400  -10.6979 O   0  0  0  0  0  0  0  0  0  0  0  0
   30.2587  -19.5704   -5.2023 C   0  0  0  0  0  0  0  0  0  0  0  0
   28.6461  -19.0250   -5.7064 S   0  0  0  0  0  0  0  0  0  0  0  0
   27.7743  -20.0557   -6.8758 C   0  0  0  0  0  0  0  0  0  0  0  0
   26.4306  -19.6129   -7.3024 C   0  0  0  0  0  0  0  0  0  0  0  0
   25.7952  -20.4996   -8.3294 C   0  0  2  0  0  0  0  0  0  0  0  0
   26.0896  -20.1793   -9.6968 N   0  0  0  0  0  0  0  0  0  0  0  0
   24.3770  -20.7801   -8.0832 C   0  0  0  0  0  0  0  0  0  0  0  0
   23.9907  -21.7102   -7.1316 O   0  0  0  0  0  0  0  0  0  0  0  0
   23.4614  -20.1925   -8.7208 O   0  0  0  0  0  0  0  0  0  0  0  0
  1  2  1  0
  2 12  2  0
  2  3  1  0
  3  4  2  0
  4  5  1  0
  5  6  1  0
  6  7  1  0
  7  8  1  6
  7  9  1  0
  9 10  2  0
 11  5  2  0
 12 11  1  0
 13  9  1  0
 13 14  1  0
 15 14  1  0
 15 22  1  0
 16 15  2  0
 17 18  1  0
 18 19  1  0
 20 19  1  0
 21 22  1  0
 21 20  1  1
 23 21  1  0
 24 23  1  0
 25 23  2  0
M  END
$$$$
