YGM.pdb
     RDKit          3D

 25 25  0  0  1  0  0  0  0  0999 V2000
   23.9055  -21.0205   -7.1865 O   0  0  0  0  0  0  0  0  0  0  0  0
   24.2166  -20.7184   -8.5068 C   0  0  0  0  0  0  0  0  0  0  0  0
   23.2649  -20.2056   -9.3760 C   0  0  0  0  0  0  0  0  0  0  0  0
   23.6027  -19.9159  -10.6788 C   0  0  0  0  0  0  0  0  0  0  0  0
   24.8757  -20.1108  -11.1932 C   0  0  0  0  0  0  0  0  0  0  0  0
   25.1979  -19.7867  -12.5876 C   0  0  0  0  0  0  0  0  0  0  0  0
   24.3963  -20.6213  -13.5945 C   0  0  2  0  0  0  0  0  0  0  0  0
   24.8244  -21.9838  -13.4596 N   0  0  0  0  0  0  0  0  0  0  0  0
   24.7571  -20.1268  -14.9426 C   0  0  0  0  0  0  0  0  0  0  0  0
   25.8380  -20.4176  -15.5132 O   0  0  0  0  0  0  0  0  0  0  0  0
   25.8231  -20.6240  -10.3184 C   0  0  0  0  0  0  0  0  0  0  0  0
   25.4827  -20.9134   -9.0147 C   0  0  0  0  0  0  0  0  0  0  0  0
   23.8614  -19.2840  -15.6478 N   0  0  0  0  0  0  0  0  0  0  0  0
   24.1085  -18.7575  -16.9496 C   0  0  0  0  0  0  0  0  0  0  0  0
   24.5850  -19.7858  -17.9099 C   0  0  0  0  0  0  0  0  0  0  0  0
   25.8096  -19.8041  -18.1811 O   0  0  0  0  0  0  0  0  0  0  0  0
   26.8920  -25.3419  -17.2513 C   0  0  0  0  0  0  0  0  0  0  0  0
   25.5195  -24.6296  -16.3790 S   0  0  0  0  0  0  0  0  0  0  0  0
   24.4740  -23.5090  -17.2959 C   0  0  0  0  0  0  0  0  0  0  0  0
   25.0675  -22.8297  -18.4664 C   0  0  0  0  0  0  0  0  0  0  0  0
   24.1132  -21.9389  -19.2016 C   0  0  2  0  0  0  0  0  0  0  0  0
   23.7418  -20.7299  -18.5239 N   0  0  0  0  0  0  0  0  0  0  0  0
   22.9800  -22.6457  -19.8070 C   0  0  0  0  0  0  0  0  0  0  0  0
   23.1830  -23.6271  -20.7640 O   0  0  0  0  0  0  0  0  0  0  0  0
   21.7876  -22.3918  -19.4849 O   0  0  0  0  0  0  0  0  0  0  0  0
  1  2  1  0
  2 12  2  0
  2  3  1  0
  3  4  2  0
  4  5  1  0
  5  6  1  0
  6  7  1  0
  7  8  1  6
  7  9  1  0
  9 10  2  0
 11  5  2  0
 12 11  1  0
 13  9  1  0
 13 14  1  0
 15 14  1  0
 15 22  1  0
 16 15  2  0
 17 18  1  0
 18 19  1  0
 20 19  1  0
 21 22  1  0
 21 20  1  1
 23 21  1  0
 24 23  1  0
 25 23  2  0
M  END
$$$$
