YGM.pdb
     RDKit          3D

 25 25  0  0  1  0  0  0  0  0999 V2000
   18.9059  -20.0749  -18.6278 O   0  0  0  0  0  0  0  0  0  0  0  0
   20.0604  -20.0723  -17.8541 C   0  0  0  0  0  0  0  0  0  0  0  0
   20.8466  -21.2076  -17.7224 C   0  0  0  0  0  0  0  0  0  0  0  0
   21.9850  -21.1745  -16.9489 C   0  0  0  0  0  0  0  0  0  0  0  0
   22.4087  -20.0411  -16.2714 C   0  0  0  0  0  0  0  0  0  0  0  0
   23.6304  -20.0447  -15.4587 C   0  0  0  0  0  0  0  0  0  0  0  0
   23.4574  -20.7821  -14.1248 C   0  0  2  0  0  0  0  0  0  0  0  0
   22.2990  -20.2349  -13.4793 N   0  0  0  0  0  0  0  0  0  0  0  0
   24.6577  -20.4816  -13.3117 C   0  0  0  0  0  0  0  0  0  0  0  0
   24.8090  -19.4036  -12.6844 O   0  0  0  0  0  0  0  0  0  0  0  0
   21.6177  -18.9089  -16.4074 C   0  0  0  0  0  0  0  0  0  0  0  0
   20.4785  -18.9441  -17.1821 C   0  0  0  0  0  0  0  0  0  0  0  0
   25.7022  -21.4355  -13.2170 N   0  0  0  0  0  0  0  0  0  0  0  0
   26.8793  -21.2640  -12.4308 C   0  0  0  0  0  0  0  0  0  0  0  0
   26.6366  -21.4455  -10.9766 C   0  0  0  0  0  0  0  0  0  0  0  0
   25.8213  -22.3338  -10.6303 O   0  0  0  0  0  0  0  0  0  0  0  0
   29.0732  -20.8998   -4.3260 C   0  0  0  0  0  0  0  0  0  0  0  0
   28.6927  -19.4156   -5.2229 S   0  0  0  0  0  0  0  0  0  0  0  0
   27.3328  -19.4965   -6.3779 C   0  0  0  0  0  0  0  0  0  0  0  0
   27.6644  -19.5219   -7.8176 C   0  0  0  0  0  0  0  0  0  0  0  0
   26.8857  -20.5320   -8.6038 C   0  0  2  0  0  0  0  0  0  0  0  0
   27.2676  -20.6802   -9.9789 N   0  0  0  0  0  0  0  0  0  0  0  0
   25.4352  -20.4597   -8.4007 C   0  0  0  0  0  0  0  0  0  0  0  0
   24.6351  -19.7088   -9.2469 O   0  0  0  0  0  0  0  0  0  0  0  0
   24.8633  -21.0714   -7.4579 O   0  0  0  0  0  0  0  0  0  0  0  0
  1  2  1  0
  2 12  2  0
  2  3  1  0
  3  4  2  0
  4  5  1  0
  5  6  1  0
  6  7  1  0
  7  8  1  1
  7  9  1  0
  9 10  2  0
 11  5  2  0
 12 11  1  0
 13  9  1  0
 13 14  1  0
 15 14  1  0
 15 22  1  0
 16 15  2  0
 17 18  1  0
 18 19  1  0
 20 19  1  0
 21 22  1  0
 21 20  1  6
 23 21  1  0
 24 23  1  0
 25 23  2  0
M  END
$$$$
