YGM.pdb
     RDKit          3D

 25 25  0  0  1  0  0  0  0  0999 V2000
   19.0510  -18.1497  -17.2801 O   0  0  0  0  0  0  0  0  0  0  0  0
   20.3027  -18.5675  -16.8444 C   0  0  0  0  0  0  0  0  0  0  0  0
   20.7576  -19.8570  -17.0777 C   0  0  0  0  0  0  0  0  0  0  0  0
   22.0027  -20.2421  -16.6339 C   0  0  0  0  0  0  0  0  0  0  0  0
   22.8580  -19.3945  -15.9460 C   0  0  0  0  0  0  0  0  0  0  0  0
   24.1797  -19.8415  -15.4916 C   0  0  0  0  0  0  0  0  0  0  0  0
   24.1051  -20.8301  -14.3210 C   0  0  2  0  0  0  0  0  0  0  0  0
   23.4658  -20.1544  -13.2290 N   0  0  0  0  0  0  0  0  0  0  0  0
   25.5003  -21.1540  -13.9459 C   0  0  0  0  0  0  0  0  0  0  0  0
   26.2308  -21.9229  -14.6195 O   0  0  0  0  0  0  0  0  0  0  0  0
   22.3969  -18.1059  -15.7159 C   0  0  0  0  0  0  0  0  0  0  0  0
   21.1502  -17.7225  -16.1610 C   0  0  0  0  0  0  0  0  0  0  0  0
   26.0667  -20.5851  -12.7774 N   0  0  0  0  0  0  0  0  0  0  0  0
   27.4090  -20.8002  -12.3473 C   0  0  0  0  0  0  0  0  0  0  0  0
   27.5135  -21.0799  -10.8921 C   0  0  0  0  0  0  0  0  0  0  0  0
   28.3304  -21.9591  -10.5268 O   0  0  0  0  0  0  0  0  0  0  0  0
   28.1158  -18.3489   -3.8148 C   0  0  0  0  0  0  0  0  0  0  0  0
   28.7997  -19.2261   -5.1985 S   0  0  0  0  0  0  0  0  0  0  0  0
   27.6510  -20.1116   -6.2408 C   0  0  0  0  0  0  0  0  0  0  0  0
   27.6920  -19.8291   -7.6906 C   0  0  0  0  0  0  0  0  0  0  0  0
   26.7329  -20.6497   -8.4978 C   0  0  2  0  0  0  0  0  0  0  0  0
   26.7513  -20.4161   -9.9135 N   0  0  0  0  0  0  0  0  0  0  0  0
   25.3823  -20.7217   -7.9311 C   0  0  0  0  0  0  0  0  0  0  0  0
   25.1394  -21.4181   -6.7581 O   0  0  0  0  0  0  0  0  0  0  0  0
   24.3978  -20.1588   -8.4825 O   0  0  0  0  0  0  0  0  0  0  0  0
  1  2  1  0
  2 12  2  0
  2  3  1  0
  3  4  2  0
  4  5  1  0
  5  6  1  0
  6  7  1  0
  7  8  1  1
  7  9  1  0
  9 10  2  0
 11  5  2  0
 12 11  1  0
 13  9  1  0
 13 14  1  0
 15 14  1  0
 15 22  1  0
 16 15  2  0
 17 18  1  0
 18 19  1  0
 20 19  1  0
 21 22  1  0
 21 20  1  1
 23 21  1  0
 24 23  1  0
 25 23  2  0
M  END
$$$$
