YGM.pdb
     RDKit          3D

 25 25  0  0  1  0  0  0  0  0999 V2000
   21.1758  -18.6934  -21.2313 O   0  0  0  0  0  0  0  0  0  0  0  0
   21.3236  -18.7552  -19.8508 C   0  0  0  0  0  0  0  0  0  0  0  0
   22.5371  -18.4769  -19.2392 C   0  0  0  0  0  0  0  0  0  0  0  0
   22.6530  -18.5464  -17.8691 C   0  0  0  0  0  0  0  0  0  0  0  0
   21.5989  -18.8882  -17.0353 C   0  0  0  0  0  0  0  0  0  0  0  0
   21.7613  -18.9485  -15.5782 C   0  0  0  0  0  0  0  0  0  0  0  0
   22.7270  -20.0532  -15.1309 C   0  0  2  0  0  0  0  0  0  0  0  0
   22.1675  -21.3067  -15.5476 N   0  0  0  0  0  0  0  0  0  0  0  0
   22.7740  -20.0064  -13.6519 C   0  0  0  0  0  0  0  0  0  0  0  0
   21.9653  -20.6299  -12.9198 O   0  0  0  0  0  0  0  0  0  0  0  0
   20.3877  -19.1654  -17.6537 C   0  0  0  0  0  0  0  0  0  0  0  0
   20.2738  -19.0953  -19.0253 C   0  0  0  0  0  0  0  0  0  0  0  0
   23.7667  -19.2306  -13.0019 N   0  0  0  0  0  0  0  0  0  0  0  0
   23.8949  -19.1099  -11.5870 C   0  0  0  0  0  0  0  0  0  0  0  0
   25.0857  -19.8173  -11.0505 C   0  0  0  0  0  0  0  0  0  0  0  0
   25.3885  -20.9195  -11.5675 O   0  0  0  0  0  0  0  0  0  0  0  0
   28.6963  -19.8173   -3.8634 C   0  0  0  0  0  0  0  0  0  0  0  0
   28.5376  -19.0452   -5.4542 S   0  0  0  0  0  0  0  0  0  0  0  0
   27.6428  -19.9519   -6.7060 C   0  0  0  0  0  0  0  0  0  0  0  0
   27.0600  -19.1765   -7.8207 C   0  0  0  0  0  0  0  0  0  0  0  0
   26.3426  -20.0140   -8.8349 C   0  0  2  0  0  0  0  0  0  0  0  0
   25.8827  -19.3196  -10.0033 N   0  0  0  0  0  0  0  0  0  0  0  0
   25.3466  -20.9253   -8.2622 C   0  0  0  0  0  0  0  0  0  0  0  0
   25.7184  -22.1646   -7.7662 O   0  0  0  0  0  0  0  0  0  0  0  0
   24.1244  -20.6213   -8.1986 O   0  0  0  0  0  0  0  0  0  0  0  0
  1  2  1  0
  2 12  2  0
  2  3  1  0
  3  4  2  0
  4  5  1  0
  5  6  1  0
  6  7  1  0
  7  8  1  1
  7  9  1  0
  9 10  2  0
 11  5  2  0
 12 11  1  0
 13  9  1  0
 13 14  1  0
 15 14  1  0
 15 22  1  0
 16 15  2  0
 17 18  1  0
 18 19  1  0
 20 19  1  0
 21 22  1  0
 21 20  1  1
 23 21  1  0
 24 23  1  0
 25 23  2  0
M  END
$$$$
