CDV.pdb
     RDKit          3D

 22 21  0  0  1  0  0  0  0  0999 V2000
   44.6370  -12.0217   -7.4915 N   0  0  0  0  0  0  0  0  0  0  0  0
   43.6139  -11.3673   -8.2719 C   0  0  1  0  0  0  0  0  0  0  0  0
   42.4153  -12.2450   -8.4944 C   0  0  0  0  0  0  0  0  0  0  0  0
   42.9178  -13.6070   -9.5865 S   0  0  0  0  0  0  0  0  0  0  0  0
   43.1627  -10.1640   -7.5172 C   0  0  0  0  0  0  0  0  0  0  0  0
   43.7717   -9.9282   -6.4252 O   0  0  0  0  0  0  0  0  0  0  0  0
   42.1283   -9.3214   -7.9614 N   0  0  0  0  0  0  0  0  0  0  0  0
   41.9743   -8.0047   -7.3335 C   0  0  1  0  0  0  0  0  0  0  0  0
   43.2641   -7.2495   -7.3730 C   0  0  0  0  0  0  0  0  0  0  0  0
   43.2445   -5.8948   -6.8276 C   0  0  0  0  0  0  0  0  0  0  0  0
   42.6407   -4.9471   -7.3544 O   0  0  0  0  0  0  0  0  0  0  0  0
   40.8892   -7.2649   -8.0399 C   0  0  0  0  0  0  0  0  0  0  0  0
   40.7652   -7.2213   -9.2597 O   0  0  0  0  0  0  0  0  0  0  0  0
   43.9380   -5.6335   -5.6495 O   0  0  0  0  0  0  0  0  0  0  0  0
   36.1709   -5.8880   -7.7270 C   0  0  0  0  0  0  0  0  0  0  0  0
   37.4261   -6.4244   -7.0372 C   0  0  1  0  0  0  0  0  0  0  0  0
   37.2597   -7.8364   -6.5836 C   0  0  0  0  0  0  0  0  0  0  0  0
   38.6558   -6.1782   -7.8467 C   0  0  2  0  0  0  0  0  0  0  0  0
   39.8916   -6.5348   -7.3069 N   0  0  0  0  0  0  0  0  0  0  0  0
   38.6648   -4.7328   -8.1992 C   0  0  0  0  0  0  0  0  0  0  0  0
   39.3057   -3.8788   -7.5381 O   0  0  0  0  0  0  0  0  0  0  0  0
   37.9449   -4.2926   -9.2949 O   0  0  0  0  0  0  0  0  0  0  0  0
  2  1  1  1
  2  3  1  0
  3  4  1  0
  5  2  1  0
  5  7  1  0
  6  5  2  0
  8  7  1  0
  8 12  1  0
  8  9  1  6
 10  9  1  0
 11 10  2  0
 12 19  1  0
 13 12  2  0
 14 10  1  0
 16 15  1  6
 16 17  1  0
 18 20  1  0
 18 16  1  0
 18 19  1  1
 20 22  1  0
 21 20  2  0
M  END
$$$$
