CDV.pdb
     RDKit          3D

 22 21  0  0  1  0  0  0  0  0999 V2000
   17.5866  -14.3644  -18.2671 N   0  0  0  0  0  0  0  0  0  0  0  0
   17.2075  -13.6606  -17.0651 C   0  0  1  0  0  0  0  0  0  0  0  0
   17.5619  -14.4229  -15.8202 C   0  0  0  0  0  0  0  0  0  0  0  0
   16.3748  -15.7870  -15.6459 S   0  0  0  0  0  0  0  0  0  0  0  0
   17.9530  -12.3704  -17.0362 C   0  0  0  0  0  0  0  0  0  0  0  0
   19.1384  -12.3994  -17.4978 O   0  0  0  0  0  0  0  0  0  0  0  0
   17.4045  -11.1769  -16.5346 N   0  0  0  0  0  0  0  0  0  0  0  0
   18.1441   -9.9254  -16.7303 C   0  0  1  0  0  0  0  0  0  0  0  0
   17.2011   -8.7866  -16.9526 C   0  0  0  0  0  0  0  0  0  0  0  0
   17.8025   -7.4727  -17.1647 C   0  0  0  0  0  0  0  0  0  0  0  0
   18.8414   -7.2863  -17.8175 O   0  0  0  0  0  0  0  0  0  0  0  0
   19.0074   -9.6915  -15.5371 C   0  0  0  0  0  0  0  0  0  0  0  0
   18.6899   -9.9828  -14.3884 O   0  0  0  0  0  0  0  0  0  0  0  0
   17.1882   -6.3539  -16.6098 O   0  0  0  0  0  0  0  0  0  0  0  0
   22.3128  -11.1032  -14.4185 C   0  0  0  0  0  0  0  0  0  0  0  0
   22.4791   -9.5912  -14.5772 C   0  0  1  0  0  0  0  0  0  0  0  0
   23.3780   -9.2398  -15.7155 C   0  0  0  0  0  0  0  0  0  0  0  0
   21.1648   -8.8836  -14.5889 C   0  0  2  0  0  0  0  0  0  0  0  0
   20.3062   -9.0901  -15.6686 N   0  0  0  0  0  0  0  0  0  0  0  0
   21.4500   -7.4299  -14.4506 C   0  0  0  0  0  0  0  0  0  0  0  0
   22.0513   -6.9494  -13.4583 O   0  0  0  0  0  0  0  0  0  0  0  0
   21.0447   -6.5569  -15.4438 O   0  0  0  0  0  0  0  0  0  0  0  0
  2  1  1  6
  2  3  1  0
  3  4  1  0
  5  2  1  0
  5  7  1  0
  6  5  2  0
  8  7  1  0
  8 12  1  0
  8  9  1  1
 10  9  1  0
 11 10  2  0
 12 19  1  0
 13 12  2  0
 14 10  1  0
 16 15  1  6
 16 17  1  0
 18 20  1  0
 18 16  1  0
 18 19  1  6
 20 22  1  0
 21 20  2  0
M  END
$$$$
