CDV.pdb
     RDKit          3D

 22 21  0  0  1  0  0  0  0  0999 V2000
   23.3122  -12.4290  -17.9387 N   0  0  0  0  0  0  0  0  0  0  0  0
   23.2537  -11.5538  -16.7922 C   0  0  1  0  0  0  0  0  0  0  0  0
   24.5272  -10.7816  -16.5967 C   0  0  0  0  0  0  0  0  0  0  0  0
   25.7362  -11.8904  -15.8163 S   0  0  0  0  0  0  0  0  0  0  0  0
   22.1568  -10.5714  -17.0224 C   0  0  0  0  0  0  0  0  0  0  0  0
   21.5610  -10.6514  -18.1437 O   0  0  0  0  0  0  0  0  0  0  0  0
   21.7813   -9.6026  -16.0748 N   0  0  0  0  0  0  0  0  0  0  0  0
   20.5607   -8.8240  -16.3100 C   0  0  1  0  0  0  0  0  0  0  0  0
   19.3565   -9.7093  -16.2702 C   0  0  0  0  0  0  0  0  0  0  0  0
   18.0586   -9.0525  -16.4008 C   0  0  0  0  0  0  0  0  0  0  0  0
   17.0732   -9.3249  -15.6971 O   0  0  0  0  0  0  0  0  0  0  0  0
   20.4781   -7.7470  -15.2818 C   0  0  0  0  0  0  0  0  0  0  0  0
   20.5656   -7.9392  -14.0733 O   0  0  0  0  0  0  0  0  0  0  0  0
   17.8997   -8.0617  -17.3651 O   0  0  0  0  0  0  0  0  0  0  0  0
   22.9997   -5.1978  -14.8205 C   0  0  0  0  0  0  0  0  0  0  0  0
   21.6891   -4.4331  -15.0112 C   0  0  1  0  0  0  0  0  0  0  0  0
   21.6645   -3.6682  -16.2924 C   0  0  0  0  0  0  0  0  0  0  0  0
   20.4975   -5.3047  -14.7911 C   0  0  2  0  0  0  0  0  0  0  0  0
   20.2842   -6.3743  -15.6607 N   0  0  0  0  0  0  0  0  0  0  0  0
   19.3023   -4.4186  -14.7891 C   0  0  0  0  0  0  0  0  0  0  0  0
   18.4173   -4.4736  -15.6784 O   0  0  0  0  0  0  0  0  0  0  0  0
   19.1417   -3.4908  -13.7760 O   0  0  0  0  0  0  0  0  0  0  0  0
  2  1  1  6
  2  3  1  0
  3  4  1  0
  5  2  1  0
  5  7  1  0
  6  5  2  0
  8  7  1  0
  8 12  1  0
  8  9  1  1
 10  9  1  0
 11 10  2  0
 12 19  1  0
 13 12  2  0
 14 10  1  0
 16 15  1  6
 16 17  1  0
 18 20  1  0
 18 16  1  0
 18 19  1  6
 20 22  1  0
 21 20  2  0
M  END
$$$$
