CDV.pdb
     RDKit          3D

 22 21  0  0  1  0  0  0  0  0999 V2000
   15.3817  -11.4315  -15.2314 N   0  0  0  0  0  0  0  0  0  0  0  0
   16.5031  -11.7176  -16.0942 C   0  0  1  0  0  0  0  0  0  0  0  0
   16.0756  -12.2765  -17.4213 C   0  0  0  0  0  0  0  0  0  0  0  0
   14.8442  -13.5748  -17.1079 S   0  0  0  0  0  0  0  0  0  0  0  0
   17.2217  -10.4373  -16.3499 C   0  0  0  0  0  0  0  0  0  0  0  0
   18.0502  -10.4445  -17.3156 O   0  0  0  0  0  0  0  0  0  0  0  0
   17.0167   -9.2749  -15.5858 N   0  0  0  0  0  0  0  0  0  0  0  0
   17.7804   -8.0683  -15.9209 C   0  0  1  0  0  0  0  0  0  0  0  0
   16.8802   -6.8760  -15.9806 C   0  0  0  0  0  0  0  0  0  0  0  0
   17.5174   -5.5893  -16.2480 C   0  0  0  0  0  0  0  0  0  0  0  0
   17.3637   -4.5822  -15.5392 O   0  0  0  0  0  0  0  0  0  0  0  0
   18.8553   -7.8876  -14.9031 C   0  0  0  0  0  0  0  0  0  0  0  0
   18.6922   -8.0289  -13.6954 O   0  0  0  0  0  0  0  0  0  0  0  0
   18.3483   -5.4676  -17.3579 O   0  0  0  0  0  0  0  0  0  0  0  0
   23.4393   -8.5023  -13.5782 C   0  0  0  0  0  0  0  0  0  0  0  0
   22.3187   -8.6084  -14.6136 C   0  0  1  0  0  0  0  0  0  0  0  0
   21.7818   -9.9965  -14.7223 C   0  0  0  0  0  0  0  0  0  0  0  0
   21.2763   -7.5582  -14.4171 C   0  0  2  0  0  0  0  0  0  0  0  0
   20.1905   -7.5248  -15.2921 N   0  0  0  0  0  0  0  0  0  0  0  0
   21.9718   -6.2431  -14.4363 C   0  0  0  0  0  0  0  0  0  0  0  0
   21.9116   -5.4597  -15.4159 O   0  0  0  0  0  0  0  0  0  0  0  0
   22.7193   -5.8499  -13.3411 O   0  0  0  0  0  0  0  0  0  0  0  0
  2  1  1  1
  2  3  1  0
  3  4  1  0
  5  2  1  0
  5  7  1  0
  6  5  2  0
  8  7  1  0
  8 12  1  0
  8  9  1  1
 10  9  1  0
 11 10  2  0
 12 19  1  0
 13 12  2  0
 14 10  1  0
 16 15  1  1
 16 17  1  0
 18 20  1  0
 18 16  1  0
 18 19  1  6
 20 22  1  0
 21 20  2  0
M  END
$$$$
