CDV.pdb
     RDKit          3D

 22 21  0  0  1  0  0  0  0  0999 V2000
   17.0876  -11.6230  -15.7021 N   0  0  0  0  0  0  0  0  0  0  0  0
   17.2650  -10.3103  -16.2758 C   0  0  1  0  0  0  0  0  0  0  0  0
   16.2678   -9.3172  -15.7506 C   0  0  0  0  0  0  0  0  0  0  0  0
   14.6658   -9.6715  -16.5306 S   0  0  0  0  0  0  0  0  0  0  0  0
   18.6255   -9.8287  -15.9040 C   0  0  0  0  0  0  0  0  0  0  0  0
   19.0097  -10.0976  -14.7212 O   0  0  0  0  0  0  0  0  0  0  0  0
   19.4569   -9.1172  -16.7870 N   0  0  0  0  0  0  0  0  0  0  0  0
   20.7887   -8.7104  -16.3261 C   0  0  1  0  0  0  0  0  0  0  0  0
   21.8501   -9.3051  -17.1952 C   0  0  0  0  0  0  0  0  0  0  0  0
   23.2330   -8.9979  -16.8400 C   0  0  0  0  0  0  0  0  0  0  0  0
   23.5603   -8.3634  -15.8249 O   0  0  0  0  0  0  0  0  0  0  0  0
   20.8575   -7.2207  -16.3260 C   0  0  0  0  0  0  0  0  0  0  0  0
   20.7359   -6.5247  -17.3289 O   0  0  0  0  0  0  0  0  0  0  0  0
   24.2557   -9.4341  -17.6771 O   0  0  0  0  0  0  0  0  0  0  0  0
   18.7968   -4.5740  -15.9265 C   0  0  0  0  0  0  0  0  0  0  0  0
   19.7940   -4.3899  -14.7816 C   0  0  1  0  0  0  0  0  0  0  0  0
   19.1871   -4.6916  -13.4521 C   0  0  0  0  0  0  0  0  0  0  0  0
   21.0825   -5.0959  -15.0452 C   0  0  2  0  0  0  0  0  0  0  0  0
   21.0783   -6.4894  -15.1087 N   0  0  0  0  0  0  0  0  0  0  0  0
   22.0470   -4.6479  -14.0046 C   0  0  0  0  0  0  0  0  0  0  0  0
   22.5036   -5.4213  -13.1269 O   0  0  0  0  0  0  0  0  0  0  0  0
   22.4695   -3.3311  -13.9868 O   0  0  0  0  0  0  0  0  0  0  0  0
  2  1  1  1
  2  3  1  0
  3  4  1  0
  5  2  1  0
  5  7  1  0
  6  5  2  0
  8  7  1  0
  8 12  1  0
  8  9  1  6
 10  9  1  0
 11 10  2  0
 12 19  1  0
 13 12  2  0
 14 10  1  0
 16 15  1  6
 16 17  1  0
 18 20  1  0
 18 16  1  0
 18 19  1  1
 20 22  1  0
 21 20  2  0
M  END
$$$$
