CDV.pdb
     RDKit          3D

 22 21  0  0  1  0  0  0  0  0999 V2000
   32.7444  -22.6296  -13.2257 N   0  0  0  0  0  0  0  0  0  0  0  0
   31.6349  -22.4680  -12.3164 C   0  0  1  0  0  0  0  0  0  0  0  0
   32.0186  -21.7158  -11.0741 C   0  0  0  0  0  0  0  0  0  0  0  0
   33.1874  -22.7451  -10.1388 S   0  0  0  0  0  0  0  0  0  0  0  0
   30.5803  -21.6816  -13.0168 C   0  0  0  0  0  0  0  0  0  0  0  0
   30.9920  -20.8066  -13.8437 O   0  0  0  0  0  0  0  0  0  0  0  0
   29.2048  -21.8735  -12.7966 N   0  0  0  0  0  0  0  0  0  0  0  0
   28.2500  -21.0625  -13.5594 C   0  0  1  0  0  0  0  0  0  0  0  0
   28.4647  -21.2405  -15.0283 C   0  0  0  0  0  0  0  0  0  0  0  0
   27.4854  -20.6137  -15.9121 C   0  0  0  0  0  0  0  0  0  0  0  0
   27.5186  -19.4176  -16.2416 O   0  0  0  0  0  0  0  0  0  0  0  0
   26.8676  -21.4546  -13.1606 C   0  0  0  0  0  0  0  0  0  0  0  0
   26.4394  -22.6038  -13.1961 O   0  0  0  0  0  0  0  0  0  0  0  0
   26.4479  -21.3877  -16.4236 O   0  0  0  0  0  0  0  0  0  0  0  0
   23.4004  -20.7554   -9.8681 C   0  0  0  0  0  0  0  0  0  0  0  0
   24.6708  -20.2636  -10.5631 C   0  0  1  0  0  0  0  0  0  0  0  0
   25.8864  -20.4601   -9.7200 C   0  0  0  0  0  0  0  0  0  0  0  0
   24.7905  -20.7995  -11.9511 C   0  0  2  0  0  0  0  0  0  0  0  0
   25.9245  -20.4748  -12.6956 N   0  0  0  0  0  0  0  0  0  0  0  0
   23.5712  -20.3746  -12.6903 C   0  0  0  0  0  0  0  0  0  0  0  0
   22.4167  -20.7422  -12.3598 O   0  0  0  0  0  0  0  0  0  0  0  0
   23.6933  -19.5418  -13.7877 O   0  0  0  0  0  0  0  0  0  0  0  0
  2  1  1  6
  2  3  1  0
  3  4  1  0
  5  2  1  0
  5  7  1  0
  6  5  2  0
  8  7  1  0
  8 12  1  0
  8  9  1  6
 10  9  1  0
 11 10  2  0
 12 19  1  0
 13 12  2  0
 14 10  1  0
 16 15  1  1
 16 17  1  0
 18 20  1  0
 18 16  1  0
 18 19  1  6
 20 22  1  0
 21 20  2  0
M  END
$$$$
