CDV.pdb
     RDKit          3D

 22 21  0  0  1  0  0  0  0  0999 V2000
   16.9524  -14.9499  -17.4880 N   0  0  0  0  0  0  0  0  0  0  0  0
   17.7517  -14.3223  -16.4627 C   0  0  1  0  0  0  0  0  0  0  0  0
   19.1604  -14.8431  -16.4371 C   0  0  0  0  0  0  0  0  0  0  0  0
   19.1352  -16.4774  -15.6441 S   0  0  0  0  0  0  0  0  0  0  0  0
   17.8116  -12.8629  -16.7589 C   0  0  0  0  0  0  0  0  0  0  0  0
   17.7181  -12.5372  -17.9853 O   0  0  0  0  0  0  0  0  0  0  0  0
   17.9622  -11.8820  -15.7628 N   0  0  0  0  0  0  0  0  0  0  0  0
   17.9476  -10.4695  -16.1578 C   0  0  1  0  0  0  0  0  0  0  0  0
   16.6364   -9.8402  -15.8111 C   0  0  0  0  0  0  0  0  0  0  0  0
   16.5166   -8.4049  -16.0533 C   0  0  0  0  0  0  0  0  0  0  0  0
   16.0356   -7.6047  -15.2357 O   0  0  0  0  0  0  0  0  0  0  0  0
   19.0801   -9.7745  -15.4808 C   0  0  0  0  0  0  0  0  0  0  0  0
   19.3686   -9.9179  -14.2970 O   0  0  0  0  0  0  0  0  0  0  0  0
   16.9624   -7.8874  -17.2659 O   0  0  0  0  0  0  0  0  0  0  0  0
   22.8901   -9.6085  -16.7933 C   0  0  0  0  0  0  0  0  0  0  0  0
   22.3078   -8.2244  -16.5032 C   0  0  1  0  0  0  0  0  0  0  0  0
   22.1493   -7.4088  -17.7428 C   0  0  0  0  0  0  0  0  0  0  0  0
   21.0816   -8.3015  -15.6555 C   0  0  2  0  0  0  0  0  0  0  0  0
   19.9282   -8.8650  -16.2013 N   0  0  0  0  0  0  0  0  0  0  0  0
   20.7871   -6.9206  -15.1864 C   0  0  0  0  0  0  0  0  0  0  0  0
   21.5858   -6.2627  -14.4748 O   0  0  0  0  0  0  0  0  0  0  0  0
   19.5916   -6.3205  -15.5375 O   0  0  0  0  0  0  0  0  0  0  0  0
  2  1  1  6
  2  3  1  0
  3  4  1  0
  5  2  1  0
  5  7  1  0
  6  5  2  0
  8  7  1  0
  8 12  1  0
  8  9  1  1
 10  9  1  0
 11 10  2  0
 12 19  1  0
 13 12  2  0
 14 10  1  0
 16 15  1  6
 16 17  1  0
 18 20  1  0
 18 16  1  0
 18 19  1  6
 20 22  1  0
 21 20  2  0
M  END
$$$$
