CDV.pdb
     RDKit          3D

 22 21  0  0  1  0  0  0  0  0999 V2000
   16.2137  -14.2306  -16.6727 N   0  0  0  0  0  0  0  0  0  0  0  0
   16.5657  -13.6215  -15.4122 C   0  0  1  0  0  0  0  0  0  0  0  0
   17.4786  -14.4887  -14.5931 C   0  0  0  0  0  0  0  0  0  0  0  0
   16.4840  -15.8377  -13.8920 S   0  0  0  0  0  0  0  0  0  0  0  0
   17.2868  -12.3503  -15.7041 C   0  0  0  0  0  0  0  0  0  0  0  0
   18.2208  -12.4226  -16.5650 O   0  0  0  0  0  0  0  0  0  0  0  0
   16.9752  -11.1292  -15.0803 N   0  0  0  0  0  0  0  0  0  0  0  0
   17.5911   -9.9002  -15.5919 C   0  0  1  0  0  0  0  0  0  0  0  0
   16.5949   -8.7856  -15.6206 C   0  0  0  0  0  0  0  0  0  0  0  0
   15.5083   -8.9056  -16.5890 C   0  0  0  0  0  0  0  0  0  0  0  0
   15.6390   -9.4139  -17.7137 O   0  0  0  0  0  0  0  0  0  0  0  0
   18.7616   -9.5612  -14.7323 C   0  0  0  0  0  0  0  0  0  0  0  0
   18.7697   -9.6569  -13.5092 O   0  0  0  0  0  0  0  0  0  0  0  0
   14.2466   -8.4276  -16.2477 O   0  0  0  0  0  0  0  0  0  0  0  0
   22.2739  -10.9707  -14.3900 C   0  0  0  0  0  0  0  0  0  0  0  0
   22.3836   -9.4995  -14.7929 C   0  0  1  0  0  0  0  0  0  0  0  0
   22.9382   -9.3319  -16.1681 C   0  0  0  0  0  0  0  0  0  0  0  0
   21.1121   -8.7573  -14.5466 C   0  0  2  0  0  0  0  0  0  0  0  0
   19.9902   -9.0864  -15.3073 N   0  0  0  0  0  0  0  0  0  0  0  0
   21.4138   -7.3090  -14.7052 C   0  0  0  0  0  0  0  0  0  0  0  0
   22.1864   -6.6899  -13.9326 O   0  0  0  0  0  0  0  0  0  0  0  0
   20.8299   -6.5989  -15.7385 O   0  0  0  0  0  0  0  0  0  0  0  0
  2  1  1  6
  2  3  1  0
  3  4  1  0
  5  2  1  0
  5  7  1  0
  6  5  2  0
  8  7  1  0
  8 12  1  0
  8  9  1  1
 10  9  1  0
 11 10  2  0
 12 19  1  0
 13 12  2  0
 14 10  1  0
 16 15  1  6
 16 17  1  0
 18 20  1  0
 18 16  1  0
 18 19  1  6
 20 22  1  0
 21 20  2  0
M  END
$$$$
