CDV.pdb
     RDKit          3D

 22 21  0  0  1  0  0  0  0  0999 V2000
   18.9519  -16.4714  -16.2085 N   0  0  0  0  0  0  0  0  0  0  0  0
   18.2078  -15.4489  -16.9047 C   0  0  1  0  0  0  0  0  0  0  0  0
   16.7634  -15.4129  -16.4937 C   0  0  0  0  0  0  0  0  0  0  0  0
   15.9777  -16.9397  -17.0869 S   0  0  0  0  0  0  0  0  0  0  0  0
   18.8114  -14.1302  -16.5613 C   0  0  0  0  0  0  0  0  0  0  0  0
   19.2082  -13.9929  -15.3603 O   0  0  0  0  0  0  0  0  0  0  0  0
   18.9468  -13.0820  -17.4889 N   0  0  0  0  0  0  0  0  0  0  0  0
   19.6059  -11.8437  -17.0603 C   0  0  1  0  0  0  0  0  0  0  0  0
   20.7114  -11.4840  -18.0006 C   0  0  0  0  0  0  0  0  0  0  0  0
   21.4606  -10.2687  -17.6931 C   0  0  0  0  0  0  0  0  0  0  0  0
   21.9847   -9.5444  -18.5540 O   0  0  0  0  0  0  0  0  0  0  0  0
   18.5825  -10.7616  -16.9851 C   0  0  0  0  0  0  0  0  0  0  0  0
   17.7798  -10.5084  -17.8777 O   0  0  0  0  0  0  0  0  0  0  0  0
   21.6054   -9.8856  -16.3630 O   0  0  0  0  0  0  0  0  0  0  0  0
   15.6593   -7.7087  -14.5542 C   0  0  0  0  0  0  0  0  0  0  0  0
   16.5396   -8.9584  -14.6019 C   0  0  1  0  0  0  0  0  0  0  0  0
   15.7356  -10.2153  -14.5712 C   0  0  0  0  0  0  0  0  0  0  0  0
   17.5403   -8.8941  -15.7076 C   0  0  2  0  0  0  0  0  0  0  0  0
   18.4741   -9.9239  -15.8223 N   0  0  0  0  0  0  0  0  0  0  0  0
   18.2485   -7.5917  -15.5807 C   0  0  0  0  0  0  0  0  0  0  0  0
   19.4643   -7.5091  -15.2772 O   0  0  0  0  0  0  0  0  0  0  0  0
   17.5576   -6.4143  -15.8019 O   0  0  0  0  0  0  0  0  0  0  0  0
  2  1  1  1
  2  3  1  0
  3  4  1  0
  5  2  1  0
  5  7  1  0
  6  5  2  0
  8  7  1  0
  8 12  1  0
  8  9  1  6
 10  9  1  0
 11 10  2  0
 12 19  1  0
 13 12  2  0
 14 10  1  0
 16 15  1  6
 16 17  1  0
 18 20  1  0
 18 16  1  0
 18 19  1  1
 20 22  1  0
 21 20  2  0
M  END
$$$$
