CDV.pdb
     RDKit          3D

 22 21  0  0  1  0  0  0  0  0999 V2000
   15.5071  -13.4810  -12.7593 N   0  0  0  0  0  0  0  0  0  0  0  0
   14.7568  -12.2847  -12.4599 C   0  0  1  0  0  0  0  0  0  0  0  0
   13.6359  -12.5398  -11.4930 C   0  0  0  0  0  0  0  0  0  0  0  0
   12.6816  -13.9578  -12.1087 S   0  0  0  0  0  0  0  0  0  0  0  0
   15.6879  -11.3068  -11.8290 C   0  0  0  0  0  0  0  0  0  0  0  0
   16.8378  -11.7522  -11.5153 O   0  0  0  0  0  0  0  0  0  0  0  0
   15.3433   -9.9660  -11.5830 N   0  0  0  0  0  0  0  0  0  0  0  0
   16.4172   -8.9948  -11.3484 C   0  0  1  0  0  0  0  0  0  0  0  0
   17.3487   -8.9486  -12.5170 C   0  0  0  0  0  0  0  0  0  0  0  0
   18.4258   -7.9642  -12.4550 C   0  0  0  0  0  0  0  0  0  0  0  0
   18.3951   -6.8698  -13.0394 O   0  0  0  0  0  0  0  0  0  0  0  0
   15.8036   -7.6605  -11.0892 C   0  0  0  0  0  0  0  0  0  0  0  0
   15.0989   -7.0578  -11.8925 O   0  0  0  0  0  0  0  0  0  0  0  0
   19.5597   -8.2538  -11.7018 O   0  0  0  0  0  0  0  0  0  0  0  0
   13.0358   -6.5572   -9.0457 C   0  0  0  0  0  0  0  0  0  0  0  0
   14.2641   -5.8205   -8.5093 C   0  0  1  0  0  0  0  0  0  0  0  0
   14.6675   -6.3079   -7.1577 C   0  0  0  0  0  0  0  0  0  0  0  0
   15.3732   -5.7845   -9.5076 C   0  0  2  0  0  0  0  0  0  0  0  0
   16.0099   -6.9803   -9.8401 N   0  0  0  0  0  0  0  0  0  0  0  0
   16.3782   -4.8072   -9.0092 C   0  0  0  0  0  0  0  0  0  0  0  0
   16.1346   -3.5798   -8.9040 O   0  0  0  0  0  0  0  0  0  0  0  0
   17.6365   -5.2487   -8.6422 O   0  0  0  0  0  0  0  0  0  0  0  0
  2  1  1  1
  2  3  1  0
  3  4  1  0
  5  2  1  0
  5  7  1  0
  6  5  2  0
  8  7  1  0
  8 12  1  0
  8  9  1  6
 10  9  1  0
 11 10  2  0
 12 19  1  0
 13 12  2  0
 14 10  1  0
 16 15  1  6
 16 17  1  0
 18 20  1  0
 18 16  1  0
 18 19  1  1
 20 22  1  0
 21 20  2  0
M  END
$$$$
