CDV.pdb
     RDKit          3D

 22 21  0  0  1  0  0  0  0  0999 V2000
   21.3729  -14.2365  -16.0263 N   0  0  0  0  0  0  0  0  0  0  0  0
   20.7610  -13.2190  -16.8473 C   0  0  1  0  0  0  0  0  0  0  0  0
   19.4905  -13.6931  -17.4935 C   0  0  0  0  0  0  0  0  0  0  0  0
   19.9271  -14.9724  -18.7072 S   0  0  0  0  0  0  0  0  0  0  0  0
   20.4208  -12.0650  -15.9676 C   0  0  0  0  0  0  0  0  0  0  0  0
   19.8363  -12.3493  -14.8738 O   0  0  0  0  0  0  0  0  0  0  0  0
   20.7158  -10.7312  -16.3010 N   0  0  0  0  0  0  0  0  0  0  0  0
   20.3036   -9.6675  -15.3790 C   0  0  1  0  0  0  0  0  0  0  0  0
   21.4770   -8.8281  -14.9865 C   0  0  0  0  0  0  0  0  0  0  0  0
   21.2100   -7.7169  -14.0772 C   0  0  0  0  0  0  0  0  0  0  0  0
   20.2450   -7.6794  -13.2977 O   0  0  0  0  0  0  0  0  0  0  0  0
   19.2462   -8.8491  -16.0393 C   0  0  0  0  0  0  0  0  0  0  0  0
   19.2768   -8.5019  -17.2155 O   0  0  0  0  0  0  0  0  0  0  0  0
   22.0776   -6.6287  -14.0712 O   0  0  0  0  0  0  0  0  0  0  0  0
   15.8246   -9.4296  -17.2163 C   0  0  0  0  0  0  0  0  0  0  0  0
   15.7404   -8.3759  -16.1110 C   0  0  1  0  0  0  0  0  0  0  0  0
   15.1154   -8.9133  -14.8670 C   0  0  0  0  0  0  0  0  0  0  0  0
   17.0472   -7.6872  -15.8961 C   0  0  2  0  0  0  0  0  0  0  0  0
   18.0902   -8.4045  -15.3101 N   0  0  0  0  0  0  0  0  0  0  0  0
   16.7704   -6.4656  -15.0932 C   0  0  0  0  0  0  0  0  0  0  0  0
   16.0595   -5.5222  -15.5194 O   0  0  0  0  0  0  0  0  0  0  0  0
   17.3084   -6.3455  -13.8248 O   0  0  0  0  0  0  0  0  0  0  0  0
  2  1  1  1
  2  3  1  0
  3  4  1  0
  5  2  1  0
  5  7  1  0
  6  5  2  0
  8  7  1  0
  8 12  1  0
  8  9  1  6
 10  9  1  0
 11 10  2  0
 12 19  1  0
 13 12  2  0
 14 10  1  0
 16 15  1  6
 16 17  1  0
 18 20  1  0
 18 16  1  0
 18 19  1  1
 20 22  1  0
 21 20  2  0
M  END
$$$$
