CDV.pdb
     RDKit          3D

 22 21  0  0  1  0  0  0  0  0999 V2000
   16.0738  -14.3068  -16.9273 N   0  0  0  0  0  0  0  0  0  0  0  0
   16.3048  -13.6855  -15.6449 C   0  0  1  0  0  0  0  0  0  0  0  0
   17.2492  -14.4784  -14.7871 C   0  0  0  0  0  0  0  0  0  0  0  0
   16.2821  -15.7515  -13.9244 S   0  0  0  0  0  0  0  0  0  0  0  0
   16.9224  -12.3511  -15.8879 C   0  0  0  0  0  0  0  0  0  0  0  0
   17.7662  -12.2904  -16.8383 O   0  0  0  0  0  0  0  0  0  0  0  0
   16.6104  -11.2099  -15.1279 N   0  0  0  0  0  0  0  0  0  0  0  0
   17.2963   -9.9503  -15.4353 C   0  0  1  0  0  0  0  0  0  0  0  0
   16.4061   -8.7836  -15.1495 C   0  0  0  0  0  0  0  0  0  0  0  0
   16.9706   -7.4578  -15.3873 C   0  0  0  0  0  0  0  0  0  0  0  0
   16.7852   -6.4843  -14.6401 O   0  0  0  0  0  0  0  0  0  0  0  0
   18.5524   -9.8849  -14.6341 C   0  0  0  0  0  0  0  0  0  0  0  0
   18.6444  -10.2460  -13.4652 O   0  0  0  0  0  0  0  0  0  0  0  0
   17.7648   -7.2563  -16.5123 O   0  0  0  0  0  0  0  0  0  0  0  0
   23.3910   -9.9238  -14.1879 C   0  0  0  0  0  0  0  0  0  0  0  0
   22.1586  -10.0429  -15.0857 C   0  0  1  0  0  0  0  0  0  0  0  0
   21.8909  -11.4540  -15.4906 C   0  0  0  0  0  0  0  0  0  0  0  0
   20.9785   -9.3327  -14.5103 C   0  0  2  0  0  0  0  0  0  0  0  0
   19.7697   -9.3773  -15.2051 N   0  0  0  0  0  0  0  0  0  0  0  0
   21.3806   -7.9155  -14.3012 C   0  0  0  0  0  0  0  0  0  0  0  0
   22.2891   -7.5806  -13.5015 O   0  0  0  0  0  0  0  0  0  0  0  0
   20.7401   -6.9128  -15.0062 O   0  0  0  0  0  0  0  0  0  0  0  0
  2  1  1  6
  2  3  1  0
  3  4  1  0
  5  2  1  0
  5  7  1  0
  6  5  2  0
  8  7  1  0
  8 12  1  0
  8  9  1  1
 10  9  1  0
 11 10  2  0
 12 19  1  0
 13 12  2  0
 14 10  1  0
 16 15  1  1
 16 17  1  0
 18 20  1  0
 18 16  1  0
 18 19  1  6
 20 22  1  0
 21 20  2  0
M  END
$$$$
