CDV.pdb
     RDKit          3D

 22 21  0  0  1  0  0  0  0  0999 V2000
   18.3338  -13.9663  -15.9294 N   0  0  0  0  0  0  0  0  0  0  0  0
   18.2552  -12.8726  -16.8683 C   0  0  1  0  0  0  0  0  0  0  0  0
   16.9511  -12.8514  -17.6135 C   0  0  0  0  0  0  0  0  0  0  0  0
   16.9885  -14.1919  -18.8392 S   0  0  0  0  0  0  0  0  0  0  0  0
   18.3600  -11.6007  -16.0987 C   0  0  0  0  0  0  0  0  0  0  0  0
   17.5347  -11.4573  -15.1410 O   0  0  0  0  0  0  0  0  0  0  0  0
   19.3046  -10.6010  -16.3912 N   0  0  0  0  0  0  0  0  0  0  0  0
   19.2721   -9.3543  -15.6190 C   0  0  1  0  0  0  0  0  0  0  0  0
   20.5619   -9.1538  -14.8898 C   0  0  0  0  0  0  0  0  0  0  0  0
   20.6445   -7.9848  -14.0182 C   0  0  0  0  0  0  0  0  0  0  0  0
   19.7022   -7.2011  -13.8234 O   0  0  0  0  0  0  0  0  0  0  0  0
   18.9934   -8.2244  -16.5514 C   0  0  0  0  0  0  0  0  0  0  0  0
   19.2739   -8.2306  -17.7457 O   0  0  0  0  0  0  0  0  0  0  0  0
   21.8417   -7.7192  -13.3602 O   0  0  0  0  0  0  0  0  0  0  0  0
   16.2163   -7.0135  -18.3437 C   0  0  0  0  0  0  0  0  0  0  0  0
   16.5889   -5.8718  -17.3968 C   0  0  1  0  0  0  0  0  0  0  0  0
   15.5927   -5.7028  -16.2986 C   0  0  0  0  0  0  0  0  0  0  0  0
   18.0048   -5.9700  -16.9345 C   0  0  2  0  0  0  0  0  0  0  0  0
   18.3583   -7.0211  -16.0883 N   0  0  0  0  0  0  0  0  0  0  0  0
   18.3440   -4.6740  -16.2871 C   0  0  0  0  0  0  0  0  0  0  0  0
   18.5434   -4.5660  -15.0520 O   0  0  0  0  0  0  0  0  0  0  0  0
   18.4485   -3.5316  -17.0595 O   0  0  0  0  0  0  0  0  0  0  0  0
  2  1  1  1
  2  3  1  0
  3  4  1  0
  5  2  1  0
  5  7  1  0
  6  5  2  0
  8  7  1  0
  8 12  1  0
  8  9  1  6
 10  9  1  0
 11 10  2  0
 12 19  1  0
 13 12  2  0
 14 10  1  0
 16 15  1  1
 16 17  1  0
 18 20  1  0
 18 16  1  0
 18 19  1  1
 20 22  1  0
 21 20  2  0
M  END
$$$$
