CDV.pdb
     RDKit          3D

 22 21  0  0  1  0  0  0  0  0999 V2000
   16.1073  -13.2003  -17.4640 N   0  0  0  0  0  0  0  0  0  0  0  0
   16.6735  -12.6479  -16.2565 C   0  0  1  0  0  0  0  0  0  0  0  0
   17.9576  -13.3226  -15.8663 C   0  0  0  0  0  0  0  0  0  0  0  0
   17.5403  -14.9293  -15.1283 S   0  0  0  0  0  0  0  0  0  0  0  0
   16.9734  -11.2099  -16.5082 C   0  0  0  0  0  0  0  0  0  0  0  0
   17.2825  -10.9044  -17.7041 O   0  0  0  0  0  0  0  0  0  0  0  0
   16.9257  -10.2274  -15.5034 N   0  0  0  0  0  0  0  0  0  0  0  0
   17.1746   -8.8299  -15.8729 C   0  0  1  0  0  0  0  0  0  0  0  0
   15.9124   -8.0324  -15.7937 C   0  0  0  0  0  0  0  0  0  0  0  0
   16.0226   -6.6050  -16.0825 C   0  0  0  0  0  0  0  0  0  0  0  0
   15.4176   -5.7243  -15.4512 O   0  0  0  0  0  0  0  0  0  0  0  0
   18.2239   -8.2783  -14.9681 C   0  0  0  0  0  0  0  0  0  0  0  0
   18.2493   -8.4535  -13.7541 O   0  0  0  0  0  0  0  0  0  0  0  0
   16.8494   -6.1906  -17.1225 O   0  0  0  0  0  0  0  0  0  0  0  0
   22.1110   -7.2914  -16.5154 C   0  0  0  0  0  0  0  0  0  0  0  0
   21.7471   -7.5847  -15.0592 C   0  0  1  0  0  0  0  0  0  0  0  0
   22.8243   -7.1675  -14.1144 C   0  0  0  0  0  0  0  0  0  0  0  0
   20.3889   -7.0734  -14.7096 C   0  0  2  0  0  0  0  0  0  0  0  0
   19.3032   -7.4819  -15.4842 N   0  0  0  0  0  0  0  0  0  0  0  0
   20.4685   -5.5877  -14.7079 C   0  0  0  0  0  0  0  0  0  0  0  0
   19.8719   -4.8769  -15.5540 O   0  0  0  0  0  0  0  0  0  0  0  0
   21.2244   -4.9454  -13.7442 O   0  0  0  0  0  0  0  0  0  0  0  0
  2  1  1  6
  2  3  1  0
  3  4  1  0
  5  2  1  0
  5  7  1  0
  6  5  2  0
  8  7  1  0
  8 12  1  0
  8  9  1  1
 10  9  1  0
 11 10  2  0
 12 19  1  0
 13 12  2  0
 14 10  1  0
 16 15  1  6
 16 17  1  0
 18 20  1  0
 18 16  1  0
 18 19  1  6
 20 22  1  0
 21 20  2  0
M  END
$$$$
