WDV.pdb
     RDKit          3D

 30 31  0  0  1  0  0  0  0  0999 V2000
   27.8548  -21.9015  -13.6369 N   0  0  0  0  0  0  0  0  0  0  0  0
   26.6760  -21.4463  -12.9015 C   0  0  1  0  0  0  0  0  0  0  0  0
   27.0517  -20.2700  -12.0608 C   0  0  0  0  0  0  0  0  0  0  0  0
   28.0634  -20.4828  -11.0278 C   0  0  0  0  0  0  0  0  0  0  0  0
   29.4268  -20.7448  -11.1987 C   0  0  0  0  0  0  0  0  0  0  0  0
   30.0127  -20.8993  -10.0090 N   0  0  0  0  0  0  0  0  0  0  0  0
   29.0876  -20.7487   -9.0551 C   0  0  0  0  0  0  0  0  0  0  0  0
   29.1815  -20.7984   -7.6528 C   0  0  0  0  0  0  0  0  0  0  0  0
   28.0848  -20.5935   -6.8475 C   0  0  0  0  0  0  0  0  0  0  0  0
   26.8768  -20.3356   -7.4565 C   0  0  0  0  0  0  0  0  0  0  0  0
   26.7915  -20.2888   -8.8262 C   0  0  0  0  0  0  0  0  0  0  0  0
   27.8741  -20.4902   -9.6570 C   0  0  0  0  0  0  0  0  0  0  0  0
   25.5238  -21.2540  -13.7954 C   0  0  0  0  0  0  0  0  0  0  0  0
   25.6215  -20.9794  -15.0166 O   0  0  0  0  0  0  0  0  0  0  0  0
   24.1650  -21.3704  -13.3120 N   0  0  0  0  0  0  0  0  0  0  0  0
   23.0336  -21.4072  -14.1854 C   0  0  1  0  0  0  0  0  0  0  0  0
   23.1661  -22.4538  -15.2692 C   0  0  0  0  0  0  0  0  0  0  0  0
   22.0155  -22.4881  -16.1825 C   0  0  0  0  0  0  0  0  0  0  0  0
   21.2989  -21.4526  -16.2771 O   0  0  0  0  0  0  0  0  0  0  0  0
   21.7469  -21.5320  -13.4474 C   0  0  0  0  0  0  0  0  0  0  0  0
   21.4411  -22.5829  -12.8329 O   0  0  0  0  0  0  0  0  0  0  0  0
   21.6604  -23.5712  -16.9457 O   0  0  0  0  0  0  0  0  0  0  0  0
   20.9453  -19.0510  -10.7510 C   0  0  0  0  0  0  0  0  0  0  0  0
   19.6955  -19.1921  -11.6207 C   0  0  1  0  0  0  0  0  0  0  0  0
   19.4351  -17.9523  -12.4169 C   0  0  0  0  0  0  0  0  0  0  0  0
   19.7877  -20.4408  -12.4291 C   0  0  2  0  0  0  0  0  0  0  0  0
   20.8204  -20.4358  -13.4265 N   0  0  0  0  0  0  0  0  0  0  0  0
   18.4579  -20.7298  -13.0622 C   0  0  0  0  0  0  0  0  0  0  0  0
   18.2798  -20.8434  -14.4224 O   0  0  0  0  0  0  0  0  0  0  0  0
   17.4256  -20.8828  -12.3426 O   0  0  0  0  0  0  0  0  0  0  0  0
  2 13  1  0
  2  3  1  0
  2  1  1  6
  3  4  1  0
  4  5  2  0
  4 12  1  0
  5  6  1  0
  6  7  1  0
  7  8  2  0
  9  8  1  0
 10  9  2  0
 11 12  2  0
 11 10  1  0
 12  7  1  0
 13 14  2  0
 15 16  1  0
 15 13  1  0
 16 20  1  0
 17 18  1  0
 16 17  1  6
 18 22  1  0
 19 18  2  0
 20 21  2  0
 24 23  1  6
 24 26  1  0
 25 24  1  0
 26 28  1  0
 27 20  1  0
 26 27  1  6
 28 30  2  0
 28 29  1  0
M  END
$$$$
