WDV.pdb
     RDKit          3D

 30 31  0  0  1  0  0  0  0  0999 V2000
   26.9740  -22.3765  -13.8744 N   0  0  0  0  0  0  0  0  0  0  0  0
   26.0511  -21.4709  -13.1920 C   0  0  1  0  0  0  0  0  0  0  0  0
   26.8132  -20.2888  -12.6884 C   0  0  0  0  0  0  0  0  0  0  0  0
   27.7698  -20.5213  -11.6082 C   0  0  0  0  0  0  0  0  0  0  0  0
   29.1643  -20.5919  -11.6932 C   0  0  0  0  0  0  0  0  0  0  0  0
   29.6813  -20.8399  -10.4875 N   0  0  0  0  0  0  0  0  0  0  0  0
   28.6804  -20.9358   -9.6056 C   0  0  0  0  0  0  0  0  0  0  0  0
   28.6823  -21.1693   -8.2188 C   0  0  0  0  0  0  0  0  0  0  0  0
   27.5151  -21.2115   -7.4916 C   0  0  0  0  0  0  0  0  0  0  0  0
   26.3290  -21.0174   -8.1641 C   0  0  0  0  0  0  0  0  0  0  0  0
   26.3337  -20.7902   -9.5183 C   0  0  0  0  0  0  0  0  0  0  0  0
   27.4883  -20.7428  -10.2715 C   0  0  0  0  0  0  0  0  0  0  0  0
   24.8768  -21.1695  -14.0249 C   0  0  0  0  0  0  0  0  0  0  0  0
   24.8644  -21.2555  -15.2773 O   0  0  0  0  0  0  0  0  0  0  0  0
   23.6251  -20.7409  -13.4391 N   0  0  0  0  0  0  0  0  0  0  0  0
   22.4429  -20.5234  -14.2133 C   0  0  1  0  0  0  0  0  0  0  0  0
   21.2862  -21.3909  -13.7697 C   0  0  0  0  0  0  0  0  0  0  0  0
   20.0693  -21.1827  -14.5666 C   0  0  0  0  0  0  0  0  0  0  0  0
   20.1977  -20.9615  -15.8033 O   0  0  0  0  0  0  0  0  0  0  0  0
   22.0635  -19.0857  -14.2838 C   0  0  0  0  0  0  0  0  0  0  0  0
   21.7264  -18.4441  -13.2590 O   0  0  0  0  0  0  0  0  0  0  0  0
   18.7944  -21.2114  -14.0614 O   0  0  0  0  0  0  0  0  0  0  0  0
   24.0195  -16.1063  -15.8105 C   0  0  0  0  0  0  0  0  0  0  0  0
   22.6151  -16.1568  -16.4132 C   0  0  1  0  0  0  0  0  0  0  0  0
   22.6484  -16.5490  -17.8567 C   0  0  0  0  0  0  0  0  0  0  0  0
   21.7353  -17.0049  -15.5599 C   0  0  2  0  0  0  0  0  0  0  0  0
   22.0770  -18.3993  -15.5445 N   0  0  0  0  0  0  0  0  0  0  0  0
   20.3050  -16.8269  -15.9787 C   0  0  0  0  0  0  0  0  0  0  0  0
   19.5154  -17.8633  -16.4226 O   0  0  0  0  0  0  0  0  0  0  0  0
   19.7628  -15.6820  -15.9356 O   0  0  0  0  0  0  0  0  0  0  0  0
  2 13  1  0
  2  3  1  0
  2  1  1  6
  3  4  1  0
  4  5  2  0
  4 12  1  0
  5  6  1  0
  6  7  1  0
  7  8  2  0
  9  8  1  0
 10  9  2  0
 11 12  2  0
 11 10  1  0
 12  7  1  0
 13 14  2  0
 15 16  1  0
 15 13  1  0
 16 20  1  0
 17 18  1  0
 16 17  1  1
 18 22  1  0
 19 18  2  0
 20 21  2  0
 24 23  1  1
 24 26  1  0
 25 24  1  0
 26 28  1  0
 27 20  1  0
 26 27  1  6
 28 30  2  0
 28 29  1  0
M  END
$$$$
