WDV.pdb
     RDKit          3D

 30 31  0  0  1  0  0  0  0  0999 V2000
   27.5708  -21.3066  -15.2048 N   0  0  0  0  0  0  0  0  0  0  0  0
   26.7309  -21.4382  -14.0153 C   0  0  1  0  0  0  0  0  0  0  0  0
   27.0150  -20.2995  -13.0911 C   0  0  0  0  0  0  0  0  0  0  0  0
   28.4027  -20.1066  -12.6753 C   0  0  0  0  0  0  0  0  0  0  0  0
   29.3527  -19.2374  -13.2220 C   0  0  0  0  0  0  0  0  0  0  0  0
   30.5141  -19.3693  -12.5769 N   0  0  0  0  0  0  0  0  0  0  0  0
   30.3690  -20.2941  -11.6217 C   0  0  0  0  0  0  0  0  0  0  0  0
   31.2709  -20.7909  -10.6639 C   0  0  0  0  0  0  0  0  0  0  0  0
   30.8979  -21.7475   -9.7480 C   0  0  0  0  0  0  0  0  0  0  0  0
   29.6026  -22.2130   -9.7930 C   0  0  0  0  0  0  0  0  0  0  0  0
   28.7267  -21.7242  -10.7308 C   0  0  0  0  0  0  0  0  0  0  0  0
   29.0737  -20.7658  -11.6602 C   0  0  0  0  0  0  0  0  0  0  0  0
   25.3179  -21.6375  -14.3721 C   0  0  0  0  0  0  0  0  0  0  0  0
   24.6729  -20.8765  -15.1345 O   0  0  0  0  0  0  0  0  0  0  0  0
   24.5576  -22.7535  -13.8525 N   0  0  0  0  0  0  0  0  0  0  0  0
   23.1930  -22.9918  -14.2064 C   0  0  1  0  0  0  0  0  0  0  0  0
   22.9133  -24.4471  -14.5083 C   0  0  0  0  0  0  0  0  0  0  0  0
   23.6646  -24.9514  -15.6660 C   0  0  0  0  0  0  0  0  0  0  0  0
   23.5170  -24.3637  -16.7740 O   0  0  0  0  0  0  0  0  0  0  0  0
   22.2392  -22.4390  -13.2061 C   0  0  0  0  0  0  0  0  0  0  0  0
   22.3533  -22.6891  -11.9814 O   0  0  0  0  0  0  0  0  0  0  0  0
   24.5211  -26.0223  -15.6308 O   0  0  0  0  0  0  0  0  0  0  0  0
   21.6100  -18.9842  -12.4480 C   0  0  0  0  0  0  0  0  0  0  0  0
   20.2061  -19.5687  -12.6076 C   0  0  1  0  0  0  0  0  0  0  0  0
   19.4870  -18.9655  -13.7728 C   0  0  0  0  0  0  0  0  0  0  0  0
   20.2840  -21.0570  -12.6292 C   0  0  2  0  0  0  0  0  0  0  0  0
   21.1567  -21.5982  -13.6325 N   0  0  0  0  0  0  0  0  0  0  0  0
   18.9051  -21.6309  -12.7781 C   0  0  0  0  0  0  0  0  0  0  0  0
   17.9631  -21.5982  -11.7750 O   0  0  0  0  0  0  0  0  0  0  0  0
   18.5541  -22.1805  -13.8651 O   0  0  0  0  0  0  0  0  0  0  0  0
  2 13  1  0
  2  3  1  0
  2  1  1  6
  3  4  1  0
  4  5  2  0
  4 12  1  0
  5  6  1  0
  6  7  1  0
  7  8  2  0
  9  8  1  0
 10  9  2  0
 11 12  2  0
 11 10  1  0
 12  7  1  0
 13 14  2  0
 15 16  1  0
 15 13  1  0
 16 20  1  0
 17 18  1  0
 16 17  1  1
 18 22  1  0
 19 18  2  0
 20 21  2  0
 24 23  1  6
 24 26  1  0
 25 24  1  0
 26 28  1  0
 27 20  1  0
 26 27  1  6
 28 30  2  0
 28 29  1  0
M  END
$$$$
