WDV.pdb
     RDKit          3D

 30 31  0  0  1  0  0  0  0  0999 V2000
   22.7575  -20.1817  -18.2318 N   0  0  0  0  0  0  0  0  0  0  0  0
   23.7391  -19.4384  -17.4434 C   0  0  1  0  0  0  0  0  0  0  0  0
   23.1434  -18.1316  -17.0321 C   0  0  0  0  0  0  0  0  0  0  0  0
   23.0099  -17.1042  -18.0630 C   0  0  0  0  0  0  0  0  0  0  0  0
   21.8403  -16.6561  -18.6858 C   0  0  0  0  0  0  0  0  0  0  0  0
   22.1368  -15.7199  -19.5903 N   0  0  0  0  0  0  0  0  0  0  0  0
   23.4608  -15.5302  -19.5897 C   0  0  0  0  0  0  0  0  0  0  0  0
   24.2753  -14.6577  -20.3332 C   0  0  0  0  0  0  0  0  0  0  0  0
   25.6391  -14.6152  -20.1559 C   0  0  0  0  0  0  0  0  0  0  0  0
   26.1943  -15.4597  -19.2203 C   0  0  0  0  0  0  0  0  0  0  0  0
   25.3936  -16.3096  -18.4976 C   0  0  0  0  0  0  0  0  0  0  0  0
   24.0247  -16.3728  -18.6549 C   0  0  0  0  0  0  0  0  0  0  0  0
   24.2927  -20.2611  -16.3571 C   0  0  0  0  0  0  0  0  0  0  0  0
   23.6257  -21.0991  -15.7020 O   0  0  0  0  0  0  0  0  0  0  0  0
   25.6801  -20.1544  -15.9605 N   0  0  0  0  0  0  0  0  0  0  0  0
   26.2276  -20.8810  -14.8575 C   0  0  1  0  0  0  0  0  0  0  0  0
   27.7182  -21.1023  -14.9858 C   0  0  0  0  0  0  0  0  0  0  0  0
   28.0701  -22.0722  -16.0321 C   0  0  0  0  0  0  0  0  0  0  0  0
   27.2511  -22.9998  -16.2842 O   0  0  0  0  0  0  0  0  0  0  0  0
   25.8664  -20.2816  -13.5437 C   0  0  0  0  0  0  0  0  0  0  0  0
   26.0204  -19.0570  -13.3156 O   0  0  0  0  0  0  0  0  0  0  0  0
   29.2321  -22.0434  -16.7603 O   0  0  0  0  0  0  0  0  0  0  0  0
   23.1188  -19.2284  -11.9425 C   0  0  0  0  0  0  0  0  0  0  0  0
   23.6686  -20.2150  -10.9116 C   0  0  1  0  0  0  0  0  0  0  0  0
   22.7962  -21.4239  -10.7854 C   0  0  0  0  0  0  0  0  0  0  0  0
   25.0978  -20.5099  -11.2149 C   0  0  2  0  0  0  0  0  0  0  0  0
   25.3281  -21.1072  -12.5000 N   0  0  0  0  0  0  0  0  0  0  0  0
   25.6742  -21.3741  -10.1315 C   0  0  0  0  0  0  0  0  0  0  0  0
   26.1461  -22.6477  -10.3548 O   0  0  0  0  0  0  0  0  0  0  0  0
   25.7467  -20.9454   -8.9408 O   0  0  0  0  0  0  0  0  0  0  0  0
  2 13  1  0
  2  3  1  0
  2  1  1  1
  3  4  1  0
  4  5  2  0
  4 12  1  0
  5  6  1  0
  6  7  1  0
  7  8  2  0
  9  8  1  0
 10  9  2  0
 11 12  2  0
 11 10  1  0
 12  7  1  0
 13 14  2  0
 15 16  1  0
 15 13  1  0
 16 20  1  0
 17 18  1  0
 16 17  1  6
 18 22  1  0
 19 18  2  0
 20 21  2  0
 24 23  1  6
 24 26  1  0
 25 24  1  0
 26 28  1  0
 27 20  1  0
 26 27  1  6
 28 30  2  0
 28 29  1  0
M  END
$$$$
