WDV.pdb
     RDKit          3D

 30 31  0  0  1  0  0  0  0  0999 V2000
   28.2577  -20.4550  -10.2639 N   0  0  0  0  0  0  0  0  0  0  0  0
   26.9220  -20.9663   -9.9602 C   0  0  1  0  0  0  0  0  0  0  0  0
   26.4044  -20.2791   -8.7389 C   0  0  0  0  0  0  0  0  0  0  0  0
   27.3834  -19.8889   -7.7263 C   0  0  0  0  0  0  0  0  0  0  0  0
   28.4033  -18.9378   -7.8359 C   0  0  0  0  0  0  0  0  0  0  0  0
   29.1002  -18.8853   -6.6983 N   0  0  0  0  0  0  0  0  0  0  0  0
   28.5792  -19.7667   -5.8378 C   0  0  0  0  0  0  0  0  0  0  0  0
   28.9273  -20.0911   -4.5145 C   0  0  0  0  0  0  0  0  0  0  0  0
   28.2313  -21.0351   -3.7950 C   0  0  0  0  0  0  0  0  0  0  0  0
   27.1716  -21.6630   -4.4109 C   0  0  0  0  0  0  0  0  0  0  0  0
   26.8369  -21.3421   -5.7034 C   0  0  0  0  0  0  0  0  0  0  0  0
   27.5169  -20.4003   -6.4474 C   0  0  0  0  0  0  0  0  0  0  0  0
   26.0461  -20.9213  -11.1410 C   0  0  0  0  0  0  0  0  0  0  0  0
   25.9456  -19.9282  -11.9025 O   0  0  0  0  0  0  0  0  0  0  0  0
   25.2192  -22.0494  -11.5116 N   0  0  0  0  0  0  0  0  0  0  0  0
   24.3793  -22.0461  -12.6687 C   0  0  1  0  0  0  0  0  0  0  0  0
   24.1064  -23.4369  -13.1964 C   0  0  0  0  0  0  0  0  0  0  0  0
   25.2276  -23.9928  -13.9665 C   0  0  0  0  0  0  0  0  0  0  0  0
   26.0766  -23.1904  -14.4462 O   0  0  0  0  0  0  0  0  0  0  0  0
   23.1233  -21.2751  -12.4599 C   0  0  0  0  0  0  0  0  0  0  0  0
   22.5616  -21.2254  -11.3385 O   0  0  0  0  0  0  0  0  0  0  0  0
   25.4207  -25.3298  -14.2042 O   0  0  0  0  0  0  0  0  0  0  0  0
   21.1168  -19.1218  -15.6593 C   0  0  0  0  0  0  0  0  0  0  0  0
   21.1276  -18.6427  -14.2072 C   0  0  1  0  0  0  0  0  0  0  0  0
   19.9245  -17.8110  -13.8920 C   0  0  0  0  0  0  0  0  0  0  0  0
   21.3330  -19.8063  -13.2986 C   0  0  2  0  0  0  0  0  0  0  0  0
   22.5247  -20.5650  -13.5545 N   0  0  0  0  0  0  0  0  0  0  0  0
   20.1291  -20.7012  -13.3470 C   0  0  0  0  0  0  0  0  0  0  0  0
   18.9617  -20.4308  -12.6698 O   0  0  0  0  0  0  0  0  0  0  0  0
   20.1501  -21.7665  -14.0337 O   0  0  0  0  0  0  0  0  0  0  0  0
  2 13  1  0
  2  3  1  0
  2  1  1  6
  3  4  1  0
  4  5  2  0
  4 12  1  0
  5  6  1  0
  6  7  1  0
  7  8  2  0
  9  8  1  0
 10  9  2  0
 11 12  2  0
 11 10  1  0
 12  7  1  0
 13 14  2  0
 15 16  1  0
 15 13  1  0
 16 20  1  0
 17 18  1  0
 16 17  1  1
 18 22  1  0
 19 18  2  0
 20 21  2  0
 24 23  1  6
 24 26  1  0
 25 24  1  0
 26 28  1  0
 27 20  1  0
 26 27  1  6
 28 30  2  0
 28 29  1  0
M  END
$$$$
