WDV.pdb
     RDKit          3D

 30 31  0  0  1  0  0  0  0  0999 V2000
   26.5588  -22.4594  -12.6171 N   0  0  0  0  0  0  0  0  0  0  0  0
   25.9740  -21.1360  -12.4063 C   0  0  1  0  0  0  0  0  0  0  0  0
   27.0717  -20.1524  -12.1632 C   0  0  0  0  0  0  0  0  0  0  0  0
   27.9737  -20.4208  -11.0449 C   0  0  0  0  0  0  0  0  0  0  0  0
   29.3013  -20.8587  -11.0954 C   0  0  0  0  0  0  0  0  0  0  0  0
   29.7785  -21.0069   -9.8572 N   0  0  0  0  0  0  0  0  0  0  0  0
   28.8157  -20.6827   -8.9873 C   0  0  0  0  0  0  0  0  0  0  0  0
   28.8046  -20.6530   -7.5814 C   0  0  0  0  0  0  0  0  0  0  0  0
   27.6895  -20.2636   -6.8757 C   0  0  0  0  0  0  0  0  0  0  0  0
   26.5695  -19.8992   -7.5895 C   0  0  0  0  0  0  0  0  0  0  0  0
   26.5865  -19.9306   -8.9622 C   0  0  0  0  0  0  0  0  0  0  0  0
   27.6899  -20.3165   -9.6945 C   0  0  0  0  0  0  0  0  0  0  0  0
   25.0268  -20.7883  -13.4767 C   0  0  0  0  0  0  0  0  0  0  0  0
   25.0669  -21.2738  -14.6338 O   0  0  0  0  0  0  0  0  0  0  0  0
   23.9585  -19.8368  -13.2604 N   0  0  0  0  0  0  0  0  0  0  0  0
   23.1296  -19.3503  -14.3190 C   0  0  1  0  0  0  0  0  0  0  0  0
   21.6848  -19.1885  -13.9025 C   0  0  0  0  0  0  0  0  0  0  0  0
   21.0994  -20.4213  -13.3577 C   0  0  0  0  0  0  0  0  0  0  0  0
   21.4417  -21.5219  -13.8736 O   0  0  0  0  0  0  0  0  0  0  0  0
   23.6696  -18.1113  -14.9430 C   0  0  0  0  0  0  0  0  0  0  0  0
   23.4397  -16.9770  -14.4572 O   0  0  0  0  0  0  0  0  0  0  0  0
   20.2014  -20.4641  -12.3217 O   0  0  0  0  0  0  0  0  0  0  0  0
   27.0214  -17.1595  -15.2314 C   0  0  0  0  0  0  0  0  0  0  0  0
   26.5090  -16.9062  -16.6497 C   0  0  1  0  0  0  0  0  0  0  0  0
   27.1859  -17.7928  -17.6470 C   0  0  0  0  0  0  0  0  0  0  0  0
   25.0204  -16.9798  -16.6637 C   0  0  2  0  0  0  0  0  0  0  0  0
   24.4740  -18.1950  -16.1290 N   0  0  0  0  0  0  0  0  0  0  0  0
   24.5187  -16.7573  -18.0607 C   0  0  0  0  0  0  0  0  0  0  0  0
   24.6503  -15.5599  -18.7267 O   0  0  0  0  0  0  0  0  0  0  0  0
   23.9405  -17.6933  -18.6903 O   0  0  0  0  0  0  0  0  0  0  0  0
  2 13  1  0
  2  3  1  0
  2  1  1  6
  3  4  1  0
  4  5  2  0
  4 12  1  0
  5  6  1  0
  6  7  1  0
  7  8  2  0
  9  8  1  0
 10  9  2  0
 11 12  2  0
 11 10  1  0
 12  7  1  0
 13 14  2  0
 15 16  1  0
 15 13  1  0
 16 20  1  0
 17 18  1  0
 16 17  1  1
 18 22  1  0
 19 18  2  0
 20 21  2  0
 24 23  1  1
 24 26  1  0
 25 24  1  0
 26 28  1  0
 27 20  1  0
 26 27  1  6
 28 30  2  0
 28 29  1  0
M  END
$$$$
