WDV.pdb
     RDKit          3D

 30 31  0  0  1  0  0  0  0  0999 V2000
   27.0853  -22.0560  -10.2369 N   0  0  0  0  0  0  0  0  0  0  0  0
   26.4241  -20.8189   -9.8244 C   0  0  1  0  0  0  0  0  0  0  0  0
   27.4638  -19.7915   -9.5159 C   0  0  0  0  0  0  0  0  0  0  0  0
   28.4818  -20.1465   -8.5292 C   0  0  0  0  0  0  0  0  0  0  0  0
   29.6504  -20.8897   -8.7267 C   0  0  0  0  0  0  0  0  0  0  0  0
   30.3098  -21.0152   -7.5725 N   0  0  0  0  0  0  0  0  0  0  0  0
   29.6214  -20.3818   -6.6167 C   0  0  0  0  0  0  0  0  0  0  0  0
   29.8829  -20.2019   -5.2467 C   0  0  0  0  0  0  0  0  0  0  0  0
   29.0313  -19.4868   -4.4364 C   0  0  0  0  0  0  0  0  0  0  0  0
   27.9015  -18.9445   -5.0074 C   0  0  0  0  0  0  0  0  0  0  0  0
   27.6516  -19.1240   -6.3457 C   0  0  0  0  0  0  0  0  0  0  0  0
   28.4875  -19.8358   -7.1806 C   0  0  0  0  0  0  0  0  0  0  0  0
   25.3884  -20.4142  -10.7873 C   0  0  0  0  0  0  0  0  0  0  0  0
   24.6870  -19.3796  -10.6694 O   0  0  0  0  0  0  0  0  0  0  0  0
   25.1013  -21.2045  -11.9648 N   0  0  0  0  0  0  0  0  0  0  0  0
   24.1286  -20.8170  -12.9384 C   0  0  1  0  0  0  0  0  0  0  0  0
   24.2760  -21.5683  -14.2427 C   0  0  0  0  0  0  0  0  0  0  0  0
   23.3601  -21.0940  -15.2892 C   0  0  0  0  0  0  0  0  0  0  0  0
   22.9012  -19.9214  -15.1925 O   0  0  0  0  0  0  0  0  0  0  0  0
   22.7374  -20.8843  -12.4132 C   0  0  0  0  0  0  0  0  0  0  0  0
   22.3588  -21.8257  -11.6743 O   0  0  0  0  0  0  0  0  0  0  0  0
   22.9640  -21.8375  -16.3716 O   0  0  0  0  0  0  0  0  0  0  0  0
   20.5195  -17.5778  -12.9581 C   0  0  0  0  0  0  0  0  0  0  0  0
   19.7816  -18.5948  -12.0867 C   0  0  1  0  0  0  0  0  0  0  0  0
   18.3284  -18.6682  -12.4355 C   0  0  0  0  0  0  0  0  0  0  0  0
   20.4968  -19.9017  -12.1294 C   0  0  2  0  0  0  0  0  0  0  0  0
   21.7915  -19.8579  -12.7485 N   0  0  0  0  0  0  0  0  0  0  0  0
   19.6336  -20.9259  -12.8066 C   0  0  0  0  0  0  0  0  0  0  0  0
   18.7004  -21.6854  -12.1381 O   0  0  0  0  0  0  0  0  0  0  0  0
   19.7399  -21.1299  -14.0532 O   0  0  0  0  0  0  0  0  0  0  0  0
  2 13  1  0
  2  3  1  0
  2  1  1  6
  3  4  1  0
  4  5  2  0
  4 12  1  0
  5  6  1  0
  6  7  1  0
  7  8  2  0
  9  8  1  0
 10  9  2  0
 11 12  2  0
 11 10  1  0
 12  7  1  0
 13 14  2  0
 15 16  1  0
 15 13  1  0
 16 20  1  0
 17 18  1  0
 16 17  1  6
 18 22  1  0
 19 18  2  0
 20 21  2  0
 24 23  1  6
 24 26  1  0
 25 24  1  0
 26 28  1  0
 27 20  1  0
 26 27  1  6
 28 30  2  0
 28 29  1  0
M  END
$$$$
