WDV.pdb
     RDKit          3D

 30 31  0  0  1  0  0  0  0  0999 V2000
   27.8328  -19.7863  -10.3122 N   0  0  0  0  0  0  0  0  0  0  0  0
   26.7268  -20.7239  -10.1246 C   0  0  1  0  0  0  0  0  0  0  0  0
   26.2267  -20.6115   -8.7214 C   0  0  0  0  0  0  0  0  0  0  0  0
   27.0790  -19.9116   -7.7624 C   0  0  0  0  0  0  0  0  0  0  0  0
   27.5205  -18.5851   -7.8105 C   0  0  0  0  0  0  0  0  0  0  0  0
   28.3008  -18.3272   -6.7582 N   0  0  0  0  0  0  0  0  0  0  0  0
   28.3924  -19.4343   -6.0135 C   0  0  0  0  0  0  0  0  0  0  0  0
   29.0705  -19.6907   -4.8084 C   0  0  0  0  0  0  0  0  0  0  0  0
   29.0133  -20.9208   -4.1948 C   0  0  0  0  0  0  0  0  0  0  0  0
   28.2662  -21.9081   -4.7978 C   0  0  0  0  0  0  0  0  0  0  0  0
   27.6066  -21.6517   -5.9747 C   0  0  0  0  0  0  0  0  0  0  0  0
   27.6467  -20.4286   -6.6110 C   0  0  0  0  0  0  0  0  0  0  0  0
   25.7128  -20.5798  -11.1803 C   0  0  0  0  0  0  0  0  0  0  0  0
   25.2190  -19.4808  -11.5334 O   0  0  0  0  0  0  0  0  0  0  0  0
   25.2029  -21.7270  -11.8998 N   0  0  0  0  0  0  0  0  0  0  0  0
   24.2308  -21.6169  -12.9424 C   0  0  1  0  0  0  0  0  0  0  0  0
   24.3607  -22.7095  -13.9800 C   0  0  0  0  0  0  0  0  0  0  0  0
   25.5791  -22.5919  -14.7930 C   0  0  0  0  0  0  0  0  0  0  0  0
   25.9081  -21.4465  -15.2109 O   0  0  0  0  0  0  0  0  0  0  0  0
   22.8415  -21.5113  -12.4184 C   0  0  0  0  0  0  0  0  0  0  0  0
   22.4375  -22.2365  -11.4769 O   0  0  0  0  0  0  0  0  0  0  0  0
   26.3912  -23.6434  -15.1338 O   0  0  0  0  0  0  0  0  0  0  0  0
   20.9401  -18.1161  -11.6596 C   0  0  0  0  0  0  0  0  0  0  0  0
   20.0423  -19.0731  -12.4446 C   0  0  1  0  0  0  0  0  0  0  0  0
   19.7547  -18.5566  -13.8191 C   0  0  0  0  0  0  0  0  0  0  0  0
   20.6209  -20.4461  -12.4061 C   0  0  2  0  0  0  0  0  0  0  0  0
   21.9271  -20.5639  -12.9902 N   0  0  0  0  0  0  0  0  0  0  0  0
   19.6732  -21.4101  -13.0582 C   0  0  0  0  0  0  0  0  0  0  0  0
   18.4334  -21.7129  -12.5427 O   0  0  0  0  0  0  0  0  0  0  0  0
   19.9945  -21.9934  -14.1368 O   0  0  0  0  0  0  0  0  0  0  0  0
  2 13  1  0
  2  3  1  0
  2  1  1  6
  3  4  1  0
  4  5  2  0
  4 12  1  0
  5  6  1  0
  6  7  1  0
  7  8  2  0
  9  8  1  0
 10  9  2  0
 11 12  2  0
 11 10  1  0
 12  7  1  0
 13 14  2  0
 15 16  1  0
 15 13  1  0
 16 20  1  0
 17 18  1  0
 16 17  1  6
 18 22  1  0
 19 18  2  0
 20 21  2  0
 24 23  1  6
 24 26  1  0
 25 24  1  0
 26 28  1  0
 27 20  1  0
 26 27  1  6
 28 30  2  0
 28 29  1  0
M  END
$$$$
