WDV.pdb
     RDKit          3D

 30 31  0  0  1  0  0  0  0  0999 V2000
   25.5602  -18.7853   -8.8191 N   0  0  0  0  0  0  0  0  0  0  0  0
   26.3688  -19.8429   -9.4236 C   0  0  1  0  0  0  0  0  0  0  0  0
   26.3842  -21.0251   -8.5106 C   0  0  0  0  0  0  0  0  0  0  0  0
   26.6417  -20.7723   -7.0943 C   0  0  0  0  0  0  0  0  0  0  0  0
   25.7205  -20.7508   -6.0419 C   0  0  0  0  0  0  0  0  0  0  0  0
   26.3444  -20.4623   -4.8974 N   0  0  0  0  0  0  0  0  0  0  0  0
   27.6462  -20.2922   -5.1522 C   0  0  0  0  0  0  0  0  0  0  0  0
   28.7281  -19.9929   -4.3050 C   0  0  0  0  0  0  0  0  0  0  0  0
   30.0121  -19.8784   -4.7858 C   0  0  0  0  0  0  0  0  0  0  0  0
   30.2146  -20.0660   -6.1350 C   0  0  0  0  0  0  0  0  0  0  0  0
   29.1540  -20.3577   -6.9572 C   0  0  0  0  0  0  0  0  0  0  0  0
   27.8575  -20.4783   -6.5022 C   0  0  0  0  0  0  0  0  0  0  0  0
   25.9584  -20.1092  -10.8108 C   0  0  0  0  0  0  0  0  0  0  0  0
   24.8801  -19.7073  -11.3128 O   0  0  0  0  0  0  0  0  0  0  0  0
   26.7930  -20.8741  -11.7119 N   0  0  0  0  0  0  0  0  0  0  0  0
   26.6130  -20.8631  -13.1303 C   0  0  1  0  0  0  0  0  0  0  0  0
   27.8577  -21.2822  -13.8803 C   0  0  0  0  0  0  0  0  0  0  0  0
   27.7034  -21.2121  -15.3400 C   0  0  0  0  0  0  0  0  0  0  0  0
   26.6151  -20.7697  -15.8034 O   0  0  0  0  0  0  0  0  0  0  0  0
   25.4180  -21.6398  -13.5599 C   0  0  0  0  0  0  0  0  0  0  0  0
   25.3560  -22.8849  -13.4129 O   0  0  0  0  0  0  0  0  0  0  0  0
   28.6624  -21.5953  -16.2427 O   0  0  0  0  0  0  0  0  0  0  0  0
   21.8265  -21.1381  -12.4769 C   0  0  0  0  0  0  0  0  0  0  0  0
   21.8481  -21.1597  -14.0057 C   0  0  1  0  0  0  0  0  0  0  0  0
   21.5239  -19.8170  -14.5807 C   0  0  0  0  0  0  0  0  0  0  0  0
   23.1354  -21.7431  -14.4789 C   0  0  2  0  0  0  0  0  0  0  0  0
   24.3001  -20.9673  -14.1587 N   0  0  0  0  0  0  0  0  0  0  0  0
   23.0647  -21.9843  -15.9587 C   0  0  0  0  0  0  0  0  0  0  0  0
   22.1837  -22.8701  -16.5364 O   0  0  0  0  0  0  0  0  0  0  0  0
   23.8375  -21.3610  -16.7468 O   0  0  0  0  0  0  0  0  0  0  0  0
  2 13  1  0
  2  3  1  0
  2  1  1  1
  3  4  1  0
  4  5  2  0
  4 12  1  0
  5  6  1  0
  6  7  1  0
  7  8  2  0
  9  8  1  0
 10  9  2  0
 11 12  2  0
 11 10  1  0
 12  7  1  0
 13 14  2  0
 15 16  1  0
 15 13  1  0
 16 20  1  0
 17 18  1  0
 16 17  1  6
 18 22  1  0
 19 18  2  0
 20 21  2  0
 24 23  1  1
 24 26  1  0
 25 24  1  0
 26 28  1  0
 27 20  1  0
 26 27  1  6
 28 30  2  0
 28 29  1  0
M  END
$$$$
