WDV.pdb
     RDKit          3D

 30 31  0  0  1  0  0  0  0  0999 V2000
   25.3234  -19.1271  -14.7081 N   0  0  0  0  0  0  0  0  0  0  0  0
   26.2035  -19.6108  -13.6454 C   0  0  1  0  0  0  0  0  0  0  0  0
   27.5303  -18.9355  -13.7680 C   0  0  0  0  0  0  0  0  0  0  0  0
   28.2421  -19.0861  -15.0356 C   0  0  0  0  0  0  0  0  0  0  0  0
   28.5476  -18.0954  -15.9746 C   0  0  0  0  0  0  0  0  0  0  0  0
   29.1897  -18.6357  -17.0130 N   0  0  0  0  0  0  0  0  0  0  0  0
   29.3218  -19.9489  -16.7966 C   0  0  0  0  0  0  0  0  0  0  0  0
   29.9269  -20.9611  -17.5626 C   0  0  0  0  0  0  0  0  0  0  0  0
   29.9642  -22.2677  -17.1331 C   0  0  0  0  0  0  0  0  0  0  0  0
   29.3864  -22.5639  -15.9186 C   0  0  0  0  0  0  0  0  0  0  0  0
   28.7968  -21.5711  -15.1753 C   0  0  0  0  0  0  0  0  0  0  0  0
   28.7452  -20.2539  -15.5816 C   0  0  0  0  0  0  0  0  0  0  0  0
   25.5572  -19.5204  -12.3271 C   0  0  0  0  0  0  0  0  0  0  0  0
   24.8040  -18.5784  -11.9783 O   0  0  0  0  0  0  0  0  0  0  0  0
   25.7539  -20.5384  -11.3179 N   0  0  0  0  0  0  0  0  0  0  0  0
   25.1889  -20.4483  -10.0076 C   0  0  1  0  0  0  0  0  0  0  0  0
   23.9034  -21.2331   -9.8705 C   0  0  0  0  0  0  0  0  0  0  0  0
   23.2303  -21.0185   -8.5821 C   0  0  0  0  0  0  0  0  0  0  0  0
   23.3532  -19.8912   -8.0263 O   0  0  0  0  0  0  0  0  0  0  0  0
   26.1667  -20.7934   -8.9396 C   0  0  0  0  0  0  0  0  0  0  0  0
   26.5845  -21.9670   -8.7856 O   0  0  0  0  0  0  0  0  0  0  0  0
   22.4726  -21.9605   -7.9340 O   0  0  0  0  0  0  0  0  0  0  0  0
   27.4739  -17.9696   -5.8903 C   0  0  0  0  0  0  0  0  0  0  0  0
   28.3983  -19.0373   -6.4764 C   0  0  1  0  0  0  0  0  0  0  0  0
   29.4482  -19.4560   -5.4960 C   0  0  0  0  0  0  0  0  0  0  0  0
   27.5828  -20.1563   -7.0279 C   0  0  2  0  0  0  0  0  0  0  0  0
   26.6551  -19.7741   -8.0547 N   0  0  0  0  0  0  0  0  0  0  0  0
   26.8608  -20.8512   -5.9104 C   0  0  0  0  0  0  0  0  0  0  0  0
   27.4986  -21.3534   -4.7988 O   0  0  0  0  0  0  0  0  0  0  0  0
   25.6031  -21.0021   -5.9566 O   0  0  0  0  0  0  0  0  0  0  0  0
  2 13  1  0
  2  3  1  0
  2  1  1  6
  3  4  1  0
  4  5  2  0
  4 12  1  0
  5  6  1  0
  6  7  1  0
  7  8  2  0
  9  8  1  0
 10  9  2  0
 11 12  2  0
 11 10  1  0
 12  7  1  0
 13 14  2  0
 15 16  1  0
 15 13  1  0
 16 20  1  0
 17 18  1  0
 16 17  1  6
 18 22  1  0
 19 18  2  0
 20 21  2  0
 24 23  1  1
 24 26  1  0
 25 24  1  0
 26 28  1  0
 27 20  1  0
 26 27  1  6
 28 30  2  0
 28 29  1  0
M  END
$$$$
