ILC.pdb
     RDKit          3D

 23 22  0  0  1  0  0  0  0  0999 V2000
   26.1677  -19.0248  -15.1991 C   0  0  0  0  0  0  0  0  0  0  0  0
   25.3421  -18.2900  -16.2198 C   0  0  0  0  0  0  0  0  0  0  0  0
   25.2194  -16.8298  -15.8801 C   0  0  2  0  0  0  0  0  0  0  0  0
   24.5986  -16.6853  -14.4974 C   0  0  0  0  0  0  0  0  0  0  0  0
   24.4650  -16.0097  -16.8973 C   0  0  2  0  0  0  0  0  0  0  0  0
   25.1846  -16.2526  -18.1793 N   0  0  0  0  0  0  0  0  0  0  0  0
   24.5703  -14.5471  -16.6982 C   0  0  0  0  0  0  0  0  0  0  0  0
   23.8331  -13.9395  -15.8391 O   0  0  0  0  0  0  0  0  0  0  0  0
   29.1810  -11.2794  -16.7547 C   0  0  0  0  0  0  0  0  0  0  0  0
   27.7745  -11.7132  -16.3735 C   0  0  1  0  0  0  0  0  0  0  0  0
   27.1718  -10.7717  -15.3634 C   0  0  0  0  0  0  0  0  0  0  0  0
   26.8902  -11.8182  -17.5970 C   0  0  0  0  0  0  0  0  0  0  0  0
   25.5202  -12.2702  -17.2129 C   0  0  2  0  0  0  0  0  0  0  0  0
   25.4504  -13.7120  -17.3967 N   0  0  0  0  0  0  0  0  0  0  0  0
   24.4547  -11.6531  -18.0332 C   0  0  0  0  0  0  0  0  0  0  0  0
   24.3328  -12.0137  -19.2233 O   0  0  0  0  0  0  0  0  0  0  0  0
   23.5654  -10.6669  -17.5197 N   0  0  0  0  0  0  0  0  0  0  0  0
   22.5115  -10.1171  -18.3482 C   0  0  1  0  0  0  0  0  0  0  0  0
   21.4304  -11.1731  -18.6007 C   0  0  0  0  0  0  0  0  0  0  0  0
   20.0248  -10.3580  -19.3998 S   0  0  0  0  0  0  0  0  0  0  0  0
   21.8904   -8.9585  -17.6336 C   0  0  0  0  0  0  0  0  0  0  0  0
   20.8840   -8.2190  -18.2367 O   0  0  0  0  0  0  0  0  0  0  0  0
   22.2558   -8.6210  -16.4769 O   0  0  0  0  0  0  0  0  0  0  0  0
  2  1  1  0
  2  3  1  0
  3  4  1  1
  5  3  1  0
  5  6  1  6
  7  5  1  0
  8  7  2  0
 10  9  1  6
 11 10  1  0
 12 10  1  0
 13 12  1  6
 13 14  1  0
 14  7  1  0
 15 17  1  0
 15 13  1  0
 16 15  2  0
 18 17  1  0
 18 21  1  0
 18 19  1  1
 20 19  1  0
 21 22  1  0
 23 21  2  0
M  END
$$$$
