ILC.pdb
     RDKit          3D

 23 22  0  0  1  0  0  0  0  0999 V2000
   20.7329  -15.3609  -18.9877 C   0  0  0  0  0  0  0  0  0  0  0  0
   21.1785  -14.0303  -19.5300 C   0  0  0  0  0  0  0  0  0  0  0  0
   21.3748  -13.0250  -18.4284 C   0  0  2  0  0  0  0  0  0  0  0  0
   20.1198  -12.9696  -17.5682 C   0  0  0  0  0  0  0  0  0  0  0  0
   21.7663  -11.6461  -18.8990 C   0  0  2  0  0  0  0  0  0  0  0  0
   23.0350  -11.8556  -19.6518 N   0  0  0  0  0  0  0  0  0  0  0  0
   22.1439  -10.7166  -17.8111 C   0  0  0  0  0  0  0  0  0  0  0  0
   21.3025  -10.3872  -16.8977 O   0  0  0  0  0  0  0  0  0  0  0  0
   27.3178  -10.2787  -16.1688 C   0  0  0  0  0  0  0  0  0  0  0  0
   25.7990  -10.3127  -16.1066 C   0  0  1  0  0  0  0  0  0  0  0  0
   25.3204  -10.6352  -14.7149 C   0  0  0  0  0  0  0  0  0  0  0  0
   25.2083   -9.0032  -16.5823 C   0  0  0  0  0  0  0  0  0  0  0  0
   23.7226   -9.1076  -16.6840 C   0  0  2  0  0  0  0  0  0  0  0  0
   23.4065  -10.1279  -17.6722 N   0  0  0  0  0  0  0  0  0  0  0  0
   23.0802   -7.8447  -17.1099 C   0  0  0  0  0  0  0  0  0  0  0  0
   23.3283   -7.4043  -18.2526 O   0  0  0  0  0  0  0  0  0  0  0  0
   22.1927   -7.1142  -16.2698 N   0  0  0  0  0  0  0  0  0  0  0  0
   21.5555   -5.9018  -16.7427 C   0  0  1  0  0  0  0  0  0  0  0  0
   20.6353   -6.2140  -17.9273 C   0  0  0  0  0  0  0  0  0  0  0  0
   19.4090   -7.4290  -17.3811 S   0  0  0  0  0  0  0  0  0  0  0  0
   20.7303   -5.3266  -15.6350 C   0  0  0  0  0  0  0  0  0  0  0  0
   20.6364   -5.9816  -14.4161 O   0  0  0  0  0  0  0  0  0  0  0  0
   20.1024   -4.2437  -15.7707 O   0  0  0  0  0  0  0  0  0  0  0  0
  2  1  1  0
  2  3  1  0
  3  4  1  6
  5  3  1  0
  5  6  1  6
  7  5  1  0
  8  7  2  0
 10  9  1  1
 11 10  1  0
 12 10  1  0
 13 12  1  6
 13 14  1  0
 14  7  1  0
 15 17  1  0
 15 13  1  0
 16 15  2  0
 18 17  1  0
 18 21  1  0
 18 19  1  6
 20 19  1  0
 21 22  1  0
 23 21  2  0
M  END
$$$$
