ILC.pdb
     RDKit          3D

 23 22  0  0  1  0  0  0  0  0999 V2000
   24.4440  -38.6180  -13.9541 C   0  0  0  0  0  0  0  0  0  0  0  0
   24.2453  -37.1268  -13.9639 C   0  0  0  0  0  0  0  0  0  0  0  0
   24.5726  -36.5193  -12.6274 C   0  0  2  0  0  0  0  0  0  0  0  0
   23.8196  -37.2682  -11.5363 C   0  0  0  0  0  0  0  0  0  0  0  0
   24.3206  -35.0348  -12.5336 C   0  0  2  0  0  0  0  0  0  0  0  0
   25.3636  -34.4241  -13.4051 N   0  0  0  0  0  0  0  0  0  0  0  0
   24.5854  -34.4562  -11.1976 C   0  0  0  0  0  0  0  0  0  0  0  0
   25.7732  -34.1159  -10.8454 O   0  0  0  0  0  0  0  0  0  0  0  0
   22.5874  -30.0800   -9.4313 C   0  0  0  0  0  0  0  0  0  0  0  0
   23.5267  -31.2714   -9.5311 C   0  0  1  0  0  0  0  0  0  0  0  0
   24.9110  -30.9117   -9.0576 C   0  0  0  0  0  0  0  0  0  0  0  0
   22.9881  -32.4520   -8.7526 C   0  0  0  0  0  0  0  0  0  0  0  0
   23.8792  -33.6379   -8.9209 C   0  0  2  0  0  0  0  0  0  0  0  0
   23.6069  -34.2285  -10.2226 N   0  0  0  0  0  0  0  0  0  0  0  0
   23.6600  -34.6786   -7.8923 C   0  0  0  0  0  0  0  0  0  0  0  0
   22.6504  -35.4085   -7.9871 O   0  0  0  0  0  0  0  0  0  0  0  0
   24.5532  -34.8795   -6.8019 N   0  0  0  0  0  0  0  0  0  0  0  0
   24.2883  -35.8981   -5.8060 C   0  0  1  0  0  0  0  0  0  0  0  0
   25.5895  -36.3098   -5.1098 C   0  0  0  0  0  0  0  0  0  0  0  0
   26.4891  -37.4265   -6.2154 S   0  0  0  0  0  0  0  0  0  0  0  0
   23.3535  -35.3388   -4.7803 C   0  0  0  0  0  0  0  0  0  0  0  0
   22.9049  -34.0301   -4.8783 O   0  0  0  0  0  0  0  0  0  0  0  0
   22.9486  -36.0281   -3.8076 O   0  0  0  0  0  0  0  0  0  0  0  0
  2  1  1  0
  2  3  1  0
  3  4  1  1
  5  3  1  0
  5  6  1  6
  7  5  1  0
  8  7  2  0
 10  9  1  1
 11 10  1  0
 12 10  1  0
 13 12  1  1
 13 14  1  0
 14  7  1  0
 15 17  1  0
 15 13  1  0
 16 15  2  0
 18 17  1  0
 18 21  1  0
 18 19  1  1
 20 19  1  0
 21 22  1  0
 23 21  2  0
M  END
$$$$
