ILC.pdb
     RDKit          3D

 23 22  0  0  1  0  0  0  0  0999 V2000
   21.7858  -27.6705  -17.9751 C   0  0  0  0  0  0  0  0  0  0  0  0
   21.7833  -26.1661  -17.9785 C   0  0  0  0  0  0  0  0  0  0  0  0
   22.1252  -25.6123  -16.6225 C   0  0  2  0  0  0  0  0  0  0  0  0
   21.1867  -26.2103  -15.5834 C   0  0  0  0  0  0  0  0  0  0  0  0
   22.1279  -24.1057  -16.5419 C   0  0  2  0  0  0  0  0  0  0  0  0
   23.2454  -23.6869  -17.4340 N   0  0  0  0  0  0  0  0  0  0  0  0
   22.5064  -23.5683  -15.2161 C   0  0  0  0  0  0  0  0  0  0  0  0
   21.7232  -23.6852  -14.2043 O   0  0  0  0  0  0  0  0  0  0  0  0
   25.7895  -21.9938  -11.1360 C   0  0  0  0  0  0  0  0  0  0  0  0
   25.7878  -21.1365  -12.3916 C   0  0  1  0  0  0  0  0  0  0  0  0
   27.1091  -20.4351  -12.5710 C   0  0  0  0  0  0  0  0  0  0  0  0
   25.4557  -21.9660  -13.6129 C   0  0  0  0  0  0  0  0  0  0  0  0
   23.9844  -22.2051  -13.6966 C   0  0  2  0  0  0  0  0  0  0  0  0
   23.7092  -22.9065  -14.9414 N   0  0  0  0  0  0  0  0  0  0  0  0
   23.1926  -20.9553  -13.6919 C   0  0  0  0  0  0  0  0  0  0  0  0
   23.1980  -20.2489  -12.6613 O   0  0  0  0  0  0  0  0  0  0  0  0
   22.4270  -20.5281  -14.8137 N   0  0  0  0  0  0  0  0  0  0  0  0
   21.6921  -19.2799  -14.7764 C   0  0  1  0  0  0  0  0  0  0  0  0
   21.6817  -18.6291  -16.1635 C   0  0  0  0  0  0  0  0  0  0  0  0
   23.1600  -17.5937  -16.3091 S   0  0  0  0  0  0  0  0  0  0  0  0
   20.2800  -19.5631  -14.3706 C   0  0  0  0  0  0  0  0  0  0  0  0
   19.5780  -18.6561  -13.5909 O   0  0  0  0  0  0  0  0  0  0  0  0
   19.6903  -20.6197  -14.7188 O   0  0  0  0  0  0  0  0  0  0  0  0
  2  1  1  0
  2  3  1  0
  3  4  1  1
  5  3  1  0
  5  6  1  6
  7  5  1  0
  8  7  2  0
 10  9  1  1
 11 10  1  0
 12 10  1  0
 13 12  1  6
 13 14  1  0
 14  7  1  0
 15 17  1  0
 15 13  1  0
 16 15  2  0
 18 17  1  0
 18 21  1  0
 18 19  1  6
 20 19  1  0
 21 22  1  0
 23 21  2  0
M  END
$$$$
