ILC.pdb
     RDKit          3D

 23 22  0  0  1  0  0  0  0  0999 V2000
   20.7075  -16.0950  -16.5434 C   0  0  0  0  0  0  0  0  0  0  0  0
   20.5648  -14.8143  -17.3197 C   0  0  0  0  0  0  0  0  0  0  0  0
   21.1214  -13.6435  -16.5568 C   0  0  2  0  0  0  0  0  0  0  0  0
   20.4844  -13.5947  -15.1749 C   0  0  0  0  0  0  0  0  0  0  0  0
   20.9866  -12.3150  -17.2590 C   0  0  2  0  0  0  0  0  0  0  0  0
   21.7941  -12.4669  -18.5020 N   0  0  0  0  0  0  0  0  0  0  0  0
   21.6275  -11.1849  -16.5505 C   0  0  0  0  0  0  0  0  0  0  0  0
   21.1488  -10.7370  -15.4455 O   0  0  0  0  0  0  0  0  0  0  0  0
   26.9712  -10.6459  -16.2099 C   0  0  0  0  0  0  0  0  0  0  0  0
   25.4764  -10.6088  -15.9342 C   0  0  1  0  0  0  0  0  0  0  0  0
   25.1971  -10.6390  -14.4540 C   0  0  0  0  0  0  0  0  0  0  0  0
   24.8386   -9.3934  -16.5713 C   0  0  0  0  0  0  0  0  0  0  0  0
   23.3687   -9.3787  -16.3105 C   0  0  2  0  0  0  0  0  0  0  0  0
   22.7756  -10.5179  -16.9945 N   0  0  0  0  0  0  0  0  0  0  0  0
   22.7042   -8.1526  -16.8047 C   0  0  0  0  0  0  0  0  0  0  0  0
   22.8223   -7.8548  -18.0124 O   0  0  0  0  0  0  0  0  0  0  0  0
   21.9376   -7.3017  -15.9590 N   0  0  0  0  0  0  0  0  0  0  0  0
   21.2003   -6.1816  -16.5081 C   0  0  1  0  0  0  0  0  0  0  0  0
   20.1712   -6.6746  -17.5306 C   0  0  0  0  0  0  0  0  0  0  0  0
   19.1461   -5.2646  -18.0202 S   0  0  0  0  0  0  0  0  0  0  0  0
   20.4763   -5.4890  -15.3968 C   0  0  0  0  0  0  0  0  0  0  0  0
   20.1584   -4.1427  -15.4976 O   0  0  0  0  0  0  0  0  0  0  0  0
   20.1364   -6.0968  -14.3479 O   0  0  0  0  0  0  0  0  0  0  0  0
  2  1  1  0
  2  3  1  0
  3  4  1  1
  5  3  1  0
  5  6  1  6
  7  5  1  0
  8  7  2  0
 10  9  1  1
 11 10  1  0
 12 10  1  0
 13 12  1  6
 13 14  1  0
 14  7  1  0
 15 17  1  0
 15 13  1  0
 16 15  2  0
 18 17  1  0
 18 21  1  0
 18 19  1  6
 20 19  1  0
 21 22  1  0
 23 21  2  0
M  END
$$$$
