ILC.pdb
     RDKit          3D

 23 22  0  0  1  0  0  0  0  0999 V2000
   18.8841  -12.8201  -20.9071 C   0  0  0  0  0  0  0  0  0  0  0  0
   20.1254  -12.0465  -20.5553 C   0  0  0  0  0  0  0  0  0  0  0  0
   19.8521  -11.0241  -19.4865 C   0  0  2  0  0  0  0  0  0  0  0  0
   18.6970  -10.1344  -19.9249 C   0  0  0  0  0  0  0  0  0  0  0  0
   21.0488  -10.1958  -19.0890 C   0  0  2  0  0  0  0  0  0  0  0  0
   22.1167  -11.1958  -18.8064 N   0  0  0  0  0  0  0  0  0  0  0  0
   20.8885   -9.4706  -17.8091 C   0  0  0  0  0  0  0  0  0  0  0  0
   20.0490   -8.5048  -17.6942 O   0  0  0  0  0  0  0  0  0  0  0  0
   20.5053   -9.1389  -12.5151 C   0  0  0  0  0  0  0  0  0  0  0  0
   21.9565   -9.1552  -12.9686 C   0  0  1  0  0  0  0  0  0  0  0  0
   22.8395   -9.8086  -11.9375 C   0  0  0  0  0  0  0  0  0  0  0  0
   22.0977   -9.8484  -14.3064 C   0  0  0  0  0  0  0  0  0  0  0  0
   21.3891   -9.0776  -15.3706 C   0  0  2  0  0  0  0  0  0  0  0  0
   21.6054   -9.7542  -16.6405 N   0  0  0  0  0  0  0  0  0  0  0  0
   21.8793   -7.6880  -15.5040 C   0  0  0  0  0  0  0  0  0  0  0  0
   22.9882   -7.4955  -16.0467 O   0  0  0  0  0  0  0  0  0  0  0  0
   21.1378   -6.5651  -15.0390 N   0  0  0  0  0  0  0  0  0  0  0  0
   21.6438   -5.2189  -15.2163 C   0  0  1  0  0  0  0  0  0  0  0  0
   21.5071   -4.7899  -16.6808 C   0  0  0  0  0  0  0  0  0  0  0  0
   21.9484   -3.0376  -16.7963 S   0  0  0  0  0  0  0  0  0  0  0  0
   20.8397   -4.2853  -14.3675 C   0  0  0  0  0  0  0  0  0  0  0  0
   21.3796   -3.0801  -13.9436 O   0  0  0  0  0  0  0  0  0  0  0  0
   19.6624   -4.5589  -14.0147 O   0  0  0  0  0  0  0  0  0  0  0  0
  2  1  1  0
  2  3  1  0
  3  4  1  6
  5  3  1  0
  5  6  1  1
  7  5  1  0
  8  7  2  0
 10  9  1  1
 11 10  1  0
 12 10  1  0
 13 12  1  1
 13 14  1  0
 14  7  1  0
 15 17  1  0
 15 13  1  0
 16 15  2  0
 18 17  1  0
 18 21  1  0
 18 19  1  6
 20 19  1  0
 21 22  1  0
 23 21  2  0
M  END
$$$$
