ILC.pdb
     RDKit          3D

 23 22  0  0  1  0  0  0  0  0999 V2000
   18.9779  -10.3910  -13.6668 C   0  0  0  0  0  0  0  0  0  0  0  0
   18.0669  -10.6478  -12.4974 C   0  0  0  0  0  0  0  0  0  0  0  0
   17.4067   -9.3813  -12.0258 C   0  0  2  0  0  0  0  0  0  0  0  0
   18.4635   -8.3004  -11.8443 C   0  0  0  0  0  0  0  0  0  0  0  0
   16.5736   -9.5346  -10.7774 C   0  0  2  0  0  0  0  0  0  0  0  0
   15.5808  -10.5918  -11.1196 N   0  0  0  0  0  0  0  0  0  0  0  0
   15.7428   -8.3540  -10.4518 C   0  0  0  0  0  0  0  0  0  0  0  0
   14.8195   -7.9518  -11.2497 O   0  0  0  0  0  0  0  0  0  0  0  0
   12.5976   -7.7961   -6.4595 C   0  0  0  0  0  0  0  0  0  0  0  0
   13.2519   -7.5509   -7.8098 C   0  0  1  0  0  0  0  0  0  0  0  0
   12.2505   -7.0395   -8.8127 C   0  0  0  0  0  0  0  0  0  0  0  0
   14.4144   -6.5906   -7.6816 C   0  0  0  0  0  0  0  0  0  0  0  0
   15.0819   -6.4004   -9.0034 C   0  0  2  0  0  0  0  0  0  0  0  0
   15.8728   -7.5884   -9.2870 N   0  0  0  0  0  0  0  0  0  0  0  0
   15.9877   -5.2309   -9.0327 C   0  0  0  0  0  0  0  0  0  0  0  0
   17.0622   -5.2918   -8.3980 O   0  0  0  0  0  0  0  0  0  0  0  0
   15.6825   -4.0422   -9.7545 N   0  0  0  0  0  0  0  0  0  0  0  0
   16.5741   -2.9008   -9.7120 C   0  0  1  0  0  0  0  0  0  0  0  0
   17.1008   -2.5871  -11.1162 C   0  0  0  0  0  0  0  0  0  0  0  0
   15.7035   -2.6454  -12.2663 S   0  0  0  0  0  0  0  0  0  0  0  0
   15.8146   -1.7134   -9.2100 C   0  0  0  0  0  0  0  0  0  0  0  0
   16.4653   -0.5110   -8.9765 O   0  0  0  0  0  0  0  0  0  0  0  0
   14.5767   -1.7656   -8.9858 O   0  0  0  0  0  0  0  0  0  0  0  0
  2  1  1  0
  2  3  1  0
  3  4  1  1
  5  3  1  0
  5  6  1  6
  7  5  1  0
  8  7  2  0
 10  9  1  1
 11 10  1  0
 12 10  1  0
 13 12  1  1
 13 14  1  0
 14  7  1  0
 15 17  1  0
 15 13  1  0
 16 15  2  0
 18 17  1  0
 18 21  1  0
 18 19  1  6
 20 19  1  0
 21 22  1  0
 23 21  2  0
M  END
$$$$
