ILC.pdb
     RDKit          3D

 23 22  0  0  1  0  0  0  0  0999 V2000
   21.0819  -19.9540  -11.3904 C   0  0  0  0  0  0  0  0  0  0  0  0
   21.3016  -20.8349  -12.5900 C   0  0  0  0  0  0  0  0  0  0  0  0
   21.4799  -20.0229  -13.8436 C   0  0  2  0  0  0  0  0  0  0  0  0
   20.1902  -20.0560  -14.6521 C   0  0  0  0  0  0  0  0  0  0  0  0
   22.6584  -20.4298  -14.6931 C   0  0  2  0  0  0  0  0  0  0  0  0
   22.6642  -21.9187  -14.6335 N   0  0  0  0  0  0  0  0  0  0  0  0
   23.9730  -20.0432  -14.1345 C   0  0  0  0  0  0  0  0  0  0  0  0
   24.3788  -18.8248  -14.1746 O   0  0  0  0  0  0  0  0  0  0  0  0
   25.4883  -21.8929   -9.6501 C   0  0  0  0  0  0  0  0  0  0  0  0
   25.2794  -21.1143  -10.9392 C   0  0  1  0  0  0  0  0  0  0  0  0
   24.9007  -19.6842  -10.6537 C   0  0  0  0  0  0  0  0  0  0  0  0
   26.5132  -21.1737  -11.8134 C   0  0  0  0  0  0  0  0  0  0  0  0
   26.2318  -20.5795  -13.1537 C   0  0  2  0  0  0  0  0  0  0  0  0
   24.8703  -20.9306  -13.5284 N   0  0  0  0  0  0  0  0  0  0  0  0
   27.1393  -21.0773  -14.2109 C   0  0  0  0  0  0  0  0  0  0  0  0
   28.1017  -21.8018  -13.8792 O   0  0  0  0  0  0  0  0  0  0  0  0
   26.9583  -20.7631  -15.5877 N   0  0  0  0  0  0  0  0  0  0  0  0
   28.0029  -21.0384  -16.5534 C   0  0  1  0  0  0  0  0  0  0  0  0
   27.7479  -22.3837  -17.2410 C   0  0  0  0  0  0  0  0  0  0  0  0
   25.9583  -22.5932  -17.4193 S   0  0  0  0  0  0  0  0  0  0  0  0
   27.9958  -19.9616  -17.5922 C   0  0  0  0  0  0  0  0  0  0  0  0
   27.0269  -18.9694  -17.5688 O   0  0  0  0  0  0  0  0  0  0  0  0
   28.8573  -19.9209  -18.5095 O   0  0  0  0  0  0  0  0  0  0  0  0
  2  1  1  0
  2  3  1  0
  3  4  1  6
  5  3  1  0
  5  6  1  1
  7  5  1  0
  8  7  2  0
 10  9  1  1
 11 10  1  0
 12 10  1  0
 13 12  1  1
 13 14  1  0
 14  7  1  0
 15 17  1  0
 15 13  1  0
 16 15  2  0
 18 17  1  0
 18 21  1  0
 18 19  1  6
 20 19  1  0
 21 22  1  0
 23 21  2  0
M  END
$$$$
