ILC.pdb
     RDKit          3D

 23 22  0  0  1  0  0  0  0  0999 V2000
   23.5785  -18.3656  -16.0434 C   0  0  0  0  0  0  0  0  0  0  0  0
   22.3988  -18.5134  -15.1217 C   0  0  0  0  0  0  0  0  0  0  0  0
   22.2677  -19.9247  -14.6179 C   0  0  2  0  0  0  0  0  0  0  0  0
   22.2481  -20.8818  -15.8017 C   0  0  0  0  0  0  0  0  0  0  0  0
   21.0828  -20.1614  -13.7145 C   0  0  2  0  0  0  0  0  0  0  0  0
   20.7573  -18.8146  -13.1663 N   0  0  0  0  0  0  0  0  0  0  0  0
   21.3852  -20.9736  -12.5150 C   0  0  0  0  0  0  0  0  0  0  0  0
   21.5014  -22.2509  -12.5905 O   0  0  0  0  0  0  0  0  0  0  0  0
   25.1354  -19.6537   -9.0308 C   0  0  0  0  0  0  0  0  0  0  0  0
   24.1716  -20.5163   -9.8299 C   0  0  1  0  0  0  0  0  0  0  0  0
   24.7027  -21.9171   -9.9901 C   0  0  0  0  0  0  0  0  0  0  0  0
   22.8023  -20.5369   -9.1859 C   0  0  0  0  0  0  0  0  0  0  0  0
   21.8298  -21.2672  -10.0517 C   0  0  2  0  0  0  0  0  0  0  0  0
   21.5699  -20.4523  -11.2289 N   0  0  0  0  0  0  0  0  0  0  0  0
   20.5367  -21.5261   -9.3809 C   0  0  0  0  0  0  0  0  0  0  0  0
   19.5209  -20.9244   -9.7897 O   0  0  0  0  0  0  0  0  0  0  0  0
   20.4062  -22.4321   -8.2904 N   0  0  0  0  0  0  0  0  0  0  0  0
   19.1231  -23.0234   -7.9687 C   0  0  1  0  0  0  0  0  0  0  0  0
   18.6562  -23.9309   -9.1116 C   0  0  0  0  0  0  0  0  0  0  0  0
   17.1203  -24.7391   -8.5954 S   0  0  0  0  0  0  0  0  0  0  0  0
   19.2697  -23.8508   -6.7307 C   0  0  0  0  0  0  0  0  0  0  0  0
   18.2635  -23.8710   -5.7763 O   0  0  0  0  0  0  0  0  0  0  0  0
   20.2971  -24.5466   -6.5170 O   0  0  0  0  0  0  0  0  0  0  0  0
  2  1  1  0
  2  3  1  0
  3  4  1  6
  5  3  1  0
  5  6  1  1
  7  5  1  0
  8  7  2  0
 10  9  1  1
 11 10  1  0
 12 10  1  0
 13 12  1  1
 13 14  1  0
 14  7  1  0
 15 17  1  0
 15 13  1  0
 16 15  2  0
 18 17  1  0
 18 21  1  0
 18 19  1  6
 20 19  1  0
 21 22  1  0
 23 21  2  0
M  END
$$$$
