ILC.pdb
     RDKit          3D

 23 22  0  0  1  0  0  0  0  0999 V2000
   14.9364   -7.6151  -19.9323 C   0  0  0  0  0  0  0  0  0  0  0  0
   15.7806   -8.8151  -19.6000 C   0  0  0  0  0  0  0  0  0  0  0  0
   16.7060   -8.5348  -18.4477 C   0  0  2  0  0  0  0  0  0  0  0  0
   17.6443   -7.3956  -18.8217 C   0  0  0  0  0  0  0  0  0  0  0  0
   17.4818   -9.7330  -17.9594 C   0  0  2  0  0  0  0  0  0  0  0  0
   16.4426  -10.6561  -17.4224 N   0  0  0  0  0  0  0  0  0  0  0  0
   18.3546   -9.4596  -16.7961 C   0  0  0  0  0  0  0  0  0  0  0  0
   17.8604   -9.2750  -15.6246 O   0  0  0  0  0  0  0  0  0  0  0  0
   21.8809   -9.8274  -13.1948 C   0  0  0  0  0  0  0  0  0  0  0  0
   22.6418   -9.6605  -14.5004 C   0  0  1  0  0  0  0  0  0  0  0  0
   23.8714  -10.5308  -14.5265 C   0  0  0  0  0  0  0  0  0  0  0  0
   21.7523   -9.9606  -15.6874 C   0  0  0  0  0  0  0  0  0  0  0  0
   20.5908   -9.0233  -15.7188 C   0  0  2  0  0  0  0  0  0  0  0  0
   19.7512   -9.3798  -16.8525 N   0  0  0  0  0  0  0  0  0  0  0  0
   20.9919   -7.6077  -15.8747 C   0  0  0  0  0  0  0  0  0  0  0  0
   21.7498   -7.3025  -16.8199 O   0  0  0  0  0  0  0  0  0  0  0  0
   20.5484   -6.5831  -14.9912 N   0  0  0  0  0  0  0  0  0  0  0  0
   20.9199   -5.2006  -15.2152 C   0  0  1  0  0  0  0  0  0  0  0  0
   19.7893   -4.2686  -14.7672 C   0  0  0  0  0  0  0  0  0  0  0  0
   18.3463   -4.5938  -15.8116 S   0  0  0  0  0  0  0  0  0  0  0  0
   22.1416   -4.8923  -14.4082 C   0  0  0  0  0  0  0  0  0  0  0  0
   22.6654   -5.8369  -13.5381 O   0  0  0  0  0  0  0  0  0  0  0  0
   22.7267   -3.7805  -14.4911 O   0  0  0  0  0  0  0  0  0  0  0  0
  2  1  1  0
  2  3  1  0
  3  4  1  6
  5  3  1  0
  5  6  1  1
  7  5  1  0
  8  7  2  0
 10  9  1  1
 11 10  1  0
 12 10  1  0
 13 12  1  6
 13 14  1  0
 14  7  1  0
 15 17  1  0
 15 13  1  0
 16 15  2  0
 18 17  1  0
 18 21  1  0
 18 19  1  1
 20 19  1  0
 21 22  1  0
 23 21  2  0
M  END
$$$$
