ILC.pdb
     RDKit          3D

 23 22  0  0  1  0  0  0  0  0999 V2000
   14.4268  -11.6092  -18.8436 C   0  0  0  0  0  0  0  0  0  0  0  0
   15.6735  -10.8484  -19.2043 C   0  0  0  0  0  0  0  0  0  0  0  0
   16.2599  -10.1532  -18.0062 C   0  0  2  0  0  0  0  0  0  0  0  0
   15.2075   -9.2436  -17.3872 C   0  0  0  0  0  0  0  0  0  0  0  0
   17.5334   -9.3929  -18.2822 C   0  0  2  0  0  0  0  0  0  0  0  0
   18.4285  -10.3898  -18.9343 N   0  0  0  0  0  0  0  0  0  0  0  0
   18.2742   -8.9861  -17.0675 C   0  0  0  0  0  0  0  0  0  0  0  0
   17.7383   -8.2151  -16.1904 O   0  0  0  0  0  0  0  0  0  0  0  0
   21.4714   -9.5265  -12.8602 C   0  0  0  0  0  0  0  0  0  0  0  0
   22.2528   -9.5702  -14.1636 C   0  0  1  0  0  0  0  0  0  0  0  0
   23.4553  -10.4701  -14.0451 C   0  0  0  0  0  0  0  0  0  0  0  0
   21.3690  -10.0115  -15.3100 C   0  0  0  0  0  0  0  0  0  0  0  0
   20.2789   -9.0178  -15.5405 C   0  0  2  0  0  0  0  0  0  0  0  0
   19.5808   -9.3861  -16.7629 N   0  0  0  0  0  0  0  0  0  0  0  0
   20.7792   -7.6345  -15.6993 C   0  0  0  0  0  0  0  0  0  0  0  0
   21.4820   -7.3645  -16.6964 O   0  0  0  0  0  0  0  0  0  0  0  0
   20.4911   -6.6023  -14.7618 N   0  0  0  0  0  0  0  0  0  0  0  0
   21.0852   -5.2882  -14.9019 C   0  0  1  0  0  0  0  0  0  0  0  0
   19.9939   -4.2129  -14.9258 C   0  0  0  0  0  0  0  0  0  0  0  0
   18.9981   -4.4565  -16.4183 S   0  0  0  0  0  0  0  0  0  0  0  0
   21.9798   -5.0354  -13.7294 C   0  0  0  0  0  0  0  0  0  0  0  0
   23.1287   -4.2721  -13.8744 O   0  0  0  0  0  0  0  0  0  0  0  0
   21.7229   -5.5009  -12.5881 O   0  0  0  0  0  0  0  0  0  0  0  0
  2  1  1  0
  2  3  1  0
  3  4  1  6
  5  3  1  0
  5  6  1  6
  7  5  1  0
  8  7  2  0
 10  9  1  1
 11 10  1  0
 12 10  1  0
 13 12  1  6
 13 14  1  0
 14  7  1  0
 15 17  1  0
 15 13  1  0
 16 15  2  0
 18 17  1  0
 18 21  1  0
 18 19  1  1
 20 19  1  0
 21 22  1  0
 23 21  2  0
M  END
$$$$
