ILC.pdb
     RDKit          3D

 23 22  0  0  1  0  0  0  0  0999 V2000
   22.9454  -19.1553  -17.2538 C   0  0  0  0  0  0  0  0  0  0  0  0
   21.8429  -19.1157  -16.2310 C   0  0  0  0  0  0  0  0  0  0  0  0
   22.0611  -20.1356  -15.1471 C   0  0  2  0  0  0  0  0  0  0  0  0
   22.2816  -21.5028  -15.7796 C   0  0  0  0  0  0  0  0  0  0  0  0
   20.9676  -20.1927  -14.1092 C   0  0  2  0  0  0  0  0  0  0  0  0
   20.8570  -18.7940  -13.6074 N   0  0  0  0  0  0  0  0  0  0  0  0
   21.3130  -20.9797  -12.9046 C   0  0  0  0  0  0  0  0  0  0  0  0
   21.3118  -22.2643  -12.9283 O   0  0  0  0  0  0  0  0  0  0  0  0
   25.2560  -19.6401   -9.4904 C   0  0  0  0  0  0  0  0  0  0  0  0
   24.2588  -20.4538  -10.2997 C   0  0  1  0  0  0  0  0  0  0  0  0
   24.7585  -21.8575  -10.5228 C   0  0  0  0  0  0  0  0  0  0  0  0
   22.9030  -20.4722   -9.6276 C   0  0  0  0  0  0  0  0  0  0  0  0
   21.9142  -21.2102  -10.4680 C   0  0  2  0  0  0  0  0  0  0  0  0
   21.6640  -20.4257  -11.6677 N   0  0  0  0  0  0  0  0  0  0  0  0
   20.6196  -21.4263   -9.7852 C   0  0  0  0  0  0  0  0  0  0  0  0
   19.6263  -20.7718  -10.1675 O   0  0  0  0  0  0  0  0  0  0  0  0
   20.4630  -22.3490   -8.7122 N   0  0  0  0  0  0  0  0  0  0  0  0
   19.1608  -22.8983   -8.3924 C   0  0  1  0  0  0  0  0  0  0  0  0
   18.6279  -23.7195   -9.5711 C   0  0  0  0  0  0  0  0  0  0  0  0
   17.0846  -24.5113   -9.0518 S   0  0  0  0  0  0  0  0  0  0  0  0
   19.2951  -23.7982   -7.2046 C   0  0  0  0  0  0  0  0  0  0  0  0
   18.2793  -23.8748   -6.2632 O   0  0  0  0  0  0  0  0  0  0  0  0
   20.3203  -24.5060   -7.0226 O   0  0  0  0  0  0  0  0  0  0  0  0
  2  1  1  0
  2  3  1  0
  3  4  1  6
  5  3  1  0
  5  6  1  1
  7  5  1  0
  8  7  2  0
 10  9  1  1
 11 10  1  0
 12 10  1  0
 13 12  1  1
 13 14  1  0
 14  7  1  0
 15 17  1  0
 15 13  1  0
 16 15  2  0
 18 17  1  0
 18 21  1  0
 18 19  1  6
 20 19  1  0
 21 22  1  0
 23 21  2  0
M  END
$$$$
