ILC.pdb
     RDKit          3D

 23 22  0  0  1  0  0  0  0  0999 V2000
   29.4399  -19.4120  -14.5142 C   0  0  0  0  0  0  0  0  0  0  0  0
   27.9790  -19.1682  -14.2503 C   0  0  0  0  0  0  0  0  0  0  0  0
   27.2260  -18.9048  -15.5256 C   0  0  2  0  0  0  0  0  0  0  0  0
   27.8546  -17.7195  -16.2454 C   0  0  0  0  0  0  0  0  0  0  0  0
   25.7417  -18.7012  -15.3479 C   0  0  2  0  0  0  0  0  0  0  0  0
   25.6314  -17.4651  -14.5231 N   0  0  0  0  0  0  0  0  0  0  0  0
   25.0793  -19.7399  -14.5282 C   0  0  0  0  0  0  0  0  0  0  0  0
   24.8583  -20.9152  -14.9979 O   0  0  0  0  0  0  0  0  0  0  0  0
   26.1439  -20.3283   -9.3442 C   0  0  0  0  0  0  0  0  0  0  0  0
   25.7619  -20.5754  -10.7950 C   0  0  1  0  0  0  0  0  0  0  0  0
   26.1881  -21.9498  -11.2414 C   0  0  0  0  0  0  0  0  0  0  0  0
   24.2750  -20.3857  -11.0029 C   0  0  0  0  0  0  0  0  0  0  0  0
   23.9236  -20.5587  -12.4435 C   0  0  2  0  0  0  0  0  0  0  0  0
   24.6458  -19.5545  -13.2099 N   0  0  0  0  0  0  0  0  0  0  0  0
   22.4789  -20.3871  -12.7127 C   0  0  0  0  0  0  0  0  0  0  0  0
   21.9581  -19.2735  -12.4894 O   0  0  0  0  0  0  0  0  0  0  0  0
   21.6620  -21.4394  -13.2151 N   0  0  0  0  0  0  0  0  0  0  0  0
   20.3449  -21.1623  -13.7517 C   0  0  1  0  0  0  0  0  0  0  0  0
   20.4545  -20.2644  -14.9884 C   0  0  0  0  0  0  0  0  0  0  0  0
   18.7819  -19.9601  -15.6116 S   0  0  0  0  0  0  0  0  0  0  0  0
   19.7060  -22.4541  -14.1539 C   0  0  0  0  0  0  0  0  0  0  0  0
   18.3639  -22.6855  -13.8913 O   0  0  0  0  0  0  0  0  0  0  0  0
   20.3564  -23.3615  -14.7361 O   0  0  0  0  0  0  0  0  0  0  0  0
  2  1  1  0
  2  3  1  0
  3  4  1  1
  5  3  1  0
  5  6  1  1
  7  5  1  0
  8  7  2  0
 10  9  1  1
 11 10  1  0
 12 10  1  0
 13 12  1  1
 13 14  1  0
 14  7  1  0
 15 17  1  0
 15 13  1  0
 16 15  2  0
 18 17  1  0
 18 21  1  0
 18 19  1  6
 20 19  1  0
 21 22  1  0
 23 21  2  0
M  END
$$$$
