AVE.pdb
     RDKit          3D

 22 21  0  0  1  0  0  0  0  0999 V2000
    7.2453  -18.5421   18.2949 C   0  0  0  0  0  0  0  0  0  0  0  0
    7.6417  -17.1713   17.7962 C   0  0  2  0  0  0  0  0  0  0  0  0
    8.3545  -17.3406   16.5498 N   0  0  0  0  0  0  0  0  0  0  0  0
    8.4931  -16.5170   18.7949 C   0  0  0  0  0  0  0  0  0  0  0  0
    9.7371  -16.7150   18.7978 O   0  0  0  0  0  0  0  0  0  0  0  0
    7.7761  -12.8524   19.9252 C   0  0  0  0  0  0  0  0  0  0  0  0
    8.0382  -13.6905   21.1414 C   0  0  1  0  0  0  0  0  0  0  0  0
    6.6875  -14.0650   21.7551 C   0  0  0  0  0  0  0  0  0  0  0  0
    8.7391  -14.9696   20.7900 C   0  0  2  0  0  0  0  0  0  0  0  0
    7.9667  -15.6546   19.7761 N   0  0  0  0  0  0  0  0  0  0  0  0
    9.0019  -15.7800   21.9701 C   0  0  0  0  0  0  0  0  0  0  0  0
    8.1720  -16.6142   22.3893 O   0  0  0  0  0  0  0  0  0  0  0  0
   10.2158  -15.6368   22.6731 N   0  0  0  0  0  0  0  0  0  0  0  0
   10.4994  -16.5019   23.8116 C   0  0  1  0  0  0  0  0  0  0  0  0
   11.9742  -16.7389   23.8815 C   0  0  0  0  0  0  0  0  0  0  0  0
   12.6021  -17.3483   22.6800 C   0  0  0  0  0  0  0  0  0  0  0  0
   14.0352  -17.0251   22.5510 C   0  0  0  0  0  0  0  0  0  0  0  0
   14.3924  -15.8218   22.6329 O   0  0  0  0  0  0  0  0  0  0  0  0
    9.9564  -15.9314   25.0633 C   0  0  0  0  0  0  0  0  0  0  0  0
   10.0224  -16.6721   26.2257 O   0  0  0  0  0  0  0  0  0  0  0  0
   15.0243  -17.9650   22.3426 O   0  0  0  0  0  0  0  0  0  0  0  0
    9.4332  -14.7929   25.1117 O   0  0  0  0  0  0  0  0  0  0  0  0
  2  1  1  1
  2  3  1  0
  4  2  1  0
  5  4  2  0
  7  6  1  6
  7  9  1  0
  8  7  1  0
  9 10  1  6
  9 11  1  0
 10  4  1  0
 11 12  2  0
 13 11  1  0
 13 14  1  0
 14 15  1  1
 16 15  1  0
 17 21  1  0
 17 16  1  0
 18 17  2  0
 19 20  1  0
 19 14  1  0
 22 19  2  0
M  END
$$$$
