AVE.pdb
     RDKit          3D

 22 21  0  0  1  0  0  0  0  0999 V2000
    7.4654  -18.6876   18.2788 C   0  0  0  0  0  0  0  0  0  0  0  0
    7.5212  -17.2402   17.8464 C   0  0  2  0  0  0  0  0  0  0  0  0
    7.9833  -17.2027   16.4770 N   0  0  0  0  0  0  0  0  0  0  0  0
    8.4387  -16.5050   18.7228 C   0  0  0  0  0  0  0  0  0  0  0  0
    9.6843  -16.5936   18.5571 O   0  0  0  0  0  0  0  0  0  0  0  0
    7.4355  -12.9310   20.1349 C   0  0  0  0  0  0  0  0  0  0  0  0
    8.0105  -13.7852   21.2259 C   0  0  1  0  0  0  0  0  0  0  0  0
    6.8462  -14.3913   22.0123 C   0  0  0  0  0  0  0  0  0  0  0  0
    8.8146  -14.9234   20.6703 C   0  0  2  0  0  0  0  0  0  0  0  0
    7.9757  -15.6831   19.7685 N   0  0  0  0  0  0  0  0  0  0  0  0
    9.4115  -15.7260   21.7275 C   0  0  0  0  0  0  0  0  0  0  0  0
    8.8619  -16.7652   22.1500 O   0  0  0  0  0  0  0  0  0  0  0  0
   10.6393  -15.3404   22.3038 N   0  0  0  0  0  0  0  0  0  0  0  0
   11.3975  -16.2974   23.1002 C   0  0  1  0  0  0  0  0  0  0  0  0
   12.8568  -16.0260   22.9196 C   0  0  0  0  0  0  0  0  0  0  0  0
   13.7891  -16.8970   23.6820 C   0  0  0  0  0  0  0  0  0  0  0  0
   15.2065  -16.5461   23.4751 C   0  0  0  0  0  0  0  0  0  0  0  0
   15.7299  -15.6818   24.2244 O   0  0  0  0  0  0  0  0  0  0  0  0
   10.9839  -16.2562   24.5195 C   0  0  0  0  0  0  0  0  0  0  0  0
   11.2946  -17.3190   25.3430 O   0  0  0  0  0  0  0  0  0  0  0  0
   16.0082  -17.1075   22.5019 O   0  0  0  0  0  0  0  0  0  0  0  0
   10.3566  -15.2873   25.0091 O   0  0  0  0  0  0  0  0  0  0  0  0
  2  1  1  1
  2  3  1  0
  4  2  1  0
  5  4  2  0
  7  6  1  6
  7  9  1  0
  8  7  1  0
  9 10  1  1
  9 11  1  0
 10  4  1  0
 11 12  2  0
 13 11  1  0
 13 14  1  0
 14 15  1  1
 16 15  1  0
 17 21  1  0
 17 16  1  0
 18 17  2  0
 19 20  1  0
 19 14  1  0
 22 19  2  0
M  END
$$$$
