AVE.pdb
     RDKit          3D

 22 21  0  0  1  0  0  0  0  0999 V2000
    6.7239  -16.1179   21.7628 C   0  0  0  0  0  0  0  0  0  0  0  0
    6.7986  -14.6124   21.8767 C   0  0  2  0  0  0  0  0  0  0  0  0
    7.2653  -14.0932   20.6106 N   0  0  0  0  0  0  0  0  0  0  0  0
    7.7224  -14.2509   22.9567 C   0  0  0  0  0  0  0  0  0  0  0  0
    8.9521  -14.1119   22.7218 O   0  0  0  0  0  0  0  0  0  0  0  0
    7.0304  -11.5322   25.6795 C   0  0  0  0  0  0  0  0  0  0  0  0
    7.3853  -12.8323   26.3385 C   0  0  1  0  0  0  0  0  0  0  0  0
    6.0821  -13.5422   26.7114 C   0  0  0  0  0  0  0  0  0  0  0  0
    8.1357  -13.7371   25.4064 C   0  0  2  0  0  0  0  0  0  0  0  0
    7.2829  -14.0472   24.2792 N   0  0  0  0  0  0  0  0  0  0  0  0
    8.6447  -14.9145   26.0942 C   0  0  0  0  0  0  0  0  0  0  0  0
    7.9176  -15.9039   26.3237 O   0  0  0  0  0  0  0  0  0  0  0  0
    9.9878  -14.9615   26.5211 N   0  0  0  0  0  0  0  0  0  0  0  0
   10.5241  -16.1920   27.0896 C   0  0  1  0  0  0  0  0  0  0  0  0
   11.8964  -16.4188   26.5407 C   0  0  0  0  0  0  0  0  0  0  0  0
   11.9792  -16.7893   25.1037 C   0  0  0  0  0  0  0  0  0  0  0  0
   13.2538  -16.3916   24.4776 C   0  0  0  0  0  0  0  0  0  0  0  0
   14.1136  -15.8016   25.1810 O   0  0  0  0  0  0  0  0  0  0  0  0
   10.5039  -16.1497   28.5678 C   0  0  0  0  0  0  0  0  0  0  0  0
   10.8622  -17.2766   29.2791 O   0  0  0  0  0  0  0  0  0  0  0  0
   13.5715  -16.6244   23.1547 O   0  0  0  0  0  0  0  0  0  0  0  0
   10.1710  -15.1234   29.2065 O   0  0  0  0  0  0  0  0  0  0  0  0
  2  1  1  6
  2  3  1  0
  4  2  1  0
  5  4  2  0
  7  6  1  6
  7  9  1  0
  8  7  1  0
  9 10  1  6
  9 11  1  0
 10  4  1  0
 11 12  2  0
 13 11  1  0
 13 14  1  0
 14 15  1  1
 16 15  1  0
 17 21  1  0
 17 16  1  0
 18 17  2  0
 19 20  1  0
 19 14  1  0
 22 19  2  0
M  END
$$$$
