AVE.pdb
     RDKit          3D

 22 21  0  0  1  0  0  0  0  0999 V2000
    6.5015  -18.9180   18.5514 C   0  0  0  0  0  0  0  0  0  0  0  0
    6.9327  -17.7214   17.7345 C   0  0  2  0  0  0  0  0  0  0  0  0
    7.5498  -18.2100   16.5218 N   0  0  0  0  0  0  0  0  0  0  0  0
    7.8822  -16.9180   18.5113 C   0  0  0  0  0  0  0  0  0  0  0  0
    9.0835  -17.2812   18.6191 O   0  0  0  0  0  0  0  0  0  0  0  0
    6.4009  -13.7131   20.9471 C   0  0  0  0  0  0  0  0  0  0  0  0
    7.7023  -13.5878   20.2116 C   0  0  1  0  0  0  0  0  0  0  0  0
    8.6492  -12.7468   21.0703 C   0  0  0  0  0  0  0  0  0  0  0  0
    8.3525  -14.9244   20.0080 C   0  0  2  0  0  0  0  0  0  0  0  0
    7.4993  -15.7272   19.1585 N   0  0  0  0  0  0  0  0  0  0  0  0
    8.6799  -15.5613   21.2751 C   0  0  0  0  0  0  0  0  0  0  0  0
    7.7906  -15.9692   22.0517 O   0  0  0  0  0  0  0  0  0  0  0  0
   10.0267  -15.7323   21.6560 N   0  0  0  0  0  0  0  0  0  0  0  0
   10.3442  -16.3898   22.9178 C   0  0  1  0  0  0  0  0  0  0  0  0
   10.6118  -17.8370   22.6534 C   0  0  0  0  0  0  0  0  0  0  0  0
   11.7328  -18.1420   21.7264 C   0  0  0  0  0  0  0  0  0  0  0  0
   11.9143  -19.5872   21.4959 C   0  0  0  0  0  0  0  0  0  0  0  0
   10.9180  -20.2733   21.1509 O   0  0  0  0  0  0  0  0  0  0  0  0
   11.4725  -15.7192   23.5994 C   0  0  0  0  0  0  0  0  0  0  0  0
   11.7895  -16.0813   24.8927 O   0  0  0  0  0  0  0  0  0  0  0  0
   13.1182  -20.2476   21.6358 O   0  0  0  0  0  0  0  0  0  0  0  0
   12.1579  -14.8271   23.0459 O   0  0  0  0  0  0  0  0  0  0  0  0
  2  1  1  1
  2  3  1  0
  4  2  1  0
  5  4  2  0
  7  6  1  1
  7  9  1  0
  8  7  1  0
  9 10  1  1
  9 11  1  0
 10  4  1  0
 11 12  2  0
 13 11  1  0
 13 14  1  0
 14 15  1  6
 16 15  1  0
 17 21  1  0
 17 16  1  0
 18 17  2  0
 19 20  1  0
 19 14  1  0
 22 19  2  0
M  END
$$$$
