AVE.pdb
     RDKit          3D

 22 21  0  0  1  0  0  0  0  0999 V2000
    7.9119  -18.6747   17.5713 C   0  0  0  0  0  0  0  0  0  0  0  0
    8.3060  -17.2670   17.1864 C   0  0  2  0  0  0  0  0  0  0  0  0
    9.2861  -17.3536   16.1270 N   0  0  0  0  0  0  0  0  0  0  0  0
    8.8661  -16.5811   18.3552 C   0  0  0  0  0  0  0  0  0  0  0  0
   10.0815  -16.7234   18.6541 O   0  0  0  0  0  0  0  0  0  0  0  0
    7.8971  -13.3075   22.0000 C   0  0  0  0  0  0  0  0  0  0  0  0
    7.5213  -14.0182   20.7335 C   0  0  1  0  0  0  0  0  0  0  0  0
    7.4253  -12.9745   19.6187 C   0  0  0  0  0  0  0  0  0  0  0  0
    8.5691  -15.0116   20.3260 C   0  0  2  0  0  0  0  0  0  0  0  0
    8.0840  -15.7487   19.1792 N   0  0  0  0  0  0  0  0  0  0  0  0
    8.9669  -15.8603   21.4395 C   0  0  0  0  0  0  0  0  0  0  0  0
    8.3010  -16.8652   21.7670 O   0  0  0  0  0  0  0  0  0  0  0  0
   10.1282  -15.5602   22.1808 N   0  0  0  0  0  0  0  0  0  0  0  0
   10.6548  -16.5354   23.1277 C   0  0  1  0  0  0  0  0  0  0  0  0
   12.1331  -16.6476   22.9322 C   0  0  0  0  0  0  0  0  0  0  0  0
   12.8647  -17.4983   23.9070 C   0  0  0  0  0  0  0  0  0  0  0  0
   14.3244  -17.4914   23.6975 C   0  0  0  0  0  0  0  0  0  0  0  0
   14.9441  -16.4018   23.8021 O   0  0  0  0  0  0  0  0  0  0  0  0
   10.2913  -16.1806   24.5165 C   0  0  0  0  0  0  0  0  0  0  0  0
   10.3772  -17.1424   25.5023 O   0  0  0  0  0  0  0  0  0  0  0  0
   15.0669  -18.6134   23.3893 O   0  0  0  0  0  0  0  0  0  0  0  0
    9.9040  -15.0321   24.8375 O   0  0  0  0  0  0  0  0  0  0  0  0
  2  1  1  1
  2  3  1  0
  4  2  1  0
  5  4  2  0
  7  6  1  1
  7  9  1  0
  8  7  1  0
  9 10  1  6
  9 11  1  0
 10  4  1  0
 11 12  2  0
 13 11  1  0
 13 14  1  0
 14 15  1  1
 16 15  1  0
 17 21  1  0
 17 16  1  0
 18 17  2  0
 19 20  1  0
 19 14  1  0
 22 19  2  0
M  END
$$$$
