AVE.pdb
     RDKit          3D

 22 21  0  0  1  0  0  0  0  0999 V2000
    8.3213  -16.8497   16.3019 C   0  0  0  0  0  0  0  0  0  0  0  0
    8.1725  -17.4341   17.6880 C   0  0  2  0  0  0  0  0  0  0  0  0
    6.7654  -17.4371   18.0206 N   0  0  0  0  0  0  0  0  0  0  0  0
    8.9288  -16.6191   18.6441 C   0  0  0  0  0  0  0  0  0  0  0  0
   10.1883  -16.6351   18.6367 O   0  0  0  0  0  0  0  0  0  0  0  0
    7.7441  -13.0748   19.5957 C   0  0  0  0  0  0  0  0  0  0  0  0
    8.1307  -13.7759   20.8643 C   0  0  1  0  0  0  0  0  0  0  0  0
    6.8475  -14.2484   21.5508 C   0  0  0  0  0  0  0  0  0  0  0  0
    8.9647  -14.9926   20.5906 C   0  0  2  0  0  0  0  0  0  0  0  0
    8.2916  -15.7981   19.5946 N   0  0  0  0  0  0  0  0  0  0  0  0
    9.2759  -15.7171   21.8140 C   0  0  0  0  0  0  0  0  0  0  0  0
    8.5268  -16.6162   22.2508 O   0  0  0  0  0  0  0  0  0  0  0  0
   10.4457  -15.4134   22.5403 N   0  0  0  0  0  0  0  0  0  0  0  0
   10.8324  -16.2474   23.6717 C   0  0  1  0  0  0  0  0  0  0  0  0
   12.3246  -16.2742   23.7632 C   0  0  0  0  0  0  0  0  0  0  0  0
   13.0471  -16.8425   22.5953 C   0  0  0  0  0  0  0  0  0  0  0  0
   14.5135  -16.7913   22.7429 C   0  0  0  0  0  0  0  0  0  0  0  0
   15.0024  -16.1107   23.6810 O   0  0  0  0  0  0  0  0  0  0  0  0
   10.1954  -15.7794   24.9216 C   0  0  0  0  0  0  0  0  0  0  0  0
   10.2843  -16.5596   26.0564 O   0  0  0  0  0  0  0  0  0  0  0  0
   15.3981  -17.4469   21.9106 O   0  0  0  0  0  0  0  0  0  0  0  0
    9.5718  -14.6940   24.9928 O   0  0  0  0  0  0  0  0  0  0  0  0
  2  1  1  6
  2  3  1  0
  4  2  1  0
  5  4  2  0
  7  6  1  6
  7  9  1  0
  8  7  1  0
  9 10  1  6
  9 11  1  0
 10  4  1  0
 11 12  2  0
 13 11  1  0
 13 14  1  0
 14 15  1  1
 16 15  1  0
 17 21  1  0
 17 16  1  0
 18 17  2  0
 19 20  1  0
 19 14  1  0
 22 19  2  0
M  END
$$$$
