AVE.pdb
     RDKit          3D

 22 21  0  0  1  0  0  0  0  0999 V2000
    7.5036  -18.5332   18.1088 C   0  0  0  0  0  0  0  0  0  0  0  0
    7.9204  -17.1504   17.6624 C   0  0  2  0  0  0  0  0  0  0  0  0
    8.6716  -17.2871   16.4346 N   0  0  0  0  0  0  0  0  0  0  0  0
    8.7422  -16.5287   18.7057 C   0  0  0  0  0  0  0  0  0  0  0  0
    9.9793  -16.7591   18.7623 O   0  0  0  0  0  0  0  0  0  0  0  0
    7.8121  -12.8624   19.9105 C   0  0  0  0  0  0  0  0  0  0  0  0
    8.1553  -13.7313   21.0842 C   0  0  1  0  0  0  0  0  0  0  0  0
    6.8463  -14.2390   21.6927 C   0  0  0  0  0  0  0  0  0  0  0  0
    8.9499  -14.9337   20.6675 C   0  0  2  0  0  0  0  0  0  0  0  0
    8.1941  -15.6630   19.6720 N   0  0  0  0  0  0  0  0  0  0  0  0
    9.3401  -15.7432   21.8124 C   0  0  0  0  0  0  0  0  0  0  0  0
    8.6451  -16.7057   22.2008 O   0  0  0  0  0  0  0  0  0  0  0  0
   10.5271  -15.4520   22.5156 N   0  0  0  0  0  0  0  0  0  0  0  0
   10.9989  -16.3655   23.5491 C   0  0  1  0  0  0  0  0  0  0  0  0
   12.4818  -16.2229   23.6782 C   0  0  0  0  0  0  0  0  0  0  0  0
   13.2725  -16.3989   22.4321 C   0  0  0  0  0  0  0  0  0  0  0  0
   14.7196  -16.1985   22.6335 C   0  0  0  0  0  0  0  0  0  0  0  0
   15.0999  -15.4168   23.5427 O   0  0  0  0  0  0  0  0  0  0  0  0
   10.2930  -16.1344   24.8279 C   0  0  0  0  0  0  0  0  0  0  0  0
   10.4698  -17.0263   25.8659 O   0  0  0  0  0  0  0  0  0  0  0  0
   15.6981  -16.8172   21.8820 O   0  0  0  0  0  0  0  0  0  0  0  0
    9.5333  -15.1534   25.0087 O   0  0  0  0  0  0  0  0  0  0  0  0
  2  1  1  1
  2  3  1  0
  4  2  1  0
  5  4  2  0
  7  6  1  6
  7  9  1  0
  8  7  1  0
  9 10  1  6
  9 11  1  0
 10  4  1  0
 11 12  2  0
 13 11  1  0
 13 14  1  0
 14 15  1  1
 16 15  1  0
 17 21  1  0
 17 16  1  0
 18 17  2  0
 19 20  1  0
 19 14  1  0
 22 19  2  0
M  END
$$$$
