AVE.pdb
     RDKit          3D

 22 21  0  0  1  0  0  0  0  0999 V2000
    6.4337  -14.9127   20.4902 C   0  0  0  0  0  0  0  0  0  0  0  0
    6.7279  -13.5338   21.0350 C   0  0  2  0  0  0  0  0  0  0  0  0
    7.3585  -12.7659   19.9848 N   0  0  0  0  0  0  0  0  0  0  0  0
    7.6152  -13.6482   22.1969 C   0  0  0  0  0  0  0  0  0  0  0  0
    8.8649  -13.6804   22.0420 O   0  0  0  0  0  0  0  0  0  0  0  0
    6.6614  -11.8115   25.6103 C   0  0  0  0  0  0  0  0  0  0  0  0
    7.1030  -13.2245   25.8524 C   0  0  1  0  0  0  0  0  0  0  0  0
    5.8511  -14.0988   25.9503 C   0  0  0  0  0  0  0  0  0  0  0  0
    7.9258  -13.7489   24.7127 C   0  0  2  0  0  0  0  0  0  0  0  0
    7.1180  -13.7255   23.5123 N   0  0  0  0  0  0  0  0  0  0  0  0
    8.4872  -15.0578   25.0128 C   0  0  0  0  0  0  0  0  0  0  0  0
    7.8193  -16.1041   24.8732 O   0  0  0  0  0  0  0  0  0  0  0  0
    9.8149  -15.1715   25.4737 N   0  0  0  0  0  0  0  0  0  0  0  0
   10.4603  -16.4782   25.5068 C   0  0  1  0  0  0  0  0  0  0  0  0
   11.8108  -16.3650   24.8749 C   0  0  0  0  0  0  0  0  0  0  0  0
   12.6897  -17.5591   24.9784 C   0  0  0  0  0  0  0  0  0  0  0  0
   13.9874  -17.3812   24.3006 C   0  0  0  0  0  0  0  0  0  0  0  0
   14.7792  -16.5049   24.7333 O   0  0  0  0  0  0  0  0  0  0  0  0
   10.5217  -17.0080   26.8861 C   0  0  0  0  0  0  0  0  0  0  0  0
   10.8590  -18.3311   27.0854 O   0  0  0  0  0  0  0  0  0  0  0  0
   14.3974  -18.1195   23.2089 O   0  0  0  0  0  0  0  0  0  0  0  0
   10.2770  -16.2983   27.8904 O   0  0  0  0  0  0  0  0  0  0  0  0
  2  1  1  6
  2  3  1  0
  4  2  1  0
  5  4  2  0
  7  6  1  6
  7  9  1  0
  8  7  1  0
  9 10  1  6
  9 11  1  0
 10  4  1  0
 11 12  2  0
 13 11  1  0
 13 14  1  0
 14 15  1  1
 16 15  1  0
 17 21  1  0
 17 16  1  0
 18 17  2  0
 19 20  1  0
 19 14  1  0
 22 19  2  0
M  END
$$$$
