AVE.pdb
     RDKit          3D

 22 21  0  0  1  0  0  0  0  0999 V2000
    7.0111  -18.4506   18.0429 C   0  0  0  0  0  0  0  0  0  0  0  0
    7.4502  -17.0893   17.5541 C   0  0  2  0  0  0  0  0  0  0  0  0
    8.0923  -17.2636   16.2705 N   0  0  0  0  0  0  0  0  0  0  0  0
    8.3806  -16.5007   18.5227 C   0  0  0  0  0  0  0  0  0  0  0  0
    9.6147  -16.7417   18.4467 O   0  0  0  0  0  0  0  0  0  0  0  0
    7.7691  -12.8652   19.7528 C   0  0  0  0  0  0  0  0  0  0  0  0
    8.1441  -13.7075   20.9362 C   0  0  1  0  0  0  0  0  0  0  0  0
    6.8575  -14.0777   21.6770 C   0  0  0  0  0  0  0  0  0  0  0  0
    8.8017  -14.9887   20.5158 C   0  0  2  0  0  0  0  0  0  0  0  0
    7.9430  -15.6558   19.5611 N   0  0  0  0  0  0  0  0  0  0  0  0
    9.1518  -15.8143   21.6622 C   0  0  0  0  0  0  0  0  0  0  0  0
    8.3726  -16.6848   22.1043 O   0  0  0  0  0  0  0  0  0  0  0  0
   10.3952  -15.6448   22.3054 N   0  0  0  0  0  0  0  0  0  0  0  0
   10.7735  -16.5351   23.3959 C   0  0  1  0  0  0  0  0  0  0  0  0
   12.2550  -16.7353   23.3631 C   0  0  0  0  0  0  0  0  0  0  0  0
   12.7907  -17.5100   22.2134 C   0  0  0  0  0  0  0  0  0  0  0  0
   14.2586  -17.6491   22.2449 C   0  0  0  0  0  0  0  0  0  0  0  0
   14.9616  -16.6097   22.3328 O   0  0  0  0  0  0  0  0  0  0  0  0
   10.2995  -16.0160   24.6970 C   0  0  0  0  0  0  0  0  0  0  0  0
   10.4635  -16.7865   25.8301 O   0  0  0  0  0  0  0  0  0  0  0  0
   14.9225  -18.8576   22.1826 O   0  0  0  0  0  0  0  0  0  0  0  0
    9.7494  -14.8954   24.8136 O   0  0  0  0  0  0  0  0  0  0  0  0
  2  1  1  1
  2  3  1  0
  4  2  1  0
  5  4  2  0
  7  6  1  6
  7  9  1  0
  8  7  1  0
  9 10  1  6
  9 11  1  0
 10  4  1  0
 11 12  2  0
 13 11  1  0
 13 14  1  0
 14 15  1  1
 16 15  1  0
 17 21  1  0
 17 16  1  0
 18 17  2  0
 19 20  1  0
 19 14  1  0
 22 19  2  0
M  END
$$$$
