AVE.pdb
     RDKit          3D

 22 21  0  0  1  0  0  0  0  0999 V2000
    6.2939  -16.1484   21.8642 C   0  0  0  0  0  0  0  0  0  0  0  0
    6.7208  -14.6990   21.8171 C   0  0  2  0  0  0  0  0  0  0  0  0
    7.3727  -14.4685   20.5473 N   0  0  0  0  0  0  0  0  0  0  0  0
    7.6386  -14.4252   22.9275 C   0  0  0  0  0  0  0  0  0  0  0  0
    8.8800  -14.5788   22.7792 O   0  0  0  0  0  0  0  0  0  0  0  0
    7.1224  -11.3162   25.1837 C   0  0  0  0  0  0  0  0  0  0  0  0
    7.3630  -12.5101   26.0595 C   0  0  1  0  0  0  0  0  0  0  0  0
    6.0036  -13.0260   26.5360 C   0  0  0  0  0  0  0  0  0  0  0  0
    8.0238  -13.6251   25.3039 C   0  0  2  0  0  0  0  0  0  0  0  0
    7.1804  -13.9866   24.1850 N   0  0  0  0  0  0  0  0  0  0  0  0
    8.3500  -14.7449   26.1745 C   0  0  0  0  0  0  0  0  0  0  0  0
    7.4725  -15.5365   26.5793 O   0  0  0  0  0  0  0  0  0  0  0  0
    9.6819  -14.9607   26.5839 N   0  0  0  0  0  0  0  0  0  0  0  0
   10.0054  -16.1116   27.4181 C   0  0  1  0  0  0  0  0  0  0  0  0
   11.2679  -16.7336   26.9131 C   0  0  0  0  0  0  0  0  0  0  0  0
   11.2899  -17.1069   25.4746 C   0  0  0  0  0  0  0  0  0  0  0  0
   12.5664  -17.7149   25.0555 C   0  0  0  0  0  0  0  0  0  0  0  0
   13.4872  -17.8312   25.9045 O   0  0  0  0  0  0  0  0  0  0  0  0
   10.0920  -15.7292   28.8441 C   0  0  0  0  0  0  0  0  0  0  0  0
   10.2948  -16.7098   29.7936 O   0  0  0  0  0  0  0  0  0  0  0  0
   12.8237  -18.1701   23.7781 O   0  0  0  0  0  0  0  0  0  0  0  0
    9.9870  -14.5405   29.2289 O   0  0  0  0  0  0  0  0  0  0  0  0
  2  1  1  6
  2  3  1  0
  4  2  1  0
  5  4  2  0
  7  6  1  6
  7  9  1  0
  8  7  1  0
  9 10  1  6
  9 11  1  0
 10  4  1  0
 11 12  2  0
 13 11  1  0
 13 14  1  0
 14 15  1  6
 16 15  1  0
 17 21  1  0
 17 16  1  0
 18 17  2  0
 19 20  1  0
 19 14  1  0
 22 19  2  0
M  END
$$$$
