AVE.pdb
     RDKit          3D

 22 21  0  0  1  0  0  0  0  0999 V2000
    8.9476  -17.1300   16.9291 C   0  0  0  0  0  0  0  0  0  0  0  0
    8.8964  -17.8204   18.2729 C   0  0  2  0  0  0  0  0  0  0  0  0
    7.5127  -18.1196   18.5666 N   0  0  0  0  0  0  0  0  0  0  0  0
    9.4637  -16.9368   19.2964 C   0  0  0  0  0  0  0  0  0  0  0  0
   10.6851  -16.6303   19.2660 O   0  0  0  0  0  0  0  0  0  0  0  0
    7.3562  -13.9969   20.6572 C   0  0  0  0  0  0  0  0  0  0  0  0
    8.0415  -14.6402   21.8263 C   0  0  1  0  0  0  0  0  0  0  0  0
    7.0184  -15.5227   22.5444 C   0  0  0  0  0  0  0  0  0  0  0  0
    9.1670  -15.5291   21.3860 C   0  0  2  0  0  0  0  0  0  0  0  0
    8.6819  -16.4021   20.3389 N   0  0  0  0  0  0  0  0  0  0  0  0
    9.7618  -16.2391   22.5087 C   0  0  0  0  0  0  0  0  0  0  0  0
    9.2804  -17.3100   22.9351 O   0  0  0  0  0  0  0  0  0  0  0  0
   10.9094  -15.7242   23.1461 N   0  0  0  0  0  0  0  0  0  0  0  0
   11.8131  -16.6262   23.8494 C   0  0  1  0  0  0  0  0  0  0  0  0
   13.2205  -16.1799   23.6130 C   0  0  0  0  0  0  0  0  0  0  0  0
   14.2840  -16.9611   24.2968 C   0  0  0  0  0  0  0  0  0  0  0  0
   15.6450  -16.5433   23.9121 C   0  0  0  0  0  0  0  0  0  0  0  0
   15.8807  -15.3166   23.7643 O   0  0  0  0  0  0  0  0  0  0  0  0
   11.4764  -16.7043   25.2874 C   0  0  0  0  0  0  0  0  0  0  0  0
   12.0413  -17.6994   26.0587 O   0  0  0  0  0  0  0  0  0  0  0  0
   16.6914  -17.4178   23.6991 O   0  0  0  0  0  0  0  0  0  0  0  0
   10.6914  -15.8969   25.8387 O   0  0  0  0  0  0  0  0  0  0  0  0
  2  1  1  6
  2  3  1  0
  4  2  1  0
  5  4  2  0
  7  6  1  6
  7  9  1  0
  8  7  1  0
  9 10  1  6
  9 11  1  0
 10  4  1  0
 11 12  2  0
 13 11  1  0
 13 14  1  0
 14 15  1  1
 16 15  1  0
 17 21  1  0
 17 16  1  0
 18 17  2  0
 19 20  1  0
 19 14  1  0
 22 19  2  0
M  END
$$$$
