AVE.pdb
     RDKit          3D

 22 21  0  0  1  0  0  0  0  0999 V2000
    6.4663  -15.3673   21.3767 C   0  0  0  0  0  0  0  0  0  0  0  0
    6.8799  -13.9356   21.6301 C   0  0  2  0  0  0  0  0  0  0  0  0
    7.5520  -13.4505   20.4455 N   0  0  0  0  0  0  0  0  0  0  0  0
    7.7749  -13.8852   22.7906 C   0  0  0  0  0  0  0  0  0  0  0  0
    9.0019  -14.1379   22.6588 O   0  0  0  0  0  0  0  0  0  0  0  0
    7.2775  -11.3790   25.9575 C   0  0  0  0  0  0  0  0  0  0  0  0
    7.4026  -12.8204   26.3540 C   0  0  1  0  0  0  0  0  0  0  0  0
    5.9911  -13.3896   26.5115 C   0  0  0  0  0  0  0  0  0  0  0  0
    8.0935  -13.6267   25.2941 C   0  0  2  0  0  0  0  0  0  0  0  0
    7.3103  -13.5580   24.0792 N   0  0  0  0  0  0  0  0  0  0  0  0
    8.3593  -14.9861   25.7409 C   0  0  0  0  0  0  0  0  0  0  0  0
    7.4884  -15.8791   25.6742 O   0  0  0  0  0  0  0  0  0  0  0  0
    9.6233  -15.3261   26.2654 N   0  0  0  0  0  0  0  0  0  0  0  0
    9.9615  -16.7264   26.4889 C   0  0  1  0  0  0  0  0  0  0  0  0
   11.1770  -17.0629   25.6857 C   0  0  0  0  0  0  0  0  0  0  0  0
   11.6897  -18.4519   25.8155 C   0  0  0  0  0  0  0  0  0  0  0  0
   12.8794  -18.7083   24.9826 C   0  0  0  0  0  0  0  0  0  0  0  0
   13.4390  -17.7359   24.4138 O   0  0  0  0  0  0  0  0  0  0  0  0
   10.1371  -17.0092   27.9298 C   0  0  0  0  0  0  0  0  0  0  0  0
   10.2715  -15.9564   28.8117 O   0  0  0  0  0  0  0  0  0  0  0  0
   13.4274  -19.9589   24.7808 O   0  0  0  0  0  0  0  0  0  0  0  0
   10.1701  -18.1764   28.3866 O   0  0  0  0  0  0  0  0  0  0  0  0
  2  1  1  6
  2  3  1  0
  4  2  1  0
  5  4  2  0
  7  6  1  6
  7  9  1  0
  8  7  1  0
  9 10  1  6
  9 11  1  0
 10  4  1  0
 11 12  2  0
 13 11  1  0
 13 14  1  0
 14 15  1  6
 16 15  1  0
 17 21  1  0
 17 16  1  0
 18 17  2  0
 19 20  1  0
 19 14  1  0
 22 19  2  0
M  END
$$$$
