AVE.pdb
     RDKit          3D

 22 21  0  0  1  0  0  0  0  0999 V2000
    6.9046  -18.9063   18.2197 C   0  0  0  0  0  0  0  0  0  0  0  0
    7.1885  -17.5260   17.6727 C   0  0  2  0  0  0  0  0  0  0  0  0
    7.8107  -17.6806   16.3769 N   0  0  0  0  0  0  0  0  0  0  0  0
    8.0789  -16.8111   18.5927 C   0  0  0  0  0  0  0  0  0  0  0  0
    9.3233  -17.0018   18.5501 O   0  0  0  0  0  0  0  0  0  0  0  0
    8.3489  -13.2647   22.0873 C   0  0  0  0  0  0  0  0  0  0  0  0
    7.6086  -14.0072   21.0145 C   0  0  1  0  0  0  0  0  0  0  0  0
    7.4019  -13.0516   19.8374 C   0  0  0  0  0  0  0  0  0  0  0  0
    8.3988  -15.1769   20.5065 C   0  0  2  0  0  0  0  0  0  0  0  0
    7.5905  -15.8970   19.5464 N   0  0  0  0  0  0  0  0  0  0  0  0
    8.8894  -16.0078   21.5961 C   0  0  0  0  0  0  0  0  0  0  0  0
    8.1340  -16.7836   22.2190 O   0  0  0  0  0  0  0  0  0  0  0  0
   10.2464  -15.9521   21.9754 N   0  0  0  0  0  0  0  0  0  0  0  0
   10.7564  -16.8790   22.9782 C   0  0  1  0  0  0  0  0  0  0  0  0
   12.1225  -17.3287   22.5688 C   0  0  0  0  0  0  0  0  0  0  0  0
   12.8307  -18.2313   23.5136 C   0  0  0  0  0  0  0  0  0  0  0  0
   14.1646  -18.6377   23.0336 C   0  0  0  0  0  0  0  0  0  0  0  0
   14.2805  -19.0513   21.8514 O   0  0  0  0  0  0  0  0  0  0  0  0
   10.7397  -16.2693   24.3255 C   0  0  0  0  0  0  0  0  0  0  0  0
   10.7162  -17.0886   25.4357 O   0  0  0  0  0  0  0  0  0  0  0  0
   15.3095  -18.5958   23.8034 O   0  0  0  0  0  0  0  0  0  0  0  0
   10.7451  -15.0279   24.5017 O   0  0  0  0  0  0  0  0  0  0  0  0
  2  1  1  1
  2  3  1  0
  4  2  1  0
  5  4  2  0
  7  6  1  1
  7  9  1  0
  8  7  1  0
  9 10  1  6
  9 11  1  0
 10  4  1  0
 11 12  2  0
 13 11  1  0
 13 14  1  0
 14 15  1  6
 16 15  1  0
 17 21  1  0
 17 16  1  0
 18 17  2  0
 19 20  1  0
 19 14  1  0
 22 19  2  0
M  END
$$$$
