NCQ.pdb
     RDKit          3D

 24 23  0  0  1  0  0  0  0  0999 V2000
    5.7910  -18.1287   15.6495 N   0  0  0  0  0  0  0  0  0  0  0  0
    7.0881  -18.6698   15.8403 C   0  0  0  0  0  0  0  0  0  0  0  0
    7.5343  -19.5002   15.0128 O   0  0  0  0  0  0  0  0  0  0  0  0
    7.8838  -18.2399   17.0135 C   0  0  0  0  0  0  0  0  0  0  0  0
    8.5856  -16.9342   16.6849 C   0  0  2  0  0  0  0  0  0  0  0  0
    9.6559  -17.2312   15.7755 N   0  0  0  0  0  0  0  0  0  0  0  0
    9.1037  -16.2739   17.9048 C   0  0  0  0  0  0  0  0  0  0  0  0
   10.2136  -16.6255   18.3933 O   0  0  0  0  0  0  0  0  0  0  0  0
    8.4166  -15.2347   18.5908 N   0  0  0  0  0  0  0  0  0  0  0  0
    8.8955  -14.6181   19.7904 C   0  0  1  0  0  0  0  0  0  0  0  0
    7.9784  -13.5433   20.3232 C   0  0  0  0  0  0  0  0  0  0  0  0
    6.2881  -14.1508   20.5638 S   0  0  0  0  0  0  0  0  0  0  0  0
    9.0788  -15.6067   20.8979 C   0  0  0  0  0  0  0  0  0  0  0  0
    8.4775  -16.7101   20.8380 O   0  0  0  0  0  0  0  0  0  0  0  0
   12.3199  -19.5049   20.3858 N   0  0  0  0  0  0  0  0  0  0  0  0
   12.4796  -19.4942   21.7902 C   0  0  0  0  0  0  0  0  0  0  0  0
   13.2007  -20.4150   22.2985 O   0  0  0  0  0  0  0  0  0  0  0  0
   11.8649  -18.4795   22.6677 C   0  0  0  0  0  0  0  0  0  0  0  0
   11.1327  -17.3858   21.9981 C   0  0  0  0  0  0  0  0  0  0  0  0
   10.4623  -16.3896   22.8718 C   0  0  2  0  0  0  0  0  0  0  0  0
    9.9024  -15.3383   22.0016 N   0  0  0  0  0  0  0  0  0  0  0  0
   11.2051  -15.7484   23.9363 C   0  0  0  0  0  0  0  0  0  0  0  0
   11.2570  -14.4888   24.0340 O   0  0  0  0  0  0  0  0  0  0  0  0
   11.8904  -16.4554   24.9078 O   0  0  0  0  0  0  0  0  0  0  0  0
  2  1  1  0
  2  4  1  0
  3  2  2  0
  4  5  1  0
  5  7  1  0
  5  6  1  6
  7  8  2  0
  9  7  1  0
  9 10  1  0
 10 13  1  0
 11 12  1  0
 10 11  1  1
 13 21  1  0
 14 13  2  0
 16 15  1  0
 17 16  2  0
 18 16  1  0
 19 18  1  0
 20 19  1  6
 21 20  1  0
 22 20  1  0
 22 24  1  0
 23 22  2  0
M  END
$$$$
