NCQ.pdb
     RDKit          3D

 24 23  0  0  1  0  0  0  0  0999 V2000
    9.4201  -16.2856   18.1534 N   0  0  0  0  0  0  0  0  0  0  0  0
    8.2002  -15.9533   18.7962 C   0  0  0  0  0  0  0  0  0  0  0  0
    7.1325  -16.4738   18.3930 O   0  0  0  0  0  0  0  0  0  0  0  0
    8.2183  -14.9986   19.9287 C   0  0  0  0  0  0  0  0  0  0  0  0
    8.0483  -15.7668   21.2273 C   0  0  2  0  0  0  0  0  0  0  0  0
    6.6872  -16.2185   21.2918 N   0  0  0  0  0  0  0  0  0  0  0  0
    8.3773  -14.9277   22.4020 C   0  0  0  0  0  0  0  0  0  0  0  0
    9.5393  -14.4521   22.5360 O   0  0  0  0  0  0  0  0  0  0  0  0
    7.4455  -14.6070   23.4274 N   0  0  0  0  0  0  0  0  0  0  0  0
    7.8056  -13.9927   24.6691 C   0  0  1  0  0  0  0  0  0  0  0  0
    6.6521  -13.3019   25.3565 C   0  0  0  0  0  0  0  0  0  0  0  0
    7.1244  -12.6406   26.9762 S   0  0  0  0  0  0  0  0  0  0  0  0
    8.3531  -14.9812   25.6491 C   0  0  0  0  0  0  0  0  0  0  0  0
    7.6367  -15.9533   26.0017 O   0  0  0  0  0  0  0  0  0  0  0  0
   12.8731  -18.0124   23.4817 N   0  0  0  0  0  0  0  0  0  0  0  0
   12.7319  -17.6087   24.8290 C   0  0  0  0  0  0  0  0  0  0  0  0
   13.7868  -17.6011   25.5454 O   0  0  0  0  0  0  0  0  0  0  0  0
   11.4438  -17.1992   25.4212 C   0  0  0  0  0  0  0  0  0  0  0  0
   11.5120  -16.2889   26.5820 C   0  0  0  0  0  0  0  0  0  0  0  0
   10.2215  -15.8158   27.1443 C   0  0  2  0  0  0  0  0  0  0  0  0
    9.6431  -14.8549   26.1862 N   0  0  0  0  0  0  0  0  0  0  0  0
   10.1851  -15.2186   28.4627 C   0  0  0  0  0  0  0  0  0  0  0  0
   10.0081  -13.9760   28.6157 O   0  0  0  0  0  0  0  0  0  0  0  0
   10.3303  -15.9528   29.6259 O   0  0  0  0  0  0  0  0  0  0  0  0
  2  1  1  0
  2  4  1  0
  3  2  2  0
  4  5  1  0
  5  7  1  0
  5  6  1  1
  7  8  2  0
  9  7  1  0
  9 10  1  0
 10 13  1  0
 11 12  1  0
 10 11  1  1
 13 21  1  0
 14 13  2  0
 16 15  1  0
 17 16  2  0
 18 16  1  0
 19 18  1  0
 20 19  1  6
 21 20  1  0
 22 20  1  0
 22 24  1  0
 23 22  2  0
M  END
$$$$
