NCQ.pdb
     RDKit          3D

 24 23  0  0  1  0  0  0  0  0999 V2000
    6.0192  -18.9461   17.3076 N   0  0  0  0  0  0  0  0  0  0  0  0
    6.9061  -19.6731   18.1422 C   0  0  0  0  0  0  0  0  0  0  0  0
    7.1771  -20.8647   17.8590 O   0  0  0  0  0  0  0  0  0  0  0  0
    7.4906  -19.0058   19.3285 C   0  0  0  0  0  0  0  0  0  0  0  0
    7.7390  -17.5437   19.0027 C   0  0  2  0  0  0  0  0  0  0  0  0
    8.5898  -17.4929   17.8476 N   0  0  0  0  0  0  0  0  0  0  0  0
    8.3606  -16.8312   20.1421 C   0  0  0  0  0  0  0  0  0  0  0  0
    9.5551  -17.0775   20.4685 O   0  0  0  0  0  0  0  0  0  0  0  0
    7.6849  -15.8540   20.9238 N   0  0  0  0  0  0  0  0  0  0  0  0
    8.2084  -15.3000   22.1353 C   0  0  1  0  0  0  0  0  0  0  0  0
    7.2796  -14.3091   22.7955 C   0  0  0  0  0  0  0  0  0  0  0  0
    8.0141  -13.5753   24.2807 S   0  0  0  0  0  0  0  0  0  0  0  0
    8.5007  -16.3531   23.1565 C   0  0  0  0  0  0  0  0  0  0  0  0
    7.8066  -17.4022   23.1686 O   0  0  0  0  0  0  0  0  0  0  0  0
   12.0339  -21.4919   24.3567 N   0  0  0  0  0  0  0  0  0  0  0  0
   11.1440  -20.7587   23.5392 C   0  0  0  0  0  0  0  0  0  0  0  0
   11.1599  -21.0148   22.2900 O   0  0  0  0  0  0  0  0  0  0  0  0
   10.2155  -19.7388   24.0639 C   0  0  0  0  0  0  0  0  0  0  0  0
   10.5841  -18.3284   23.8277 C   0  0  0  0  0  0  0  0  0  0  0  0
   10.1280  -17.3351   24.8329 C   0  0  2  0  0  0  0  0  0  0  0  0
    9.5270  -16.2039   24.1014 N   0  0  0  0  0  0  0  0  0  0  0  0
   11.0668  -16.8028   25.7981 C   0  0  0  0  0  0  0  0  0  0  0  0
   11.1302  -17.2623   26.9744 O   0  0  0  0  0  0  0  0  0  0  0  0
   11.9495  -15.7792   25.5042 O   0  0  0  0  0  0  0  0  0  0  0  0
  2  1  1  0
  2  4  1  0
  3  2  2  0
  4  5  1  0
  5  7  1  0
  5  6  1  6
  7  8  2  0
  9  7  1  0
  9 10  1  0
 10 13  1  0
 11 12  1  0
 10 11  1  1
 13 21  1  0
 14 13  2  0
 16 15  1  0
 17 16  2  0
 18 16  1  0
 19 18  1  0
 20 19  1  6
 21 20  1  0
 22 20  1  0
 22 24  1  0
 23 22  2  0
M  END
$$$$
