NCQ.pdb
     RDKit          3D

 24 23  0  0  1  0  0  0  0  0999 V2000
    2.7602  -17.4361   21.2309 N   0  0  0  0  0  0  0  0  0  0  0  0
    3.5703  -18.6002   21.2474 C   0  0  0  0  0  0  0  0  0  0  0  0
    3.0450  -19.7166   21.0210 O   0  0  0  0  0  0  0  0  0  0  0  0
    5.0180  -18.4678   21.5318 C   0  0  0  0  0  0  0  0  0  0  0  0
    5.7192  -17.9329   20.2959 C   0  0  2  0  0  0  0  0  0  0  0  0
    6.1758  -19.0592   19.5318 N   0  0  0  0  0  0  0  0  0  0  0  0
    6.8522  -17.0493   20.6536 C   0  0  0  0  0  0  0  0  0  0  0  0
    7.9607  -17.5471   20.9964 O   0  0  0  0  0  0  0  0  0  0  0  0
    6.7794  -15.6291   20.6384 N   0  0  0  0  0  0  0  0  0  0  0  0
    7.8171  -14.7718   21.1252 C   0  0  1  0  0  0  0  0  0  0  0  0
    7.6114  -13.3175   20.7745 C   0  0  0  0  0  0  0  0  0  0  0  0
    7.6794  -13.0341   18.9859 S   0  0  0  0  0  0  0  0  0  0  0  0
    7.9482  -14.8348   22.6138 C   0  0  0  0  0  0  0  0  0  0  0  0
    6.9249  -14.6642   23.3253 O   0  0  0  0  0  0  0  0  0  0  0  0
    7.4333  -19.4808   25.0265 N   0  0  0  0  0  0  0  0  0  0  0  0
    7.8846  -18.7739   26.1643 C   0  0  0  0  0  0  0  0  0  0  0  0
    7.7286  -19.3386   27.2970 O   0  0  0  0  0  0  0  0  0  0  0  0
    8.5196  -17.4438   26.0925 C   0  0  0  0  0  0  0  0  0  0  0  0
    8.4910  -16.7702   24.7787 C   0  0  0  0  0  0  0  0  0  0  0  0
    9.3054  -15.5366   24.6358 C   0  0  2  0  0  0  0  0  0  0  0  0
    9.1802  -15.0787   23.2392 N   0  0  0  0  0  0  0  0  0  0  0  0
   10.7112  -15.5566   24.9817 C   0  0  0  0  0  0  0  0  0  0  0  0
   11.6044  -15.6596   24.0926 O   0  0  0  0  0  0  0  0  0  0  0  0
   11.1676  -15.4578   26.2837 O   0  0  0  0  0  0  0  0  0  0  0  0
  2  1  1  0
  2  4  1  0
  3  2  2  0
  4  5  1  0
  5  7  1  0
  5  6  1  1
  7  8  2  0
  9  7  1  0
  9 10  1  0
 10 13  1  0
 11 12  1  0
 10 11  1  1
 13 21  1  0
 14 13  2  0
 16 15  1  0
 17 16  2  0
 18 16  1  0
 19 18  1  0
 20 19  1  6
 21 20  1  0
 22 20  1  0
 22 24  1  0
 23 22  2  0
M  END
$$$$
