NCQ.pdb
     RDKit          3D

 24 23  0  0  1  0  0  0  0  0999 V2000
    7.6060  -12.5117   17.9703 N   0  0  0  0  0  0  0  0  0  0  0  0
    8.2042  -13.6169   18.6278 C   0  0  0  0  0  0  0  0  0  0  0  0
    8.2223  -14.7339   18.0574 O   0  0  0  0  0  0  0  0  0  0  0  0
    8.7932  -13.4236   19.9732 C   0  0  0  0  0  0  0  0  0  0  0  0
    8.0601  -14.3072   20.9669 C   0  0  2  0  0  0  0  0  0  0  0  0
    6.6708  -13.9481   20.9274 N   0  0  0  0  0  0  0  0  0  0  0  0
    8.6022  -14.1510   22.3359 C   0  0  0  0  0  0  0  0  0  0  0  0
    9.8494  -14.1793   22.5310 O   0  0  0  0  0  0  0  0  0  0  0  0
    7.7904  -13.9646   23.4885 N   0  0  0  0  0  0  0  0  0  0  0  0
    8.2668  -14.1040   24.8310 C   0  0  1  0  0  0  0  0  0  0  0  0
    7.4769  -13.3017   25.8372 C   0  0  0  0  0  0  0  0  0  0  0  0
    5.6898  -13.4784   25.5944 S   0  0  0  0  0  0  0  0  0  0  0  0
    8.2294  -15.5246   25.2977 C   0  0  0  0  0  0  0  0  0  0  0  0
    7.4831  -16.3440   24.7026 O   0  0  0  0  0  0  0  0  0  0  0  0
   12.2675  -19.2764   22.7211 N   0  0  0  0  0  0  0  0  0  0  0  0
   12.3946  -18.3463   23.7779 C   0  0  0  0  0  0  0  0  0  0  0  0
   13.2941  -17.4506   23.6566 O   0  0  0  0  0  0  0  0  0  0  0  0
   11.5428  -18.3678   24.9827 C   0  0  0  0  0  0  0  0  0  0  0  0
   10.5920  -17.2485   25.1374 C   0  0  0  0  0  0  0  0  0  0  0  0
    9.7640  -17.2329   26.3701 C   0  0  2  0  0  0  0  0  0  0  0  0
    9.0031  -15.9692   26.3803 N   0  0  0  0  0  0  0  0  0  0  0  0
   10.3939  -17.3930   27.6639 C   0  0  0  0  0  0  0  0  0  0  0  0
   10.7063  -16.3918   28.3700 O   0  0  0  0  0  0  0  0  0  0  0  0
   10.6849  -18.6293   28.2116 O   0  0  0  0  0  0  0  0  0  0  0  0
  2  1  1  0
  2  4  1  0
  3  2  2  0
  4  5  1  0
  5  7  1  0
  5  6  1  1
  7  8  2  0
  9  7  1  0
  9 10  1  0
 10 13  1  0
 11 12  1  0
 10 11  1  1
 13 21  1  0
 14 13  2  0
 16 15  1  0
 17 16  2  0
 18 16  1  0
 19 18  1  0
 20 19  1  6
 21 20  1  0
 22 20  1  0
 22 24  1  0
 23 22  2  0
M  END
$$$$
