NCQ.pdb
     RDKit          3D

 24 23  0  0  1  0  0  0  0  0999 V2000
    5.4856  -15.9709   19.8437 N   0  0  0  0  0  0  0  0  0  0  0  0
    6.8796  -15.7604   19.6886 C   0  0  0  0  0  0  0  0  0  0  0  0
    7.3792  -15.7822   18.5382 O   0  0  0  0  0  0  0  0  0  0  0  0
    7.7111  -15.5199   20.8908 C   0  0  0  0  0  0  0  0  0  0  0  0
    7.5501  -14.0735   21.3236 C   0  0  2  0  0  0  0  0  0  0  0  0
    8.0885  -13.2444   20.2827 N   0  0  0  0  0  0  0  0  0  0  0  0
    8.2367  -13.8115   22.6090 C   0  0  0  0  0  0  0  0  0  0  0  0
    9.4851  -13.9733   22.7055 O   0  0  0  0  0  0  0  0  0  0  0  0
    7.5673  -13.3749   23.7854 N   0  0  0  0  0  0  0  0  0  0  0  0
    8.1194  -13.4772   25.1020 C   0  0  1  0  0  0  0  0  0  0  0  0
    7.3076  -12.7589   26.1533 C   0  0  0  0  0  0  0  0  0  0  0  0
    5.5292  -13.0409   25.9483 S   0  0  0  0  0  0  0  0  0  0  0  0
    8.2378  -14.8979   25.5547 C   0  0  0  0  0  0  0  0  0  0  0  0
    7.6163  -15.7933   24.9267 O   0  0  0  0  0  0  0  0  0  0  0  0
   11.5456  -18.1510   23.3537 N   0  0  0  0  0  0  0  0  0  0  0  0
   12.1548  -18.1866   24.6287 C   0  0  0  0  0  0  0  0  0  0  0  0
   13.3376  -18.6589   24.6929 O   0  0  0  0  0  0  0  0  0  0  0  0
   11.4934  -17.7038   25.8563 C   0  0  0  0  0  0  0  0  0  0  0  0
   10.1382  -17.1394   25.6961 C   0  0  0  0  0  0  0  0  0  0  0  0
    9.4657  -16.6421   26.9232 C   0  0  2  0  0  0  0  0  0  0  0  0
    9.0224  -15.2601   26.6600 N   0  0  0  0  0  0  0  0  0  0  0  0
   10.1697  -16.6588   28.1884 C   0  0  0  0  0  0  0  0  0  0  0  0
   10.5242  -15.5862   28.7563 O   0  0  0  0  0  0  0  0  0  0  0  0
   10.4902  -17.8270   28.8560 O   0  0  0  0  0  0  0  0  0  0  0  0
  2  1  1  0
  2  4  1  0
  3  2  2  0
  4  5  1  0
  5  7  1  0
  5  6  1  6
  7  8  2  0
  9  7  1  0
  9 10  1  0
 10 13  1  0
 11 12  1  0
 10 11  1  1
 13 21  1  0
 14 13  2  0
 16 15  1  0
 17 16  2  0
 18 16  1  0
 19 18  1  0
 20 19  1  6
 21 20  1  0
 22 20  1  0
 22 24  1  0
 23 22  2  0
M  END
$$$$
