NCQ.pdb
     RDKit          3D

 24 23  0  0  1  0  0  0  0  0999 V2000
   16.1596  -22.9757   25.2064 N   0  0  0  0  0  0  0  0  0  0  0  0
   17.0025  -21.8557   25.4225 C   0  0  0  0  0  0  0  0  0  0  0  0
   17.9057  -21.5980   24.5911 O   0  0  0  0  0  0  0  0  0  0  0  0
   16.7945  -21.0178   26.6263 C   0  0  0  0  0  0  0  0  0  0  0  0
   15.6290  -21.5759   27.4234 C   0  0  2  0  0  0  0  0  0  0  0  0
   14.4209  -21.2323   26.7282 N   0  0  0  0  0  0  0  0  0  0  0  0
   15.6088  -21.0403   28.8037 C   0  0  0  0  0  0  0  0  0  0  0  0
   16.1428  -19.9251   29.0589 O   0  0  0  0  0  0  0  0  0  0  0  0
   15.0096  -21.7157   29.9024 N   0  0  0  0  0  0  0  0  0  0  0  0
   14.8990  -21.1595   31.2166 C   0  0  1  0  0  0  0  0  0  0  0  0
   13.9547  -19.9839   31.2960 C   0  0  0  0  0  0  0  0  0  0  0  0
   12.4774  -20.2293   30.2756 S   0  0  0  0  0  0  0  0  0  0  0  0
   14.4126  -22.1625   32.2140 C   0  0  0  0  0  0  0  0  0  0  0  0
   13.3397  -22.7789   31.9876 O   0  0  0  0  0  0  0  0  0  0  0  0
   15.1662  -27.2702   31.7629 N   0  0  0  0  0  0  0  0  0  0  0  0
   16.3261  -26.5891   32.1974 C   0  0  0  0  0  0  0  0  0  0  0  0
   17.4507  -27.0809   31.8517 O   0  0  0  0  0  0  0  0  0  0  0  0
   16.2859  -25.3576   33.0095 C   0  0  0  0  0  0  0  0  0  0  0  0
   14.9474  -24.8166   33.3201 C   0  0  0  0  0  0  0  0  0  0  0  0
   14.8896  -23.6365   34.2197 C   0  0  2  0  0  0  0  0  0  0  0  0
   15.1192  -22.4353   33.3950 N   0  0  0  0  0  0  0  0  0  0  0  0
   15.7603  -23.5666   35.3744 C   0  0  0  0  0  0  0  0  0  0  0  0
   15.6288  -24.3662   36.3449 O   0  0  0  0  0  0  0  0  0  0  0  0
   16.7834  -22.6429   35.4908 O   0  0  0  0  0  0  0  0  0  0  0  0
  2  1  1  0
  2  4  1  0
  3  2  2  0
  4  5  1  0
  5  7  1  0
  5  6  1  6
  7  8  2  0
  9  7  1  0
  9 10  1  0
 10 13  1  0
 11 12  1  0
 10 11  1  6
 13 21  1  0
 14 13  2  0
 16 15  1  0
 17 16  2  0
 18 16  1  0
 19 18  1  0
 20 19  1  6
 21 20  1  0
 22 20  1  0
 22 24  1  0
 23 22  2  0
M  END
$$$$
