NCQ.pdb
     RDKit          3D

 24 23  0  0  1  0  0  0  0  0999 V2000
   13.5739  -17.9889   18.1184 N   0  0  0  0  0  0  0  0  0  0  0  0
   12.4297  -17.1561   18.2122 C   0  0  0  0  0  0  0  0  0  0  0  0
   11.7218  -16.9690   17.1938 O   0  0  0  0  0  0  0  0  0  0  0  0
   12.0995  -16.5275   19.5123 C   0  0  0  0  0  0  0  0  0  0  0  0
   10.8611  -17.1940   20.0848 C   0  0  2  0  0  0  0  0  0  0  0  0
    9.8094  -17.0651   19.1163 N   0  0  0  0  0  0  0  0  0  0  0  0
   10.4628  -16.5842   21.3740 C   0  0  0  0  0  0  0  0  0  0  0  0
   11.2923  -16.5089   22.3229 O   0  0  0  0  0  0  0  0  0  0  0  0
    9.1666  -16.0581   21.6299 N   0  0  0  0  0  0  0  0  0  0  0  0
    8.7435  -15.5641   22.9049 C   0  0  1  0  0  0  0  0  0  0  0  0
    7.4583  -14.7733   22.8485 C   0  0  0  0  0  0  0  0  0  0  0  0
    6.8936  -14.2766   24.4973 S   0  0  0  0  0  0  0  0  0  0  0  0
    8.5203  -16.6666   23.8908 C   0  0  0  0  0  0  0  0  0  0  0  0
    7.7934  -17.6402   23.5648 O   0  0  0  0  0  0  0  0  0  0  0  0
   11.7451  -17.1216   29.4729 N   0  0  0  0  0  0  0  0  0  0  0  0
   10.8927  -18.2484   29.4310 C   0  0  0  0  0  0  0  0  0  0  0  0
   10.9835  -19.0798   30.3937 O   0  0  0  0  0  0  0  0  0  0  0  0
    9.9214  -18.4897   28.3466 C   0  0  0  0  0  0  0  0  0  0  0  0
    9.9334  -17.5284   27.2255 C   0  0  0  0  0  0  0  0  0  0  0  0
    8.9174  -17.7229   26.1601 C   0  0  2  0  0  0  0  0  0  0  0  0
    9.0987  -16.6457   25.1688 N   0  0  0  0  0  0  0  0  0  0  0  0
    7.5130  -17.7884   26.5061 C   0  0  0  0  0  0  0  0  0  0  0  0
    6.7894  -16.7515   26.5115 O   0  0  0  0  0  0  0  0  0  0  0  0
    6.8744  -18.9688   26.8408 O   0  0  0  0  0  0  0  0  0  0  0  0
  2  1  1  0
  2  4  1  0
  3  2  2  0
  4  5  1  0
  5  7  1  0
  5  6  1  6
  7  8  2  0
  9  7  1  0
  9 10  1  0
 10 13  1  0
 11 12  1  0
 10 11  1  6
 13 21  1  0
 14 13  2  0
 16 15  1  0
 17 16  2  0
 18 16  1  0
 19 18  1  0
 20 19  1  1
 21 20  1  0
 22 20  1  0
 22 24  1  0
 23 22  2  0
M  END
$$$$
