NCQ.pdb
     RDKit          3D

 24 23  0  0  1  0  0  0  0  0999 V2000
   10.2298  -16.7913   15.7774 N   0  0  0  0  0  0  0  0  0  0  0  0
    9.1268  -16.7352   16.6672 C   0  0  0  0  0  0  0  0  0  0  0  0
    8.0957  -17.4013   16.4090 O   0  0  0  0  0  0  0  0  0  0  0  0
    9.2207  -15.8903   17.8803 C   0  0  0  0  0  0  0  0  0  0  0  0
    9.2990  -16.7863   19.1036 C   0  0  2  0  0  0  0  0  0  0  0  0
    8.0624  -17.5097   19.1942 N   0  0  0  0  0  0  0  0  0  0  0  0
    9.5383  -16.0025   20.3368 C   0  0  0  0  0  0  0  0  0  0  0  0
   10.5640  -15.2729   20.4353 O   0  0  0  0  0  0  0  0  0  0  0  0
    8.6646  -16.0123   21.4588 N   0  0  0  0  0  0  0  0  0  0  0  0
    9.0563  -15.6202   22.7785 C   0  0  1  0  0  0  0  0  0  0  0  0
    7.9034  -15.1571   23.6368 C   0  0  0  0  0  0  0  0  0  0  0  0
    6.5762  -16.3886   23.7134 S   0  0  0  0  0  0  0  0  0  0  0  0
    9.7195  -16.7344   23.5241 C   0  0  0  0  0  0  0  0  0  0  0  0
    9.6852  -17.8966   23.0439 O   0  0  0  0  0  0  0  0  0  0  0  0
   14.8339  -17.6850   22.6763 N   0  0  0  0  0  0  0  0  0  0  0  0
   14.5222  -16.5058   23.3907 C   0  0  0  0  0  0  0  0  0  0  0  0
   15.3051  -15.5110   23.2369 O   0  0  0  0  0  0  0  0  0  0  0  0
   13.3510  -16.3831   24.2800 C   0  0  0  0  0  0  0  0  0  0  0  0
   12.4938  -17.5786   24.4093 C   0  0  0  0  0  0  0  0  0  0  0  0
   11.3333  -17.4794   25.3306 C   0  0  2  0  0  0  0  0  0  0  0  0
   10.3787  -16.5201   24.7439 N   0  0  0  0  0  0  0  0  0  0  0  0
   11.5423  -17.1199   26.7174 C   0  0  0  0  0  0  0  0  0  0  0  0
   11.0165  -16.0821   27.2128 O   0  0  0  0  0  0  0  0  0  0  0  0
   12.3106  -17.8766   27.5837 O   0  0  0  0  0  0  0  0  0  0  0  0
  2  1  1  0
  2  4  1  0
  3  2  2  0
  4  5  1  0
  5  7  1  0
  5  6  1  1
  7  8  2  0
  9  7  1  0
  9 10  1  0
 10 13  1  0
 11 12  1  0
 10 11  1  1
 13 21  1  0
 14 13  2  0
 16 15  1  0
 17 16  2  0
 18 16  1  0
 19 18  1  0
 20 19  1  6
 21 20  1  0
 22 20  1  0
 22 24  1  0
 23 22  2  0
M  END
$$$$
