NCQ.pdb
     RDKit          3D

 24 23  0  0  1  0  0  0  0  0999 V2000
   10.9122  -15.1106   13.1190 N   0  0  0  0  0  0  0  0  0  0  0  0
   10.2197  -15.6741   14.2211 C   0  0  0  0  0  0  0  0  0  0  0  0
    9.4740  -16.6655   14.0353 O   0  0  0  0  0  0  0  0  0  0  0  0
   10.3952  -15.0768   15.5652 C   0  0  0  0  0  0  0  0  0  0  0  0
   11.3189  -15.9609   16.3840 C   0  0  2  0  0  0  0  0  0  0  0  0
   10.6944  -17.2476   16.5076 N   0  0  0  0  0  0  0  0  0  0  0  0
   11.5862  -15.3786   17.7188 C   0  0  0  0  0  0  0  0  0  0  0  0
   12.2011  -14.2805   17.8199 O   0  0  0  0  0  0  0  0  0  0  0  0
   11.1859  -15.9888   18.9394 N   0  0  0  0  0  0  0  0  0  0  0  0
   11.5439  -15.4938   20.2338 C   0  0  1  0  0  0  0  0  0  0  0  0
   10.6793  -16.0361   21.3468 C   0  0  0  0  0  0  0  0  0  0  0  0
   11.1973  -15.4207   22.9706 S   0  0  0  0  0  0  0  0  0  0  0  0
   12.9570  -15.8269   20.5937 C   0  0  0  0  0  0  0  0  0  0  0  0
   13.3839  -16.9908   20.3803 O   0  0  0  0  0  0  0  0  0  0  0  0
   18.0729  -12.3250   19.4754 N   0  0  0  0  0  0  0  0  0  0  0  0
   17.6118  -13.4579   18.7670 C   0  0  0  0  0  0  0  0  0  0  0  0
   18.1474  -13.6900   17.6332 O   0  0  0  0  0  0  0  0  0  0  0  0
   16.5655  -14.3634   19.2797 C   0  0  0  0  0  0  0  0  0  0  0  0
   15.9679  -14.0088   20.5827 C   0  0  0  0  0  0  0  0  0  0  0  0
   15.2706  -15.0919   21.3216 C   0  0  2  0  0  0  0  0  0  0  0  0
   13.8199  -14.8781   21.1625 N   0  0  0  0  0  0  0  0  0  0  0  0
   15.5465  -15.2989   22.7278 C   0  0  0  0  0  0  0  0  0  0  0  0
   14.7104  -14.9671   23.6164 O   0  0  0  0  0  0  0  0  0  0  0  0
   16.7184  -15.8710   23.1888 O   0  0  0  0  0  0  0  0  0  0  0  0
  2  1  1  0
  2  4  1  0
  3  2  2  0
  4  5  1  0
  5  7  1  0
  5  6  1  1
  7  8  2  0
  9  7  1  0
  9 10  1  0
 10 13  1  0
 11 12  1  0
 10 11  1  1
 13 21  1  0
 14 13  2  0
 16 15  1  0
 17 16  2  0
 18 16  1  0
 19 18  1  0
 20 19  1  1
 21 20  1  0
 22 20  1  0
 22 24  1  0
 23 22  2  0
M  END
$$$$
