NCQ.pdb
     RDKit          3D

 24 23  0  0  1  0  0  0  0  0999 V2000
    9.0800  -13.5979   17.7519 N   0  0  0  0  0  0  0  0  0  0  0  0
    7.9550  -13.7905   18.5939 C   0  0  0  0  0  0  0  0  0  0  0  0
    6.9428  -14.3767   18.1410 O   0  0  0  0  0  0  0  0  0  0  0  0
    8.0043  -13.2936   19.9886 C   0  0  0  0  0  0  0  0  0  0  0  0
    7.9545  -14.4771   20.9385 C   0  0  2  0  0  0  0  0  0  0  0  0
    6.6166  -14.9970   20.9176 N   0  0  0  0  0  0  0  0  0  0  0  0
    8.3430  -14.0871   22.3130 C   0  0  0  0  0  0  0  0  0  0  0  0
    9.5517  -13.8440   22.5854 O   0  0  0  0  0  0  0  0  0  0  0  0
    7.4198  -13.9621   23.3875 N   0  0  0  0  0  0  0  0  0  0  0  0
    7.8050  -13.7554   24.7504 C   0  0  1  0  0  0  0  0  0  0  0  0
    6.7961  -12.9645   25.5484 C   0  0  0  0  0  0  0  0  0  0  0  0
    7.2593  -12.8401   27.2960 S   0  0  0  0  0  0  0  0  0  0  0  0
    8.0069  -15.0449   25.4809 C   0  0  0  0  0  0  0  0  0  0  0  0
    7.1636  -15.9672   25.3374 O   0  0  0  0  0  0  0  0  0  0  0  0
   10.8328  -17.8036   22.5551 N   0  0  0  0  0  0  0  0  0  0  0  0
   11.1024  -18.0395   23.9225 C   0  0  0  0  0  0  0  0  0  0  0  0
   11.6657  -19.1442   24.2199 O   0  0  0  0  0  0  0  0  0  0  0  0
   10.7714  -17.0773   24.9912 C   0  0  0  0  0  0  0  0  0  0  0  0
    9.7864  -17.5229   25.9971 C   0  0  0  0  0  0  0  0  0  0  0  0
    9.3693  -16.5289   27.0186 C   0  0  2  0  0  0  0  0  0  0  0  0
    9.1103  -15.2550   26.3216 N   0  0  0  0  0  0  0  0  0  0  0  0
   10.2266  -16.2582   28.1535 C   0  0  0  0  0  0  0  0  0  0  0  0
   10.6528  -17.1923   28.8916 O   0  0  0  0  0  0  0  0  0  0  0  0
   10.6387  -14.9837   28.4986 O   0  0  0  0  0  0  0  0  0  0  0  0
  2  1  1  0
  2  4  1  0
  3  2  2  0
  4  5  1  0
  5  7  1  0
  5  6  1  1
  7  8  2  0
  9  7  1  0
  9 10  1  0
 10 13  1  0
 11 12  1  0
 10 11  1  1
 13 21  1  0
 14 13  2  0
 16 15  1  0
 17 16  2  0
 18 16  1  0
 19 18  1  0
 20 19  1  6
 21 20  1  0
 22 20  1  0
 22 24  1  0
 23 22  2  0
M  END
$$$$
