NCQ.pdb
     RDKit          3D

 24 23  0  0  1  0  0  0  0  0999 V2000
   14.6966  -18.2932   18.0332 N   0  0  0  0  0  0  0  0  0  0  0  0
   13.3800  -17.7656   18.0342 C   0  0  0  0  0  0  0  0  0  0  0  0
   12.6109  -18.0338   17.0803 O   0  0  0  0  0  0  0  0  0  0  0  0
   12.9464  -16.9102   19.1631 C   0  0  0  0  0  0  0  0  0  0  0  0
   11.7995  -17.5909   19.8888 C   0  0  2  0  0  0  0  0  0  0  0  0
   10.6566  -17.5635   19.0205 N   0  0  0  0  0  0  0  0  0  0  0  0
   11.4962  -16.9214   21.1742 C   0  0  0  0  0  0  0  0  0  0  0  0
   12.4033  -16.7691   22.0392 O   0  0  0  0  0  0  0  0  0  0  0  0
   10.2106  -16.4195   21.5173 N   0  0  0  0  0  0  0  0  0  0  0  0
    9.8722  -15.9107   22.8117 C   0  0  1  0  0  0  0  0  0  0  0  0
    8.6071  -15.0863   22.8232 C   0  0  0  0  0  0  0  0  0  0  0  0
    8.2297  -14.4445   24.4754 S   0  0  0  0  0  0  0  0  0  0  0  0
    9.6752  -17.0041   23.8132 C   0  0  0  0  0  0  0  0  0  0  0  0
    8.9200  -17.9681   23.5252 O   0  0  0  0  0  0  0  0  0  0  0  0
   12.7548  -20.1653   22.3803 N   0  0  0  0  0  0  0  0  0  0  0  0
   11.8303  -20.8654   23.1885 C   0  0  0  0  0  0  0  0  0  0  0  0
   11.5144  -22.0444   22.8195 O   0  0  0  0  0  0  0  0  0  0  0  0
   11.2369  -20.3004   24.4158 C   0  0  0  0  0  0  0  0  0  0  0  0
   11.6603  -18.9344   24.7839 C   0  0  0  0  0  0  0  0  0  0  0  0
   10.8002  -18.1981   25.7449 C   0  0  2  0  0  0  0  0  0  0  0  0
   10.3088  -16.9850   25.0648 N   0  0  0  0  0  0  0  0  0  0  0  0
   11.3291  -17.8110   27.0359 C   0  0  0  0  0  0  0  0  0  0  0  0
   11.2069  -18.5607   28.0468 O   0  0  0  0  0  0  0  0  0  0  0  0
   11.9998  -16.6201   27.2483 O   0  0  0  0  0  0  0  0  0  0  0  0
  2  1  1  0
  2  4  1  0
  3  2  2  0
  4  5  1  0
  5  7  1  0
  5  6  1  6
  7  8  2  0
  9  7  1  0
  9 10  1  0
 10 13  1  0
 11 12  1  0
 10 11  1  6
 13 21  1  0
 14 13  2  0
 16 15  1  0
 17 16  2  0
 18 16  1  0
 19 18  1  0
 20 19  1  6
 21 20  1  0
 22 20  1  0
 22 24  1  0
 23 22  2  0
M  END
$$$$
