NRH.pdb
     RDKit          3D

 30 30  0  0  1  0  0  0  0  0999 V2000
   26.3666  -13.0848  -15.6490 N   0  0  0  0  0  0  0  0  0  0  0  0
   26.5036  -13.5992  -16.9655 C   0  0  0  0  0  0  0  0  0  0  0  0
   27.0147  -12.8421  -17.8302 O   0  0  0  0  0  0  0  0  0  0  0  0
   26.0585  -14.9687  -17.2870 C   0  0  0  0  0  0  0  0  0  0  0  0
   25.3895  -15.5510  -16.0374 C   0  0  2  0  0  0  0  0  0  0  0  0
   26.4480  -15.6259  -15.0335 N   0  0  0  0  0  0  0  0  0  0  0  0
   24.8451  -16.9073  -16.3082 C   0  0  0  0  0  0  0  0  0  0  0  0
   24.0019  -17.0705  -17.2273 O   0  0  0  0  0  0  0  0  0  0  0  0
   25.5180  -25.0867  -15.9543 N   0  0  0  0  0  0  0  0  0  0  0  0
   26.5941  -24.5150  -16.6736 C   0  0  0  0  0  0  0  0  0  0  0  0
   27.0707  -25.0607  -17.7566 N   0  0  0  0  0  0  0  0  0  0  0  0
   27.2354  -23.3055  -16.2692 N   0  0  0  0  0  0  0  0  0  0  0  0
   26.7606  -22.5394  -15.1670 C   0  0  0  0  0  0  0  0  0  0  0  0
   25.4737  -21.7818  -15.4605 C   0  0  0  0  0  0  0  0  0  0  0  0
   25.8292  -20.3283  -15.5255 C   0  0  0  0  0  0  0  0  0  0  0  0
   24.7060  -19.3861  -15.8323 C   0  0  2  0  0  0  0  0  0  0  0  0
   25.2497  -18.0283  -15.5576 N   0  0  0  0  0  0  0  0  0  0  0  0
   23.5098  -19.5407  -14.9782 C   0  0  0  0  0  0  0  0  0  0  0  0
   23.6536  -19.5169  -13.7006 O   0  0  0  0  0  0  0  0  0  0  0  0
   27.8993  -24.5945  -18.1843 N   0  0  0  0  0  0  0  0  0  0  0  0
   22.1820  -19.7137  -15.4669 C   0  0  2  0  0  0  0  0  0  0  0  0
   21.0857  -19.8813  -14.5202 C   0  0  0  0  0  0  0  0  0  0  0  0
   19.8711  -19.1462  -15.0163 C   0  0  0  0  0  0  0  0  0  0  0  0
   20.0016  -17.6827  -14.9003 C   0  0  0  0  0  0  0  0  0  0  0  0
   21.0745  -16.9737  -14.3795 N   0  0  0  0  0  0  0  0  0  0  0  0
   20.8137  -15.6564  -14.4351 C   0  0  0  0  0  0  0  0  0  0  0  0
   19.5952  -15.5179  -14.9815 N   0  0  0  0  0  0  0  0  0  0  0  0
   19.1004  -16.7274  -15.2637 C   0  0  0  0  0  0  0  0  0  0  0  0
   20.8045  -21.3180  -14.3299 O   0  0  0  0  0  0  0  0  0  0  0  0
   20.0604  -21.7279  -13.2360 O   0  0  0  0  0  0  0  0  0  0  0  0
  2  1  1  0
  3  2  2  0
  4  2  1  0
  4  5  1  0
  5  6  1  1
  7  5  1  0
  7  8  2  0
 10 12  1  0
 10  9  1  0
 11 10  2  0
 13 14  1  0
 13 12  1  0
 14 15  1  0
 16 15  1  1
 16 17  1  0
 17  7  1  0
 18 16  1  0
 19 18  2  0
 20 18  1  0
 21 28  1  0
 21 20  1  0
 21 22  1  1
 23 22  1  0
 24 23  2  0
 25 24  1  0
 26 25  1  0
 26 27  2  0
 27 23  1  0
 28 29  1  0
 30 28  2  0
M  END
$$$$
