NRH.pdb
     RDKit          3D

 30 30  0  0  1  0  0  0  0  0999 V2000
   24.0493  -14.9890  -21.1364 N   0  0  0  0  0  0  0  0  0  0  0  0
   24.7300  -15.5020  -20.0007 C   0  0  0  0  0  0  0  0  0  0  0  0
   25.7090  -14.8414  -19.5680 O   0  0  0  0  0  0  0  0  0  0  0  0
   24.2921  -16.7608  -19.3676 C   0  0  0  0  0  0  0  0  0  0  0  0
   25.5328  -17.4566  -18.7977 C   0  0  2  0  0  0  0  0  0  0  0  0
   26.2935  -17.9022  -19.9623 N   0  0  0  0  0  0  0  0  0  0  0  0
   25.1508  -18.6233  -17.9598 C   0  0  0  0  0  0  0  0  0  0  0  0
   24.8978  -19.7285  -18.5048 O   0  0  0  0  0  0  0  0  0  0  0  0
   25.9201  -19.2431   -9.6538 N   0  0  0  0  0  0  0  0  0  0  0  0
   25.7895  -20.6193   -9.9562 C   0  0  0  0  0  0  0  0  0  0  0  0
   25.2724  -21.4676   -9.1130 N   0  0  0  0  0  0  0  0  0  0  0  0
   26.2125  -21.1788  -11.1994 N   0  0  0  0  0  0  0  0  0  0  0  0
   26.3901  -20.3738  -12.3603 C   0  0  0  0  0  0  0  0  0  0  0  0
   25.3435  -20.6186  -13.4377 C   0  0  0  0  0  0  0  0  0  0  0  0
   25.6274  -19.6538  -14.5477 C   0  0  0  0  0  0  0  0  0  0  0  0
   24.6948  -19.7006  -15.7188 C   0  0  2  0  0  0  0  0  0  0  0  0
   25.0625  -18.5274  -16.5574 N   0  0  0  0  0  0  0  0  0  0  0  0
   23.2635  -19.5462  -15.3843 C   0  0  0  0  0  0  0  0  0  0  0  0
   22.8738  -18.4605  -14.8160 O   0  0  0  0  0  0  0  0  0  0  0  0
   25.2990  -22.4720   -9.3912 N   0  0  0  0  0  0  0  0  0  0  0  0
   22.2594  -20.5224  -15.6500 C   0  0  2  0  0  0  0  0  0  0  0  0
   20.8915  -20.2834  -15.2049 C   0  0  0  0  0  0  0  0  0  0  0  0
   19.9491  -21.1793  -15.9604 C   0  0  0  0  0  0  0  0  0  0  0  0
   19.7175  -20.7284  -17.3443 C   0  0  0  0  0  0  0  0  0  0  0  0
   19.9167  -19.4547  -17.8573 N   0  0  0  0  0  0  0  0  0  0  0  0
   19.5811  -19.4354  -19.1585 C   0  0  0  0  0  0  0  0  0  0  0  0
   19.1728  -20.6735  -19.4794 N   0  0  0  0  0  0  0  0  0  0  0  0
   19.2511  -21.4558  -18.3981 C   0  0  0  0  0  0  0  0  0  0  0  0
   20.7935  -20.5052  -13.7487 O   0  0  0  0  0  0  0  0  0  0  0  0
   19.9444  -19.7130  -12.9941 O   0  0  0  0  0  0  0  0  0  0  0  0
  2  1  1  0
  3  2  2  0
  4  2  1  0
  4  5  1  0
  5  6  1  6
  7  5  1  0
  7  8  2  0
 10 12  1  0
 10  9  1  0
 11 10  2  0
 13 14  1  0
 13 12  1  0
 14 15  1  0
 16 15  1  1
 16 17  1  0
 17  7  1  0
 18 16  1  0
 19 18  2  0
 20 18  1  0
 21 28  1  0
 21 20  1  0
 21 22  1  6
 23 22  1  0
 24 23  2  0
 25 24  1  0
 26 25  1  0
 26 27  2  0
 27 23  1  0
 28 29  1  0
 30 28  2  0
M  END
$$$$
