NRH.pdb
     RDKit          3D

 30 30  0  0  1  0  0  0  0  0999 V2000
   29.3009  -11.0164  -16.1629 N   0  0  0  0  0  0  0  0  0  0  0  0
   28.7895  -11.5041  -17.3946 C   0  0  0  0  0  0  0  0  0  0  0  0
   29.6029  -12.0581  -18.1779 O   0  0  0  0  0  0  0  0  0  0  0  0
   27.3589  -11.3575  -17.7248 C   0  0  0  0  0  0  0  0  0  0  0  0
   26.7027  -10.5301  -16.6144 C   0  0  2  0  0  0  0  0  0  0  0  0
   26.7080  -11.3938  -15.4363 N   0  0  0  0  0  0  0  0  0  0  0  0
   25.3075  -10.1665  -16.9753 C   0  0  0  0  0  0  0  0  0  0  0  0
   25.0926   -9.4084  -17.9558 O   0  0  0  0  0  0  0  0  0  0  0  0
   18.0407  -14.5688  -14.8234 N   0  0  0  0  0  0  0  0  0  0  0  0
   17.5453  -13.4546  -15.5414 C   0  0  0  0  0  0  0  0  0  0  0  0
   16.3082  -13.3850  -15.9448 N   0  0  0  0  0  0  0  0  0  0  0  0
   18.3584  -12.3304  -15.8769 N   0  0  0  0  0  0  0  0  0  0  0  0
   19.7791  -12.4185  -15.9122 C   0  0  0  0  0  0  0  0  0  0  0  0
   20.4650  -11.0922  -16.2065 C   0  0  0  0  0  0  0  0  0  0  0  0
   21.9401  -11.3512  -16.1876 C   0  0  0  0  0  0  0  0  0  0  0  0
   22.8200  -10.1870  -16.5250 C   0  0  2  0  0  0  0  0  0  0  0  0
   24.2058  -10.6510  -16.2436 N   0  0  0  0  0  0  0  0  0  0  0  0
   22.6046   -8.9808  -15.6988 C   0  0  0  0  0  0  0  0  0  0  0  0
   23.5341   -8.6085  -14.8919 O   0  0  0  0  0  0  0  0  0  0  0  0
   16.0404  -12.5264  -16.4719 N   0  0  0  0  0  0  0  0  0  0  0  0
   21.4268   -8.1785  -15.7278 C   0  0  2  0  0  0  0  0  0  0  0  0
   21.4878   -6.7982  -15.2616 C   0  0  0  0  0  0  0  0  0  0  0  0
   22.6000   -6.0734  -15.9683 C   0  0  0  0  0  0  0  0  0  0  0  0
   22.7008   -4.6569  -15.5735 C   0  0  0  0  0  0  0  0  0  0  0  0
   22.0313   -4.0244  -14.5358 N   0  0  0  0  0  0  0  0  0  0  0  0
   22.3777   -2.7264  -14.5010 C   0  0  0  0  0  0  0  0  0  0  0  0
   23.2543   -2.5248  -15.4977 N   0  0  0  0  0  0  0  0  0  0  0  0
   23.4542   -3.6766  -16.1463 C   0  0  0  0  0  0  0  0  0  0  0  0
   20.1871   -6.1367  -15.4855 O   0  0  0  0  0  0  0  0  0  0  0  0
   19.6546   -5.3275  -14.4957 O   0  0  0  0  0  0  0  0  0  0  0  0
  2  1  1  0
  3  2  2  0
  4  2  1  0
  4  5  1  0
  5  6  1  1
  7  5  1  0
  7  8  2  0
 10 12  1  0
 10  9  1  0
 11 10  2  0
 13 14  1  0
 13 12  1  0
 14 15  1  0
 16 15  1  1
 16 17  1  0
 17  7  1  0
 18 16  1  0
 19 18  2  0
 20 18  1  0
 21 28  1  0
 21 20  1  0
 21 22  1  6
 23 22  1  0
 24 23  2  0
 25 24  1  0
 26 25  1  0
 26 27  2  0
 27 23  1  0
 28 29  1  0
 30 28  2  0
M  END
$$$$
