NRH.pdb
     RDKit          3D

 30 30  0  0  1  0  0  0  0  0999 V2000
   20.5972  -21.5880  -13.0235 N   0  0  0  0  0  0  0  0  0  0  0  0
   20.8598  -20.6039  -14.0130 C   0  0  0  0  0  0  0  0  0  0  0  0
   20.1633  -20.6383  -15.0597 O   0  0  0  0  0  0  0  0  0  0  0  0
   21.9113  -19.5902  -13.8038 C   0  0  0  0  0  0  0  0  0  0  0  0
   22.6099  -19.3535  -15.1469 C   0  0  2  0  0  0  0  0  0  0  0  0
   23.1855  -20.6448  -15.5144 N   0  0  0  0  0  0  0  0  0  0  0  0
   23.6836  -18.3340  -15.0161 C   0  0  0  0  0  0  0  0  0  0  0  0
   23.3932  -17.1617  -14.6644 O   0  0  0  0  0  0  0  0  0  0  0  0
   25.9229  -21.1398  -10.2539 N   0  0  0  0  0  0  0  0  0  0  0  0
   25.6018  -21.5091  -11.5816 C   0  0  0  0  0  0  0  0  0  0  0  0
   24.6118  -22.3101  -11.8574 N   0  0  0  0  0  0  0  0  0  0  0  0
   26.3341  -21.0358  -12.7119 N   0  0  0  0  0  0  0  0  0  0  0  0
   27.3499  -20.0463  -12.5843 C   0  0  0  0  0  0  0  0  0  0  0  0
   26.8637  -18.6330  -12.8715 C   0  0  0  0  0  0  0  0  0  0  0  0
   27.1769  -18.3484  -14.3083 C   0  0  0  0  0  0  0  0  0  0  0  0
   26.1131  -17.6395  -15.0889 C   0  0  2  0  0  0  0  0  0  0  0  0
   25.0322  -18.6449  -15.2773 N   0  0  0  0  0  0  0  0  0  0  0  0
   26.5182  -17.1994  -16.4403 C   0  0  0  0  0  0  0  0  0  0  0  0
   26.7108  -18.0882  -17.3494 O   0  0  0  0  0  0  0  0  0  0  0  0
   24.4749  -22.5482  -12.8631 N   0  0  0  0  0  0  0  0  0  0  0  0
   26.7128  -15.8410  -16.8257 C   0  0  1  0  0  0  0  0  0  0  0  0
   26.5811  -15.4680  -18.2292 C   0  0  0  0  0  0  0  0  0  0  0  0
   25.5664  -16.3552  -18.8962 C   0  0  0  0  0  0  0  0  0  0  0  0
   25.3949  -16.0515  -20.3283 C   0  0  0  0  0  0  0  0  0  0  0  0
   26.3199  -15.4634  -21.1789 N   0  0  0  0  0  0  0  0  0  0  0  0
   25.7885  -15.3414  -22.4073 C   0  0  0  0  0  0  0  0  0  0  0  0
   24.5437  -15.8412  -22.3505 N   0  0  0  0  0  0  0  0  0  0  0  0
   24.2988  -16.2694  -21.1079 C   0  0  0  0  0  0  0  0  0  0  0  0
   26.2034  -14.0447  -18.3351 O   0  0  0  0  0  0  0  0  0  0  0  0
   25.1720  -13.5530  -17.5525 O   0  0  0  0  0  0  0  0  0  0  0  0
  2  1  1  0
  3  2  2  0
  4  2  1  0
  4  5  1  0
  5  6  1  1
  7  5  1  0
  7  8  2  0
 10 12  1  0
 10  9  1  0
 11 10  2  0
 13 14  1  0
 13 12  1  0
 14 15  1  0
 16 15  1  6
 16 17  1  0
 17  7  1  0
 18 16  1  0
 19 18  2  0
 20 18  1  0
 21 28  1  0
 21 20  1  0
 21 22  1  6
 23 22  1  0
 24 23  2  0
 25 24  1  0
 26 25  1  0
 26 27  2  0
 27 23  1  0
 28 29  1  0
 30 28  2  0
M  END
$$$$
