NRH.pdb
     RDKit          3D

 30 30  0  0  1  0  0  0  0  0999 V2000
   24.6493  -21.2097  -11.3668 N   0  0  0  0  0  0  0  0  0  0  0  0
   25.9117  -20.6474  -11.0402 C   0  0  0  0  0  0  0  0  0  0  0  0
   26.4046  -20.9470   -9.9225 O   0  0  0  0  0  0  0  0  0  0  0  0
   26.6019  -19.7501  -11.9865 C   0  0  0  0  0  0  0  0  0  0  0  0
   25.6541  -19.4875  -13.1616 C   0  0  2  0  0  0  0  0  0  0  0  0
   25.4495  -20.7902  -13.7899 N   0  0  0  0  0  0  0  0  0  0  0  0
   26.2610  -18.5409  -14.1336 C   0  0  0  0  0  0  0  0  0  0  0  0
   26.5688  -17.3782  -13.7652 O   0  0  0  0  0  0  0  0  0  0  0  0
   31.4154  -20.7471  -20.7210 N   0  0  0  0  0  0  0  0  0  0  0  0
   31.1756  -19.3828  -21.0100 C   0  0  0  0  0  0  0  0  0  0  0  0
   31.7897  -18.7614  -21.9768 N   0  0  0  0  0  0  0  0  0  0  0  0
   30.2494  -18.5891  -20.2686 N   0  0  0  0  0  0  0  0  0  0  0  0
   29.5326  -19.1178  -19.1578 C   0  0  0  0  0  0  0  0  0  0  0  0
   28.6517  -18.0933  -18.4573 C   0  0  0  0  0  0  0  0  0  0  0  0
   28.0291  -18.7844  -17.2833 C   0  0  0  0  0  0  0  0  0  0  0  0
   27.1024  -17.9585  -16.4452 C   0  0  2  0  0  0  0  0  0  0  0  0
   26.5045  -18.9111  -15.4705 N   0  0  0  0  0  0  0  0  0  0  0  0
   25.9757  -17.3451  -17.1788 C   0  0  0  0  0  0  0  0  0  0  0  0
   24.8688  -17.9933  -17.2687 O   0  0  0  0  0  0  0  0  0  0  0  0
   31.5238  -17.7650  -22.1297 N   0  0  0  0  0  0  0  0  0  0  0  0
   26.0170  -16.0648  -17.8041 C   0  0  1  0  0  0  0  0  0  0  0  0
   24.7798  -15.4617  -18.2855 C   0  0  0  0  0  0  0  0  0  0  0  0
   23.7923  -15.3608  -17.1558 C   0  0  0  0  0  0  0  0  0  0  0  0
   22.5534  -14.6610  -17.5402 C   0  0  0  0  0  0  0  0  0  0  0  0
   22.2311  -14.1479  -18.7884 N   0  0  0  0  0  0  0  0  0  0  0  0
   21.0183  -13.5710  -18.7390 C   0  0  0  0  0  0  0  0  0  0  0  0
   20.5663  -13.7090  -17.4824 N   0  0  0  0  0  0  0  0  0  0  0  0
   21.4799  -14.3613  -16.7563 C   0  0  0  0  0  0  0  0  0  0  0  0
   25.0642  -14.1367  -18.8713 O   0  0  0  0  0  0  0  0  0  0  0  0
   24.0306  -13.4008  -19.4265 O   0  0  0  0  0  0  0  0  0  0  0  0
  2  1  1  0
  3  2  2  0
  4  2  1  0
  4  5  1  0
  5  6  1  6
  7  5  1  0
  7  8  2  0
 10 12  1  0
 10  9  1  0
 11 10  2  0
 13 14  1  0
 13 12  1  0
 14 15  1  0
 16 15  1  6
 16 17  1  0
 17  7  1  0
 18 16  1  0
 19 18  2  0
 20 18  1  0
 21 28  1  0
 21 20  1  0
 21 22  1  1
 23 22  1  0
 24 23  2  0
 25 24  1  0
 26 25  1  0
 26 27  2  0
 27 23  1  0
 28 29  1  0
 30 28  2  0
M  END
$$$$
