NRH.pdb
     RDKit          3D

 30 30  0  0  1  0  0  0  0  0999 V2000
   31.9919  -19.3203  -20.4690 N   0  0  0  0  0  0  0  0  0  0  0  0
   30.7221  -19.9559  -20.4706 C   0  0  0  0  0  0  0  0  0  0  0  0
   30.1371  -20.0730  -21.5779 O   0  0  0  0  0  0  0  0  0  0  0  0
   30.1289  -20.4523  -19.2141 C   0  0  0  0  0  0  0  0  0  0  0  0
   28.6832  -19.9490  -19.1458 C   0  0  2  0  0  0  0  0  0  0  0  0
   28.7817  -18.4917  -19.1590 N   0  0  0  0  0  0  0  0  0  0  0  0
   28.0193  -20.4051  -17.8966 C   0  0  0  0  0  0  0  0  0  0  0  0
   27.9138  -21.6356  -17.6579 O   0  0  0  0  0  0  0  0  0  0  0  0
   26.0962  -19.8380  -10.0498 N   0  0  0  0  0  0  0  0  0  0  0  0
   25.6599  -20.9284  -10.8392 C   0  0  0  0  0  0  0  0  0  0  0  0
   24.6246  -21.6492  -10.5129 N   0  0  0  0  0  0  0  0  0  0  0  0
   26.3174  -21.3192  -12.0445 N   0  0  0  0  0  0  0  0  0  0  0  0
   27.3137  -20.5031  -12.6516 C   0  0  0  0  0  0  0  0  0  0  0  0
   26.7615  -19.2297  -13.2759 C   0  0  0  0  0  0  0  0  0  0  0  0
   27.3987  -19.0941  -14.6246 C   0  0  0  0  0  0  0  0  0  0  0  0
   26.8278  -19.9485  -15.7143 C   0  0  2  0  0  0  0  0  0  0  0  0
   27.4984  -19.4899  -16.9613 N   0  0  0  0  0  0  0  0  0  0  0  0
   25.3752  -19.7908  -15.9358 C   0  0  0  0  0  0  0  0  0  0  0  0
   24.9170  -18.6274  -16.2360 O   0  0  0  0  0  0  0  0  0  0  0  0
   24.4176  -22.4668  -11.1257 N   0  0  0  0  0  0  0  0  0  0  0  0
   24.4224  -20.8471  -15.8454 C   0  0  1  0  0  0  0  0  0  0  0  0
   23.0024  -20.5456  -15.9832 C   0  0  0  0  0  0  0  0  0  0  0  0
   22.6126  -19.4797  -14.9965 C   0  0  0  0  0  0  0  0  0  0  0  0
   22.5764  -19.9719  -13.6077 C   0  0  0  0  0  0  0  0  0  0  0  0
   22.9491  -21.2281  -13.1517 N   0  0  0  0  0  0  0  0  0  0  0  0
   22.7603  -21.2995  -11.8230 C   0  0  0  0  0  0  0  0  0  0  0  0
   22.2747  -20.1115  -11.4288 N   0  0  0  0  0  0  0  0  0  0  0  0
   22.1610  -19.3090  -12.4920 C   0  0  0  0  0  0  0  0  0  0  0  0
   22.7120  -20.1279  -17.3691 O   0  0  0  0  0  0  0  0  0  0  0  0
   21.3998  -19.9094  -17.7544 O   0  0  0  0  0  0  0  0  0  0  0  0
  2  1  1  0
  3  2  2  0
  4  2  1  0
  4  5  1  0
  5  6  1  1
  7  5  1  0
  7  8  2  0
 10 12  1  0
 10  9  1  0
 11 10  2  0
 13 14  1  0
 13 12  1  0
 14 15  1  0
 16 15  1  1
 16 17  1  0
 17  7  1  0
 18 16  1  0
 19 18  2  0
 20 18  1  0
 21 28  1  0
 21 20  1  0
 21 22  1  6
 23 22  1  0
 24 23  2  0
 25 24  1  0
 26 25  1  0
 26 27  2  0
 27 23  1  0
 28 29  1  0
 30 28  2  0
M  END
$$$$
