NRH.pdb
     RDKit          3D

 30 30  0  0  1  0  0  0  0  0999 V2000
   21.9666  -20.1129  -15.9345 N   0  0  0  0  0  0  0  0  0  0  0  0
   21.0621  -19.1961  -15.3363 C   0  0  0  0  0  0  0  0  0  0  0  0
   20.0863  -19.6774  -14.7052 O   0  0  0  0  0  0  0  0  0  0  0  0
   21.2746  -17.7414  -15.4611 C   0  0  0  0  0  0  0  0  0  0  0  0
   22.4008  -17.5163  -16.4755 C   0  0  2  0  0  0  0  0  0  0  0  0
   23.5932  -18.0956  -15.8620 N   0  0  0  0  0  0  0  0  0  0  0  0
   22.6086  -16.0662  -16.7269 C   0  0  0  0  0  0  0  0  0  0  0  0
   23.4094  -15.4153  -16.0076 O   0  0  0  0  0  0  0  0  0  0  0  0
   24.7095  -12.6273  -24.0605 N   0  0  0  0  0  0  0  0  0  0  0  0
   24.5235  -11.4578  -23.2859 C   0  0  0  0  0  0  0  0  0  0  0  0
   24.8459  -10.2754  -23.7286 N   0  0  0  0  0  0  0  0  0  0  0  0
   23.9730  -11.4849  -21.9692 N   0  0  0  0  0  0  0  0  0  0  0  0
   23.6588  -12.7097  -21.3147 C   0  0  0  0  0  0  0  0  0  0  0  0
   22.9684  -12.5234  -19.9712 C   0  0  0  0  0  0  0  0  0  0  0  0
   22.7687  -13.8897  -19.3911 C   0  0  0  0  0  0  0  0  0  0  0  0
   22.1562  -13.9449  -18.0254 C   0  0  2  0  0  0  0  0  0  0  0  0
   21.9275  -15.3910  -17.7585 N   0  0  0  0  0  0  0  0  0  0  0  0
   20.8411  -13.2818  -17.9031 C   0  0  0  0  0  0  0  0  0  0  0  0
   19.8222  -13.8159  -18.4776 O   0  0  0  0  0  0  0  0  0  0  0  0
   24.6709   -9.4756  -23.0832 N   0  0  0  0  0  0  0  0  0  0  0  0
   20.6059  -12.0752  -17.1815 C   0  0  1  0  0  0  0  0  0  0  0  0
   19.2359  -11.6279  -16.9595 C   0  0  0  0  0  0  0  0  0  0  0  0
   18.4643  -12.6979  -16.2375 C   0  0  0  0  0  0  0  0  0  0  0  0
   17.0758  -12.3011  -15.9425 C   0  0  0  0  0  0  0  0  0  0  0  0
   16.1723  -11.6998  -16.8069 N   0  0  0  0  0  0  0  0  0  0  0  0
   15.0116  -11.4821  -16.1655 C   0  0  0  0  0  0  0  0  0  0  0  0
   15.1631  -11.9343  -14.9105 N   0  0  0  0  0  0  0  0  0  0  0  0
   16.3976  -12.4272  -14.7673 C   0  0  0  0  0  0  0  0  0  0  0  0
   19.2400  -10.3621  -16.1997 O   0  0  0  0  0  0  0  0  0  0  0  0
   18.0541   -9.6686  -16.0243 O   0  0  0  0  0  0  0  0  0  0  0  0
  2  1  1  0
  3  2  2  0
  4  2  1  0
  4  5  1  0
  5  6  1  1
  7  5  1  0
  7  8  2  0
 10 12  1  0
 10  9  1  0
 11 10  2  0
 13 14  1  0
 13 12  1  0
 14 15  1  0
 16 15  1  6
 16 17  1  0
 17  7  1  0
 18 16  1  0
 19 18  2  0
 20 18  1  0
 21 28  1  0
 21 20  1  0
 21 22  1  1
 23 22  1  0
 24 23  2  0
 25 24  1  0
 26 25  1  0
 26 27  2  0
 27 23  1  0
 28 29  1  0
 30 28  2  0
M  END
$$$$
