NRH.pdb
     RDKit          3D

 30 30  0  0  1  0  0  0  0  0999 V2000
   19.7080  -29.0577  -10.6589 N   0  0  0  0  0  0  0  0  0  0  0  0
   20.6316  -27.9931  -10.8320 C   0  0  0  0  0  0  0  0  0  0  0  0
   21.8195  -28.2996  -11.1093 O   0  0  0  0  0  0  0  0  0  0  0  0
   20.1968  -26.5905  -10.6883 C   0  0  0  0  0  0  0  0  0  0  0  0
   18.7325  -26.5963  -10.2368 C   0  0  2  0  0  0  0  0  0  0  0  0
   18.0211  -25.7913  -11.2266 N   0  0  0  0  0  0  0  0  0  0  0  0
   18.5893  -25.9906   -8.8871 C   0  0  0  0  0  0  0  0  0  0  0  0
   19.6064  -25.5646   -8.2818 O   0  0  0  0  0  0  0  0  0  0  0  0
   13.2191  -20.5438   -9.2448 N   0  0  0  0  0  0  0  0  0  0  0  0
   13.4012  -21.8873   -9.6498 C   0  0  0  0  0  0  0  0  0  0  0  0
   13.3072  -22.2535  -10.8969 N   0  0  0  0  0  0  0  0  0  0  0  0
   13.6988  -22.9365   -8.7288 N   0  0  0  0  0  0  0  0  0  0  0  0
   14.3791  -22.6856   -7.5034 C   0  0  0  0  0  0  0  0  0  0  0  0
   15.8307  -23.1429   -7.5073 C   0  0  0  0  0  0  0  0  0  0  0  0
   15.8472  -24.5443   -6.9788 C   0  0  0  0  0  0  0  0  0  0  0  0
   17.1843  -25.2176   -6.9329 C   0  0  2  0  0  0  0  0  0  0  0  0
   17.3342  -25.8782   -8.2580 N   0  0  0  0  0  0  0  0  0  0  0  0
   17.3133  -26.2819   -5.9156 C   0  0  0  0  0  0  0  0  0  0  0  0
   16.6233  -27.3581   -6.0541 O   0  0  0  0  0  0  0  0  0  0  0  0
   13.4622  -23.2651  -11.0956 N   0  0  0  0  0  0  0  0  0  0  0  0
   18.1613  -26.2113   -4.7720 C   0  0  2  0  0  0  0  0  0  0  0  0
   18.0318  -27.2131   -3.7204 C   0  0  0  0  0  0  0  0  0  0  0  0
   19.2787  -27.2294   -2.8798 C   0  0  0  0  0  0  0  0  0  0  0  0
   19.2423  -28.2562   -1.8231 C   0  0  0  0  0  0  0  0  0  0  0  0
   18.9949  -29.6126   -1.9779 N   0  0  0  0  0  0  0  0  0  0  0  0
   19.0345  -30.2176   -0.7785 C   0  0  0  0  0  0  0  0  0  0  0  0
   19.3023  -29.2694    0.1335 N   0  0  0  0  0  0  0  0  0  0  0  0
   19.4285  -28.0901   -0.4834 C   0  0  0  0  0  0  0  0  0  0  0  0
   16.8357  -26.9285   -2.9031 O   0  0  0  0  0  0  0  0  0  0  0  0
   16.4036  -25.6205   -2.7595 O   0  0  0  0  0  0  0  0  0  0  0  0
  2  1  1  0
  3  2  2  0
  4  2  1  0
  4  5  1  0
  5  6  1  6
  7  5  1  0
  7  8  2  0
 10 12  1  0
 10  9  1  0
 11 10  2  0
 13 14  1  0
 13 12  1  0
 14 15  1  0
 16 15  1  6
 16 17  1  0
 17  7  1  0
 18 16  1  0
 19 18  2  0
 20 18  1  0
 21 28  1  0
 21 20  1  0
 21 22  1  1
 23 22  1  0
 24 23  2  0
 25 24  1  0
 26 25  1  0
 26 27  2  0
 27 23  1  0
 28 29  1  0
 30 28  2  0
M  END
$$$$
