NRH.pdb
     RDKit          3D

 30 30  0  0  1  0  0  0  0  0999 V2000
   29.1292  -22.7554  -16.7795 N   0  0  0  0  0  0  0  0  0  0  0  0
   29.7391  -23.7842  -17.5452 C   0  0  0  0  0  0  0  0  0  0  0  0
   30.9428  -23.6230  -17.8725 O   0  0  0  0  0  0  0  0  0  0  0  0
   28.9755  -24.9861  -17.9317 C   0  0  0  0  0  0  0  0  0  0  0  0
   27.5946  -24.8974  -17.2734 C   0  0  2  0  0  0  0  0  0  0  0  0
   27.8196  -25.2063  -15.8635 N   0  0  0  0  0  0  0  0  0  0  0  0
   26.6565  -25.8844  -17.8694 C   0  0  0  0  0  0  0  0  0  0  0  0
   26.2783  -25.7468  -19.0612 O   0  0  0  0  0  0  0  0  0  0  0  0
   28.3128  -33.7995  -16.4311 N   0  0  0  0  0  0  0  0  0  0  0  0
   28.9089  -32.5264  -16.2695 C   0  0  0  0  0  0  0  0  0  0  0  0
   30.0082  -32.3577  -15.5904 N   0  0  0  0  0  0  0  0  0  0  0  0
   28.3543  -31.3383  -16.8337 N   0  0  0  0  0  0  0  0  0  0  0  0
   27.0546  -31.3223  -17.4149 C   0  0  0  0  0  0  0  0  0  0  0  0
   26.7133  -30.0116  -18.1090 C   0  0  0  0  0  0  0  0  0  0  0  0
   25.7156  -29.3067  -17.2423 C   0  0  0  0  0  0  0  0  0  0  0  0
   25.2399  -27.9735  -17.7319 C   0  0  2  0  0  0  0  0  0  0  0  0
   26.1726  -26.9817  -17.1309 N   0  0  0  0  0  0  0  0  0  0  0  0
   23.8814  -27.5942  -17.2905 C   0  0  0  0  0  0  0  0  0  0  0  0
   23.7510  -26.6427  -16.4355 O   0  0  0  0  0  0  0  0  0  0  0  0
   30.3846  -31.3862  -15.5522 N   0  0  0  0  0  0  0  0  0  0  0  0
   22.6795  -28.2084  -17.7487 C   0  0  1  0  0  0  0  0  0  0  0  0
   21.3923  -27.6523  -17.3483 C   0  0  0  0  0  0  0  0  0  0  0  0
   21.3104  -26.2107  -17.7685 C   0  0  0  0  0  0  0  0  0  0  0  0
   19.9878  -25.6140  -17.5096 C   0  0  0  0  0  0  0  0  0  0  0  0
   19.2956  -25.5952  -16.3073 N   0  0  0  0  0  0  0  0  0  0  0  0
   18.1182  -24.9692  -16.4751 C   0  0  0  0  0  0  0  0  0  0  0  0
   18.0518  -24.5912  -17.7616 N   0  0  0  0  0  0  0  0  0  0  0  0
   19.1682  -24.9734  -18.3899 C   0  0  0  0  0  0  0  0  0  0  0  0
   20.2982  -28.4480  -17.9394 O   0  0  0  0  0  0  0  0  0  0  0  0
   19.2248  -28.8238  -17.1490 O   0  0  0  0  0  0  0  0  0  0  0  0
  2  1  1  0
  3  2  2  0
  4  2  1  0
  4  5  1  0
  5  6  1  1
  7  5  1  0
  7  8  2  0
 10 12  1  0
 10  9  1  0
 11 10  2  0
 13 14  1  0
 13 12  1  0
 14 15  1  0
 16 15  1  1
 16 17  1  0
 17  7  1  0
 18 16  1  0
 19 18  2  0
 20 18  1  0
 21 28  1  0
 21 20  1  0
 21 22  1  1
 23 22  1  0
 24 23  2  0
 25 24  1  0
 26 25  1  0
 26 27  2  0
 27 23  1  0
 28 29  1  0
 30 28  2  0
M  END
$$$$
