NRH.pdb
     RDKit          3D

 30 30  0  0  1  0  0  0  0  0999 V2000
   29.6138   -9.9338  -16.9434 N   0  0  0  0  0  0  0  0  0  0  0  0
   28.3558  -10.3453  -16.4289 C   0  0  0  0  0  0  0  0  0  0  0  0
   28.3451  -11.3400  -15.6591 O   0  0  0  0  0  0  0  0  0  0  0  0
   27.1222   -9.6229  -16.7939 C   0  0  0  0  0  0  0  0  0  0  0  0
   26.0809  -10.6603  -17.2273 C   0  0  2  0  0  0  0  0  0  0  0  0
   26.5687  -11.1873  -18.4994 N   0  0  0  0  0  0  0  0  0  0  0  0
   24.7474  -10.0305  -17.4127 C   0  0  0  0  0  0  0  0  0  0  0  0
   24.5410   -9.2835  -18.4036 O   0  0  0  0  0  0  0  0  0  0  0  0
   17.4276  -13.6509  -14.4583 N   0  0  0  0  0  0  0  0  0  0  0  0
   16.9336  -12.4856  -15.0912 C   0  0  0  0  0  0  0  0  0  0  0  0
   15.6575  -12.2537  -15.2165 N   0  0  0  0  0  0  0  0  0  0  0  0
   17.7904  -11.4830  -15.6374 N   0  0  0  0  0  0  0  0  0  0  0  0
   19.2081  -11.6080  -15.5982 C   0  0  0  0  0  0  0  0  0  0  0  0
   19.9416  -10.4276  -16.2185 C   0  0  0  0  0  0  0  0  0  0  0  0
   21.3998  -10.7695  -16.2135 C   0  0  0  0  0  0  0  0  0  0  0  0
   22.3257   -9.7243  -16.7552 C   0  0  2  0  0  0  0  0  0  0  0  0
   23.6957  -10.2473  -16.5013 N   0  0  0  0  0  0  0  0  0  0  0  0
   22.2462   -8.4103  -16.0836 C   0  0  0  0  0  0  0  0  0  0  0  0
   22.7122   -8.2952  -14.8906 O   0  0  0  0  0  0  0  0  0  0  0  0
   15.3925  -11.3919  -15.7399 N   0  0  0  0  0  0  0  0  0  0  0  0
   21.6866   -7.2355  -16.6652 C   0  0  2  0  0  0  0  0  0  0  0  0
   21.6015   -6.0140  -15.8734 C   0  0  0  0  0  0  0  0  0  0  0  0
   22.2981   -4.8931  -16.5945 C   0  0  0  0  0  0  0  0  0  0  0  0
   22.0906   -3.5833  -15.9513 C   0  0  0  0  0  0  0  0  0  0  0  0
   20.8859   -2.9208  -15.7642 N   0  0  0  0  0  0  0  0  0  0  0  0
   21.1084   -1.7460  -15.1504 C   0  0  0  0  0  0  0  0  0  0  0  0
   22.4319   -1.6520  -14.9454 N   0  0  0  0  0  0  0  0  0  0  0  0
   23.0291   -2.7490  -15.4223 C   0  0  0  0  0  0  0  0  0  0  0  0
   20.1864   -5.6866  -15.6095 O   0  0  0  0  0  0  0  0  0  0  0  0
   19.8399   -5.0701  -14.4187 O   0  0  0  0  0  0  0  0  0  0  0  0
  2  1  1  0
  3  2  2  0
  4  2  1  0
  4  5  1  0
  5  6  1  6
  7  5  1  0
  7  8  2  0
 10 12  1  0
 10  9  1  0
 11 10  2  0
 13 14  1  0
 13 12  1  0
 14 15  1  0
 16 15  1  1
 16 17  1  0
 17  7  1  0
 18 16  1  0
 19 18  2  0
 20 18  1  0
 21 28  1  0
 21 20  1  0
 21 22  1  6
 23 22  1  0
 24 23  2  0
 25 24  1  0
 26 25  1  0
 26 27  2  0
 27 23  1  0
 28 29  1  0
 30 28  2  0
M  END
$$$$
