NRH.pdb
     RDKit          3D

 30 30  0  0  1  0  0  0  0  0999 V2000
   28.3154  -18.9062  -18.5147 N   0  0  0  0  0  0  0  0  0  0  0  0
   27.8294  -17.6203  -18.8707 C   0  0  0  0  0  0  0  0  0  0  0  0
   28.4277  -17.0135  -19.7958 O   0  0  0  0  0  0  0  0  0  0  0  0
   26.6684  -17.0361  -18.1722 C   0  0  0  0  0  0  0  0  0  0  0  0
   26.1363  -18.0832  -17.1880 C   0  0  2  0  0  0  0  0  0  0  0  0
   26.2368  -19.3593  -17.8918 N   0  0  0  0  0  0  0  0  0  0  0  0
   24.7203  -17.8068  -16.8307 C   0  0  0  0  0  0  0  0  0  0  0  0
   24.4176  -16.7236  -16.2673 O   0  0  0  0  0  0  0  0  0  0  0  0
   18.4035  -20.1441  -21.6983 N   0  0  0  0  0  0  0  0  0  0  0  0
   19.3076  -19.0882  -21.4333 C   0  0  0  0  0  0  0  0  0  0  0  0
   19.7632  -18.3134  -22.3767 N   0  0  0  0  0  0  0  0  0  0  0  0
   19.7865  -18.7946  -20.1210 N   0  0  0  0  0  0  0  0  0  0  0  0
   19.3984  -19.5706  -18.9920 C   0  0  0  0  0  0  0  0  0  0  0  0
   20.0018  -19.0847  -17.6820 C   0  0  0  0  0  0  0  0  0  0  0  0
   21.4725  -18.9220  -17.9138 C   0  0  0  0  0  0  0  0  0  0  0  0
   22.2793  -18.4578  -16.7403 C   0  0  2  0  0  0  0  0  0  0  0  0
   23.6952  -18.7323  -17.1072 N   0  0  0  0  0  0  0  0  0  0  0  0
   22.0234  -19.1848  -15.4792 C   0  0  0  0  0  0  0  0  0  0  0  0
   22.3931  -20.4128  -15.3862 O   0  0  0  0  0  0  0  0  0  0  0  0
   20.4522  -17.5867  -22.0869 N   0  0  0  0  0  0  0  0  0  0  0  0
   21.3902  -18.6213  -14.3332 C   0  0  2  0  0  0  0  0  0  0  0  0
   21.2106  -19.4383  -13.1389 C   0  0  0  0  0  0  0  0  0  0  0  0
   20.9365  -18.5521  -11.9552 C   0  0  0  0  0  0  0  0  0  0  0  0
   20.6646  -19.3127  -10.7224 C   0  0  0  0  0  0  0  0  0  0  0  0
   20.7143  -20.6894  -10.5565 N   0  0  0  0  0  0  0  0  0  0  0  0
   20.3901  -21.0026   -9.2904 C   0  0  0  0  0  0  0  0  0  0  0  0
   20.1357  -19.8497   -8.6511 N   0  0  0  0  0  0  0  0  0  0  0  0
   20.2977  -18.8310   -9.5016 C   0  0  0  0  0  0  0  0  0  0  0  0
   20.1143  -20.4036  -13.3535 O   0  0  0  0  0  0  0  0  0  0  0  0
   20.1877  -21.6586  -12.7725 O   0  0  0  0  0  0  0  0  0  0  0  0
  2  1  1  0
  3  2  2  0
  4  2  1  0
  4  5  1  0
  5  6  1  6
  7  5  1  0
  7  8  2  0
 10 12  1  0
 10  9  1  0
 11 10  2  0
 13 14  1  0
 13 12  1  0
 14 15  1  0
 16 15  1  6
 16 17  1  0
 17  7  1  0
 18 16  1  0
 19 18  2  0
 20 18  1  0
 21 28  1  0
 21 20  1  0
 21 22  1  1
 23 22  1  0
 24 23  2  0
 25 24  1  0
 26 25  1  0
 26 27  2  0
 27 23  1  0
 28 29  1  0
 30 28  2  0
M  END
$$$$
