MTM.pdb
     RDKit          3D

 24 23  0  0  1  0  0  0  0  0999 V2000
    8.1141  -11.6938   20.0039 C   0  0  0  0  0  0  0  0  0  0  0  0
    7.8545  -12.4663   18.4220 S   0  0  0  0  0  0  0  0  0  0  0  0
    7.6851  -14.2211   18.3793 C   0  0  0  0  0  0  0  0  0  0  0  0
    7.4564  -14.9218   19.6547 C   0  0  0  0  0  0  0  0  0  0  0  0
    8.5869  -15.4715   20.4189 C   0  0  2  0  0  0  0  0  0  0  0  0
    9.3091  -16.5602   19.8363 N   0  0  0  0  0  0  0  0  0  0  0  0
    8.1845  -15.9111   21.8029 C   0  0  0  0  0  0  0  0  0  0  0  0
    7.5686  -15.1445   22.5933 O   0  0  0  0  0  0  0  0  0  0  0  0
    7.2805  -19.7125   23.0786 C   0  0  0  0  0  0  0  0  0  0  0  0
    8.3775  -19.0348   23.8849 C   0  0  1  0  0  0  0  0  0  0  0  0
    9.6383  -19.5044   23.5374 O   0  0  0  0  0  0  0  0  0  0  0  0
    8.3184  -17.5187   23.6620 C   0  0  2  0  0  0  0  0  0  0  0  0
    8.4846  -17.2172   22.2781 N   0  0  0  0  0  0  0  0  0  0  0  0
    9.3559  -16.9196   24.5276 C   0  0  0  0  0  0  0  0  0  0  0  0
   10.3871  -16.3375   24.1185 O   0  0  0  0  0  0  0  0  0  0  0  0
    6.9096  -12.1836   26.6519 C   0  0  0  0  0  0  0  0  0  0  0  0
    8.7081  -12.0512   26.9617 S   0  0  0  0  0  0  0  0  0  0  0  0
    9.3566  -13.6580   27.5335 C   0  0  0  0  0  0  0  0  0  0  0  0
    8.9352  -14.7302   26.5696 C   0  0  0  0  0  0  0  0  0  0  0  0
    9.6709  -16.0211   26.8616 C   0  0  2  0  0  0  0  0  0  0  0  0
    9.1673  -17.0120   25.9334 N   0  0  0  0  0  0  0  0  0  0  0  0
    9.5483  -16.4252   28.2570 C   0  0  0  0  0  0  0  0  0  0  0  0
   10.1096  -15.7783   29.1676 O   0  0  0  0  0  0  0  0  0  0  0  0
    8.8044  -17.5373   28.5971 O   0  0  0  0  0  0  0  0  0  0  0  0
  1  2  1  0
  2  3  1  0
  4  3  1  0
  5  4  1  0
  5  6  1  6
  7  5  1  0
  7  8  2  0
 10  9  1  6
 10 12  1  0
 11 10  1  0
 12 13  1  6
 13  7  1  0
 14 12  1  0
 15 14  2  0
 16 17  1  0
 17 18  1  0
 18 19  1  0
 20 19  1  1
 20 21  1  0
 20 22  1  0
 21 14  1  0
 22 24  1  0
 23 22  2  0
M  END
$$$$
