MTM.pdb
     RDKit          3D

 24 23  0  0  1  0  0  0  0  0999 V2000
    7.1861  -11.3292   25.7977 C   0  0  0  0  0  0  0  0  0  0  0  0
    5.9504  -12.3554   26.5635 S   0  0  0  0  0  0  0  0  0  0  0  0
    5.6112  -13.9233   25.8308 C   0  0  0  0  0  0  0  0  0  0  0  0
    6.7519  -14.7129   25.3357 C   0  0  0  0  0  0  0  0  0  0  0  0
    6.5346  -16.0177   24.6919 C   0  0  2  0  0  0  0  0  0  0  0  0
    5.8598  -17.0238   25.4525 N   0  0  0  0  0  0  0  0  0  0  0  0
    7.8178  -16.6357   24.1998 C   0  0  0  0  0  0  0  0  0  0  0  0
    8.4908  -17.4309   24.9115 O   0  0  0  0  0  0  0  0  0  0  0  0
    8.7344  -16.8512   20.1914 C   0  0  0  0  0  0  0  0  0  0  0  0
    9.9134  -16.4622   21.0697 C   0  0  1  0  0  0  0  0  0  0  0  0
   10.1937  -15.1037   20.9851 O   0  0  0  0  0  0  0  0  0  0  0  0
    9.6134  -16.8313   22.5276 C   0  0  2  0  0  0  0  0  0  0  0  0
    8.3263  -16.3458   22.9040 N   0  0  0  0  0  0  0  0  0  0  0  0
   10.7162  -16.2802   23.3428 C   0  0  0  0  0  0  0  0  0  0  0  0
   11.0245  -15.0678   23.4118 O   0  0  0  0  0  0  0  0  0  0  0  0
   10.9131  -13.0283   28.0609 C   0  0  0  0  0  0  0  0  0  0  0  0
   10.9195  -14.7896   28.5568 S   0  0  0  0  0  0  0  0  0  0  0  0
   12.0520  -15.7308   27.4794 C   0  0  0  0  0  0  0  0  0  0  0  0
   11.3249  -16.1247   26.2254 C   0  0  0  0  0  0  0  0  0  0  0  0
   12.2721  -16.8008   25.2565 C   0  0  2  0  0  0  0  0  0  0  0  0
   11.4858  -17.1986   24.1074 N   0  0  0  0  0  0  0  0  0  0  0  0
   12.9951  -17.9081   25.8701 C   0  0  0  0  0  0  0  0  0  0  0  0
   12.6191  -19.0899   25.7130 O   0  0  0  0  0  0  0  0  0  0  0  0
   14.1150  -17.6668   26.6404 O   0  0  0  0  0  0  0  0  0  0  0  0
  1  2  1  0
  2  3  1  0
  4  3  1  0
  5  4  1  0
  5  6  1  1
  7  5  1  0
  7  8  2  0
 10  9  1  6
 10 12  1  0
 11 10  1  0
 12 13  1  1
 13  7  1  0
 14 12  1  0
 15 14  2  0
 16 17  1  0
 17 18  1  0
 18 19  1  0
 20 19  1  1
 20 21  1  0
 20 22  1  0
 21 14  1  0
 22 24  1  0
 23 22  2  0
M  END
$$$$
