MTM.pdb
     RDKit          3D

 24 23  0  0  1  0  0  0  0  0999 V2000
    8.6595  -11.7479   25.4879 C   0  0  0  0  0  0  0  0  0  0  0  0
    7.0659  -12.4280   25.0821 S   0  0  0  0  0  0  0  0  0  0  0  0
    6.6865  -12.6797   23.3784 C   0  0  0  0  0  0  0  0  0  0  0  0
    7.7364  -13.2493   22.5163 C   0  0  0  0  0  0  0  0  0  0  0  0
    7.5587  -14.5712   21.8957 C   0  0  2  0  0  0  0  0  0  0  0  0
    6.2198  -15.0042   21.6390 N   0  0  0  0  0  0  0  0  0  0  0  0
    8.2246  -15.6695   22.6839 C   0  0  0  0  0  0  0  0  0  0  0  0
    7.5724  -16.4284   23.4522 O   0  0  0  0  0  0  0  0  0  0  0  0
   10.4708  -18.2370   21.1098 C   0  0  0  0  0  0  0  0  0  0  0  0
   11.1956  -17.7328   22.3481 C   0  0  1  0  0  0  0  0  0  0  0  0
   12.2343  -16.8691   22.0221 O   0  0  0  0  0  0  0  0  0  0  0  0
   10.2028  -17.0124   23.2684 C   0  0  2  0  0  0  0  0  0  0  0  0
    9.6253  -15.8969   22.5932 N   0  0  0  0  0  0  0  0  0  0  0  0
   10.9454  -16.6446   24.4923 C   0  0  0  0  0  0  0  0  0  0  0  0
   11.6133  -15.5952   24.6413 O   0  0  0  0  0  0  0  0  0  0  0  0
    8.4896  -14.0920   28.2661 C   0  0  0  0  0  0  0  0  0  0  0  0
    9.8739  -14.3762   29.4285 S   0  0  0  0  0  0  0  0  0  0  0  0
   10.8840  -15.7830   28.8543 C   0  0  0  0  0  0  0  0  0  0  0  0
   10.5302  -16.0934   27.4278 C   0  0  0  0  0  0  0  0  0  0  0  0
   11.3911  -17.2239   26.9046 C   0  0  2  0  0  0  0  0  0  0  0  0
   10.8966  -17.5534   25.5841 N   0  0  0  0  0  0  0  0  0  0  0  0
   11.4168  -18.3658   27.8108 C   0  0  0  0  0  0  0  0  0  0  0  0
   10.7998  -19.4186   27.5395 O   0  0  0  0  0  0  0  0  0  0  0  0
   12.1285  -18.3015   28.9919 O   0  0  0  0  0  0  0  0  0  0  0  0
  1  2  1  0
  2  3  1  0
  4  3  1  0
  5  4  1  0
  5  6  1  1
  7  5  1  0
  7  8  2  0
 10  9  1  6
 10 12  1  0
 11 10  1  0
 12 13  1  6
 13  7  1  0
 14 12  1  0
 15 14  2  0
 16 17  1  0
 17 18  1  0
 18 19  1  0
 20 19  1  1
 20 21  1  0
 20 22  1  0
 21 14  1  0
 22 24  1  0
 23 22  2  0
M  END
$$$$
