MTM.pdb
     RDKit          3D

 24 23  0  0  1  0  0  0  0  0999 V2000
    9.4487  -11.5021   19.3469 C   0  0  0  0  0  0  0  0  0  0  0  0
    8.0417  -12.2018   18.5119 S   0  0  0  0  0  0  0  0  0  0  0  0
    7.7895  -13.9426   18.6385 C   0  0  0  0  0  0  0  0  0  0  0  0
    8.9608  -14.7889   18.9243 C   0  0  0  0  0  0  0  0  0  0  0  0
    8.8093  -16.2420   19.0960 C   0  0  2  0  0  0  0  0  0  0  0  0
    7.9446  -16.9268   18.1852 N   0  0  0  0  0  0  0  0  0  0  0  0
    8.3548  -16.6117   20.4843 C   0  0  0  0  0  0  0  0  0  0  0  0
    7.1326  -16.7079   20.7823 O   0  0  0  0  0  0  0  0  0  0  0  0
    8.5128  -19.5507   22.3999 C   0  0  0  0  0  0  0  0  0  0  0  0
    9.2079  -18.5322   23.2900 C   0  0  1  0  0  0  0  0  0  0  0  0
   10.5901  -18.6708   23.2507 O   0  0  0  0  0  0  0  0  0  0  0  0
    8.8244  -17.1149   22.8475 C   0  0  2  0  0  0  0  0  0  0  0  0
    9.2915  -16.8690   21.5227 N   0  0  0  0  0  0  0  0  0  0  0  0
    9.3829  -16.1880   23.8542 C   0  0  0  0  0  0  0  0  0  0  0  0
   10.4499  -15.5439   23.7266 O   0  0  0  0  0  0  0  0  0  0  0  0
    6.3871  -11.7741   27.8267 C   0  0  0  0  0  0  0  0  0  0  0  0
    5.9430  -12.5940   26.2523 S   0  0  0  0  0  0  0  0  0  0  0  0
    7.3860  -13.4994   25.5986 C   0  0  0  0  0  0  0  0  0  0  0  0
    7.9152  -14.4170   26.6635 C   0  0  0  0  0  0  0  0  0  0  0  0
    9.1163  -15.1833   26.1506 C   0  0  2  0  0  0  0  0  0  0  0  0
    8.6510  -16.0150   25.0603 N   0  0  0  0  0  0  0  0  0  0  0  0
    9.7840  -15.9372   27.2049 C   0  0  0  0  0  0  0  0  0  0  0  0
    9.6964  -17.1829   27.2616 O   0  0  0  0  0  0  0  0  0  0  0  0
   10.5291  -15.2818   28.1646 O   0  0  0  0  0  0  0  0  0  0  0  0
  1  2  1  0
  2  3  1  0
  4  3  1  0
  5  4  1  0
  5  6  1  6
  7  5  1  0
  7  8  2  0
 10  9  1  6
 10 12  1  0
 11 10  1  0
 12 13  1  6
 13  7  1  0
 14 12  1  0
 15 14  2  0
 16 17  1  0
 17 18  1  0
 18 19  1  0
 20 19  1  1
 20 21  1  0
 20 22  1  0
 21 14  1  0
 22 24  1  0
 23 22  2  0
M  END
$$$$
