MTM.pdb
     RDKit          3D

 24 23  0  0  1  0  0  0  0  0999 V2000
    9.1705  -11.4683   19.4461 C   0  0  0  0  0  0  0  0  0  0  0  0
    8.0372  -12.2745   18.3359 S   0  0  0  0  0  0  0  0  0  0  0  0
    8.1349  -14.0291   18.1888 C   0  0  0  0  0  0  0  0  0  0  0  0
    8.5318  -14.7988   19.3805 C   0  0  0  0  0  0  0  0  0  0  0  0
    8.6893  -16.2596   19.3087 C   0  0  2  0  0  0  0  0  0  0  0  0
    7.7536  -16.9848   18.5056 N   0  0  0  0  0  0  0  0  0  0  0  0
    8.6821  -16.9054   20.6702 C   0  0  0  0  0  0  0  0  0  0  0  0
    7.6134  -17.2870   21.2216 O   0  0  0  0  0  0  0  0  0  0  0  0
   10.6696  -19.7639   22.1900 C   0  0  0  0  0  0  0  0  0  0  0  0
   10.8918  -18.5481   23.0761 C   0  0  1  0  0  0  0  0  0  0  0  0
   12.1567  -18.0019   22.8950 O   0  0  0  0  0  0  0  0  0  0  0  0
    9.8287  -17.4862   22.7693 C   0  0  2  0  0  0  0  0  0  0  0  0
    9.8882  -17.1124   21.3943 N   0  0  0  0  0  0  0  0  0  0  0  0
   10.0672  -16.3627   23.6996 C   0  0  0  0  0  0  0  0  0  0  0  0
   10.3279  -15.1863   23.3563 O   0  0  0  0  0  0  0  0  0  0  0  0
    6.1629  -11.9760   27.8881 C   0  0  0  0  0  0  0  0  0  0  0  0
    6.5008  -13.2847   26.6547 S   0  0  0  0  0  0  0  0  0  0  0  0
    8.1379  -14.0253   26.9722 C   0  0  0  0  0  0  0  0  0  0  0  0
    8.4595  -14.9983   25.8740 C   0  0  0  0  0  0  0  0  0  0  0  0
    9.8286  -15.6070   26.0925 C   0  0  2  0  0  0  0  0  0  0  0  0
    9.9946  -16.6404   25.0917 N   0  0  0  0  0  0  0  0  0  0  0  0
   10.0081  -16.0921   27.4556 C   0  0  0  0  0  0  0  0  0  0  0  0
    9.6604  -17.2483   27.7799 O   0  0  0  0  0  0  0  0  0  0  0  0
   10.5692  -15.2757   28.4170 O   0  0  0  0  0  0  0  0  0  0  0  0
  1  2  1  0
  2  3  1  0
  4  3  1  0
  5  4  1  0
  5  6  1  6
  7  5  1  0
  7  8  2  0
 10  9  1  6
 10 12  1  0
 11 10  1  0
 12 13  1  6
 13  7  1  0
 14 12  1  0
 15 14  2  0
 16 17  1  0
 17 18  1  0
 18 19  1  0
 20 19  1  1
 20 21  1  0
 20 22  1  0
 21 14  1  0
 22 24  1  0
 23 22  2  0
M  END
$$$$
