MTM.pdb
     RDKit          3D

 24 23  0  0  1  0  0  0  0  0999 V2000
    1.9965  -18.6672   22.8470 C   0  0  0  0  0  0  0  0  0  0  0  0
    2.3220  -20.1319   21.8902 S   0  0  0  0  0  0  0  0  0  0  0  0
    3.9524  -20.3577   21.2572 C   0  0  0  0  0  0  0  0  0  0  0  0
    4.9593  -19.3276   21.5653 C   0  0  0  0  0  0  0  0  0  0  0  0
    6.3440  -19.4695   21.0893 C   0  0  2  0  0  0  0  0  0  0  0  0
    6.9565  -20.7558   21.2176 N   0  0  0  0  0  0  0  0  0  0  0  0
    7.2778  -18.4796   21.7363 C   0  0  0  0  0  0  0  0  0  0  0  0
    8.3821  -18.8319   22.2344 O   0  0  0  0  0  0  0  0  0  0  0  0
    8.9438  -15.3837   20.4723 C   0  0  0  0  0  0  0  0  0  0  0  0
    8.1197  -14.9739   21.6830 C   0  0  1  0  0  0  0  0  0  0  0  0
    6.9338  -14.3511   21.3131 O   0  0  0  0  0  0  0  0  0  0  0  0
    7.8030  -16.2106   22.5328 C   0  0  2  0  0  0  0  0  0  0  0  0
    6.9500  -17.0981   21.8126 N   0  0  0  0  0  0  0  0  0  0  0  0
    7.2158  -15.7202   23.7974 C   0  0  0  0  0  0  0  0  0  0  0  0
    5.9920  -15.7059   24.0652 O   0  0  0  0  0  0  0  0  0  0  0  0
   10.9070  -15.2713   29.3187 C   0  0  0  0  0  0  0  0  0  0  0  0
    9.9885  -13.6897   29.2615 S   0  0  0  0  0  0  0  0  0  0  0  0
    8.4933  -13.8804   28.2333 C   0  0  0  0  0  0  0  0  0  0  0  0
    8.8791  -14.4741   26.9085 C   0  0  0  0  0  0  0  0  0  0  0  0
    7.6615  -14.6176   26.0199 C   0  0  2  0  0  0  0  0  0  0  0  0
    8.1106  -15.2269   24.7854 N   0  0  0  0  0  0  0  0  0  0  0  0
    6.9707  -13.3498   25.8177 C   0  0  0  0  0  0  0  0  0  0  0  0
    7.2376  -12.6186   24.8395 O   0  0  0  0  0  0  0  0  0  0  0  0
    6.0034  -12.9337   26.7104 O   0  0  0  0  0  0  0  0  0  0  0  0
  1  2  1  0
  2  3  1  0
  4  3  1  0
  5  4  1  0
  5  6  1  1
  7  5  1  0
  7  8  2  0
 10  9  1  6
 10 12  1  0
 11 10  1  0
 12 13  1  6
 13  7  1  0
 14 12  1  0
 15 14  2  0
 16 17  1  0
 17 18  1  0
 18 19  1  0
 20 19  1  1
 20 21  1  0
 20 22  1  0
 21 14  1  0
 22 24  1  0
 23 22  2  0
M  END
$$$$
