MTM.pdb
     RDKit          3D

 24 23  0  0  1  0  0  0  0  0999 V2000
    9.0311  -11.6727   19.1786 C   0  0  0  0  0  0  0  0  0  0  0  0
    7.3969  -12.3152   19.4672 S   0  0  0  0  0  0  0  0  0  0  0  0
    7.2246  -14.0544   19.7029 C   0  0  0  0  0  0  0  0  0  0  0  0
    8.2731  -14.9308   19.1529 C   0  0  0  0  0  0  0  0  0  0  0  0
    8.1896  -16.3903   19.3170 C   0  0  2  0  0  0  0  0  0  0  0  0
    6.9925  -17.0360   18.8739 N   0  0  0  0  0  0  0  0  0  0  0  0
    8.4102  -16.8210   20.7441 C   0  0  0  0  0  0  0  0  0  0  0  0
    7.4574  -17.1901   21.4841 O   0  0  0  0  0  0  0  0  0  0  0  0
   11.1651  -19.2421   21.7838 C   0  0  0  0  0  0  0  0  0  0  0  0
   11.1845  -18.0919   22.7785 C   0  0  1  0  0  0  0  0  0  0  0  0
   12.2714  -17.2506   22.5733 O   0  0  0  0  0  0  0  0  0  0  0  0
    9.8855  -17.2856   22.6588 C   0  0  2  0  0  0  0  0  0  0  0  0
    9.7106  -16.8290   21.3191 N   0  0  0  0  0  0  0  0  0  0  0  0
    9.9686  -16.1932   23.6510 C   0  0  0  0  0  0  0  0  0  0  0  0
   10.2247  -14.9961   23.3844 O   0  0  0  0  0  0  0  0  0  0  0  0
    6.6007  -11.6336   27.2651 C   0  0  0  0  0  0  0  0  0  0  0  0
    7.5978  -12.7697   26.2339 S   0  0  0  0  0  0  0  0  0  0  0  0
    6.9677  -14.4735   26.4053 C   0  0  0  0  0  0  0  0  0  0  0  0
    7.7078  -15.3702   25.4543 C   0  0  0  0  0  0  0  0  0  0  0  0
    9.1155  -15.6209   25.9528 C   0  0  2  0  0  0  0  0  0  0  0  0
    9.7396  -16.5288   25.0130 N   0  0  0  0  0  0  0  0  0  0  0  0
    9.1381  -16.1095   27.3263 C   0  0  0  0  0  0  0  0  0  0  0  0
    9.4895  -15.3677   28.2691 O   0  0  0  0  0  0  0  0  0  0  0  0
    8.7688  -17.4093   27.6091 O   0  0  0  0  0  0  0  0  0  0  0  0
  1  2  1  0
  2  3  1  0
  4  3  1  0
  5  4  1  0
  5  6  1  1
  7  5  1  0
  7  8  2  0
 10  9  1  6
 10 12  1  0
 11 10  1  0
 12 13  1  6
 13  7  1  0
 14 12  1  0
 15 14  2  0
 16 17  1  0
 17 18  1  0
 18 19  1  0
 20 19  1  6
 20 21  1  0
 20 22  1  0
 21 14  1  0
 22 24  1  0
 23 22  2  0
M  END
$$$$
