MTM.pdb
     RDKit          3D

 24 23  0  0  1  0  0  0  0  0999 V2000
    4.9478  -11.8732   26.2769 C   0  0  0  0  0  0  0  0  0  0  0  0
    6.2110  -13.0915   25.9821 S   0  0  0  0  0  0  0  0  0  0  0  0
    7.4160  -12.7461   24.7417 C   0  0  0  0  0  0  0  0  0  0  0  0
    7.8357  -13.8513   23.8630 C   0  0  0  0  0  0  0  0  0  0  0  0
    7.4639  -15.2394   24.1780 C   0  0  2  0  0  0  0  0  0  0  0  0
    7.7388  -15.7116   25.5000 N   0  0  0  0  0  0  0  0  0  0  0  0
    8.0849  -16.2299   23.2272 C   0  0  0  0  0  0  0  0  0  0  0  0
    7.9967  -16.0982   21.9756 O   0  0  0  0  0  0  0  0  0  0  0  0
    9.2015  -16.2186   21.3313 C   0  0  0  0  0  0  0  0  0  0  0  0
   10.4555  -16.6433   22.0795 C   0  0  1  0  0  0  0  0  0  0  0  0
   11.1015  -15.5590   22.6610 O   0  0  0  0  0  0  0  0  0  0  0  0
   10.0869  -17.6605   23.1664 C   0  0  2  0  0  0  0  0  0  0  0  0
    8.8009  -17.3615   23.7053 N   0  0  0  0  0  0  0  0  0  0  0  0
   11.1723  -17.6254   24.1691 C   0  0  0  0  0  0  0  0  0  0  0  0
   12.3857  -17.8178   23.9238 O   0  0  0  0  0  0  0  0  0  0  0  0
   10.3401  -12.9829   28.1583 C   0  0  0  0  0  0  0  0  0  0  0  0
   10.7365  -14.4662   29.1537 S   0  0  0  0  0  0  0  0  0  0  0  0
   10.5322  -15.9664   28.1354 C   0  0  0  0  0  0  0  0  0  0  0  0
   11.7937  -16.2083   27.3566 C   0  0  0  0  0  0  0  0  0  0  0  0
   11.7182  -17.5337   26.6282 C   0  0  2  0  0  0  0  0  0  0  0  0
   10.8092  -17.3517   25.5157 N   0  0  0  0  0  0  0  0  0  0  0  0
   11.3356  -18.6296   27.5104 C   0  0  0  0  0  0  0  0  0  0  0  0
   12.0976  -19.0208   28.4209 O   0  0  0  0  0  0  0  0  0  0  0  0
   10.1163  -19.2574   27.3526 O   0  0  0  0  0  0  0  0  0  0  0  0
  1  2  1  0
  2  3  1  0
  4  3  1  0
  5  4  1  0
  5  6  1  1
  7  5  1  0
  7  8  2  0
 10  9  1  1
 10 12  1  0
 11 10  1  0
 12 13  1  1
 13  7  1  0
 14 12  1  0
 15 14  2  0
 16 17  1  0
 17 18  1  0
 18 19  1  0
 20 19  1  1
 20 21  1  0
 20 22  1  0
 21 14  1  0
 22 24  1  0
 23 22  2  0
M  END
$$$$
