MTM.pdb
     RDKit          3D

 24 23  0  0  1  0  0  0  0  0999 V2000
    8.0286  -11.5006   19.8885 C   0  0  0  0  0  0  0  0  0  0  0  0
    8.2527  -11.9934   18.1933 S   0  0  0  0  0  0  0  0  0  0  0  0
    8.6323  -13.6849   17.8698 C   0  0  0  0  0  0  0  0  0  0  0  0
    8.5847  -14.6293   18.9993 C   0  0  0  0  0  0  0  0  0  0  0  0
    8.8955  -16.0529   18.7971 C   0  0  2  0  0  0  0  0  0  0  0  0
    8.2127  -16.7331   17.7401 N   0  0  0  0  0  0  0  0  0  0  0  0
    8.6826  -16.8698   20.0453 C   0  0  0  0  0  0  0  0  0  0  0  0
    7.6089  -17.4980   20.2560 O   0  0  0  0  0  0  0  0  0  0  0  0
   10.3507  -19.7076   21.7945 C   0  0  0  0  0  0  0  0  0  0  0  0
   10.3856  -18.5351   22.7624 C   0  0  1  0  0  0  0  0  0  0  0  0
   11.6464  -17.9538   22.8234 O   0  0  0  0  0  0  0  0  0  0  0  0
    9.3581  -17.4812   22.3318 C   0  0  2  0  0  0  0  0  0  0  0  0
    9.6902  -16.9667   21.0439 N   0  0  0  0  0  0  0  0  0  0  0  0
    9.3327  -16.4521   23.3924 C   0  0  0  0  0  0  0  0  0  0  0  0
   10.0244  -15.4075   23.3990 O   0  0  0  0  0  0  0  0  0  0  0  0
    8.0667  -11.7351   27.2586 C   0  0  0  0  0  0  0  0  0  0  0  0
    6.8678  -12.6788   26.2486 S   0  0  0  0  0  0  0  0  0  0  0  0
    6.7383  -14.3864   26.8785 C   0  0  0  0  0  0  0  0  0  0  0  0
    6.9155  -15.3469   25.7373 C   0  0  0  0  0  0  0  0  0  0  0  0
    8.3673  -15.7597   25.6156 C   0  0  2  0  0  0  0  0  0  0  0  0
    8.4544  -16.6658   24.4893 N   0  0  0  0  0  0  0  0  0  0  0  0
    8.8871  -16.3286   26.8532 C   0  0  0  0  0  0  0  0  0  0  0  0
    8.8934  -17.5642   27.0425 O   0  0  0  0  0  0  0  0  0  0  0  0
    9.3842  -15.5049   27.8433 O   0  0  0  0  0  0  0  0  0  0  0  0
  1  2  1  0
  2  3  1  0
  4  3  1  0
  5  4  1  0
  5  6  1  6
  7  5  1  0
  7  8  2  0
 10  9  1  6
 10 12  1  0
 11 10  1  0
 12 13  1  6
 13  7  1  0
 14 12  1  0
 15 14  2  0
 16 17  1  0
 17 18  1  0
 18 19  1  0
 20 19  1  1
 20 21  1  0
 20 22  1  0
 21 14  1  0
 22 24  1  0
 23 22  2  0
M  END
$$$$
