MTM.pdb
     RDKit          3D

 24 23  0  0  1  0  0  0  0  0999 V2000
    9.0038  -11.7363   20.0183 C   0  0  0  0  0  0  0  0  0  0  0  0
    7.6667  -12.3788   19.0354 S   0  0  0  0  0  0  0  0  0  0  0  0
    6.9006  -13.8766   19.5640 C   0  0  0  0  0  0  0  0  0  0  0  0
    7.5930  -15.1439   19.2731 C   0  0  0  0  0  0  0  0  0  0  0  0
    8.6927  -15.6093   20.1322 C   0  0  2  0  0  0  0  0  0  0  0  0
    9.3073  -16.8571   19.7982 N   0  0  0  0  0  0  0  0  0  0  0  0
    8.2899  -15.7001   21.5815 C   0  0  0  0  0  0  0  0  0  0  0  0
    7.7406  -14.7364   22.1825 O   0  0  0  0  0  0  0  0  0  0  0  0
    7.3532  -19.2514   23.5462 C   0  0  0  0  0  0  0  0  0  0  0  0
    8.3191  -18.3313   24.2764 C   0  0  1  0  0  0  0  0  0  0  0  0
    9.6352  -18.7587   24.1486 O   0  0  0  0  0  0  0  0  0  0  0  0
    8.1896  -16.9063   23.7247 C   0  0  2  0  0  0  0  0  0  0  0  0
    8.5143  -16.8841   22.3362 N   0  0  0  0  0  0  0  0  0  0  0  0
    9.0637  -16.0478   24.5514 C   0  0  0  0  0  0  0  0  0  0  0  0
    9.9209  -15.2506   24.1048 O   0  0  0  0  0  0  0  0  0  0  0  0
    7.8529  -11.2788   25.6743 C   0  0  0  0  0  0  0  0  0  0  0  0
    7.1632  -12.0786   27.1686 S   0  0  0  0  0  0  0  0  0  0  0  0
    7.7316  -13.8100   27.2609 C   0  0  0  0  0  0  0  0  0  0  0  0
    9.1376  -13.8951   26.7392 C   0  0  0  0  0  0  0  0  0  0  0  0
    9.6694  -15.3056   26.8830 C   0  0  2  0  0  0  0  0  0  0  0  0
    8.9189  -16.1344   25.9627 N   0  0  0  0  0  0  0  0  0  0  0  0
    9.6150  -15.7805   28.2603 C   0  0  0  0  0  0  0  0  0  0  0  0
   10.2679  -15.2149   29.1639 O   0  0  0  0  0  0  0  0  0  0  0  0
    8.8354  -16.8708   28.5907 O   0  0  0  0  0  0  0  0  0  0  0  0
  1  2  1  0
  2  3  1  0
  4  3  1  0
  5  4  1  0
  5  6  1  6
  7  5  1  0
  7  8  2  0
 10  9  1  6
 10 12  1  0
 11 10  1  0
 12 13  1  6
 13  7  1  0
 14 12  1  0
 15 14  2  0
 16 17  1  0
 17 18  1  0
 18 19  1  0
 20 19  1  1
 20 21  1  0
 20 22  1  0
 21 14  1  0
 22 24  1  0
 23 22  2  0
M  END
$$$$
