MTM.pdb
     RDKit          3D

 24 23  0  0  1  0  0  0  0  0999 V2000
    9.0984  -11.6338   20.2161 C   0  0  0  0  0  0  0  0  0  0  0  0
    8.0352  -12.6237   19.1883 S   0  0  0  0  0  0  0  0  0  0  0  0
    8.0191  -14.3667   19.4561 C   0  0  0  0  0  0  0  0  0  0  0  0
    9.3089  -15.0395   19.6874 C   0  0  0  0  0  0  0  0  0  0  0  0
    9.3588  -16.4807   19.9782 C   0  0  2  0  0  0  0  0  0  0  0  0
    8.5869  -17.3487   19.1434 N   0  0  0  0  0  0  0  0  0  0  0  0
    8.9724  -16.7929   21.4009 C   0  0  0  0  0  0  0  0  0  0  0  0
    8.0598  -17.6188   21.6780 O   0  0  0  0  0  0  0  0  0  0  0  0
    9.0348  -18.9541   22.9950 C   0  0  0  0  0  0  0  0  0  0  0  0
    9.8136  -18.0856   23.9707 C   0  0  1  0  0  0  0  0  0  0  0  0
   11.1846  -18.1787   23.7635 O   0  0  0  0  0  0  0  0  0  0  0  0
    9.3735  -16.6239   23.8235 C   0  0  2  0  0  0  0  0  0  0  0  0
    9.6250  -16.1648   22.4969 N   0  0  0  0  0  0  0  0  0  0  0  0
   10.0910  -15.8557   24.8625 C   0  0  0  0  0  0  0  0  0  0  0  0
   11.2511  -15.3971   24.7465 O   0  0  0  0  0  0  0  0  0  0  0  0
    5.6015  -11.6209   26.3830 C   0  0  0  0  0  0  0  0  0  0  0  0
    6.6246  -12.4941   27.6235 S   0  0  0  0  0  0  0  0  0  0  0  0
    8.0306  -13.3138   26.7984 C   0  0  0  0  0  0  0  0  0  0  0  0
    8.8098  -14.0973   27.8159 C   0  0  0  0  0  0  0  0  0  0  0  0
    9.9677  -14.8155   27.1551 C   0  0  2  0  0  0  0  0  0  0  0  0
    9.4104  -15.6198   26.0877 N   0  0  0  0  0  0  0  0  0  0  0  0
   10.7557  -15.5889   28.1071 C   0  0  0  0  0  0  0  0  0  0  0  0
   10.6202  -16.8282   28.2003 O   0  0  0  0  0  0  0  0  0  0  0  0
   11.6709  -14.9598   28.9271 O   0  0  0  0  0  0  0  0  0  0  0  0
  1  2  1  0
  2  3  1  0
  4  3  1  0
  5  4  1  0
  5  6  1  6
  7  5  1  0
  7  8  2  0
 10  9  1  6
 10 12  1  0
 11 10  1  0
 12 13  1  6
 13  7  1  0
 14 12  1  0
 15 14  2  0
 16 17  1  0
 17 18  1  0
 18 19  1  0
 20 19  1  1
 20 21  1  0
 20 22  1  0
 21 14  1  0
 22 24  1  0
 23 22  2  0
M  END
$$$$
