MTM.pdb
     RDKit          3D

 24 23  0  0  1  0  0  0  0  0999 V2000
    7.3447  -11.5143   19.8719 C   0  0  0  0  0  0  0  0  0  0  0  0
    7.6668  -12.5348   18.4500 S   0  0  0  0  0  0  0  0  0  0  0  0
    8.7622  -13.9026   18.6480 C   0  0  0  0  0  0  0  0  0  0  0  0
    9.0682  -14.3466   20.0188 C   0  0  0  0  0  0  0  0  0  0  0  0
   10.0492  -15.4167   20.2566 C   0  0  2  0  0  0  0  0  0  0  0  0
   10.1953  -16.4144   19.2420 N   0  0  0  0  0  0  0  0  0  0  0  0
    9.7983  -16.1486   21.5497 C   0  0  0  0  0  0  0  0  0  0  0  0
    9.4220  -15.5482   22.5936 O   0  0  0  0  0  0  0  0  0  0  0  0
    8.9028  -20.2409   21.6634 C   0  0  0  0  0  0  0  0  0  0  0  0
    9.8722  -19.7322   22.7190 C   0  0  1  0  0  0  0  0  0  0  0  0
   11.1912  -20.0212   22.3903 O   0  0  0  0  0  0  0  0  0  0  0  0
    9.7073  -18.2163   22.8819 C   0  0  2  0  0  0  0  0  0  0  0  0
    9.9766  -17.5559   21.6469 N   0  0  0  0  0  0  0  0  0  0  0  0
   10.6051  -17.8053   23.9816 C   0  0  0  0  0  0  0  0  0  0  0  0
   11.7325  -17.2795   23.8326 O   0  0  0  0  0  0  0  0  0  0  0  0
   10.1884  -13.1781   29.8731 C   0  0  0  0  0  0  0  0  0  0  0  0
    9.5225  -14.0183   28.3903 S   0  0  0  0  0  0  0  0  0  0  0  0
   10.4871  -15.5294   28.0508 C   0  0  0  0  0  0  0  0  0  0  0  0
    9.9570  -16.1827   26.8064 C   0  0  0  0  0  0  0  0  0  0  0  0
   10.7753  -17.4103   26.4654 C   0  0  2  0  0  0  0  0  0  0  0  0
   10.1525  -18.0242   25.3111 N   0  0  0  0  0  0  0  0  0  0  0  0
   10.9096  -18.3187   27.5978 C   0  0  0  0  0  0  0  0  0  0  0  0
   10.1382  -19.2922   27.7389 O   0  0  0  0  0  0  0  0  0  0  0  0
   11.8987  -18.1163   28.5393 O   0  0  0  0  0  0  0  0  0  0  0  0
  1  2  1  0
  2  3  1  0
  4  3  1  0
  5  4  1  0
  5  6  1  6
  7  5  1  0
  7  8  2  0
 10  9  1  6
 10 12  1  0
 11 10  1  0
 12 13  1  6
 13  7  1  0
 14 12  1  0
 15 14  2  0
 16 17  1  0
 17 18  1  0
 18 19  1  0
 20 19  1  1
 20 21  1  0
 20 22  1  0
 21 14  1  0
 22 24  1  0
 23 22  2  0
M  END
$$$$
