MTM.pdb
     RDKit          3D

 24 23  0  0  1  0  0  0  0  0999 V2000
    9.5443  -11.8629   18.8076 C   0  0  0  0  0  0  0  0  0  0  0  0
    8.3281  -13.0426   18.2636 S   0  0  0  0  0  0  0  0  0  0  0  0
    8.9021  -14.5763   17.6091 C   0  0  0  0  0  0  0  0  0  0  0  0
   10.2618  -15.0129   17.9702 C   0  0  0  0  0  0  0  0  0  0  0  0
   10.4752  -15.9478   19.0858 C   0  0  2  0  0  0  0  0  0  0  0  0
    9.9171  -17.2592   18.9628 N   0  0  0  0  0  0  0  0  0  0  0  0
    9.9904  -15.3932   20.4004 C   0  0  0  0  0  0  0  0  0  0  0  0
   10.3564  -14.2620   20.8224 O   0  0  0  0  0  0  0  0  0  0  0  0
    6.1813  -15.3971   21.2781 C   0  0  0  0  0  0  0  0  0  0  0  0
    6.9964  -15.9534   22.4353 C   0  0  1  0  0  0  0  0  0  0  0  0
    6.9665  -17.3424   22.4667 O   0  0  0  0  0  0  0  0  0  0  0  0
    8.4492  -15.4768   22.3177 C   0  0  2  0  0  0  0  0  0  0  0  0
    9.0943  -16.1274   21.2248 N   0  0  0  0  0  0  0  0  0  0  0  0
    9.0904  -15.7366   23.6238 C   0  0  0  0  0  0  0  0  0  0  0  0
    9.7828  -16.7439   23.8985 O   0  0  0  0  0  0  0  0  0  0  0  0
    6.8739  -10.8476   27.8382 C   0  0  0  0  0  0  0  0  0  0  0  0
    6.1318  -12.2799   26.9744 S   0  0  0  0  0  0  0  0  0  0  0  0
    7.4135  -13.1543   26.0141 C   0  0  0  0  0  0  0  0  0  0  0  0
    7.7451  -14.4489   26.6999 C   0  0  0  0  0  0  0  0  0  0  0  0
    8.9560  -15.0916   26.0569 C   0  0  2  0  0  0  0  0  0  0  0  0
    8.9060  -14.7669   24.6466 N   0  0  0  0  0  0  0  0  0  0  0  0
    9.0252  -16.5248   26.3152 C   0  0  0  0  0  0  0  0  0  0  0  0
    8.1978  -17.3125   25.8076 O   0  0  0  0  0  0  0  0  0  0  0  0
   10.0135  -17.0384   27.1310 O   0  0  0  0  0  0  0  0  0  0  0  0
  1  2  1  0
  2  3  1  0
  4  3  1  0
  5  4  1  0
  5  6  1  6
  7  5  1  0
  7  8  2  0
 10  9  1  6
 10 12  1  0
 11 10  1  0
 12 13  1  6
 13  7  1  0
 14 12  1  0
 15 14  2  0
 16 17  1  0
 17 18  1  0
 18 19  1  0
 20 19  1  1
 20 21  1  0
 20 22  1  0
 21 14  1  0
 22 24  1  0
 23 22  2  0
M  END
$$$$
