MTM.pdb
     RDKit          3D

 24 23  0  0  1  0  0  0  0  0999 V2000
    7.3201  -11.2319   26.0176 C   0  0  0  0  0  0  0  0  0  0  0  0
    5.8187  -12.0470   26.5158 S   0  0  0  0  0  0  0  0  0  0  0  0
    5.5590  -13.7031   25.9682 C   0  0  0  0  0  0  0  0  0  0  0  0
    6.7321  -14.4705   25.5159 C   0  0  0  0  0  0  0  0  0  0  0  0
    6.5644  -15.7834   24.8738 C   0  0  2  0  0  0  0  0  0  0  0  0
    5.8539  -16.7881   25.6032 N   0  0  0  0  0  0  0  0  0  0  0  0
    7.8797  -16.3948   24.4652 C   0  0  0  0  0  0  0  0  0  0  0  0
    8.4432  -17.2876   25.1560 O   0  0  0  0  0  0  0  0  0  0  0  0
    8.8983  -16.6169   20.5541 C   0  0  0  0  0  0  0  0  0  0  0  0
   10.0968  -16.3004   21.4351 C   0  0  1  0  0  0  0  0  0  0  0  0
   10.4746  -14.9670   21.3328 O   0  0  0  0  0  0  0  0  0  0  0  0
    9.7620  -16.6251   22.8960 C   0  0  2  0  0  0  0  0  0  0  0  0
    8.5443  -15.9875   23.2759 N   0  0  0  0  0  0  0  0  0  0  0  0
   10.9270  -16.2068   23.7037 C   0  0  0  0  0  0  0  0  0  0  0  0
   11.3514  -15.0320   23.8008 O   0  0  0  0  0  0  0  0  0  0  0  0
   10.5152  -13.5278   27.3824 C   0  0  0  0  0  0  0  0  0  0  0  0
   11.7369  -14.5281   28.3072 S   0  0  0  0  0  0  0  0  0  0  0  0
   11.4206  -16.3032   28.0277 C   0  0  0  0  0  0  0  0  0  0  0  0
   10.9802  -16.5069   26.6061 C   0  0  0  0  0  0  0  0  0  0  0  0
   12.1318  -17.0157   25.7647 C   0  0  2  0  0  0  0  0  0  0  0  0
   11.6183  -17.2172   24.4258 N   0  0  0  0  0  0  0  0  0  0  0  0
   12.7462  -18.2105   26.3310 C   0  0  0  0  0  0  0  0  0  0  0  0
   13.7738  -18.1337   27.0387 O   0  0  0  0  0  0  0  0  0  0  0  0
   12.1984  -19.4549   26.0926 O   0  0  0  0  0  0  0  0  0  0  0  0
  1  2  1  0
  2  3  1  0
  4  3  1  0
  5  4  1  0
  5  6  1  1
  7  5  1  0
  7  8  2  0
 10  9  1  6
 10 12  1  0
 11 10  1  0
 12 13  1  1
 13  7  1  0
 14 12  1  0
 15 14  2  0
 16 17  1  0
 17 18  1  0
 18 19  1  0
 20 19  1  1
 20 21  1  0
 20 22  1  0
 21 14  1  0
 22 24  1  0
 23 22  2  0
M  END
$$$$
