CIW.pdb
     RDKit          3D

 29 30  0  0  1  0  0  0  0  0999 V2000
    5.2954  -19.4333   22.1404 N   0  0  0  0  0  0  0  0  0  0  0  0
    5.2689  -17.9999   22.3577 C   0  0  1  0  0  0  0  0  0  0  0  0
    4.8289  -17.7281   23.7806 C   0  0  0  0  0  0  0  0  0  0  0  0
    6.1499  -18.2019   24.9287 S   0  0  0  0  0  0  0  0  0  0  0  0
    6.6376  -17.4830   22.1022 C   0  0  0  0  0  0  0  0  0  0  0  0
    7.6345  -18.2478   22.0794 O   0  0  0  0  0  0  0  0  0  0  0  0
    6.9301  -13.1404   18.9722 C   0  0  0  0  0  0  0  0  0  0  0  0
    7.1989  -14.4094   19.7414 C   0  0  0  0  0  0  0  0  0  0  0  0
    8.0213  -14.1803   20.9859 C   0  0  2  0  0  0  0  0  0  0  0  0
    9.3081  -13.4791   20.7044 C   0  0  0  0  0  0  0  0  0  0  0  0
    8.1732  -15.5007   21.7022 C   0  0  2  0  0  0  0  0  0  0  0  0
    6.8569  -16.0802   21.8724 N   0  0  0  0  0  0  0  0  0  0  0  0
    8.8703  -15.3383   23.0075 C   0  0  0  0  0  0  0  0  0  0  0  0
    8.4147  -14.5239   23.8436 O   0  0  0  0  0  0  0  0  0  0  0  0
   10.0376  -16.0579   23.3733 N   0  0  0  0  0  0  0  0  0  0  0  0
   10.6256  -15.9180   24.6906 C   0  0  1  0  0  0  0  0  0  0  0  0
    9.6462  -16.2748   25.7903 C   0  0  0  0  0  0  0  0  0  0  0  0
    9.3165  -15.1067   26.6331 C   0  0  0  0  0  0  0  0  0  0  0  0
   10.0294  -14.6504   27.7181 C   0  0  0  0  0  0  0  0  0  0  0  0
    9.4020  -13.5484   28.2262 N   0  0  0  0  0  0  0  0  0  0  0  0
    8.3093  -13.2796   27.5057 C   0  0  0  0  0  0  0  0  0  0  0  0
    7.3588  -12.2847   27.6192 C   0  0  0  0  0  0  0  0  0  0  0  0
    6.3103  -12.2249   26.7348 C   0  0  0  0  0  0  0  0  0  0  0  0
    6.2336  -13.1760   25.7406 C   0  0  0  0  0  0  0  0  0  0  0  0
    7.1967  -14.1792   25.6302 C   0  0  0  0  0  0  0  0  0  0  0  0
    8.2458  -14.2530   26.5015 C   0  0  0  0  0  0  0  0  0  0  0  0
   11.8742  -16.7151   24.8184 C   0  0  0  0  0  0  0  0  0  0  0  0
   12.2148  -17.7327   23.9597 O   0  0  0  0  0  0  0  0  0  0  0  0
   12.6396  -16.4321   25.7586 O   0  0  0  0  0  0  0  0  0  0  0  0
  2  3  1  0
  2  1  1  1
  3  4  1  0
  5  6  2  0
  5  2  1  0
  8  7  1  0
  9 10  1  6
  9  8  1  0
 11 12  1  1
 11  9  1  0
 12  5  1  0
 13 11  1  0
 14 13  2  0
 15 13  1  0
 16 15  1  0
 16 17  1  1
 17 18  1  0
 18 26  1  0
 18 19  2  0
 19 20  1  0
 21 20  1  0
 21 22  2  0
 23 22  1  0
 24 23  2  0
 25 26  2  0
 25 24  1  0
 26 21  1  0
 27 16  1  0
 28 27  1  0
 29 27  2  0
M  END
$$$$
