CIW.pdb
     RDKit          3D

 29 30  0  0  1  0  0  0  0  0999 V2000
    6.7606  -20.4336   20.8903 N   0  0  0  0  0  0  0  0  0  0  0  0
    6.3915  -19.1659   21.4897 C   0  0  1  0  0  0  0  0  0  0  0  0
    6.0293  -19.3973   22.9413 C   0  0  0  0  0  0  0  0  0  0  0  0
    7.5027  -19.9140   23.8629 S   0  0  0  0  0  0  0  0  0  0  0  0
    7.5551  -18.2525   21.3572 C   0  0  0  0  0  0  0  0  0  0  0  0
    8.7126  -18.6911   21.1404 O   0  0  0  0  0  0  0  0  0  0  0  0
    7.2375  -12.2693   21.4532 C   0  0  0  0  0  0  0  0  0  0  0  0
    7.9058  -13.5663   21.8344 C   0  0  0  0  0  0  0  0  0  0  0  0
    7.8583  -14.5984   20.7344 C   0  0  2  0  0  0  0  0  0  0  0  0
    6.4956  -14.7495   20.1454 C   0  0  0  0  0  0  0  0  0  0  0  0
    8.4561  -15.8804   21.2625 C   0  0  2  0  0  0  0  0  0  0  0  0
    7.3830  -16.8293   21.4750 N   0  0  0  0  0  0  0  0  0  0  0  0
    9.2338  -15.6483   22.5105 C   0  0  0  0  0  0  0  0  0  0  0  0
   10.2460  -14.9110   22.4686 O   0  0  0  0  0  0  0  0  0  0  0  0
    8.8980  -16.2173   23.7666 N   0  0  0  0  0  0  0  0  0  0  0  0
    9.7589  -16.0533   24.9209 C   0  0  1  0  0  0  0  0  0  0  0  0
    8.9759  -16.0547   26.2180 C   0  0  0  0  0  0  0  0  0  0  0  0
    7.7766  -15.1951   26.1372 C   0  0  0  0  0  0  0  0  0  0  0  0
    6.4849  -15.6085   25.9040 C   0  0  0  0  0  0  0  0  0  0  0  0
    5.6650  -14.5159   25.9056 N   0  0  0  0  0  0  0  0  0  0  0  0
    6.3845  -13.4129   26.1318 C   0  0  0  0  0  0  0  0  0  0  0  0
    6.0201  -12.0844   26.2256 C   0  0  0  0  0  0  0  0  0  0  0  0
    6.9686  -11.1222   26.4696 C   0  0  0  0  0  0  0  0  0  0  0  0
    8.2812  -11.5149   26.6167 C   0  0  0  0  0  0  0  0  0  0  0  0
    8.6441  -12.8585   26.5210 C   0  0  0  0  0  0  0  0  0  0  0  0
    7.7134  -13.8282   26.2789 C   0  0  0  0  0  0  0  0  0  0  0  0
   10.8316  -17.0824   24.9523 C   0  0  0  0  0  0  0  0  0  0  0  0
   11.8675  -17.0698   25.8556 O   0  0  0  0  0  0  0  0  0  0  0  0
   10.7725  -17.9962   24.1089 O   0  0  0  0  0  0  0  0  0  0  0  0
  2  3  1  0
  2  1  1  1
  3  4  1  0
  5  6  2  0
  5  2  1  0
  8  7  1  0
  9 10  1  1
  9  8  1  0
 11 12  1  1
 11  9  1  0
 12  5  1  0
 13 11  1  0
 14 13  2  0
 15 13  1  0
 16 15  1  0
 16 17  1  1
 17 18  1  0
 18 26  1  0
 18 19  2  0
 19 20  1  0
 21 20  1  0
 21 22  2  0
 23 22  1  0
 24 23  2  0
 25 26  2  0
 25 24  1  0
 26 21  1  0
 27 16  1  0
 28 27  1  0
 29 27  2  0
M  END
$$$$
