CIW.pdb
     RDKit          3D

 29 30  0  0  1  0  0  0  0  0999 V2000
    5.2805  -17.5453   21.5505 N   0  0  0  0  0  0  0  0  0  0  0  0
    5.8295  -17.4943   22.8916 C   0  0  1  0  0  0  0  0  0  0  0  0
    6.4980  -18.8175   23.1980 C   0  0  0  0  0  0  0  0  0  0  0  0
    7.4626  -18.6743   24.7266 S   0  0  0  0  0  0  0  0  0  0  0  0
    6.7994  -16.3704   22.9358 C   0  0  0  0  0  0  0  0  0  0  0  0
    7.5469  -16.1096   21.9598 O   0  0  0  0  0  0  0  0  0  0  0  0
    5.5413  -12.3348   26.3279 C   0  0  0  0  0  0  0  0  0  0  0  0
    6.0703  -13.1873   25.2020 C   0  0  0  0  0  0  0  0  0  0  0  0
    7.4994  -13.6229   25.4150 C   0  0  2  0  0  0  0  0  0  0  0  0
    8.4193  -12.4755   25.6676 C   0  0  0  0  0  0  0  0  0  0  0  0
    7.9029  -14.5038   24.2571 C   0  0  2  0  0  0  0  0  0  0  0  0
    6.9074  -15.5451   24.1088 N   0  0  0  0  0  0  0  0  0  0  0  0
    9.2640  -15.0745   24.4519 C   0  0  0  0  0  0  0  0  0  0  0  0
   10.2522  -14.3042   24.4550 O   0  0  0  0  0  0  0  0  0  0  0  0
    9.5202  -16.4581   24.6374 N   0  0  0  0  0  0  0  0  0  0  0  0
   10.8717  -16.9594   24.7867 C   0  0  1  0  0  0  0  0  0  0  0  0
   11.0293  -17.8050   26.0340 C   0  0  0  0  0  0  0  0  0  0  0  0
   10.1754  -17.3202   27.1383 C   0  0  0  0  0  0  0  0  0  0  0  0
    9.0349  -17.9221   27.6186 C   0  0  0  0  0  0  0  0  0  0  0  0
    8.5355  -17.1676   28.6421 N   0  0  0  0  0  0  0  0  0  0  0  0
    9.3153  -16.1002   28.8372 C   0  0  0  0  0  0  0  0  0  0  0  0
    9.2331  -15.0579   29.7390 C   0  0  0  0  0  0  0  0  0  0  0  0
   10.1797  -14.0634   29.7355 C   0  0  0  0  0  0  0  0  0  0  0  0
   11.2039  -14.1335   28.8164 C   0  0  0  0  0  0  0  0  0  0  0  0
   11.2824  -15.1888   27.9074 C   0  0  0  0  0  0  0  0  0  0  0  0
   10.3493  -16.1861   27.8973 C   0  0  0  0  0  0  0  0  0  0  0  0
   11.3111  -17.7116   23.5817 C   0  0  0  0  0  0  0  0  0  0  0  0
   12.5728  -18.2365   23.4344 O   0  0  0  0  0  0  0  0  0  0  0  0
   10.4793  -17.8644   22.6681 O   0  0  0  0  0  0  0  0  0  0  0  0
  2  3  1  0
  2  1  1  6
  3  4  1  0
  5  6  2  0
  5  2  1  0
  8  7  1  0
  9 10  1  6
  9  8  1  0
 11 12  1  1
 11  9  1  0
 12  5  1  0
 13 11  1  0
 14 13  2  0
 15 13  1  0
 16 15  1  0
 16 17  1  1
 17 18  1  0
 18 26  1  0
 18 19  2  0
 19 20  1  0
 21 20  1  0
 21 22  2  0
 23 22  1  0
 24 23  2  0
 25 26  2  0
 25 24  1  0
 26 21  1  0
 27 16  1  0
 28 27  1  0
 29 27  2  0
M  END
$$$$
