CIW.pdb
     RDKit          3D

 29 30  0  0  1  0  0  0  0  0999 V2000
    6.3582  -19.5134   19.6146 N   0  0  0  0  0  0  0  0  0  0  0  0
    6.3803  -18.6476   20.7776 C   0  0  1  0  0  0  0  0  0  0  0  0
    6.4582  -19.5034   22.0240 C   0  0  0  0  0  0  0  0  0  0  0  0
    6.4362  -18.4429   23.4945 S   0  0  0  0  0  0  0  0  0  0  0  0
    7.5637  -17.7590   20.6516 C   0  0  0  0  0  0  0  0  0  0  0  0
    8.6517  -18.1773   20.1822 O   0  0  0  0  0  0  0  0  0  0  0  0
    6.7426  -12.5806   19.5051 C   0  0  0  0  0  0  0  0  0  0  0  0
    7.4532  -13.9040   19.6384 C   0  0  0  0  0  0  0  0  0  0  0  0
    8.1327  -14.0752   20.9750 C   0  0  2  0  0  0  0  0  0  0  0  0
    9.1711  -13.0343   21.2303 C   0  0  0  0  0  0  0  0  0  0  0  0
    8.6353  -15.4956   21.0716 C   0  0  2  0  0  0  0  0  0  0  0  0
    7.4917  -16.3842   21.0682 N   0  0  0  0  0  0  0  0  0  0  0  0
    9.4784  -15.6968   22.2819 C   0  0  0  0  0  0  0  0  0  0  0  0
   10.6380  -15.2225   22.3015 O   0  0  0  0  0  0  0  0  0  0  0  0
    9.0475  -16.4029   23.4352 N   0  0  0  0  0  0  0  0  0  0  0  0
    9.8574  -16.4474   24.6362 C   0  0  1  0  0  0  0  0  0  0  0  0
    9.7363  -15.1752   25.4502 C   0  0  0  0  0  0  0  0  0  0  0  0
    8.3259  -14.8303   25.7246 C   0  0  0  0  0  0  0  0  0  0  0  0
    7.2454  -15.6798   25.6573 C   0  0  0  0  0  0  0  0  0  0  0  0
    6.1161  -14.9839   25.9835 N   0  0  0  0  0  0  0  0  0  0  0  0
    6.4323  -13.7151   26.2585 C   0  0  0  0  0  0  0  0  0  0  0  0
    5.6547  -12.6374   26.6330 C   0  0  0  0  0  0  0  0  0  0  0  0
    6.2325  -11.4131   26.8617 C   0  0  0  0  0  0  0  0  0  0  0  0
    7.5965  -11.2908   26.7087 C   0  0  0  0  0  0  0  0  0  0  0  0
    8.3778  -12.3828   26.3302 C   0  0  0  0  0  0  0  0  0  0  0  0
    7.8191  -13.6074   26.0989 C   0  0  0  0  0  0  0  0  0  0  0  0
    9.5354  -17.6372   25.4678 C   0  0  0  0  0  0  0  0  0  0  0  0
    8.5919  -18.5734   25.1179 O   0  0  0  0  0  0  0  0  0  0  0  0
   10.1632  -17.7767   26.5337 O   0  0  0  0  0  0  0  0  0  0  0  0
  2  3  1  0
  2  1  1  6
  3  4  1  0
  5  6  2  0
  5  2  1  0
  8  7  1  0
  9 10  1  6
  9  8  1  0
 11 12  1  1
 11  9  1  0
 12  5  1  0
 13 11  1  0
 14 13  2  0
 15 13  1  0
 16 15  1  0
 16 17  1  1
 17 18  1  0
 18 26  1  0
 18 19  2  0
 19 20  1  0
 21 20  1  0
 21 22  2  0
 23 22  1  0
 24 23  2  0
 25 26  2  0
 25 24  1  0
 26 21  1  0
 27 16  1  0
 28 27  1  0
 29 27  2  0
M  END
$$$$
