CIW.pdb
     RDKit          3D

 29 30  0  0  1  0  0  0  0  0999 V2000
    5.3426  -19.3864   21.3403 N   0  0  0  0  0  0  0  0  0  0  0  0
    5.3183  -17.9955   21.7492 C   0  0  1  0  0  0  0  0  0  0  0  0
    4.8747  -17.9174   23.1945 C   0  0  0  0  0  0  0  0  0  0  0  0
    6.1641  -18.6072   24.2666 S   0  0  0  0  0  0  0  0  0  0  0  0
    6.6888  -17.4520   21.5695 C   0  0  0  0  0  0  0  0  0  0  0  0
    7.6732  -18.2069   21.3689 O   0  0  0  0  0  0  0  0  0  0  0  0
    6.7844  -12.8033   19.2330 C   0  0  0  0  0  0  0  0  0  0  0  0
    7.0971  -14.1505   19.8343 C   0  0  0  0  0  0  0  0  0  0  0  0
    8.1308  -14.0796   20.9316 C   0  0  2  0  0  0  0  0  0  0  0  0
    9.4257  -13.5025   20.4660 C   0  0  0  0  0  0  0  0  0  0  0  0
    8.2468  -15.4470   21.5612 C   0  0  2  0  0  0  0  0  0  0  0  0
    6.9243  -16.0340   21.6213 N   0  0  0  0  0  0  0  0  0  0  0  0
    8.8743  -15.3774   22.9093 C   0  0  0  0  0  0  0  0  0  0  0  0
    8.8650  -14.2887   23.5295 O   0  0  0  0  0  0  0  0  0  0  0  0
    9.4932  -16.4826   23.5495 N   0  0  0  0  0  0  0  0  0  0  0  0
   10.2442  -16.3165   24.7778 C   0  0  1  0  0  0  0  0  0  0  0  0
    9.4342  -16.7103   25.9962 C   0  0  0  0  0  0  0  0  0  0  0  0
    8.2068  -15.8978   26.1265 C   0  0  0  0  0  0  0  0  0  0  0  0
    6.9417  -16.2507   25.7156 C   0  0  0  0  0  0  0  0  0  0  0  0
    6.0810  -15.2328   26.0142 N   0  0  0  0  0  0  0  0  0  0  0  0
    6.7485  -14.2363   26.6032 C   0  0  0  0  0  0  0  0  0  0  0  0
    6.3302  -13.0115   27.0838 C   0  0  0  0  0  0  0  0  0  0  0  0
    7.2310  -12.1486   27.6574 C   0  0  0  0  0  0  0  0  0  0  0  0
    8.5512  -12.5349   27.7393 C   0  0  0  0  0  0  0  0  0  0  0  0
    8.9688  -13.7737   27.2522 C   0  0  0  0  0  0  0  0  0  0  0  0
    8.0858  -14.6437   26.6789 C   0  0  0  0  0  0  0  0  0  0  0  0
   11.5297  -17.0624   24.7366 C   0  0  0  0  0  0  0  0  0  0  0  0
   12.4758  -16.9971   25.7315 O   0  0  0  0  0  0  0  0  0  0  0  0
   11.7438  -17.7787   23.7413 O   0  0  0  0  0  0  0  0  0  0  0  0
  2  3  1  0
  2  1  1  1
  3  4  1  0
  5  6  2  0
  5  2  1  0
  8  7  1  0
  9 10  1  6
  9  8  1  0
 11 12  1  1
 11  9  1  0
 12  5  1  0
 13 11  1  0
 14 13  2  0
 15 13  1  0
 16 15  1  0
 16 17  1  1
 17 18  1  0
 18 26  1  0
 18 19  2  0
 19 20  1  0
 21 20  1  0
 21 22  2  0
 23 22  1  0
 24 23  2  0
 25 26  2  0
 25 24  1  0
 26 21  1  0
 27 16  1  0
 28 27  1  0
 29 27  2  0
M  END
$$$$
