CIW.pdb
     RDKit          3D

 29 30  0  0  1  0  0  0  0  0999 V2000
   13.1203  -16.8439   18.5368 N   0  0  0  0  0  0  0  0  0  0  0  0
   11.8749  -17.3657   19.0654 C   0  0  1  0  0  0  0  0  0  0  0  0
   12.1245  -18.7460   19.6349 C   0  0  0  0  0  0  0  0  0  0  0  0
   12.4389  -19.9152   18.2852 S   0  0  0  0  0  0  0  0  0  0  0  0
   11.4020  -16.4222   20.1104 C   0  0  0  0  0  0  0  0  0  0  0  0
   12.2086  -15.7918   20.8392 O   0  0  0  0  0  0  0  0  0  0  0  0
    6.9222  -13.5905   19.2215 C   0  0  0  0  0  0  0  0  0  0  0  0
    8.2432  -14.0790   19.7605 C   0  0  0  0  0  0  0  0  0  0  0  0
    8.0969  -14.9140   21.0091 C   0  0  2  0  0  0  0  0  0  0  0  0
    7.3607  -14.2022   22.0945 C   0  0  0  0  0  0  0  0  0  0  0  0
    9.4649  -15.4143   21.4064 C   0  0  2  0  0  0  0  0  0  0  0  0
    9.9949  -16.2053   20.3152 N   0  0  0  0  0  0  0  0  0  0  0  0
    9.4154  -16.1959   22.6725 C   0  0  0  0  0  0  0  0  0  0  0  0
    9.4910  -17.4454   22.6196 O   0  0  0  0  0  0  0  0  0  0  0  0
    9.2859  -15.6082   23.9578 N   0  0  0  0  0  0  0  0  0  0  0  0
    9.4221  -16.4000   25.1640 C   0  0  1  0  0  0  0  0  0  0  0  0
    9.1750  -15.5788   26.4132 C   0  0  0  0  0  0  0  0  0  0  0  0
    7.8982  -14.8385   26.3408 C   0  0  0  0  0  0  0  0  0  0  0  0
    6.6573  -15.3676   26.0687 C   0  0  0  0  0  0  0  0  0  0  0  0
    5.7336  -14.3614   26.0942 N   0  0  0  0  0  0  0  0  0  0  0  0
    6.3372  -13.2024   26.3732 C   0  0  0  0  0  0  0  0  0  0  0  0
    5.8422  -11.9206   26.5078 C   0  0  0  0  0  0  0  0  0  0  0  0
    6.6872  -10.8798   26.8039 C   0  0  0  0  0  0  0  0  0  0  0  0
    8.0298  -11.1471   26.9614 C   0  0  0  0  0  0  0  0  0  0  0  0
    8.5250  -12.4441   26.8244 C   0  0  0  0  0  0  0  0  0  0  0  0
    7.6982  -13.4906   26.5302 C   0  0  0  0  0  0  0  0  0  0  0  0
    8.5373  -17.5945   25.1357 C   0  0  0  0  0  0  0  0  0  0  0  0
    8.7463  -18.7109   25.9097 O   0  0  0  0  0  0  0  0  0  0  0  0
    7.5605  -17.5645   24.3644 O   0  0  0  0  0  0  0  0  0  0  0  0
  2  3  1  0
  2  1  1  1
  3  4  1  0
  5  6  2  0
  5  2  1  0
  8  7  1  0
  9 10  1  1
  9  8  1  0
 11 12  1  6
 11  9  1  0
 12  5  1  0
 13 11  1  0
 14 13  2  0
 15 13  1  0
 16 15  1  0
 16 17  1  1
 17 18  1  0
 18 26  1  0
 18 19  2  0
 19 20  1  0
 21 20  1  0
 21 22  2  0
 23 22  1  0
 24 23  2  0
 25 26  2  0
 25 24  1  0
 26 21  1  0
 27 16  1  0
 28 27  1  0
 29 27  2  0
M  END
$$$$
