CIW.pdb
     RDKit          3D

 29 30  0  0  1  0  0  0  0  0999 V2000
    7.0475  -20.2820   20.4386 N   0  0  0  0  0  0  0  0  0  0  0  0
    6.6381  -19.1291   21.2170 C   0  0  1  0  0  0  0  0  0  0  0  0
    6.6109  -19.5113   22.6816 C   0  0  0  0  0  0  0  0  0  0  0  0
    8.2233  -20.1840   23.1666 S   0  0  0  0  0  0  0  0  0  0  0  0
    7.6159  -18.0422   20.9553 C   0  0  0  0  0  0  0  0  0  0  0  0
    8.7518  -18.2827   20.4745 O   0  0  0  0  0  0  0  0  0  0  0  0
    7.6755  -11.9351   20.0543 C   0  0  0  0  0  0  0  0  0  0  0  0
    8.3688  -13.2339   20.3806 C   0  0  0  0  0  0  0  0  0  0  0  0
    7.4124  -14.3207   20.8070 C   0  0  2  0  0  0  0  0  0  0  0  0
    6.5313  -13.9015   21.9360 C   0  0  0  0  0  0  0  0  0  0  0  0
    8.2093  -15.5759   21.0695 C   0  0  2  0  0  0  0  0  0  0  0  0
    7.2826  -16.6741   21.2491 N   0  0  0  0  0  0  0  0  0  0  0  0
    9.1044  -15.4194   22.2486 C   0  0  0  0  0  0  0  0  0  0  0  0
   10.0579  -14.6089   22.1856 O   0  0  0  0  0  0  0  0  0  0  0  0
    8.9459  -16.1405   23.4607 N   0  0  0  0  0  0  0  0  0  0  0  0
    9.8403  -15.9328   24.5820 C   0  0  1  0  0  0  0  0  0  0  0  0
    9.1370  -16.1186   25.9112 C   0  0  0  0  0  0  0  0  0  0  0  0
    7.8577  -15.3810   25.9641 C   0  0  0  0  0  0  0  0  0  0  0  0
    6.6006  -15.9029   25.7609 C   0  0  0  0  0  0  0  0  0  0  0  0
    5.6805  -14.9024   25.8970 N   0  0  0  0  0  0  0  0  0  0  0  0
    6.3019  -13.7541   26.1808 C   0  0  0  0  0  0  0  0  0  0  0  0
    5.8169  -12.4811   26.4061 C   0  0  0  0  0  0  0  0  0  0  0  0
    6.6805  -11.4506   26.6842 C   0  0  0  0  0  0  0  0  0  0  0  0
    8.0312  -11.7191   26.7316 C   0  0  0  0  0  0  0  0  0  0  0  0
    8.5161  -13.0070   26.5031 C   0  0  0  0  0  0  0  0  0  0  0  0
    7.6710  -14.0433   26.2254 C   0  0  0  0  0  0  0  0  0  0  0  0
   11.0389  -16.8081   24.4936 C   0  0  0  0  0  0  0  0  0  0  0  0
   11.2014  -17.7755   23.5309 O   0  0  0  0  0  0  0  0  0  0  0  0
   11.9323  -16.6422   25.3446 O   0  0  0  0  0  0  0  0  0  0  0  0
  2  3  1  0
  2  1  1  6
  3  4  1  0
  5  6  2  0
  5  2  1  0
  8  7  1  0
  9 10  1  1
  9  8  1  0
 11 12  1  1
 11  9  1  0
 12  5  1  0
 13 11  1  0
 14 13  2  0
 15 13  1  0
 16 15  1  0
 16 17  1  1
 17 18  1  0
 18 26  1  0
 18 19  2  0
 19 20  1  0
 21 20  1  0
 21 22  2  0
 23 22  1  0
 24 23  2  0
 25 26  2  0
 25 24  1  0
 26 21  1  0
 27 16  1  0
 28 27  1  0
 29 27  2  0
M  END
$$$$
