CIW.pdb
     RDKit          3D

 29 30  0  0  1  0  0  0  0  0999 V2000
    9.3944  -19.3479   18.9474 N   0  0  0  0  0  0  0  0  0  0  0  0
    8.6494  -18.7494   20.0380 C   0  0  1  0  0  0  0  0  0  0  0  0
    8.6370  -19.7099   21.2080 C   0  0  0  0  0  0  0  0  0  0  0  0
    8.2524  -21.3817   20.6209 S   0  0  0  0  0  0  0  0  0  0  0  0
    9.3192  -17.4711   20.3891 C   0  0  0  0  0  0  0  0  0  0  0  0
   10.5447  -17.2920   20.1759 O   0  0  0  0  0  0  0  0  0  0  0  0
    6.6958  -12.8946   19.6685 C   0  0  0  0  0  0  0  0  0  0  0  0
    7.7680  -13.9311   19.8924 C   0  0  0  0  0  0  0  0  0  0  0  0
    8.1690  -14.0595   21.3416 C   0  0  2  0  0  0  0  0  0  0  0  0
    8.6041  -12.7616   21.9355 C   0  0  0  0  0  0  0  0  0  0  0  0
    9.1858  -15.1700   21.4544 C   0  0  2  0  0  0  0  0  0  0  0  0
    8.5735  -16.3967   20.9878 N   0  0  0  0  0  0  0  0  0  0  0  0
    9.6924  -15.3089   22.8473 C   0  0  0  0  0  0  0  0  0  0  0  0
   10.4479  -14.4236   23.3112 O   0  0  0  0  0  0  0  0  0  0  0  0
    9.3700  -16.3974   23.6991 N   0  0  0  0  0  0  0  0  0  0  0  0
    9.8648  -16.4597   25.0599 C   0  0  1  0  0  0  0  0  0  0  0  0
    8.7613  -16.7662   26.0519 C   0  0  0  0  0  0  0  0  0  0  0  0
    7.6354  -15.8167   25.9324 C   0  0  0  0  0  0  0  0  0  0  0  0
    6.3589  -16.1069   25.5077 C   0  0  0  0  0  0  0  0  0  0  0  0
    5.6128  -14.9630   25.5393 N   0  0  0  0  0  0  0  0  0  0  0  0
    6.3651  -13.9460   25.9697 C   0  0  0  0  0  0  0  0  0  0  0  0
    6.0735  -12.6116   26.1711 C   0  0  0  0  0  0  0  0  0  0  0  0
    7.0419  -11.7529   26.6292 C   0  0  0  0  0  0  0  0  0  0  0  0
    8.3006  -12.2547   26.8800 C   0  0  0  0  0  0  0  0  0  0  0  0
    8.5901  -13.6038   26.6749 C   0  0  0  0  0  0  0  0  0  0  0  0
    7.6385  -14.4714   26.2197 C   0  0  0  0  0  0  0  0  0  0  0  0
   10.9777  -17.4369   25.1918 C   0  0  0  0  0  0  0  0  0  0  0  0
   11.7564  -17.5509   26.3186 O   0  0  0  0  0  0  0  0  0  0  0  0
   11.2017  -18.1830   24.2208 O   0  0  0  0  0  0  0  0  0  0  0  0
  2  3  1  0
  2  1  1  6
  3  4  1  0
  5  6  2  0
  5  2  1  0
  8  7  1  0
  9 10  1  6
  9  8  1  0
 11 12  1  1
 11  9  1  0
 12  5  1  0
 13 11  1  0
 14 13  2  0
 15 13  1  0
 16 15  1  0
 16 17  1  1
 17 18  1  0
 18 26  1  0
 18 19  2  0
 19 20  1  0
 21 20  1  0
 21 22  2  0
 23 22  1  0
 24 23  2  0
 25 26  2  0
 25 24  1  0
 26 21  1  0
 27 16  1  0
 28 27  1  0
 29 27  2  0
M  END
$$$$
