CIW.pdb
     RDKit          3D

 29 30  0  0  1  0  0  0  0  0999 V2000
    5.7890  -18.8444   19.2086 N   0  0  0  0  0  0  0  0  0  0  0  0
    5.6812  -18.0650   20.4265 C   0  0  1  0  0  0  0  0  0  0  0  0
    5.3957  -18.9996   21.5827 C   0  0  0  0  0  0  0  0  0  0  0  0
    5.4055  -18.0673   23.1378 S   0  0  0  0  0  0  0  0  0  0  0  0
    6.9668  -17.3448   20.6124 C   0  0  0  0  0  0  0  0  0  0  0  0
    8.0713  -17.9333   20.4985 O   0  0  0  0  0  0  0  0  0  0  0  0
    7.2753  -12.4025   18.9578 C   0  0  0  0  0  0  0  0  0  0  0  0
    7.5841  -13.7881   19.4667 C   0  0  0  0  0  0  0  0  0  0  0  0
    8.0512  -13.7976   20.9016 C   0  0  2  0  0  0  0  0  0  0  0  0
    9.2829  -12.9817   21.1113 C   0  0  0  0  0  0  0  0  0  0  0  0
    8.1696  -15.2341   21.3511 C   0  0  2  0  0  0  0  0  0  0  0  0
    6.9784  -15.9421   20.9305 N   0  0  0  0  0  0  0  0  0  0  0  0
    8.3713  -15.3323   22.8227 C   0  0  0  0  0  0  0  0  0  0  0  0
    7.7007  -14.5926   23.5796 O   0  0  0  0  0  0  0  0  0  0  0  0
    9.2895  -16.2244   23.4354 N   0  0  0  0  0  0  0  0  0  0  0  0
    9.9508  -15.8859   24.6797 C   0  0  1  0  0  0  0  0  0  0  0  0
    9.1674  -16.3609   25.8866 C   0  0  0  0  0  0  0  0  0  0  0  0
    7.8512  -15.6963   25.9840 C   0  0  0  0  0  0  0  0  0  0  0  0
    6.6198  -16.2850   25.8084 C   0  0  0  0  0  0  0  0  0  0  0  0
    5.6498  -15.3390   25.9826 N   0  0  0  0  0  0  0  0  0  0  0  0
    6.2144  -14.1611   26.2641 C   0  0  0  0  0  0  0  0  0  0  0  0
    5.6662  -12.9198   26.5190 C   0  0  0  0  0  0  0  0  0  0  0  0
    6.4788  -11.8461   26.7866 C   0  0  0  0  0  0  0  0  0  0  0  0
    7.8432  -12.0394   26.7937 C   0  0  0  0  0  0  0  0  0  0  0  0
    8.3920  -13.2957   26.5354 C   0  0  0  0  0  0  0  0  0  0  0  0
    7.5981  -14.3742   26.2675 C   0  0  0  0  0  0  0  0  0  0  0  0
   11.3429  -16.4068   24.7174 C   0  0  0  0  0  0  0  0  0  0  0  0
   12.2024  -16.1968   25.7691 O   0  0  0  0  0  0  0  0  0  0  0  0
   11.7337  -17.0657   23.7361 O   0  0  0  0  0  0  0  0  0  0  0  0
  2  3  1  0
  2  1  1  6
  3  4  1  0
  5  6  2  0
  5  2  1  0
  8  7  1  0
  9 10  1  6
  9  8  1  0
 11 12  1  1
 11  9  1  0
 12  5  1  0
 13 11  1  0
 14 13  2  0
 15 13  1  0
 16 15  1  0
 16 17  1  1
 17 18  1  0
 18 26  1  0
 18 19  2  0
 19 20  1  0
 21 20  1  0
 21 22  2  0
 23 22  1  0
 24 23  2  0
 25 26  2  0
 25 24  1  0
 26 21  1  0
 27 16  1  0
 28 27  1  0
 29 27  2  0
M  END
$$$$
