KET.pdb
     RDKit          3D

 26 25  0  0  1  0  0  0  0  0999 V2000
   25.5257  -24.1069  -14.8680 N   0  0  0  0  0  0  0  0  0  0  0  0
   25.0791  -23.2985  -15.9612 C   0  0  1  0  0  0  0  0  0  0  0  0
   24.0864  -24.1289  -16.7898 C   0  0  0  0  0  0  0  0  0  0  0  0
   23.4489  -25.0850  -15.8406 C   0  0  0  0  0  0  0  0  0  0  0  0
   23.3422  -26.4948  -16.2974 C   0  0  0  0  0  0  0  0  0  0  0  0
   22.6438  -27.4346  -15.3787 C   0  0  0  0  0  0  0  0  0  0  0  0
   22.5731  -28.7871  -15.8388 N   0  0  0  0  0  0  0  0  0  0  0  0
   24.4261  -22.0403  -15.5131 C   0  0  0  0  0  0  0  0  0  0  0  0
   24.0979  -21.9024  -14.3091 O   0  0  0  0  0  0  0  0  0  0  0  0
   24.1642  -20.9928  -16.4072 N   0  0  0  0  0  0  0  0  0  0  0  0
   23.5508  -19.7376  -16.0465 C   0  0  1  0  0  0  0  0  0  0  0  0
   23.7443  -18.6925  -17.1358 C   0  0  0  0  0  0  0  0  0  0  0  0
   23.0902  -17.3814  -16.7556 C   0  0  0  0  0  0  0  0  0  0  0  0
   23.3295  -16.3870  -17.8309 C   0  0  0  0  0  0  0  0  0  0  0  0
   22.3613  -15.7294  -18.3299 O   0  0  0  0  0  0  0  0  0  0  0  0
   22.1001  -19.9099  -15.7424 C   0  0  0  0  0  0  0  0  0  0  0  0
   21.3660  -20.5566  -16.5321 O   0  0  0  0  0  0  0  0  0  0  0  0
   24.5871  -16.1388  -18.3249 O   0  0  0  0  0  0  0  0  0  0  0  0
   20.7701  -19.5100  -11.7786 C   0  0  0  0  0  0  0  0  0  0  0  0
   20.0904  -20.2938  -12.8713 C   0  0  1  0  0  0  0  0  0  0  0  0
   18.7779  -20.5092  -12.5171 O   0  0  0  0  0  0  0  0  0  0  0  0
   20.1927  -19.5455  -14.1961 C   0  0  2  0  0  0  0  0  0  0  0  0
   21.5738  -19.3310  -14.5502 N   0  0  0  0  0  0  0  0  0  0  0  0
   19.4850  -18.2571  -14.1462 C   0  0  0  0  0  0  0  0  0  0  0  0
   18.1227  -18.2100  -13.9320 O   0  0  0  0  0  0  0  0  0  0  0  0
   20.0932  -17.1647  -14.2959 O   0  0  0  0  0  0  0  0  0  0  0  0
  2  1  1  1
  2  3  1  0
  3  4  1  0
  5  6  1  0
  5  4  1  0
  7  6  1  0
  8  2  1  0
  9  8  2  0
 10  8  1  0
 11 10  1  0
 11 12  1  6
 13 12  1  0
 14 18  1  0
 14 13  1  0
 15 14  2  0
 16 11  1  0
 16 17  2  0
 20 19  1  1
 20 22  1  0
 20 21  1  0
 22 23  1  1
 23 16  1  0
 24 22  1  0
 25 24  1  0
 26 24  2  0
M  END
$$$$
