KET.pdb
     RDKit          3D

 26 25  0  0  1  0  0  0  0  0999 V2000
   15.4047  -11.9211  -15.0460 N   0  0  0  0  0  0  0  0  0  0  0  0
   15.2384  -10.5001  -15.0079 C   0  0  1  0  0  0  0  0  0  0  0  0
   14.7023  -10.1230  -13.6180 C   0  0  0  0  0  0  0  0  0  0  0  0
   13.2589  -10.4948  -13.6131 C   0  0  0  0  0  0  0  0  0  0  0  0
   12.5469  -10.3559  -12.3165 C   0  0  0  0  0  0  0  0  0  0  0  0
   11.1446  -10.8530  -12.2777 C   0  0  0  0  0  0  0  0  0  0  0  0
   10.5242  -10.8085  -10.9896 N   0  0  0  0  0  0  0  0  0  0  0  0
   16.5057   -9.7685  -15.2701 C   0  0  0  0  0  0  0  0  0  0  0  0
   17.5891  -10.4000  -15.3328 O   0  0  0  0  0  0  0  0  0  0  0  0
   16.5245   -8.3785  -15.4511 N   0  0  0  0  0  0  0  0  0  0  0  0
   17.6757   -7.6201  -15.8774 C   0  0  1  0  0  0  0  0  0  0  0  0
   17.2636   -6.3384  -16.5871 C   0  0  0  0  0  0  0  0  0  0  0  0
   16.5359   -6.6409  -17.8795 C   0  0  0  0  0  0  0  0  0  0  0  0
   16.1308   -5.3655  -18.5211 C   0  0  0  0  0  0  0  0  0  0  0  0
   14.9013   -5.1030  -18.7173 O   0  0  0  0  0  0  0  0  0  0  0  0
   18.5784   -7.3123  -14.7296 C   0  0  0  0  0  0  0  0  0  0  0  0
   18.0909   -6.9739  -13.6212 O   0  0  0  0  0  0  0  0  0  0  0  0
   17.0520   -4.4294  -18.9238 O   0  0  0  0  0  0  0  0  0  0  0  0
   21.4273   -9.6409  -13.6183 C   0  0  0  0  0  0  0  0  0  0  0  0
   21.9954   -8.2607  -13.8252 C   0  0  1  0  0  0  0  0  0  0  0  0
   22.6778   -8.2324  -15.0201 O   0  0  0  0  0  0  0  0  0  0  0  0
   20.8778   -7.2233  -13.7990 C   0  0  2  0  0  0  0  0  0  0  0  0
   19.9884   -7.4101  -14.9183 N   0  0  0  0  0  0  0  0  0  0  0  0
   21.4111   -5.8527  -13.8093 C   0  0  0  0  0  0  0  0  0  0  0  0
   22.1704   -5.3846  -12.7564 O   0  0  0  0  0  0  0  0  0  0  0  0
   21.1946   -5.0683  -14.7703 O   0  0  0  0  0  0  0  0  0  0  0  0
  2  1  1  1
  2  3  1  0
  3  4  1  0
  5  6  1  0
  5  4  1  0
  7  6  1  0
  8  2  1  0
  9  8  2  0
 10  8  1  0
 11 10  1  0
 11 12  1  1
 13 12  1  0
 14 18  1  0
 14 13  1  0
 15 14  2  0
 16 11  1  0
 16 17  2  0
 20 19  1  6
 20 22  1  0
 20 21  1  0
 22 23  1  6
 23 16  1  0
 24 22  1  0
 25 24  1  0
 26 24  2  0
M  END
$$$$
