KET.pdb
     RDKit          3D

 26 25  0  0  1  0  0  0  0  0999 V2000
   15.5355  -12.5850  -13.9080 N   0  0  0  0  0  0  0  0  0  0  0  0
   15.3812  -11.4390  -14.7513 C   0  0  1  0  0  0  0  0  0  0  0  0
   13.8875  -11.0807  -14.7950 C   0  0  0  0  0  0  0  0  0  0  0  0
   13.1901  -12.2702  -15.3610 C   0  0  0  0  0  0  0  0  0  0  0  0
   12.1231  -12.8710  -14.5196 C   0  0  0  0  0  0  0  0  0  0  0  0
   11.2971  -13.9309  -15.1594 C   0  0  0  0  0  0  0  0  0  0  0  0
   10.3795  -14.5917  -14.2832 N   0  0  0  0  0  0  0  0  0  0  0  0
   16.1622  -10.2677  -14.2735 C   0  0  0  0  0  0  0  0  0  0  0  0
   16.0019   -9.8472  -13.1013 O   0  0  0  0  0  0  0  0  0  0  0  0
   17.0822   -9.6131  -15.1043 N   0  0  0  0  0  0  0  0  0  0  0  0
   17.8628   -8.4618  -14.7205 C   0  0  1  0  0  0  0  0  0  0  0  0
   19.3462   -8.6874  -14.9758 C   0  0  0  0  0  0  0  0  0  0  0  0
   20.1689   -7.5184  -14.4780 C   0  0  0  0  0  0  0  0  0  0  0  0
   21.5926   -7.7368  -14.8350 C   0  0  0  0  0  0  0  0  0  0  0  0
   21.9592   -8.8175  -15.3978 O   0  0  0  0  0  0  0  0  0  0  0  0
   17.3954   -7.2305  -15.4222 C   0  0  0  0  0  0  0  0  0  0  0  0
   17.2042   -7.2508  -16.6647 O   0  0  0  0  0  0  0  0  0  0  0  0
   22.5596   -6.7958  -14.5767 O   0  0  0  0  0  0  0  0  0  0  0  0
   14.2421   -5.3967  -14.9966 C   0  0  0  0  0  0  0  0  0  0  0  0
   15.3453   -4.4332  -14.6428 C   0  0  1  0  0  0  0  0  0  0  0  0
   15.4682   -4.3774  -13.2731 O   0  0  0  0  0  0  0  0  0  0  0  0
   16.6514   -4.8655  -15.3007 C   0  0  2  0  0  0  0  0  0  0  0  0
   17.1738   -6.0464  -14.6593 N   0  0  0  0  0  0  0  0  0  0  0  0
   17.6568   -3.7926  -15.2647 C   0  0  0  0  0  0  0  0  0  0  0  0
   17.4140   -2.5795  -15.8758 O   0  0  0  0  0  0  0  0  0  0  0  0
   18.7619   -3.9441  -14.6805 O   0  0  0  0  0  0  0  0  0  0  0  0
  2  1  1  1
  2  3  1  0
  3  4  1  0
  5  6  1  0
  5  4  1  0
  7  6  1  0
  8  2  1  0
  9  8  2  0
 10  8  1  0
 11 10  1  0
 11 12  1  6
 13 12  1  0
 14 18  1  0
 14 13  1  0
 15 14  2  0
 16 11  1  0
 16 17  2  0
 20 19  1  1
 20 22  1  0
 20 21  1  0
 22 23  1  1
 23 16  1  0
 24 22  1  0
 25 24  1  0
 26 24  2  0
M  END
$$$$
