KET.pdb
     RDKit          3D

 26 25  0  0  1  0  0  0  0  0999 V2000
   14.7976  -12.2749  -17.9451 N   0  0  0  0  0  0  0  0  0  0  0  0
   15.5605  -11.9433  -16.7805 C   0  0  1  0  0  0  0  0  0  0  0  0
   16.4495  -13.1489  -16.4376 C   0  0  0  0  0  0  0  0  0  0  0  0
   15.5266  -14.2408  -16.0161 C   0  0  0  0  0  0  0  0  0  0  0  0
   16.1623  -15.5190  -15.6044 C   0  0  0  0  0  0  0  0  0  0  0  0
   15.2394  -16.6137  -15.1983 C   0  0  0  0  0  0  0  0  0  0  0  0
   15.8826  -17.8203  -14.7783 N   0  0  0  0  0  0  0  0  0  0  0  0
   16.4075  -10.7372  -16.9756 C   0  0  0  0  0  0  0  0  0  0  0  0
   17.1385  -10.6461  -17.9924 O   0  0  0  0  0  0  0  0  0  0  0  0
   16.4125   -9.6880  -16.0459 N   0  0  0  0  0  0  0  0  0  0  0  0
   17.2542   -8.5190  -16.1295 C   0  0  1  0  0  0  0  0  0  0  0  0
   16.4602   -7.2448  -15.8802 C   0  0  0  0  0  0  0  0  0  0  0  0
   17.3416   -6.0204  -16.0031 C   0  0  0  0  0  0  0  0  0  0  0  0
   16.5388   -4.8092  -15.7019 C   0  0  0  0  0  0  0  0  0  0  0  0
   15.3282   -4.9139  -15.3245 O   0  0  0  0  0  0  0  0  0  0  0  0
   18.4042   -8.6093  -15.1828 C   0  0  0  0  0  0  0  0  0  0  0  0
   18.2226   -9.0356  -14.0141 O   0  0  0  0  0  0  0  0  0  0  0  0
   17.0611   -3.5438  -15.8162 O   0  0  0  0  0  0  0  0  0  0  0  0
   23.0992   -9.2546  -14.4241 C   0  0  0  0  0  0  0  0  0  0  0  0
   21.8758   -9.2500  -15.3037 C   0  0  1  0  0  0  0  0  0  0  0  0
   21.3885  -10.5337  -15.3988 O   0  0  0  0  0  0  0  0  0  0  0  0
   20.8266   -8.2979  -14.7395 C   0  0  2  0  0  0  0  0  0  0  0  0
   19.6966   -8.2056  -15.6302 N   0  0  0  0  0  0  0  0  0  0  0  0
   21.3840   -6.9579  -14.5009 C   0  0  0  0  0  0  0  0  0  0  0  0
   21.9280   -6.6295  -13.2760 O   0  0  0  0  0  0  0  0  0  0  0  0
   21.3832   -6.0744  -15.3981 O   0  0  0  0  0  0  0  0  0  0  0  0
  2  1  1  6
  2  3  1  0
  3  4  1  0
  5  6  1  0
  5  4  1  0
  7  6  1  0
  8  2  1  0
  9  8  2  0
 10  8  1  0
 11 10  1  0
 11 12  1  1
 13 12  1  0
 14 18  1  0
 14 13  1  0
 15 14  2  0
 16 11  1  0
 16 17  2  0
 20 19  1  1
 20 22  1  0
 20 21  1  0
 22 23  1  6
 23 16  1  0
 24 22  1  0
 25 24  1  0
 26 24  2  0
M  END
$$$$
