KET.pdb
     RDKit          3D

 26 25  0  0  1  0  0  0  0  0999 V2000
   25.9747  -19.9924  -16.6406 N   0  0  0  0  0  0  0  0  0  0  0  0
   25.1684  -19.0575  -15.9167 C   0  0  1  0  0  0  0  0  0  0  0  0
   25.2902  -17.6911  -16.6093 C   0  0  0  0  0  0  0  0  0  0  0  0
   26.7411  -17.4924  -16.8868 C   0  0  0  0  0  0  0  0  0  0  0  0
   27.1760  -17.6884  -18.2938 C   0  0  0  0  0  0  0  0  0  0  0  0
   28.5374  -17.1952  -18.6381 C   0  0  0  0  0  0  0  0  0  0  0  0
   28.8982  -17.3323  -20.0154 N   0  0  0  0  0  0  0  0  0  0  0  0
   23.7389  -19.4614  -15.8562 C   0  0  0  0  0  0  0  0  0  0  0  0
   23.2371  -20.1229  -16.7980 O   0  0  0  0  0  0  0  0  0  0  0  0
   22.9275  -19.1204  -14.7651 N   0  0  0  0  0  0  0  0  0  0  0  0
   21.5398  -19.4901  -14.6248 C   0  0  1  0  0  0  0  0  0  0  0  0
   21.1208  -19.5271  -13.1622 C   0  0  0  0  0  0  0  0  0  0  0  0
   19.6434  -19.8273  -13.0258 C   0  0  0  0  0  0  0  0  0  0  0  0
   19.4713  -21.2190  -12.5401 C   0  0  0  0  0  0  0  0  0  0  0  0
   20.4680  -21.8793  -12.1047 O   0  0  0  0  0  0  0  0  0  0  0  0
   20.6526  -18.5718  -15.3972 C   0  0  0  0  0  0  0  0  0  0  0  0
   20.7573  -17.3276  -15.2504 O   0  0  0  0  0  0  0  0  0  0  0  0
   18.2474  -21.8429  -12.5401 O   0  0  0  0  0  0  0  0  0  0  0  0
   20.0644  -18.3043  -19.1391 C   0  0  0  0  0  0  0  0  0  0  0  0
   18.7485  -18.6392  -18.4859 C   0  0  1  0  0  0  0  0  0  0  0  0
   18.4905  -19.9797  -18.6613 O   0  0  0  0  0  0  0  0  0  0  0  0
   18.7872  -18.2697  -17.0068 C   0  0  2  0  0  0  0  0  0  0  0  0
   19.6961  -19.1326  -16.2939 N   0  0  0  0  0  0  0  0  0  0  0  0
   17.4510  -18.3397  -16.3961 C   0  0  0  0  0  0  0  0  0  0  0  0
   16.4479  -17.4812  -16.7970 O   0  0  0  0  0  0  0  0  0  0  0  0
   17.1808  -19.1775  -15.4958 O   0  0  0  0  0  0  0  0  0  0  0  0
  2  1  1  6
  2  3  1  0
  3  4  1  0
  5  6  1  0
  5  4  1  0
  7  6  1  0
  8  2  1  0
  9  8  2  0
 10  8  1  0
 11 10  1  0
 11 12  1  1
 13 12  1  0
 14 18  1  0
 14 13  1  0
 15 14  2  0
 16 11  1  0
 16 17  2  0
 20 19  1  1
 20 22  1  0
 20 21  1  0
 22 23  1  1
 23 16  1  0
 24 22  1  0
 25 24  1  0
 26 24  2  0
M  END
$$$$
