KET.pdb
     RDKit          3D

 26 25  0  0  1  0  0  0  0  0999 V2000
   16.3496  -12.9570  -13.6355 N   0  0  0  0  0  0  0  0  0  0  0  0
   15.9699  -11.5773  -13.6553 C   0  0  1  0  0  0  0  0  0  0  0  0
   14.4580  -11.4982  -13.3922 C   0  0  0  0  0  0  0  0  0  0  0  0
   13.8000  -12.2055  -14.5273 C   0  0  0  0  0  0  0  0  0  0  0  0
   12.3143  -12.2042  -14.5324 C   0  0  0  0  0  0  0  0  0  0  0  0
   11.6582  -12.8548  -15.6992 C   0  0  0  0  0  0  0  0  0  0  0  0
   10.2431  -13.0248  -15.5781 N   0  0  0  0  0  0  0  0  0  0  0  0
   16.6966  -10.7693  -12.6406 C   0  0  0  0  0  0  0  0  0  0  0  0
   16.7049  -11.1365  -11.4400 O   0  0  0  0  0  0  0  0  0  0  0  0
   17.3799   -9.5966  -12.9913 N   0  0  0  0  0  0  0  0  0  0  0  0
   17.9893   -8.6873  -12.0511 C   0  0  1  0  0  0  0  0  0  0  0  0
   19.2070   -8.0010  -12.6530 C   0  0  0  0  0  0  0  0  0  0  0  0
   19.8314   -7.0362  -11.6677 C   0  0  0  0  0  0  0  0  0  0  0  0
   20.9484   -6.3177  -12.3298 C   0  0  0  0  0  0  0  0  0  0  0  0
   21.5744   -5.3936  -11.7189 O   0  0  0  0  0  0  0  0  0  0  0  0
   17.0089   -7.6738  -11.5628 C   0  0  0  0  0  0  0  0  0  0  0  0
   16.3204   -7.0192  -12.3864 O   0  0  0  0  0  0  0  0  0  0  0  0
   21.3471   -6.6157  -13.6102 O   0  0  0  0  0  0  0  0  0  0  0  0
   14.3162   -6.0835   -7.7740 C   0  0  0  0  0  0  0  0  0  0  0  0
   15.3742   -7.0258   -8.2870 C   0  0  1  0  0  0  0  0  0  0  0  0
   14.8524   -8.2983   -8.3397 O   0  0  0  0  0  0  0  0  0  0  0  0
   15.8645   -6.5693   -9.6571 C   0  0  2  0  0  0  0  0  0  0  0  0
   16.8739   -7.4686  -10.1582 N   0  0  0  0  0  0  0  0  0  0  0  0
   16.3957   -5.1985   -9.6129 C   0  0  0  0  0  0  0  0  0  0  0  0
   17.7479   -4.9625   -9.7536 O   0  0  0  0  0  0  0  0  0  0  0  0
   15.6411   -4.2042   -9.4467 O   0  0  0  0  0  0  0  0  0  0  0  0
  2  1  1  1
  2  3  1  0
  3  4  1  0
  5  6  1  0
  5  4  1  0
  7  6  1  0
  8  2  1  0
  9  8  2  0
 10  8  1  0
 11 10  1  0
 11 12  1  6
 13 12  1  0
 14 18  1  0
 14 13  1  0
 15 14  2  0
 16 11  1  0
 16 17  2  0
 20 19  1  6
 20 22  1  0
 20 21  1  0
 22 23  1  1
 23 16  1  0
 24 22  1  0
 25 24  1  0
 26 24  2  0
M  END
$$$$
