KET.pdb
     RDKit          3D

 26 25  0  0  1  0  0  0  0  0999 V2000
   18.1512  -11.9397  -15.1538 N   0  0  0  0  0  0  0  0  0  0  0  0
   18.2473  -10.8070  -16.0232 C   0  0  1  0  0  0  0  0  0  0  0  0
   16.9862  -10.7749  -16.9007 C   0  0  0  0  0  0  0  0  0  0  0  0
   17.0846  -11.9480  -17.8149 C   0  0  0  0  0  0  0  0  0  0  0  0
   16.4505  -13.2061  -17.3433 C   0  0  0  0  0  0  0  0  0  0  0  0
   16.4355  -14.3390  -18.3084 C   0  0  0  0  0  0  0  0  0  0  0  0
   15.6831  -15.4803  -17.8872 N   0  0  0  0  0  0  0  0  0  0  0  0
   18.3723   -9.5250  -15.2808 C   0  0  0  0  0  0  0  0  0  0  0  0
   17.9251   -9.4353  -14.1110 O   0  0  0  0  0  0  0  0  0  0  0  0
   18.9822   -8.4019  -15.8570 N   0  0  0  0  0  0  0  0  0  0  0  0
   19.1150   -7.1173  -15.2135 C   0  0  1  0  0  0  0  0  0  0  0  0
   20.5352   -6.8905  -14.7156 C   0  0  0  0  0  0  0  0  0  0  0  0
   20.6468   -5.5813  -13.9641 C   0  0  0  0  0  0  0  0  0  0  0  0
   22.0186   -5.4506  -13.4131 C   0  0  0  0  0  0  0  0  0  0  0  0
   22.6701   -6.4816  -13.0505 O   0  0  0  0  0  0  0  0  0  0  0  0
   18.6990   -6.0092  -16.1224 C   0  0  0  0  0  0  0  0  0  0  0  0
   19.1647   -5.9460  -17.2885 O   0  0  0  0  0  0  0  0  0  0  0  0
   22.6328   -4.2298  -13.2738 O   0  0  0  0  0  0  0  0  0  0  0  0
   15.2130   -5.1175  -17.2581 C   0  0  0  0  0  0  0  0  0  0  0  0
   15.7810   -3.9350  -16.5168 C   0  0  1  0  0  0  0  0  0  0  0  0
   15.2835   -3.9307  -15.2335 O   0  0  0  0  0  0  0  0  0  0  0  0
   17.3049   -3.9946  -16.5217 C   0  0  2  0  0  0  0  0  0  0  0  0
   17.7728   -5.0371  -15.6424 N   0  0  0  0  0  0  0  0  0  0  0  0
   17.8983   -2.7074  -16.1289 C   0  0  0  0  0  0  0  0  0  0  0  0
   18.6359   -2.5972  -14.9679 O   0  0  0  0  0  0  0  0  0  0  0  0
   17.7542   -1.6731  -16.8324 O   0  0  0  0  0  0  0  0  0  0  0  0
  2  1  1  1
  2  3  1  0
  3  4  1  0
  5  6  1  0
  5  4  1  0
  7  6  1  0
  8  2  1  0
  9  8  2  0
 10  8  1  0
 11 10  1  0
 11 12  1  6
 13 12  1  0
 14 18  1  0
 14 13  1  0
 15 14  2  0
 16 11  1  0
 16 17  2  0
 20 19  1  6
 20 22  1  0
 20 21  1  0
 22 23  1  1
 23 16  1  0
 24 22  1  0
 25 24  1  0
 26 24  2  0
M  END
$$$$
