KET.pdb
     RDKit          3D

 26 25  0  0  1  0  0  0  0  0999 V2000
   26.1890  -21.6489  -13.3279 N   0  0  0  0  0  0  0  0  0  0  0  0
   24.9514  -21.8711  -14.0114 C   0  0  1  0  0  0  0  0  0  0  0  0
   24.2389  -23.0498  -13.3299 C   0  0  0  0  0  0  0  0  0  0  0  0
   24.1826  -24.1436  -14.3409 C   0  0  0  0  0  0  0  0  0  0  0  0
   25.2587  -24.1502  -15.3653 C   0  0  0  0  0  0  0  0  0  0  0  0
   25.1538  -25.1898  -16.4252 C   0  0  0  0  0  0  0  0  0  0  0  0
   24.4151  -24.7963  -17.5851 N   0  0  0  0  0  0  0  0  0  0  0  0
   24.0669  -20.6762  -13.9962 C   0  0  0  0  0  0  0  0  0  0  0  0
   23.9145  -20.0263  -12.9328 O   0  0  0  0  0  0  0  0  0  0  0  0
   23.3913  -20.2509  -15.1485 N   0  0  0  0  0  0  0  0  0  0  0  0
   22.5441  -19.0851  -15.2221 C   0  0  1  0  0  0  0  0  0  0  0  0
   22.9848  -18.1489  -16.3382 C   0  0  0  0  0  0  0  0  0  0  0  0
   22.0603  -16.9552  -16.4451 C   0  0  0  0  0  0  0  0  0  0  0  0
   22.5151  -16.0840  -17.5571 C   0  0  0  0  0  0  0  0  0  0  0  0
   23.6227  -16.3081  -18.1418 O   0  0  0  0  0  0  0  0  0  0  0  0
   21.1117  -19.4652  -15.3968 C   0  0  0  0  0  0  0  0  0  0  0  0
   20.7798  -20.2544  -16.3175 O   0  0  0  0  0  0  0  0  0  0  0  0
   21.7707  -15.0156  -17.9949 O   0  0  0  0  0  0  0  0  0  0  0  0
   18.9385  -21.2210  -13.1112 C   0  0  0  0  0  0  0  0  0  0  0  0
   18.2301  -19.9158  -13.3664 C   0  0  1  0  0  0  0  0  0  0  0  0
   18.4142  -19.0877  -12.2826 O   0  0  0  0  0  0  0  0  0  0  0  0
   18.7523  -19.2767  -14.6488 C   0  0  2  0  0  0  0  0  0  0  0  0
   20.1417  -18.9187  -14.5058 N   0  0  0  0  0  0  0  0  0  0  0  0
   17.9675  -18.0897  -15.0207 C   0  0  0  0  0  0  0  0  0  0  0  0
   16.6084  -18.1844  -15.2394 O   0  0  0  0  0  0  0  0  0  0  0  0
   18.5048  -16.9583  -15.1505 O   0  0  0  0  0  0  0  0  0  0  0  0
  2  1  1  1
  2  3  1  0
  3  4  1  0
  5  6  1  0
  5  4  1  0
  7  6  1  0
  8  2  1  0
  9  8  2  0
 10  8  1  0
 11 10  1  0
 11 12  1  6
 13 12  1  0
 14 18  1  0
 14 13  1  0
 15 14  2  0
 16 11  1  0
 16 17  2  0
 20 19  1  1
 20 22  1  0
 20 21  1  0
 22 23  1  1
 23 16  1  0
 24 22  1  0
 25 24  1  0
 26 24  2  0
M  END
$$$$
