KET.pdb
     RDKit          3D

 26 25  0  0  1  0  0  0  0  0999 V2000
   16.9926  -11.6489  -17.5694 N   0  0  0  0  0  0  0  0  0  0  0  0
   17.9374  -11.3274  -16.5436 C   0  0  1  0  0  0  0  0  0  0  0  0
   19.1766  -12.2131  -16.7464 C   0  0  0  0  0  0  0  0  0  0  0  0
   18.6836  -13.6195  -16.7744 C   0  0  0  0  0  0  0  0  0  0  0  0
   19.7108  -14.6742  -16.9738 C   0  0  0  0  0  0  0  0  0  0  0  0
   19.2092  -16.0713  -17.0816 C   0  0  0  0  0  0  0  0  0  0  0  0
   20.2182  -17.0583  -17.3135 N   0  0  0  0  0  0  0  0  0  0  0  0
   18.3378   -9.8957  -16.5628 C   0  0  0  0  0  0  0  0  0  0  0  0
   18.9989   -9.4458  -17.5308 O   0  0  0  0  0  0  0  0  0  0  0  0
   17.9940   -9.0254  -15.5190 N   0  0  0  0  0  0  0  0  0  0  0  0
   18.2758   -7.6104  -15.5015 C   0  0  1  0  0  0  0  0  0  0  0  0
   17.0413   -6.8037  -15.1252 C   0  0  0  0  0  0  0  0  0  0  0  0
   15.9108   -7.0501  -16.1012 C   0  0  0  0  0  0  0  0  0  0  0  0
   14.6145   -6.8743  -15.4005 C   0  0  0  0  0  0  0  0  0  0  0  0
   14.2988   -5.7484  -14.8987 O   0  0  0  0  0  0  0  0  0  0  0  0
   19.4057   -7.2932  -14.5797 C   0  0  0  0  0  0  0  0  0  0  0  0
   19.3720   -7.6887  -13.3868 O   0  0  0  0  0  0  0  0  0  0  0  0
   13.7150   -7.9039  -15.2663 O   0  0  0  0  0  0  0  0  0  0  0  0
   23.0318   -8.1908  -14.9026 C   0  0  0  0  0  0  0  0  0  0  0  0
   22.9355   -6.6872  -14.8795 C   0  0  1  0  0  0  0  0  0  0  0  0
   23.0259   -6.2134  -16.1685 O   0  0  0  0  0  0  0  0  0  0  0  0
   21.6310   -6.2545  -14.2186 C   0  0  2  0  0  0  0  0  0  0  0  0
   20.5096   -6.5409  -15.0784 N   0  0  0  0  0  0  0  0  0  0  0  0
   21.6453   -4.8238  -13.8779 C   0  0  0  0  0  0  0  0  0  0  0  0
   20.7647   -3.9480  -14.4791 O   0  0  0  0  0  0  0  0  0  0  0  0
   22.4542   -4.3552  -13.0342 O   0  0  0  0  0  0  0  0  0  0  0  0
  2  1  1  6
  2  3  1  0
  3  4  1  0
  5  6  1  0
  5  4  1  0
  7  6  1  0
  8  2  1  0
  9  8  2  0
 10  8  1  0
 11 10  1  0
 11 12  1  1
 13 12  1  0
 14 18  1  0
 14 13  1  0
 15 14  2  0
 16 11  1  0
 16 17  2  0
 20 19  1  6
 20 22  1  0
 20 21  1  0
 22 23  1  6
 23 16  1  0
 24 22  1  0
 25 24  1  0
 26 24  2  0
M  END
$$$$
