KET.pdb
     RDKit          3D

 26 25  0  0  1  0  0  0  0  0999 V2000
   16.5240  -13.2329  -14.9146 N   0  0  0  0  0  0  0  0  0  0  0  0
   15.6871  -12.1750  -14.4366 C   0  0  1  0  0  0  0  0  0  0  0  0
   14.2832  -12.7527  -14.1978 C   0  0  0  0  0  0  0  0  0  0  0  0
   13.5670  -12.6595  -15.5016 C   0  0  0  0  0  0  0  0  0  0  0  0
   12.4683  -11.6624  -15.5803 C   0  0  0  0  0  0  0  0  0  0  0  0
   11.6304  -11.7001  -16.8098 C   0  0  0  0  0  0  0  0  0  0  0  0
   10.6505  -10.6624  -16.9039 N   0  0  0  0  0  0  0  0  0  0  0  0
   16.1970  -11.5654  -13.1802 C   0  0  0  0  0  0  0  0  0  0  0  0
   16.4264  -12.2922  -12.1824 O   0  0  0  0  0  0  0  0  0  0  0  0
   16.4310  -10.1870  -13.0778 N   0  0  0  0  0  0  0  0  0  0  0  0
   16.9993   -9.5327  -11.9241 C   0  0  1  0  0  0  0  0  0  0  0  0
   18.4091   -9.0344  -12.2075 C   0  0  0  0  0  0  0  0  0  0  0  0
   18.4637   -8.2646  -13.5097 C   0  0  0  0  0  0  0  0  0  0  0  0
   19.8658   -7.8594  -13.7784 C   0  0  0  0  0  0  0  0  0  0  0  0
   20.3027   -6.7355  -13.3723 O   0  0  0  0  0  0  0  0  0  0  0  0
   16.1347   -8.4101  -11.4560 C   0  0  0  0  0  0  0  0  0  0  0  0
   15.4381   -7.7680  -12.2825 O   0  0  0  0  0  0  0  0  0  0  0  0
   20.7373   -8.6685  -14.4662 O   0  0  0  0  0  0  0  0  0  0  0  0
   13.5908   -6.3432   -7.8961 C   0  0  0  0  0  0  0  0  0  0  0  0
   14.4674   -7.4680   -8.3828 C   0  0  1  0  0  0  0  0  0  0  0  0
   13.6756   -8.5504   -8.6923 O   0  0  0  0  0  0  0  0  0  0  0  0
   15.2837   -7.0139   -9.5884 C   0  0  2  0  0  0  0  0  0  0  0  0
   16.1183   -8.0877  -10.0671 N   0  0  0  0  0  0  0  0  0  0  0  0
   16.1130   -5.8417   -9.2702 C   0  0  0  0  0  0  0  0  0  0  0  0
   15.5676   -4.5742   -9.2634 O   0  0  0  0  0  0  0  0  0  0  0  0
   17.3368   -5.9549   -8.9961 O   0  0  0  0  0  0  0  0  0  0  0  0
  2  1  1  1
  2  3  1  0
  3  4  1  0
  5  6  1  0
  5  4  1  0
  7  6  1  0
  8  2  1  0
  9  8  2  0
 10  8  1  0
 11 10  1  0
 11 12  1  6
 13 12  1  0
 14 18  1  0
 14 13  1  0
 15 14  2  0
 16 11  1  0
 16 17  2  0
 20 19  1  6
 20 22  1  0
 20 21  1  0
 22 23  1  1
 23 16  1  0
 24 22  1  0
 25 24  1  0
 26 24  2  0
M  END
$$$$
