KET.pdb
     RDKit          3D

 26 25  0  0  1  0  0  0  0  0999 V2000
   25.8000  -20.1352   -9.4293 N   0  0  0  0  0  0  0  0  0  0  0  0
   24.9661  -20.6050  -10.4934 C   0  0  1  0  0  0  0  0  0  0  0  0
   23.5102  -20.2624  -10.1409 C   0  0  0  0  0  0  0  0  0  0  0  0
   23.1443  -21.1342   -8.9885 C   0  0  0  0  0  0  0  0  0  0  0  0
   22.1824  -20.5642   -8.0102 C   0  0  0  0  0  0  0  0  0  0  0  0
   20.8042  -21.1255   -8.0369 C   0  0  0  0  0  0  0  0  0  0  0  0
   20.4406  -21.8873   -6.8821 N   0  0  0  0  0  0  0  0  0  0  0  0
   25.3180  -20.0007  -11.8054 C   0  0  0  0  0  0  0  0  0  0  0  0
   25.6155  -18.7827  -11.8716 O   0  0  0  0  0  0  0  0  0  0  0  0
   25.3269  -20.7614  -12.9829 N   0  0  0  0  0  0  0  0  0  0  0  0
   25.7305  -20.2684  -14.2776 C   0  0  1  0  0  0  0  0  0  0  0  0
   26.7813  -21.1689  -14.9110 C   0  0  0  0  0  0  0  0  0  0  0  0
   27.1869  -20.6563  -16.2763 C   0  0  0  0  0  0  0  0  0  0  0  0
   28.2575  -21.5252  -16.8251 C   0  0  0  0  0  0  0  0  0  0  0  0
   28.7242  -21.3175  -17.9905 O   0  0  0  0  0  0  0  0  0  0  0  0
   24.5591  -20.1144  -15.1891 C   0  0  0  0  0  0  0  0  0  0  0  0
   23.6368  -20.9688  -15.1753 O   0  0  0  0  0  0  0  0  0  0  0  0
   28.7814  -22.5739  -16.1090 O   0  0  0  0  0  0  0  0  0  0  0  0
   21.4627  -17.2987  -17.4649 C   0  0  0  0  0  0  0  0  0  0  0  0
   22.5565  -17.5907  -16.4705 C   0  0  1  0  0  0  0  0  0  0  0  0
   21.9912  -17.8054  -15.2341 O   0  0  0  0  0  0  0  0  0  0  0  0
   23.3719  -18.7965  -16.9255 C   0  0  2  0  0  0  0  0  0  0  0  0
   24.5121  -18.9898  -16.0645 N   0  0  0  0  0  0  0  0  0  0  0  0
   23.8185  -18.6531  -18.3195 C   0  0  0  0  0  0  0  0  0  0  0  0
   22.9093  -18.6855  -19.3570 O   0  0  0  0  0  0  0  0  0  0  0  0
   25.0339  -18.4976  -18.6096 O   0  0  0  0  0  0  0  0  0  0  0  0
  2  1  1  1
  2  3  1  0
  3  4  1  0
  5  6  1  0
  5  4  1  0
  7  6  1  0
  8  2  1  0
  9  8  2  0
 10  8  1  0
 11 10  1  0
 11 12  1  6
 13 12  1  0
 14 18  1  0
 14 13  1  0
 15 14  2  0
 16 11  1  0
 16 17  2  0
 20 19  1  6
 20 22  1  0
 20 21  1  0
 22 23  1  1
 23 16  1  0
 24 22  1  0
 25 24  1  0
 26 24  2  0
M  END
$$$$
