KET.pdb
     RDKit          3D

 26 25  0  0  1  0  0  0  0  0999 V2000
   26.0029  -21.3828  -14.9414 N   0  0  0  0  0  0  0  0  0  0  0  0
   25.0553  -20.3415  -14.6847 C   0  0  1  0  0  0  0  0  0  0  0  0
   24.9921  -19.4413  -15.9285 C   0  0  0  0  0  0  0  0  0  0  0  0
   26.2800  -19.6395  -16.6522 C   0  0  0  0  0  0  0  0  0  0  0  0
   26.4006  -18.9770  -17.9765 C   0  0  0  0  0  0  0  0  0  0  0  0
   27.7003  -19.1449  -18.6820 C   0  0  0  0  0  0  0  0  0  0  0  0
   27.8004  -18.4594  -19.9334 N   0  0  0  0  0  0  0  0  0  0  0  0
   23.6983  -20.8657  -14.3777 C   0  0  0  0  0  0  0  0  0  0  0  0
   23.3431  -21.9813  -14.8313 O   0  0  0  0  0  0  0  0  0  0  0  0
   22.7952  -20.1410  -13.5875 N   0  0  0  0  0  0  0  0  0  0  0  0
   21.5041  -20.6241  -13.1610 C   0  0  1  0  0  0  0  0  0  0  0  0
   21.1655  -20.1379  -11.7591 C   0  0  0  0  0  0  0  0  0  0  0  0
   19.8529  -20.7217  -11.2821 C   0  0  0  0  0  0  0  0  0  0  0  0
   19.6170  -20.3075   -9.8767 C   0  0  0  0  0  0  0  0  0  0  0  0
   19.4361  -19.0821   -9.5859 O   0  0  0  0  0  0  0  0  0  0  0  0
   20.4325  -20.2298  -14.1217 C   0  0  0  0  0  0  0  0  0  0  0  0
   20.3491  -19.0383  -14.5141 O   0  0  0  0  0  0  0  0  0  0  0  0
   19.5845  -21.2160   -8.8467 O   0  0  0  0  0  0  0  0  0  0  0  0
   19.3870  -22.1688  -17.3953 C   0  0  0  0  0  0  0  0  0  0  0  0
   18.2024  -21.9966  -16.4801 C   0  0  1  0  0  0  0  0  0  0  0  0
   17.9635  -23.1855  -15.8291 O   0  0  0  0  0  0  0  0  0  0  0  0
   18.4624  -20.8645  -15.4918 C   0  0  2  0  0  0  0  0  0  0  0  0
   19.5177  -21.2241  -14.5775 N   0  0  0  0  0  0  0  0  0  0  0  0
   17.2485  -20.5137  -14.7390 C   0  0  0  0  0  0  0  0  0  0  0  0
   16.1209  -20.0608  -15.3926 O   0  0  0  0  0  0  0  0  0  0  0  0
   17.1987  -20.6142  -13.4848 O   0  0  0  0  0  0  0  0  0  0  0  0
  2  1  1  6
  2  3  1  0
  3  4  1  0
  5  6  1  0
  5  4  1  0
  7  6  1  0
  8  2  1  0
  9  8  2  0
 10  8  1  0
 11 10  1  0
 11 12  1  1
 13 12  1  0
 14 18  1  0
 14 13  1  0
 15 14  2  0
 16 11  1  0
 16 17  2  0
 20 19  1  6
 20 22  1  0
 20 21  1  0
 22 23  1  1
 23 16  1  0
 24 22  1  0
 25 24  1  0
 26 24  2  0
M  END
$$$$
