YTH.pdb
     RDKit          3D

 30 31  0  0  1  0  0  0  0  0999 V2000
    7.6961  -11.7230   17.8236 O   0  0  0  0  0  0  0  0  0  0  0  0
    7.8036  -12.5596   18.9397 C   0  0  0  0  0  0  0  0  0  0  0  0
    9.0348  -12.9921   19.3798 C   0  0  0  0  0  0  0  0  0  0  0  0
    9.1446  -13.8204   20.4843 C   0  0  0  0  0  0  0  0  0  0  0  0
    8.0244  -14.2291   21.1659 C   0  0  0  0  0  0  0  0  0  0  0  0
    8.1685  -15.1067   22.3330 C   0  0  0  0  0  0  0  0  0  0  0  0
    8.6069  -16.5130   21.9663 C   0  0  2  0  0  0  0  0  0  0  0  0
    7.4749  -17.1393   21.2887 N   0  0  0  0  0  0  0  0  0  0  0  0
    8.8301  -17.2378   23.2507 C   0  0  0  0  0  0  0  0  0  0  0  0
    7.8089  -17.6502   23.8481 O   0  0  0  0  0  0  0  0  0  0  0  0
    6.7961  -13.7973   20.7263 C   0  0  0  0  0  0  0  0  0  0  0  0
    6.6664  -12.9676   19.6221 C   0  0  0  0  0  0  0  0  0  0  0  0
   11.3968  -20.0610   26.2032 C   0  0  0  0  0  0  0  0  0  0  0  0
   11.3551  -19.2852   24.8952 C   0  0  1  0  0  0  0  0  0  0  0  0
   10.9343  -20.1753   23.9159 O   0  0  0  0  0  0  0  0  0  0  0  0
   10.3273  -18.2164   25.0342 C   0  0  2  0  0  0  0  0  0  0  0  0
   10.0831  -17.4810   23.8185 N   0  0  0  0  0  0  0  0  0  0  0  0
   10.7859  -17.2276   26.0424 C   0  0  0  0  0  0  0  0  0  0  0  0
   10.9334  -15.9916   25.7305 O   0  0  0  0  0  0  0  0  0  0  0  0
   11.0942  -17.5218   27.3899 N   0  0  0  0  0  0  0  0  0  0  0  0
   10.8685  -16.5244   28.4513 C   0  0  1  0  0  0  0  0  0  0  0  0
    9.4418  -16.1015   28.4936 C   0  0  0  0  0  0  0  0  0  0  0  0
    9.1915  -14.8820   27.7144 C   0  0  0  0  0  0  0  0  0  0  0  0
   10.1206  -14.1395   27.0288 C   0  0  0  0  0  0  0  0  0  0  0  0
    9.4981  -13.0819   26.4618 N   0  0  0  0  0  0  0  0  0  0  0  0
    8.1995  -13.1499   26.7803 C   0  0  0  0  0  0  0  0  0  0  0  0
    8.0154  -14.2412   27.5394 N   0  0  0  0  0  0  0  0  0  0  0  0
   11.2754  -17.1418   29.7187 C   0  0  0  0  0  0  0  0  0  0  0  0
   11.4156  -16.4339   30.7414 O   0  0  0  0  0  0  0  0  0  0  0  0
   11.5154  -18.4962   29.8454 O   0  0  0  0  0  0  0  0  0  0  0  0
  2  3  2  0
  2  1  1  0
  4  3  1  0
  5  4  2  0
  6  5  1  0
  7  9  1  0
  7  6  1  0
  7  8  1  6
  9 10  2  0
 11  5  1  0
 11 12  2  0
 12  2  1  0
 14 13  1  1
 15 14  1  0
 16 14  1  0
 16 17  1  6
 17  9  1  0
 18 16  1  0
 19 18  2  0
 20 18  1  0
 21 20  1  0
 21 22  1  1
 23 22  1  0
 24 23  2  0
 25 26  1  0
 25 24  1  0
 26 27  2  0
 27 23  1  0
 28 30  1  0
 28 21  1  0
 29 28  2  0
M  END
$$$$
