YTH.pdb
     RDKit          3D

 30 31  0  0  1  0  0  0  0  0999 V2000
    8.0119  -11.7468   17.5998 O   0  0  0  0  0  0  0  0  0  0  0  0
    8.2516  -12.6958   18.5994 C   0  0  0  0  0  0  0  0  0  0  0  0
    9.5382  -13.0319   18.9576 C   0  0  0  0  0  0  0  0  0  0  0  0
    9.7790  -13.9708   19.9467 C   0  0  0  0  0  0  0  0  0  0  0  0
    8.7362  -14.5884   20.5932 C   0  0  0  0  0  0  0  0  0  0  0  0
    9.0187  -15.5797   21.6375 C   0  0  0  0  0  0  0  0  0  0  0  0
    9.5185  -16.9007   21.0810 C   0  0  2  0  0  0  0  0  0  0  0  0
    8.4476  -17.4313   20.2416 N   0  0  0  0  0  0  0  0  0  0  0  0
    9.6847  -17.8176   22.2456 C   0  0  0  0  0  0  0  0  0  0  0  0
    8.6353  -18.2748   22.7552 O   0  0  0  0  0  0  0  0  0  0  0  0
    7.4526  -14.2528   20.2354 C   0  0  0  0  0  0  0  0  0  0  0  0
    7.1920  -13.3147   19.2472 C   0  0  0  0  0  0  0  0  0  0  0  0
   11.7063  -20.9619   22.5902 C   0  0  0  0  0  0  0  0  0  0  0  0
   12.1357  -20.0901   23.7607 C   0  0  1  0  0  0  0  0  0  0  0  0
   13.3240  -19.4765   23.3872 O   0  0  0  0  0  0  0  0  0  0  0  0
   11.0991  -19.0371   23.9464 C   0  0  2  0  0  0  0  0  0  0  0  0
   10.9142  -18.1916   22.7934 N   0  0  0  0  0  0  0  0  0  0  0  0
   11.5036  -18.1468   25.0637 C   0  0  0  0  0  0  0  0  0  0  0  0
   11.9498  -16.9657   24.8341 O   0  0  0  0  0  0  0  0  0  0  0  0
   11.4439  -18.4829   26.4351 N   0  0  0  0  0  0  0  0  0  0  0  0
   11.3813  -17.4332   27.4679 C   0  0  1  0  0  0  0  0  0  0  0  0
   10.2264  -16.5230   27.2363 C   0  0  0  0  0  0  0  0  0  0  0  0
   10.1296  -15.4651   28.2506 C   0  0  0  0  0  0  0  0  0  0  0  0
   10.8956  -15.3394   29.3828 C   0  0  0  0  0  0  0  0  0  0  0  0
   10.4824  -14.2494   30.0674 N   0  0  0  0  0  0  0  0  0  0  0  0
    9.4738  -13.6931   29.3849 C   0  0  0  0  0  0  0  0  0  0  0  0
    9.2613  -14.4310   28.2843 N   0  0  0  0  0  0  0  0  0  0  0  0
   11.2707  -18.1091   28.7656 C   0  0  0  0  0  0  0  0  0  0  0  0
   11.2447  -17.4355   29.8203 O   0  0  0  0  0  0  0  0  0  0  0  0
   11.1896  -19.4828   28.8866 O   0  0  0  0  0  0  0  0  0  0  0  0
  2  3  2  0
  2  1  1  0
  4  3  1  0
  5  4  2  0
  6  5  1  0
  7  9  1  0
  7  6  1  0
  7  8  1  6
  9 10  2  0
 11  5  1  0
 11 12  2  0
 12  2  1  0
 14 13  1  6
 15 14  1  0
 16 14  1  0
 16 17  1  6
 17  9  1  0
 18 16  1  0
 19 18  2  0
 20 18  1  0
 21 20  1  0
 21 22  1  6
 23 22  1  0
 24 23  2  0
 25 26  1  0
 25 24  1  0
 26 27  2  0
 27 23  1  0
 28 30  1  0
 28 21  1  0
 29 28  2  0
M  END
$$$$
