YTH.pdb
     RDKit          3D

 30 31  0  0  1  0  0  0  0  0999 V2000
   14.2156  -20.3198    9.1146 O   0  0  0  0  0  0  0  0  0  0  0  0
   13.7939  -19.6344   10.2589 C   0  0  0  0  0  0  0  0  0  0  0  0
   12.4793  -19.6854   10.6662 C   0  0  0  0  0  0  0  0  0  0  0  0
   12.0587  -19.0080   11.7984 C   0  0  0  0  0  0  0  0  0  0  0  0
   12.9466  -18.2688   12.5413 C   0  0  0  0  0  0  0  0  0  0  0  0
   12.4751  -17.5606   13.7367 C   0  0  0  0  0  0  0  0  0  0  0  0
   11.6373  -16.3378   13.4092 C   0  0  2  0  0  0  0  0  0  0  0  0
   12.5319  -15.3802   12.7644 N   0  0  0  0  0  0  0  0  0  0  0  0
   11.2060  -15.7557   14.7129 C   0  0  0  0  0  0  0  0  0  0  0  0
   12.0647  -15.0996   15.3470 O   0  0  0  0  0  0  0  0  0  0  0  0
   14.2582  -18.2183   12.1345 C   0  0  0  0  0  0  0  0  0  0  0  0
   14.6979  -18.8901   11.0033 C   0  0  0  0  0  0  0  0  0  0  0  0
    7.8878  -13.7226   17.5360 C   0  0  0  0  0  0  0  0  0  0  0  0
    8.1621  -14.5146   16.2663 C   0  0  1  0  0  0  0  0  0  0  0  0
    8.3234  -13.5882   15.2445 O   0  0  0  0  0  0  0  0  0  0  0  0
    9.4494  -15.2397   16.4531 C   0  0  2  0  0  0  0  0  0  0  0  0
    9.9284  -15.8935   15.2609 N   0  0  0  0  0  0  0  0  0  0  0  0
    9.2663  -16.3021   17.4741 C   0  0  0  0  0  0  0  0  0  0  0  0
    8.8305  -17.4629   17.1435 O   0  0  0  0  0  0  0  0  0  0  0  0
    9.5393  -16.1613   18.8536 N   0  0  0  0  0  0  0  0  0  0  0  0
   10.2481  -17.2197   19.5951 C   0  0  1  0  0  0  0  0  0  0  0  0
   11.5324  -17.5711   18.9293 C   0  0  0  0  0  0  0  0  0  0  0  0
   12.2512  -18.6479   19.6227 C   0  0  0  0  0  0  0  0  0  0  0  0
   11.7078  -19.5989   20.4503 C   0  0  0  0  0  0  0  0  0  0  0  0
   12.7004  -20.3939   20.9085 N   0  0  0  0  0  0  0  0  0  0  0  0
   13.8522  -19.9576   20.3834 C   0  0  0  0  0  0  0  0  0  0  0  0
   13.5782  -18.8995   19.6046 N   0  0  0  0  0  0  0  0  0  0  0  0
   10.4768  -16.7168   20.9544 C   0  0  0  0  0  0  0  0  0  0  0  0
   10.9971  -17.4609   21.8161 O   0  0  0  0  0  0  0  0  0  0  0  0
   10.1416  -15.4338   21.3412 O   0  0  0  0  0  0  0  0  0  0  0  0
  2  3  2  0
  2  1  1  0
  4  3  1  0
  5  4  2  0
  6  5  1  0
  7  9  1  0
  7  6  1  0
  7  8  1  1
  9 10  2  0
 11  5  1  0
 11 12  2  0
 12  2  1  0
 14 13  1  1
 15 14  1  0
 16 14  1  0
 16 17  1  6
 17  9  1  0
 18 16  1  0
 19 18  2  0
 20 18  1  0
 21 20  1  0
 21 22  1  6
 23 22  1  0
 24 23  2  0
 25 26  1  0
 25 24  1  0
 26 27  2  0
 27 23  1  0
 28 30  1  0
 28 21  1  0
 29 28  2  0
M  END
$$$$
