YTH.pdb
     RDKit          3D

 30 31  0  0  1  0  0  0  0  0999 V2000
    7.8911  -12.1806   17.5764 O   0  0  0  0  0  0  0  0  0  0  0  0
    8.0036  -12.9950   18.7083 C   0  0  0  0  0  0  0  0  0  0  0  0
    8.4861  -14.2809   18.6058 C   0  0  0  0  0  0  0  0  0  0  0  0
    8.5988  -15.0896   19.7243 C   0  0  0  0  0  0  0  0  0  0  0  0
    8.2305  -14.6248   20.9632 C   0  0  0  0  0  0  0  0  0  0  0  0
    8.3598  -15.5022   22.1321 C   0  0  0  0  0  0  0  0  0  0  0  0
    8.8821  -16.8837   21.7812 C   0  0  2  0  0  0  0  0  0  0  0  0
    7.8947  -17.4891   20.8916 N   0  0  0  0  0  0  0  0  0  0  0  0
    8.8974  -17.6679   23.0499 C   0  0  0  0  0  0  0  0  0  0  0  0
    8.0526  -18.5875   23.1525 O   0  0  0  0  0  0  0  0  0  0  0  0
    7.7491  -13.3417   21.0650 C   0  0  0  0  0  0  0  0  0  0  0  0
    7.6292  -12.5171   19.9560 C   0  0  0  0  0  0  0  0  0  0  0  0
    9.8894  -20.2232   23.5010 C   0  0  0  0  0  0  0  0  0  0  0  0
   10.8219  -19.6261   24.5443 C   0  0  1  0  0  0  0  0  0  0  0  0
   11.9696  -19.2266   23.8725 O   0  0  0  0  0  0  0  0  0  0  0  0
   10.1590  -18.4166   25.1061 C   0  0  2  0  0  0  0  0  0  0  0  0
    9.7784  -17.4454   24.1110 N   0  0  0  0  0  0  0  0  0  0  0  0
   11.0981  -17.7310   26.0295 C   0  0  0  0  0  0  0  0  0  0  0  0
   11.6988  -16.6538   25.6751 O   0  0  0  0  0  0  0  0  0  0  0  0
   11.4179  -18.1650   27.3359 N   0  0  0  0  0  0  0  0  0  0  0  0
   11.2447  -17.2687   28.4930 C   0  0  1  0  0  0  0  0  0  0  0  0
    9.8391  -16.7885   28.5922 C   0  0  0  0  0  0  0  0  0  0  0  0
    9.6527  -15.4611   27.9918 C   0  0  0  0  0  0  0  0  0  0  0  0
   10.6295  -14.6519   27.4669 C   0  0  0  0  0  0  0  0  0  0  0  0
   10.0576  -13.5056   27.0351 N   0  0  0  0  0  0  0  0  0  0  0  0
    8.7438  -13.5836   27.2805 C   0  0  0  0  0  0  0  0  0  0  0  0
    8.5001  -14.7693   27.8603 N   0  0  0  0  0  0  0  0  0  0  0  0
   11.6308  -18.0264   29.6888 C   0  0  0  0  0  0  0  0  0  0  0  0
   11.4665  -19.2669   29.7220 O   0  0  0  0  0  0  0  0  0  0  0  0
   12.1812  -17.4279   30.8055 O   0  0  0  0  0  0  0  0  0  0  0  0
  2  3  2  0
  2  1  1  0
  4  3  1  0
  5  4  2  0
  6  5  1  0
  7  9  1  0
  7  6  1  0
  7  8  1  6
  9 10  2  0
 11  5  1  0
 11 12  2  0
 12  2  1  0
 14 13  1  6
 15 14  1  0
 16 14  1  0
 16 17  1  6
 17  9  1  0
 18 16  1  0
 19 18  2  0
 20 18  1  0
 21 20  1  0
 21 22  1  1
 23 22  1  0
 24 23  2  0
 25 26  1  0
 25 24  1  0
 26 27  2  0
 27 23  1  0
 28 30  1  0
 28 21  1  0
 29 28  2  0
M  END
$$$$
