YTH.pdb
     RDKit          3D

 30 31  0  0  1  0  0  0  0  0999 V2000
    5.4608  -12.2446   18.5792 O   0  0  0  0  0  0  0  0  0  0  0  0
    6.7213  -12.8303   18.7380 C   0  0  0  0  0  0  0  0  0  0  0  0
    7.8393  -12.0519   18.9401 C   0  0  0  0  0  0  0  0  0  0  0  0
    9.0885  -12.6285   19.0976 C   0  0  0  0  0  0  0  0  0  0  0  0
    9.2390  -13.9931   19.0554 C   0  0  0  0  0  0  0  0  0  0  0  0
   10.5737  -14.5786   19.2252 C   0  0  0  0  0  0  0  0  0  0  0  0
   11.4132  -14.5161   17.9620 C   0  0  2  0  0  0  0  0  0  0  0  0
   10.6893  -15.2707   16.9425 N   0  0  0  0  0  0  0  0  0  0  0  0
   12.6810  -15.2444   18.2570 C   0  0  0  0  0  0  0  0  0  0  0  0
   12.6271  -16.4961   18.2401 O   0  0  0  0  0  0  0  0  0  0  0  0
    8.1232  -14.7694   18.8537 C   0  0  0  0  0  0  0  0  0  0  0  0
    6.8640  -14.2098   18.6939 C   0  0  0  0  0  0  0  0  0  0  0  0
   15.9804  -15.0301   16.5483 C   0  0  0  0  0  0  0  0  0  0  0  0
   16.2948  -14.8001   18.0189 C   0  0  1  0  0  0  0  0  0  0  0  0
   16.3789  -13.4258   18.1993 O   0  0  0  0  0  0  0  0  0  0  0  0
   15.1438  -15.3107   18.8141 C   0  0  2  0  0  0  0  0  0  0  0  0
   13.9019  -14.6297   18.5455 N   0  0  0  0  0  0  0  0  0  0  0  0
   15.4273  -15.1201   20.2591 C   0  0  0  0  0  0  0  0  0  0  0  0
   15.2776  -13.9717   20.8119 O   0  0  0  0  0  0  0  0  0  0  0  0
   15.8695  -16.1307   21.1424 N   0  0  0  0  0  0  0  0  0  0  0  0
   16.2032  -15.8164   22.5432 C   0  0  1  0  0  0  0  0  0  0  0  0
   15.6052  -16.8140   23.4724 C   0  0  0  0  0  0  0  0  0  0  0  0
   14.1462  -16.6831   23.5780 C   0  0  0  0  0  0  0  0  0  0  0  0
   13.3632  -15.7184   22.9943 C   0  0  0  0  0  0  0  0  0  0  0  0
   12.0765  -15.9295   23.3509 N   0  0  0  0  0  0  0  0  0  0  0  0
   12.0414  -17.0064   24.1456 C   0  0  0  0  0  0  0  0  0  0  0  0
   13.2965  -17.4618   24.2822 N   0  0  0  0  0  0  0  0  0  0  0  0
   17.6668  -15.8066   22.6476 C   0  0  0  0  0  0  0  0  0  0  0  0
   18.3652  -16.1338   21.6617 O   0  0  0  0  0  0  0  0  0  0  0  0
   18.3296  -15.4445   23.8041 O   0  0  0  0  0  0  0  0  0  0  0  0
  2  3  2  0
  2  1  1  0
  4  3  1  0
  5  4  2  0
  6  5  1  0
  7  9  1  0
  7  6  1  0
  7  8  1  6
  9 10  2  0
 11  5  1  0
 11 12  2  0
 12  2  1  0
 14 13  1  6
 15 14  1  0
 16 14  1  0
 16 17  1  6
 17  9  1  0
 18 16  1  0
 19 18  2  0
 20 18  1  0
 21 20  1  0
 21 22  1  1
 23 22  1  0
 24 23  2  0
 25 26  1  0
 25 24  1  0
 26 27  2  0
 27 23  1  0
 28 30  1  0
 28 21  1  0
 29 28  2  0
M  END
$$$$
