YTH.pdb
     RDKit          3D

 30 31  0  0  1  0  0  0  0  0999 V2000
    7.5573  -12.0263   17.2806 O   0  0  0  0  0  0  0  0  0  0  0  0
    7.7860  -12.7947   18.4271 C   0  0  0  0  0  0  0  0  0  0  0  0
    9.0683  -13.0986   18.8272 C   0  0  0  0  0  0  0  0  0  0  0  0
    9.2981  -13.8589   19.9616 C   0  0  0  0  0  0  0  0  0  0  0  0
    8.2486  -14.3274   20.7137 C   0  0  0  0  0  0  0  0  0  0  0  0
    8.5195  -15.1309   21.9112 C   0  0  0  0  0  0  0  0  0  0  0  0
    9.1050  -16.4942   21.5900 C   0  0  2  0  0  0  0  0  0  0  0  0
    8.0805  -17.2235   20.8475 N   0  0  0  0  0  0  0  0  0  0  0  0
    9.3070  -17.1887   22.8945 C   0  0  0  0  0  0  0  0  0  0  0  0
    8.2863  -17.6700   23.4390 O   0  0  0  0  0  0  0  0  0  0  0  0
    6.9693  -14.0239   20.3141 C   0  0  0  0  0  0  0  0  0  0  0  0
    6.7197  -13.2637   19.1809 C   0  0  0  0  0  0  0  0  0  0  0  0
   11.6222  -19.9930   23.6802 C   0  0  0  0  0  0  0  0  0  0  0  0
   11.9028  -18.9646   24.7657 C   0  0  1  0  0  0  0  0  0  0  0  0
   13.0455  -18.2770   24.3788 O   0  0  0  0  0  0  0  0  0  0  0  0
   10.7620  -18.0077   24.7899 C   0  0  2  0  0  0  0  0  0  0  0  0
   10.5400  -17.3335   23.5351 N   0  0  0  0  0  0  0  0  0  0  0  0
   11.0342  -16.9504   25.7962 C   0  0  0  0  0  0  0  0  0  0  0  0
   11.2147  -15.7319   25.4365 O   0  0  0  0  0  0  0  0  0  0  0  0
   11.1190  -17.1570   27.1917 N   0  0  0  0  0  0  0  0  0  0  0  0
   10.4680  -16.2288   28.1336 C   0  0  1  0  0  0  0  0  0  0  0  0
    9.0375  -16.0214   27.7775 C   0  0  0  0  0  0  0  0  0  0  0  0
    8.7512  -14.6383   27.3747 C   0  0  0  0  0  0  0  0  0  0  0  0
    9.6333  -13.5865   27.3622 C   0  0  0  0  0  0  0  0  0  0  0  0
    8.9797  -12.4769   26.9513 N   0  0  0  0  0  0  0  0  0  0  0  0
    7.7075  -12.8155   26.7076 C   0  0  0  0  0  0  0  0  0  0  0  0
    7.5708  -14.1256   26.9647 N   0  0  0  0  0  0  0  0  0  0  0  0
   10.6009  -16.8093   29.4746 C   0  0  0  0  0  0  0  0  0  0  0  0
   10.3841  -16.1030   30.4850 O   0  0  0  0  0  0  0  0  0  0  0  0
   10.9593  -18.1266   29.6849 O   0  0  0  0  0  0  0  0  0  0  0  0
  2  3  2  0
  2  1  1  0
  4  3  1  0
  5  4  2  0
  6  5  1  0
  7  9  1  0
  7  6  1  0
  7  8  1  6
  9 10  2  0
 11  5  1  0
 11 12  2  0
 12  2  1  0
 14 13  1  6
 15 14  1  0
 16 14  1  0
 16 17  1  6
 17  9  1  0
 18 16  1  0
 19 18  2  0
 20 18  1  0
 21 20  1  0
 21 22  1  6
 23 22  1  0
 24 23  2  0
 25 26  1  0
 25 24  1  0
 26 27  2  0
 27 23  1  0
 28 30  1  0
 28 21  1  0
 29 28  2  0
M  END
$$$$
