YTH.pdb
     RDKit          3D

 30 31  0  0  1  0  0  0  0  0999 V2000
   13.6472  -13.5120   19.6647 O   0  0  0  0  0  0  0  0  0  0  0  0
   12.3907  -13.9099   19.1957 C   0  0  0  0  0  0  0  0  0  0  0  0
   12.1541  -15.2190   18.8392 C   0  0  0  0  0  0  0  0  0  0  0  0
   10.9114  -15.6162   18.3746 C   0  0  0  0  0  0  0  0  0  0  0  0
    9.8857  -14.7100   18.2594 C   0  0  0  0  0  0  0  0  0  0  0  0
    8.5787  -15.1568   17.7644 C   0  0  0  0  0  0  0  0  0  0  0  0
    8.6830  -16.0677   16.5546 C   0  0  2  0  0  0  0  0  0  0  0  0
    7.7126  -15.5781   15.5791 N   0  0  0  0  0  0  0  0  0  0  0  0
    8.2412  -17.4206   17.0009 C   0  0  0  0  0  0  0  0  0  0  0  0
    7.1908  -17.8676   16.4842 O   0  0  0  0  0  0  0  0  0  0  0  0
   10.1223  -13.4039   18.6153 C   0  0  0  0  0  0  0  0  0  0  0  0
   11.3603  -12.9876   19.0826 C   0  0  0  0  0  0  0  0  0  0  0  0
    7.7071  -20.0062   16.0166 C   0  0  0  0  0  0  0  0  0  0  0  0
    8.7414  -20.4789   17.0272 C   0  0  1  0  0  0  0  0  0  0  0  0
    9.9865  -20.2936   16.4410 O   0  0  0  0  0  0  0  0  0  0  0  0
    8.6461  -19.5945   18.2216 C   0  0  2  0  0  0  0  0  0  0  0  0
    8.9125  -18.2058   17.9413 N   0  0  0  0  0  0  0  0  0  0  0  0
    9.6506  -20.0239   19.2271 C   0  0  0  0  0  0  0  0  0  0  0  0
   10.9043  -19.8407   19.0229 O   0  0  0  0  0  0  0  0  0  0  0  0
    9.3536  -20.6488   20.4594 N   0  0  0  0  0  0  0  0  0  0  0  0
   10.4035  -20.8579   21.4726 C   0  0  1  0  0  0  0  0  0  0  0  0
   10.2232  -19.9364   22.6278 C   0  0  0  0  0  0  0  0  0  0  0  0
   10.6071  -18.5542   22.3122 C   0  0  0  0  0  0  0  0  0  0  0  0
   11.1569  -18.1014   21.1387 C   0  0  0  0  0  0  0  0  0  0  0  0
   11.3872  -16.7741   21.2512 N   0  0  0  0  0  0  0  0  0  0  0  0
   10.9922  -16.3902   22.4714 C   0  0  0  0  0  0  0  0  0  0  0  0
   10.5198  -17.4701   23.1131 N   0  0  0  0  0  0  0  0  0  0  0  0
   10.3226  -22.2603   21.8965 C   0  0  0  0  0  0  0  0  0  0  0  0
   11.1725  -22.7225   22.6907 O   0  0  0  0  0  0  0  0  0  0  0  0
    9.3325  -23.1167   21.4558 O   0  0  0  0  0  0  0  0  0  0  0  0
  2  3  2  0
  2  1  1  0
  4  3  1  0
  5  4  2  0
  6  5  1  0
  7  9  1  0
  7  6  1  0
  7  8  1  6
  9 10  2  0
 11  5  1  0
 11 12  2  0
 12  2  1  0
 14 13  1  6
 15 14  1  0
 16 14  1  0
 16 17  1  6
 17  9  1  0
 18 16  1  0
 19 18  2  0
 20 18  1  0
 21 20  1  0
 21 22  1  1
 23 22  1  0
 24 23  2  0
 25 26  1  0
 25 24  1  0
 26 27  2  0
 27 23  1  0
 28 30  1  0
 28 21  1  0
 29 28  2  0
M  END
$$$$
