YTH.pdb
     RDKit          3D

 30 31  0  0  1  0  0  0  0  0999 V2000
    5.7155  -10.7632   28.5867 O   0  0  0  0  0  0  0  0  0  0  0  0
    6.2448  -11.6847   27.6769 C   0  0  0  0  0  0  0  0  0  0  0  0
    6.0442  -11.5323   26.3229 C   0  0  0  0  0  0  0  0  0  0  0  0
    6.5668  -12.4427   25.4196 C   0  0  0  0  0  0  0  0  0  0  0  0
    7.2984  -13.5199   25.8565 C   0  0  0  0  0  0  0  0  0  0  0  0
    7.8410  -14.4697   24.8785 C   0  0  0  0  0  0  0  0  0  0  0  0
    6.7806  -15.3788   24.2841 C   0  0  2  0  0  0  0  0  0  0  0  0
    6.3459  -16.2693   25.3570 N   0  0  0  0  0  0  0  0  0  0  0  0
    7.4625  -16.2080   23.2486 C   0  0  0  0  0  0  0  0  0  0  0  0
    7.6548  -17.4135   23.5311 O   0  0  0  0  0  0  0  0  0  0  0  0
    7.4983  -13.6714   27.2076 C   0  0  0  0  0  0  0  0  0  0  0  0
    6.9827  -12.7700   28.1273 C   0  0  0  0  0  0  0  0  0  0  0  0
    9.0653  -16.8762   18.6303 C   0  0  0  0  0  0  0  0  0  0  0  0
    8.3019  -15.9848   19.5984 C   0  0  1  0  0  0  0  0  0  0  0  0
    6.9567  -16.1041   19.2754 O   0  0  0  0  0  0  0  0  0  0  0  0
    8.5072  -16.5251   20.9709 C   0  0  2  0  0  0  0  0  0  0  0  0
    7.8922  -15.7335   22.0069 N   0  0  0  0  0  0  0  0  0  0  0  0
    9.9613  -16.5572   21.2693 C   0  0  0  0  0  0  0  0  0  0  0  0
   10.6347  -15.4697   21.3734 O   0  0  0  0  0  0  0  0  0  0  0  0
   10.7270  -17.7290   21.4639 N   0  0  0  0  0  0  0  0  0  0  0  0
   12.1805  -17.6516   21.6953 C   0  0  1  0  0  0  0  0  0  0  0  0
   12.5832  -18.4934   22.8552 C   0  0  0  0  0  0  0  0  0  0  0  0
   12.1233  -17.9442   24.1374 C   0  0  0  0  0  0  0  0  0  0  0  0
   11.9448  -16.6189   24.4473 C   0  0  0  0  0  0  0  0  0  0  0  0
   11.5351  -16.5250   25.7321 N   0  0  0  0  0  0  0  0  0  0  0  0
   11.4549  -17.7652   26.2298 C   0  0  0  0  0  0  0  0  0  0  0  0
   11.8117  -18.6241   25.2622 N   0  0  0  0  0  0  0  0  0  0  0  0
   12.8392  -18.0989   20.4627 C   0  0  0  0  0  0  0  0  0  0  0  0
   12.1586  -18.5883   19.5332 O   0  0  0  0  0  0  0  0  0  0  0  0
   14.2037  -18.0037   20.2695 O   0  0  0  0  0  0  0  0  0  0  0  0
  2  3  2  0
  2  1  1  0
  4  3  1  0
  5  4  2  0
  6  5  1  0
  7  9  1  0
  7  6  1  0
  7  8  1  1
  9 10  2  0
 11  5  1  0
 11 12  2  0
 12  2  1  0
 14 13  1  6
 15 14  1  0
 16 14  1  0
 16 17  1  1
 17  9  1  0
 18 16  1  0
 19 18  2  0
 20 18  1  0
 21 20  1  0
 21 22  1  1
 23 22  1  0
 24 23  2  0
 25 26  1  0
 25 24  1  0
 26 27  2  0
 27 23  1  0
 28 30  1  0
 28 21  1  0
 29 28  2  0
M  END
$$$$
