YTH.pdb
     RDKit          3D

 30 31  0  0  1  0  0  0  0  0999 V2000
    6.3030  -12.1498   16.9256 O   0  0  0  0  0  0  0  0  0  0  0  0
    6.9662  -13.1726   17.6121 C   0  0  0  0  0  0  0  0  0  0  0  0
    7.8797  -13.9764   16.9672 C   0  0  0  0  0  0  0  0  0  0  0  0
    8.5379  -14.9898   17.6437 C   0  0  0  0  0  0  0  0  0  0  0  0
    8.2926  -15.2150   18.9763 C   0  0  0  0  0  0  0  0  0  0  0  0
    9.0035  -16.2952   19.6697 C   0  0  0  0  0  0  0  0  0  0  0  0
    9.1641  -17.5413   18.8177 C   0  0  2  0  0  0  0  0  0  0  0  0
    7.8238  -18.0863   18.6195 N   0  0  0  0  0  0  0  0  0  0  0  0
    9.9399  -18.5186   19.6348 C   0  0  0  0  0  0  0  0  0  0  0  0
    9.5081  -19.6944   19.6643 O   0  0  0  0  0  0  0  0  0  0  0  0
    7.3810  -14.4126   19.6194 C   0  0  0  0  0  0  0  0  0  0  0  0
    6.7120  -13.3928   18.9582 C   0  0  0  0  0  0  0  0  0  0  0  0
   11.7064  -20.6983   19.0389 C   0  0  0  0  0  0  0  0  0  0  0  0
   12.7482  -19.9609   19.8667 C   0  0  1  0  0  0  0  0  0  0  0  0
   13.3926  -19.0815   19.0067 O   0  0  0  0  0  0  0  0  0  0  0  0
   12.0276  -19.1669   20.9002 C   0  0  2  0  0  0  0  0  0  0  0  0
   11.0961  -18.2107   20.3559 N   0  0  0  0  0  0  0  0  0  0  0  0
   13.0140  -18.3921   21.6948 C   0  0  0  0  0  0  0  0  0  0  0  0
   13.4521  -17.2611   21.2755 O   0  0  0  0  0  0  0  0  0  0  0  0
   13.5519  -18.7922   22.9389 N   0  0  0  0  0  0  0  0  0  0  0  0
   12.9928  -18.2807   24.2030 C   0  0  1  0  0  0  0  0  0  0  0  0
   11.5348  -18.5661   24.2975 C   0  0  0  0  0  0  0  0  0  0  0  0
   10.7084  -17.4100   23.9265 C   0  0  0  0  0  0  0  0  0  0  0  0
   11.1534  -16.1559   23.5892 C   0  0  0  0  0  0  0  0  0  0  0  0
   10.0835  -15.3690   23.3371 N   0  0  0  0  0  0  0  0  0  0  0  0
    8.9801  -16.1072   23.5108 C   0  0  0  0  0  0  0  0  0  0  0  0
    9.3606  -17.3437   23.8680 N   0  0  0  0  0  0  0  0  0  0  0  0
   13.7303  -18.9263   25.2949 C   0  0  0  0  0  0  0  0  0  0  0  0
   13.5359  -18.5667   26.4780 O   0  0  0  0  0  0  0  0  0  0  0  0
   14.6484  -19.9358   25.0801 O   0  0  0  0  0  0  0  0  0  0  0  0
  2  3  2  0
  2  1  1  0
  4  3  1  0
  5  4  2  0
  6  5  1  0
  7  9  1  0
  7  6  1  0
  7  8  1  1
  9 10  2  0
 11  5  1  0
 11 12  2  0
 12  2  1  0
 14 13  1  6
 15 14  1  0
 16 14  1  0
 16 17  1  6
 17  9  1  0
 18 16  1  0
 19 18  2  0
 20 18  1  0
 21 20  1  0
 21 22  1  1
 23 22  1  0
 24 23  2  0
 25 26  1  0
 25 24  1  0
 26 27  2  0
 27 23  1  0
 28 30  1  0
 28 21  1  0
 29 28  2  0
M  END
$$$$
