YTH.pdb
     RDKit          3D

 30 31  0  0  1  0  0  0  0  0999 V2000
    8.1728  -11.7245   17.6783 O   0  0  0  0  0  0  0  0  0  0  0  0
    7.9980  -12.6915   18.6740 C   0  0  0  0  0  0  0  0  0  0  0  0
    7.3638  -12.3790   19.8558 C   0  0  0  0  0  0  0  0  0  0  0  0
    7.1892  -13.3338   20.8435 C   0  0  0  0  0  0  0  0  0  0  0  0
    7.6464  -14.6166   20.6645 C   0  0  0  0  0  0  0  0  0  0  0  0
    7.4486  -15.6093   21.7268 C   0  0  0  0  0  0  0  0  0  0  0  0
    8.0364  -16.9668   21.3862 C   0  0  2  0  0  0  0  0  0  0  0  0
    7.0519  -17.6497   20.5512 N   0  0  0  0  0  0  0  0  0  0  0  0
    8.1471  -17.7171   22.6706 C   0  0  0  0  0  0  0  0  0  0  0  0
    7.4800  -18.7737   22.7635 O   0  0  0  0  0  0  0  0  0  0  0  0
    8.2792  -14.9280   19.4851 C   0  0  0  0  0  0  0  0  0  0  0  0
    8.4632  -13.9850   18.4845 C   0  0  0  0  0  0  0  0  0  0  0  0
    9.2011  -20.1926   23.6372 C   0  0  0  0  0  0  0  0  0  0  0  0
   10.0106  -19.3556   24.6162 C   0  0  1  0  0  0  0  0  0  0  0  0
   11.1754  -18.9851   23.9573 O   0  0  0  0  0  0  0  0  0  0  0  0
    9.2272  -18.1253   24.9171 C   0  0  2  0  0  0  0  0  0  0  0  0
    8.9332  -17.3230   23.7560 N   0  0  0  0  0  0  0  0  0  0  0  0
   10.0084  -17.2638   25.8403 C   0  0  0  0  0  0  0  0  0  0  0  0
   10.6667  -16.2549   25.3982 O   0  0  0  0  0  0  0  0  0  0  0  0
   10.1080  -17.4484   27.2379 N   0  0  0  0  0  0  0  0  0  0  0  0
   10.6313  -16.3781   28.1056 C   0  0  1  0  0  0  0  0  0  0  0  0
    9.5232  -15.5801   28.6985 C   0  0  0  0  0  0  0  0  0  0  0  0
    8.9356  -14.6330   27.7420 C   0  0  0  0  0  0  0  0  0  0  0  0
    9.3290  -14.4258   26.4433 C   0  0  0  0  0  0  0  0  0  0  0  0
    8.5551  -13.4571   25.9047 N   0  0  0  0  0  0  0  0  0  0  0  0
    7.6870  -13.0559   26.8417 C   0  0  0  0  0  0  0  0  0  0  0  0
    7.9190  -13.7694   27.9545 N   0  0  0  0  0  0  0  0  0  0  0  0
   11.4369  -17.0222   29.1492 C   0  0  0  0  0  0  0  0  0  0  0  0
   11.4506  -18.2701   29.2462 O   0  0  0  0  0  0  0  0  0  0  0  0
   12.2008  -16.3062   30.0501 O   0  0  0  0  0  0  0  0  0  0  0  0
  2  3  2  0
  2  1  1  0
  4  3  1  0
  5  4  2  0
  6  5  1  0
  7  9  1  0
  7  6  1  0
  7  8  1  6
  9 10  2  0
 11  5  1  0
 11 12  2  0
 12  2  1  0
 14 13  1  6
 15 14  1  0
 16 14  1  0
 16 17  1  6
 17  9  1  0
 18 16  1  0
 19 18  2  0
 20 18  1  0
 21 20  1  0
 21 22  1  1
 23 22  1  0
 24 23  2  0
 25 26  1  0
 25 24  1  0
 26 27  2  0
 27 23  1  0
 28 30  1  0
 28 21  1  0
 29 28  2  0
M  END
$$$$
