YTH.pdb
     RDKit          3D

 30 31  0  0  1  0  0  0  0  0999 V2000
   12.1054  -18.2188   12.4027 O   0  0  0  0  0  0  0  0  0  0  0  0
   11.9331  -17.5128   13.5981 C   0  0  0  0  0  0  0  0  0  0  0  0
   12.8123  -17.6760   14.6455 C   0  0  0  0  0  0  0  0  0  0  0  0
   12.6446  -16.9787   15.8301 C   0  0  0  0  0  0  0  0  0  0  0  0
   11.5946  -16.1069   15.9857 C   0  0  0  0  0  0  0  0  0  0  0  0
   11.4397  -15.3804   17.2510 C   0  0  0  0  0  0  0  0  0  0  0  0
   10.1172  -14.6421   17.3524 C   0  0  2  0  0  0  0  0  0  0  0  0
   10.2540  -13.4296   16.5499 N   0  0  0  0  0  0  0  0  0  0  0  0
    9.9664  -14.2328   18.7788 C   0  0  0  0  0  0  0  0  0  0  0  0
   10.5295  -13.1668   19.1201 O   0  0  0  0  0  0  0  0  0  0  0  0
   10.7177  -15.9443   14.9402 C   0  0  0  0  0  0  0  0  0  0  0  0
   10.8695  -16.6341   13.7463 C   0  0  0  0  0  0  0  0  0  0  0  0
    7.1344  -13.0645   20.5089 C   0  0  0  0  0  0  0  0  0  0  0  0
    7.5567  -14.2437   21.3724 C   0  0  1  0  0  0  0  0  0  0  0  0
    6.8082  -15.3351   20.9520 O   0  0  0  0  0  0  0  0  0  0  0  0
    8.9928  -14.5203   21.0917 C   0  0  2  0  0  0  0  0  0  0  0  0
    9.2501  -14.9502   19.7399 N   0  0  0  0  0  0  0  0  0  0  0  0
    9.4610  -15.6140   21.9801 C   0  0  0  0  0  0  0  0  0  0  0  0
    9.5763  -16.8139   21.5401 O   0  0  0  0  0  0  0  0  0  0  0  0
    9.8154  -15.4631   23.3399 N   0  0  0  0  0  0  0  0  0  0  0  0
   10.1998  -16.6301   24.1541 C   0  0  1  0  0  0  0  0  0  0  0  0
   11.6444  -16.5813   24.5104 C   0  0  0  0  0  0  0  0  0  0  0  0
   12.5091  -17.0712   23.4291 C   0  0  0  0  0  0  0  0  0  0  0  0
   12.1097  -17.5012   22.1881 C   0  0  0  0  0  0  0  0  0  0  0  0
   13.2007  -17.8929   21.4926 N   0  0  0  0  0  0  0  0  0  0  0  0
   14.2725  -17.7161   22.2752 C   0  0  0  0  0  0  0  0  0  0  0  0
   13.8517  -17.2181   23.4483 N   0  0  0  0  0  0  0  0  0  0  0  0
    9.3575  -16.6158   25.3554 C   0  0  0  0  0  0  0  0  0  0  0  0
    9.4527  -17.5386   26.1958 O   0  0  0  0  0  0  0  0  0  0  0  0
    8.4447  -15.6119   25.6144 O   0  0  0  0  0  0  0  0  0  0  0  0
  2  3  2  0
  2  1  1  0
  4  3  1  0
  5  4  2  0
  6  5  1  0
  7  9  1  0
  7  6  1  0
  7  8  1  6
  9 10  2  0
 11  5  1  0
 11 12  2  0
 12  2  1  0
 14 13  1  6
 15 14  1  0
 16 14  1  0
 16 17  1  6
 17  9  1  0
 18 16  1  0
 19 18  2  0
 20 18  1  0
 21 20  1  0
 21 22  1  1
 23 22  1  0
 24 23  2  0
 25 26  1  0
 25 24  1  0
 26 27  2  0
 27 23  1  0
 28 30  1  0
 28 21  1  0
 29 28  2  0
M  END
$$$$
