YTH.pdb
     RDKit          3D

 30 31  0  0  1  0  0  0  0  0999 V2000
    8.5554  -12.5733   16.9233 O   0  0  0  0  0  0  0  0  0  0  0  0
    8.1736  -13.2162   18.1057 C   0  0  0  0  0  0  0  0  0  0  0  0
    8.6033  -14.4951   18.3825 C   0  0  0  0  0  0  0  0  0  0  0  0
    8.2272  -15.1343   19.5520 C   0  0  0  0  0  0  0  0  0  0  0  0
    7.4152  -14.5042   20.4632 C   0  0  0  0  0  0  0  0  0  0  0  0
    7.0315  -15.2038   21.6946 C   0  0  0  0  0  0  0  0  0  0  0  0
    7.2648  -16.7021   21.6221 C   0  0  2  0  0  0  0  0  0  0  0  0
    6.2112  -17.2474   20.7703 N   0  0  0  0  0  0  0  0  0  0  0  0
    7.0592  -17.2321   23.0011 C   0  0  0  0  0  0  0  0  0  0  0  0
    5.9528  -17.7709   23.2369 O   0  0  0  0  0  0  0  0  0  0  0  0
    6.9867  -13.2282   20.1866 C   0  0  0  0  0  0  0  0  0  0  0  0
    7.3531  -12.5720   19.0205 C   0  0  0  0  0  0  0  0  0  0  0  0
    7.0097  -19.8526   24.0759 C   0  0  0  0  0  0  0  0  0  0  0  0
    8.1370  -19.4177   25.0002 C   0  0  1  0  0  0  0  0  0  0  0  0
    9.3239  -19.6384   24.3141 O   0  0  0  0  0  0  0  0  0  0  0  0
    7.9926  -17.9541   25.2344 C   0  0  2  0  0  0  0  0  0  0  0  0
    8.0052  -17.1666   24.0269 N   0  0  0  0  0  0  0  0  0  0  0  0
    9.1300  -17.4785   26.0619 C   0  0  0  0  0  0  0  0  0  0  0  0
   10.3170  -17.4232   25.5773 O   0  0  0  0  0  0  0  0  0  0  0  0
    9.0371  -17.0538   27.4066 N   0  0  0  0  0  0  0  0  0  0  0  0
   10.1995  -16.4637   28.0943 C   0  0  1  0  0  0  0  0  0  0  0  0
    9.8703  -15.1202   28.6446 C   0  0  0  0  0  0  0  0  0  0  0  0
    9.2957  -14.2221   27.6344 C   0  0  0  0  0  0  0  0  0  0  0  0
    9.1348  -14.4853   26.2968 C   0  0  0  0  0  0  0  0  0  0  0  0
    8.5927  -13.3987   25.7028 N   0  0  0  0  0  0  0  0  0  0  0  0
    8.4127  -12.4629   26.6432 C   0  0  0  0  0  0  0  0  0  0  0  0
    8.8393  -12.9635   27.8131 N   0  0  0  0  0  0  0  0  0  0  0  0
   10.5879  -17.3923   29.1619 C   0  0  0  0  0  0  0  0  0  0  0  0
   11.5738  -17.1318   29.8879 O   0  0  0  0  0  0  0  0  0  0  0  0
    9.9047  -18.5659   29.4146 O   0  0  0  0  0  0  0  0  0  0  0  0
  2  3  2  0
  2  1  1  0
  4  3  1  0
  5  4  2  0
  6  5  1  0
  7  9  1  0
  7  6  1  0
  7  8  1  6
  9 10  2  0
 11  5  1  0
 11 12  2  0
 12  2  1  0
 14 13  1  6
 15 14  1  0
 16 14  1  0
 16 17  1  6
 17  9  1  0
 18 16  1  0
 19 18  2  0
 20 18  1  0
 21 20  1  0
 21 22  1  1
 23 22  1  0
 24 23  2  0
 25 26  1  0
 25 24  1  0
 26 27  2  0
 27 23  1  0
 28 30  1  0
 28 21  1  0
 29 28  2  0
M  END
$$$$
