MYY.pdb
     RDKit          3D

 33 34  0  0  1  0  0  0  0  0999 V2000
    7.0427  -12.9604   16.2343 C   0  0  0  0  0  0  0  0  0  0  0  0
    8.5866  -13.9095   16.2682 S   0  0  0  0  0  0  0  0  0  0  0  0
    8.6662  -14.9670   17.7559 C   0  0  0  0  0  0  0  0  0  0  0  0
    9.9815  -15.6949   17.8042 C   0  0  0  0  0  0  0  0  0  0  0  0
   10.1513  -16.4960   19.0335 C   0  0  2  0  0  0  0  0  0  0  0  0
    9.1055  -17.5584   18.9379 N   0  0  0  0  0  0  0  0  0  0  0  0
    9.9451  -15.8506   20.3170 C   0  0  0  0  0  0  0  0  0  0  0  0
   10.8656  -15.1064   20.7888 O   0  0  0  0  0  0  0  0  0  0  0  0
    6.4801  -11.9082   27.4384 O   0  0  0  0  0  0  0  0  0  0  0  0
    6.6674  -12.7271   26.3355 C   0  0  0  0  0  0  0  0  0  0  0  0
    6.9230  -12.1784   25.1026 C   0  0  0  0  0  0  0  0  0  0  0  0
    7.1124  -12.9737   23.9929 C   0  0  0  0  0  0  0  0  0  0  0  0
    7.0571  -14.3592   24.0532 C   0  0  0  0  0  0  0  0  0  0  0  0
    7.2511  -15.2540   22.9049 C   0  0  0  0  0  0  0  0  0  0  0  0
    8.6672  -15.1766   22.3787 C   0  0  2  0  0  0  0  0  0  0  0  0
    8.8000  -15.9419   21.1483 N   0  0  0  0  0  0  0  0  0  0  0  0
    9.6842  -15.4791   23.3890 C   0  0  0  0  0  0  0  0  0  0  0  0
   10.5241  -14.5656   23.6569 O   0  0  0  0  0  0  0  0  0  0  0  0
    6.7962  -14.9015   25.3144 C   0  0  0  0  0  0  0  0  0  0  0  0
    6.6069  -14.1060   26.4232 C   0  0  0  0  0  0  0  0  0  0  0  0
   11.5693  -16.0190   31.7049 O   0  0  0  0  0  0  0  0  0  0  0  0
   11.1023  -15.9961   30.3980 C   0  0  0  0  0  0  0  0  0  0  0  0
   10.7898  -17.1311   29.6820 C   0  0  0  0  0  0  0  0  0  0  0  0
   10.3275  -17.0777   28.3852 C   0  0  0  0  0  0  0  0  0  0  0  0
   10.1550  -15.8586   27.7369 C   0  0  0  0  0  0  0  0  0  0  0  0
    9.6777  -15.7989   26.3562 C   0  0  0  0  0  0  0  0  0  0  0  0
   10.4493  -16.6958   25.4248 C   0  0  2  0  0  0  0  0  0  0  0  0
    9.8319  -16.6784   24.0996 N   0  0  0  0  0  0  0  0  0  0  0  0
   10.5097  -18.0634   25.9393 C   0  0  0  0  0  0  0  0  0  0  0  0
   11.2716  -18.3112   26.9359 O   0  0  0  0  0  0  0  0  0  0  0  0
   10.4694  -14.7142   28.4560 C   0  0  0  0  0  0  0  0  0  0  0  0
   10.9266  -14.7841   29.7412 C   0  0  0  0  0  0  0  0  0  0  0  0
    9.7924  -19.1306   25.4240 O   0  0  0  0  0  0  0  0  0  0  0  0
  2  1  1  0
  3  2  1  0
  4  3  1  0
  5  4  1  0
  5  6  1  6
  7  8  2  0
  7  5  1  0
  9 10  1  0
 10 20  2  0
 11 12  2  0
 11 10  1  0
 12 13  1  0
 13 14  1  0
 13 19  2  0
 15 14  1  1
 15 16  1  0
 16  7  1  0
 17 15  1  0
 18 17  2  0
 20 19  1  0
 22 21  1  0
 22 23  2  0
 24 23  1  0
 25 24  2  0
 27 26  1  1
 26 25  1  0
 27 28  1  0
 28 17  1  0
 29 33  1  0
 29 27  1  0
 30 29  2  0
 31 32  2  0
 31 25  1  0
 32 22  1  0
M  END
$$$$
