MYY.pdb
     RDKit          3D

 33 34  0  0  1  0  0  0  0  0999 V2000
    7.6478  -11.3540   26.4065 C   0  0  0  0  0  0  0  0  0  0  0  0
    6.9481  -13.0236   26.5006 S   0  0  0  0  0  0  0  0  0  0  0  0
    7.2394  -13.9383   24.9463 C   0  0  0  0  0  0  0  0  0  0  0  0
    6.5818  -15.2895   25.0095 C   0  0  0  0  0  0  0  0  0  0  0  0
    6.8280  -16.1066   23.8037 C   0  0  2  0  0  0  0  0  0  0  0  0
    5.5838  -16.9164   23.6375 N   0  0  0  0  0  0  0  0  0  0  0  0
    7.9223  -17.0597   23.8223 C   0  0  0  0  0  0  0  0  0  0  0  0
    7.6609  -18.2969   23.9798 O   0  0  0  0  0  0  0  0  0  0  0  0
    6.9068  -13.8616   17.2496 O   0  0  0  0  0  0  0  0  0  0  0  0
    7.4665  -14.0658   18.5015 C   0  0  0  0  0  0  0  0  0  0  0  0
    7.9885  -15.2921   18.8336 C   0  0  0  0  0  0  0  0  0  0  0  0
    8.5496  -15.5171   20.0723 C   0  0  0  0  0  0  0  0  0  0  0  0
    8.6201  -14.5311   21.0464 C   0  0  0  0  0  0  0  0  0  0  0  0
    9.2061  -14.7149   22.3806 C   0  0  0  0  0  0  0  0  0  0  0  0
    9.8416  -16.0806   22.5202 C   0  0  2  0  0  0  0  0  0  0  0  0
    9.3050  -16.7804   23.6775 N   0  0  0  0  0  0  0  0  0  0  0  0
   11.3051  -16.0540   22.4575 C   0  0  0  0  0  0  0  0  0  0  0  0
   11.8562  -16.6980   21.5125 O   0  0  0  0  0  0  0  0  0  0  0  0
    8.0847  -13.2897   20.6930 C   0  0  0  0  0  0  0  0  0  0  0  0
    7.5240  -13.0654   19.4546 C   0  0  0  0  0  0  0  0  0  0  0  0
   10.7112  -16.1931   30.9896 O   0  0  0  0  0  0  0  0  0  0  0  0
   10.7675  -15.9990   29.6163 C   0  0  0  0  0  0  0  0  0  0  0  0
   11.4543  -16.8300   28.7583 C   0  0  0  0  0  0  0  0  0  0  0  0
   11.4924  -16.6126   27.3983 C   0  0  0  0  0  0  0  0  0  0  0  0
   10.8296  -15.5300   26.8282 C   0  0  0  0  0  0  0  0  0  0  0  0
   10.8793  -15.2884   25.3870 C   0  0  0  0  0  0  0  0  0  0  0  0
   12.1849  -15.7042   24.7627 C   0  0  2  0  0  0  0  0  0  0  0  0
   12.1717  -15.3878   23.3353 N   0  0  0  0  0  0  0  0  0  0  0  0
   12.4354  -17.1308   24.9647 C   0  0  0  0  0  0  0  0  0  0  0  0
   13.5154  -17.4878   25.5489 O   0  0  0  0  0  0  0  0  0  0  0  0
   10.1376  -14.6916   27.6905 C   0  0  0  0  0  0  0  0  0  0  0  0
   10.1094  -14.9209   29.0367 C   0  0  0  0  0  0  0  0  0  0  0  0
   11.5786  -18.1443   24.5674 O   0  0  0  0  0  0  0  0  0  0  0  0
  2  1  1  0
  3  2  1  0
  4  3  1  0
  5  4  1  0
  5  6  1  1
  7  8  2  0
  7  5  1  0
  9 10  1  0
 10 20  2  0
 11 12  2  0
 11 10  1  0
 12 13  1  0
 13 14  1  0
 13 19  2  0
 15 14  1  1
 15 16  1  0
 16  7  1  0
 17 15  1  0
 18 17  2  0
 20 19  1  0
 22 21  1  0
 22 23  2  0
 24 23  1  0
 25 24  2  0
 27 26  1  6
 26 25  1  0
 27 28  1  0
 28 17  1  0
 29 33  1  0
 29 27  1  0
 30 29  2  0
 31 32  2  0
 31 25  1  0
 32 22  1  0
M  END
$$$$
