MYY.pdb
     RDKit          3D

 33 34  0  0  1  0  0  0  0  0999 V2000
    9.1185  -19.1897   28.8782 C   0  0  0  0  0  0  0  0  0  0  0  0
    7.3385  -19.5121   28.9944 S   0  0  0  0  0  0  0  0  0  0  0  0
    6.6553  -19.9786   27.3655 C   0  0  0  0  0  0  0  0  0  0  0  0
    7.3009  -19.1619   26.2800 C   0  0  0  0  0  0  0  0  0  0  0  0
    6.5936  -19.2612   24.9869 C   0  0  2  0  0  0  0  0  0  0  0  0
    6.7674  -20.6855   24.5714 N   0  0  0  0  0  0  0  0  0  0  0  0
    7.0685  -18.4620   23.8725 C   0  0  0  0  0  0  0  0  0  0  0  0
    7.8658  -18.9895   23.0299 O   0  0  0  0  0  0  0  0  0  0  0  0
    8.4842  -12.3405   17.6259 O   0  0  0  0  0  0  0  0  0  0  0  0
    8.0159  -13.0112   18.7453 C   0  0  0  0  0  0  0  0  0  0  0  0
    7.5288  -14.2904   18.6312 C   0  0  0  0  0  0  0  0  0  0  0  0
    7.0584  -14.9756   19.7307 C   0  0  0  0  0  0  0  0  0  0  0  0
    7.0486  -14.4219   21.0033 C   0  0  0  0  0  0  0  0  0  0  0  0
    6.5602  -15.1051   22.2082 C   0  0  0  0  0  0  0  0  0  0  0  0
    7.3048  -16.4000   22.4478 C   0  0  2  0  0  0  0  0  0  0  0  0
    6.7427  -17.1122   23.5852 N   0  0  0  0  0  0  0  0  0  0  0  0
    8.7600  -16.2374   22.4980 C   0  0  0  0  0  0  0  0  0  0  0  0
    9.4645  -17.1727   22.0076 O   0  0  0  0  0  0  0  0  0  0  0  0
    7.5473  -13.1203   21.1024 C   0  0  0  0  0  0  0  0  0  0  0  0
    8.0174  -12.4358   20.0029 C   0  0  0  0  0  0  0  0  0  0  0  0
   10.4458  -16.0970   30.7513 O   0  0  0  0  0  0  0  0  0  0  0  0
   10.0436  -15.8950   29.4383 C   0  0  0  0  0  0  0  0  0  0  0  0
    9.5869  -14.6861   28.9602 C   0  0  0  0  0  0  0  0  0  0  0  0
    9.1945  -14.5148   27.6506 C   0  0  0  0  0  0  0  0  0  0  0  0
    9.2443  -15.5702   26.7451 C   0  0  0  0  0  0  0  0  0  0  0  0
    8.8157  -15.3955   25.3581 C   0  0  0  0  0  0  0  0  0  0  0  0
    9.9635  -15.1811   24.4074 C   0  0  2  0  0  0  0  0  0  0  0  0
    9.4660  -15.1509   23.0329 N   0  0  0  0  0  0  0  0  0  0  0  0
   10.9757  -16.2258   24.5586 C   0  0  0  0  0  0  0  0  0  0  0  0
   12.1078  -15.9148   25.0652 O   0  0  0  0  0  0  0  0  0  0  0  0
    9.7036  -16.7887   27.2245 C   0  0  0  0  0  0  0  0  0  0  0  0
   10.0891  -16.9422   28.5258 C   0  0  0  0  0  0  0  0  0  0  0  0
   10.8010  -17.5500   24.1913 O   0  0  0  0  0  0  0  0  0  0  0  0
  2  1  1  0
  3  2  1  0
  4  3  1  0
  5  4  1  0
  5  6  1  6
  7  8  2  0
  7  5  1  0
  9 10  1  0
 10 20  2  0
 11 12  2  0
 11 10  1  0
 12 13  1  0
 13 14  1  0
 13 19  2  0
 15 14  1  1
 15 16  1  0
 16  7  1  0
 17 15  1  0
 18 17  2  0
 20 19  1  0
 22 21  1  0
 22 23  2  0
 24 23  1  0
 25 24  2  0
 27 26  1  1
 26 25  1  0
 27 28  1  0
 28 17  1  0
 29 33  1  0
 29 27  1  0
 30 29  2  0
 31 32  2  0
 31 25  1  0
 32 22  1  0
M  END
$$$$
