MYY.pdb
     RDKit          3D

 33 34  0  0  1  0  0  0  0  0999 V2000
    8.2994  -12.1471   20.0424 C   0  0  0  0  0  0  0  0  0  0  0  0
    8.5818  -12.5120   18.2894 S   0  0  0  0  0  0  0  0  0  0  0  0
    9.3236  -14.1687   18.0823 C   0  0  0  0  0  0  0  0  0  0  0  0
    8.6022  -15.1703   18.9415 C   0  0  0  0  0  0  0  0  0  0  0  0
    9.2319  -16.5063   18.9206 C   0  0  2  0  0  0  0  0  0  0  0  0
    8.3295  -17.3343   18.0653 N   0  0  0  0  0  0  0  0  0  0  0  0
    9.3673  -17.2299   20.1713 C   0  0  0  0  0  0  0  0  0  0  0  0
    8.4002  -17.9566   20.5720 O   0  0  0  0  0  0  0  0  0  0  0  0
   11.6749  -21.0316   27.7777 O   0  0  0  0  0  0  0  0  0  0  0  0
   11.7052  -20.3970   26.5454 C   0  0  0  0  0  0  0  0  0  0  0  0
   11.1782  -21.0139   25.4371 C   0  0  0  0  0  0  0  0  0  0  0  0
   11.1977  -20.4013   24.2025 C   0  0  0  0  0  0  0  0  0  0  0  0
   11.7437  -19.1404   24.0069 C   0  0  0  0  0  0  0  0  0  0  0  0
   11.7910  -18.4414   22.7162 C   0  0  0  0  0  0  0  0  0  0  0  0
   10.4455  -17.8485   22.3605 C   0  0  2  0  0  0  0  0  0  0  0  0
   10.4870  -17.2363   21.0413 N   0  0  0  0  0  0  0  0  0  0  0  0
    9.8907  -16.9867   23.4074 C   0  0  0  0  0  0  0  0  0  0  0  0
   10.3808  -15.8209   23.5180 O   0  0  0  0  0  0  0  0  0  0  0  0
   12.2754  -18.5266   25.1441 C   0  0  0  0  0  0  0  0  0  0  0  0
   12.2557  -19.1394   26.3779 C   0  0  0  0  0  0  0  0  0  0  0  0
    5.7009  -11.1617   27.9764 O   0  0  0  0  0  0  0  0  0  0  0  0
    6.1902  -12.1449   27.1275 C   0  0  0  0  0  0  0  0  0  0  0  0
    5.4278  -13.1918   26.6571 C   0  0  0  0  0  0  0  0  0  0  0  0
    5.9408  -14.1537   25.8145 C   0  0  0  0  0  0  0  0  0  0  0  0
    7.2679  -14.1063   25.3987 C   0  0  0  0  0  0  0  0  0  0  0  0
    7.8192  -15.1331   24.5156 C   0  0  0  0  0  0  0  0  0  0  0  0
    8.3618  -16.3239   25.2604 C   0  0  2  0  0  0  0  0  0  0  0  0
    8.8674  -17.3120   24.3087 N   0  0  0  0  0  0  0  0  0  0  0  0
    7.3383  -16.9211   26.1173 C   0  0  0  0  0  0  0  0  0  0  0  0
    7.3638  -16.6694   27.3708 O   0  0  0  0  0  0  0  0  0  0  0  0
    8.0375  -13.0530   25.8715 C   0  0  0  0  0  0  0  0  0  0  0  0
    7.5140  -12.1072   26.7063 C   0  0  0  0  0  0  0  0  0  0  0  0
    6.3239  -17.7517   25.6701 O   0  0  0  0  0  0  0  0  0  0  0  0
  2  1  1  0
  3  2  1  0
  4  3  1  0
  5  4  1  0
  5  6  1  6
  7  8  2  0
  7  5  1  0
  9 10  1  0
 10 20  2  0
 11 12  2  0
 11 10  1  0
 12 13  1  0
 13 14  1  0
 13 19  2  0
 15 14  1  1
 15 16  1  0
 16  7  1  0
 17 15  1  0
 18 17  2  0
 20 19  1  0
 22 21  1  0
 22 23  2  0
 24 23  1  0
 25 24  2  0
 27 26  1  6
 26 25  1  0
 27 28  1  0
 28 17  1  0
 29 33  1  0
 29 27  1  0
 30 29  2  0
 31 32  2  0
 31 25  1  0
 32 22  1  0
M  END
$$$$
