MYY.pdb
     RDKit          3D

 33 34  0  0  1  0  0  0  0  0999 V2000
    7.0902  -11.5985   26.9641 C   0  0  0  0  0  0  0  0  0  0  0  0
    5.6490  -12.5891   27.4410 S   0  0  0  0  0  0  0  0  0  0  0  0
    5.3184  -13.8921   26.2039 C   0  0  0  0  0  0  0  0  0  0  0  0
    6.6120  -14.4915   25.7247 C   0  0  0  0  0  0  0  0  0  0  0  0
    6.4803  -15.1814   24.4252 C   0  0  2  0  0  0  0  0  0  0  0  0
    5.6322  -16.3758   24.7176 N   0  0  0  0  0  0  0  0  0  0  0  0
    7.6787  -15.6926   23.7859 C   0  0  0  0  0  0  0  0  0  0  0  0
    7.9664  -16.9277   23.9112 O   0  0  0  0  0  0  0  0  0  0  0  0
    6.4663  -14.0827   17.2279 O   0  0  0  0  0  0  0  0  0  0  0  0
    7.4167  -14.2476   18.2236 C   0  0  0  0  0  0  0  0  0  0  0  0
    7.7107  -13.2122   19.0769 C   0  0  0  0  0  0  0  0  0  0  0  0
    8.6520  -13.3542   20.0737 C   0  0  0  0  0  0  0  0  0  0  0  0
    9.3506  -14.5368   20.2732 C   0  0  0  0  0  0  0  0  0  0  0  0
   10.3621  -14.7437   21.3177 C   0  0  0  0  0  0  0  0  0  0  0  0
    9.8148  -15.5721   22.4590 C   0  0  2  0  0  0  0  0  0  0  0  0
    8.6094  -14.9645   23.0021 N   0  0  0  0  0  0  0  0  0  0  0  0
   10.8212  -15.9184   23.4658 C   0  0  0  0  0  0  0  0  0  0  0  0
   11.4691  -14.9609   23.9902 O   0  0  0  0  0  0  0  0  0  0  0  0
    9.0400  -15.5801   19.3971 C   0  0  0  0  0  0  0  0  0  0  0  0
    8.0990  -15.4375   18.4008 C   0  0  0  0  0  0  0  0  0  0  0  0
   10.1581  -13.1811   29.1135 O   0  0  0  0  0  0  0  0  0  0  0  0
   10.5868  -14.3017   28.4156 C   0  0  0  0  0  0  0  0  0  0  0  0
   11.8204  -14.8869   28.6004 C   0  0  0  0  0  0  0  0  0  0  0  0
   12.2190  -16.0000   27.8930 C   0  0  0  0  0  0  0  0  0  0  0  0
   11.3804  -16.5864   26.9500 C   0  0  0  0  0  0  0  0  0  0  0  0
   11.8056  -17.7594   26.1876 C   0  0  0  0  0  0  0  0  0  0  0  0
   12.2925  -17.4201   24.8038 C   0  0  2  0  0  0  0  0  0  0  0  0
   11.1494  -17.2040   23.9182 N   0  0  0  0  0  0  0  0  0  0  0  0
   13.1532  -18.4770   24.2737 C   0  0  0  0  0  0  0  0  0  0  0  0
   12.7637  -19.1271   23.2438 O   0  0  0  0  0  0  0  0  0  0  0  0
   10.1377  -15.9984   26.7620 C   0  0  0  0  0  0  0  0  0  0  0  0
    9.7573  -14.8951   27.4715 C   0  0  0  0  0  0  0  0  0  0  0  0
   14.3803  -18.8347   24.8079 O   0  0  0  0  0  0  0  0  0  0  0  0
  2  1  1  0
  3  2  1  0
  4  3  1  0
  5  4  1  0
  5  6  1  1
  7  8  2  0
  7  5  1  0
  9 10  1  0
 10 20  2  0
 11 12  2  0
 11 10  1  0
 12 13  1  0
 13 14  1  0
 13 19  2  0
 15 14  1  6
 15 16  1  0
 16  7  1  0
 17 15  1  0
 18 17  2  0
 20 19  1  0
 22 21  1  0
 22 23  2  0
 24 23  1  0
 25 24  2  0
 27 26  1  1
 26 25  1  0
 27 28  1  0
 28 17  1  0
 29 33  1  0
 29 27  1  0
 30 29  2  0
 31 32  2  0
 31 25  1  0
 32 22  1  0
M  END
$$$$
