MYY.pdb
     RDKit          3D

 33 34  0  0  1  0  0  0  0  0999 V2000
    6.6131  -11.6281   18.8782 C   0  0  0  0  0  0  0  0  0  0  0  0
    7.5431  -12.9378   19.7183 S   0  0  0  0  0  0  0  0  0  0  0  0
    6.7313  -14.5586   19.4912 C   0  0  0  0  0  0  0  0  0  0  0  0
    7.4454  -15.6123   20.2924 C   0  0  0  0  0  0  0  0  0  0  0  0
    8.8188  -15.8682   19.8125 C   0  0  2  0  0  0  0  0  0  0  0  0
    8.6843  -17.0373   18.8926 N   0  0  0  0  0  0  0  0  0  0  0  0
    9.8346  -16.2395   20.7803 C   0  0  0  0  0  0  0  0  0  0  0  0
   10.0028  -17.4720   21.0568 O   0  0  0  0  0  0  0  0  0  0  0  0
   15.0552  -15.3080   17.2233 O   0  0  0  0  0  0  0  0  0  0  0  0
   14.5325  -15.2674   18.5068 C   0  0  0  0  0  0  0  0  0  0  0  0
   14.8008  -16.2804   19.3947 C   0  0  0  0  0  0  0  0  0  0  0  0
   14.2915  -16.2604   20.6754 C   0  0  0  0  0  0  0  0  0  0  0  0
   13.4873  -15.2288   21.1393 C   0  0  0  0  0  0  0  0  0  0  0  0
   12.9187  -15.1560   22.4915 C   0  0  0  0  0  0  0  0  0  0  0  0
   11.5693  -15.8363   22.5596 C   0  0  2  0  0  0  0  0  0  0  0  0
   10.7050  -15.3704   21.4859 N   0  0  0  0  0  0  0  0  0  0  0  0
   10.9567  -15.7889   23.8897 C   0  0  0  0  0  0  0  0  0  0  0  0
   10.3510  -14.7204   24.2106 O   0  0  0  0  0  0  0  0  0  0  0  0
   13.2239  -14.2063   20.2240 C   0  0  0  0  0  0  0  0  0  0  0  0
   13.7332  -14.2270   18.9440 C   0  0  0  0  0  0  0  0  0  0  0  0
    6.9690  -11.1300   26.1130 O   0  0  0  0  0  0  0  0  0  0  0  0
    7.4006  -12.4473   26.0419 C   0  0  0  0  0  0  0  0  0  0  0  0
    7.9759  -13.1173   27.0996 C   0  0  0  0  0  0  0  0  0  0  0  0
    8.3947  -14.4261   26.9998 C   0  0  0  0  0  0  0  0  0  0  0  0
    8.2518  -15.1342   25.8105 C   0  0  0  0  0  0  0  0  0  0  0  0
    8.7077  -16.5189   25.6971 C   0  0  0  0  0  0  0  0  0  0  0  0
   10.1562  -16.6964   26.0682 C   0  0  2  0  0  0  0  0  0  0  0  0
   10.9659  -16.8048   24.8556 N   0  0  0  0  0  0  0  0  0  0  0  0
   10.3437  -17.8763   26.9115 C   0  0  0  0  0  0  0  0  0  0  0  0
   10.9095  -18.9068   26.4085 O   0  0  0  0  0  0  0  0  0  0  0  0
    7.6729  -14.4613   24.7440 C   0  0  0  0  0  0  0  0  0  0  0  0
    7.2628  -13.1636   24.8590 C   0  0  0  0  0  0  0  0  0  0  0  0
    9.9513  -17.9669   28.2370 O   0  0  0  0  0  0  0  0  0  0  0  0
  2  1  1  0
  3  2  1  0
  4  3  1  0
  5  4  1  0
  5  6  1  6
  7  8  2  0
  7  5  1  0
  9 10  1  0
 10 20  2  0
 11 12  2  0
 11 10  1  0
 12 13  1  0
 13 14  1  0
 13 19  2  0
 15 14  1  1
 15 16  1  0
 16  7  1  0
 17 15  1  0
 18 17  2  0
 20 19  1  0
 22 21  1  0
 22 23  2  0
 24 23  1  0
 25 24  2  0
 27 26  1  6
 26 25  1  0
 27 28  1  0
 28 17  1  0
 29 33  1  0
 29 27  1  0
 30 29  2  0
 31 32  2  0
 31 25  1  0
 32 22  1  0
M  END
$$$$
