MYY.pdb
     RDKit          3D

 33 34  0  0  1  0  0  0  0  0999 V2000
    8.1201  -12.7350   19.6181 C   0  0  0  0  0  0  0  0  0  0  0  0
    8.0713  -13.6657   18.0633 S   0  0  0  0  0  0  0  0  0  0  0  0
    7.2562  -15.2834   18.3001 C   0  0  0  0  0  0  0  0  0  0  0  0
    6.8281  -15.4428   19.7331 C   0  0  0  0  0  0  0  0  0  0  0  0
    7.0861  -16.7970   20.2638 C   0  0  2  0  0  0  0  0  0  0  0  0
    6.0545  -17.6591   19.6127 N   0  0  0  0  0  0  0  0  0  0  0  0
    6.9476  -17.0215   21.6909 C   0  0  0  0  0  0  0  0  0  0  0  0
    5.7852  -16.9846   22.2118 O   0  0  0  0  0  0  0  0  0  0  0  0
    8.0694  -21.4693   28.8709 O   0  0  0  0  0  0  0  0  0  0  0  0
    7.7190  -20.6682   27.7950 C   0  0  0  0  0  0  0  0  0  0  0  0
    8.0201  -21.0611   26.5137 C   0  0  0  0  0  0  0  0  0  0  0  0
    7.6811  -20.2804   25.4296 C   0  0  0  0  0  0  0  0  0  0  0  0
    7.0236  -19.0657   25.5651 C   0  0  0  0  0  0  0  0  0  0  0  0
    6.6385  -18.1947   24.4470 C   0  0  0  0  0  0  0  0  0  0  0  0
    7.7664  -17.2642   24.0591 C   0  0  2  0  0  0  0  0  0  0  0  0
    7.9834  -17.2925   22.6207 N   0  0  0  0  0  0  0  0  0  0  0  0
    8.9815  -17.4540   24.8555 C   0  0  0  0  0  0  0  0  0  0  0  0
    9.2402  -18.6342   25.2451 O   0  0  0  0  0  0  0  0  0  0  0  0
    6.7246  -18.6805   26.8746 C   0  0  0  0  0  0  0  0  0  0  0  0
    7.0637  -19.4613   27.9579 C   0  0  0  0  0  0  0  0  0  0  0  0
    5.9917  -10.2405   27.9640 O   0  0  0  0  0  0  0  0  0  0  0  0
    6.5376  -11.3576   27.3469 C   0  0  0  0  0  0  0  0  0  0  0  0
    7.8209  -11.8030   27.5779 C   0  0  0  0  0  0  0  0  0  0  0  0
    8.3363  -12.9162   26.9507 C   0  0  0  0  0  0  0  0  0  0  0  0
    7.5712  -13.6460   26.0460 C   0  0  0  0  0  0  0  0  0  0  0  0
    8.1196  -14.8199   25.3683 C   0  0  0  0  0  0  0  0  0  0  0  0
    9.4541  -15.2497   25.9176 C   0  0  2  0  0  0  0  0  0  0  0  0
    9.8988  -16.4651   25.2373 N   0  0  0  0  0  0  0  0  0  0  0  0
    9.3832  -15.4724   27.3612 C   0  0  0  0  0  0  0  0  0  0  0  0
   10.0277  -14.6855   28.1361 O   0  0  0  0  0  0  0  0  0  0  0  0
    6.2787  -13.1991   25.8117 C   0  0  0  0  0  0  0  0  0  0  0  0
    5.7824  -12.0935   26.4418 C   0  0  0  0  0  0  0  0  0  0  0  0
    8.6584  -16.4860   27.9666 O   0  0  0  0  0  0  0  0  0  0  0  0
  2  1  1  0
  3  2  1  0
  4  3  1  0
  5  4  1  0
  5  6  1  6
  7  8  2  0
  7  5  1  0
  9 10  1  0
 10 20  2  0
 11 12  2  0
 11 10  1  0
 12 13  1  0
 13 14  1  0
 13 19  2  0
 15 14  1  6
 15 16  1  0
 16  7  1  0
 17 15  1  0
 18 17  2  0
 20 19  1  0
 22 21  1  0
 22 23  2  0
 24 23  1  0
 25 24  2  0
 27 26  1  6
 26 25  1  0
 27 28  1  0
 28 17  1  0
 29 33  1  0
 29 27  1  0
 30 29  2  0
 31 32  2  0
 31 25  1  0
 32 22  1  0
M  END
$$$$
