MYY.pdb
     RDKit          3D

 33 34  0  0  1  0  0  0  0  0999 V2000
    1.0141  -20.1343   20.4896 C   0  0  0  0  0  0  0  0  0  0  0  0
    2.6374  -19.5682   19.9150 S   0  0  0  0  0  0  0  0  0  0  0  0
    3.7431  -19.2252   21.3283 C   0  0  0  0  0  0  0  0  0  0  0  0
    5.0115  -18.5753   20.8478 C   0  0  0  0  0  0  0  0  0  0  0  0
    6.0247  -18.4325   21.9132 C   0  0  2  0  0  0  0  0  0  0  0  0
    5.3463  -17.6260   22.9718 N   0  0  0  0  0  0  0  0  0  0  0  0
    7.2581  -17.7308   21.6090 C   0  0  0  0  0  0  0  0  0  0  0  0
    8.1625  -18.3324   20.9426 O   0  0  0  0  0  0  0  0  0  0  0  0
    6.6466  -13.2239   16.4214 O   0  0  0  0  0  0  0  0  0  0  0  0
    7.1913  -13.5039   17.6652 C   0  0  0  0  0  0  0  0  0  0  0  0
    6.5986  -13.0173   18.8048 C   0  0  0  0  0  0  0  0  0  0  0  0
    7.1232  -13.2834   20.0513 C   0  0  0  0  0  0  0  0  0  0  0  0
    8.2670  -14.0492   20.2283 C   0  0  0  0  0  0  0  0  0  0  0  0
    8.8686  -14.3641   21.5307 C   0  0  0  0  0  0  0  0  0  0  0  0
    8.9332  -15.8577   21.7615 C   0  0  2  0  0  0  0  0  0  0  0  0
    7.6004  -16.4029   21.9698 N   0  0  0  0  0  0  0  0  0  0  0  0
    9.9107  -16.2505   22.7797 C   0  0  0  0  0  0  0  0  0  0  0  0
   11.1229  -15.9370   22.5703 O   0  0  0  0  0  0  0  0  0  0  0  0
    8.8577  -14.5366   19.0595 C   0  0  0  0  0  0  0  0  0  0  0  0
    8.3329  -14.2702   17.8137 C   0  0  0  0  0  0  0  0  0  0  0  0
   11.0430  -14.3991   31.2374 O   0  0  0  0  0  0  0  0  0  0  0  0
   10.6058  -14.7288   29.9618 C   0  0  0  0  0  0  0  0  0  0  0  0
   10.2085  -15.9970   29.5982 C   0  0  0  0  0  0  0  0  0  0  0  0
    9.7786  -16.2951   28.3236 C   0  0  0  0  0  0  0  0  0  0  0  0
    9.7274  -15.3139   27.3382 C   0  0  0  0  0  0  0  0  0  0  0  0
    9.2847  -15.6297   25.9809 C   0  0  0  0  0  0  0  0  0  0  0  0
   10.2501  -16.5120   25.2347 C   0  0  2  0  0  0  0  0  0  0  0  0
    9.6508  -16.9408   23.9718 N   0  0  0  0  0  0  0  0  0  0  0  0
   10.6307  -17.6740   26.0369 C   0  0  0  0  0  0  0  0  0  0  0  0
    9.8753  -18.7055   26.0203 O   0  0  0  0  0  0  0  0  0  0  0  0
   10.1274  -14.0360   27.7022 C   0  0  0  0  0  0  0  0  0  0  0  0
   10.5510  -13.7567   28.9703 C   0  0  0  0  0  0  0  0  0  0  0  0
   11.7667  -17.7474   26.8263 O   0  0  0  0  0  0  0  0  0  0  0  0
  2  1  1  0
  3  2  1  0
  4  3  1  0
  5  4  1  0
  5  6  1  1
  7  8  2  0
  7  5  1  0
  9 10  1  0
 10 20  2  0
 11 12  2  0
 11 10  1  0
 12 13  1  0
 13 14  1  0
 13 19  2  0
 15 14  1  1
 15 16  1  0
 16  7  1  0
 17 15  1  0
 18 17  2  0
 20 19  1  0
 22 21  1  0
 22 23  2  0
 24 23  1  0
 25 24  2  0
 27 26  1  1
 26 25  1  0
 27 28  1  0
 28 17  1  0
 29 33  1  0
 29 27  1  0
 30 29  2  0
 31 32  2  0
 31 25  1  0
 32 22  1  0
M  END
$$$$
