MYY.pdb
     RDKit          3D

 33 34  0  0  1  0  0  0  0  0999 V2000
   10.2956  -20.2324   19.4935 C   0  0  0  0  0  0  0  0  0  0  0  0
    9.3847  -19.5108   18.1023 S   0  0  0  0  0  0  0  0  0  0  0  0
    8.6486  -17.9057   18.5707 C   0  0  0  0  0  0  0  0  0  0  0  0
    9.3768  -17.3271   19.7527 C   0  0  0  0  0  0  0  0  0  0  0  0
    8.8083  -16.0414   20.2062 C   0  0  2  0  0  0  0  0  0  0  0  0
    9.1927  -15.0644   19.1436 N   0  0  0  0  0  0  0  0  0  0  0  0
    9.2815  -15.4752   21.4559 C   0  0  0  0  0  0  0  0  0  0  0  0
   10.3227  -14.7407   21.4459 O   0  0  0  0  0  0  0  0  0  0  0  0
   11.0679  -14.7229   30.1137 O   0  0  0  0  0  0  0  0  0  0  0  0
   10.4210  -14.8065   28.8903 C   0  0  0  0  0  0  0  0  0  0  0  0
   10.2421  -13.6802   28.1247 C   0  0  0  0  0  0  0  0  0  0  0  0
    9.6018  -13.7403   26.9056 C   0  0  0  0  0  0  0  0  0  0  0  0
    9.1054  -14.9271   26.3845 C   0  0  0  0  0  0  0  0  0  0  0  0
    8.4164  -15.0492   25.0933 C   0  0  0  0  0  0  0  0  0  0  0  0
    9.3994  -15.2425   23.9598 C   0  0  2  0  0  0  0  0  0  0  0  0
    8.7075  -15.6375   22.7423 N   0  0  0  0  0  0  0  0  0  0  0  0
   10.5365  -16.0970   24.3110 C   0  0  0  0  0  0  0  0  0  0  0  0
   10.3559  -17.3524   24.2570 O   0  0  0  0  0  0  0  0  0  0  0  0
    9.2954  -16.0633   27.1755 C   0  0  0  0  0  0  0  0  0  0  0  0
    9.9355  -16.0025   28.3940 C   0  0  0  0  0  0  0  0  0  0  0  0
   13.5810  -15.3755   18.2533 O   0  0  0  0  0  0  0  0  0  0  0  0
   13.7224  -15.4462   19.6323 C   0  0  0  0  0  0  0  0  0  0  0  0
   14.4287  -14.5235   20.3727 C   0  0  0  0  0  0  0  0  0  0  0  0
   14.5518  -14.6190   21.7417 C   0  0  0  0  0  0  0  0  0  0  0  0
   13.9598  -15.6658   22.4418 C   0  0  0  0  0  0  0  0  0  0  0  0
   14.1000  -15.7778   23.8929 C   0  0  0  0  0  0  0  0  0  0  0  0
   12.9771  -16.5466   24.5375 C   0  0  2  0  0  0  0  0  0  0  0  0
   11.8147  -15.6754   24.7031 N   0  0  0  0  0  0  0  0  0  0  0  0
   13.3879  -17.0968   25.8287 C   0  0  0  0  0  0  0  0  0  0  0  0
   14.3991  -17.8783   25.8693 O   0  0  0  0  0  0  0  0  0  0  0  0
   13.2482  -16.5964   21.6981 C   0  0  0  0  0  0  0  0  0  0  0  0
   13.1353  -16.4874   20.3412 C   0  0  0  0  0  0  0  0  0  0  0  0
   12.7575  -16.8319   27.0335 O   0  0  0  0  0  0  0  0  0  0  0  0
  2  1  1  0
  3  2  1  0
  4  3  1  0
  5  4  1  0
  5  6  1  6
  7  8  2  0
  7  5  1  0
  9 10  1  0
 10 20  2  0
 11 12  2  0
 11 10  1  0
 12 13  1  0
 13 14  1  0
 13 19  2  0
 15 14  1  1
 15 16  1  0
 16  7  1  0
 17 15  1  0
 18 17  2  0
 20 19  1  0
 22 21  1  0
 22 23  2  0
 24 23  1  0
 25 24  2  0
 27 26  1  1
 26 25  1  0
 27 28  1  0
 28 17  1  0
 29 33  1  0
 29 27  1  0
 30 29  2  0
 31 32  2  0
 31 25  1  0
 32 22  1  0
M  END
$$$$
