MYY.pdb
     RDKit          3D

 33 34  0  0  1  0  0  0  0  0999 V2000
    9.1926  -19.1458   28.8985 C   0  0  0  0  0  0  0  0  0  0  0  0
    7.9555  -20.4615   29.0550 S   0  0  0  0  0  0  0  0  0  0  0  0
    6.8095  -20.4477   27.6322 C   0  0  0  0  0  0  0  0  0  0  0  0
    7.4167  -19.6874   26.4853 C   0  0  0  0  0  0  0  0  0  0  0  0
    6.5280  -19.6152   25.3076 C   0  0  2  0  0  0  0  0  0  0  0  0
    6.5012  -21.0089   24.7706 N   0  0  0  0  0  0  0  0  0  0  0  0
    6.9171  -18.7687   24.1949 C   0  0  0  0  0  0  0  0  0  0  0  0
    7.5458  -19.2870   23.2151 O   0  0  0  0  0  0  0  0  0  0  0  0
    8.3923  -12.1814   18.4566 O   0  0  0  0  0  0  0  0  0  0  0  0
    7.9851  -12.9100   19.5636 C   0  0  0  0  0  0  0  0  0  0  0  0
    7.2807  -14.0780   19.4014 C   0  0  0  0  0  0  0  0  0  0  0  0
    6.8661  -14.8181   20.4878 C   0  0  0  0  0  0  0  0  0  0  0  0
    7.1319  -14.4330   21.7945 C   0  0  0  0  0  0  0  0  0  0  0  0
    6.7153  -15.1817   22.9873 C   0  0  0  0  0  0  0  0  0  0  0  0
    7.2453  -16.5983   22.9622 C   0  0  2  0  0  0  0  0  0  0  0  0
    6.6741  -17.3793   24.0488 N   0  0  0  0  0  0  0  0  0  0  0  0
    8.7054  -16.6751   22.8678 C   0  0  0  0  0  0  0  0  0  0  0  0
    9.2355  -16.3036   21.7758 O   0  0  0  0  0  0  0  0  0  0  0  0
    7.8491  -13.2429   21.9422 C   0  0  0  0  0  0  0  0  0  0  0  0
    8.2633  -12.5036   20.8559 C   0  0  0  0  0  0  0  0  0  0  0  0
    9.4286  -14.3762   29.9753 O   0  0  0  0  0  0  0  0  0  0  0  0
    9.7087  -14.5046   28.6219 C   0  0  0  0  0  0  0  0  0  0  0  0
    9.2242  -13.6451   27.6601 C   0  0  0  0  0  0  0  0  0  0  0  0
    9.5195  -13.7971   26.3229 C   0  0  0  0  0  0  0  0  0  0  0  0
   10.3301  -14.8392   25.8834 C   0  0  0  0  0  0  0  0  0  0  0  0
   10.6343  -15.0116   24.4636 C   0  0  0  0  0  0  0  0  0  0  0  0
   10.8708  -16.4484   24.0801 C   0  0  2  0  0  0  0  0  0  0  0  0
    9.5894  -17.1177   23.8617 N   0  0  0  0  0  0  0  0  0  0  0  0
   11.6411  -17.1484   25.1074 C   0  0  0  0  0  0  0  0  0  0  0  0
   12.8178  -16.7308   25.3835 O   0  0  0  0  0  0  0  0  0  0  0  0
   10.8188  -15.7063   26.8503 C   0  0  0  0  0  0  0  0  0  0  0  0
   10.5169  -15.5418   28.1721 C   0  0  0  0  0  0  0  0  0  0  0  0
   11.1878  -18.2470   25.8191 O   0  0  0  0  0  0  0  0  0  0  0  0
  2  1  1  0
  3  2  1  0
  4  3  1  0
  5  4  1  0
  5  6  1  6
  7  8  2  0
  7  5  1  0
  9 10  1  0
 10 20  2  0
 11 12  2  0
 11 10  1  0
 12 13  1  0
 13 14  1  0
 13 19  2  0
 15 14  1  1
 15 16  1  0
 16  7  1  0
 17 15  1  0
 18 17  2  0
 20 19  1  0
 22 21  1  0
 22 23  2  0
 24 23  1  0
 25 24  2  0
 27 26  1  1
 26 25  1  0
 27 28  1  0
 28 17  1  0
 29 33  1  0
 29 27  1  0
 30 29  2  0
 31 32  2  0
 31 25  1  0
 32 22  1  0
M  END
$$$$
