MYY.pdb
     RDKit          3D

 33 34  0  0  1  0  0  0  0  0999 V2000
    6.4673  -11.3859   21.2065 C   0  0  0  0  0  0  0  0  0  0  0  0
    5.8337  -12.7737   20.2274 S   0  0  0  0  0  0  0  0  0  0  0  0
    7.2058  -13.7909   19.5791 C   0  0  0  0  0  0  0  0  0  0  0  0
    7.9439  -14.4481   20.7129 C   0  0  0  0  0  0  0  0  0  0  0  0
    9.1234  -15.2158   20.2639 C   0  0  2  0  0  0  0  0  0  0  0  0
    8.5624  -16.2928   19.3940 N   0  0  0  0  0  0  0  0  0  0  0  0
    9.9324  -15.8922   21.2610 C   0  0  0  0  0  0  0  0  0  0  0  0
    9.7574  -17.1393   21.4557 O   0  0  0  0  0  0  0  0  0  0  0  0
   15.1945  -15.9248   17.7370 O   0  0  0  0  0  0  0  0  0  0  0  0
   14.6936  -15.8805   19.0289 C   0  0  0  0  0  0  0  0  0  0  0  0
   14.5213  -17.0407   19.7437 C   0  0  0  0  0  0  0  0  0  0  0  0
   14.0248  -17.0198   21.0294 C   0  0  0  0  0  0  0  0  0  0  0  0
   13.6735  -15.8405   21.6713 C   0  0  0  0  0  0  0  0  0  0  0  0
   13.1410  -15.7595   23.0377 C   0  0  0  0  0  0  0  0  0  0  0  0
   11.6660  -16.0935   23.0753 C   0  0  2  0  0  0  0  0  0  0  0  0
   10.9393  -15.3206   22.0796 N   0  0  0  0  0  0  0  0  0  0  0  0
   11.0879  -16.0384   24.4204 C   0  0  0  0  0  0  0  0  0  0  0  0
   11.3229  -14.9985   25.1097 O   0  0  0  0  0  0  0  0  0  0  0  0
   13.8547  -14.6694   20.9308 C   0  0  0  0  0  0  0  0  0  0  0  0
   14.3510  -14.6910   19.6456 C   0  0  0  0  0  0  0  0  0  0  0  0
    6.9793  -11.2073   25.1287 O   0  0  0  0  0  0  0  0  0  0  0  0
    7.2889  -12.5311   25.4085 C   0  0  0  0  0  0  0  0  0  0  0  0
    6.7274  -13.6001   24.7448 C   0  0  0  0  0  0  0  0  0  0  0  0
    7.0545  -14.9046   25.0440 C   0  0  0  0  0  0  0  0  0  0  0  0
    7.9779  -15.1996   26.0424 C   0  0  0  0  0  0  0  0  0  0  0  0
    8.3170  -16.5832   26.3718 C   0  0  0  0  0  0  0  0  0  0  0  0
    9.8009  -16.8375   26.3991 C   0  0  2  0  0  0  0  0  0  0  0  0
   10.2952  -17.0177   25.0349 N   0  0  0  0  0  0  0  0  0  0  0  0
   10.1203  -18.0090   27.2142 C   0  0  0  0  0  0  0  0  0  0  0  0
   10.6297  -19.0335   26.6434 O   0  0  0  0  0  0  0  0  0  0  0  0
    8.5443  -14.1245   26.7122 C   0  0  0  0  0  0  0  0  0  0  0  0
    8.2095  -12.8368   26.4036 C   0  0  0  0  0  0  0  0  0  0  0  0
    9.9124  -18.0973   28.5809 O   0  0  0  0  0  0  0  0  0  0  0  0
  2  1  1  0
  3  2  1  0
  4  3  1  0
  5  4  1  0
  5  6  1  6
  7  8  2  0
  7  5  1  0
  9 10  1  0
 10 20  2  0
 11 12  2  0
 11 10  1  0
 12 13  1  0
 13 14  1  0
 13 19  2  0
 15 14  1  1
 15 16  1  0
 16  7  1  0
 17 15  1  0
 18 17  2  0
 20 19  1  0
 22 21  1  0
 22 23  2  0
 24 23  1  0
 25 24  2  0
 27 26  1  6
 26 25  1  0
 27 28  1  0
 28 17  1  0
 29 33  1  0
 29 27  1  0
 30 29  2  0
 31 32  2  0
 31 25  1  0
 32 22  1  0
M  END
$$$$
