MYY.pdb
     RDKit          3D

 33 34  0  0  1  0  0  0  0  0999 V2000
    5.5793  -10.9612   28.0166 C   0  0  0  0  0  0  0  0  0  0  0  0
    6.7900  -11.9193   27.0669 S   0  0  0  0  0  0  0  0  0  0  0  0
    6.1192  -12.3722   25.4290 C   0  0  0  0  0  0  0  0  0  0  0  0
    7.2392  -12.5448   24.4402 C   0  0  0  0  0  0  0  0  0  0  0  0
    7.3888  -13.9397   23.9775 C   0  0  2  0  0  0  0  0  0  0  0  0
    6.4901  -14.7308   24.8707 N   0  0  0  0  0  0  0  0  0  0  0  0
    8.6943  -14.5665   24.0721 C   0  0  0  0  0  0  0  0  0  0  0  0
    9.7356  -13.8329   24.0346 O   0  0  0  0  0  0  0  0  0  0  0  0
   10.9139  -15.1157   30.4073 O   0  0  0  0  0  0  0  0  0  0  0  0
   10.8108  -15.7020   29.1552 C   0  0  0  0  0  0  0  0  0  0  0  0
   11.9231  -16.2278   28.5445 C   0  0  0  0  0  0  0  0  0  0  0  0
   11.8434  -16.8152   27.3001 C   0  0  0  0  0  0  0  0  0  0  0  0
   10.6499  -16.9099   26.5980 C   0  0  0  0  0  0  0  0  0  0  0  0
   10.5072  -17.5244   25.2717 C   0  0  0  0  0  0  0  0  0  0  0  0
   10.3292  -16.4770   24.1949 C   0  0  2  0  0  0  0  0  0  0  0  0
    8.9731  -15.9498   24.2110 N   0  0  0  0  0  0  0  0  0  0  0  0
   10.7911  -16.9113   22.8741 C   0  0  0  0  0  0  0  0  0  0  0  0
    9.9648  -17.5508   22.1530 O   0  0  0  0  0  0  0  0  0  0  0  0
    9.5281  -16.3704   27.2329 C   0  0  0  0  0  0  0  0  0  0  0  0
    9.6084  -15.7833   28.4768 C   0  0  0  0  0  0  0  0  0  0  0  0
    6.7327  -14.8711   17.8772 O   0  0  0  0  0  0  0  0  0  0  0  0
    7.8809  -14.8593   18.6570 C   0  0  0  0  0  0  0  0  0  0  0  0
    8.6369  -15.9820   18.9146 C   0  0  0  0  0  0  0  0  0  0  0  0
    9.7732  -15.9400   19.6927 C   0  0  0  0  0  0  0  0  0  0  0  0
   10.2095  -14.7456   20.2578 C   0  0  0  0  0  0  0  0  0  0  0  0
   11.4071  -14.6999   21.0953 C   0  0  0  0  0  0  0  0  0  0  0  0
   12.2082  -15.9742   21.0509 C   0  0  2  0  0  0  0  0  0  0  0  0
   12.0579  -16.6951   22.3141 N   0  0  0  0  0  0  0  0  0  0  0  0
   13.6203  -15.7005   20.7870 C   0  0  0  0  0  0  0  0  0  0  0  0
   14.4723  -15.9220   21.7145 O   0  0  0  0  0  0  0  0  0  0  0  0
    9.4494  -13.6137   19.9999 C   0  0  0  0  0  0  0  0  0  0  0  0
    8.3253  -13.6719   19.2262 C   0  0  0  0  0  0  0  0  0  0  0  0
   14.1171  -15.2130   19.5893 O   0  0  0  0  0  0  0  0  0  0  0  0
  2  1  1  0
  3  2  1  0
  4  3  1  0
  5  4  1  0
  5  6  1  1
  7  8  2  0
  7  5  1  0
  9 10  1  0
 10 20  2  0
 11 12  2  0
 11 10  1  0
 12 13  1  0
 13 14  1  0
 13 19  2  0
 15 14  1  1
 15 16  1  0
 16  7  1  0
 17 15  1  0
 18 17  2  0
 20 19  1  0
 22 21  1  0
 22 23  2  0
 24 23  1  0
 25 24  2  0
 27 26  1  1
 26 25  1  0
 27 28  1  0
 28 17  1  0
 29 33  1  0
 29 27  1  0
 30 29  2  0
 31 32  2  0
 31 25  1  0
 32 22  1  0
M  END
$$$$
