MYY.pdb
     RDKit          3D

 33 34  0  0  1  0  0  0  0  0999 V2000
    7.6796  -12.1349   20.0393 C   0  0  0  0  0  0  0  0  0  0  0  0
    7.8827  -12.1939   18.2390 S   0  0  0  0  0  0  0  0  0  0  0  0
    7.9632  -13.9217   17.6509 C   0  0  0  0  0  0  0  0  0  0  0  0
    8.0990  -14.8604   18.8182 C   0  0  0  0  0  0  0  0  0  0  0  0
    8.8280  -16.0995   18.4787 C   0  0  2  0  0  0  0  0  0  0  0  0
    7.9199  -16.8253   17.5407 N   0  0  0  0  0  0  0  0  0  0  0  0
    9.1334  -17.0390   19.5420 C   0  0  0  0  0  0  0  0  0  0  0  0
    8.2027  -17.7820   19.9955 O   0  0  0  0  0  0  0  0  0  0  0  0
    9.7920  -23.1941   17.6516 O   0  0  0  0  0  0  0  0  0  0  0  0
   10.2317  -22.1976   18.5092 C   0  0  0  0  0  0  0  0  0  0  0  0
   10.0329  -22.3136   19.8633 C   0  0  0  0  0  0  0  0  0  0  0  0
   10.4618  -21.3350   20.7340 C   0  0  0  0  0  0  0  0  0  0  0  0
   11.1121  -20.1879   20.3010 C   0  0  0  0  0  0  0  0  0  0  0  0
   11.5901  -19.1150   21.1827 C   0  0  0  0  0  0  0  0  0  0  0  0
   10.5356  -18.0473   21.3736 C   0  0  2  0  0  0  0  0  0  0  0  0
   10.3892  -17.2490   20.1660 N   0  0  0  0  0  0  0  0  0  0  0  0
   10.7133  -17.2617   22.5973 C   0  0  0  0  0  0  0  0  0  0  0  0
   11.6704  -16.4278   22.6164 O   0  0  0  0  0  0  0  0  0  0  0  0
   11.3066  -20.0851   18.9210 C   0  0  0  0  0  0  0  0  0  0  0  0
   10.8776  -21.0637   18.0512 C   0  0  0  0  0  0  0  0  0  0  0  0
   10.2273  -13.8323   30.7525 O   0  0  0  0  0  0  0  0  0  0  0  0
    9.9543  -14.5200   29.5780 C   0  0  0  0  0  0  0  0  0  0  0  0
   10.1288  -15.8791   29.4344 C   0  0  0  0  0  0  0  0  0  0  0  0
    9.8489  -16.5354   28.2557 C   0  0  0  0  0  0  0  0  0  0  0  0
    9.3719  -15.8426   27.1472 C   0  0  0  0  0  0  0  0  0  0  0  0
    9.0869  -16.5337   25.8906 C   0  0  0  0  0  0  0  0  0  0  0  0
   10.2358  -16.4902   24.9184 C   0  0  2  0  0  0  0  0  0  0  0  0
    9.9340  -17.3304   23.7605 N   0  0  0  0  0  0  0  0  0  0  0  0
   11.4797  -16.9261   25.5520 C   0  0  0  0  0  0  0  0  0  0  0  0
   11.6583  -18.1752   25.7587 O   0  0  0  0  0  0  0  0  0  0  0  0
    9.1957  -14.4736   27.2895 C   0  0  0  0  0  0  0  0  0  0  0  0
    9.4778  -13.8378   28.4650 C   0  0  0  0  0  0  0  0  0  0  0  0
   12.4989  -16.0773   25.9517 O   0  0  0  0  0  0  0  0  0  0  0  0
  2  1  1  0
  3  2  1  0
  4  3  1  0
  5  4  1  0
  5  6  1  6
  7  8  2  0
  7  5  1  0
  9 10  1  0
 10 20  2  0
 11 12  2  0
 11 10  1  0
 12 13  1  0
 13 14  1  0
 13 19  2  0
 15 14  1  6
 15 16  1  0
 16  7  1  0
 17 15  1  0
 18 17  2  0
 20 19  1  0
 22 21  1  0
 22 23  2  0
 24 23  1  0
 25 24  2  0
 27 26  1  1
 26 25  1  0
 27 28  1  0
 28 17  1  0
 29 33  1  0
 29 27  1  0
 30 29  2  0
 31 32  2  0
 31 25  1  0
 32 22  1  0
M  END
$$$$
