MYY.pdb
     RDKit          3D

 33 34  0  0  1  0  0  0  0  0999 V2000
    8.0284  -11.7114   25.8858 C   0  0  0  0  0  0  0  0  0  0  0  0
    6.4041  -12.2469   26.4864 S   0  0  0  0  0  0  0  0  0  0  0  0
    6.2399  -14.0634   26.3828 C   0  0  0  0  0  0  0  0  0  0  0  0
    6.4111  -14.5187   24.9596 C   0  0  0  0  0  0  0  0  0  0  0  0
    7.1837  -15.7725   24.8452 C   0  0  2  0  0  0  0  0  0  0  0  0
    8.1263  -15.7407   26.0036 N   0  0  0  0  0  0  0  0  0  0  0  0
    8.0083  -15.9751   23.6682 C   0  0  0  0  0  0  0  0  0  0  0  0
    7.6965  -16.8987   22.8475 O   0  0  0  0  0  0  0  0  0  0  0  0
    6.1655  -14.2513   17.2291 O   0  0  0  0  0  0  0  0  0  0  0  0
    7.1481  -14.2963   18.2061 C   0  0  0  0  0  0  0  0  0  0  0  0
    7.4406  -13.1756   18.9445 C   0  0  0  0  0  0  0  0  0  0  0  0
    8.4135  -13.1979   19.9206 C   0  0  0  0  0  0  0  0  0  0  0  0
    9.1471  -14.3393   20.2128 C   0  0  0  0  0  0  0  0  0  0  0  0
   10.1932  -14.4199   21.2405 C   0  0  0  0  0  0  0  0  0  0  0  0
    9.9827  -15.6108   22.1494 C   0  0  2  0  0  0  0  0  0  0  0  0
    9.1643  -15.2436   23.2950 N   0  0  0  0  0  0  0  0  0  0  0  0
   11.2231  -16.3099   22.4944 C   0  0  0  0  0  0  0  0  0  0  0  0
   12.2681  -15.9877   21.8496 O   0  0  0  0  0  0  0  0  0  0  0  0
    8.8375  -15.4705   19.4530 C   0  0  0  0  0  0  0  0  0  0  0  0
    7.8649  -15.4475   18.4774 C   0  0  0  0  0  0  0  0  0  0  0  0
   10.4715  -15.2385   30.9691 O   0  0  0  0  0  0  0  0  0  0  0  0
   10.4566  -15.4354   29.5951 C   0  0  0  0  0  0  0  0  0  0  0  0
   10.5238  -14.4085   28.6789 C   0  0  0  0  0  0  0  0  0  0  0  0
   10.5074  -14.6342   27.3198 C   0  0  0  0  0  0  0  0  0  0  0  0
   10.4211  -15.9261   26.8103 C   0  0  0  0  0  0  0  0  0  0  0  0
   10.3895  -16.1683   25.3686 C   0  0  0  0  0  0  0  0  0  0  0  0
   11.5747  -16.9554   24.8756 C   0  0  2  0  0  0  0  0  0  0  0  0
   11.3836  -17.3049   23.4688 N   0  0  0  0  0  0  0  0  0  0  0  0
   11.7761  -18.1626   25.6762 C   0  0  0  0  0  0  0  0  0  0  0  0
   11.1993  -19.2441   25.3119 O   0  0  0  0  0  0  0  0  0  0  0  0
   10.3529  -16.9618   27.7312 C   0  0  0  0  0  0  0  0  0  0  0  0
   10.3704  -16.7215   29.0756 C   0  0  0  0  0  0  0  0  0  0  0  0
   12.5581  -18.2285   26.8177 O   0  0  0  0  0  0  0  0  0  0  0  0
  2  1  1  0
  3  2  1  0
  4  3  1  0
  5  4  1  0
  5  6  1  1
  7  8  2  0
  7  5  1  0
  9 10  1  0
 10 20  2  0
 11 12  2  0
 11 10  1  0
 12 13  1  0
 13 14  1  0
 13 19  2  0
 15 14  1  1
 15 16  1  0
 16  7  1  0
 17 15  1  0
 18 17  2  0
 20 19  1  0
 22 21  1  0
 22 23  2  0
 24 23  1  0
 25 24  2  0
 27 26  1  1
 26 25  1  0
 27 28  1  0
 28 17  1  0
 29 33  1  0
 29 27  1  0
 30 29  2  0
 31 32  2  0
 31 25  1  0
 32 22  1  0
M  END
$$$$
