MYY.pdb
     RDKit          3D

 33 34  0  0  1  0  0  0  0  0999 V2000
    6.3348  -21.6897   23.5706 C   0  0  0  0  0  0  0  0  0  0  0  0
    7.2937  -22.2395   22.1339 S   0  0  0  0  0  0  0  0  0  0  0  0
    7.5343  -20.8685   20.9506 C   0  0  0  0  0  0  0  0  0  0  0  0
    8.2530  -19.7283   21.6181 C   0  0  0  0  0  0  0  0  0  0  0  0
    8.2932  -18.5077   20.7870 C   0  0  2  0  0  0  0  0  0  0  0  0
    9.2357  -18.8395   19.6766 N   0  0  0  0  0  0  0  0  0  0  0  0
    8.7936  -17.2808   21.3790 C   0  0  0  0  0  0  0  0  0  0  0  0
   10.0494  -17.0642   21.3823 O   0  0  0  0  0  0  0  0  0  0  0  0
    7.9782  -13.2121   16.5608 O   0  0  0  0  0  0  0  0  0  0  0  0
    7.9731  -13.3615   17.9391 C   0  0  0  0  0  0  0  0  0  0  0  0
    8.9806  -12.8168   18.6972 C   0  0  0  0  0  0  0  0  0  0  0  0
    8.9953  -12.9533   20.0687 C   0  0  0  0  0  0  0  0  0  0  0  0
    8.0058  -13.6403   20.7578 C   0  0  0  0  0  0  0  0  0  0  0  0
    7.9711  -13.8162   22.2155 C   0  0  0  0  0  0  0  0  0  0  0  0
    8.6504  -15.1020   22.6321 C   0  0  2  0  0  0  0  0  0  0  0  0
    8.0323  -16.2446   21.9768 N   0  0  0  0  0  0  0  0  0  0  0  0
    8.7936  -15.2446   24.0832 C   0  0  0  0  0  0  0  0  0  0  0  0
    8.5364  -14.2243   24.7936 O   0  0  0  0  0  0  0  0  0  0  0  0
    6.9883  -14.1883   19.9723 C   0  0  0  0  0  0  0  0  0  0  0  0
    6.9742  -14.0516   18.6014 C   0  0  0  0  0  0  0  0  0  0  0  0
    5.8189  -10.9740   26.7662 O   0  0  0  0  0  0  0  0  0  0  0  0
    6.2648  -12.2881   26.7377 C   0  0  0  0  0  0  0  0  0  0  0  0
    5.5743  -13.3125   26.1276 C   0  0  0  0  0  0  0  0  0  0  0  0
    6.0419  -14.6085   26.1149 C   0  0  0  0  0  0  0  0  0  0  0  0
    7.2473  -14.9400   26.7261 C   0  0  0  0  0  0  0  0  0  0  0  0
    7.7398  -16.3167   26.7264 C   0  0  0  0  0  0  0  0  0  0  0  0
    9.1601  -16.4363   26.2409 C   0  0  2  0  0  0  0  0  0  0  0  0
    9.1866  -16.3960   24.7796 N   0  0  0  0  0  0  0  0  0  0  0  0
    9.7815  -17.6679   26.7266 C   0  0  0  0  0  0  0  0  0  0  0  0
    9.8884  -17.8453   27.9884 O   0  0  0  0  0  0  0  0  0  0  0  0
    7.9443  -13.9099   27.3414 C   0  0  0  0  0  0  0  0  0  0  0  0
    7.4671  -12.6301   27.3452 C   0  0  0  0  0  0  0  0  0  0  0  0
   10.2706  -18.6766   25.9128 O   0  0  0  0  0  0  0  0  0  0  0  0
  2  1  1  0
  3  2  1  0
  4  3  1  0
  5  4  1  0
  5  6  1  6
  7  8  2  0
  7  5  1  0
  9 10  1  0
 10 20  2  0
 11 12  2  0
 11 10  1  0
 12 13  1  0
 13 14  1  0
 13 19  2  0
 15 14  1  1
 15 16  1  0
 16  7  1  0
 17 15  1  0
 18 17  2  0
 20 19  1  0
 22 21  1  0
 22 23  2  0
 24 23  1  0
 25 24  2  0
 27 26  1  6
 26 25  1  0
 27 28  1  0
 28 17  1  0
 29 33  1  0
 29 27  1  0
 30 29  2  0
 31 32  2  0
 31 25  1  0
 32 22  1  0
M  END
$$$$
