MYY.pdb
     RDKit          3D

 33 34  0  0  1  0  0  0  0  0999 V2000
   10.0771  -22.3511   21.1570 C   0  0  0  0  0  0  0  0  0  0  0  0
   10.1990  -22.3303   19.3485 S   0  0  0  0  0  0  0  0  0  0  0  0
    9.5486  -20.7630   18.6718 C   0  0  0  0  0  0  0  0  0  0  0  0
   10.0091  -19.6047   19.5134 C   0  0  0  0  0  0  0  0  0  0  0  0
    9.4430  -18.3129   19.0743 C   0  0  2  0  0  0  0  0  0  0  0  0
    9.9158  -18.1541   17.6663 N   0  0  0  0  0  0  0  0  0  0  0  0
    9.8495  -17.1048   19.7681 C   0  0  0  0  0  0  0  0  0  0  0  0
   10.0482  -16.0424   19.0932 O   0  0  0  0  0  0  0  0  0  0  0  0
    7.6580  -12.2418   16.9867 O   0  0  0  0  0  0  0  0  0  0  0  0
    7.7502  -13.0690   18.0955 C   0  0  0  0  0  0  0  0  0  0  0  0
    7.0729  -14.2636   18.1249 C   0  0  0  0  0  0  0  0  0  0  0  0
    7.1504  -15.1011   19.2169 C   0  0  0  0  0  0  0  0  0  0  0  0
    7.9076  -14.7923   20.3382 C   0  0  0  0  0  0  0  0  0  0  0  0
    8.0262  -15.6459   21.5274 C   0  0  0  0  0  0  0  0  0  0  0  0
    9.4735  -15.8496   21.9178 C   0  0  2  0  0  0  0  0  0  0  0  0
   10.0596  -16.9458   21.1614 N   0  0  0  0  0  0  0  0  0  0  0  0
    9.6823  -15.9371   23.3653 C   0  0  0  0  0  0  0  0  0  0  0  0
    8.6708  -15.7481   24.1088 O   0  0  0  0  0  0  0  0  0  0  0  0
    8.5902  -13.5738   20.2925 C   0  0  0  0  0  0  0  0  0  0  0  0
    8.5124  -12.7371   19.2007 C   0  0  0  0  0  0  0  0  0  0  0  0
   10.6580  -15.1886   31.7875 O   0  0  0  0  0  0  0  0  0  0  0  0
   10.5896  -15.1302   30.4024 C   0  0  0  0  0  0  0  0  0  0  0  0
    9.9455  -14.1250   29.7145 C   0  0  0  0  0  0  0  0  0  0  0  0
    9.8941  -14.0928   28.3380 C   0  0  0  0  0  0  0  0  0  0  0  0
   10.4991  -15.0877   27.5762 C   0  0  0  0  0  0  0  0  0  0  0  0
   10.4348  -15.0640   26.1156 C   0  0  0  0  0  0  0  0  0  0  0  0
   10.9377  -16.3335   25.4812 C   0  0  2  0  0  0  0  0  0  0  0  0
   10.8886  -16.2100   24.0251 N   0  0  0  0  0  0  0  0  0  0  0  0
   10.1548  -17.4883   25.9198 C   0  0  0  0  0  0  0  0  0  0  0  0
    9.0600  -17.7533   25.3147 O   0  0  0  0  0  0  0  0  0  0  0  0
   11.1481  -16.1012   28.2669 C   0  0  0  0  0  0  0  0  0  0  0  0
   11.1901  -16.1187   29.6320 C   0  0  0  0  0  0  0  0  0  0  0  0
   10.5131  -18.3341   26.9567 O   0  0  0  0  0  0  0  0  0  0  0  0
  2  1  1  0
  3  2  1  0
  4  3  1  0
  5  4  1  0
  5  6  1  6
  7  8  2  0
  7  5  1  0
  9 10  1  0
 10 20  2  0
 11 12  2  0
 11 10  1  0
 12 13  1  0
 13 14  1  0
 13 19  2  0
 15 14  1  1
 15 16  1  0
 16  7  1  0
 17 15  1  0
 18 17  2  0
 20 19  1  0
 22 21  1  0
 22 23  2  0
 24 23  1  0
 25 24  2  0
 27 26  1  1
 26 25  1  0
 27 28  1  0
 28 17  1  0
 29 33  1  0
 29 27  1  0
 30 29  2  0
 31 32  2  0
 31 25  1  0
 32 22  1  0
M  END
$$$$
