VQI.pdb
     RDKit          3D

 25 24  0  0  1  0  0  0  0  0999 V2000
    8.2507  -12.9758   18.0902 C   0  0  0  0  0  0  0  0  0  0  0  0
    7.6745  -13.5999   19.3272 C   0  0  2  0  0  0  0  0  0  0  0  0
    8.1319  -12.8400   20.5519 C   0  0  0  0  0  0  0  0  0  0  0  0
    8.0531  -15.0568   19.4726 C   0  0  2  0  0  0  0  0  0  0  0  0
    7.4980  -15.8099   18.3436 N   0  0  0  0  0  0  0  0  0  0  0  0
    7.5858  -15.6232   20.7593 C   0  0  0  0  0  0  0  0  0  0  0  0
    6.3491  -15.7177   20.9661 O   0  0  0  0  0  0  0  0  0  0  0  0
    6.4375  -19.2182   24.8237 N   0  0  0  0  0  0  0  0  0  0  0  0
    6.5774  -19.5606   23.4369 C   0  0  0  0  0  0  0  0  0  0  0  0
    5.7309  -20.3874   23.0023 O   0  0  0  0  0  0  0  0  0  0  0  0
    7.6465  -18.9700   22.6022 C   0  0  0  0  0  0  0  0  0  0  0  0
    8.4339  -17.9264   23.3116 C   0  0  0  0  0  0  0  0  0  0  0  0
    8.0180  -16.5037   23.0132 C   0  0  2  0  0  0  0  0  0  0  0  0
    8.5141  -16.0506   21.7386 N   0  0  0  0  0  0  0  0  0  0  0  0
    8.6338  -15.6709   24.0784 C   0  0  0  0  0  0  0  0  0  0  0  0
    9.8665  -15.4498   24.0422 O   0  0  0  0  0  0  0  0  0  0  0  0
    5.7762  -11.6344   26.2906 C   0  0  0  0  0  0  0  0  0  0  0  0
    6.8600  -12.5024   25.7352 C   0  0  0  0  0  0  0  0  0  0  0  0
    7.4883  -13.3685   26.8322 C   0  0  2  0  0  0  0  0  0  0  0  0
    8.2057  -12.5287   27.8450 C   0  0  0  0  0  0  0  0  0  0  0  0
    8.4939  -14.3259   26.2129 C   0  0  2  0  0  0  0  0  0  0  0  0
    7.8916  -15.1033   25.1511 N   0  0  0  0  0  0  0  0  0  0  0  0
    8.9221  -15.2490   27.2838 C   0  0  0  0  0  0  0  0  0  0  0  0
   10.0653  -15.0397   28.0364 O   0  0  0  0  0  0  0  0  0  0  0  0
    8.2335  -16.2662   27.5326 O   0  0  0  0  0  0  0  0  0  0  0  0
  2  1  1  6
  3  2  1  0
  4  2  1  0
  4  5  1  6
  6  4  1  0
  6  7  2  0
  8  9  1  0
  9 10  2  0
  9 11  1  0
 11 12  1  0
 13 12  1  1
 13 14  1  0
 14  6  1  0
 15 13  1  0
 16 15  2  0
 18 17  1  0
 19 18  1  0
 19 21  1  0
 19 20  1  1
 21 22  1  6
 21 23  1  0
 22 15  1  0
 23 24  1  0
 25 23  2  0
M  END
$$$$
