VQI.pdb
     RDKit          3D

 25 24  0  0  1  0  0  0  0  0999 V2000
    7.8070  -12.3733   19.7610 C   0  0  0  0  0  0  0  0  0  0  0  0
    7.8770  -13.7627   19.1984 C   0  0  2  0  0  0  0  0  0  0  0  0
    6.4910  -14.3632   19.1277 C   0  0  0  0  0  0  0  0  0  0  0  0
    8.7751  -14.6718   20.0070 C   0  0  2  0  0  0  0  0  0  0  0  0
    8.9691  -15.9270   19.2744 N   0  0  0  0  0  0  0  0  0  0  0  0
    8.2243  -14.9340   21.3570 C   0  0  0  0  0  0  0  0  0  0  0  0
    8.0214  -13.9615   22.1280 O   0  0  0  0  0  0  0  0  0  0  0  0
    7.0129  -20.6367   24.1452 N   0  0  0  0  0  0  0  0  0  0  0  0
    6.4781  -19.6460   25.0355 C   0  0  0  0  0  0  0  0  0  0  0  0
    5.9028  -20.1026   26.0599 O   0  0  0  0  0  0  0  0  0  0  0  0
    6.6080  -18.2009   24.7465 C   0  0  0  0  0  0  0  0  0  0  0  0
    7.2239  -17.9219   23.4217 C   0  0  0  0  0  0  0  0  0  0  0  0
    7.3157  -16.4569   23.0592 C   0  0  2  0  0  0  0  0  0  0  0  0
    7.9312  -16.2550   21.7722 N   0  0  0  0  0  0  0  0  0  0  0  0
    8.1824  -15.8380   24.0952 C   0  0  0  0  0  0  0  0  0  0  0  0
    9.4243  -15.9844   24.0170 O   0  0  0  0  0  0  0  0  0  0  0  0
    6.0803  -11.4327   26.4726 C   0  0  0  0  0  0  0  0  0  0  0  0
    7.0273  -12.3780   25.8046 C   0  0  0  0  0  0  0  0  0  0  0  0
    7.7343  -13.2675   26.8328 C   0  0  2  0  0  0  0  0  0  0  0  0
    8.6951  -12.4767   27.6678 C   0  0  0  0  0  0  0  0  0  0  0  0
    8.5157  -14.3558   26.1143 C   0  0  2  0  0  0  0  0  0  0  0  0
    7.6737  -15.0785   25.1851 N   0  0  0  0  0  0  0  0  0  0  0  0
    8.9875  -15.2986   27.1491 C   0  0  0  0  0  0  0  0  0  0  0  0
   10.2188  -15.1709   27.7693 O   0  0  0  0  0  0  0  0  0  0  0  0
    8.2553  -16.2570   27.4896 O   0  0  0  0  0  0  0  0  0  0  0  0
  2  1  1  1
  3  2  1  0
  4  2  1  0
  4  5  1  6
  6  4  1  0
  6  7  2  0
  8  9  1  0
  9 10  2  0
  9 11  1  0
 11 12  1  0
 13 12  1  1
 13 14  1  0
 14  6  1  0
 15 13  1  0
 16 15  2  0
 18 17  1  0
 19 18  1  0
 19 21  1  0
 19 20  1  6
 21 22  1  6
 21 23  1  0
 22 15  1  0
 23 24  1  0
 25 23  2  0
M  END
$$$$
