VQI.pdb
     RDKit          3D

 25 24  0  0  1  0  0  0  0  0999 V2000
    8.0223  -12.5485   18.2335 C   0  0  0  0  0  0  0  0  0  0  0  0
    7.8442  -13.3344   19.4993 C   0  0  2  0  0  0  0  0  0  0  0  0
    8.4941  -12.6082   20.6555 C   0  0  0  0  0  0  0  0  0  0  0  0
    8.4164  -14.7308   19.4009 C   0  0  2  0  0  0  0  0  0  0  0  0
    7.7467  -15.4461   18.3101 N   0  0  0  0  0  0  0  0  0  0  0  0
    8.2803  -15.4745   20.6749 C   0  0  0  0  0  0  0  0  0  0  0  0
    7.1499  -15.9203   20.9985 O   0  0  0  0  0  0  0  0  0  0  0  0
   12.5364  -19.4086   21.8960 N   0  0  0  0  0  0  0  0  0  0  0  0
   11.1330  -19.7093   21.9112 C   0  0  0  0  0  0  0  0  0  0  0  0
   10.8494  -20.9308   22.0396 O   0  0  0  0  0  0  0  0  0  0  0  0
   10.1157  -18.6427   21.7843 C   0  0  0  0  0  0  0  0  0  0  0  0
   10.2566  -17.5744   22.8096 C   0  0  0  0  0  0  0  0  0  0  0  0
    9.2375  -16.4617   22.7124 C   0  0  2  0  0  0  0  0  0  0  0  0
    9.4020  -15.6799   21.5133 N   0  0  0  0  0  0  0  0  0  0  0  0
    9.4871  -15.5818   23.8832 C   0  0  0  0  0  0  0  0  0  0  0  0
   10.5382  -14.9007   23.9199 O   0  0  0  0  0  0  0  0  0  0  0  0
    5.7326  -12.4225   25.6861 C   0  0  0  0  0  0  0  0  0  0  0  0
    7.0187  -13.1023   25.3389 C   0  0  0  0  0  0  0  0  0  0  0  0
    7.5746  -13.8754   26.5396 C   0  0  2  0  0  0  0  0  0  0  0  0
    7.9274  -12.9518   27.6658 C   0  0  0  0  0  0  0  0  0  0  0  0
    8.8330  -14.6221   26.1273 C   0  0  2  0  0  0  0  0  0  0  0  0
    8.5874  -15.4683   24.9792 N   0  0  0  0  0  0  0  0  0  0  0  0
    9.2151  -15.4799   27.2678 C   0  0  0  0  0  0  0  0  0  0  0  0
   10.1434  -15.0886   28.2176 O   0  0  0  0  0  0  0  0  0  0  0  0
    8.6865  -16.6092   27.3938 O   0  0  0  0  0  0  0  0  0  0  0  0
  2  1  1  6
  3  2  1  0
  4  2  1  0
  4  5  1  6
  6  4  1  0
  6  7  2  0
  8  9  1  0
  9 10  2  0
  9 11  1  0
 11 12  1  0
 13 12  1  6
 13 14  1  0
 14  6  1  0
 15 13  1  0
 16 15  2  0
 18 17  1  0
 19 18  1  0
 19 21  1  0
 19 20  1  1
 21 22  1  6
 21 23  1  0
 22 15  1  0
 23 24  1  0
 25 23  2  0
M  END
$$$$
