VQI.pdb
     RDKit          3D

 25 24  0  0  1  0  0  0  0  0999 V2000
    9.0800  -12.6801   20.1429 C   0  0  0  0  0  0  0  0  0  0  0  0
    8.2585  -13.4607   19.1592 C   0  0  2  0  0  0  0  0  0  0  0  0
    6.7873  -13.1992   19.3904 C   0  0  0  0  0  0  0  0  0  0  0  0
    8.5201  -14.9482   19.2356 C   0  0  2  0  0  0  0  0  0  0  0  0
    7.8045  -15.6161   18.1439 N   0  0  0  0  0  0  0  0  0  0  0  0
    8.1199  -15.5127   20.5456 C   0  0  0  0  0  0  0  0  0  0  0  0
    6.9050  -15.7633   20.7517 O   0  0  0  0  0  0  0  0  0  0  0  0
   11.5047  -20.1431   21.6117 N   0  0  0  0  0  0  0  0  0  0  0  0
   11.1387  -19.3073   22.7196 C   0  0  0  0  0  0  0  0  0  0  0  0
   11.2890  -19.8304   23.8565 O   0  0  0  0  0  0  0  0  0  0  0  0
   10.6257  -17.9352   22.5123 C   0  0  0  0  0  0  0  0  0  0  0  0
    9.2178  -17.7628   22.9599 C   0  0  0  0  0  0  0  0  0  0  0  0
    8.6617  -16.3676   22.7856 C   0  0  2  0  0  0  0  0  0  0  0  0
    9.0871  -15.7658   21.5475 N   0  0  0  0  0  0  0  0  0  0  0  0
    9.2154  -15.5688   23.9093 C   0  0  0  0  0  0  0  0  0  0  0  0
   10.3729  -15.0994   23.8103 O   0  0  0  0  0  0  0  0  0  0  0  0
    6.3972  -11.7603   26.1325 C   0  0  0  0  0  0  0  0  0  0  0  0
    7.4995  -12.6465   25.6465 C   0  0  0  0  0  0  0  0  0  0  0  0
    7.9964  -13.5703   26.7636 C   0  0  2  0  0  0  0  0  0  0  0  0
    8.6323  -12.7895   27.8734 C   0  0  0  0  0  0  0  0  0  0  0  0
    9.0335  -14.5323   26.2065 C   0  0  2  0  0  0  0  0  0  0  0  0
    8.4949  -15.3038   25.1069 N   0  0  0  0  0  0  0  0  0  0  0  0
    9.3879  -15.4603   27.3000 C   0  0  0  0  0  0  0  0  0  0  0  0
   10.4042  -15.1964   28.2026 O   0  0  0  0  0  0  0  0  0  0  0  0
    8.7525  -16.5328   27.4284 O   0  0  0  0  0  0  0  0  0  0  0  0
  2  1  1  1
  3  2  1  0
  4  2  1  0
  4  5  1  6
  6  4  1  0
  6  7  2  0
  8  9  1  0
  9 10  2  0
  9 11  1  0
 11 12  1  0
 13 12  1  1
 13 14  1  0
 14  6  1  0
 15 13  1  0
 16 15  2  0
 18 17  1  0
 19 18  1  0
 19 21  1  0
 19 20  1  1
 21 22  1  6
 21 23  1  0
 22 15  1  0
 23 24  1  0
 25 23  2  0
M  END
$$$$
