VQI.pdb
     RDKit          3D

 25 24  0  0  1  0  0  0  0  0999 V2000
    7.8097  -12.8057   18.4026 C   0  0  0  0  0  0  0  0  0  0  0  0
    7.6937  -13.5100   19.7226 C   0  0  2  0  0  0  0  0  0  0  0  0
    8.3778  -12.7023   20.8024 C   0  0  0  0  0  0  0  0  0  0  0  0
    8.2826  -14.9026   19.6911 C   0  0  2  0  0  0  0  0  0  0  0  0
    7.6017  -15.6863   18.6556 N   0  0  0  0  0  0  0  0  0  0  0  0
    8.1809  -15.5751   21.0073 C   0  0  0  0  0  0  0  0  0  0  0  0
    7.0484  -15.9366   21.4171 O   0  0  0  0  0  0  0  0  0  0  0  0
   12.0734  -20.0024   22.8045 N   0  0  0  0  0  0  0  0  0  0  0  0
   11.1805  -19.4668   21.8165 C   0  0  0  0  0  0  0  0  0  0  0  0
   11.5394  -19.6416   20.6209 O   0  0  0  0  0  0  0  0  0  0  0  0
    9.9362  -18.7660   22.2026 C   0  0  0  0  0  0  0  0  0  0  0  0
   10.1643  -17.6563   23.1665 C   0  0  0  0  0  0  0  0  0  0  0  0
    9.1975  -16.5002   23.0451 C   0  0  2  0  0  0  0  0  0  0  0  0
    9.3373  -15.8068   21.7898 N   0  0  0  0  0  0  0  0  0  0  0  0
    9.5511  -15.5611   24.1408 C   0  0  0  0  0  0  0  0  0  0  0  0
   10.5686  -14.8399   24.0201 O   0  0  0  0  0  0  0  0  0  0  0  0
    6.2561  -12.0831   26.0125 C   0  0  0  0  0  0  0  0  0  0  0  0
    7.4697  -12.8785   25.6503 C   0  0  0  0  0  0  0  0  0  0  0  0
    7.9746  -13.6891   26.8487 C   0  0  2  0  0  0  0  0  0  0  0  0
    8.4300  -12.7924   27.9597 C   0  0  0  0  0  0  0  0  0  0  0  0
    9.1525  -14.5504   26.4221 C   0  0  2  0  0  0  0  0  0  0  0  0
    8.7887  -15.4339   25.3350 N   0  0  0  0  0  0  0  0  0  0  0  0
    9.5257  -15.3746   27.5901 C   0  0  0  0  0  0  0  0  0  0  0  0
   10.4124  -14.9370   28.5593 O   0  0  0  0  0  0  0  0  0  0  0  0
    9.0282  -16.5171   27.7224 O   0  0  0  0  0  0  0  0  0  0  0  0
  2  1  1  6
  3  2  1  0
  4  2  1  0
  4  5  1  6
  6  4  1  0
  6  7  2  0
  8  9  1  0
  9 10  2  0
  9 11  1  0
 11 12  1  0
 13 12  1  6
 13 14  1  0
 14  6  1  0
 15 13  1  0
 16 15  2  0
 18 17  1  0
 19 18  1  0
 19 21  1  0
 19 20  1  1
 21 22  1  6
 21 23  1  0
 22 15  1  0
 23 24  1  0
 25 23  2  0
M  END
$$$$
