VQI.pdb
     RDKit          3D

 25 24  0  0  1  0  0  0  0  0999 V2000
    7.9645  -12.5559   17.7671 C   0  0  0  0  0  0  0  0  0  0  0  0
    7.7910  -13.2651   19.0781 C   0  0  2  0  0  0  0  0  0  0  0  0
    8.4678  -12.4849   20.1825 C   0  0  0  0  0  0  0  0  0  0  0  0
    8.3394  -14.6742   19.0529 C   0  0  2  0  0  0  0  0  0  0  0  0
    7.6281  -15.4458   18.0289 N   0  0  0  0  0  0  0  0  0  0  0  0
    8.2292  -15.3335   20.3750 C   0  0  0  0  0  0  0  0  0  0  0  0
    7.0943  -15.6928   20.7801 O   0  0  0  0  0  0  0  0  0  0  0  0
   12.2160  -19.4284   22.7794 N   0  0  0  0  0  0  0  0  0  0  0  0
   11.2765  -19.2287   23.8460 C   0  0  0  0  0  0  0  0  0  0  0  0
   11.4031  -20.0139   24.8239 O   0  0  0  0  0  0  0  0  0  0  0  0
   10.2456  -18.1700   23.7758 C   0  0  0  0  0  0  0  0  0  0  0  0
   10.3194  -17.3630   22.5285 C   0  0  0  0  0  0  0  0  0  0  0  0
    9.2459  -16.3073   22.3900 C   0  0  2  0  0  0  0  0  0  0  0  0
    9.3802  -15.5554   21.1683 N   0  0  0  0  0  0  0  0  0  0  0  0
    9.4409  -15.3803   23.5345 C   0  0  0  0  0  0  0  0  0  0  0  0
   10.3944  -14.5680   23.5045 O   0  0  0  0  0  0  0  0  0  0  0  0
    6.6215  -11.8279   27.5146 C   0  0  0  0  0  0  0  0  0  0  0  0
    7.7992  -12.7153   27.2654 C   0  0  0  0  0  0  0  0  0  0  0  0
    7.5632  -13.6145   26.0472 C   0  0  2  0  0  0  0  0  0  0  0  0
    6.3912  -14.5238   26.2605 C   0  0  0  0  0  0  0  0  0  0  0  0
    8.7922  -14.4753   25.8028 C   0  0  2  0  0  0  0  0  0  0  0  0
    8.5941  -15.3635   24.6774 N   0  0  0  0  0  0  0  0  0  0  0  0
    8.9897  -15.2943   27.0163 C   0  0  0  0  0  0  0  0  0  0  0  0
    9.6653  -14.8262   28.1306 O   0  0  0  0  0  0  0  0  0  0  0  0
    8.5335  -16.4610   27.0536 O   0  0  0  0  0  0  0  0  0  0  0  0
  2  1  1  6
  3  2  1  0
  4  2  1  0
  4  5  1  6
  6  4  1  0
  6  7  2  0
  8  9  1  0
  9 10  2  0
  9 11  1  0
 11 12  1  0
 13 12  1  6
 13 14  1  0
 14  6  1  0
 15 13  1  0
 16 15  2  0
 18 17  1  0
 19 18  1  0
 19 21  1  0
 19 20  1  1
 21 22  1  6
 21 23  1  0
 22 15  1  0
 23 24  1  0
 25 23  2  0
M  END
$$$$
