VQI.pdb
     RDKit          3D

 25 24  0  0  1  0  0  0  0  0999 V2000
    7.5945  -12.9309   19.9589 C   0  0  0  0  0  0  0  0  0  0  0  0
    8.4928  -14.0500   19.5203 C   0  0  2  0  0  0  0  0  0  0  0  0
    8.9708  -13.8067   18.1065 C   0  0  0  0  0  0  0  0  0  0  0  0
    7.8160  -15.4004   19.5937 C   0  0  2  0  0  0  0  0  0  0  0  0
    6.7648  -15.4644   18.5734 N   0  0  0  0  0  0  0  0  0  0  0  0
    7.2554  -15.6648   20.9393 C   0  0  0  0  0  0  0  0  0  0  0  0
    6.0926  -15.2638   21.2008 O   0  0  0  0  0  0  0  0  0  0  0  0
    6.3019  -20.8317   24.6354 N   0  0  0  0  0  0  0  0  0  0  0  0
    7.0894  -19.8240   25.2871 C   0  0  0  0  0  0  0  0  0  0  0  0
    7.8849  -20.2526   26.1659 O   0  0  0  0  0  0  0  0  0  0  0  0
    6.9563  -18.3940   24.9322 C   0  0  0  0  0  0  0  0  0  0  0  0
    7.5348  -18.0648   23.6020 C   0  0  0  0  0  0  0  0  0  0  0  0
    7.4216  -16.6111   23.2018 C   0  0  2  0  0  0  0  0  0  0  0  0
    8.0144  -16.3563   21.9136 N   0  0  0  0  0  0  0  0  0  0  0  0
    8.1820  -15.8496   24.2262 C   0  0  0  0  0  0  0  0  0  0  0  0
    9.4336  -15.8350   24.1694 O   0  0  0  0  0  0  0  0  0  0  0  0
    5.6177  -11.5711   26.4106 C   0  0  0  0  0  0  0  0  0  0  0  0
    6.6672  -12.4487   25.8064 C   0  0  0  0  0  0  0  0  0  0  0  0
    7.3742  -13.2815   26.8811 C   0  0  2  0  0  0  0  0  0  0  0  0
    8.2084  -12.4179   27.7779 C   0  0  0  0  0  0  0  0  0  0  0  0
    8.2890  -14.2989   26.2183 C   0  0  2  0  0  0  0  0  0  0  0  0
    7.5598  -15.1269   25.2817 N   0  0  0  0  0  0  0  0  0  0  0  0
    8.8186  -15.1630   27.2932 C   0  0  0  0  0  0  0  0  0  0  0  0
   10.0285  -14.9174   27.9199 O   0  0  0  0  0  0  0  0  0  0  0  0
    8.1578  -16.1615   27.6632 O   0  0  0  0  0  0  0  0  0  0  0  0
  2  1  1  6
  3  2  1  0
  4  2  1  0
  4  5  1  6
  6  4  1  0
  6  7  2  0
  8  9  1  0
  9 10  2  0
  9 11  1  0
 11 12  1  0
 13 12  1  1
 13 14  1  0
 14  6  1  0
 15 13  1  0
 16 15  2  0
 18 17  1  0
 19 18  1  0
 19 21  1  0
 19 20  1  1
 21 22  1  6
 21 23  1  0
 22 15  1  0
 23 24  1  0
 25 23  2  0
M  END
$$$$
