VQI.pdb
     RDKit          3D

 25 24  0  0  1  0  0  0  0  0999 V2000
    9.5046  -15.2794   18.3492 C   0  0  0  0  0  0  0  0  0  0  0  0
    8.2357  -14.5149   18.1101 C   0  0  2  0  0  0  0  0  0  0  0  0
    8.4534  -13.4729   17.0362 C   0  0  0  0  0  0  0  0  0  0  0  0
    7.7187  -13.8422   19.3620 C   0  0  2  0  0  0  0  0  0  0  0  0
    8.7320  -12.9031   19.8532 N   0  0  0  0  0  0  0  0  0  0  0  0
    7.3649  -14.8259   20.4117 C   0  0  0  0  0  0  0  0  0  0  0  0
    6.5291  -15.7258   20.1418 O   0  0  0  0  0  0  0  0  0  0  0  0
    5.6889  -18.9297   21.7280 N   0  0  0  0  0  0  0  0  0  0  0  0
    6.2388  -18.7615   23.0431 C   0  0  0  0  0  0  0  0  0  0  0  0
    5.4884  -19.1281   23.9872 O   0  0  0  0  0  0  0  0  0  0  0  0
    7.5911  -18.1968   23.2456 C   0  0  0  0  0  0  0  0  0  0  0  0
    7.9371  -17.1383   22.2596 C   0  0  0  0  0  0  0  0  0  0  0  0
    7.5828  -15.7317   22.6864 C   0  0  2  0  0  0  0  0  0  0  0  0
    7.9567  -14.7548   21.6955 N   0  0  0  0  0  0  0  0  0  0  0  0
    8.3703  -15.4733   23.9195 C   0  0  0  0  0  0  0  0  0  0  0  0
    9.6195  -15.5588   23.8733 O   0  0  0  0  0  0  0  0  0  0  0  0
    5.7856  -11.8170   26.7541 C   0  0  0  0  0  0  0  0  0  0  0  0
    6.9281  -12.5147   26.0873 C   0  0  0  0  0  0  0  0  0  0  0  0
    7.5642  -13.5478   27.0234 C   0  0  2  0  0  0  0  0  0  0  0  0
    8.3699  -12.8847   28.0991 C   0  0  0  0  0  0  0  0  0  0  0  0
    8.4904  -14.4543   26.2286 C   0  0  2  0  0  0  0  0  0  0  0  0
    7.7769  -15.1297   25.1658 N   0  0  0  0  0  0  0  0  0  0  0  0
    9.0036  -15.4722   27.1683 C   0  0  0  0  0  0  0  0  0  0  0  0
   10.1127  -15.2570   27.9687 O   0  0  0  0  0  0  0  0  0  0  0  0
    8.4225  -16.5792   27.2555 O   0  0  0  0  0  0  0  0  0  0  0  0
  2  1  1  1
  3  2  1  0
  4  2  1  0
  4  5  1  1
  6  4  1  0
  6  7  2  0
  8  9  1  0
  9 10  2  0
  9 11  1  0
 11 12  1  0
 13 12  1  6
 13 14  1  0
 14  6  1  0
 15 13  1  0
 16 15  2  0
 18 17  1  0
 19 18  1  0
 19 21  1  0
 19 20  1  1
 21 22  1  6
 21 23  1  0
 22 15  1  0
 23 24  1  0
 25 23  2  0
M  END
$$$$
