VQI.pdb
     RDKit          3D

 25 24  0  0  1  0  0  0  0  0999 V2000
    8.6008  -12.7017   17.4323 C   0  0  0  0  0  0  0  0  0  0  0  0
    8.0280  -13.4822   18.5788 C   0  0  2  0  0  0  0  0  0  0  0  0
    8.1918  -12.7066   19.8664 C   0  0  0  0  0  0  0  0  0  0  0  0
    8.6675  -14.8442   18.7308 C   0  0  2  0  0  0  0  0  0  0  0  0
    8.3320  -15.6631   17.5616 N   0  0  0  0  0  0  0  0  0  0  0  0
    8.2426  -15.5176   19.9801 C   0  0  0  0  0  0  0  0  0  0  0  0
    7.2053  -16.2282   19.9628 O   0  0  0  0  0  0  0  0  0  0  0  0
   10.6038  -19.8706   22.8355 N   0  0  0  0  0  0  0  0  0  0  0  0
   11.3561  -18.7184   22.4272 C   0  0  0  0  0  0  0  0  0  0  0  0
   12.5657  -18.9403   22.1504 O   0  0  0  0  0  0  0  0  0  0  0  0
   10.7309  -17.3801   22.3457 C   0  0  0  0  0  0  0  0  0  0  0  0
    9.2504  -17.4162   22.4843 C   0  0  0  0  0  0  0  0  0  0  0  0
    8.5667  -16.0741   22.3523 C   0  0  2  0  0  0  0  0  0  0  0  0
    8.9903  -15.3643   21.1721 N   0  0  0  0  0  0  0  0  0  0  0  0
    8.9816  -15.2904   23.5444 C   0  0  0  0  0  0  0  0  0  0  0  0
   10.1098  -14.7453   23.5523 O   0  0  0  0  0  0  0  0  0  0  0  0
    6.5889  -11.3621   27.4899 C   0  0  0  0  0  0  0  0  0  0  0  0
    7.6728  -12.3616   27.2390 C   0  0  0  0  0  0  0  0  0  0  0  0
    7.3033  -13.2958   26.0819 C   0  0  2  0  0  0  0  0  0  0  0  0
    6.1200  -14.1482   26.4269 C   0  0  0  0  0  0  0  0  0  0  0  0
    8.4750  -14.2143   25.7738 C   0  0  2  0  0  0  0  0  0  0  0  0
    8.1583  -15.1224   24.6922 N   0  0  0  0  0  0  0  0  0  0  0  0
    8.7283  -15.0091   26.9931 C   0  0  0  0  0  0  0  0  0  0  0  0
    9.4329  -14.5105   28.0757 O   0  0  0  0  0  0  0  0  0  0  0  0
    8.2945  -16.1826   27.0651 O   0  0  0  0  0  0  0  0  0  0  0  0
  2  1  1  6
  3  2  1  0
  4  2  1  0
  4  5  1  6
  6  4  1  0
  6  7  2  0
  8  9  1  0
  9 10  2  0
  9 11  1  0
 11 12  1  0
 13 12  1  1
 13 14  1  0
 14  6  1  0
 15 13  1  0
 16 15  2  0
 18 17  1  0
 19 18  1  0
 19 21  1  0
 19 20  1  1
 21 22  1  6
 21 23  1  0
 22 15  1  0
 23 24  1  0
 25 23  2  0
M  END
$$$$
