VQI.pdb
     RDKit          3D

 25 24  0  0  1  0  0  0  0  0999 V2000
    8.4861  -13.7028   17.7934 C   0  0  0  0  0  0  0  0  0  0  0  0
    7.6707  -14.0794   18.9955 C   0  0  2  0  0  0  0  0  0  0  0  0
    7.9567  -13.1267   20.1344 C   0  0  0  0  0  0  0  0  0  0  0  0
    7.9310  -15.4973   19.4524 C   0  0  2  0  0  0  0  0  0  0  0  0
    7.4676  -16.4260   18.4167 N   0  0  0  0  0  0  0  0  0  0  0  0
    7.2747  -15.7894   20.7481 C   0  0  0  0  0  0  0  0  0  0  0  0
    6.1590  -16.3694   20.7450 O   0  0  0  0  0  0  0  0  0  0  0  0
    7.7807  -20.1627   23.7487 N   0  0  0  0  0  0  0  0  0  0  0  0
    7.0531  -19.4087   24.7297 C   0  0  0  0  0  0  0  0  0  0  0  0
    6.5384  -20.0921   25.6554 O   0  0  0  0  0  0  0  0  0  0  0  0
    6.9332  -17.9372   24.6360 C   0  0  0  0  0  0  0  0  0  0  0  0
    7.3735  -17.3964   23.3222 C   0  0  0  0  0  0  0  0  0  0  0  0
    7.3174  -15.8901   23.2037 C   0  0  2  0  0  0  0  0  0  0  0  0
    7.8918  -15.4224   21.9679 N   0  0  0  0  0  0  0  0  0  0  0  0
    8.1347  -15.3658   24.3282 C   0  0  0  0  0  0  0  0  0  0  0  0
    9.3362  -15.7092   24.4196 O   0  0  0  0  0  0  0  0  0  0  0  0
    5.8030  -11.2354   27.3692 C   0  0  0  0  0  0  0  0  0  0  0  0
    6.4132  -12.5559   27.0220 C   0  0  0  0  0  0  0  0  0  0  0  0
    7.8655  -12.3876   26.5626 C   0  0  2  0  0  0  0  0  0  0  0  0
    7.9519  -11.5396   25.3300 C   0  0  0  0  0  0  0  0  0  0  0  0
    8.4605  -13.7497   26.2432 C   0  0  2  0  0  0  0  0  0  0  0  0
    7.6221  -14.4839   25.3197 N   0  0  0  0  0  0  0  0  0  0  0  0
    8.5233  -14.4986   27.5151 C   0  0  0  0  0  0  0  0  0  0  0  0
    7.7929  -15.6536   27.7377 O   0  0  0  0  0  0  0  0  0  0  0  0
    9.2625  -14.0843   28.4384 O   0  0  0  0  0  0  0  0  0  0  0  0
  2  1  1  6
  3  2  1  0
  4  2  1  0
  4  5  1  6
  6  4  1  0
  6  7  2  0
  8  9  1  0
  9 10  2  0
  9 11  1  0
 11 12  1  0
 13 12  1  6
 13 14  1  0
 14  6  1  0
 15 13  1  0
 16 15  2  0
 18 17  1  0
 19 18  1  0
 19 21  1  0
 19 20  1  6
 21 22  1  6
 21 23  1  0
 22 15  1  0
 23 24  1  0
 25 23  2  0
M  END
$$$$
