VQI.pdb
     RDKit          3D

 25 24  0  0  1  0  0  0  0  0999 V2000
    7.3889  -12.6806   19.8413 C   0  0  0  0  0  0  0  0  0  0  0  0
    8.7332  -13.2391   19.4771 C   0  0  2  0  0  0  0  0  0  0  0  0
    9.2169  -12.6229   18.1838 C   0  0  0  0  0  0  0  0  0  0  0  0
    8.7179  -14.7450   19.3384 C   0  0  2  0  0  0  0  0  0  0  0  0
    7.8045  -15.1157   18.2529 N   0  0  0  0  0  0  0  0  0  0  0  0
    8.3265  -15.4121   20.6019 C   0  0  0  0  0  0  0  0  0  0  0  0
    7.1207  -15.7246   20.7739 O   0  0  0  0  0  0  0  0  0  0  0  0
    9.0107  -21.1337   22.7039 N   0  0  0  0  0  0  0  0  0  0  0  0
    9.7869  -20.0513   22.1690 C   0  0  0  0  0  0  0  0  0  0  0  0
   10.9945  -20.3251   21.9332 O   0  0  0  0  0  0  0  0  0  0  0  0
    9.1867  -18.7220   21.9221 C   0  0  0  0  0  0  0  0  0  0  0  0
    9.5477  -17.7155   22.9561 C   0  0  0  0  0  0  0  0  0  0  0  0
    8.8729  -16.3717   22.7980 C   0  0  2  0  0  0  0  0  0  0  0  0
    9.2920  -15.6931   21.5980 N   0  0  0  0  0  0  0  0  0  0  0  0
    9.3033  -15.5633   23.9679 C   0  0  0  0  0  0  0  0  0  0  0  0
   10.4682  -15.1024   23.9942 O   0  0  0  0  0  0  0  0  0  0  0  0
    5.9783  -12.0322   26.2334 C   0  0  0  0  0  0  0  0  0  0  0  0
    7.1625  -12.7906   25.7241 C   0  0  0  0  0  0  0  0  0  0  0  0
    7.7373  -13.7074   26.8091 C   0  0  2  0  0  0  0  0  0  0  0  0
    8.2652  -12.9161   27.9672 C   0  0  0  0  0  0  0  0  0  0  0  0
    8.8824  -14.5244   26.2325 C   0  0  2  0  0  0  0  0  0  0  0  0
    8.4553  -15.2800   25.0743 N   0  0  0  0  0  0  0  0  0  0  0  0
    9.3018  -15.4749   27.2828 C   0  0  0  0  0  0  0  0  0  0  0  0
   10.2882  -15.1772   28.2078 O   0  0  0  0  0  0  0  0  0  0  0  0
    8.7522  -16.5990   27.3519 O   0  0  0  0  0  0  0  0  0  0  0  0
  2  1  1  6
  3  2  1  0
  4  2  1  0
  4  5  1  6
  6  4  1  0
  6  7  2  0
  8  9  1  0
  9 10  2  0
  9 11  1  0
 11 12  1  0
 13 12  1  1
 13 14  1  0
 14  6  1  0
 15 13  1  0
 16 15  2  0
 18 17  1  0
 19 18  1  0
 19 21  1  0
 19 20  1  1
 21 22  1  6
 21 23  1  0
 22 15  1  0
 23 24  1  0
 25 23  2  0
M  END
$$$$
