TGN.pdb
     RDKit          3D

 20 19  0  0  1  0  0  0  0  0999 V2000
    9.1902  -14.3802   17.6843 C   0  0  0  0  0  0  0  0  0  0  0  0
    8.9323  -14.6672   19.1282 C   0  0  1  0  0  0  0  0  0  0  0  0
   10.0424  -14.4473   19.9340 O   0  0  0  0  0  0  0  0  0  0  0  0
    7.7123  -13.9569   19.6716 C   0  0  2  0  0  0  0  0  0  0  0  0
    7.7841  -12.5571   19.3870 N   0  0  0  0  0  0  0  0  0  0  0  0
    7.4455  -14.2755   21.0761 C   0  0  0  0  0  0  0  0  0  0  0  0
    7.7391  -13.4145   21.9454 O   0  0  0  0  0  0  0  0  0  0  0  0
    6.8751  -15.4910   21.5477 N   0  0  0  0  0  0  0  0  0  0  0  0
    6.6300  -15.7668   22.9359 C   0  0  0  0  0  0  0  0  0  0  0  0
    7.8573  -15.7342   23.7553 C   0  0  0  0  0  0  0  0  0  0  0  0
    8.9807  -15.8678   23.2360 O   0  0  0  0  0  0  0  0  0  0  0  0
    7.4406  -12.5735   27.7067 N   0  0  0  0  0  0  0  0  0  0  0  0
    8.5433  -13.3892   27.2598 C   0  0  0  0  0  0  0  0  0  0  0  0
    9.5704  -12.8129   26.8343 O   0  0  0  0  0  0  0  0  0  0  0  0
    8.3907  -14.8465   27.3328 C   0  0  0  0  0  0  0  0  0  0  0  0
    8.8638  -15.4989   26.0511 C   0  0  2  0  0  0  0  0  0  0  0  0
    7.7375  -15.5475   25.1502 N   0  0  0  0  0  0  0  0  0  0  0  0
    9.2633  -16.8847   26.3999 C   0  0  0  0  0  0  0  0  0  0  0  0
    8.5505  -17.9571   25.8909 O   0  0  0  0  0  0  0  0  0  0  0  0
   10.2465  -17.1233   27.1569 O   0  0  0  0  0  0  0  0  0  0  0  0
  2  1  1  6
  2  4  1  0
  3  2  1  0
  4  5  1  1
  6  8  1  0
  6  4  1  0
  7  6  2  0
  9 10  1  0
  9  8  1  0
 10 17  1  0
 11 10  2  0
 13 12  1  0
 14 13  2  0
 16 15  1  1
 15 13  1  0
 16 18  1  0
 17 16  1  0
 18 20  2  0
 18 19  1  0
M  END
$$$$
