TGN.pdb
     RDKit          3D

 20 19  0  0  1  0  0  0  0  0999 V2000
    7.4486  -12.3535   19.6600 C   0  0  0  0  0  0  0  0  0  0  0  0
    7.7194  -13.7126   19.1002 C   0  0  1  0  0  0  0  0  0  0  0  0
    8.0845  -13.6867   17.7599 O   0  0  0  0  0  0  0  0  0  0  0  0
    8.7066  -14.5128   19.9208 C   0  0  2  0  0  0  0  0  0  0  0  0
    8.9516  -15.7807   19.3062 N   0  0  0  0  0  0  0  0  0  0  0  0
    8.3418  -14.5877   21.3373 C   0  0  0  0  0  0  0  0  0  0  0  0
    8.3961  -13.5323   22.0201 O   0  0  0  0  0  0  0  0  0  0  0  0
    7.9259  -15.7674   22.0162 N   0  0  0  0  0  0  0  0  0  0  0  0
    7.6641  -15.8205   23.4276 C   0  0  0  0  0  0  0  0  0  0  0  0
    8.8914  -15.7474   24.2444 C   0  0  0  0  0  0  0  0  0  0  0  0
   10.0101  -15.6182   23.7138 O   0  0  0  0  0  0  0  0  0  0  0  0
   10.2040  -13.8648   29.8650 N   0  0  0  0  0  0  0  0  0  0  0  0
   10.5361  -14.4447   28.5867 C   0  0  0  0  0  0  0  0  0  0  0  0
   11.7399  -14.6891   28.3433 O   0  0  0  0  0  0  0  0  0  0  0  0
    9.4389  -14.7123   27.6503 C   0  0  0  0  0  0  0  0  0  0  0  0
    9.8885  -15.6554   26.5545 C   0  0  2  0  0  0  0  0  0  0  0  0
    8.7772  -15.8270   25.6500 N   0  0  0  0  0  0  0  0  0  0  0  0
   10.1862  -16.9550   27.2056 C   0  0  0  0  0  0  0  0  0  0  0  0
   11.4534  -17.2016   27.7065 O   0  0  0  0  0  0  0  0  0  0  0  0
    9.3100  -17.8582   27.3202 O   0  0  0  0  0  0  0  0  0  0  0  0
  2  1  1  1
  2  4  1  0
  3  2  1  0
  4  5  1  6
  6  8  1  0
  6  4  1  0
  7  6  2  0
  9 10  1  0
  9  8  1  0
 10 17  1  0
 11 10  2  0
 13 12  1  0
 14 13  2  0
 16 15  1  1
 15 13  1  0
 16 18  1  0
 17 16  1  0
 18 20  2  0
 18 19  1  0
M  END
$$$$
