TGN.pdb
     RDKit          3D

 20 19  0  0  1  0  0  0  0  0999 V2000
    9.3848  -12.5809   17.2845 C   0  0  0  0  0  0  0  0  0  0  0  0
    8.6722  -13.6072   18.1047 C   0  0  1  0  0  0  0  0  0  0  0  0
    9.3711  -14.8034   18.2078 O   0  0  0  0  0  0  0  0  0  0  0  0
    8.2523  -13.0997   19.4665 C   0  0  2  0  0  0  0  0  0  0  0  0
    9.3936  -12.6562   20.2055 N   0  0  0  0  0  0  0  0  0  0  0  0
    7.3947  -14.0433   20.1870 C   0  0  0  0  0  0  0  0  0  0  0  0
    6.2463  -14.2715   19.7264 O   0  0  0  0  0  0  0  0  0  0  0  0
    7.7538  -14.7332   21.3789 N   0  0  0  0  0  0  0  0  0  0  0  0
    6.8523  -15.5819   22.1072 C   0  0  0  0  0  0  0  0  0  0  0  0
    7.4966  -16.2635   23.2470 C   0  0  0  0  0  0  0  0  0  0  0  0
    6.8505  -17.0268   23.9883 O   0  0  0  0  0  0  0  0  0  0  0  0
   11.4855  -18.2872   22.7937 N   0  0  0  0  0  0  0  0  0  0  0  0
   11.4972  -16.8612   23.0107 C   0  0  0  0  0  0  0  0  0  0  0  0
   11.8649  -16.1229   22.0685 O   0  0  0  0  0  0  0  0  0  0  0  0
   11.0762  -16.3652   24.3256 C   0  0  0  0  0  0  0  0  0  0  0  0
    9.6085  -16.6529   24.5612 C   0  0  2  0  0  0  0  0  0  0  0  0
    8.8696  -16.0349   23.4866 N   0  0  0  0  0  0  0  0  0  0  0  0
    9.2441  -15.9933   25.8394 C   0  0  0  0  0  0  0  0  0  0  0  0
    9.5725  -16.5930   27.0435 O   0  0  0  0  0  0  0  0  0  0  0  0
    8.6351  -14.8865   25.8672 O   0  0  0  0  0  0  0  0  0  0  0  0
  2  1  1  1
  2  4  1  0
  3  2  1  0
  4  5  1  1
  6  8  1  0
  6  4  1  0
  7  6  2  0
  9 10  1  0
  9  8  1  0
 10 17  1  0
 11 10  2  0
 13 12  1  0
 14 13  2  0
 16 15  1  6
 15 13  1  0
 16 18  1  0
 17 16  1  0
 18 20  2  0
 18 19  1  0
M  END
$$$$
