TGN.pdb
     RDKit          3D

 20 19  0  0  1  0  0  0  0  0999 V2000
    7.6986  -12.3960   18.9393 C   0  0  0  0  0  0  0  0  0  0  0  0
    7.6292  -13.8593   18.6426 C   0  0  1  0  0  0  0  0  0  0  0  0
    7.9581  -14.1646   17.3278 O   0  0  0  0  0  0  0  0  0  0  0  0
    8.4200  -14.7059   19.6152 C   0  0  2  0  0  0  0  0  0  0  0  0
    8.2305  -16.0952   19.3332 N   0  0  0  0  0  0  0  0  0  0  0  0
    8.1879  -14.3355   21.0131 C   0  0  0  0  0  0  0  0  0  0  0  0
    8.7687  -13.3125   21.4595 O   0  0  0  0  0  0  0  0  0  0  0  0
    7.3510  -15.0426   21.9213 N   0  0  0  0  0  0  0  0  0  0  0  0
    7.1824  -14.6716   23.2987 C   0  0  0  0  0  0  0  0  0  0  0  0
    8.3535  -15.0054   24.1329 C   0  0  0  0  0  0  0  0  0  0  0  0
    8.3406  -14.8182   25.3635 O   0  0  0  0  0  0  0  0  0  0  0  0
   11.8567  -19.4883   24.5659 N   0  0  0  0  0  0  0  0  0  0  0  0
   11.2205  -18.3500   25.1827 C   0  0  0  0  0  0  0  0  0  0  0  0
   11.5764  -18.0289   26.3395 O   0  0  0  0  0  0  0  0  0  0  0  0
   10.1939  -17.6389   24.4130 C   0  0  0  0  0  0  0  0  0  0  0  0
   10.5756  -16.1856   24.2266 C   0  0  2  0  0  0  0  0  0  0  0  0
    9.4998  -15.5455   23.5088 N   0  0  0  0  0  0  0  0  0  0  0  0
   11.7958  -16.1697   23.3827 C   0  0  0  0  0  0  0  0  0  0  0  0
   11.6810  -16.0950   22.0048 O   0  0  0  0  0  0  0  0  0  0  0  0
   12.9537  -16.2229   23.8858 O   0  0  0  0  0  0  0  0  0  0  0  0
  2  1  1  1
  2  4  1  0
  3  2  1  0
  4  5  1  1
  6  8  1  0
  6  4  1  0
  7  6  2  0
  9 10  1  0
  9  8  1  0
 10 17  1  0
 11 10  2  0
 13 12  1  0
 14 13  2  0
 16 15  1  6
 15 13  1  0
 16 18  1  0
 17 16  1  0
 18 20  2  0
 18 19  1  0
M  END
$$$$
