TGN.pdb
     RDKit          3D

 20 19  0  0  1  0  0  0  0  0999 V2000
    6.9667  -12.2013   18.9922 C   0  0  0  0  0  0  0  0  0  0  0  0
    7.7850  -13.4367   19.1875 C   0  0  1  0  0  0  0  0  0  0  0  0
    7.5898  -14.3827   18.1889 O   0  0  0  0  0  0  0  0  0  0  0  0
    9.2567  -13.1543   19.3936 C   0  0  2  0  0  0  0  0  0  0  0  0
    9.8200  -12.5680   18.2170 N   0  0  0  0  0  0  0  0  0  0  0  0
    9.9934  -14.3125   19.9042 C   0  0  0  0  0  0  0  0  0  0  0  0
    9.6195  -14.8199   20.9932 O   0  0  0  0  0  0  0  0  0  0  0  0
   11.1104  -14.9211   19.2659 N   0  0  0  0  0  0  0  0  0  0  0  0
   11.8162  -16.0493   19.8066 C   0  0  0  0  0  0  0  0  0  0  0  0
   12.6189  -15.7098   20.9979 C   0  0  0  0  0  0  0  0  0  0  0  0
   13.3788  -14.7238   21.0015 O   0  0  0  0  0  0  0  0  0  0  0  0
   11.4591  -16.8328   26.4683 N   0  0  0  0  0  0  0  0  0  0  0  0
   11.5627  -16.7286   25.0333 C   0  0  0  0  0  0  0  0  0  0  0  0
   10.6299  -16.1697   24.4123 O   0  0  0  0  0  0  0  0  0  0  0  0
   12.7582  -17.2857   24.3908 C   0  0  0  0  0  0  0  0  0  0  0  0
   13.2941  -16.3349   23.3415 C   0  0  2  0  0  0  0  0  0  0  0  0
   12.5112  -16.5274   22.1446 N   0  0  0  0  0  0  0  0  0  0  0  0
   14.6954  -16.7419   23.0726 C   0  0  0  0  0  0  0  0  0  0  0  0
   15.7171  -16.2748   23.8821 O   0  0  0  0  0  0  0  0  0  0  0  0
   14.9928  -17.5117   22.1157 O   0  0  0  0  0  0  0  0  0  0  0  0
  2  1  1  6
  2  4  1  0
  3  2  1  0
  4  5  1  6
  6  8  1  0
  6  4  1  0
  7  6  2  0
  9 10  1  0
  9  8  1  0
 10 17  1  0
 11 10  2  0
 13 12  1  0
 14 13  2  0
 16 15  1  1
 15 13  1  0
 16 18  1  0
 17 16  1  0
 18 20  2  0
 18 19  1  0
M  END
$$$$
