TGN.pdb
     RDKit          3D

 20 19  0  0  1  0  0  0  0  0999 V2000
    7.9146  -15.4259   16.0666 C   0  0  0  0  0  0  0  0  0  0  0  0
    8.1602  -15.2252   17.5271 C   0  0  1  0  0  0  0  0  0  0  0  0
    9.4970  -15.3648   17.8789 O   0  0  0  0  0  0  0  0  0  0  0  0
    7.5868  -13.9303   18.0588 C   0  0  2  0  0  0  0  0  0  0  0  0
    8.0353  -12.8263   17.2679 N   0  0  0  0  0  0  0  0  0  0  0  0
    7.7919  -13.7650   19.4995 C   0  0  0  0  0  0  0  0  0  0  0  0
    8.6998  -12.9828   19.8831 O   0  0  0  0  0  0  0  0  0  0  0  0
    7.0426  -14.4217   20.5157 N   0  0  0  0  0  0  0  0  0  0  0  0
    7.3082  -14.2728   21.9195 C   0  0  0  0  0  0  0  0  0  0  0  0
    8.7053  -14.5865   22.2780 C   0  0  0  0  0  0  0  0  0  0  0  0
    9.6534  -14.1946   21.5731 O   0  0  0  0  0  0  0  0  0  0  0  0
    7.7444  -16.1734   24.6397 N   0  0  0  0  0  0  0  0  0  0  0  0
    8.7069  -16.3422   25.7008 C   0  0  0  0  0  0  0  0  0  0  0  0
    8.2931  -16.7266   26.8184 O   0  0  0  0  0  0  0  0  0  0  0  0
   10.1135  -16.0519   25.4020 C   0  0  0  0  0  0  0  0  0  0  0  0
   10.2737  -15.6034   23.9648 C   0  0  2  0  0  0  0  0  0  0  0  0
    8.9531  -15.3450   23.4435 N   0  0  0  0  0  0  0  0  0  0  0  0
   10.8699  -16.7436   23.2258 C   0  0  0  0  0  0  0  0  0  0  0  0
   10.1152  -17.4291   22.2889 O   0  0  0  0  0  0  0  0  0  0  0  0
   12.0608  -17.1163   23.4253 O   0  0  0  0  0  0  0  0  0  0  0  0
  2  1  1  6
  2  4  1  0
  3  2  1  0
  4  5  1  6
  6  8  1  0
  6  4  1  0
  7  6  2  0
  9 10  1  0
  9  8  1  0
 10 17  1  0
 11 10  2  0
 13 12  1  0
 14 13  2  0
 16 15  1  1
 15 13  1  0
 16 18  1  0
 17 16  1  0
 18 20  2  0
 18 19  1  0
M  END
$$$$
