TGN.pdb
     RDKit          3D

 20 19  0  0  1  0  0  0  0  0999 V2000
    8.3506  -15.1920   18.0834 C   0  0  0  0  0  0  0  0  0  0  0  0
    8.5125  -15.0595   19.5632 C   0  0  1  0  0  0  0  0  0  0  0  0
    9.8419  -15.0029   19.9628 O   0  0  0  0  0  0  0  0  0  0  0  0
    7.7147  -13.9178   20.1533 C   0  0  2  0  0  0  0  0  0  0  0  0
    8.0043  -12.6995   19.4624 N   0  0  0  0  0  0  0  0  0  0  0  0
    7.8365  -13.8303   21.6103 C   0  0  0  0  0  0  0  0  0  0  0  0
    8.6391  -12.9875   22.0885 O   0  0  0  0  0  0  0  0  0  0  0  0
    7.1155  -14.6271   22.5433 N   0  0  0  0  0  0  0  0  0  0  0  0
    7.2355  -14.4855   23.9678 C   0  0  0  0  0  0  0  0  0  0  0  0
    8.6008  -14.7537   24.4605 C   0  0  0  0  0  0  0  0  0  0  0  0
    9.5076  -13.9105   24.3326 O   0  0  0  0  0  0  0  0  0  0  0  0
   11.2226  -14.3119   27.5003 N   0  0  0  0  0  0  0  0  0  0  0  0
    9.8778  -14.4453   28.0047 C   0  0  0  0  0  0  0  0  0  0  0  0
    9.5123  -13.6772   28.9236 O   0  0  0  0  0  0  0  0  0  0  0  0
    9.0213  -15.4754   27.4069 C   0  0  0  0  0  0  0  0  0  0  0  0
    9.7193  -16.1405   26.2395 C   0  0  2  0  0  0  0  0  0  0  0  0
    8.8660  -15.9924   25.0852 N   0  0  0  0  0  0  0  0  0  0  0  0
    9.8325  -17.5815   26.5746 C   0  0  0  0  0  0  0  0  0  0  0  0
   11.0630  -18.1155   26.9180 O   0  0  0  0  0  0  0  0  0  0  0  0
    8.8293  -18.3496   26.5569 O   0  0  0  0  0  0  0  0  0  0  0  0
  2  1  1  6
  2  4  1  0
  3  2  1  0
  4  5  1  6
  6  8  1  0
  6  4  1  0
  7  6  2  0
  9 10  1  0
  9  8  1  0
 10 17  1  0
 11 10  2  0
 13 12  1  0
 14 13  2  0
 16 15  1  1
 15 13  1  0
 16 18  1  0
 17 16  1  0
 18 20  2  0
 18 19  1  0
M  END
$$$$
