TGN.pdb
     RDKit          3D

 20 19  0  0  1  0  0  0  0  0999 V2000
    6.9912  -12.3990   19.1111 C   0  0  0  0  0  0  0  0  0  0  0  0
    7.5890  -13.7473   18.8689 C   0  0  1  0  0  0  0  0  0  0  0  0
    7.7574  -14.0341   17.5200 O   0  0  0  0  0  0  0  0  0  0  0  0
    8.8674  -13.9835   19.6423 C   0  0  2  0  0  0  0  0  0  0  0  0
    9.8599  -13.0245   19.2672 N   0  0  0  0  0  0  0  0  0  0  0  0
    9.3194  -15.3755   19.5851 C   0  0  0  0  0  0  0  0  0  0  0  0
    8.6156  -16.2511   20.1518 O   0  0  0  0  0  0  0  0  0  0  0  0
   10.5018  -15.8282   18.9352 N   0  0  0  0  0  0  0  0  0  0  0  0
   10.9668  -17.1863   18.9889 C   0  0  0  0  0  0  0  0  0  0  0  0
   12.1411  -17.3589   19.8663 C   0  0  0  0  0  0  0  0  0  0  0  0
   12.6842  -18.4707   20.0022 O   0  0  0  0  0  0  0  0  0  0  0  0
   14.3711  -13.9084   19.0483 N   0  0  0  0  0  0  0  0  0  0  0  0
   15.0641  -14.7847   19.9609 C   0  0  0  0  0  0  0  0  0  0  0  0
   16.1022  -15.3569   19.5573 O   0  0  0  0  0  0  0  0  0  0  0  0
   14.5068  -14.9500   21.3078 C   0  0  0  0  0  0  0  0  0  0  0  0
   13.7908  -16.2783   21.4315 C   0  0  2  0  0  0  0  0  0  0  0  0
   12.6445  -16.2338   20.5560 N   0  0  0  0  0  0  0  0  0  0  0  0
   13.3224  -16.3815   22.8356 C   0  0  0  0  0  0  0  0  0  0  0  0
   14.2429  -16.5002   23.8632 O   0  0  0  0  0  0  0  0  0  0  0  0
   12.0937  -16.3647   23.1302 O   0  0  0  0  0  0  0  0  0  0  0  0
  2  1  1  6
  2  4  1  0
  3  2  1  0
  4  5  1  6
  6  8  1  0
  6  4  1  0
  7  6  2  0
  9 10  1  0
  9  8  1  0
 10 17  1  0
 11 10  2  0
 13 12  1  0
 14 13  2  0
 16 15  1  1
 15 13  1  0
 16 18  1  0
 17 16  1  0
 18 20  2  0
 18 19  1  0
M  END
$$$$
