TGN.pdb
     RDKit          3D

 20 19  0  0  1  0  0  0  0  0999 V2000
    4.8779  -19.5002   18.8770 C   0  0  0  0  0  0  0  0  0  0  0  0
    5.0186  -19.3693   20.3592 C   0  0  1  0  0  0  0  0  0  0  0  0
    4.9977  -20.5921   21.0184 O   0  0  0  0  0  0  0  0  0  0  0  0
    6.2148  -18.5429   20.7768 C   0  0  2  0  0  0  0  0  0  0  0  0
    7.4276  -19.2487   20.5003 N   0  0  0  0  0  0  0  0  0  0  0  0
    6.1082  -18.0376   22.1473 C   0  0  0  0  0  0  0  0  0  0  0  0
    5.1981  -17.2075   22.4040 O   0  0  0  0  0  0  0  0  0  0  0  0
    6.9567  -18.4099   23.2275 N   0  0  0  0  0  0  0  0  0  0  0  0
    6.8612  -17.8428   24.5439 C   0  0  0  0  0  0  0  0  0  0  0  0
    8.0937  -17.1465   24.9620 C   0  0  0  0  0  0  0  0  0  0  0  0
    9.0961  -17.1150   24.2245 O   0  0  0  0  0  0  0  0  0  0  0  0
   10.8333  -13.7601   27.4826 N   0  0  0  0  0  0  0  0  0  0  0  0
    9.7603  -14.0643   28.3973 C   0  0  0  0  0  0  0  0  0  0  0  0
    9.6599  -13.3780   29.4399 O   0  0  0  0  0  0  0  0  0  0  0  0
    8.8520  -15.1618   28.0467 C   0  0  0  0  0  0  0  0  0  0  0  0
    9.2663  -15.8021   26.7388 C   0  0  2  0  0  0  0  0  0  0  0  0
    8.1197  -16.5105   26.2229 N   0  0  0  0  0  0  0  0  0  0  0  0
   10.3334  -16.7811   27.0621 C   0  0  0  0  0  0  0  0  0  0  0  0
   11.6589  -16.3807   27.0665 O   0  0  0  0  0  0  0  0  0  0  0  0
   10.0700  -17.9859   27.3375 O   0  0  0  0  0  0  0  0  0  0  0  0
  2  1  1  6
  2  4  1  0
  3  2  1  0
  4  5  1  1
  6  8  1  0
  6  4  1  0
  7  6  2  0
  9 10  1  0
  9  8  1  0
 10 17  1  0
 11 10  2  0
 13 12  1  0
 14 13  2  0
 16 15  1  1
 15 13  1  0
 16 18  1  0
 17 16  1  0
 18 20  2  0
 18 19  1  0
M  END
$$$$
