TGN.pdb
     RDKit          3D

 20 19  0  0  1  0  0  0  0  0999 V2000
    7.6487  -18.8613   15.5403 C   0  0  0  0  0  0  0  0  0  0  0  0
    8.2418  -17.7997   16.4092 C   0  0  1  0  0  0  0  0  0  0  0  0
    7.5370  -16.6033   16.3654 O   0  0  0  0  0  0  0  0  0  0  0  0
    8.4677  -18.2499   17.8355 C   0  0  2  0  0  0  0  0  0  0  0  0
    7.2319  -18.6547   18.4308 N   0  0  0  0  0  0  0  0  0  0  0  0
    9.2304  -17.2805   18.6253 C   0  0  0  0  0  0  0  0  0  0  0  0
   10.4252  -17.0590   18.2990 O   0  0  0  0  0  0  0  0  0  0  0  0
    8.7293  -16.5584   19.7446 N   0  0  0  0  0  0  0  0  0  0  0  0
    9.5327  -15.6763   20.5446 C   0  0  0  0  0  0  0  0  0  0  0  0
   10.5249  -16.3913   21.3711 C   0  0  0  0  0  0  0  0  0  0  0  0
   10.3602  -17.5847   21.6845 O   0  0  0  0  0  0  0  0  0  0  0  0
   14.3166  -14.1140   20.4904 N   0  0  0  0  0  0  0  0  0  0  0  0
   14.4274  -15.3505   21.2249 C   0  0  0  0  0  0  0  0  0  0  0  0
   14.9647  -16.3290   20.6575 O   0  0  0  0  0  0  0  0  0  0  0  0
   13.9021  -15.3830   22.5943 C   0  0  0  0  0  0  0  0  0  0  0  0
   12.6745  -16.2654   22.6758 C   0  0  2  0  0  0  0  0  0  0  0  0
   11.6746  -15.6952   21.8054 N   0  0  0  0  0  0  0  0  0  0  0  0
   12.1912  -16.1959   24.0770 C   0  0  0  0  0  0  0  0  0  0  0  0
   12.9325  -16.7763   25.0923 O   0  0  0  0  0  0  0  0  0  0  0  0
   11.1099  -15.6165   24.3800 O   0  0  0  0  0  0  0  0  0  0  0  0
  2  1  1  6
  2  4  1  0
  3  2  1  0
  4  5  1  1
  6  8  1  0
  6  4  1  0
  7  6  2  0
  9 10  1  0
  9  8  1  0
 10 17  1  0
 11 10  2  0
 13 12  1  0
 14 13  2  0
 16 15  1  1
 15 13  1  0
 16 18  1  0
 17 16  1  0
 18 20  2  0
 18 19  1  0
M  END
$$$$
