TGN.pdb
     RDKit          3D

 20 19  0  0  1  0  0  0  0  0999 V2000
    7.7989  -12.8311   18.1456 C   0  0  0  0  0  0  0  0  0  0  0  0
    7.5268  -13.7060   19.3264 C   0  0  1  0  0  0  0  0  0  0  0  0
    7.2069  -15.0115   18.9748 O   0  0  0  0  0  0  0  0  0  0  0  0
    8.6279  -13.6727   20.3631 C   0  0  2  0  0  0  0  0  0  0  0  0
    9.8232  -14.2566   19.8378 N   0  0  0  0  0  0  0  0  0  0  0  0
    8.2087  -14.2144   21.6577 C   0  0  0  0  0  0  0  0  0  0  0  0
    7.3271  -13.5911   22.3037 O   0  0  0  0  0  0  0  0  0  0  0  0
    8.7196  -15.4008   22.2550 N   0  0  0  0  0  0  0  0  0  0  0  0
    8.3394  -15.8585   23.5625 C   0  0  0  0  0  0  0  0  0  0  0  0
    8.8288  -14.9821   24.6446 C   0  0  0  0  0  0  0  0  0  0  0  0
    9.8517  -14.2881   24.4969 O   0  0  0  0  0  0  0  0  0  0  0  0
    7.2544  -12.3023   25.5063 N   0  0  0  0  0  0  0  0  0  0  0  0
    6.6093  -12.6082   26.7597 C   0  0  0  0  0  0  0  0  0  0  0  0
    5.5444  -12.0110   27.0375 O   0  0  0  0  0  0  0  0  0  0  0  0
    7.2440  -13.6027   27.6317 C   0  0  0  0  0  0  0  0  0  0  0  0
    8.5079  -14.1424   26.9965 C   0  0  2  0  0  0  0  0  0  0  0  0
    8.1132  -14.9418   25.8617 N   0  0  0  0  0  0  0  0  0  0  0  0
    9.1512  -15.0203   28.0051 C   0  0  0  0  0  0  0  0  0  0  0  0
    9.1447  -16.3937   27.8291 O   0  0  0  0  0  0  0  0  0  0  0  0
    9.7131  -14.5504   29.0348 O   0  0  0  0  0  0  0  0  0  0  0  0
  2  1  1  6
  2  4  1  0
  3  2  1  0
  4  5  1  6
  6  8  1  0
  6  4  1  0
  7  6  2  0
  9 10  1  0
  9  8  1  0
 10 17  1  0
 11 10  2  0
 13 12  1  0
 14 13  2  0
 16 15  1  1
 15 13  1  0
 16 18  1  0
 17 16  1  0
 18 20  2  0
 18 19  1  0
M  END
$$$$
