TGN.pdb
     RDKit          3D

 20 19  0  0  1  0  0  0  0  0999 V2000
    9.0064  -13.0655   18.2336 C   0  0  0  0  0  0  0  0  0  0  0  0
    8.1178  -13.3813   19.3932 C   0  0  1  0  0  0  0  0  0  0  0  0
    7.4197  -14.5721   19.2360 O   0  0  0  0  0  0  0  0  0  0  0  0
    8.8331  -13.3381   20.7253 C   0  0  2  0  0  0  0  0  0  0  0  0
    9.8078  -14.3821   20.8004 N   0  0  0  0  0  0  0  0  0  0  0  0
    7.9140  -13.2858   21.8645 C   0  0  0  0  0  0  0  0  0  0  0  0
    7.1685  -12.2788   21.9790 O   0  0  0  0  0  0  0  0  0  0  0  0
    7.7905  -14.2895   22.8659 N   0  0  0  0  0  0  0  0  0  0  0  0
    6.8491  -14.2190   23.9486 C   0  0  0  0  0  0  0  0  0  0  0  0
    6.9167  -15.3876   24.8479 C   0  0  0  0  0  0  0  0  0  0  0  0
    6.1386  -15.5021   25.8128 O   0  0  0  0  0  0  0  0  0  0  0  0
    6.5291  -18.7917   23.0199 N   0  0  0  0  0  0  0  0  0  0  0  0
    6.7790  -18.9389   24.4330 C   0  0  0  0  0  0  0  0  0  0  0  0
    5.8156  -19.2357   25.1758 O   0  0  0  0  0  0  0  0  0  0  0  0
    8.1503  -18.7312   24.9111 C   0  0  0  0  0  0  0  0  0  0  0  0
    8.2888  -17.3729   25.5655 C   0  0  2  0  0  0  0  0  0  0  0  0
    7.8860  -16.3834   24.5954 N   0  0  0  0  0  0  0  0  0  0  0  0
    9.7294  -17.1912   25.8709 C   0  0  0  0  0  0  0  0  0  0  0  0
   10.5005  -16.3506   25.0861 O   0  0  0  0  0  0  0  0  0  0  0  0
   10.2850  -17.7864   26.8372 O   0  0  0  0  0  0  0  0  0  0  0  0
  2  1  1  6
  2  4  1  0
  3  2  1  0
  4  5  1  1
  6  8  1  0
  6  4  1  0
  7  6  2  0
  9 10  1  0
  9  8  1  0
 10 17  1  0
 11 10  2  0
 13 12  1  0
 14 13  2  0
 16 15  1  6
 15 13  1  0
 16 18  1  0
 17 16  1  0
 18 20  2  0
 18 19  1  0
M  END
$$$$
