TGN.pdb
     RDKit          3D

 20 19  0  0  1  0  0  0  0  0999 V2000
    8.6849  -12.5450   19.2360 C   0  0  0  0  0  0  0  0  0  0  0  0
    7.8130  -13.7485   19.0768 C   0  0  1  0  0  0  0  0  0  0  0  0
    7.9825  -14.3859   17.8540 O   0  0  0  0  0  0  0  0  0  0  0  0
    7.9274  -14.7273   20.2245 C   0  0  2  0  0  0  0  0  0  0  0  0
    6.9866  -15.7926   20.0650 N   0  0  0  0  0  0  0  0  0  0  0  0
    7.8866  -14.0758   21.5356 C   0  0  0  0  0  0  0  0  0  0  0  0
    8.8897  -13.4077   21.8970 O   0  0  0  0  0  0  0  0  0  0  0  0
    6.7956  -14.1344   22.4475 N   0  0  0  0  0  0  0  0  0  0  0  0
    6.8181  -13.5333   23.7519 C   0  0  0  0  0  0  0  0  0  0  0  0
    7.2824  -14.4581   24.8045 C   0  0  0  0  0  0  0  0  0  0  0  0
    7.3324  -14.1025   25.9964 O   0  0  0  0  0  0  0  0  0  0  0  0
    7.9691  -18.7469   27.2335 N   0  0  0  0  0  0  0  0  0  0  0  0
    7.2461  -19.0560   26.0242 C   0  0  0  0  0  0  0  0  0  0  0  0
    6.6690  -20.1647   25.9475 O   0  0  0  0  0  0  0  0  0  0  0  0
    7.2326  -18.0485   24.9579 C   0  0  0  0  0  0  0  0  0  0  0  0
    7.9829  -16.8053   25.3869 C   0  0  2  0  0  0  0  0  0  0  0  0
    7.6729  -15.7646   24.4364 N   0  0  0  0  0  0  0  0  0  0  0  0
    9.4286  -17.1268   25.2964 C   0  0  0  0  0  0  0  0  0  0  0  0
   10.0723  -17.7190   26.3699 O   0  0  0  0  0  0  0  0  0  0  0  0
   10.1027  -16.8748   24.2578 O   0  0  0  0  0  0  0  0  0  0  0  0
  2  1  1  1
  2  4  1  0
  3  2  1  0
  4  5  1  1
  6  8  1  0
  6  4  1  0
  7  6  2  0
  9 10  1  0
  9  8  1  0
 10 17  1  0
 11 10  2  0
 13 12  1  0
 14 13  2  0
 16 15  1  6
 15 13  1  0
 16 18  1  0
 17 16  1  0
 18 20  2  0
 18 19  1  0
M  END
$$$$
