GKL.pdb
     RDKit          3D

 22 21  0  0  1  0  0  0  0  0999 V2000
    5.6718  -19.4313   22.1224 N   0  0  0  0  0  0  0  0  0  0  0  0
    5.6413  -18.1133   22.6831 C   0  0  0  0  0  0  0  0  0  0  0  0
    6.8434  -17.3186   22.2988 C   0  0  0  0  0  0  0  0  0  0  0  0
    7.9547  -17.9332   22.2171 O   0  0  0  0  0  0  0  0  0  0  0  0
    6.7069  -15.9427   22.0454 N   0  0  0  0  0  0  0  0  0  0  0  0
    7.8921  -15.1543   21.7376 C   0  0  1  0  0  0  0  0  0  0  0  0
    7.4643  -14.0524   20.7960 C   0  0  0  0  0  0  0  0  0  0  0  0
    7.5382  -14.5030   19.3773 C   0  0  0  0  0  0  0  0  0  0  0  0
    7.9395  -13.3800   18.4377 C   0  0  0  0  0  0  0  0  0  0  0  0
    7.9811  -13.9675   17.0206 C   0  0  0  0  0  0  0  0  0  0  0  0
    8.4059  -12.9416   16.1041 N   0  0  0  0  0  0  0  0  0  0  0  0
    8.4797  -14.5940   22.9802 C   0  0  0  0  0  0  0  0  0  0  0  0
    8.8904  -13.4214   23.0333 O   0  0  0  0  0  0  0  0  0  0  0  0
    6.1650  -12.4355   27.0893 C   0  0  0  0  0  0  0  0  0  0  0  0
    7.5622  -12.9804   26.8256 C   0  0  2  0  0  0  0  0  0  0  0  0
    8.6545  -11.9959   27.0680 C   0  0  0  0  0  0  0  0  0  0  0  0
    7.6610  -13.8176   25.6127 C   0  0  0  0  0  0  0  0  0  0  0  0
    8.7018  -14.8488   25.5011 C   0  0  2  0  0  0  0  0  0  0  0  0
    8.5798  -15.3977   24.1310 N   0  0  0  0  0  0  0  0  0  0  0  0
    8.7680  -15.9106   26.4860 C   0  0  0  0  0  0  0  0  0  0  0  0
    7.9896  -16.8939   26.3990 O   0  0  0  0  0  0  0  0  0  0  0  0
    9.6418  -15.9450   27.5516 O   0  0  0  0  0  0  0  0  0  0  0  0
  2  1  1  0
  3  2  1  0
  4  3  2  0
  5  3  1  0
  6  5  1  0
  6  7  1  6
  8  7  1  0
  9  8  1  0
 10  9  1  0
 11 10  1  0
 12  6  1  0
 12 19  1  0
 13 12  2  0
 15 14  1  6
 16 15  1  0
 17 15  1  0
 18 17  1  1
 18 19  1  0
 18 20  1  0
 20 21  2  0
 20 22  1  0
M  END
$$$$
