GKL.pdb
     RDKit          3D

 22 21  0  0  1  0  0  0  0  0999 V2000
    6.1153  -19.9174   23.1457 N   0  0  0  0  0  0  0  0  0  0  0  0
    5.7555  -18.5572   23.4153 C   0  0  0  0  0  0  0  0  0  0  0  0
    6.7495  -17.5981   22.8528 C   0  0  0  0  0  0  0  0  0  0  0  0
    7.9775  -17.9288   22.8965 O   0  0  0  0  0  0  0  0  0  0  0  0
    6.3006  -16.3843   22.3042 N   0  0  0  0  0  0  0  0  0  0  0  0
    7.2758  -15.4241   21.8063 C   0  0  1  0  0  0  0  0  0  0  0  0
    6.5234  -14.4152   20.9696 C   0  0  0  0  0  0  0  0  0  0  0  0
    7.4612  -13.4683   20.3026 C   0  0  0  0  0  0  0  0  0  0  0  0
    7.6685  -13.8019   18.8360 C   0  0  0  0  0  0  0  0  0  0  0  0
    8.5502  -12.6964   18.2397 C   0  0  0  0  0  0  0  0  0  0  0  0
    8.8218  -13.0109   16.8613 N   0  0  0  0  0  0  0  0  0  0  0  0
    7.9758  -14.7623   22.9357 C   0  0  0  0  0  0  0  0  0  0  0  0
    8.3678  -13.5847   22.8566 O   0  0  0  0  0  0  0  0  0  0  0  0
    6.1365  -12.3247   27.1432 C   0  0  0  0  0  0  0  0  0  0  0  0
    7.4824  -12.9693   26.8408 C   0  0  2  0  0  0  0  0  0  0  0  0
    8.6503  -12.0702   27.0612 C   0  0  0  0  0  0  0  0  0  0  0  0
    7.4887  -13.8019   25.6207 C   0  0  0  0  0  0  0  0  0  0  0  0
    8.5291  -14.8194   25.4175 C   0  0  2  0  0  0  0  0  0  0  0  0
    8.2071  -15.4728   24.1281 N   0  0  0  0  0  0  0  0  0  0  0  0
    8.7834  -15.8019   26.4527 C   0  0  0  0  0  0  0  0  0  0  0  0
    8.0552  -16.8231   26.5384 O   0  0  0  0  0  0  0  0  0  0  0  0
    9.7915  -15.7185   27.3892 O   0  0  0  0  0  0  0  0  0  0  0  0
  2  1  1  0
  3  2  1  0
  4  3  2  0
  5  3  1  0
  6  5  1  0
  6  7  1  1
  8  7  1  0
  9  8  1  0
 10  9  1  0
 11 10  1  0
 12  6  1  0
 12 19  1  0
 13 12  2  0
 15 14  1  6
 16 15  1  0
 17 15  1  0
 18 17  1  1
 18 19  1  0
 18 20  1  0
 20 21  2  0
 20 22  1  0
M  END
$$$$
