GKL.pdb
     RDKit          3D

 22 21  0  0  1  0  0  0  0  0999 V2000
    8.0027  -11.9948   19.0119 N   0  0  0  0  0  0  0  0  0  0  0  0
    8.8422  -13.0257   19.5457 C   0  0  0  0  0  0  0  0  0  0  0  0
    8.1585  -13.7952   20.6249 C   0  0  0  0  0  0  0  0  0  0  0  0
    7.1517  -13.2558   21.1860 O   0  0  0  0  0  0  0  0  0  0  0  0
    8.6433  -15.0669   20.9766 N   0  0  0  0  0  0  0  0  0  0  0  0
    8.0294  -15.7806   22.0877 C   0  0  1  0  0  0  0  0  0  0  0  0
    8.2445  -17.2567   21.8448 C   0  0  0  0  0  0  0  0  0  0  0  0
    7.6915  -17.6670   20.5231 C   0  0  0  0  0  0  0  0  0  0  0  0
    7.1455  -19.0835   20.5432 C   0  0  0  0  0  0  0  0  0  0  0  0
    6.5976  -19.3783   19.1403 C   0  0  0  0  0  0  0  0  0  0  0  0
    6.0975  -20.7280   19.1104 N   0  0  0  0  0  0  0  0  0  0  0  0
    8.6373  -15.3591   23.3746 C   0  0  0  0  0  0  0  0  0  0  0  0
    9.8568  -15.1373   23.4752 O   0  0  0  0  0  0  0  0  0  0  0  0
    8.0155  -11.8339   25.8551 C   0  0  0  0  0  0  0  0  0  0  0  0
    6.8650  -12.8088   26.0656 C   0  0  2  0  0  0  0  0  0  0  0  0
    5.6633  -12.2023   26.7050 C   0  0  0  0  0  0  0  0  0  0  0  0
    7.2871  -14.1414   26.5431 C   0  0  0  0  0  0  0  0  0  0  0  0
    8.3589  -14.8749   25.8559 C   0  0  2  0  0  0  0  0  0  0  0  0
    7.8260  -15.2034   24.5138 N   0  0  0  0  0  0  0  0  0  0  0  0
    8.9474  -16.0410   26.4848 C   0  0  0  0  0  0  0  0  0  0  0  0
    9.5817  -15.9170   27.5631 O   0  0  0  0  0  0  0  0  0  0  0  0
    8.8719  -17.3261   25.9917 O   0  0  0  0  0  0  0  0  0  0  0  0
  2  1  1  0
  3  2  1  0
  4  3  2  0
  5  3  1  0
  6  5  1  0
  6  7  1  6
  8  7  1  0
  9  8  1  0
 10  9  1  0
 11 10  1  0
 12  6  1  0
 12 19  1  0
 13 12  2  0
 15 14  1  1
 16 15  1  0
 17 15  1  0
 18 17  1  1
 18 19  1  0
 18 20  1  0
 20 21  2  0
 20 22  1  0
M  END
$$$$
