GKL.pdb
     RDKit          3D

 22 21  0  0  1  0  0  0  0  0999 V2000
    6.3604  -19.4326   21.7590 N   0  0  0  0  0  0  0  0  0  0  0  0
    5.9763  -18.1454   22.2570 C   0  0  0  0  0  0  0  0  0  0  0  0
    7.0684  -17.1416   22.1015 C   0  0  0  0  0  0  0  0  0  0  0  0
    8.2560  -17.5788   21.9680 O   0  0  0  0  0  0  0  0  0  0  0  0
    6.7508  -15.7723   22.1080 N   0  0  0  0  0  0  0  0  0  0  0  0
    7.8267  -14.7916   22.0698 C   0  0  1  0  0  0  0  0  0  0  0  0
    7.2037  -13.4569   21.7315 C   0  0  0  0  0  0  0  0  0  0  0  0
    7.0073  -13.3162   20.2609 C   0  0  0  0  0  0  0  0  0  0  0  0
    8.3082  -13.4574   19.4911 C   0  0  0  0  0  0  0  0  0  0  0  0
    7.9751  -13.2873   18.0027 C   0  0  0  0  0  0  0  0  0  0  0  0
    9.1450  -13.6033   17.2253 N   0  0  0  0  0  0  0  0  0  0  0  0
    8.5252  -14.7363   23.3784 C   0  0  0  0  0  0  0  0  0  0  0  0
    9.5701  -14.0791   23.5298 O   0  0  0  0  0  0  0  0  0  0  0  0
    8.5253  -12.2815   26.8157 C   0  0  0  0  0  0  0  0  0  0  0  0
    7.2395  -12.9950   26.4209 C   0  0  2  0  0  0  0  0  0  0  0  0
    6.0008  -12.3438   26.9332 C   0  0  0  0  0  0  0  0  0  0  0  0
    7.3180  -14.4673   26.5105 C   0  0  0  0  0  0  0  0  0  0  0  0
    8.4269  -15.1950   25.8781 C   0  0  2  0  0  0  0  0  0  0  0  0
    8.0034  -15.4391   24.4802 N   0  0  0  0  0  0  0  0  0  0  0  0
    8.9311  -16.4080   26.4914 C   0  0  0  0  0  0  0  0  0  0  0  0
    9.3259  -16.3882   27.6847 O   0  0  0  0  0  0  0  0  0  0  0  0
    9.0201  -17.6317   25.8630 O   0  0  0  0  0  0  0  0  0  0  0  0
  2  1  1  0
  3  2  1  0
  4  3  2  0
  5  3  1  0
  6  5  1  0
  6  7  1  1
  8  7  1  0
  9  8  1  0
 10  9  1  0
 11 10  1  0
 12  6  1  0
 12 19  1  0
 13 12  2  0
 15 14  1  1
 16 15  1  0
 17 15  1  0
 18 17  1  1
 18 19  1  0
 18 20  1  0
 20 21  2  0
 20 22  1  0
M  END
$$$$
