GKL.pdb
     RDKit          3D

 22 21  0  0  1  0  0  0  0  0999 V2000
    7.9621  -12.4449   18.1679 N   0  0  0  0  0  0  0  0  0  0  0  0
    8.8941  -13.3921   18.7033 C   0  0  0  0  0  0  0  0  0  0  0  0
    8.3102  -14.1654   19.8371 C   0  0  0  0  0  0  0  0  0  0  0  0
    7.1753  -13.7967   20.2791 O   0  0  0  0  0  0  0  0  0  0  0  0
    9.0233  -15.2547   20.3669 N   0  0  0  0  0  0  0  0  0  0  0  0
    8.4752  -15.9785   21.5055 C   0  0  1  0  0  0  0  0  0  0  0  0
    9.1155  -17.3474   21.5157 C   0  0  0  0  0  0  0  0  0  0  0  0
    8.7642  -18.1110   20.2851 C   0  0  0  0  0  0  0  0  0  0  0  0
    7.5906  -19.0486   20.5058 C   0  0  0  0  0  0  0  0  0  0  0  0
    7.4009  -19.8503   19.2110 C   0  0  0  0  0  0  0  0  0  0  0  0
    6.2432  -20.6946   19.3522 N   0  0  0  0  0  0  0  0  0  0  0  0
    8.7566  -15.2501   22.7678 C   0  0  0  0  0  0  0  0  0  0  0  0
    9.8808  -14.7751   23.0071 O   0  0  0  0  0  0  0  0  0  0  0  0
    7.6073  -11.4704   26.2475 C   0  0  0  0  0  0  0  0  0  0  0  0
    6.4348  -12.4178   26.0334 C   0  0  2  0  0  0  0  0  0  0  0  0
    5.8143  -12.9122   27.2950 C   0  0  0  0  0  0  0  0  0  0  0  0
    6.6473  -13.4012   24.9519 C   0  0  0  0  0  0  0  0  0  0  0  0
    7.8680  -14.2182   24.9159 C   0  0  2  0  0  0  0  0  0  0  0  0
    7.7367  -15.0865   23.7235 N   0  0  0  0  0  0  0  0  0  0  0  0
    8.2509  -14.9874   26.0836 C   0  0  0  0  0  0  0  0  0  0  0  0
    8.9741  -14.4634   26.9683 O   0  0  0  0  0  0  0  0  0  0  0  0
    7.8793  -16.2927   26.3252 O   0  0  0  0  0  0  0  0  0  0  0  0
  2  1  1  0
  3  2  1  0
  4  3  2  0
  5  3  1  0
  6  5  1  0
  6  7  1  1
  8  7  1  0
  9  8  1  0
 10  9  1  0
 11 10  1  0
 12  6  1  0
 12 19  1  0
 13 12  2  0
 15 14  1  1
 16 15  1  0
 17 15  1  0
 18 17  1  1
 18 19  1  0
 18 20  1  0
 20 21  2  0
 20 22  1  0
M  END
$$$$
