GKL.pdb
     RDKit          3D

 22 21  0  0  1  0  0  0  0  0999 V2000
    8.0550  -12.0898   19.1905 N   0  0  0  0  0  0  0  0  0  0  0  0
    8.4989  -13.4330   19.4170 C   0  0  0  0  0  0  0  0  0  0  0  0
    7.9719  -13.9830   20.6992 C   0  0  0  0  0  0  0  0  0  0  0  0
    7.4285  -13.1676   21.5111 O   0  0  0  0  0  0  0  0  0  0  0  0
    8.0930  -15.3591   20.9593 N   0  0  0  0  0  0  0  0  0  0  0  0
    7.4466  -15.9206   22.1373 C   0  0  1  0  0  0  0  0  0  0  0  0
    7.3594  -17.4151   21.9302 C   0  0  0  0  0  0  0  0  0  0  0  0
    6.4159  -17.7475   20.8255 C   0  0  0  0  0  0  0  0  0  0  0  0
    6.3273  -19.2423   20.5754 C   0  0  0  0  0  0  0  0  0  0  0  0
    5.3567  -19.4496   19.4049 C   0  0  0  0  0  0  0  0  0  0  0  0
    5.3432  -20.8457   19.0536 N   0  0  0  0  0  0  0  0  0  0  0  0
    8.2241  -15.5974   23.3597 C   0  0  0  0  0  0  0  0  0  0  0  0
    9.4645  -15.6843   23.3826 O   0  0  0  0  0  0  0  0  0  0  0  0
    7.9768  -11.7664   25.4160 C   0  0  0  0  0  0  0  0  0  0  0  0
    6.8544  -12.6702   25.9076 C   0  0  2  0  0  0  0  0  0  0  0  0
    5.7537  -11.9478   26.6059 C   0  0  0  0  0  0  0  0  0  0  0  0
    7.3222  -13.9361   26.5079 C   0  0  0  0  0  0  0  0  0  0  0  0
    8.2515  -14.8092   25.7777 C   0  0  2  0  0  0  0  0  0  0  0  0
    7.5543  -15.1821   24.5255 N   0  0  0  0  0  0  0  0  0  0  0  0
    8.8059  -15.9763   26.4353 C   0  0  0  0  0  0  0  0  0  0  0  0
    9.6343  -15.8332   27.3699 O   0  0  0  0  0  0  0  0  0  0  0  0
    8.4953  -17.2817   26.1197 O   0  0  0  0  0  0  0  0  0  0  0  0
  2  1  1  0
  3  2  1  0
  4  3  2  0
  5  3  1  0
  6  5  1  0
  6  7  1  6
  8  7  1  0
  9  8  1  0
 10  9  1  0
 11 10  1  0
 12  6  1  0
 12 19  1  0
 13 12  2  0
 15 14  1  1
 16 15  1  0
 17 15  1  0
 18 17  1  1
 18 19  1  0
 18 20  1  0
 20 21  2  0
 20 22  1  0
M  END
$$$$
