GKL.pdb
     RDKit          3D

 22 21  0  0  1  0  0  0  0  0999 V2000
    8.0698  -12.2449   18.6553 N   0  0  0  0  0  0  0  0  0  0  0  0
    8.8587  -13.3798   19.0320 C   0  0  0  0  0  0  0  0  0  0  0  0
    8.2073  -14.1746   20.1129 C   0  0  0  0  0  0  0  0  0  0  0  0
    7.2111  -13.6534   20.7088 O   0  0  0  0  0  0  0  0  0  0  0  0
    8.7095  -15.4491   20.4282 N   0  0  0  0  0  0  0  0  0  0  0  0
    8.1456  -16.1776   21.5560 C   0  0  1  0  0  0  0  0  0  0  0  0
    8.5717  -17.6207   21.4146 C   0  0  0  0  0  0  0  0  0  0  0  0
    8.0516  -18.4445   22.5423 C   0  0  0  0  0  0  0  0  0  0  0  0
    8.4720  -19.8993   22.4331 C   0  0  0  0  0  0  0  0  0  0  0  0
    7.7662  -20.6613   23.5629 C   0  0  0  0  0  0  0  0  0  0  0  0
    8.1634  -22.0442   23.5099 N   0  0  0  0  0  0  0  0  0  0  0  0
    8.6270  -15.6038   22.8375 C   0  0  0  0  0  0  0  0  0  0  0  0
    9.8339  -15.3780   23.0355 O   0  0  0  0  0  0  0  0  0  0  0  0
    5.6903  -11.9487   26.7057 C   0  0  0  0  0  0  0  0  0  0  0  0
    7.0151  -12.6471   26.4309 C   0  0  2  0  0  0  0  0  0  0  0  0
    8.2047  -11.7549   26.5296 C   0  0  0  0  0  0  0  0  0  0  0  0
    6.9706  -13.5947   25.2987 C   0  0  0  0  0  0  0  0  0  0  0  0
    8.0646  -14.5518   25.0838 C   0  0  2  0  0  0  0  0  0  0  0  0
    7.7071  -15.3041   23.8593 N   0  0  0  0  0  0  0  0  0  0  0  0
    8.4534  -15.4490   26.1542 C   0  0  0  0  0  0  0  0  0  0  0  0
    9.5265  -15.2504   26.7781 O   0  0  0  0  0  0  0  0  0  0  0  0
    7.7255  -16.5433   26.5701 O   0  0  0  0  0  0  0  0  0  0  0  0
  2  1  1  0
  3  2  1  0
  4  3  2  0
  5  3  1  0
  6  5  1  0
  6  7  1  6
  8  7  1  0
  9  8  1  0
 10  9  1  0
 11 10  1  0
 12  6  1  0
 12 19  1  0
 13 12  2  0
 15 14  1  6
 16 15  1  0
 17 15  1  0
 18 17  1  1
 18 19  1  0
 18 20  1  0
 20 21  2  0
 20 22  1  0
M  END
$$$$
