GKL.pdb
     RDKit          3D

 22 21  0  0  1  0  0  0  0  0999 V2000
    7.7489  -12.8708   18.5753 N   0  0  0  0  0  0  0  0  0  0  0  0
    8.3007  -14.1382   18.9515 C   0  0  0  0  0  0  0  0  0  0  0  0
    7.8073  -14.5844   20.2863 C   0  0  0  0  0  0  0  0  0  0  0  0
    7.1241  -13.7558   20.9691 O   0  0  0  0  0  0  0  0  0  0  0  0
    8.1102  -15.8821   20.7337 N   0  0  0  0  0  0  0  0  0  0  0  0
    7.5016  -16.3717   21.9628 C   0  0  1  0  0  0  0  0  0  0  0  0
    7.6982  -17.8698   21.9935 C   0  0  0  0  0  0  0  0  0  0  0  0
    7.1223  -18.4592   23.2352 C   0  0  0  0  0  0  0  0  0  0  0  0
    7.2864  -19.9677   23.2852 C   0  0  0  0  0  0  0  0  0  0  0  0
    6.6302  -20.4524   24.5851 C   0  0  0  0  0  0  0  0  0  0  0  0
    6.6421  -21.8920   24.6033 N   0  0  0  0  0  0  0  0  0  0  0  0
    8.1287  -15.7285   23.1444 C   0  0  0  0  0  0  0  0  0  0  0  0
    9.3571  -15.5454   23.2089 O   0  0  0  0  0  0  0  0  0  0  0  0
    5.5394  -11.9404   27.1960 C   0  0  0  0  0  0  0  0  0  0  0  0
    6.8571  -12.5199   26.6998 C   0  0  2  0  0  0  0  0  0  0  0  0
    7.9337  -11.5071   26.5101 C   0  0  0  0  0  0  0  0  0  0  0  0
    6.7034  -13.5501   25.6525 C   0  0  0  0  0  0  0  0  0  0  0  0
    7.8183  -14.4475   25.3196 C   0  0  2  0  0  0  0  0  0  0  0  0
    7.3260  -15.3119   24.2226 N   0  0  0  0  0  0  0  0  0  0  0  0
    8.4427  -15.2340   26.3653 C   0  0  0  0  0  0  0  0  0  0  0  0
    7.9082  -16.3065   26.7450 O   0  0  0  0  0  0  0  0  0  0  0  0
    9.6170  -14.9030   27.0070 O   0  0  0  0  0  0  0  0  0  0  0  0
  2  1  1  0
  3  2  1  0
  4  3  2  0
  5  3  1  0
  6  5  1  0
  6  7  1  1
  8  7  1  0
  9  8  1  0
 10  9  1  0
 11 10  1  0
 12  6  1  0
 12 19  1  0
 13 12  2  0
 15 14  1  6
 16 15  1  0
 17 15  1  0
 18 17  1  1
 18 19  1  0
 18 20  1  0
 20 21  2  0
 20 22  1  0
M  END
$$$$
