GKL.pdb
     RDKit          3D

 22 21  0  0  1  0  0  0  0  0999 V2000
    5.3508  -18.6970   19.5708 N   0  0  0  0  0  0  0  0  0  0  0  0
    6.5362  -18.2174   20.2168 C   0  0  0  0  0  0  0  0  0  0  0  0
    6.2988  -17.9128   21.6573 C   0  0  0  0  0  0  0  0  0  0  0  0
    5.3593  -17.1027   21.9413 O   0  0  0  0  0  0  0  0  0  0  0  0
    7.1082  -18.5215   22.6321 N   0  0  0  0  0  0  0  0  0  0  0  0
    6.9565  -18.1329   24.0275 C   0  0  1  0  0  0  0  0  0  0  0  0
    7.5689  -19.2305   24.8666 C   0  0  0  0  0  0  0  0  0  0  0  0
    6.5729  -20.3003   25.1569 C   0  0  0  0  0  0  0  0  0  0  0  0
    6.2913  -21.1682   23.9434 C   0  0  0  0  0  0  0  0  0  0  0  0
    5.1699  -22.1411   24.3321 C   0  0  0  0  0  0  0  0  0  0  0  0
    4.8997  -23.0092   23.2157 N   0  0  0  0  0  0  0  0  0  0  0  0
    7.6271  -16.8330   24.2800 C   0  0  0  0  0  0  0  0  0  0  0  0
    8.7283  -16.5603   23.7705 O   0  0  0  0  0  0  0  0  0  0  0  0
    5.6530  -11.7164   27.1465 C   0  0  0  0  0  0  0  0  0  0  0  0
    6.7209  -12.2991   26.2308 C   0  0  2  0  0  0  0  0  0  0  0  0
    7.1655  -11.3745   25.1498 C   0  0  0  0  0  0  0  0  0  0  0  0
    6.4909  -13.7111   25.8629 C   0  0  0  0  0  0  0  0  0  0  0  0
    7.6057  -14.5553   25.4115 C   0  0  2  0  0  0  0  0  0  0  0  0
    7.0132  -15.8793   25.1130 N   0  0  0  0  0  0  0  0  0  0  0  0
    8.7878  -14.6860   26.2405 C   0  0  0  0  0  0  0  0  0  0  0  0
    8.7864  -15.4860   27.2102 O   0  0  0  0  0  0  0  0  0  0  0  0
    9.9621  -13.9879   26.0561 O   0  0  0  0  0  0  0  0  0  0  0  0
  2  1  1  0
  3  2  1  0
  4  3  2  0
  5  3  1  0
  6  5  1  0
  6  7  1  1
  8  7  1  0
  9  8  1  0
 10  9  1  0
 11 10  1  0
 12  6  1  0
 12 19  1  0
 13 12  2  0
 15 14  1  6
 16 15  1  0
 17 15  1  0
 18 17  1  1
 18 19  1  0
 18 20  1  0
 20 21  2  0
 20 22  1  0
M  END
$$$$
