GKL.pdb
     RDKit          3D

 22 21  0  0  1  0  0  0  0  0999 V2000
    3.4339  -19.0210   21.5405 N   0  0  0  0  0  0  0  0  0  0  0  0
    3.7991  -17.7593   22.1124 C   0  0  0  0  0  0  0  0  0  0  0  0
    5.2308  -17.7323   22.5294 C   0  0  0  0  0  0  0  0  0  0  0  0
    5.5586  -18.4104   23.5552 O   0  0  0  0  0  0  0  0  0  0  0  0
    6.1499  -16.9715   21.7864 N   0  0  0  0  0  0  0  0  0  0  0  0
    7.5557  -16.9831   22.1665 C   0  0  1  0  0  0  0  0  0  0  0  0
    8.3636  -16.8402   20.8973 C   0  0  0  0  0  0  0  0  0  0  0  0
    8.2504  -18.0619   20.0513 C   0  0  0  0  0  0  0  0  0  0  0  0
    9.1077  -17.9769   18.8012 C   0  0  0  0  0  0  0  0  0  0  0  0
    8.8531  -19.2539   17.9890 C   0  0  0  0  0  0  0  0  0  0  0  0
    9.4879  -19.1218   16.7036 N   0  0  0  0  0  0  0  0  0  0  0  0
    7.8473  -15.8751   23.1103 C   0  0  0  0  0  0  0  0  0  0  0  0
    7.7095  -14.6849   22.7773 O   0  0  0  0  0  0  0  0  0  0  0  0
    5.7704  -12.7023   26.6665 C   0  0  0  0  0  0  0  0  0  0  0  0
    7.1922  -13.2085   26.4652 C   0  0  2  0  0  0  0  0  0  0  0  0
    8.2113  -12.1277   26.3451 C   0  0  0  0  0  0  0  0  0  0  0  0
    7.2975  -14.3463   25.5291 C   0  0  0  0  0  0  0  0  0  0  0  0
    8.5391  -15.1270   25.4406 C   0  0  2  0  0  0  0  0  0  0  0  0
    8.2902  -16.1650   24.4142 N   0  0  0  0  0  0  0  0  0  0  0  0
    9.1100  -15.7050   26.6414 C   0  0  0  0  0  0  0  0  0  0  0  0
    9.9630  -15.0595   27.3017 O   0  0  0  0  0  0  0  0  0  0  0  0
    8.7905  -16.9464   27.1484 O   0  0  0  0  0  0  0  0  0  0  0  0
  2  1  1  0
  3  2  1  0
  4  3  2  0
  5  3  1  0
  6  5  1  0
  6  7  1  6
  8  7  1  0
  9  8  1  0
 10  9  1  0
 11 10  1  0
 12  6  1  0
 12 19  1  0
 13 12  2  0
 15 14  1  6
 16 15  1  0
 17 15  1  0
 18 17  1  1
 18 19  1  0
 18 20  1  0
 20 21  2  0
 20 22  1  0
M  END
$$$$
