GKL.pdb
     RDKit          3D

 22 21  0  0  1  0  0  0  0  0999 V2000
    6.1392  -19.2293   21.0029 N   0  0  0  0  0  0  0  0  0  0  0  0
    5.8331  -17.8971   21.4318 C   0  0  0  0  0  0  0  0  0  0  0  0
    7.0455  -17.0289   21.4545 C   0  0  0  0  0  0  0  0  0  0  0  0
    8.1774  -17.5935   21.3145 O   0  0  0  0  0  0  0  0  0  0  0  0
    6.8958  -15.6419   21.6268 N   0  0  0  0  0  0  0  0  0  0  0  0
    8.0650  -14.7805   21.5176 C   0  0  1  0  0  0  0  0  0  0  0  0
    7.5991  -13.4654   20.9370 C   0  0  0  0  0  0  0  0  0  0  0  0
    7.1501  -13.6333   19.5259 C   0  0  0  0  0  0  0  0  0  0  0  0
    8.3008  -13.5328   18.5406 C   0  0  0  0  0  0  0  0  0  0  0  0
    7.6991  -13.6107   17.1310 C   0  0  0  0  0  0  0  0  0  0  0  0
    8.7666  -13.5606   16.1662 N   0  0  0  0  0  0  0  0  0  0  0  0
    8.6899  -14.5826   22.8494 C   0  0  0  0  0  0  0  0  0  0  0  0
    9.5264  -13.6839   23.0475 O   0  0  0  0  0  0  0  0  0  0  0  0
    6.1788  -12.3583   26.8814 C   0  0  0  0  0  0  0  0  0  0  0  0
    7.5497  -12.9888   26.6776 C   0  0  2  0  0  0  0  0  0  0  0  0
    8.6857  -12.1281   27.1134 C   0  0  0  0  0  0  0  0  0  0  0  0
    7.6959  -13.7058   25.3945 C   0  0  0  0  0  0  0  0  0  0  0  0
    8.3842  -15.0028   25.3392 C   0  0  2  0  0  0  0  0  0  0  0  0
    8.3362  -15.4242   23.9203 N   0  0  0  0  0  0  0  0  0  0  0  0
    7.9635  -16.0762   26.2182 C   0  0  0  0  0  0  0  0  0  0  0  0
    6.9170  -16.7229   25.9592 O   0  0  0  0  0  0  0  0  0  0  0  0
    8.6321  -16.4713   27.3571 O   0  0  0  0  0  0  0  0  0  0  0  0
  2  1  1  0
  3  2  1  0
  4  3  2  0
  5  3  1  0
  6  5  1  0
  6  7  1  1
  8  7  1  0
  9  8  1  0
 10  9  1  0
 11 10  1  0
 12  6  1  0
 12 19  1  0
 13 12  2  0
 15 14  1  6
 16 15  1  0
 17 15  1  0
 18 17  1  6
 18 19  1  0
 18 20  1  0
 20 21  2  0
 20 22  1  0
M  END
$$$$
