GKL.pdb
     RDKit          3D

 22 21  0  0  1  0  0  0  0  0999 V2000
    6.2664  -20.8953   22.8709 N   0  0  0  0  0  0  0  0  0  0  0  0
    5.7362  -19.5840   23.0986 C   0  0  0  0  0  0  0  0  0  0  0  0
    6.7157  -18.5189   22.7376 C   0  0  0  0  0  0  0  0  0  0  0  0
    7.9284  -18.6920   23.0825 O   0  0  0  0  0  0  0  0  0  0  0  0
    6.2707  -17.3818   22.0412 N   0  0  0  0  0  0  0  0  0  0  0  0
    7.0701  -16.1651   22.0799 C   0  0  1  0  0  0  0  0  0  0  0  0
    6.3810  -15.1489   21.1986 C   0  0  0  0  0  0  0  0  0  0  0  0
    7.2831  -14.0008   20.9006 C   0  0  0  0  0  0  0  0  0  0  0  0
    7.6975  -13.9592   19.4406 C   0  0  0  0  0  0  0  0  0  0  0  0
    8.6288  -12.7518   19.2676 C   0  0  0  0  0  0  0  0  0  0  0  0
    8.9703  -12.6236   17.8748 N   0  0  0  0  0  0  0  0  0  0  0  0
    7.1899  -15.6669   23.4730 C   0  0  0  0  0  0  0  0  0  0  0  0
    6.2541  -15.7760   24.2848 O   0  0  0  0  0  0  0  0  0  0  0  0
    5.7602  -12.4143   26.9568 C   0  0  0  0  0  0  0  0  0  0  0  0
    7.1811  -12.9200   26.7480 C   0  0  2  0  0  0  0  0  0  0  0  0
    8.2368  -11.9772   27.2143 C   0  0  0  0  0  0  0  0  0  0  0  0
    7.3954  -13.5888   25.4485 C   0  0  0  0  0  0  0  0  0  0  0  0
    8.5622  -14.4571   25.2400 C   0  0  2  0  0  0  0  0  0  0  0  0
    8.3843  -15.0554   23.8970 N   0  0  0  0  0  0  0  0  0  0  0  0
    8.8876  -15.4700   26.2249 C   0  0  0  0  0  0  0  0  0  0  0  0
    8.1608  -16.4896   26.3373 O   0  0  0  0  0  0  0  0  0  0  0  0
    9.9647  -15.4183   27.0837 O   0  0  0  0  0  0  0  0  0  0  0  0
  2  1  1  0
  3  2  1  0
  4  3  2  0
  5  3  1  0
  6  5  1  0
  6  7  1  6
  8  7  1  0
  9  8  1  0
 10  9  1  0
 11 10  1  0
 12  6  1  0
 12 19  1  0
 13 12  2  0
 15 14  1  6
 16 15  1  0
 17 15  1  0
 18 17  1  1
 18 19  1  0
 18 20  1  0
 20 21  2  0
 20 22  1  0
M  END
$$$$
