NAI.pdb
     RDKit          3D

 22 21  0  0  1  0  0  0  0  0999 V2000
    8.2934  -18.3427   17.0407 N   0  0  0  0  0  0  0  0  0  0  0  0
    7.4073  -17.2806   17.4371 C   0  0  0  0  0  0  0  0  0  0  0  0
    7.1053  -16.4334   16.5867 O   0  0  0  0  0  0  0  0  0  0  0  0
    6.8890  -17.2047   18.8058 C   0  0  0  0  0  0  0  0  0  0  0  0
    7.9753  -16.9983   19.7942 C   0  0  2  0  0  0  0  0  0  0  0  0
    8.8623  -18.1195   19.8059 N   0  0  0  0  0  0  0  0  0  0  0  0
    7.5026  -16.6850   21.1645 C   0  0  0  0  0  0  0  0  0  0  0  0
    7.0112  -15.5428   21.3979 O   0  0  0  0  0  0  0  0  0  0  0  0
    6.8895  -18.6612   24.3629 C   0  0  0  0  0  0  0  0  0  0  0  0
    7.1620  -17.4024   23.5802 C   0  0  2  0  0  0  0  0  0  0  0  0
    7.5616  -17.6109   22.2234 N   0  0  0  0  0  0  0  0  0  0  0  0
    7.9859  -16.4231   24.3251 C   0  0  0  0  0  0  0  0  0  0  0  0
    9.2027  -16.2197   24.1593 O   0  0  0  0  0  0  0  0  0  0  0  0
    5.6348  -11.7507   26.5473 C   0  0  0  0  0  0  0  0  0  0  0  0
    6.6127  -12.6170   25.8026 C   0  0  0  0  0  0  0  0  0  0  0  0
    7.5069  -13.4576   26.6476 C   0  0  2  0  0  0  0  0  0  0  0  0
    8.6539  -12.5044   27.1109 C   0  0  0  0  0  0  0  0  0  0  0  0
    8.0903  -14.6571   26.0590 C   0  0  2  0  0  0  0  0  0  0  0  0
    7.3238  -15.6042   25.3415 N   0  0  0  0  0  0  0  0  0  0  0  0
    8.9807  -15.3743   27.0926 C   0  0  0  0  0  0  0  0  0  0  0  0
   10.0113  -14.8814   27.5493 O   0  0  0  0  0  0  0  0  0  0  0  0
    8.5910  -16.6489   27.5434 O   0  0  0  0  0  0  0  0  0  0  0  0
  1  2  1  0
  2  3  2  0
  4  2  1  0
  4  5  1  0
  5  6  1  1
  7  5  1  0
  7 11  1  0
  8  7  2  0
 10  9  1  1
 10 11  1  0
 10 12  1  0
 12 19  1  0
 13 12  2  0
 15 16  1  0
 15 14  1  0
 16 18  1  0
 16 17  1  6
 18 20  1  0
 18 19  1  1
 20 22  1  0
 21 20  2  0
M  END
$$$$
