NAI.pdb
     RDKit          3D

 22 21  0  0  1  0  0  0  0  0999 V2000
    7.8681  -21.4295   19.8412 N   0  0  0  0  0  0  0  0  0  0  0  0
    8.7393  -21.3132   20.9804 C   0  0  0  0  0  0  0  0  0  0  0  0
    8.8067  -22.2755   21.7560 O   0  0  0  0  0  0  0  0  0  0  0  0
    9.5125  -20.0904   21.2143 C   0  0  0  0  0  0  0  0  0  0  0  0
    8.9204  -19.2637   22.2939 C   0  0  2  0  0  0  0  0  0  0  0  0
    7.5528  -19.6219   22.5069 N   0  0  0  0  0  0  0  0  0  0  0  0
    9.0569  -17.8014   22.0878 C   0  0  0  0  0  0  0  0  0  0  0  0
   10.2131  -17.3065   21.9505 O   0  0  0  0  0  0  0  0  0  0  0  0
    6.6933  -14.8799   21.4417 C   0  0  0  0  0  0  0  0  0  0  0  0
    7.9743  -15.5059   21.9305 C   0  0  2  0  0  0  0  0  0  0  0  0
    7.9512  -16.9325   22.0226 N   0  0  0  0  0  0  0  0  0  0  0  0
    8.5419  -14.8180   23.1124 C   0  0  0  0  0  0  0  0  0  0  0  0
    9.4881  -14.0093   23.0995 O   0  0  0  0  0  0  0  0  0  0  0  0
    5.4278  -12.1518   26.3507 C   0  0  0  0  0  0  0  0  0  0  0  0
    6.6850  -12.5458   25.6258 C   0  0  0  0  0  0  0  0  0  0  0  0
    7.5708  -13.5069   26.3413 C   0  0  2  0  0  0  0  0  0  0  0  0
    8.4706  -12.6289   27.2677 C   0  0  0  0  0  0  0  0  0  0  0  0
    8.4180  -14.3902   25.5492 C   0  0  2  0  0  0  0  0  0  0  0  0
    7.9406  -15.0920   24.4184 N   0  0  0  0  0  0  0  0  0  0  0  0
    9.1948  -15.3477   26.4741 C   0  0  0  0  0  0  0  0  0  0  0  0
    8.9194  -16.5412   26.5901 O   0  0  0  0  0  0  0  0  0  0  0  0
   10.2767  -14.8351   27.2131 O   0  0  0  0  0  0  0  0  0  0  0  0
  1  2  1  0
  2  3  2  0
  4  2  1  0
  4  5  1  0
  5  6  1  6
  7  5  1  0
  7 11  1  0
  8  7  2  0
 10  9  1  1
 10 11  1  0
 10 12  1  0
 12 19  1  0
 13 12  2  0
 15 16  1  0
 15 14  1  0
 16 18  1  0
 16 17  1  1
 18 20  1  0
 18 19  1  6
 20 22  1  0
 21 20  2  0
M  END
$$$$
