NAI.pdb
     RDKit          3D

 22 21  0  0  1  0  0  0  0  0999 V2000
    8.2527  -12.4229   16.7482 N   0  0  0  0  0  0  0  0  0  0  0  0
    7.9288  -13.8064   16.9745 C   0  0  0  0  0  0  0  0  0  0  0  0
    8.1244  -14.6038   16.0483 O   0  0  0  0  0  0  0  0  0  0  0  0
    7.3783  -14.2498   18.2583 C   0  0  0  0  0  0  0  0  0  0  0  0
    8.4425  -14.7079   19.1840 C   0  0  2  0  0  0  0  0  0  0  0  0
    9.1359  -15.8309   18.6344 N   0  0  0  0  0  0  0  0  0  0  0  0
    7.9712  -15.0003   20.5594 C   0  0  0  0  0  0  0  0  0  0  0  0
    7.4112  -14.0811   21.2244 O   0  0  0  0  0  0  0  0  0  0  0  0
    7.6891  -18.1324   22.7341 C   0  0  0  0  0  0  0  0  0  0  0  0
    7.7037  -16.6471   22.4783 C   0  0  2  0  0  0  0  0  0  0  0  0
    8.1052  -16.2664   21.1601 N   0  0  0  0  0  0  0  0  0  0  0  0
    8.3456  -15.8772   23.5681 C   0  0  0  0  0  0  0  0  0  0  0  0
    9.5169  -15.4558   23.5698 O   0  0  0  0  0  0  0  0  0  0  0  0
    5.8412  -11.6783   26.2541 C   0  0  0  0  0  0  0  0  0  0  0  0
    6.7204  -12.6698   25.5434 C   0  0  0  0  0  0  0  0  0  0  0  0
    7.3954  -13.6754   26.4114 C   0  0  2  0  0  0  0  0  0  0  0  0
    8.3900  -12.8575   27.2950 C   0  0  0  0  0  0  0  0  0  0  0  0
    8.1134  -14.7717   25.7727 C   0  0  2  0  0  0  0  0  0  0  0  0
    7.5418  -15.5640   24.7504 N   0  0  0  0  0  0  0  0  0  0  0  0
    8.7579  -15.6759   26.8417 C   0  0  0  0  0  0  0  0  0  0  0  0
    8.2802  -16.7565   27.1849 O   0  0  0  0  0  0  0  0  0  0  0  0
    9.9548  -15.2503   27.4464 O   0  0  0  0  0  0  0  0  0  0  0  0
  1  2  1  0
  2  3  2  0
  4  2  1  0
  4  5  1  0
  5  6  1  6
  7  5  1  0
  7 11  1  0
  8  7  2  0
 10  9  1  1
 10 11  1  0
 10 12  1  0
 12 19  1  0
 13 12  2  0
 15 16  1  0
 15 14  1  0
 16 18  1  0
 16 17  1  6
 18 20  1  0
 18 19  1  1
 20 22  1  0
 21 20  2  0
M  END
$$$$
