NAI.pdb
     RDKit          3D

 22 21  0  0  1  0  0  0  0  0999 V2000
    8.3699  -12.7046   16.5249 N   0  0  0  0  0  0  0  0  0  0  0  0
    8.0920  -14.0991   16.7451 C   0  0  0  0  0  0  0  0  0  0  0  0
    8.2654  -14.8784   15.7993 O   0  0  0  0  0  0  0  0  0  0  0  0
    7.6120  -14.5742   18.0457 C   0  0  0  0  0  0  0  0  0  0  0  0
    8.7264  -14.7728   19.0039 C   0  0  2  0  0  0  0  0  0  0  0  0
    9.6456  -15.7493   18.5084 N   0  0  0  0  0  0  0  0  0  0  0  0
    8.2941  -15.1067   20.3827 C   0  0  0  0  0  0  0  0  0  0  0  0
    7.4923  -14.3308   20.9790 O   0  0  0  0  0  0  0  0  0  0  0  0
    8.7318  -18.0944   22.7267 C   0  0  0  0  0  0  0  0  0  0  0  0
    8.3858  -16.6670   22.3884 C   0  0  2  0  0  0  0  0  0  0  0  0
    8.7255  -16.2631   21.0597 N   0  0  0  0  0  0  0  0  0  0  0  0
    8.7783  -15.7086   23.4466 C   0  0  0  0  0  0  0  0  0  0  0  0
    9.8908  -15.1612   23.5571 O   0  0  0  0  0  0  0  0  0  0  0  0
    7.0370  -10.9218   26.6687 C   0  0  0  0  0  0  0  0  0  0  0  0
    7.6900  -12.2731   26.7635 C   0  0  0  0  0  0  0  0  0  0  0  0
    7.2092  -13.2942   25.7906 C   0  0  2  0  0  0  0  0  0  0  0  0
    5.9105  -13.8880   26.4227 C   0  0  0  0  0  0  0  0  0  0  0  0
    8.1073  -14.3844   25.4297 C   0  0  2  0  0  0  0  0  0  0  0  0
    7.7772  -15.3521   24.4530 N   0  0  0  0  0  0  0  0  0  0  0  0
    8.6352  -15.0778   26.7010 C   0  0  0  0  0  0  0  0  0  0  0  0
    9.2696  -14.4877   27.5743 O   0  0  0  0  0  0  0  0  0  0  0  0
    8.3701  -16.4484   26.8761 O   0  0  0  0  0  0  0  0  0  0  0  0
  1  2  1  0
  2  3  2  0
  4  2  1  0
  4  5  1  0
  5  6  1  6
  7  5  1  0
  7 11  1  0
  8  7  2  0
 10  9  1  1
 10 11  1  0
 10 12  1  0
 12 19  1  0
 13 12  2  0
 15 16  1  0
 15 14  1  0
 16 18  1  0
 16 17  1  1
 18 20  1  0
 18 19  1  6
 20 22  1  0
 21 20  2  0
M  END
$$$$
