NAI.pdb
     RDKit          3D

 22 21  0  0  1  0  0  0  0  0999 V2000
    8.2876  -12.4550   16.9314 N   0  0  0  0  0  0  0  0  0  0  0  0
    7.8562  -13.8003   17.2040 C   0  0  0  0  0  0  0  0  0  0  0  0
    7.8995  -14.6192   16.2768 O   0  0  0  0  0  0  0  0  0  0  0  0
    7.3747  -14.1808   18.5348 C   0  0  0  0  0  0  0  0  0  0  0  0
    8.4751  -14.6768   19.3965 C   0  0  2  0  0  0  0  0  0  0  0  0
    9.1543  -15.7652   18.7655 N   0  0  0  0  0  0  0  0  0  0  0  0
    8.0567  -15.0419   20.7716 C   0  0  0  0  0  0  0  0  0  0  0  0
    7.4864  -14.1712   21.4908 O   0  0  0  0  0  0  0  0  0  0  0  0
    7.9939  -18.2613   22.8376 C   0  0  0  0  0  0  0  0  0  0  0  0
    7.9202  -16.7700   22.6320 C   0  0  2  0  0  0  0  0  0  0  0  0
    8.2525  -16.3261   21.3142 N   0  0  0  0  0  0  0  0  0  0  0  0
    8.5598  -16.0016   23.7242 C   0  0  0  0  0  0  0  0  0  0  0  0
    9.7701  -15.7220   23.8060 O   0  0  0  0  0  0  0  0  0  0  0  0
    5.6597  -12.0044   26.4630 C   0  0  0  0  0  0  0  0  0  0  0  0
    6.7694  -12.7083   25.7321 C   0  0  0  0  0  0  0  0  0  0  0  0
    7.5578  -13.6838   26.5365 C   0  0  2  0  0  0  0  0  0  0  0  0
    8.5659  -12.8212   27.3603 C   0  0  0  0  0  0  0  0  0  0  0  0
    8.2879  -14.7319   25.8337 C   0  0  2  0  0  0  0  0  0  0  0  0
    7.7056  -15.5082   24.8054 N   0  0  0  0  0  0  0  0  0  0  0  0
    9.0022  -15.6489   26.8459 C   0  0  0  0  0  0  0  0  0  0  0  0
    9.9934  -15.3003   27.4860 O   0  0  0  0  0  0  0  0  0  0  0  0
    8.4903  -16.9425   27.0558 O   0  0  0  0  0  0  0  0  0  0  0  0
  1  2  1  0
  2  3  2  0
  4  2  1  0
  4  5  1  0
  5  6  1  6
  7  5  1  0
  7 11  1  0
  8  7  2  0
 10  9  1  6
 10 11  1  0
 10 12  1  0
 12 19  1  0
 13 12  2  0
 15 16  1  0
 15 14  1  0
 16 18  1  0
 16 17  1  6
 18 20  1  0
 18 19  1  1
 20 22  1  0
 21 20  2  0
M  END
$$$$
