NAI.pdb
     RDKit          3D

 22 21  0  0  1  0  0  0  0  0999 V2000
   10.7839  -18.2481   18.0909 N   0  0  0  0  0  0  0  0  0  0  0  0
   10.6416  -16.8891   18.5416 C   0  0  0  0  0  0  0  0  0  0  0  0
   11.3138  -16.0191   17.9730 O   0  0  0  0  0  0  0  0  0  0  0  0
    9.7356  -16.5529   19.6434 C   0  0  0  0  0  0  0  0  0  0  0  0
    9.8187  -17.5425   20.7449 C   0  0  2  0  0  0  0  0  0  0  0  0
    9.0691  -18.7163   20.4219 N   0  0  0  0  0  0  0  0  0  0  0  0
    9.4238  -17.0129   22.0727 C   0  0  0  0  0  0  0  0  0  0  0  0
    9.9876  -15.9676   22.5086 O   0  0  0  0  0  0  0  0  0  0  0  0
    6.8366  -17.9536   24.7340 C   0  0  0  0  0  0  0  0  0  0  0  0
    8.0783  -17.2756   24.2143 C   0  0  2  0  0  0  0  0  0  0  0  0
    8.4330  -17.6147   22.8714 N   0  0  0  0  0  0  0  0  0  0  0  0
    9.2020  -17.3054   25.1781 C   0  0  0  0  0  0  0  0  0  0  0  0
   10.2268  -18.0052   25.0804 O   0  0  0  0  0  0  0  0  0  0  0  0
   10.1843  -13.4848   29.8056 C   0  0  0  0  0  0  0  0  0  0  0  0
    9.8043  -14.7902   29.1630 C   0  0  0  0  0  0  0  0  0  0  0  0
   10.5964  -15.1748   27.9609 C   0  0  2  0  0  0  0  0  0  0  0  0
   10.5004  -13.9522   26.9941 C   0  0  0  0  0  0  0  0  0  0  0  0
   10.2194  -16.3850   27.2406 C   0  0  2  0  0  0  0  0  0  0  0  0
    9.1229  -16.4309   26.3490 N   0  0  0  0  0  0  0  0  0  0  0  0
   10.1598  -17.5812   28.2108 C   0  0  0  0  0  0  0  0  0  0  0  0
    9.1258  -18.2048   28.4464 O   0  0  0  0  0  0  0  0  0  0  0  0
   11.3463  -17.9859   28.8495 O   0  0  0  0  0  0  0  0  0  0  0  0
  1  2  1  0
  2  3  2  0
  4  2  1  0
  4  5  1  0
  5  6  1  6
  7  5  1  0
  7 11  1  0
  8  7  2  0
 10  9  1  1
 10 11  1  0
 10 12  1  0
 12 19  1  0
 13 12  2  0
 15 16  1  0
 15 14  1  0
 16 18  1  0
 16 17  1  6
 18 20  1  0
 18 19  1  1
 20 22  1  0
 21 20  2  0
M  END
$$$$
