NAI.pdb
     RDKit          3D

 22 21  0  0  1  0  0  0  0  0999 V2000
    8.0584  -12.5722   16.4361 N   0  0  0  0  0  0  0  0  0  0  0  0
    7.9820  -14.0020   16.5780 C   0  0  0  0  0  0  0  0  0  0  0  0
    8.2834  -14.6960   15.5984 O   0  0  0  0  0  0  0  0  0  0  0  0
    7.5530  -14.6109   17.8401 C   0  0  0  0  0  0  0  0  0  0  0  0
    8.6796  -14.7485   18.7949 C   0  0  2  0  0  0  0  0  0  0  0  0
    9.6556  -15.6632   18.2901 N   0  0  0  0  0  0  0  0  0  0  0  0
    8.2714  -15.1190   20.1716 C   0  0  0  0  0  0  0  0  0  0  0  0
    7.4539  -14.3772   20.7896 O   0  0  0  0  0  0  0  0  0  0  0  0
    8.8661  -18.1089   22.4822 C   0  0  0  0  0  0  0  0  0  0  0  0
    8.4494  -16.6974   22.1573 C   0  0  2  0  0  0  0  0  0  0  0  0
    8.7430  -16.2741   20.8236 N   0  0  0  0  0  0  0  0  0  0  0  0
    8.8203  -15.7258   23.2113 C   0  0  0  0  0  0  0  0  0  0  0  0
    9.8627  -15.0460   23.2408 O   0  0  0  0  0  0  0  0  0  0  0  0
    6.7679  -11.2705   26.8028 C   0  0  0  0  0  0  0  0  0  0  0  0
    7.6989  -12.4355   26.6095 C   0  0  0  0  0  0  0  0  0  0  0  0
    7.2702  -13.4466   25.6024 C   0  0  2  0  0  0  0  0  0  0  0  0
    5.9293  -14.0316   26.1490 C   0  0  0  0  0  0  0  0  0  0  0  0
    8.1790  -14.5434   25.2914 C   0  0  2  0  0  0  0  0  0  0  0  0
    7.8836  -15.5252   24.3178 N   0  0  0  0  0  0  0  0  0  0  0  0
    8.6582  -15.2182   26.5916 C   0  0  0  0  0  0  0  0  0  0  0  0
    9.2872  -14.6231   27.4655 O   0  0  0  0  0  0  0  0  0  0  0  0
    8.3529  -16.5767   26.7936 O   0  0  0  0  0  0  0  0  0  0  0  0
  1  2  1  0
  2  3  2  0
  4  2  1  0
  4  5  1  0
  5  6  1  6
  7  5  1  0
  7 11  1  0
  8  7  2  0
 10  9  1  1
 10 11  1  0
 10 12  1  0
 12 19  1  0
 13 12  2  0
 15 16  1  0
 15 14  1  0
 16 18  1  0
 16 17  1  1
 18 20  1  0
 18 19  1  6
 20 22  1  0
 21 20  2  0
M  END
$$$$
