NAI.pdb
     RDKit          3D

 22 21  0  0  1  0  0  0  0  0999 V2000
    8.1555  -12.7302   16.1155 N   0  0  0  0  0  0  0  0  0  0  0  0
    7.8642  -14.1044   16.4268 C   0  0  0  0  0  0  0  0  0  0  0  0
    7.9753  -14.9379   15.5184 O   0  0  0  0  0  0  0  0  0  0  0  0
    7.4425  -14.4975   17.7741 C   0  0  0  0  0  0  0  0  0  0  0  0
    8.5902  -14.5678   18.7108 C   0  0  2  0  0  0  0  0  0  0  0  0
    9.6167  -15.4118   18.1835 N   0  0  0  0  0  0  0  0  0  0  0  0
    8.2285  -14.9753   20.0901 C   0  0  0  0  0  0  0  0  0  0  0  0
    7.3791  -14.2897   20.7296 O   0  0  0  0  0  0  0  0  0  0  0  0
    8.8990  -18.0177   22.2920 C   0  0  0  0  0  0  0  0  0  0  0  0
    8.4969  -16.5875   22.0382 C   0  0  2  0  0  0  0  0  0  0  0  0
    8.7792  -16.1066   20.7217 N   0  0  0  0  0  0  0  0  0  0  0  0
    8.8940  -15.6706   23.1310 C   0  0  0  0  0  0  0  0  0  0  0  0
    9.9764  -15.0614   23.2132 O   0  0  0  0  0  0  0  0  0  0  0  0
    7.1600  -11.1695   26.8017 C   0  0  0  0  0  0  0  0  0  0  0  0
    7.9630  -12.4267   26.6123 C   0  0  0  0  0  0  0  0  0  0  0  0
    7.4937  -13.3379   25.5307 C   0  0  2  0  0  0  0  0  0  0  0  0
    6.0479  -13.7595   25.9438 C   0  0  0  0  0  0  0  0  0  0  0  0
    8.2769  -14.5335   25.2434 C   0  0  2  0  0  0  0  0  0  0  0  0
    7.9354  -15.4388   24.2124 N   0  0  0  0  0  0  0  0  0  0  0  0
    8.5640  -15.3038   26.5472 C   0  0  0  0  0  0  0  0  0  0  0  0
    8.0337  -16.3790   26.8233 O   0  0  0  0  0  0  0  0  0  0  0  0
    9.4840  -14.7567   27.4603 O   0  0  0  0  0  0  0  0  0  0  0  0
  1  2  1  0
  2  3  2  0
  4  2  1  0
  4  5  1  0
  5  6  1  6
  7  5  1  0
  7 11  1  0
  8  7  2  0
 10  9  1  1
 10 11  1  0
 10 12  1  0
 12 19  1  0
 13 12  2  0
 15 16  1  0
 15 14  1  0
 16 18  1  0
 16 17  1  1
 18 20  1  0
 18 19  1  6
 20 22  1  0
 21 20  2  0
M  END
$$$$
