NAI.pdb
     RDKit          3D

 22 21  0  0  1  0  0  0  0  0999 V2000
    8.1503  -12.5619   16.9127 N   0  0  0  0  0  0  0  0  0  0  0  0
    7.9129  -13.9593   17.1605 C   0  0  0  0  0  0  0  0  0  0  0  0
    8.2248  -14.7638   16.2731 O   0  0  0  0  0  0  0  0  0  0  0  0
    7.3138  -14.4087   18.4201 C   0  0  0  0  0  0  0  0  0  0  0  0
    8.3301  -14.9711   19.3423 C   0  0  2  0  0  0  0  0  0  0  0  0
    8.8406  -16.2056   18.8330 N   0  0  0  0  0  0  0  0  0  0  0  0
    7.8639  -15.1299   20.7412 C   0  0  0  0  0  0  0  0  0  0  0  0
    7.3684  -14.1315   21.3398 O   0  0  0  0  0  0  0  0  0  0  0  0
    7.4489  -18.0565   23.1661 C   0  0  0  0  0  0  0  0  0  0  0  0
    7.5612  -16.6003   22.7936 C   0  0  2  0  0  0  0  0  0  0  0  0
    7.9336  -16.3525   21.4357 N   0  0  0  0  0  0  0  0  0  0  0  0
    8.3033  -15.8010   23.7951 C   0  0  0  0  0  0  0  0  0  0  0  0
    9.5328  -15.6068   23.8058 O   0  0  0  0  0  0  0  0  0  0  0  0
    6.1907  -11.7718   27.7464 C   0  0  0  0  0  0  0  0  0  0  0  0
    6.3596  -12.8772   26.7409 C   0  0  0  0  0  0  0  0  0  0  0  0
    7.7084  -12.9839   26.1166 C   0  0  2  0  0  0  0  0  0  0  0  0
    7.6363  -12.1092   24.8249 C   0  0  0  0  0  0  0  0  0  0  0  0
    8.2087  -14.3087   25.7699 C   0  0  2  0  0  0  0  0  0  0  0  0
    7.5368  -15.1650   24.8675 N   0  0  0  0  0  0  0  0  0  0  0  0
    8.5868  -15.0825   27.0481 C   0  0  0  0  0  0  0  0  0  0  0  0
    8.0971  -16.1716   27.3442 O   0  0  0  0  0  0  0  0  0  0  0  0
    9.5452  -14.5219   27.9123 O   0  0  0  0  0  0  0  0  0  0  0  0
  1  2  1  0
  2  3  2  0
  4  2  1  0
  4  5  1  0
  5  6  1  6
  7  5  1  0
  7 11  1  0
  8  7  2  0
 10  9  1  1
 10 11  1  0
 10 12  1  0
 12 19  1  0
 13 12  2  0
 15 16  1  0
 15 14  1  0
 16 18  1  0
 16 17  1  6
 18 20  1  0
 18 19  1  1
 20 22  1  0
 21 20  2  0
M  END
$$$$
