NAI.pdb
     RDKit          3D

 22 21  0  0  1  0  0  0  0  0999 V2000
    8.0722  -17.8959   17.1066 N   0  0  0  0  0  0  0  0  0  0  0  0
    6.9470  -17.4675   17.8944 C   0  0  0  0  0  0  0  0  0  0  0  0
    5.8947  -17.2001   17.3000 O   0  0  0  0  0  0  0  0  0  0  0  0
    7.0513  -17.3456   19.3511 C   0  0  0  0  0  0  0  0  0  0  0  0
    8.4161  -17.6685   19.8334 C   0  0  2  0  0  0  0  0  0  0  0  0
    8.9016  -18.8576   19.2051 N   0  0  0  0  0  0  0  0  0  0  0  0
    8.5357  -17.7646   21.3085 C   0  0  0  0  0  0  0  0  0  0  0  0
    7.7520  -18.5321   21.9388 O   0  0  0  0  0  0  0  0  0  0  0  0
   10.9993  -18.0818   23.7206 C   0  0  0  0  0  0  0  0  0  0  0  0
    9.8146  -17.1960   23.4314 C   0  0  2  0  0  0  0  0  0  0  0  0
    9.4971  -17.0473   22.0454 N   0  0  0  0  0  0  0  0  0  0  0  0
    9.8342  -15.9314   24.2015 C   0  0  0  0  0  0  0  0  0  0  0  0
   10.6262  -14.9866   24.0299 O   0  0  0  0  0  0  0  0  0  0  0  0
    5.8539  -12.4174   25.5813 C   0  0  0  0  0  0  0  0  0  0  0  0
    7.1106  -13.1709   25.2432 C   0  0  0  0  0  0  0  0  0  0  0  0
    7.8590  -13.7346   26.4019 C   0  0  2  0  0  0  0  0  0  0  0  0
    8.4074  -12.4973   27.1811 C   0  0  0  0  0  0  0  0  0  0  0  0
    8.9562  -14.6570   26.1357 C   0  0  2  0  0  0  0  0  0  0  0  0
    8.8319  -15.7548   25.2533 N   0  0  0  0  0  0  0  0  0  0  0  0
    9.5946  -15.1162   27.4613 C   0  0  0  0  0  0  0  0  0  0  0  0
    9.4017  -16.2285   27.9504 O   0  0  0  0  0  0  0  0  0  0  0  0
   10.4466  -14.2250   28.1390 O   0  0  0  0  0  0  0  0  0  0  0  0
  1  2  1  0
  2  3  2  0
  4  2  1  0
  4  5  1  0
  5  6  1  6
  7  5  1  0
  7 11  1  0
  8  7  2  0
 10  9  1  6
 10 11  1  0
 10 12  1  0
 12 19  1  0
 13 12  2  0
 15 16  1  0
 15 14  1  0
 16 18  1  0
 16 17  1  6
 18 20  1  0
 18 19  1  1
 20 22  1  0
 21 20  2  0
M  END
$$$$
