NAI.pdb
     RDKit          3D

 22 21  0  0  1  0  0  0  0  0999 V2000
    7.6153  -12.7968   16.9179 N   0  0  0  0  0  0  0  0  0  0  0  0
    8.5085  -13.4981   17.8016 C   0  0  0  0  0  0  0  0  0  0  0  0
    9.6342  -13.7859   17.3749 O   0  0  0  0  0  0  0  0  0  0  0  0
    8.0911  -13.8642   19.1578 C   0  0  0  0  0  0  0  0  0  0  0  0
    8.2956  -15.3087   19.4248 C   0  0  2  0  0  0  0  0  0  0  0  0
    7.5430  -16.1004   18.5023 N   0  0  0  0  0  0  0  0  0  0  0  0
    8.0146  -15.7171   20.8225 C   0  0  0  0  0  0  0  0  0  0  0  0
    6.9217  -15.3681   21.3556 O   0  0  0  0  0  0  0  0  0  0  0  0
    9.3214  -18.2669   23.2638 C   0  0  0  0  0  0  0  0  0  0  0  0
    8.7505  -16.9090   22.9447 C   0  0  2  0  0  0  0  0  0  0  0  0
    8.9072  -16.4933   21.5858 N   0  0  0  0  0  0  0  0  0  0  0  0
    9.1013  -15.8812   23.9512 C   0  0  0  0  0  0  0  0  0  0  0  0
   10.0990  -15.1377   23.9155 O   0  0  0  0  0  0  0  0  0  0  0  0
    5.8122  -12.0771   26.0982 C   0  0  0  0  0  0  0  0  0  0  0  0
    6.9890  -12.8654   25.5934 C   0  0  0  0  0  0  0  0  0  0  0  0
    7.6485  -13.7546   26.5907 C   0  0  2  0  0  0  0  0  0  0  0  0
    8.4252  -12.7966   27.5488 C   0  0  0  0  0  0  0  0  0  0  0  0
    8.5575  -14.7860   26.1055 C   0  0  2  0  0  0  0  0  0  0  0  0
    8.1988  -15.7014   25.0893 N   0  0  0  0  0  0  0  0  0  0  0  0
    9.1865  -15.5387   27.2944 C   0  0  0  0  0  0  0  0  0  0  0  0
   10.1500  -15.1096   27.9278 O   0  0  0  0  0  0  0  0  0  0  0  0
    8.6259  -16.7700   27.6805 O   0  0  0  0  0  0  0  0  0  0  0  0
  1  2  1  0
  2  3  2  0
  4  2  1  0
  4  5  1  0
  5  6  1  6
  7  5  1  0
  7 11  1  0
  8  7  2  0
 10  9  1  1
 10 11  1  0
 10 12  1  0
 12 19  1  0
 13 12  2  0
 15 16  1  0
 15 14  1  0
 16 18  1  0
 16 17  1  1
 18 20  1  0
 18 19  1  6
 20 22  1  0
 21 20  2  0
M  END
$$$$
