ENR.pdb
     RDKit          3D

 29 28  0  0  1  0  0  0  0  0999 V2000
   23.0714  -20.0450   -9.8804 N   0  0  0  0  0  0  0  0  0  0  0  0
   23.7863  -21.1922  -10.4038 C   0  0  1  0  0  0  0  0  0  0  0  0
   22.9366  -22.0184  -11.3287 C   0  0  0  0  0  0  0  0  0  0  0  0
   22.5274  -21.2892  -12.5651 C   0  0  0  0  0  0  0  0  0  0  0  0
   21.0877  -21.3007  -12.8362 C   0  0  0  0  0  0  0  0  0  0  0  0
   20.3150  -21.2644  -11.8347 O   0  0  0  0  0  0  0  0  0  0  0  0
   24.9332  -20.6605  -11.2232 C   0  0  0  0  0  0  0  0  0  0  0  0
   24.7470  -19.6520  -11.9114 O   0  0  0  0  0  0  0  0  0  0  0  0
   20.4852  -21.3477  -14.0753 O   0  0  0  0  0  0  0  0  0  0  0  0
   30.7001  -19.5644  -11.6811 N   0  0  0  0  0  0  0  0  0  0  0  0
   29.8280  -20.5932  -12.0812 C   0  0  0  0  0  0  0  0  0  0  0  0
   30.0875  -21.1506  -13.1939 O   0  0  0  0  0  0  0  0  0  0  0  0
   28.6554  -21.0700  -11.3259 C   0  0  0  0  0  0  0  0  0  0  0  0
   27.3359  -20.8125  -11.9752 C   0  0  2  0  0  0  0  0  0  0  0  0
   26.1978  -21.2873  -11.2166 N   0  0  0  0  0  0  0  0  0  0  0  0
   27.2737  -21.3941  -13.3364 C   0  0  0  0  0  0  0  0  0  0  0  0
   27.1617  -22.6461  -13.5096 O   0  0  0  0  0  0  0  0  0  0  0  0
   20.9149  -23.9256  -17.0727 N   0  0  0  0  0  0  0  0  0  0  0  0
   21.8003  -23.8459  -18.2073 C   0  0  0  0  0  0  0  0  0  0  0  0
   21.3681  -24.3328  -19.3106 N   0  0  0  0  0  0  0  0  0  0  0  0
   23.0847  -23.2563  -18.0992 N   0  0  0  0  0  0  0  0  0  0  0  0
   23.5855  -22.7343  -16.8526 C   0  0  0  0  0  0  0  0  0  0  0  0
   24.9794  -22.1765  -16.9871 C   0  0  0  0  0  0  0  0  0  0  0  0
   25.5399  -21.6346  -15.7016 C   0  0  0  0  0  0  0  0  0  0  0  0
   26.9159  -21.0739  -15.8152 C   0  0  2  0  0  0  0  0  0  0  0  0
   27.3356  -20.6025  -14.5152 N   0  0  0  0  0  0  0  0  0  0  0  0
   27.0868  -20.0187  -16.7977 C   0  0  0  0  0  0  0  0  0  0  0  0
   26.4761  -18.7916  -16.5855 O   0  0  0  0  0  0  0  0  0  0  0  0
   27.7576  -20.1113  -17.8595 O   0  0  0  0  0  0  0  0  0  0  0  0
  2  1  1  6
  3  2  1  0
  4  3  1  0
  5  4  1  0
  5  6  2  0
  7  8  2  0
  7  2  1  0
  9  5  1  0
 11 10  1  0
 12 11  2  0
 14 13  1  1
 13 11  1  0
 14 15  1  0
 15  7  1  0
 16 26  1  0
 16 14  1  0
 17 16  2  0
 19 18  1  0
 19 21  1  0
 20 19  2  0
 22 21  1  0
 23 22  1  0
 24 23  1  0
 25 24  1  1
 25 26  1  0
 27 28  1  0
 27 25  1  0
 29 27  2  0
M  END
$$$$
