ENR.pdb
     RDKit          3D

 29 28  0  0  1  0  0  0  0  0999 V2000
   28.7999  -21.3747  -16.7260 N   0  0  0  0  0  0  0  0  0  0  0  0
   29.4868  -20.5554  -15.7472 C   0  0  1  0  0  0  0  0  0  0  0  0
   29.2602  -19.0868  -15.9751 C   0  0  0  0  0  0  0  0  0  0  0  0
   27.8477  -18.7538  -16.3242 C   0  0  0  0  0  0  0  0  0  0  0  0
   27.5889  -17.3282  -16.5409 C   0  0  0  0  0  0  0  0  0  0  0  0
   26.3835  -16.9836  -16.7130 O   0  0  0  0  0  0  0  0  0  0  0  0
   28.8935  -20.8849  -14.4023 C   0  0  0  0  0  0  0  0  0  0  0  0
   27.7664  -21.3883  -14.3637 O   0  0  0  0  0  0  0  0  0  0  0  0
   28.5273  -16.3189  -16.5770 O   0  0  0  0  0  0  0  0  0  0  0  0
   32.5923  -21.5230  -10.4026 N   0  0  0  0  0  0  0  0  0  0  0  0
   31.3233  -21.7634  -10.9605 C   0  0  0  0  0  0  0  0  0  0  0  0
   31.2039  -22.8233  -11.6522 O   0  0  0  0  0  0  0  0  0  0  0  0
   30.1390  -20.8988  -10.8100 C   0  0  0  0  0  0  0  0  0  0  0  0
   29.1204  -21.0252  -11.8941 C   0  0  2  0  0  0  0  0  0  0  0  0
   29.5950  -20.6314  -13.2040 N   0  0  0  0  0  0  0  0  0  0  0  0
   27.8933  -20.2553  -11.5839 C   0  0  0  0  0  0  0  0  0  0  0  0
   27.8411  -19.0016  -11.7722 O   0  0  0  0  0  0  0  0  0  0  0  0
   21.2384  -21.2257  -15.1348 N   0  0  0  0  0  0  0  0  0  0  0  0
   21.0360  -19.8050  -14.9992 C   0  0  0  0  0  0  0  0  0  0  0  0
   19.8465  -19.3713  -15.1950 N   0  0  0  0  0  0  0  0  0  0  0  0
   22.1057  -18.9371  -14.6656 N   0  0  0  0  0  0  0  0  0  0  0  0
   23.4391  -19.4250  -14.4177 C   0  0  0  0  0  0  0  0  0  0  0  0
   23.7207  -19.5923  -12.9463 C   0  0  0  0  0  0  0  0  0  0  0  0
   25.1096  -20.0848  -12.6493 C   0  0  0  0  0  0  0  0  0  0  0  0
   25.3977  -20.2849  -11.2009 C   0  0  2  0  0  0  0  0  0  0  0  0
   26.7166  -20.8593  -11.0634 N   0  0  0  0  0  0  0  0  0  0  0  0
   24.4341  -21.0905  -10.4726 C   0  0  0  0  0  0  0  0  0  0  0  0
   23.3088  -20.4806   -9.9386 O   0  0  0  0  0  0  0  0  0  0  0  0
   24.5229  -22.3305  -10.2713 O   0  0  0  0  0  0  0  0  0  0  0  0
  2  1  1  6
  3  2  1  0
  4  3  1  0
  5  4  1  0
  5  6  2  0
  7  8  2  0
  7  2  1  0
  9  5  1  0
 11 10  1  0
 12 11  2  0
 14 13  1  1
 13 11  1  0
 14 15  1  0
 15  7  1  0
 16 26  1  0
 16 14  1  0
 17 16  2  0
 19 18  1  0
 19 21  1  0
 20 19  2  0
 22 21  1  0
 23 22  1  0
 24 23  1  0
 25 24  1  6
 25 26  1  0
 27 28  1  0
 27 25  1  0
 29 27  2  0
M  END
$$$$
