ENR.pdb
     RDKit          3D

 29 28  0  0  1  0  0  0  0  0999 V2000
   24.1629  -20.7508  -15.3264 N   0  0  0  0  0  0  0  0  0  0  0  0
   23.7371  -20.3255  -16.6451 C   0  0  1  0  0  0  0  0  0  0  0  0
   22.2867  -19.9314  -16.6750 C   0  0  0  0  0  0  0  0  0  0  0  0
   21.8269  -19.4703  -18.0181 C   0  0  0  0  0  0  0  0  0  0  0  0
   21.2049  -20.5087  -18.8435 C   0  0  0  0  0  0  0  0  0  0  0  0
   20.1739  -21.0732  -18.3747 O   0  0  0  0  0  0  0  0  0  0  0  0
   24.5315  -19.0923  -16.9883 C   0  0  0  0  0  0  0  0  0  0  0  0
   24.6994  -18.2378  -16.1126 O   0  0  0  0  0  0  0  0  0  0  0  0
   21.6289  -20.9363  -20.0837 O   0  0  0  0  0  0  0  0  0  0  0  0
   28.7083  -16.0386  -19.1176 N   0  0  0  0  0  0  0  0  0  0  0  0
   27.8279  -16.8325  -19.8751 C   0  0  0  0  0  0  0  0  0  0  0  0
   27.6566  -16.4850  -21.0859 O   0  0  0  0  0  0  0  0  0  0  0  0
   27.0992  -18.0167  -19.3858 C   0  0  0  0  0  0  0  0  0  0  0  0
   25.8239  -17.7236  -18.6670 C   0  0  2  0  0  0  0  0  0  0  0  0
   25.0786  -18.9014  -18.2754 N   0  0  0  0  0  0  0  0  0  0  0  0
   24.9365  -16.8450  -19.4643 C   0  0  0  0  0  0  0  0  0  0  0  0
   24.0902  -17.3308  -20.2753 O   0  0  0  0  0  0  0  0  0  0  0  0
   18.7588  -11.1639  -17.9321 N   0  0  0  0  0  0  0  0  0  0  0  0
   18.8872  -11.2476  -19.3653 C   0  0  0  0  0  0  0  0  0  0  0  0
   17.9212  -10.7710  -20.0590 N   0  0  0  0  0  0  0  0  0  0  0  0
   20.0290  -11.8301  -19.9698 N   0  0  0  0  0  0  0  0  0  0  0  0
   21.0427  -12.5060  -19.1997 C   0  0  0  0  0  0  0  0  0  0  0  0
   22.1570  -13.0367  -20.0651 C   0  0  0  0  0  0  0  0  0  0  0  0
   23.1274  -13.9172  -19.3280 C   0  0  0  0  0  0  0  0  0  0  0  0
   24.1620  -14.5543  -20.1908 C   0  0  2  0  0  0  0  0  0  0  0  0
   24.9754  -15.4270  -19.3754 N   0  0  0  0  0  0  0  0  0  0  0  0
   25.0138  -13.6411  -20.9314 C   0  0  0  0  0  0  0  0  0  0  0  0
   24.5160  -13.0247  -22.0697 O   0  0  0  0  0  0  0  0  0  0  0  0
   26.2002  -13.3437  -20.6315 O   0  0  0  0  0  0  0  0  0  0  0  0
  2  1  1  1
  3  2  1  0
  4  3  1  0
  5  4  1  0
  5  6  2  0
  7  8  2  0
  7  2  1  0
  9  5  1  0
 11 10  1  0
 12 11  2  0
 14 13  1  6
 13 11  1  0
 14 15  1  0
 15  7  1  0
 16 26  1  0
 16 14  1  0
 17 16  2  0
 19 18  1  0
 19 21  1  0
 20 19  2  0
 22 21  1  0
 23 22  1  0
 24 23  1  0
 25 24  1  1
 25 26  1  0
 27 28  1  0
 27 25  1  0
 29 27  2  0
M  END
$$$$
