ENR.pdb
     RDKit          3D

 29 28  0  0  1  0  0  0  0  0999 V2000
   26.2329  -18.9057  -15.4345 N   0  0  0  0  0  0  0  0  0  0  0  0
   26.5205  -20.3234  -15.5261 C   0  0  1  0  0  0  0  0  0  0  0  0
   27.9898  -20.6152  -15.3987 C   0  0  0  0  0  0  0  0  0  0  0  0
   28.8519  -19.6362  -16.1241 C   0  0  0  0  0  0  0  0  0  0  0  0
   29.0346  -19.9181  -17.5501 C   0  0  0  0  0  0  0  0  0  0  0  0
   29.6762  -19.0624  -18.2265 O   0  0  0  0  0  0  0  0  0  0  0  0
   25.8408  -20.9874  -14.3571 C   0  0  0  0  0  0  0  0  0  0  0  0
   26.0333  -22.1932  -14.1716 O   0  0  0  0  0  0  0  0  0  0  0  0
   28.5775  -21.0243  -18.2342 O   0  0  0  0  0  0  0  0  0  0  0  0
   26.5723  -21.4845  -10.8068 N   0  0  0  0  0  0  0  0  0  0  0  0
   25.5886  -20.5777  -10.3719 C   0  0  0  0  0  0  0  0  0  0  0  0
   25.7967  -20.0161   -9.2504 O   0  0  0  0  0  0  0  0  0  0  0  0
   24.3549  -20.2311  -11.1003 C   0  0  0  0  0  0  0  0  0  0  0  0
   24.2070  -20.8759  -12.4387 C   0  0  2  0  0  0  0  0  0  0  0  0
   25.0005  -20.2640  -13.4837 N   0  0  0  0  0  0  0  0  0  0  0  0
   22.7919  -20.9089  -12.8763 C   0  0  0  0  0  0  0  0  0  0  0  0
   22.2727  -19.9272  -13.4899 O   0  0  0  0  0  0  0  0  0  0  0  0
   18.0264  -27.8745  -13.1096 N   0  0  0  0  0  0  0  0  0  0  0  0
   18.8510  -27.2061  -12.1344 C   0  0  0  0  0  0  0  0  0  0  0  0
   19.4305  -27.9474  -11.2649 N   0  0  0  0  0  0  0  0  0  0  0  0
   19.0077  -25.7976  -12.1436 N   0  0  0  0  0  0  0  0  0  0  0  0
   17.9833  -24.9161  -12.6446 C   0  0  0  0  0  0  0  0  0  0  0  0
   18.5166  -23.5409  -12.9556 C   0  0  0  0  0  0  0  0  0  0  0  0
   20.0012  -23.4097  -12.7583 C   0  0  0  0  0  0  0  0  0  0  0  0
   20.5359  -22.0375  -12.9857 C   0  0  2  0  0  0  0  0  0  0  0  0
   21.9391  -22.0213  -12.6406 N   0  0  0  0  0  0  0  0  0  0  0  0
   19.8467  -20.9689  -12.2849 C   0  0  0  0  0  0  0  0  0  0  0  0
   18.9009  -20.2149  -12.9635 O   0  0  0  0  0  0  0  0  0  0  0  0
   20.0295  -20.6488  -11.0807 O   0  0  0  0  0  0  0  0  0  0  0  0
  2  1  1  1
  3  2  1  0
  4  3  1  0
  5  4  1  0
  5  6  2  0
  7  8  2  0
  7  2  1  0
  9  5  1  0
 11 10  1  0
 12 11  2  0
 14 13  1  1
 13 11  1  0
 14 15  1  0
 15  7  1  0
 16 26  1  0
 16 14  1  0
 17 16  2  0
 19 18  1  0
 19 21  1  0
 20 19  2  0
 22 21  1  0
 23 22  1  0
 24 23  1  0
 25 24  1  1
 25 26  1  0
 27 28  1  0
 27 25  1  0
 29 27  2  0
M  END
$$$$
