ENR.pdb
     RDKit          3D

 29 28  0  0  1  0  0  0  0  0999 V2000
   26.5474  -20.3886   -9.6114 N   0  0  0  0  0  0  0  0  0  0  0  0
   27.3690  -20.1238  -10.7758 C   0  0  1  0  0  0  0  0  0  0  0  0
   28.0460  -21.3643  -11.2884 C   0  0  0  0  0  0  0  0  0  0  0  0
   29.1089  -21.8780  -10.3749 C   0  0  0  0  0  0  0  0  0  0  0  0
   30.2666  -22.4684  -11.0514 C   0  0  0  0  0  0  0  0  0  0  0  0
   30.1993  -22.5821  -12.3099 O   0  0  0  0  0  0  0  0  0  0  0  0
   26.4462  -19.6476  -11.8672 C   0  0  0  0  0  0  0  0  0  0  0  0
   25.3106  -19.2745  -11.5566 O   0  0  0  0  0  0  0  0  0  0  0  0
   31.4269  -22.9150  -10.4556 O   0  0  0  0  0  0  0  0  0  0  0  0
   27.1281  -15.8594  -14.2768 N   0  0  0  0  0  0  0  0  0  0  0  0
   27.6861  -16.8067  -15.1546 C   0  0  0  0  0  0  0  0  0  0  0  0
   28.5607  -16.3732  -15.9691 O   0  0  0  0  0  0  0  0  0  0  0  0
   27.3439  -18.2396  -15.2054 C   0  0  0  0  0  0  0  0  0  0  0  0
   26.3380  -18.6869  -14.1969 C   0  0  2  0  0  0  0  0  0  0  0  0
   26.8530  -19.6217  -13.2185 N   0  0  0  0  0  0  0  0  0  0  0  0
   25.1459  -19.2852  -14.8418 C   0  0  0  0  0  0  0  0  0  0  0  0
   24.4877  -18.6492  -15.7205 O   0  0  0  0  0  0  0  0  0  0  0  0
   18.0408  -23.5835  -12.8388 N   0  0  0  0  0  0  0  0  0  0  0  0
   19.2669  -23.5695  -12.0810 C   0  0  0  0  0  0  0  0  0  0  0  0
   19.4410  -24.5283  -11.2493 N   0  0  0  0  0  0  0  0  0  0  0  0
   20.2276  -22.5419  -12.2533 N   0  0  0  0  0  0  0  0  0  0  0  0
   20.0379  -21.4657  -13.1931 C   0  0  0  0  0  0  0  0  0  0  0  0
   21.0363  -21.5116  -14.3216 C   0  0  0  0  0  0  0  0  0  0  0  0
   22.4363  -21.1565  -13.9045 C   0  0  0  0  0  0  0  0  0  0  0  0
   23.4236  -21.1228  -15.0202 C   0  0  2  0  0  0  0  0  0  0  0  0
   24.6699  -20.5860  -14.5233 N   0  0  0  0  0  0  0  0  0  0  0  0
   23.0117  -20.3898  -16.2038 C   0  0  0  0  0  0  0  0  0  0  0  0
   22.8752  -21.0678  -17.4059 O   0  0  0  0  0  0  0  0  0  0  0  0
   22.7575  -19.1570  -16.2474 O   0  0  0  0  0  0  0  0  0  0  0  0
  2  1  1  1
  3  2  1  0
  4  3  1  0
  5  4  1  0
  5  6  2  0
  7  8  2  0
  7  2  1  0
  9  5  1  0
 11 10  1  0
 12 11  2  0
 14 13  1  6
 13 11  1  0
 14 15  1  0
 15  7  1  0
 16 26  1  0
 16 14  1  0
 17 16  2  0
 19 18  1  0
 19 21  1  0
 20 19  2  0
 22 21  1  0
 23 22  1  0
 24 23  1  0
 25 24  1  1
 25 26  1  0
 27 28  1  0
 27 25  1  0
 29 27  2  0
M  END
$$$$
