ENR.pdb
     RDKit          3D

 29 28  0  0  1  0  0  0  0  0999 V2000
   18.9212  -14.9717  -17.5699 N   0  0  0  0  0  0  0  0  0  0  0  0
   18.1979  -13.8061  -18.0382 C   0  0  1  0  0  0  0  0  0  0  0  0
   17.4227  -13.1374  -16.9373 C   0  0  0  0  0  0  0  0  0  0  0  0
   16.2603  -13.9427  -16.4594 C   0  0  0  0  0  0  0  0  0  0  0  0
   15.4562  -13.3005  -15.4167 C   0  0  0  0  0  0  0  0  0  0  0  0
   15.6280  -13.7040  -14.2296 O   0  0  0  0  0  0  0  0  0  0  0  0
   19.2249  -12.8122  -18.5146 C   0  0  0  0  0  0  0  0  0  0  0  0
   20.3614  -12.8642  -18.0342 O   0  0  0  0  0  0  0  0  0  0  0  0
   14.5273  -12.2977  -15.5961 O   0  0  0  0  0  0  0  0  0  0  0  0
   22.3032  -10.1075  -22.0839 N   0  0  0  0  0  0  0  0  0  0  0  0
   20.9032   -9.9762  -22.1291 C   0  0  0  0  0  0  0  0  0  0  0  0
   20.4527   -8.9542  -22.7365 O   0  0  0  0  0  0  0  0  0  0  0  0
   19.9312  -10.9137  -21.5383 C   0  0  0  0  0  0  0  0  0  0  0  0
   19.8825  -10.9191  -20.0462 C   0  0  2  0  0  0  0  0  0  0  0  0
   18.9131  -11.8375  -19.4868 N   0  0  0  0  0  0  0  0  0  0  0  0
   19.6212   -9.5657  -19.5028 C   0  0  0  0  0  0  0  0  0  0  0  0
   18.4468   -9.0863  -19.4748 O   0  0  0  0  0  0  0  0  0  0  0  0
   21.8488   -8.1299  -11.8987 N   0  0  0  0  0  0  0  0  0  0  0  0
   20.6110   -8.7346  -12.3228 C   0  0  0  0  0  0  0  0  0  0  0  0
   19.9413   -9.3632  -11.4297 N   0  0  0  0  0  0  0  0  0  0  0  0
   20.1637   -8.6343  -13.6639 N   0  0  0  0  0  0  0  0  0  0  0  0
   20.9271   -7.9498  -14.6768 C   0  0  0  0  0  0  0  0  0  0  0  0
   20.2328   -7.9548  -16.0148 C   0  0  0  0  0  0  0  0  0  0  0  0
   21.0301   -7.3058  -17.1117 C   0  0  0  0  0  0  0  0  0  0  0  0
   20.4141   -7.4049  -18.4650 C   0  0  2  0  0  0  0  0  0  0  0  0
   20.6502   -8.7311  -18.9882 N   0  0  0  0  0  0  0  0  0  0  0  0
   20.8516   -6.4123  -19.4301 C   0  0  0  0  0  0  0  0  0  0  0  0
   20.6125   -5.0701  -19.1756 O   0  0  0  0  0  0  0  0  0  0  0  0
   21.4468   -6.6589  -20.5122 O   0  0  0  0  0  0  0  0  0  0  0  0
  2  1  1  1
  3  2  1  0
  4  3  1  0
  5  4  1  0
  5  6  2  0
  7  8  2  0
  7  2  1  0
  9  5  1  0
 11 10  1  0
 12 11  2  0
 14 13  1  6
 13 11  1  0
 14 15  1  0
 15  7  1  0
 16 26  1  0
 16 14  1  0
 17 16  2  0
 19 18  1  0
 19 21  1  0
 20 19  2  0
 22 21  1  0
 23 22  1  0
 24 23  1  0
 25 24  1  1
 25 26  1  0
 27 28  1  0
 27 25  1  0
 29 27  2  0
M  END
$$$$
