ENR.pdb
     RDKit          3D

 29 28  0  0  1  0  0  0  0  0999 V2000
   24.4204  -10.7840  -15.3190 N   0  0  0  0  0  0  0  0  0  0  0  0
   23.1921  -10.3754  -15.9710 C   0  0  1  0  0  0  0  0  0  0  0  0
   22.1873  -11.4913  -16.0422 C   0  0  0  0  0  0  0  0  0  0  0  0
   22.6046  -12.6058  -16.9432 C   0  0  0  0  0  0  0  0  0  0  0  0
   21.6614  -13.7247  -17.0125 C   0  0  0  0  0  0  0  0  0  0  0  0
   20.6284  -13.6502  -16.2854 O   0  0  0  0  0  0  0  0  0  0  0  0
   22.5813   -9.2919  -15.1210 C   0  0  0  0  0  0  0  0  0  0  0  0
   22.6482   -9.3996  -13.8925 O   0  0  0  0  0  0  0  0  0  0  0  0
   21.7839  -14.8556  -17.7915 O   0  0  0  0  0  0  0  0  0  0  0  0
   21.6399   -4.1581  -13.1310 N   0  0  0  0  0  0  0  0  0  0  0  0
   21.3088   -4.6640  -14.4013 C   0  0  0  0  0  0  0  0  0  0  0  0
   20.3392   -4.0979  -14.9977 O   0  0  0  0  0  0  0  0  0  0  0  0
   21.9850   -5.7803  -15.0864 C   0  0  0  0  0  0  0  0  0  0  0  0
   21.3277   -7.1115  -14.9291 C   0  0  2  0  0  0  0  0  0  0  0  0
   21.9436   -8.1726  -15.6980 N   0  0  0  0  0  0  0  0  0  0  0  0
   19.8873   -7.0538  -15.2708 C   0  0  0  0  0  0  0  0  0  0  0  0
   19.4989   -7.0753  -16.4786 O   0  0  0  0  0  0  0  0  0  0  0  0
   13.2467  -11.5473  -12.0692 N   0  0  0  0  0  0  0  0  0  0  0  0
   12.6692  -10.2401  -12.2570 C   0  0  0  0  0  0  0  0  0  0  0  0
   11.4307  -10.1089  -11.9565 N   0  0  0  0  0  0  0  0  0  0  0  0
   13.4402   -9.1581  -12.7506 N   0  0  0  0  0  0  0  0  0  0  0  0
   14.7893   -9.3332  -13.2265 C   0  0  0  0  0  0  0  0  0  0  0  0
   15.4052   -8.0358  -13.6846 C   0  0  0  0  0  0  0  0  0  0  0  0
   16.8107   -8.1822  -14.1976 C   0  0  0  0  0  0  0  0  0  0  0  0
   17.4571   -6.9021  -14.6028 C   0  0  2  0  0  0  0  0  0  0  0  0
   18.8654   -6.9708  -14.2864 N   0  0  0  0  0  0  0  0  0  0  0  0
   16.8841   -5.6980  -14.0285 C   0  0  0  0  0  0  0  0  0  0  0  0
   15.6455   -5.2599  -14.4729 O   0  0  0  0  0  0  0  0  0  0  0  0
   17.4195   -4.9884  -13.1364 O   0  0  0  0  0  0  0  0  0  0  0  0
  2  1  1  1
  3  2  1  0
  4  3  1  0
  5  4  1  0
  5  6  2  0
  7  8  2  0
  7  2  1  0
  9  5  1  0
 11 10  1  0
 12 11  2  0
 14 13  1  6
 13 11  1  0
 14 15  1  0
 15  7  1  0
 16 26  1  0
 16 14  1  0
 17 16  2  0
 19 18  1  0
 19 21  1  0
 20 19  2  0
 22 21  1  0
 23 22  1  0
 24 23  1  0
 25 24  1  1
 25 26  1  0
 27 28  1  0
 27 25  1  0
 29 27  2  0
M  END
$$$$
