ENR.pdb
     RDKit          3D

 29 28  0  0  1  0  0  0  0  0999 V2000
   18.5757  -11.2066  -15.3426 N   0  0  0  0  0  0  0  0  0  0  0  0
   18.4457   -9.7635  -15.3035 C   0  0  1  0  0  0  0  0  0  0  0  0
   17.0331   -9.3127  -15.5510 C   0  0  0  0  0  0  0  0  0  0  0  0
   16.5923   -9.4988  -16.9649 C   0  0  0  0  0  0  0  0  0  0  0  0
   15.2659   -8.9571  -17.2705 C   0  0  0  0  0  0  0  0  0  0  0  0
   15.1388   -7.6984  -17.2383 O   0  0  0  0  0  0  0  0  0  0  0  0
   18.8050   -9.3263  -13.9073 C   0  0  0  0  0  0  0  0  0  0  0  0
   18.3852   -9.9923  -12.9557 O   0  0  0  0  0  0  0  0  0  0  0  0
   14.1367   -9.6803  -17.5907 O   0  0  0  0  0  0  0  0  0  0  0  0
   20.8850   -6.7236   -9.7469 N   0  0  0  0  0  0  0  0  0  0  0  0
   21.5011   -6.3423  -10.9529 C   0  0  0  0  0  0  0  0  0  0  0  0
   22.4495   -5.5008  -10.8593 O   0  0  0  0  0  0  0  0  0  0  0  0
   21.1415   -6.8322  -12.2958 C   0  0  0  0  0  0  0  0  0  0  0  0
   19.9104   -7.6748  -12.3541 C   0  0  2  0  0  0  0  0  0  0  0  0
   19.6018   -8.1849  -13.6735 N   0  0  0  0  0  0  0  0  0  0  0  0
   18.7263   -6.9492  -11.8379 C   0  0  0  0  0  0  0  0  0  0  0  0
   18.2130   -5.9873  -12.4868 O   0  0  0  0  0  0  0  0  0  0  0  0
   11.8107   -9.9195  -10.3928 N   0  0  0  0  0  0  0  0  0  0  0  0
   12.1386   -9.6247   -9.0206 C   0  0  0  0  0  0  0  0  0  0  0  0
   11.3290  -10.0603   -8.1284 N   0  0  0  0  0  0  0  0  0  0  0  0
   13.3016   -8.8882   -8.6831 N   0  0  0  0  0  0  0  0  0  0  0  0
   13.5600   -7.5759   -9.2202 C   0  0  0  0  0  0  0  0  0  0  0  0
   14.8602   -7.0007   -8.7192 C   0  0  0  0  0  0  0  0  0  0  0  0
   16.0755   -7.5893   -9.3801 C   0  0  0  0  0  0  0  0  0  0  0  0
   16.9255   -6.6013  -10.1026 C   0  0  2  0  0  0  0  0  0  0  0  0
   18.1005   -7.2765  -10.6045 N   0  0  0  0  0  0  0  0  0  0  0  0
   17.3213   -5.4325   -9.3376 C   0  0  0  0  0  0  0  0  0  0  0  0
   16.5092   -4.3083   -9.3512 O   0  0  0  0  0  0  0  0  0  0  0  0
   18.3649   -5.3361   -8.6393 O   0  0  0  0  0  0  0  0  0  0  0  0
  2  1  1  1
  3  2  1  0
  4  3  1  0
  5  4  1  0
  5  6  2  0
  7  8  2  0
  7  2  1  0
  9  5  1  0
 11 10  1  0
 12 11  2  0
 14 13  1  6
 13 11  1  0
 14 15  1  0
 15  7  1  0
 16 26  1  0
 16 14  1  0
 17 16  2  0
 19 18  1  0
 19 21  1  0
 20 19  2  0
 22 21  1  0
 23 22  1  0
 24 23  1  0
 25 24  1  1
 25 26  1  0
 27 28  1  0
 27 25  1  0
 29 27  2  0
M  END
$$$$
