ENR.pdb
     RDKit          3D

 29 28  0  0  1  0  0  0  0  0999 V2000
   18.5045  -26.7102   -1.8484 N   0  0  0  0  0  0  0  0  0  0  0  0
   18.1852  -27.3212   -3.1235 C   0  0  1  0  0  0  0  0  0  0  0  0
   17.0153  -28.2604   -3.0272 C   0  0  0  0  0  0  0  0  0  0  0  0
   17.3503  -29.5560   -2.3660 C   0  0  0  0  0  0  0  0  0  0  0  0
   18.3471  -30.3652   -3.0715 C   0  0  0  0  0  0  0  0  0  0  0  0
   19.4764  -30.4973   -2.5159 O   0  0  0  0  0  0  0  0  0  0  0  0
   17.7769  -26.2097   -4.0548 C   0  0  0  0  0  0  0  0  0  0  0  0
   17.1291  -25.2643   -3.5945 O   0  0  0  0  0  0  0  0  0  0  0  0
   18.1812  -31.0003   -4.2839 O   0  0  0  0  0  0  0  0  0  0  0  0
   17.3621  -23.1340   -8.4294 N   0  0  0  0  0  0  0  0  0  0  0  0
   18.4476  -24.0265   -8.4959 C   0  0  0  0  0  0  0  0  0  0  0  0
   19.2409  -23.8761   -9.4779 O   0  0  0  0  0  0  0  0  0  0  0  0
   18.7353  -25.1053   -7.5336 C   0  0  0  0  0  0  0  0  0  0  0  0
   17.8373  -25.1473   -6.3417 C   0  0  2  0  0  0  0  0  0  0  0  0
   18.1181  -26.2316   -5.4243 N   0  0  0  0  0  0  0  0  0  0  0  0
   16.4104  -25.2166   -6.7343 C   0  0  0  0  0  0  0  0  0  0  0  0
   15.9343  -26.2508   -7.2943 O   0  0  0  0  0  0  0  0  0  0  0  0
   11.3560  -19.0994   -4.0764 N   0  0  0  0  0  0  0  0  0  0  0  0
   11.7278  -19.5679   -5.3879 C   0  0  0  0  0  0  0  0  0  0  0  0
   11.2390  -18.9318   -6.3868 N   0  0  0  0  0  0  0  0  0  0  0  0
   12.5920  -20.6786   -5.5557 N   0  0  0  0  0  0  0  0  0  0  0  0
   12.8842  -21.5913   -4.4792 C   0  0  0  0  0  0  0  0  0  0  0  0
   13.9076  -22.6264   -4.8712 C   0  0  0  0  0  0  0  0  0  0  0  0
   13.3242  -23.8107   -5.5904 C   0  0  0  0  0  0  0  0  0  0  0  0
   14.0848  -24.2354   -6.7994 C   0  0  2  0  0  0  0  0  0  0  0  0
   15.4989  -24.1484   -6.5145 N   0  0  0  0  0  0  0  0  0  0  0  0
   13.7852  -23.5080   -8.0197 C   0  0  0  0  0  0  0  0  0  0  0  0
   12.4624  -23.3490   -8.4048 O   0  0  0  0  0  0  0  0  0  0  0  0
   14.6373  -22.9897   -8.7886 O   0  0  0  0  0  0  0  0  0  0  0  0
  2  1  1  1
  3  2  1  0
  4  3  1  0
  5  4  1  0
  5  6  2  0
  7  8  2  0
  7  2  1  0
  9  5  1  0
 11 10  1  0
 12 11  2  0
 14 13  1  6
 13 11  1  0
 14 15  1  0
 15  7  1  0
 16 26  1  0
 16 14  1  0
 17 16  2  0
 19 18  1  0
 19 21  1  0
 20 19  2  0
 22 21  1  0
 23 22  1  0
 24 23  1  0
 25 24  1  1
 25 26  1  0
 27 28  1  0
 27 25  1  0
 29 27  2  0
M  END
$$$$
