ENR.pdb
     RDKit          3D

 29 28  0  0  1  0  0  0  0  0999 V2000
   12.9271   -9.0790  -10.2449 N   0  0  0  0  0  0  0  0  0  0  0  0
   14.2175   -9.0777   -9.5845 C   0  0  1  0  0  0  0  0  0  0  0  0
   15.0559  -10.2639   -9.9718 C   0  0  0  0  0  0  0  0  0  0  0  0
   15.2092  -10.4227  -11.4480 C   0  0  0  0  0  0  0  0  0  0  0  0
   15.9482  -11.6177  -11.8631 C   0  0  0  0  0  0  0  0  0  0  0  0
   16.2571  -11.7049  -13.0872 O   0  0  0  0  0  0  0  0  0  0  0  0
   14.9529   -7.8506  -10.0568 C   0  0  0  0  0  0  0  0  0  0  0  0
   14.7201   -7.4258  -11.1929 O   0  0  0  0  0  0  0  0  0  0  0  0
   16.3433  -12.6618  -11.0542 O   0  0  0  0  0  0  0  0  0  0  0  0
   18.3474   -3.1028   -8.1221 N   0  0  0  0  0  0  0  0  0  0  0  0
   17.2318   -3.6698   -8.7647 C   0  0  0  0  0  0  0  0  0  0  0  0
   16.7212   -2.9907   -9.7104 O   0  0  0  0  0  0  0  0  0  0  0  0
   16.6163   -4.9681   -8.4352 C   0  0  0  0  0  0  0  0  0  0  0  0
   16.5114   -5.9269   -9.5747 C   0  0  2  0  0  0  0  0  0  0  0  0
   15.8894   -7.1891   -9.2337 N   0  0  0  0  0  0  0  0  0  0  0  0
   17.8345   -6.2001  -10.1829 C   0  0  0  0  0  0  0  0  0  0  0  0
   18.6007   -7.0945   -9.7108 O   0  0  0  0  0  0  0  0  0  0  0  0
   22.0615  -10.9406  -14.7016 N   0  0  0  0  0  0  0  0  0  0  0  0
   22.5278   -9.7630  -15.3898 C   0  0  0  0  0  0  0  0  0  0  0  0
   23.3904   -9.9430  -16.3198 N   0  0  0  0  0  0  0  0  0  0  0  0
   22.0508   -8.4729  -15.0483 N   0  0  0  0  0  0  0  0  0  0  0  0
   20.9061   -8.2808  -14.1938 C   0  0  0  0  0  0  0  0  0  0  0  0
   20.5640   -6.8233  -14.0180 C   0  0  0  0  0  0  0  0  0  0  0  0
   19.3446   -6.5869  -13.1711 C   0  0  0  0  0  0  0  0  0  0  0  0
   19.5909   -5.7747  -11.9462 C   0  0  2  0  0  0  0  0  0  0  0  0
   18.3234   -5.4903  -11.3131 N   0  0  0  0  0  0  0  0  0  0  0  0
   20.3263   -4.5390  -12.1473 C   0  0  0  0  0  0  0  0  0  0  0  0
   21.7128   -4.5675  -12.1352 O   0  0  0  0  0  0  0  0  0  0  0  0
   19.8112   -3.4057  -12.3381 O   0  0  0  0  0  0  0  0  0  0  0  0
  2  1  1  6
  3  2  1  0
  4  3  1  0
  5  4  1  0
  5  6  2  0
  7  8  2  0
  7  2  1  0
  9  5  1  0
 11 10  1  0
 12 11  2  0
 14 13  1  1
 13 11  1  0
 14 15  1  0
 15  7  1  0
 16 26  1  0
 16 14  1  0
 17 16  2  0
 19 18  1  0
 19 21  1  0
 20 19  2  0
 22 21  1  0
 23 22  1  0
 24 23  1  0
 25 24  1  6
 25 26  1  0
 27 28  1  0
 27 25  1  0
 29 27  2  0
M  END
$$$$
