VTH.pdb
     RDKit          3D

 25 25  0  0  1  0  0  0  0  0999 V2000
   18.2139  -17.3998  -17.6077 C   0  0  0  0  0  0  0  0  0  0  0  0
   18.8266  -17.6422  -16.2724 C   0  0  2  0  0  0  0  0  0  0  0  0
   17.9325  -18.6246  -15.5241 C   0  0  0  0  0  0  0  0  0  0  0  0
   19.0383  -16.3864  -15.4440 C   0  0  2  0  0  0  0  0  0  0  0  0
   17.7019  -15.8279  -15.1552 N   0  0  0  0  0  0  0  0  0  0  0  0
   19.8164  -15.3513  -16.1372 C   0  0  0  0  0  0  0  0  0  0  0  0
   21.0442  -15.5562  -16.4460 O   0  0  0  0  0  0  0  0  0  0  0  0
   20.1967  -13.9210  -19.4410 C   0  0  0  0  0  0  0  0  0  0  0  0
   19.6877  -12.8355  -18.5291 C   0  0  1  0  0  0  0  0  0  0  0  0
   18.3004  -12.8687  -18.4863 O   0  0  0  0  0  0  0  0  0  0  0  0
   20.1696  -13.0391  -17.0961 C   0  0  2  0  0  0  0  0  0  0  0  0
   19.3314  -14.0743  -16.5268 N   0  0  0  0  0  0  0  0  0  0  0  0
   19.8922  -11.7782  -16.3682 C   0  0  0  0  0  0  0  0  0  0  0  0
   18.8892  -11.6346  -15.6111 O   0  0  0  0  0  0  0  0  0  0  0  0
   20.7532  -10.6460  -16.4849 N   0  0  0  0  0  0  0  0  0  0  0  0
   20.4273   -9.3658  -15.8808 C   0  0  1  0  0  0  0  0  0  0  0  0
   21.7113   -8.8650  -15.2453 C   0  0  0  0  0  0  0  0  0  0  0  0
   21.5749   -7.5179  -14.6765 C   0  0  0  0  0  0  0  0  0  0  0  0
   20.4627   -6.7345  -14.6234 C   0  0  0  0  0  0  0  0  0  0  0  0
   20.8189   -5.5846  -14.0138 N   0  0  0  0  0  0  0  0  0  0  0  0
   22.1240   -5.6747  -13.7052 C   0  0  0  0  0  0  0  0  0  0  0  0
   22.6054   -6.8466  -14.1009 N   0  0  0  0  0  0  0  0  0  0  0  0
   19.9184   -8.4763  -16.9347 C   0  0  0  0  0  0  0  0  0  0  0  0
   19.0283   -7.4764  -16.6123 O   0  0  0  0  0  0  0  0  0  0  0  0
   20.2817   -8.6151  -18.1158 O   0  0  0  0  0  0  0  0  0  0  0  0
  2  1  1  6
  3  2  1  0
  4  2  1  0
  4  5  1  6
  6  7  2  0
  6  4  1  0
  9  8  1  6
  9 11  1  0
 10  9  1  0
 11 12  1  1
 12  6  1  0
 13 11  1  0
 14 13  2  0
 15 13  1  0
 16 17  1  6
 16 15  1  0
 17 18  1  0
 18 22  1  0
 19 20  1  0
 19 18  2  0
 20 21  1  0
 21 22  2  0
 23 16  1  0
 24 23  1  0
 25 23  2  0
M  END
$$$$
