VTH.pdb
     RDKit          3D

 25 25  0  0  1  0  0  0  0  0999 V2000
   16.1325  -10.5683  -15.8505 C   0  0  0  0  0  0  0  0  0  0  0  0
   16.9439  -10.8876  -17.0576 C   0  0  2  0  0  0  0  0  0  0  0  0
   16.0893  -11.7567  -17.9733 C   0  0  0  0  0  0  0  0  0  0  0  0
   18.2646  -11.5765  -16.7593 C   0  0  2  0  0  0  0  0  0  0  0  0
   17.9432  -12.8963  -16.1794 N   0  0  0  0  0  0  0  0  0  0  0  0
   19.0978  -10.8522  -15.7905 C   0  0  0  0  0  0  0  0  0  0  0  0
   18.9290  -11.0214  -14.5305 O   0  0  0  0  0  0  0  0  0  0  0  0
   22.6407  -11.0197  -14.9771 C   0  0  0  0  0  0  0  0  0  0  0  0
   22.3650   -9.5901  -15.3635 C   0  0  1  0  0  0  0  0  0  0  0  0
   22.5936   -9.4172  -16.7219 O   0  0  0  0  0  0  0  0  0  0  0  0
   20.9059   -9.2177  -15.1196 C   0  0  2  0  0  0  0  0  0  0  0  0
   20.1307   -9.9320  -16.1133 N   0  0  0  0  0  0  0  0  0  0  0  0
   20.7814   -7.7681  -15.4020 C   0  0  0  0  0  0  0  0  0  0  0  0
   20.0113   -7.3112  -16.2954 O   0  0  0  0  0  0  0  0  0  0  0  0
   21.5334   -6.7998  -14.6716 N   0  0  0  0  0  0  0  0  0  0  0  0
   21.3879   -5.3739  -14.9082 C   0  0  1  0  0  0  0  0  0  0  0  0
   19.9540   -5.0346  -14.5451 C   0  0  0  0  0  0  0  0  0  0  0  0
   19.6800   -3.5929  -14.6029 C   0  0  0  0  0  0  0  0  0  0  0  0
   20.4392   -2.6131  -15.1664 C   0  0  0  0  0  0  0  0  0  0  0  0
   19.7873   -1.4479  -14.9714 N   0  0  0  0  0  0  0  0  0  0  0  0
   18.6546   -1.7221  -14.3016 C   0  0  0  0  0  0  0  0  0  0  0  0
   18.5692   -3.0255  -14.0664 N   0  0  0  0  0  0  0  0  0  0  0  0
   22.3765   -4.6673  -14.0810 C   0  0  0  0  0  0  0  0  0  0  0  0
   22.9601   -3.5128  -14.5527 O   0  0  0  0  0  0  0  0  0  0  0  0
   22.6937   -5.0992  -12.9589 O   0  0  0  0  0  0  0  0  0  0  0  0
  2  1  1  1
  3  2  1  0
  4  2  1  0
  4  5  1  1
  6  7  2  0
  6  4  1  0
  9  8  1  6
  9 11  1  0
 10  9  1  0
 11 12  1  6
 12  6  1  0
 13 11  1  0
 14 13  2  0
 15 13  1  0
 16 17  1  1
 16 15  1  0
 17 18  1  0
 18 22  1  0
 19 20  1  0
 19 18  2  0
 20 21  1  0
 21 22  2  0
 23 16  1  0
 24 23  1  0
 25 23  2  0
M  END
$$$$
