VTH.pdb
     RDKit          3D

 25 25  0  0  1  0  0  0  0  0999 V2000
   16.0463  -14.5728  -15.8159 C   0  0  0  0  0  0  0  0  0  0  0  0
   17.1315  -15.2110  -16.6109 C   0  0  2  0  0  0  0  0  0  0  0  0
   17.3890  -16.5918  -16.0181 C   0  0  0  0  0  0  0  0  0  0  0  0
   18.4220  -14.4112  -16.6633 C   0  0  2  0  0  0  0  0  0  0  0  0
   18.9884  -14.4136  -15.2992 N   0  0  0  0  0  0  0  0  0  0  0  0
   18.2283  -13.0119  -17.0657 C   0  0  0  0  0  0  0  0  0  0  0  0
   17.9317  -12.7174  -18.2782 O   0  0  0  0  0  0  0  0  0  0  0  0
   15.6223  -10.5945  -16.5366 C   0  0  0  0  0  0  0  0  0  0  0  0
   16.8766  -10.0247  -15.9274 C   0  0  1  0  0  0  0  0  0  0  0  0
   16.9937  -10.4468  -14.6099 O   0  0  0  0  0  0  0  0  0  0  0  0
   18.1240  -10.5201  -16.6526 C   0  0  2  0  0  0  0  0  0  0  0  0
   18.3389  -11.8829  -16.2108 N   0  0  0  0  0  0  0  0  0  0  0  0
   19.2573   -9.6997  -16.1636 C   0  0  0  0  0  0  0  0  0  0  0  0
   19.9562  -10.0303  -15.1625 O   0  0  0  0  0  0  0  0  0  0  0  0
   19.6239   -8.4786  -16.8048 N   0  0  0  0  0  0  0  0  0  0  0  0
   20.6874   -7.6306  -16.2948 C   0  0  1  0  0  0  0  0  0  0  0  0
   21.2917   -6.9445  -17.5061 C   0  0  0  0  0  0  0  0  0  0  0  0
   22.3306   -5.9706  -17.1471 C   0  0  0  0  0  0  0  0  0  0  0  0
   23.6610   -6.1894  -16.9578 C   0  0  0  0  0  0  0  0  0  0  0  0
   24.2149   -5.0006  -16.6402 N   0  0  0  0  0  0  0  0  0  0  0  0
   23.2339   -4.0818  -16.6383 C   0  0  0  0  0  0  0  0  0  0  0  0
   22.0754   -4.6523  -16.9451 N   0  0  0  0  0  0  0  0  0  0  0  0
   20.1020   -6.6893  -15.3293 C   0  0  0  0  0  0  0  0  0  0  0  0
   20.8883   -6.1588  -14.3313 O   0  0  0  0  0  0  0  0  0  0  0  0
   18.9036   -6.3654  -15.4018 O   0  0  0  0  0  0  0  0  0  0  0  0
  2  1  1  1
  3  2  1  0
  4  2  1  0
  4  5  1  1
  6  7  2  0
  6  4  1  0
  9  8  1  6
  9 11  1  0
 10  9  1  0
 11 12  1  1
 12  6  1  0
 13 11  1  0
 14 13  2  0
 15 13  1  0
 16 17  1  6
 16 15  1  0
 17 18  1  0
 18 22  1  0
 19 20  1  0
 19 18  2  0
 20 21  1  0
 21 22  2  0
 23 16  1  0
 24 23  1  0
 25 23  2  0
M  END
$$$$
