VTH.pdb
     RDKit          3D

 25 25  0  0  1  0  0  0  0  0999 V2000
   19.0953  -12.8074  -19.4838 C   0  0  0  0  0  0  0  0  0  0  0  0
   19.9399  -13.6716  -18.6137 C   0  0  2  0  0  0  0  0  0  0  0  0
   19.4380  -15.1040  -18.7568 C   0  0  0  0  0  0  0  0  0  0  0  0
   19.9547  -13.2622  -17.1508 C   0  0  2  0  0  0  0  0  0  0  0  0
   18.5628  -13.3460  -16.6638 N   0  0  0  0  0  0  0  0  0  0  0  0
   20.4243  -11.8880  -16.9314 C   0  0  0  0  0  0  0  0  0  0  0  0
   21.6533  -11.5797  -17.1295 O   0  0  0  0  0  0  0  0  0  0  0  0
   19.9206   -8.7460  -18.6797 C   0  0  0  0  0  0  0  0  0  0  0  0
   19.4031   -8.5586  -17.2776 C   0  0  1  0  0  0  0  0  0  0  0  0
   18.0625   -8.9149  -17.2190 O   0  0  0  0  0  0  0  0  0  0  0  0
   20.1339   -9.4606  -16.2878 C   0  0  2  0  0  0  0  0  0  0  0  0
   19.6212  -10.7988  -16.4996 N   0  0  0  0  0  0  0  0  0  0  0  0
   19.7250   -9.0267  -14.9310 C   0  0  0  0  0  0  0  0  0  0  0  0
   18.7990   -9.5953  -14.2835 O   0  0  0  0  0  0  0  0  0  0  0  0
   20.3626   -7.9308  -14.2758 N   0  0  0  0  0  0  0  0  0  0  0  0
   19.9349   -7.4606  -12.9696 C   0  0  1  0  0  0  0  0  0  0  0  0
   21.1042   -6.6749  -12.4052 C   0  0  0  0  0  0  0  0  0  0  0  0
   20.7853   -6.0207  -11.1296 C   0  0  0  0  0  0  0  0  0  0  0  0
   20.5226   -6.6025   -9.9270 C   0  0  0  0  0  0  0  0  0  0  0  0
   20.2834   -5.6052   -9.0502 N   0  0  0  0  0  0  0  0  0  0  0  0
   20.4001   -4.4424   -9.7143 C   0  0  0  0  0  0  0  0  0  0  0  0
   20.7061   -4.6729  -10.9851 N   0  0  0  0  0  0  0  0  0  0  0  0
   18.7236   -6.6469  -13.1477 C   0  0  0  0  0  0  0  0  0  0  0  0
   18.5208   -5.9760  -14.3329 O   0  0  0  0  0  0  0  0  0  0  0  0
   17.8781   -6.5560  -12.2404 O   0  0  0  0  0  0  0  0  0  0  0  0
  2  1  1  6
  3  2  1  0
  4  2  1  0
  4  5  1  6
  6  7  2  0
  6  4  1  0
  9  8  1  6
  9 11  1  0
 10  9  1  0
 11 12  1  6
 12  6  1  0
 13 11  1  0
 14 13  2  0
 15 13  1  0
 16 17  1  6
 16 15  1  0
 17 18  1  0
 18 22  1  0
 19 20  1  0
 19 18  2  0
 20 21  1  0
 21 22  2  0
 23 16  1  0
 24 23  1  0
 25 23  2  0
M  END
$$$$
