VTH.pdb
     RDKit          3D

 25 25  0  0  1  0  0  0  0  0999 V2000
   24.1384  -14.9125  -20.6816 C   0  0  0  0  0  0  0  0  0  0  0  0
   24.0812  -13.4759  -20.2940 C   0  0  2  0  0  0  0  0  0  0  0  0
   25.5130  -12.9556  -20.2326 C   0  0  0  0  0  0  0  0  0  0  0  0
   23.3675  -13.2106  -18.9795 C   0  0  2  0  0  0  0  0  0  0  0  0
   21.9236  -13.4016  -19.2246 N   0  0  0  0  0  0  0  0  0  0  0  0
   23.5595  -11.8451  -18.4735 C   0  0  0  0  0  0  0  0  0  0  0  0
   24.6761  -11.4955  -17.9484 O   0  0  0  0  0  0  0  0  0  0  0  0
   24.0055   -8.7564  -20.2157 C   0  0  0  0  0  0  0  0  0  0  0  0
   22.7773   -8.5936  -19.3590 C   0  0  1  0  0  0  0  0  0  0  0  0
   21.6574   -9.0297  -20.0540 O   0  0  0  0  0  0  0  0  0  0  0  0
   22.8612   -9.4450  -18.0960 C   0  0  2  0  0  0  0  0  0  0  0  0
   22.5891  -10.8081  -18.5038 N   0  0  0  0  0  0  0  0  0  0  0  0
   21.7567   -9.0065  -17.2103 C   0  0  0  0  0  0  0  0  0  0  0  0
   20.7148   -9.6995  -17.0257 O   0  0  0  0  0  0  0  0  0  0  0  0
   21.8116   -7.7638  -16.5107 N   0  0  0  0  0  0  0  0  0  0  0  0
   20.7223   -7.3081  -15.6647 C   0  0  1  0  0  0  0  0  0  0  0  0
   20.5625   -8.3629  -14.5853 C   0  0  0  0  0  0  0  0  0  0  0  0
   19.5197   -9.3469  -14.9036 C   0  0  0  0  0  0  0  0  0  0  0  0
   18.7063   -9.3893  -15.9946 C   0  0  0  0  0  0  0  0  0  0  0  0
   17.9099  -10.4691  -15.8510 N   0  0  0  0  0  0  0  0  0  0  0  0
   18.2388  -11.0665  -14.6927 C   0  0  0  0  0  0  0  0  0  0  0  0
   19.2193  -10.3980  -14.0982 N   0  0  0  0  0  0  0  0  0  0  0  0
   21.0766   -5.9847  -15.1319 C   0  0  0  0  0  0  0  0  0  0  0  0
   20.0989   -5.1875  -14.5801 O   0  0  0  0  0  0  0  0  0  0  0  0
   22.2499   -5.5745  -15.1731 O   0  0  0  0  0  0  0  0  0  0  0  0
  2  1  1  1
  3  2  1  0
  4  2  1  0
  4  5  1  6
  6  7  2  0
  6  4  1  0
  9  8  1  6
  9 11  1  0
 10  9  1  0
 11 12  1  6
 12  6  1  0
 13 11  1  0
 14 13  2  0
 15 13  1  0
 16 17  1  1
 16 15  1  0
 17 18  1  0
 18 22  1  0
 19 20  1  0
 19 18  2  0
 20 21  1  0
 21 22  2  0
 23 16  1  0
 24 23  1  0
 25 23  2  0
M  END
$$$$
