VTH.pdb
     RDKit          3D

 25 25  0  0  1  0  0  0  0  0999 V2000
   25.2105  -19.6457  -17.7779 C   0  0  0  0  0  0  0  0  0  0  0  0
   26.4024  -19.0971  -17.0738 C   0  0  2  0  0  0  0  0  0  0  0  0
   27.3012  -18.4492  -18.1210 C   0  0  0  0  0  0  0  0  0  0  0  0
   27.1833  -20.1244  -16.2723 C   0  0  2  0  0  0  0  0  0  0  0  0
   27.6798  -21.1339  -17.2293 N   0  0  0  0  0  0  0  0  0  0  0  0
   26.3726  -20.8219  -15.2655 C   0  0  0  0  0  0  0  0  0  0  0  0
   25.7233  -21.8842  -15.5734 O   0  0  0  0  0  0  0  0  0  0  0  0
   25.0825  -21.5208  -10.5256 C   0  0  0  0  0  0  0  0  0  0  0  0
   25.9966  -21.0223  -11.6142 C   0  0  1  0  0  0  0  0  0  0  0  0
   27.1210  -21.8329  -11.6926 O   0  0  0  0  0  0  0  0  0  0  0  0
   25.3222  -21.0847  -12.9811 C   0  0  2  0  0  0  0  0  0  0  0  0
   26.2196  -20.4278  -13.9094 N   0  0  0  0  0  0  0  0  0  0  0  0
   24.0885  -20.2688  -12.8872 C   0  0  0  0  0  0  0  0  0  0  0  0
   24.0969  -19.0072  -12.9785 O   0  0  0  0  0  0  0  0  0  0  0  0
   22.8106  -20.8714  -12.6864 N   0  0  0  0  0  0  0  0  0  0  0  0
   21.5863  -20.0899  -12.6621 C   0  0  1  0  0  0  0  0  0  0  0  0
   21.4731  -19.4486  -14.0329 C   0  0  0  0  0  0  0  0  0  0  0  0
   21.0744  -20.4036  -15.0749 C   0  0  0  0  0  0  0  0  0  0  0  0
   20.8716  -21.7446  -14.9555 C   0  0  0  0  0  0  0  0  0  0  0  0
   20.5208  -22.2006  -16.1760 N   0  0  0  0  0  0  0  0  0  0  0  0
   20.5128  -21.1513  -17.0160 C   0  0  0  0  0  0  0  0  0  0  0  0
   20.8478  -20.0444  -16.3646 N   0  0  0  0  0  0  0  0  0  0  0  0
   20.4695  -20.9942  -12.3527 C   0  0  0  0  0  0  0  0  0  0  0  0
   19.2037  -20.4806  -12.1803 O   0  0  0  0  0  0  0  0  0  0  0  0
   20.6531  -22.2193  -12.2443 O   0  0  0  0  0  0  0  0  0  0  0  0
  2  1  1  6
  3  2  1  0
  4  2  1  0
  4  5  1  6
  6  7  2  0
  6  4  1  0
  9  8  1  1
  9 11  1  0
 10  9  1  0
 11 12  1  6
 12  6  1  0
 13 11  1  0
 14 13  2  0
 15 13  1  0
 16 17  1  6
 16 15  1  0
 17 18  1  0
 18 22  1  0
 19 20  1  0
 19 18  2  0
 20 21  1  0
 21 22  2  0
 23 16  1  0
 24 23  1  0
 25 23  2  0
M  END
$$$$
