VTH.pdb
     RDKit          3D

 25 25  0  0  1  0  0  0  0  0999 V2000
   20.5309  -14.4433  -20.5005 C   0  0  0  0  0  0  0  0  0  0  0  0
   20.7089  -15.3681  -19.3471 C   0  0  2  0  0  0  0  0  0  0  0  0
   19.7424  -16.5323  -19.5338 C   0  0  0  0  0  0  0  0  0  0  0  0
   20.4986  -14.7216  -17.9886 C   0  0  2  0  0  0  0  0  0  0  0  0
   19.1102  -14.2187  -17.9587 N   0  0  0  0  0  0  0  0  0  0  0  0
   21.3928  -13.5841  -17.7361 C   0  0  0  0  0  0  0  0  0  0  0  0
   22.6656  -13.7292  -17.7979 O   0  0  0  0  0  0  0  0  0  0  0  0
   23.5746  -11.9554  -18.8882 C   0  0  0  0  0  0  0  0  0  0  0  0
   22.5646  -10.8922  -18.5441 C   0  0  1  0  0  0  0  0  0  0  0  0
   21.5477  -10.8854  -19.4894 O   0  0  0  0  0  0  0  0  0  0  0  0
   21.9018  -11.1670  -17.1979 C   0  0  2  0  0  0  0  0  0  0  0  0
   20.9802  -12.2638  -17.4130 N   0  0  0  0  0  0  0  0  0  0  0  0
   21.1053   -9.9639  -16.8595 C   0  0  0  0  0  0  0  0  0  0  0  0
   20.0352   -9.6628  -17.4630 O   0  0  0  0  0  0  0  0  0  0  0  0
   21.5091   -9.0709  -15.8222 N   0  0  0  0  0  0  0  0  0  0  0  0
   20.7671   -7.8599  -15.5169 C   0  0  1  0  0  0  0  0  0  0  0  0
   20.2176   -8.0491  -14.1149 C   0  0  0  0  0  0  0  0  0  0  0  0
   19.0152   -8.8918  -14.0858 C   0  0  0  0  0  0  0  0  0  0  0  0
   18.3867   -9.4992  -15.1297 C   0  0  0  0  0  0  0  0  0  0  0  0
   17.3275  -10.1622  -14.6206 N   0  0  0  0  0  0  0  0  0  0  0  0
   17.3188   -9.9570  -13.2922 C   0  0  0  0  0  0  0  0  0  0  0  0
   18.3403   -9.1842  -12.9444 N   0  0  0  0  0  0  0  0  0  0  0  0
   21.6854   -6.7175  -15.6287 C   0  0  0  0  0  0  0  0  0  0  0  0
   21.2111   -5.4396  -15.4339 O   0  0  0  0  0  0  0  0  0  0  0  0
   22.8872   -6.8900  -15.8976 O   0  0  0  0  0  0  0  0  0  0  0  0
  2  1  1  6
  3  2  1  0
  4  2  1  0
  4  5  1  6
  6  7  2  0
  6  4  1  0
  9  8  1  6
  9 11  1  0
 10  9  1  0
 11 12  1  6
 12  6  1  0
 13 11  1  0
 14 13  2  0
 15 13  1  0
 16 17  1  1
 16 15  1  0
 17 18  1  0
 18 22  1  0
 19 20  1  0
 19 18  2  0
 20 21  1  0
 21 22  2  0
 23 16  1  0
 24 23  1  0
 25 23  2  0
M  END
$$$$
