VTH.pdb
     RDKit          3D

 25 25  0  0  1  0  0  0  0  0999 V2000
   19.5243  -14.1159  -18.4203 C   0  0  0  0  0  0  0  0  0  0  0  0
   19.7293  -13.3588  -17.1545 C   0  0  2  0  0  0  0  0  0  0  0  0
   18.7629  -13.9202  -16.1176 C   0  0  0  0  0  0  0  0  0  0  0  0
   19.5454  -11.8567  -17.2872 C   0  0  2  0  0  0  0  0  0  0  0  0
   20.2207  -11.4464  -18.5351 N   0  0  0  0  0  0  0  0  0  0  0  0
   20.1417  -11.0934  -16.1831 C   0  0  0  0  0  0  0  0  0  0  0  0
   19.7391  -11.2679  -14.9780 O   0  0  0  0  0  0  0  0  0  0  0  0
   23.5434  -11.0799  -14.8023 C   0  0  0  0  0  0  0  0  0  0  0  0
   23.2311   -9.6612  -15.2007 C   0  0  1  0  0  0  0  0  0  0  0  0
   23.6603   -9.4322  -16.5011 O   0  0  0  0  0  0  0  0  0  0  0  0
   21.7289   -9.3959  -15.1881 C   0  0  2  0  0  0  0  0  0  0  0  0
   21.1757  -10.1277  -16.3093 N   0  0  0  0  0  0  0  0  0  0  0  0
   21.5477   -7.9495  -15.4555 C   0  0  0  0  0  0  0  0  0  0  0  0
   21.0068   -7.5142  -16.5129 O   0  0  0  0  0  0  0  0  0  0  0  0
   21.9793   -6.9597  -14.5224 N   0  0  0  0  0  0  0  0  0  0  0  0
   21.7448   -5.5427  -14.7397 C   0  0  1  0  0  0  0  0  0  0  0  0
   20.2384   -5.3759  -14.8180 C   0  0  0  0  0  0  0  0  0  0  0  0
   19.8288   -3.9711  -14.9425 C   0  0  0  0  0  0  0  0  0  0  0  0
   20.4662   -2.9628  -15.5988 C   0  0  0  0  0  0  0  0  0  0  0  0
   19.7183   -1.8516  -15.4362 N   0  0  0  0  0  0  0  0  0  0  0  0
   18.6485   -2.1858  -14.6942 C   0  0  0  0  0  0  0  0  0  0  0  0
   18.6961   -3.4748  -14.3819 N   0  0  0  0  0  0  0  0  0  0  0  0
   22.3518   -4.8000  -13.6258 C   0  0  0  0  0  0  0  0  0  0  0  0
   22.6663   -3.4689  -13.7846 O   0  0  0  0  0  0  0  0  0  0  0  0
   22.5857   -5.3589  -12.5399 O   0  0  0  0  0  0  0  0  0  0  0  0
  2  1  1  6
  3  2  1  0
  4  2  1  0
  4  5  1  6
  6  7  2  0
  6  4  1  0
  9  8  1  6
  9 11  1  0
 10  9  1  0
 11 12  1  6
 12  6  1  0
 13 11  1  0
 14 13  2  0
 15 13  1  0
 16 17  1  1
 16 15  1  0
 17 18  1  0
 18 22  1  0
 19 20  1  0
 19 18  2  0
 20 21  1  0
 21 22  2  0
 23 16  1  0
 24 23  1  0
 25 23  2  0
M  END
$$$$
