VTH.pdb
     RDKit          3D

 25 25  0  0  1  0  0  0  0  0999 V2000
   26.5252  -15.3898  -16.6202 C   0  0  0  0  0  0  0  0  0  0  0  0
   25.7732  -15.5407  -15.3439 C   0  0  2  0  0  0  0  0  0  0  0  0
   26.3287  -16.7626  -14.6209 C   0  0  0  0  0  0  0  0  0  0  0  0
   24.2692  -15.6686  -15.5153 C   0  0  2  0  0  0  0  0  0  0  0  0
   24.0255  -16.8988  -16.2955 N   0  0  0  0  0  0  0  0  0  0  0  0
   23.6652  -14.5471  -16.2466 C   0  0  0  0  0  0  0  0  0  0  0  0
   23.8112  -14.4428  -17.5165 O   0  0  0  0  0  0  0  0  0  0  0  0
   20.4027  -13.5563  -17.2830 C   0  0  0  0  0  0  0  0  0  0  0  0
   20.8967  -12.4339  -16.4083 C   0  0  1  0  0  0  0  0  0  0  0  0
   20.5173  -12.6609  -15.0921 O   0  0  0  0  0  0  0  0  0  0  0  0
   22.4201  -12.3532  -16.4114 C   0  0  2  0  0  0  0  0  0  0  0  0
   22.8914  -13.5048  -15.6697 N   0  0  0  0  0  0  0  0  0  0  0  0
   22.7857  -11.1384  -15.6451 C   0  0  0  0  0  0  0  0  0  0  0  0
   23.0577  -11.1675  -14.4102 O   0  0  0  0  0  0  0  0  0  0  0  0
   22.8508   -9.8562  -16.2684 N   0  0  0  0  0  0  0  0  0  0  0  0
   23.2645   -8.6678  -15.5427 C   0  0  1  0  0  0  0  0  0  0  0  0
   24.4175   -8.0764  -16.3326 C   0  0  0  0  0  0  0  0  0  0  0  0
   25.5873   -8.9631  -16.3789 C   0  0  0  0  0  0  0  0  0  0  0  0
   26.4951   -9.2121  -15.3952 C   0  0  0  0  0  0  0  0  0  0  0  0
   27.3902  -10.0881  -15.8972 N   0  0  0  0  0  0  0  0  0  0  0  0
   27.0270  -10.3616  -17.1622 C   0  0  0  0  0  0  0  0  0  0  0  0
   25.9291   -9.6855  -17.4767 N   0  0  0  0  0  0  0  0  0  0  0  0
   22.1089   -7.7647  -15.4424 C   0  0  0  0  0  0  0  0  0  0  0  0
   22.1909   -6.6368  -14.6570 O   0  0  0  0  0  0  0  0  0  0  0  0
   21.0562   -8.0064  -16.0586 O   0  0  0  0  0  0  0  0  0  0  0  0
  2  1  1  6
  3  2  1  0
  4  2  1  0
  4  5  1  6
  6  7  2  0
  6  4  1  0
  9  8  1  6
  9 11  1  0
 10  9  1  0
 11 12  1  1
 12  6  1  0
 13 11  1  0
 14 13  2  0
 15 13  1  0
 16 17  1  6
 16 15  1  0
 17 18  1  0
 18 22  1  0
 19 20  1  0
 19 18  2  0
 20 21  1  0
 21 22  2  0
 23 16  1  0
 24 23  1  0
 25 23  2  0
M  END
$$$$
