VTH.pdb
     RDKit          3D

 25 25  0  0  1  0  0  0  0  0999 V2000
   22.3020  -15.3334  -17.8568 C   0  0  0  0  0  0  0  0  0  0  0  0
   20.8464  -15.2196  -18.1494 C   0  0  2  0  0  0  0  0  0  0  0  0
   20.5607  -16.0394  -19.4026 C   0  0  0  0  0  0  0  0  0  0  0  0
   20.3540  -13.7938  -18.3290 C   0  0  2  0  0  0  0  0  0  0  0  0
   20.9805  -13.2712  -19.5603 N   0  0  0  0  0  0  0  0  0  0  0  0
   20.7262  -12.9015  -17.2233 C   0  0  0  0  0  0  0  0  0  0  0  0
   20.2729  -13.1046  -16.0409 O   0  0  0  0  0  0  0  0  0  0  0  0
   23.7748  -12.2876  -15.3448 C   0  0  0  0  0  0  0  0  0  0  0  0
   23.3890  -10.9816  -15.9886 C   0  0  1  0  0  0  0  0  0  0  0  0
   23.9798  -10.8816  -17.2411 O   0  0  0  0  0  0  0  0  0  0  0  0
   21.8826  -10.8935  -16.2127 C   0  0  2  0  0  0  0  0  0  0  0  0
   21.5831  -11.7731  -17.3241 N   0  0  0  0  0  0  0  0  0  0  0  0
   21.5945   -9.5045  -16.6420 C   0  0  0  0  0  0  0  0  0  0  0  0
   21.4762   -9.1774  -17.8582 O   0  0  0  0  0  0  0  0  0  0  0  0
   21.4333   -8.4502  -15.6938 N   0  0  0  0  0  0  0  0  0  0  0  0
   21.0734   -7.1016  -16.0961 C   0  0  1  0  0  0  0  0  0  0  0  0
   19.7690   -7.2282  -16.8614 C   0  0  0  0  0  0  0  0  0  0  0  0
   19.2286   -5.9285  -17.2805 C   0  0  0  0  0  0  0  0  0  0  0  0
   19.7907   -4.6968  -17.1373 C   0  0  0  0  0  0  0  0  0  0  0  0
   18.9284   -3.8055  -17.6692 N   0  0  0  0  0  0  0  0  0  0  0  0
   17.8650   -4.4898  -18.1249 C   0  0  0  0  0  0  0  0  0  0  0  0
   18.0275   -5.7874  -17.8978 N   0  0  0  0  0  0  0  0  0  0  0  0
   20.9556   -6.2765  -14.8852 C   0  0  0  0  0  0  0  0  0  0  0  0
   21.1610   -6.8465  -13.6488 O   0  0  0  0  0  0  0  0  0  0  0  0
   20.6720   -5.0682  -14.9627 O   0  0  0  0  0  0  0  0  0  0  0  0
  2  1  1  6
  3  2  1  0
  4  2  1  0
  4  5  1  6
  6  7  2  0
  6  4  1  0
  9  8  1  6
  9 11  1  0
 10  9  1  0
 11 12  1  6
 12  6  1  0
 13 11  1  0
 14 13  2  0
 15 13  1  0
 16 17  1  1
 16 15  1  0
 17 18  1  0
 18 22  1  0
 19 20  1  0
 19 18  2  0
 20 21  1  0
 21 22  2  0
 23 16  1  0
 24 23  1  0
 25 23  2  0
M  END
$$$$
