VTH.pdb
     RDKit          3D

 25 25  0  0  1  0  0  0  0  0999 V2000
   20.7283  -17.0022  -15.8692 C   0  0  0  0  0  0  0  0  0  0  0  0
   20.9884  -15.6226  -16.3655 C   0  0  2  0  0  0  0  0  0  0  0  0
   21.9270  -14.9434  -15.3747 C   0  0  0  0  0  0  0  0  0  0  0  0
   19.7378  -14.7839  -16.5663 C   0  0  2  0  0  0  0  0  0  0  0  0
   18.9073  -15.4785  -17.5710 N   0  0  0  0  0  0  0  0  0  0  0  0
   20.0134  -13.4319  -17.0699 C   0  0  0  0  0  0  0  0  0  0  0  0
   20.5865  -13.2634  -18.2048 O   0  0  0  0  0  0  0  0  0  0  0  0
   17.8784  -10.8395  -18.3501 C   0  0  0  0  0  0  0  0  0  0  0  0
   18.5977  -10.2500  -17.1652 C   0  0  1  0  0  0  0  0  0  0  0  0
   17.8661  -10.4807  -16.0079 O   0  0  0  0  0  0  0  0  0  0  0  0
   19.9583  -10.9072  -16.9549 C   0  0  2  0  0  0  0  0  0  0  0  0
   19.6963  -12.2197  -16.4007 N   0  0  0  0  0  0  0  0  0  0  0  0
   20.6632  -10.1106  -15.9229 C   0  0  0  0  0  0  0  0  0  0  0  0
   20.5211  -10.3216  -14.6838 O   0  0  0  0  0  0  0  0  0  0  0  0
   21.5503   -9.0505  -16.2776 N   0  0  0  0  0  0  0  0  0  0  0  0
   22.2310   -8.2487  -15.2756 C   0  0  1  0  0  0  0  0  0  0  0  0
   23.6658   -8.1150  -15.7519 C   0  0  0  0  0  0  0  0  0  0  0  0
   24.4531   -9.3347  -15.5304 C   0  0  0  0  0  0  0  0  0  0  0  0
   24.0526  -10.5036  -14.9586 C   0  0  0  0  0  0  0  0  0  0  0  0
   25.1169  -11.3331  -14.9698 N   0  0  0  0  0  0  0  0  0  0  0  0
   26.1408  -10.6740  -15.5390 C   0  0  0  0  0  0  0  0  0  0  0  0
   25.7576   -9.4524  -15.8886 N   0  0  0  0  0  0  0  0  0  0  0  0
   21.5348   -6.9585  -15.1683 C   0  0  0  0  0  0  0  0  0  0  0  0
   21.8597   -6.0907  -14.1499 O   0  0  0  0  0  0  0  0  0  0  0  0
   20.6543   -6.6397  -15.9866 O   0  0  0  0  0  0  0  0  0  0  0  0
  2  1  1  1
  3  2  1  0
  4  2  1  0
  4  5  1  6
  6  7  2  0
  6  4  1  0
  9  8  1  6
  9 11  1  0
 10  9  1  0
 11 12  1  1
 12  6  1  0
 13 11  1  0
 14 13  2  0
 15 13  1  0
 16 17  1  6
 16 15  1  0
 17 18  1  0
 18 22  1  0
 19 20  1  0
 19 18  2  0
 20 21  1  0
 21 22  2  0
 23 16  1  0
 24 23  1  0
 25 23  2  0
M  END
$$$$
