VTH.pdb
     RDKit          3D

 25 25  0  0  1  0  0  0  0  0999 V2000
   23.2254  -14.7669  -16.7937 C   0  0  0  0  0  0  0  0  0  0  0  0
   24.4580  -14.1775  -17.3858 C   0  0  2  0  0  0  0  0  0  0  0  0
   25.6301  -15.0740  -17.0025 C   0  0  0  0  0  0  0  0  0  0  0  0
   24.7312  -12.7440  -16.9635 C   0  0  2  0  0  0  0  0  0  0  0  0
   24.9615  -12.7589  -15.5047 N   0  0  0  0  0  0  0  0  0  0  0  0
   23.6124  -11.8308  -17.2314 C   0  0  0  0  0  0  0  0  0  0  0  0
   23.2752  -11.5489  -18.4362 O   0  0  0  0  0  0  0  0  0  0  0  0
   19.9726  -12.0837  -16.6970 C   0  0  0  0  0  0  0  0  0  0  0  0
   20.4750  -10.8961  -15.9185 C   0  0  1  0  0  0  0  0  0  0  0  0
   20.8447  -11.2933  -14.6405 O   0  0  0  0  0  0  0  0  0  0  0  0
   21.7205  -10.2938  -16.5614 C   0  0  2  0  0  0  0  0  0  0  0  0
   22.8156  -11.1883  -16.2465 N   0  0  0  0  0  0  0  0  0  0  0  0
   21.9751   -9.0048  -15.8757 C   0  0  0  0  0  0  0  0  0  0  0  0
   22.7276   -8.9079  -14.8637 O   0  0  0  0  0  0  0  0  0  0  0  0
   21.3769   -7.7902  -16.3272 N   0  0  0  0  0  0  0  0  0  0  0  0
   21.5457   -6.5370  -15.6123 C   0  0  1  0  0  0  0  0  0  0  0  0
   21.1068   -5.4464  -16.5720 C   0  0  0  0  0  0  0  0  0  0  0  0
   21.1194   -4.1120  -15.9587 C   0  0  0  0  0  0  0  0  0  0  0  0
   22.1748   -3.2661  -15.8036 C   0  0  0  0  0  0  0  0  0  0  0  0
   21.7072   -2.1612  -15.1861 N   0  0  0  0  0  0  0  0  0  0  0  0
   20.3920   -2.3395  -14.9732 C   0  0  0  0  0  0  0  0  0  0  0  0
   20.0124   -3.5237  -15.4370 N   0  0  0  0  0  0  0  0  0  0  0  0
   20.7325   -6.5923  -14.3889 C   0  0  0  0  0  0  0  0  0  0  0  0
   21.1236   -5.8802  -13.2773 O   0  0  0  0  0  0  0  0  0  0  0  0
   19.6942   -7.2751  -14.3445 O   0  0  0  0  0  0  0  0  0  0  0  0
  2  1  1  1
  3  2  1  0
  4  2  1  0
  4  5  1  1
  6  7  2  0
  6  4  1  0
  9  8  1  6
  9 11  1  0
 10  9  1  0
 11 12  1  1
 12  6  1  0
 13 11  1  0
 14 13  2  0
 15 13  1  0
 16 17  1  6
 16 15  1  0
 17 18  1  0
 18 22  1  0
 19 20  1  0
 19 18  2  0
 20 21  1  0
 21 22  2  0
 23 16  1  0
 24 23  1  0
 25 23  2  0
M  END
$$$$
