WRN.pdb
     RDKit          3D

 34 35  0  0  1  0  0  0  0  0999 V2000
    7.4774  -17.9582   25.8307 N   0  0  0  0  0  0  0  0  0  0  0  0
    7.7219  -16.9122   24.8769 C   0  0  1  0  0  0  0  0  0  0  0  0
    8.6963  -15.9105   25.4424 C   0  0  0  0  0  0  0  0  0  0  0  0
    8.0791  -15.0731   26.4943 C   0  0  0  0  0  0  0  0  0  0  0  0
    7.9874  -15.3463   27.8403 C   0  0  0  0  0  0  0  0  0  0  0  0
    7.3533  -14.3183   28.4242 N   0  0  0  0  0  0  0  0  0  0  0  0
    7.0332  -13.3912   27.4974 C   0  0  0  0  0  0  0  0  0  0  0  0
    6.3930  -12.1665   27.5280 C   0  0  0  0  0  0  0  0  0  0  0  0
    6.2222  -11.4460   26.3584 C   0  0  0  0  0  0  0  0  0  0  0  0
    6.6706  -11.9034   25.1394 C   0  0  0  0  0  0  0  0  0  0  0  0
    7.3036  -13.1150   25.1111 C   0  0  0  0  0  0  0  0  0  0  0  0
    7.4856  -13.8572   26.2815 C   0  0  0  0  0  0  0  0  0  0  0  0
    8.2709  -17.4718   23.6171 C   0  0  0  0  0  0  0  0  0  0  0  0
    8.8816  -18.5640   23.6495 O   0  0  0  0  0  0  0  0  0  0  0  0
    9.3037  -12.9822   17.7284 N   0  0  0  0  0  0  0  0  0  0  0  0
    8.1894  -12.5447   18.4801 C   0  0  0  0  0  0  0  0  0  0  0  0
    8.2620  -11.4097   19.0994 N   0  0  0  0  0  0  0  0  0  0  0  0
    6.9982  -13.2976   18.5830 N   0  0  0  0  0  0  0  0  0  0  0  0
    7.0711  -14.7641   18.6152 C   0  0  0  0  0  0  0  0  0  0  0  0
    7.7854  -15.2303   19.8767 C   0  0  0  0  0  0  0  0  0  0  0  0
    7.9559  -16.7165   19.9008 C   0  0  0  0  0  0  0  0  0  0  0  0
    8.5745  -17.2765   21.1278 C   0  0  2  0  0  0  0  0  0  0  0  0
    8.1128  -16.7860   22.3771 N   0  0  0  0  0  0  0  0  0  0  0  0
   10.0619  -17.4340   21.0241 C   0  0  0  0  0  0  0  0  0  0  0  0
   10.4869  -17.8783   19.9320 O   0  0  0  0  0  0  0  0  0  0  0  0
    7.5015  -11.0587   19.7236 N   0  0  0  0  0  0  0  0  0  0  0  0
   15.0320  -15.7772   20.9883 C   0  0  0  0  0  0  0  0  0  0  0  0
   13.8276  -15.2458   20.4995 O   0  0  0  0  0  0  0  0  0  0  0  0
   13.9189  -14.2698   19.6852 C   0  0  0  0  0  0  0  0  0  0  0  0
   12.4962  -15.7166   20.8436 C   0  0  1  0  0  0  0  0  0  0  0  0
   12.3979  -16.8405   21.8063 N   0  0  0  0  0  0  0  0  0  0  0  0
   10.9780  -17.1265   22.0459 C   0  0  0  0  0  0  0  0  0  0  0  0
   13.0333  -16.5588   23.1278 O   0  0  0  0  0  0  0  0  0  0  0  0
   12.3520  -16.5542   24.3227 O   0  0  0  0  0  0  0  0  0  0  0  0
  2  1  1  1
  2  3  1  0
  4  5  2  0
  4  3  1  0
  6  5  1  0
  7 12  2  0
  7  6  1  0
  8  7  1  0
  9 10  1  0
  9  8  2  0
 10 11  2  0
 11 12  1  0
 12  4  1  0
 13  2  1  0
 13 14  2  0
 16 15  1  0
 16 17  2  0
 18 16  1  0
 18 19  1  0
 19 20  1  0
 20 21  1  0
 22 21  1  6
 22 23  1  0
 22 24  1  0
 23 13  1  0
 24 25  2  0
 24 31  1  0
 27 26  1  0
 28 27  2  0
 29 27  1  0
 30 29  1  6
 31 30  1  0
 32 33  1  0
 32 30  1  0
 34 32  2  0
M  END
$$$$
