WRN.pdb
     RDKit          3D

 34 35  0  0  1  0  0  0  0  0999 V2000
    7.1420  -17.7757   25.0731 N   0  0  0  0  0  0  0  0  0  0  0  0
    7.2508  -16.4904   24.4409 C   0  0  1  0  0  0  0  0  0  0  0  0
    8.2786  -15.6470   25.1514 C   0  0  0  0  0  0  0  0  0  0  0  0
    7.6720  -14.8170   26.2152 C   0  0  0  0  0  0  0  0  0  0  0  0
    7.1513  -15.2399   27.4172 C   0  0  0  0  0  0  0  0  0  0  0  0
    6.7082  -14.1576   28.0745 N   0  0  0  0  0  0  0  0  0  0  0  0
    6.9267  -13.0506   27.3346 C   0  0  0  0  0  0  0  0  0  0  0  0
    6.6818  -11.7012   27.5078 C   0  0  0  0  0  0  0  0  0  0  0  0
    7.0427  -10.8004   26.5207 C   0  0  0  0  0  0  0  0  0  0  0  0
    7.6478  -11.1955   25.3486 C   0  0  0  0  0  0  0  0  0  0  0  0
    7.8893  -12.5307   25.1789 C   0  0  0  0  0  0  0  0  0  0  0  0
    7.5322  -13.4555   26.1643 C   0  0  0  0  0  0  0  0  0  0  0  0
    7.6398  -16.6398   23.0168 C   0  0  0  0  0  0  0  0  0  0  0  0
    8.2371  -17.6780   22.6530 O   0  0  0  0  0  0  0  0  0  0  0  0
    8.0960  -12.8571   15.9898 N   0  0  0  0  0  0  0  0  0  0  0  0
    8.4755  -14.1938   15.7301 C   0  0  0  0  0  0  0  0  0  0  0  0
    9.5427  -14.4142   15.0304 N   0  0  0  0  0  0  0  0  0  0  0  0
    7.7356  -15.3004   16.2040 N   0  0  0  0  0  0  0  0  0  0  0  0
    7.1385  -15.2491   17.5448 C   0  0  0  0  0  0  0  0  0  0  0  0
    8.0353  -14.4649   18.4934 C   0  0  0  0  0  0  0  0  0  0  0  0
    7.4850  -14.4406   19.8844 C   0  0  0  0  0  0  0  0  0  0  0  0
    7.9492  -15.5269   20.7824 C   0  0  2  0  0  0  0  0  0  0  0  0
    7.3438  -15.6226   22.0626 N   0  0  0  0  0  0  0  0  0  0  0  0
    9.4374  -15.7084   20.7746 C   0  0  0  0  0  0  0  0  0  0  0  0
   10.0997  -14.7935   21.3178 O   0  0  0  0  0  0  0  0  0  0  0  0
    9.9119  -15.3752   14.8534 N   0  0  0  0  0  0  0  0  0  0  0  0
   11.3866  -18.7892   23.1218 C   0  0  0  0  0  0  0  0  0  0  0  0
   12.0296  -17.8779   22.2686 O   0  0  0  0  0  0  0  0  0  0  0  0
   12.5928  -16.8756   22.8183 C   0  0  0  0  0  0  0  0  0  0  0  0
   12.1053  -17.9859   20.8212 C   0  0  2  0  0  0  0  0  0  0  0  0
   11.5678  -16.8567   20.0239 N   0  0  0  0  0  0  0  0  0  0  0  0
   10.1125  -16.8053   20.2101 C   0  0  0  0  0  0  0  0  0  0  0  0
   11.8342  -16.9730   18.5593 O   0  0  0  0  0  0  0  0  0  0  0  0
   10.8498  -17.1000   17.6069 O   0  0  0  0  0  0  0  0  0  0  0  0
  2  1  1  1
  2  3  1  0
  4  5  2  0
  4  3  1  0
  6  5  1  0
  7 12  2  0
  7  6  1  0
  8  7  1  0
  9 10  1  0
  9  8  2  0
 10 11  2  0
 11 12  1  0
 12  4  1  0
 13  2  1  0
 13 14  2  0
 16 15  1  0
 16 17  2  0
 18 16  1  0
 18 19  1  0
 19 20  1  0
 20 21  1  0
 22 21  1  1
 22 23  1  0
 22 24  1  0
 23 13  1  0
 24 25  2  0
 24 31  1  0
 27 26  1  0
 28 27  2  0
 29 27  1  0
 30 29  1  1
 31 30  1  0
 32 33  1  0
 32 30  1  0
 34 32  2  0
M  END
$$$$
