WRN.pdb
     RDKit          3D

 34 35  0  0  1  0  0  0  0  0999 V2000
    7.2391  -17.3792   25.5725 N   0  0  0  0  0  0  0  0  0  0  0  0
    7.3369  -16.1456   24.8431 C   0  0  1  0  0  0  0  0  0  0  0  0
    8.4589  -15.3032   25.3946 C   0  0  0  0  0  0  0  0  0  0  0  0
    8.0265  -14.5031   26.5614 C   0  0  0  0  0  0  0  0  0  0  0  0
    8.2405  -14.7757   27.8935 C   0  0  0  0  0  0  0  0  0  0  0  0
    7.6798  -13.7886   28.6084 N   0  0  0  0  0  0  0  0  0  0  0  0
    7.1110  -12.8885   27.7795 C   0  0  0  0  0  0  0  0  0  0  0  0
    6.4141  -11.7079   27.9568 C   0  0  0  0  0  0  0  0  0  0  0  0
    5.9526  -11.0053   26.8570 C   0  0  0  0  0  0  0  0  0  0  0  0
    6.1605  -11.4380   25.5664 C   0  0  0  0  0  0  0  0  0  0  0  0
    6.8500  -12.6059   25.3929 C   0  0  0  0  0  0  0  0  0  0  0  0
    7.3239  -13.3294   26.4910 C   0  0  0  0  0  0  0  0  0  0  0  0
    7.5837  -16.4079   23.4037 C   0  0  0  0  0  0  0  0  0  0  0  0
    7.7896  -17.5827   23.0239 O   0  0  0  0  0  0  0  0  0  0  0  0
    8.8873  -15.5983   16.0558 N   0  0  0  0  0  0  0  0  0  0  0  0
    8.1535  -14.4136   15.8183 C   0  0  0  0  0  0  0  0  0  0  0  0
    8.0821  -13.9564   14.6088 N   0  0  0  0  0  0  0  0  0  0  0  0
    7.4943  -13.7076   16.8495 N   0  0  0  0  0  0  0  0  0  0  0  0
    8.2670  -13.2196   17.9991 C   0  0  0  0  0  0  0  0  0  0  0  0
    8.6407  -14.3775   18.9149 C   0  0  0  0  0  0  0  0  0  0  0  0
    7.9092  -14.3124   20.2184 C   0  0  0  0  0  0  0  0  0  0  0  0
    8.1524  -15.4390   21.1531 C   0  0  2  0  0  0  0  0  0  0  0  0
    7.5893  -15.3456   22.4526 N   0  0  0  0  0  0  0  0  0  0  0  0
    9.5611  -15.9505   21.1127 C   0  0  0  0  0  0  0  0  0  0  0  0
   10.3999  -15.2860   21.7652 O   0  0  0  0  0  0  0  0  0  0  0  0
    7.6073  -13.0561   14.3739 N   0  0  0  0  0  0  0  0  0  0  0  0
    9.8875  -20.4693   21.9739 C   0  0  0  0  0  0  0  0  0  0  0  0
   10.9933  -19.6319   21.7555 O   0  0  0  0  0  0  0  0  0  0  0  0
   11.7248  -19.3709   22.7658 C   0  0  0  0  0  0  0  0  0  0  0  0
   11.3685  -19.0449   20.4798 C   0  0  2  0  0  0  0  0  0  0  0  0
   11.3737  -17.5648   20.3852 N   0  0  0  0  0  0  0  0  0  0  0  0
    9.9843  -17.0912   20.4074 C   0  0  0  0  0  0  0  0  0  0  0  0
   12.0112  -17.0432   19.1398 O   0  0  0  0  0  0  0  0  0  0  0  0
   13.3404  -16.7031   19.0413 O   0  0  0  0  0  0  0  0  0  0  0  0
  2  1  1  1
  2  3  1  0
  4  5  2  0
  4  3  1  0
  6  5  1  0
  7 12  2  0
  7  6  1  0
  8  7  1  0
  9 10  1  0
  9  8  2  0
 10 11  2  0
 11 12  1  0
 12  4  1  0
 13  2  1  0
 13 14  2  0
 16 15  1  0
 16 17  2  0
 18 16  1  0
 18 19  1  0
 19 20  1  0
 20 21  1  0
 22 21  1  1
 22 23  1  0
 22 24  1  0
 23 13  1  0
 24 25  2  0
 24 31  1  0
 27 26  1  0
 28 27  2  0
 29 27  1  0
 30 29  1  1
 31 30  1  0
 32 33  1  0
 32 30  1  0
 34 32  2  0
M  END
$$$$
