WRN.pdb
     RDKit          3D

 34 35  0  0  1  0  0  0  0  0999 V2000
    6.4380  -18.4797   24.8707 N   0  0  0  0  0  0  0  0  0  0  0  0
    7.1384  -17.3116   24.4142 C   0  0  1  0  0  0  0  0  0  0  0  0
    7.7074  -16.5550   25.5875 C   0  0  0  0  0  0  0  0  0  0  0  0
    6.7932  -15.4889   26.0527 C   0  0  0  0  0  0  0  0  0  0  0  0
    5.4580  -15.6043   26.3668 C   0  0  0  0  0  0  0  0  0  0  0  0
    5.0201  -14.3934   26.7433 N   0  0  0  0  0  0  0  0  0  0  0  0
    6.0305  -13.5012   26.6819 C   0  0  0  0  0  0  0  0  0  0  0  0
    6.1519  -12.1499   26.9470 C   0  0  0  0  0  0  0  0  0  0  0  0
    7.3716  -11.5183   26.7753 C   0  0  0  0  0  0  0  0  0  0  0  0
    8.4940  -12.1889   26.3432 C   0  0  0  0  0  0  0  0  0  0  0  0
    8.3720  -13.5254   26.0814 C   0  0  0  0  0  0  0  0  0  0  0  0
    7.1488  -14.1808   26.2488 C   0  0  0  0  0  0  0  0  0  0  0  0
    8.2399  -17.6889   23.4945 C   0  0  0  0  0  0  0  0  0  0  0  0
    8.6044  -18.8851   23.4371 O   0  0  0  0  0  0  0  0  0  0  0  0
    8.7320  -11.7628   18.5269 N   0  0  0  0  0  0  0  0  0  0  0  0
    8.0907  -12.9653   18.1514 C   0  0  0  0  0  0  0  0  0  0  0  0
    6.8261  -12.9371   17.8738 N   0  0  0  0  0  0  0  0  0  0  0  0
    8.7754  -14.1984   18.0672 N   0  0  0  0  0  0  0  0  0  0  0  0
    9.8482  -14.4958   19.0251 C   0  0  0  0  0  0  0  0  0  0  0  0
    9.3988  -15.5714   20.0051 C   0  0  0  0  0  0  0  0  0  0  0  0
   10.4947  -15.9554   20.9484 C   0  0  0  0  0  0  0  0  0  0  0  0
   10.1222  -16.9177   22.0148 C   0  0  2  0  0  0  0  0  0  0  0  0
    8.8850  -16.7128   22.6796 N   0  0  0  0  0  0  0  0  0  0  0  0
   11.2666  -17.2814   22.9125 C   0  0  0  0  0  0  0  0  0  0  0  0
   12.3052  -17.6800   22.3353 O   0  0  0  0  0  0  0  0  0  0  0  0
    6.2916  -13.7896   17.5935 N   0  0  0  0  0  0  0  0  0  0  0  0
   13.8992  -16.9681   28.2885 C   0  0  0  0  0  0  0  0  0  0  0  0
   12.9427  -17.7400   27.6094 O   0  0  0  0  0  0  0  0  0  0  0  0
   12.8588  -18.9689   27.9363 C   0  0  0  0  0  0  0  0  0  0  0  0
   12.0469  -17.2537   26.5733 C   0  0  1  0  0  0  0  0  0  0  0  0
   12.3677  -17.6129   25.1705 N   0  0  0  0  0  0  0  0  0  0  0  0
   11.2442  -17.2079   24.3168 C   0  0  0  0  0  0  0  0  0  0  0  0
   12.5945  -19.0736   24.9596 O   0  0  0  0  0  0  0  0  0  0  0  0
   13.8180  -19.6881   25.0914 O   0  0  0  0  0  0  0  0  0  0  0  0
  2  1  1  1
  2  3  1  0
  4  5  2  0
  4  3  1  0
  6  5  1  0
  7 12  2  0
  7  6  1  0
  8  7  1  0
  9 10  1  0
  9  8  2  0
 10 11  2  0
 11 12  1  0
 12  4  1  0
 13  2  1  0
 13 14  2  0
 16 15  1  0
 16 17  2  0
 18 16  1  0
 18 19  1  0
 19 20  1  0
 20 21  1  0
 22 21  1  1
 22 23  1  0
 22 24  1  0
 23 13  1  0
 24 25  2  0
 24 31  1  0
 27 26  1  0
 28 27  2  0
 29 27  1  0
 30 29  1  6
 31 30  1  0
 32 33  1  0
 32 30  1  0
 34 32  2  0
M  END
$$$$
