WRN.pdb
     RDKit          3D

 34 35  0  0  1  0  0  0  0  0999 V2000
    6.8180  -16.9056   25.1772 N   0  0  0  0  0  0  0  0  0  0  0  0
    7.4154  -15.6916   24.6950 C   0  0  1  0  0  0  0  0  0  0  0  0
    8.4864  -15.2252   25.6479 C   0  0  0  0  0  0  0  0  0  0  0  0
    7.9357  -14.3690   26.7213 C   0  0  0  0  0  0  0  0  0  0  0  0
    7.9897  -14.5848   28.0797 C   0  0  0  0  0  0  0  0  0  0  0  0
    7.3670  -13.5604   28.6818 N   0  0  0  0  0  0  0  0  0  0  0  0
    6.9133  -12.6911   27.7548 C   0  0  0  0  0  0  0  0  0  0  0  0
    6.2208  -11.4956   27.7995 C   0  0  0  0  0  0  0  0  0  0  0  0
    5.9016  -10.8369   26.6246 C   0  0  0  0  0  0  0  0  0  0  0  0
    6.2499  -11.3287   25.3865 C   0  0  0  0  0  0  0  0  0  0  0  0
    6.9348  -12.5114   25.3442 C   0  0  0  0  0  0  0  0  0  0  0  0
    7.2662  -13.1912   26.5198 C   0  0  0  0  0  0  0  0  0  0  0  0
    8.0116  -15.9000   23.3524 C   0  0  0  0  0  0  0  0  0  0  0  0
    8.1278  -17.0654   22.9104 O   0  0  0  0  0  0  0  0  0  0  0  0
    7.7056  -12.9327   16.4808 N   0  0  0  0  0  0  0  0  0  0  0  0
    8.3644  -14.1655   16.6915 C   0  0  0  0  0  0  0  0  0  0  0  0
    9.1322  -14.6297   15.7577 N   0  0  0  0  0  0  0  0  0  0  0  0
    8.2179  -14.9125   17.8819 N   0  0  0  0  0  0  0  0  0  0  0  0
    7.0772  -14.6443   18.7672 C   0  0  0  0  0  0  0  0  0  0  0  0
    7.4276  -13.5470   19.7634 C   0  0  0  0  0  0  0  0  0  0  0  0
    8.7931  -13.7397   20.3436 C   0  0  0  0  0  0  0  0  0  0  0  0
    8.9549  -14.9102   21.2411 C   0  0  2  0  0  0  0  0  0  0  0  0
    8.4514  -14.7970   22.5633 N   0  0  0  0  0  0  0  0  0  0  0  0
   10.3024  -15.5587   21.1340 C   0  0  0  0  0  0  0  0  0  0  0  0
   10.7442  -15.7059   19.9704 O   0  0  0  0  0  0  0  0  0  0  0  0
    9.6438  -15.5359   15.8475 N   0  0  0  0  0  0  0  0  0  0  0  0
   13.3133  -20.2327   21.4669 C   0  0  0  0  0  0  0  0  0  0  0  0
   13.3142  -19.0027   22.1443 O   0  0  0  0  0  0  0  0  0  0  0  0
   14.4220  -18.6256   22.6490 C   0  0  0  0  0  0  0  0  0  0  0  0
   12.1632  -18.1314   22.3133 C   0  0  2  0  0  0  0  0  0  0  0  0
   12.3666  -16.6803   22.0837 N   0  0  0  0  0  0  0  0  0  0  0  0
   11.0733  -16.0000   22.2243 C   0  0  0  0  0  0  0  0  0  0  0  0
   12.9060  -16.3546   20.7299 O   0  0  0  0  0  0  0  0  0  0  0  0
   12.4425  -16.9158   19.5627 O   0  0  0  0  0  0  0  0  0  0  0  0
  2  1  1  1
  2  3  1  0
  4  5  2  0
  4  3  1  0
  6  5  1  0
  7 12  2  0
  7  6  1  0
  8  7  1  0
  9 10  1  0
  9  8  2  0
 10 11  2  0
 11 12  1  0
 12  4  1  0
 13  2  1  0
 13 14  2  0
 16 15  1  0
 16 17  2  0
 18 16  1  0
 18 19  1  0
 19 20  1  0
 20 21  1  0
 22 21  1  1
 22 23  1  0
 22 24  1  0
 23 13  1  0
 24 25  2  0
 24 31  1  0
 27 26  1  0
 28 27  2  0
 29 27  1  0
 30 29  1  1
 31 30  1  0
 32 33  1  0
 32 30  1  0
 34 32  2  0
M  END
$$$$
