WRN.pdb
     RDKit          3D

 34 35  0  0  1  0  0  0  0  0999 V2000
    7.1402  -16.9648   25.8821 N   0  0  0  0  0  0  0  0  0  0  0  0
    7.4071  -15.9748   24.8761 C   0  0  1  0  0  0  0  0  0  0  0  0
    8.6004  -15.1420   25.2701 C   0  0  0  0  0  0  0  0  0  0  0  0
    8.3419  -14.3505   26.4928 C   0  0  0  0  0  0  0  0  0  0  0  0
    8.9869  -14.4418   27.7054 C   0  0  0  0  0  0  0  0  0  0  0  0
    8.4353  -13.5399   28.5313 N   0  0  0  0  0  0  0  0  0  0  0  0
    7.4552  -12.8701   27.8897 C   0  0  0  0  0  0  0  0  0  0  0  0
    6.5773  -11.8612   28.2391 C   0  0  0  0  0  0  0  0  0  0  0  0
    5.6664  -11.3851   27.3119 C   0  0  0  0  0  0  0  0  0  0  0  0
    5.5933  -11.8811   26.0294 C   0  0  0  0  0  0  0  0  0  0  0  0
    6.4626  -12.8791   25.6855 C   0  0  0  0  0  0  0  0  0  0  0  0
    7.3894  -13.3729   26.6079 C   0  0  0  0  0  0  0  0  0  0  0  0
    7.6709  -16.6192   23.5659 C   0  0  0  0  0  0  0  0  0  0  0  0
    7.8954  -17.8500   23.5252 O   0  0  0  0  0  0  0  0  0  0  0  0
    8.7382  -13.8987   15.7642 N   0  0  0  0  0  0  0  0  0  0  0  0
    8.7284  -13.3937   17.0845 C   0  0  0  0  0  0  0  0  0  0  0  0
    8.4938  -12.1335   17.2683 N   0  0  0  0  0  0  0  0  0  0  0  0
    8.9649  -14.2104   18.2130 N   0  0  0  0  0  0  0  0  0  0  0  0
    8.6637  -13.6938   19.5544 C   0  0  0  0  0  0  0  0  0  0  0  0
    7.2939  -14.1771   20.0119 C   0  0  0  0  0  0  0  0  0  0  0  0
    7.1768  -15.6666   19.9345 C   0  0  0  0  0  0  0  0  0  0  0  0
    7.7796  -16.4220   21.0606 C   0  0  2  0  0  0  0  0  0  0  0  0
    7.6719  -15.8595   22.3593 N   0  0  0  0  0  0  0  0  0  0  0  0
    9.1235  -17.0013   20.7349 C   0  0  0  0  0  0  0  0  0  0  0  0
    9.1828  -17.6797   19.6828 O   0  0  0  0  0  0  0  0  0  0  0  0
    8.4796  -11.6954   18.2164 N   0  0  0  0  0  0  0  0  0  0  0  0
   12.3836  -14.6258   21.0376 C   0  0  0  0  0  0  0  0  0  0  0  0
   12.4322  -15.4807   19.9246 O   0  0  0  0  0  0  0  0  0  0  0  0
   12.8255  -14.9706   18.8251 C   0  0  0  0  0  0  0  0  0  0  0  0
   12.0744  -16.8895   19.9264 C   0  0  1  0  0  0  0  0  0  0  0  0
   11.5715  -17.4639   21.1979 N   0  0  0  0  0  0  0  0  0  0  0  0
   10.2822  -16.8376   21.5150 C   0  0  0  0  0  0  0  0  0  0  0  0
   12.4819  -17.2423   22.3605 O   0  0  0  0  0  0  0  0  0  0  0  0
   13.7840  -17.6827   22.4118 O   0  0  0  0  0  0  0  0  0  0  0  0
  2  1  1  1
  2  3  1  0
  4  5  2  0
  4  3  1  0
  6  5  1  0
  7 12  2  0
  7  6  1  0
  8  7  1  0
  9 10  1  0
  9  8  2  0
 10 11  2  0
 11 12  1  0
 12  4  1  0
 13  2  1  0
 13 14  2  0
 16 15  1  0
 16 17  2  0
 18 16  1  0
 18 19  1  0
 19 20  1  0
 20 21  1  0
 22 21  1  6
 22 23  1  0
 22 24  1  0
 23 13  1  0
 24 25  2  0
 24 31  1  0
 27 26  1  0
 28 27  2  0
 29 27  1  0
 30 29  1  6
 31 30  1  0
 32 33  1  0
 32 30  1  0
 34 32  2  0
M  END
$$$$
