WRN.pdb
     RDKit          3D

 34 35  0  0  1  0  0  0  0  0999 V2000
    7.4310  -17.0787   25.7548 N   0  0  0  0  0  0  0  0  0  0  0  0
    7.9687  -16.2711   24.6954 C   0  0  1  0  0  0  0  0  0  0  0  0
    9.0584  -15.3751   25.2269 C   0  0  0  0  0  0  0  0  0  0  0  0
    8.5999  -14.5746   26.3834 C   0  0  0  0  0  0  0  0  0  0  0  0
    8.9644  -14.7187   27.7029 C   0  0  0  0  0  0  0  0  0  0  0  0
    8.3123  -13.7849   28.4119 N   0  0  0  0  0  0  0  0  0  0  0  0
    7.5390  -13.0435   27.5913 C   0  0  0  0  0  0  0  0  0  0  0  0
    6.6774  -11.9771   27.7679 C   0  0  0  0  0  0  0  0  0  0  0  0
    6.0192  -11.4321   26.6788 C   0  0  0  0  0  0  0  0  0  0  0  0
    6.1872  -11.9140   25.4000 C   0  0  0  0  0  0  0  0  0  0  0  0
    7.0399  -12.9689   25.2272 C   0  0  0  0  0  0  0  0  0  0  0  0
    7.7135  -13.5327   26.3145 C   0  0  0  0  0  0  0  0  0  0  0  0
    8.5209  -17.1258   23.6156 C   0  0  0  0  0  0  0  0  0  0  0  0
    7.9590  -18.2123   23.3495 O   0  0  0  0  0  0  0  0  0  0  0  0
    9.2788  -13.4378   16.6125 N   0  0  0  0  0  0  0  0  0  0  0  0
    8.3984  -12.8257   17.5336 C   0  0  0  0  0  0  0  0  0  0  0  0
    8.6022  -11.5904   17.8644 N   0  0  0  0  0  0  0  0  0  0  0  0
    7.3035  -13.5093   18.1086 N   0  0  0  0  0  0  0  0  0  0  0  0
    7.3469  -13.8762   19.5301 C   0  0  0  0  0  0  0  0  0  0  0  0
    8.5710  -14.7353   19.8173 C   0  0  0  0  0  0  0  0  0  0  0  0
    8.5732  -15.2457   21.2236 C   0  0  0  0  0  0  0  0  0  0  0  0
    9.6452  -16.2159   21.5576 C   0  0  2  0  0  0  0  0  0  0  0  0
    9.6764  -16.7283   22.8809 N   0  0  0  0  0  0  0  0  0  0  0  0
   10.9834  -15.8382   20.9971 C   0  0  0  0  0  0  0  0  0  0  0  0
   11.0152  -15.6242   19.7626 O   0  0  0  0  0  0  0  0  0  0  0  0
    8.0737  -11.1180   18.6316 N   0  0  0  0  0  0  0  0  0  0  0  0
   13.9805  -18.6555   22.3275 C   0  0  0  0  0  0  0  0  0  0  0  0
   14.3420  -17.2990   22.3596 O   0  0  0  0  0  0  0  0  0  0  0  0
   14.6495  -16.8132   23.4969 C   0  0  0  0  0  0  0  0  0  0  0  0
   14.3948  -16.4122   21.2093 C   0  0  2  0  0  0  0  0  0  0  0  0
   13.4464  -15.2722   21.1827 N   0  0  0  0  0  0  0  0  0  0  0  0
   12.1665  -15.7171   21.7477 C   0  0  0  0  0  0  0  0  0  0  0  0
   13.1783  -14.7437   19.8122 O   0  0  0  0  0  0  0  0  0  0  0  0
   14.1394  -14.1844   19.0027 O   0  0  0  0  0  0  0  0  0  0  0  0
  2  1  1  1
  2  3  1  0
  4  5  2  0
  4  3  1  0
  6  5  1  0
  7 12  2  0
  7  6  1  0
  8  7  1  0
  9 10  1  0
  9  8  2  0
 10 11  2  0
 11 12  1  0
 12  4  1  0
 13  2  1  0
 13 14  2  0
 16 15  1  0
 16 17  2  0
 18 16  1  0
 18 19  1  0
 19 20  1  0
 20 21  1  0
 22 21  1  1
 22 23  1  0
 22 24  1  0
 23 13  1  0
 24 25  2  0
 24 31  1  0
 27 26  1  0
 28 27  2  0
 29 27  1  0
 30 29  1  1
 31 30  1  0
 32 33  1  0
 32 30  1  0
 34 32  2  0
M  END
$$$$
