WRN.pdb
     RDKit          3D

 34 35  0  0  1  0  0  0  0  0999 V2000
    7.0588  -17.1033   24.8365 N   0  0  0  0  0  0  0  0  0  0  0  0
    7.7616  -16.0920   24.0971 C   0  0  1  0  0  0  0  0  0  0  0  0
    8.8029  -15.4391   24.9701 C   0  0  0  0  0  0  0  0  0  0  0  0
    8.1962  -14.7391   26.1236 C   0  0  0  0  0  0  0  0  0  0  0  0
    8.1221  -15.1748   27.4272 C   0  0  0  0  0  0  0  0  0  0  0  0
    7.4919  -14.2287   28.1397 N   0  0  0  0  0  0  0  0  0  0  0  0
    7.1574  -13.1970   27.3368 C   0  0  0  0  0  0  0  0  0  0  0  0
    6.5137  -11.9882   27.5242 C   0  0  0  0  0  0  0  0  0  0  0  0
    6.3260  -11.1312   26.4534 C   0  0  0  0  0  0  0  0  0  0  0  0
    6.7607  -11.4344   25.1824 C   0  0  0  0  0  0  0  0  0  0  0  0
    7.3972  -12.6306   24.9990 C   0  0  0  0  0  0  0  0  0  0  0  0
    7.5961  -13.5091   26.0679 C   0  0  0  0  0  0  0  0  0  0  0  0
    8.4210  -16.6798   22.9049 C   0  0  0  0  0  0  0  0  0  0  0  0
    8.4876  -17.9250   22.7961 O   0  0  0  0  0  0  0  0  0  0  0  0
    7.5938  -12.5982   16.6303 N   0  0  0  0  0  0  0  0  0  0  0  0
    7.0517  -13.8790   16.8828 C   0  0  0  0  0  0  0  0  0  0  0  0
    6.8025  -14.6593   15.8799 N   0  0  0  0  0  0  0  0  0  0  0  0
    6.7703  -14.3422   18.1878 N   0  0  0  0  0  0  0  0  0  0  0  0
    7.8511  -14.4068   19.1800 C   0  0  0  0  0  0  0  0  0  0  0  0
    8.9173  -15.3996   18.7366 C   0  0  0  0  0  0  0  0  0  0  0  0
   10.0661  -15.4447   19.6940 C   0  0  0  0  0  0  0  0  0  0  0  0
    9.8781  -16.3036   20.8894 C   0  0  2  0  0  0  0  0  0  0  0  0
    8.9765  -15.8499   21.8873 N   0  0  0  0  0  0  0  0  0  0  0  0
   11.1590  -16.8803   21.4135 C   0  0  0  0  0  0  0  0  0  0  0  0
   11.5090  -17.9737   20.9108 O   0  0  0  0  0  0  0  0  0  0  0  0
    6.4988  -15.6516   15.9997 N   0  0  0  0  0  0  0  0  0  0  0  0
   14.4018  -14.3016   20.4073 C   0  0  0  0  0  0  0  0  0  0  0  0
   14.5130  -15.5571   21.0263 O   0  0  0  0  0  0  0  0  0  0  0  0
   14.8176  -16.5420   20.2772 C   0  0  0  0  0  0  0  0  0  0  0  0
   14.3118  -15.8212   22.4414 C   0  0  2  0  0  0  0  0  0  0  0  0
   13.2730  -16.8138   22.8090 N   0  0  0  0  0  0  0  0  0  0  0  0
   11.9628  -16.2893   22.4047 C   0  0  0  0  0  0  0  0  0  0  0  0
   13.2122  -17.1084   24.2716 O   0  0  0  0  0  0  0  0  0  0  0  0
   12.0720  -16.9924   25.0321 O   0  0  0  0  0  0  0  0  0  0  0  0
  2  1  1  1
  2  3  1  0
  4  5  2  0
  4  3  1  0
  6  5  1  0
  7 12  2  0
  7  6  1  0
  8  7  1  0
  9 10  1  0
  9  8  2  0
 10 11  2  0
 11 12  1  0
 12  4  1  0
 13  2  1  0
 13 14  2  0
 16 15  1  0
 16 17  2  0
 18 16  1  0
 18 19  1  0
 19 20  1  0
 20 21  1  0
 22 21  1  6
 22 23  1  0
 22 24  1  0
 23 13  1  0
 24 25  2  0
 24 31  1  0
 27 26  1  0
 28 27  2  0
 29 27  1  0
 30 29  1  6
 31 30  1  0
 32 33  1  0
 32 30  1  0
 34 32  2  0
M  END
$$$$
