WRN.pdb
     RDKit          3D

 34 35  0  0  1  0  0  0  0  0999 V2000
    7.2109  -17.2989   25.7070 N   0  0  0  0  0  0  0  0  0  0  0  0
    7.3944  -16.0675   24.9906 C   0  0  1  0  0  0  0  0  0  0  0  0
    8.5792  -15.3165   25.5429 C   0  0  0  0  0  0  0  0  0  0  0  0
    8.1990  -14.4377   26.6706 C   0  0  0  0  0  0  0  0  0  0  0  0
    8.5385  -14.5778   27.9972 C   0  0  0  0  0  0  0  0  0  0  0  0
    7.9822  -13.5603   28.6717 N   0  0  0  0  0  0  0  0  0  0  0  0
    7.2948  -12.7688   27.8221 C   0  0  0  0  0  0  0  0  0  0  0  0
    6.5470  -11.6142   27.9586 C   0  0  0  0  0  0  0  0  0  0  0  0
    5.9554  -11.0380   26.8476 C   0  0  0  0  0  0  0  0  0  0  0  0
    6.0804  -11.5740   25.5854 C   0  0  0  0  0  0  0  0  0  0  0  0
    6.8204  -12.7161   25.4523 C   0  0  0  0  0  0  0  0  0  0  0  0
    7.4255  -13.3125   26.5622 C   0  0  0  0  0  0  0  0  0  0  0  0
    7.6114  -16.3304   23.5465 C   0  0  0  0  0  0  0  0  0  0  0  0
    7.9984  -17.4644   23.1840 O   0  0  0  0  0  0  0  0  0  0  0  0
    9.5904  -14.8621   16.8238 N   0  0  0  0  0  0  0  0  0  0  0  0
    8.5938  -14.1864   16.0833 C   0  0  0  0  0  0  0  0  0  0  0  0
    8.7505  -14.0520   14.8049 N   0  0  0  0  0  0  0  0  0  0  0  0
    7.4320  -13.6509   16.6834 N   0  0  0  0  0  0  0  0  0  0  0  0
    7.4800  -13.2100   18.0835 C   0  0  0  0  0  0  0  0  0  0  0  0
    8.0737  -14.3031   18.9620 C   0  0  0  0  0  0  0  0  0  0  0  0
    7.6456  -14.1621   20.3886 C   0  0  0  0  0  0  0  0  0  0  0  0
    7.9647  -15.3081   21.2756 C   0  0  2  0  0  0  0  0  0  0  0  0
    7.3862  -15.3146   22.5717 N   0  0  0  0  0  0  0  0  0  0  0  0
    9.4078  -15.7117   21.2283 C   0  0  0  0  0  0  0  0  0  0  0  0
   10.1000  -15.3729   22.2166 O   0  0  0  0  0  0  0  0  0  0  0  0
    8.0385  -13.5911   14.1952 N   0  0  0  0  0  0  0  0  0  0  0  0
   14.0275  -18.1698   20.5679 C   0  0  0  0  0  0  0  0  0  0  0  0
   12.9742  -18.2980   21.4877 O   0  0  0  0  0  0  0  0  0  0  0  0
   13.1833  -19.0430   22.5003 C   0  0  0  0  0  0  0  0  0  0  0  0
   11.6761  -17.6533   21.3796 C   0  0  1  0  0  0  0  0  0  0  0  0
   11.4222  -16.8293   20.1728 N   0  0  0  0  0  0  0  0  0  0  0  0
   10.0121  -16.4211   20.1750 C   0  0  0  0  0  0  0  0  0  0  0  0
   11.6857  -17.5446   18.8888 O   0  0  0  0  0  0  0  0  0  0  0  0
   10.7257  -17.7896   17.9347 O   0  0  0  0  0  0  0  0  0  0  0  0
  2  1  1  1
  2  3  1  0
  4  5  2  0
  4  3  1  0
  6  5  1  0
  7 12  2  0
  7  6  1  0
  8  7  1  0
  9 10  1  0
  9  8  2  0
 10 11  2  0
 11 12  1  0
 12  4  1  0
 13  2  1  0
 13 14  2  0
 16 15  1  0
 16 17  2  0
 18 16  1  0
 18 19  1  0
 19 20  1  0
 20 21  1  0
 22 21  1  1
 22 23  1  0
 22 24  1  0
 23 13  1  0
 24 25  2  0
 24 31  1  0
 27 26  1  0
 28 27  2  0
 29 27  1  0
 30 29  1  1
 31 30  1  0
 32 33  1  0
 32 30  1  0
 34 32  2  0
M  END
$$$$
