WRN.pdb
     RDKit          3D

 34 35  0  0  1  0  0  0  0  0999 V2000
    7.4855  -17.2287   25.9267 N   0  0  0  0  0  0  0  0  0  0  0  0
    7.8181  -16.3466   24.8428 C   0  0  1  0  0  0  0  0  0  0  0  0
    8.9497  -15.4346   25.2435 C   0  0  0  0  0  0  0  0  0  0  0  0
    8.5841  -14.5709   26.3876 C   0  0  0  0  0  0  0  0  0  0  0  0
    8.9674  -14.7101   27.7022 C   0  0  0  0  0  0  0  0  0  0  0  0
    8.4087  -13.7095   28.3995 N   0  0  0  0  0  0  0  0  0  0  0  0
    7.6772  -12.9297   27.5762 C   0  0  0  0  0  0  0  0  0  0  0  0
    6.9074  -11.7937   27.7425 C   0  0  0  0  0  0  0  0  0  0  0  0
    6.2687  -11.2256   26.6537 C   0  0  0  0  0  0  0  0  0  0  0  0
    6.3672  -11.7518   25.3850 C   0  0  0  0  0  0  0  0  0  0  0  0
    7.1290  -12.8755   25.2225 C   0  0  0  0  0  0  0  0  0  0  0  0
    7.7817  -13.4636   26.3097 C   0  0  0  0  0  0  0  0  0  0  0  0
    8.2159  -17.1217   23.6417 C   0  0  0  0  0  0  0  0  0  0  0  0
    8.4522  -18.3456   23.7558 O   0  0  0  0  0  0  0  0  0  0  0  0
    7.8952  -12.2544   17.5197 N   0  0  0  0  0  0  0  0  0  0  0  0
    8.5939  -13.4830   17.5488 C   0  0  0  0  0  0  0  0  0  0  0  0
    9.8882  -13.4634   17.5846 N   0  0  0  0  0  0  0  0  0  0  0  0
    7.9353  -14.7330   17.5401 N   0  0  0  0  0  0  0  0  0  0  0  0
    6.9049  -15.0135   18.5484 C   0  0  0  0  0  0  0  0  0  0  0  0
    7.5512  -15.3453   19.8868 C   0  0  0  0  0  0  0  0  0  0  0  0
    8.1044  -16.7352   19.9064 C   0  0  0  0  0  0  0  0  0  0  0  0
    8.7335  -17.1628   21.1805 C   0  0  2  0  0  0  0  0  0  0  0  0
    8.3317  -16.4945   22.3665 N   0  0  0  0  0  0  0  0  0  0  0  0
   10.2085  -17.4040   21.0627 C   0  0  0  0  0  0  0  0  0  0  0  0
   10.6231  -17.6883   19.9147 O   0  0  0  0  0  0  0  0  0  0  0  0
   10.4670  -14.3303   17.5167 N   0  0  0  0  0  0  0  0  0  0  0  0
   14.9279  -14.6827   21.6073 C   0  0  0  0  0  0  0  0  0  0  0  0
   14.1157  -15.5037   20.8085 O   0  0  0  0  0  0  0  0  0  0  0  0
   14.6263  -15.9363   19.7241 C   0  0  0  0  0  0  0  0  0  0  0  0
   12.7512  -15.8978   21.1175 C   0  0  2  0  0  0  0  0  0  0  0  0
   12.5635  -17.1103   21.9507 N   0  0  0  0  0  0  0  0  0  0  0  0
   11.1238  -17.3360   22.1282 C   0  0  0  0  0  0  0  0  0  0  0  0
   13.1779  -17.0094   23.3079 O   0  0  0  0  0  0  0  0  0  0  0  0
   14.5309  -17.0778   23.5460 O   0  0  0  0  0  0  0  0  0  0  0  0
  2  1  1  1
  2  3  1  0
  4  5  2  0
  4  3  1  0
  6  5  1  0
  7 12  2  0
  7  6  1  0
  8  7  1  0
  9 10  1  0
  9  8  2  0
 10 11  2  0
 11 12  1  0
 12  4  1  0
 13  2  1  0
 13 14  2  0
 16 15  1  0
 16 17  2  0
 18 16  1  0
 18 19  1  0
 19 20  1  0
 20 21  1  0
 22 21  1  6
 22 23  1  0
 22 24  1  0
 23 13  1  0
 24 25  2  0
 24 31  1  0
 27 26  1  0
 28 27  2  0
 29 27  1  0
 30 29  1  6
 31 30  1  0
 32 33  1  0
 32 30  1  0
 34 32  2  0
M  END
$$$$
