WRN.pdb
     RDKit          3D

 34 35  0  0  1  0  0  0  0  0999 V2000
    6.9577  -15.4668   21.0793 N   0  0  0  0  0  0  0  0  0  0  0  0
    7.6587  -15.4924   22.3329 C   0  0  1  0  0  0  0  0  0  0  0  0
    6.7572  -15.0136   23.4422 C   0  0  0  0  0  0  0  0  0  0  0  0
    7.5271  -14.5224   24.6061 C   0  0  0  0  0  0  0  0  0  0  0  0
    8.6484  -15.0865   25.1710 C   0  0  0  0  0  0  0  0  0  0  0  0
    9.0191  -14.3143   26.2035 N   0  0  0  0  0  0  0  0  0  0  0  0
    8.1724  -13.2704   26.3222 C   0  0  0  0  0  0  0  0  0  0  0  0
    8.0735  -12.1913   27.1805 C   0  0  0  0  0  0  0  0  0  0  0  0
    7.0504  -11.2726   27.0215 C   0  0  0  0  0  0  0  0  0  0  0  0
    6.1060  -11.3869   26.0259 C   0  0  0  0  0  0  0  0  0  0  0  0
    6.2054  -12.4548   25.1778 C   0  0  0  0  0  0  0  0  0  0  0  0
    7.2314  -13.3930   25.3224 C   0  0  0  0  0  0  0  0  0  0  0  0
    8.1274  -16.8660   22.6414 C   0  0  0  0  0  0  0  0  0  0  0  0
    7.5613  -17.8408   22.0972 O   0  0  0  0  0  0  0  0  0  0  0  0
   13.6377  -18.8485   17.5068 N   0  0  0  0  0  0  0  0  0  0  0  0
   12.2911  -19.0200   17.9012 C   0  0  0  0  0  0  0  0  0  0  0  0
   11.3732  -19.0503   16.9883 N   0  0  0  0  0  0  0  0  0  0  0  0
   11.9065  -19.1596   19.2536 N   0  0  0  0  0  0  0  0  0  0  0  0
   12.7098  -18.5187   20.3029 C   0  0  0  0  0  0  0  0  0  0  0  0
   12.0833  -18.7598   21.6698 C   0  0  0  0  0  0  0  0  0  0  0  0
   10.9807  -17.7893   21.9539 C   0  0  0  0  0  0  0  0  0  0  0  0
   10.3155  -17.9343   23.2724 C   0  0  2  0  0  0  0  0  0  0  0  0
    9.2081  -17.0891   23.5443 N   0  0  0  0  0  0  0  0  0  0  0  0
   11.2796  -18.0941   24.4094 C   0  0  0  0  0  0  0  0  0  0  0  0
   12.2378  -18.8754   24.2041 O   0  0  0  0  0  0  0  0  0  0  0  0
   10.3637  -19.2028   17.2092 N   0  0  0  0  0  0  0  0  0  0  0  0
    8.4585  -19.3468   28.9920 C   0  0  0  0  0  0  0  0  0  0  0  0
    9.1448  -19.7180   27.8245 O   0  0  0  0  0  0  0  0  0  0  0  0
    9.4284  -20.9534   27.6931 C   0  0  0  0  0  0  0  0  0  0  0  0
    9.5530  -18.8141   26.7620 C   0  0  1  0  0  0  0  0  0  0  0  0
   10.8645  -18.1371   26.9087 N   0  0  0  0  0  0  0  0  0  0  0  0
   11.1748  -17.4443   25.6522 C   0  0  0  0  0  0  0  0  0  0  0  0
   11.9934  -19.0687   27.2042 O   0  0  0  0  0  0  0  0  0  0  0  0
   12.4197  -19.3809   28.4741 O   0  0  0  0  0  0  0  0  0  0  0  0
  2  1  1  6
  2  3  1  0
  4  5  2  0
  4  3  1  0
  6  5  1  0
  7 12  2  0
  7  6  1  0
  8  7  1  0
  9 10  1  0
  9  8  2  0
 10 11  2  0
 11 12  1  0
 12  4  1  0
 13  2  1  0
 13 14  2  0
 16 15  1  0
 16 17  2  0
 18 16  1  0
 18 19  1  0
 19 20  1  0
 20 21  1  0
 22 21  1  6
 22 23  1  0
 22 24  1  0
 23 13  1  0
 24 25  2  0
 24 31  1  0
 27 26  1  0
 28 27  2  0
 29 27  1  0
 30 29  1  1
 31 30  1  0
 32 33  1  0
 32 30  1  0
 34 32  2  0
M  END
$$$$
