WRN.pdb
     RDKit          3D

 34 35  0  0  1  0  0  0  0  0999 V2000
    6.9841  -16.9993   26.1939 N   0  0  0  0  0  0  0  0  0  0  0  0
    7.3961  -16.2757   25.0234 C   0  0  1  0  0  0  0  0  0  0  0  0
    8.5541  -15.3687   25.3538 C   0  0  0  0  0  0  0  0  0  0  0  0
    8.1953  -14.3676   26.3823 C   0  0  0  0  0  0  0  0  0  0  0  0
    8.7296  -14.2293   27.6432 C   0  0  0  0  0  0  0  0  0  0  0  0
    8.1151  -13.1950   28.2369 N   0  0  0  0  0  0  0  0  0  0  0  0
    7.2015  -12.6624   27.3987 C   0  0  0  0  0  0  0  0  0  0  0  0
    6.3048  -11.6132   27.4775 C   0  0  0  0  0  0  0  0  0  0  0  0
    5.4837  -11.3230   26.4014 C   0  0  0  0  0  0  0  0  0  0  0  0
    5.5201  -12.0472   25.2309 C   0  0  0  0  0  0  0  0  0  0  0  0
    6.4076  -13.0846   25.1548 C   0  0  0  0  0  0  0  0  0  0  0  0
    7.2449  -13.3930   26.2307 C   0  0  0  0  0  0  0  0  0  0  0  0
    7.7997  -17.2120   23.9454 C   0  0  0  0  0  0  0  0  0  0  0  0
    8.2386  -18.3434   24.2523 O   0  0  0  0  0  0  0  0  0  0  0  0
    7.4362  -13.7401   15.8193 N   0  0  0  0  0  0  0  0  0  0  0  0
    8.2424  -13.3654   16.9184 C   0  0  0  0  0  0  0  0  0  0  0  0
    8.2587  -12.1235   17.2849 N   0  0  0  0  0  0  0  0  0  0  0  0
    9.0323  -14.2932   17.6337 N   0  0  0  0  0  0  0  0  0  0  0  0
    8.4173  -15.5280   18.1379 C   0  0  0  0  0  0  0  0  0  0  0  0
    8.7884  -15.7451   19.5988 C   0  0  0  0  0  0  0  0  0  0  0  0
    8.1846  -17.0006   20.1440 C   0  0  0  0  0  0  0  0  0  0  0  0
    8.5417  -17.3344   21.5451 C   0  0  2  0  0  0  0  0  0  0  0  0
    7.6949  -16.8423   22.5724 N   0  0  0  0  0  0  0  0  0  0  0  0
   10.0092  -17.2157   21.8281 C   0  0  0  0  0  0  0  0  0  0  0  0
   10.4825  -16.0567   21.7686 O   0  0  0  0  0  0  0  0  0  0  0  0
    8.8339  -11.7800   18.0863 N   0  0  0  0  0  0  0  0  0  0  0  0
   14.9875  -17.2239   20.3435 C   0  0  0  0  0  0  0  0  0  0  0  0
   14.1412  -16.6948   21.3312 O   0  0  0  0  0  0  0  0  0  0  0  0
   14.6775  -15.9291   22.1972 C   0  0  0  0  0  0  0  0  0  0  0  0
   12.7142  -16.9468   21.4433 C   0  0  1  0  0  0  0  0  0  0  0  0
   12.2912  -18.3171   21.8215 N   0  0  0  0  0  0  0  0  0  0  0  0
   10.8589  -18.2913   22.1425 C   0  0  0  0  0  0  0  0  0  0  0  0
   13.0127  -18.8639   23.0091 O   0  0  0  0  0  0  0  0  0  0  0  0
   12.3921  -19.2519   24.1736 O   0  0  0  0  0  0  0  0  0  0  0  0
  2  1  1  1
  2  3  1  0
  4  5  2  0
  4  3  1  0
  6  5  1  0
  7 12  2  0
  7  6  1  0
  8  7  1  0
  9 10  1  0
  9  8  2  0
 10 11  2  0
 11 12  1  0
 12  4  1  0
 13  2  1  0
 13 14  2  0
 16 15  1  0
 16 17  2  0
 18 16  1  0
 18 19  1  0
 19 20  1  0
 20 21  1  0
 22 21  1  6
 22 23  1  0
 22 24  1  0
 23 13  1  0
 24 25  2  0
 24 31  1  0
 27 26  1  0
 28 27  2  0
 29 27  1  0
 30 29  1  6
 31 30  1  0
 32 33  1  0
 32 30  1  0
 34 32  2  0
M  END
$$$$
