AST.pdb
     RDKit          3D

 19 18  0  0  1  0  0  0  0  0999 V2000
   18.8772  -10.9042  -19.5375 C   0  0  0  0  0  0  0  0  0  0  0  0
   20.2089  -11.1614  -18.8650 C   0  0  2  0  0  0  0  0  0  0  0  0
   20.3467  -12.5898  -18.6823 N   0  0  0  0  0  0  0  0  0  0  0  0
   20.2490  -10.4283  -17.5811 C   0  0  0  0  0  0  0  0  0  0  0  0
   19.1741  -10.3440  -16.9336 O   0  0  0  0  0  0  0  0  0  0  0  0
   22.3133   -9.3819  -13.5579 O   0  0  0  0  0  0  0  0  0  0  0  0
   22.2410  -10.0335  -14.7664 C   0  0  0  0  0  0  0  0  0  0  0  0
   21.3855   -9.2077  -15.7216 C   0  0  2  0  0  0  0  0  0  0  0  0
   21.3960   -9.8223  -17.0355 N   0  0  0  0  0  0  0  0  0  0  0  0
   21.9306   -7.8255  -15.8550 C   0  0  0  0  0  0  0  0  0  0  0  0
   22.9454   -7.5720  -16.5618 O   0  0  0  0  0  0  0  0  0  0  0  0
   20.4331   -4.8454  -17.2944 C   0  0  0  0  0  0  0  0  0  0  0  0
   20.7847   -4.4913  -15.8882 C   0  0  1  0  0  0  0  0  0  0  0  0
   19.6525   -4.5286  -15.0770 O   0  0  0  0  0  0  0  0  0  0  0  0
   21.8520   -5.3707  -15.2938 C   0  0  2  0  0  0  0  0  0  0  0  0
   21.3327   -6.7180  -15.1901 N   0  0  0  0  0  0  0  0  0  0  0  0
   22.2961   -4.9242  -13.9658 C   0  0  0  0  0  0  0  0  0  0  0  0
   23.0210   -3.7594  -13.7844 O   0  0  0  0  0  0  0  0  0  0  0  0
   22.0182   -5.6081  -12.9545 O   0  0  0  0  0  0  0  0  0  0  0  0
  2  1  1  1
  2  3  1  0
  4  5  2  0
  4  2  1  0
  6  7  1  0
  8  7  1  1
  8  9  1  0
  9  4  1  0
 10  8  1  0
 10 11  2  0
 13 12  1  6
 13 14  1  0
 15 16  1  1
 15 13  1  0
 16 10  1  0
 17 15  1  0
 18 17  1  0
 19 17  2  0
M  END
$$$$
