AST.pdb
     RDKit          3D

 19 18  0  0  1  0  0  0  0  0999 V2000
   18.0752  -10.6257  -18.9720 C   0  0  0  0  0  0  0  0  0  0  0  0
   19.0400   -9.4646  -19.0853 C   0  0  2  0  0  0  0  0  0  0  0  0
   20.2019   -9.9212  -19.8164 N   0  0  0  0  0  0  0  0  0  0  0  0
   19.3857   -8.9921  -17.7272 C   0  0  0  0  0  0  0  0  0  0  0  0
   18.4556   -8.5078  -17.0329 O   0  0  0  0  0  0  0  0  0  0  0  0
   23.2156   -9.1295  -16.0636 O   0  0  0  0  0  0  0  0  0  0  0  0
   22.1341   -9.3309  -15.2388 C   0  0  0  0  0  0  0  0  0  0  0  0
   20.9330   -8.5838  -15.8092 C   0  0  2  0  0  0  0  0  0  0  0  0
   20.6724   -9.0452  -17.1595 N   0  0  0  0  0  0  0  0  0  0  0  0
   21.2041   -7.1180  -15.8673 C   0  0  0  0  0  0  0  0  0  0  0  0
   21.7880   -6.5843  -16.8510 O   0  0  0  0  0  0  0  0  0  0  0  0
   20.0378   -2.5947  -14.4408 C   0  0  0  0  0  0  0  0  0  0  0  0
   19.8395   -4.0668  -14.5819 C   0  0  1  0  0  0  0  0  0  0  0  0
   18.9381   -4.3426  -15.6079 O   0  0  0  0  0  0  0  0  0  0  0  0
   21.1162   -4.8268  -14.8235 C   0  0  2  0  0  0  0  0  0  0  0  0
   20.8172   -6.2432  -14.8132 N   0  0  0  0  0  0  0  0  0  0  0  0
   22.1539   -4.5482  -13.8204 C   0  0  0  0  0  0  0  0  0  0  0  0
   23.0869   -3.5398  -13.9861 O   0  0  0  0  0  0  0  0  0  0  0  0
   22.2100   -5.2362  -12.7759 O   0  0  0  0  0  0  0  0  0  0  0  0
  2  1  1  1
  2  3  1  0
  4  5  2  0
  4  2  1  0
  6  7  1  0
  8  7  1  6
  8  9  1  0
  9  4  1  0
 10  8  1  0
 10 11  2  0
 13 12  1  6
 13 14  1  0
 15 16  1  1
 15 13  1  0
 16 10  1  0
 17 15  1  0
 18 17  1  0
 19 17  2  0
M  END
$$$$
