AST.pdb
     RDKit          3D

 19 18  0  0  1  0  0  0  0  0999 V2000
   15.3640  -21.7861   -0.8536 C   0  0  0  0  0  0  0  0  0  0  0  0
   14.7996  -22.9610   -0.0836 C   0  0  2  0  0  0  0  0  0  0  0  0
   13.4667  -23.2210   -0.5823 N   0  0  0  0  0  0  0  0  0  0  0  0
   14.8019  -22.6364    1.3592 C   0  0  0  0  0  0  0  0  0  0  0  0
   13.7613  -22.1117    1.8321 O   0  0  0  0  0  0  0  0  0  0  0  0
   17.5128  -24.1745    3.9460 O   0  0  0  0  0  0  0  0  0  0  0  0
   16.2870  -23.8001    4.4438 C   0  0  0  0  0  0  0  0  0  0  0  0
   15.7820  -22.5954    3.6564 C   0  0  2  0  0  0  0  0  0  0  0  0
   15.8779  -22.8709    2.2355 N   0  0  0  0  0  0  0  0  0  0  0  0
   16.6111  -21.3904    3.9493 C   0  0  0  0  0  0  0  0  0  0  0  0
   17.7586  -21.2301    3.4481 O   0  0  0  0  0  0  0  0  0  0  0  0
   15.4741  -17.6849    3.7150 C   0  0  0  0  0  0  0  0  0  0  0  0
   16.0258  -17.9763    5.0704 C   0  0  1  0  0  0  0  0  0  0  0  0
   14.9945  -18.1517    5.9907 O   0  0  0  0  0  0  0  0  0  0  0  0
   16.9344  -19.1759    5.1064 C   0  0  2  0  0  0  0  0  0  0  0  0
   16.1496  -20.3561    4.8115 N   0  0  0  0  0  0  0  0  0  0  0  0
   17.6034  -19.3562    6.4026 C   0  0  0  0  0  0  0  0  0  0  0  0
   18.5807  -18.4868    6.8545 O   0  0  0  0  0  0  0  0  0  0  0  0
   17.2912  -20.3227    7.1347 O   0  0  0  0  0  0  0  0  0  0  0  0
  2  1  1  6
  2  3  1  0
  4  5  2  0
  4  2  1  0
  6  7  1  0
  8  7  1  1
  8  9  1  0
  9  4  1  0
 10  8  1  0
 10 11  2  0
 13 12  1  6
 13 14  1  0
 15 16  1  1
 15 13  1  0
 16 10  1  0
 17 15  1  0
 18 17  1  0
 19 17  2  0
M  END
$$$$
