AST.pdb
     RDKit          3D

 19 18  0  0  1  0  0  0  0  0999 V2000
   14.6895  -13.7213  -16.5346 C   0  0  0  0  0  0  0  0  0  0  0  0
   15.6005  -13.3120  -15.3969 C   0  0  2  0  0  0  0  0  0  0  0  0
   14.7691  -12.8831  -14.2934 N   0  0  0  0  0  0  0  0  0  0  0  0
   16.5029  -12.2381  -15.8657 C   0  0  0  0  0  0  0  0  0  0  0  0
   17.5164  -12.5856  -16.5243 O   0  0  0  0  0  0  0  0  0  0  0  0
   15.8522   -8.2583  -15.0918 O   0  0  0  0  0  0  0  0  0  0  0  0
   16.3723   -8.5387  -16.3333 C   0  0  0  0  0  0  0  0  0  0  0  0
   17.1390   -9.8552  -16.2610 C   0  0  2  0  0  0  0  0  0  0  0  0
   16.3102  -10.8642  -15.6294 N   0  0  0  0  0  0  0  0  0  0  0  0
   18.3774   -9.6986  -15.4442 C   0  0  0  0  0  0  0  0  0  0  0  0
   18.4021   -9.9613  -14.2097 O   0  0  0  0  0  0  0  0  0  0  0  0
   23.2693   -9.4459  -15.2684 C   0  0  0  0  0  0  0  0  0  0  0  0
   21.9711   -9.5858  -15.9905 C   0  0  1  0  0  0  0  0  0  0  0  0
   21.7258  -10.9218  -16.3008 O   0  0  0  0  0  0  0  0  0  0  0  0
   20.7965   -9.0272  -15.2327 C   0  0  2  0  0  0  0  0  0  0  0  0
   19.5987   -9.2435  -16.0165 N   0  0  0  0  0  0  0  0  0  0  0  0
   20.9260   -7.5926  -14.9405 C   0  0  0  0  0  0  0  0  0  0  0  0
   21.4192   -7.1280  -13.7339 O   0  0  0  0  0  0  0  0  0  0  0  0
   20.5835   -6.7492  -15.8002 O   0  0  0  0  0  0  0  0  0  0  0  0
  2  1  1  6
  2  3  1  0
  4  5  2  0
  4  2  1  0
  6  7  1  0
  8  7  1  1
  8  9  1  0
  9  4  1  0
 10  8  1  0
 10 11  2  0
 13 12  1  1
 13 14  1  0
 15 16  1  6
 15 13  1  0
 16 10  1  0
 17 15  1  0
 18 17  1  0
 19 17  2  0
M  END
$$$$
