AST.pdb
     RDKit          3D

 19 18  0  0  1  0  0  0  0  0999 V2000
   15.3930  -13.8892  -17.1929 C   0  0  0  0  0  0  0  0  0  0  0  0
   16.0852  -13.1664  -16.0570 C   0  0  2  0  0  0  0  0  0  0  0  0
   15.1116  -12.9481  -15.0095 N   0  0  0  0  0  0  0  0  0  0  0  0
   16.6498  -11.8982  -16.5670 C   0  0  0  0  0  0  0  0  0  0  0  0
   16.4741  -11.6395  -17.7852 O   0  0  0  0  0  0  0  0  0  0  0  0
   16.9374   -7.5795  -16.9946 O   0  0  0  0  0  0  0  0  0  0  0  0
   16.5437   -8.8599  -16.6851 C   0  0  0  0  0  0  0  0  0  0  0  0
   17.7772   -9.6822  -16.3268 C   0  0  2  0  0  0  0  0  0  0  0  0
   17.3648  -10.9660  -15.7921 N   0  0  0  0  0  0  0  0  0  0  0  0
   18.5879   -8.9879  -15.2846 C   0  0  0  0  0  0  0  0  0  0  0  0
   18.2364   -8.9598  -14.0725 O   0  0  0  0  0  0  0  0  0  0  0  0
   21.7336   -9.8249  -13.9610 C   0  0  0  0  0  0  0  0  0  0  0  0
   21.9134   -8.4351  -14.4734 C   0  0  1  0  0  0  0  0  0  0  0  0
   22.5687   -8.4483  -15.7030 O   0  0  0  0  0  0  0  0  0  0  0  0
   20.6242   -7.6694  -14.6047 C   0  0  2  0  0  0  0  0  0  0  0  0
   19.8031   -8.3192  -15.6043 N   0  0  0  0  0  0  0  0  0  0  0  0
   20.8224   -6.2639  -14.9864 C   0  0  0  0  0  0  0  0  0  0  0  0
   21.4267   -5.3492  -14.1419 O   0  0  0  0  0  0  0  0  0  0  0  0
   20.4380   -5.8640  -16.1089 O   0  0  0  0  0  0  0  0  0  0  0  0
  2  1  1  6
  2  3  1  0
  4  5  2  0
  4  2  1  0
  6  7  1  0
  8  7  1  1
  8  9  1  0
  9  4  1  0
 10  8  1  0
 10 11  2  0
 13 12  1  6
 13 14  1  0
 15 16  1  6
 15 13  1  0
 16 10  1  0
 17 15  1  0
 18 17  1  0
 19 17  2  0
M  END
$$$$
