AST.pdb
     RDKit          3D

 19 18  0  0  1  0  0  0  0  0999 V2000
   14.1501  -10.9355   -9.8513 C   0  0  0  0  0  0  0  0  0  0  0  0
   14.0939   -9.6186   -9.1066 C   0  0  2  0  0  0  0  0  0  0  0  0
   12.7058   -9.3274   -8.8217 N   0  0  0  0  0  0  0  0  0  0  0  0
   14.7251   -8.5695   -9.9362 C   0  0  0  0  0  0  0  0  0  0  0  0
   14.0260   -8.0606  -10.8494 O   0  0  0  0  0  0  0  0  0  0  0  0
   17.5435   -6.1693   -8.7100 O   0  0  0  0  0  0  0  0  0  0  0  0
   16.9086   -5.8340   -9.8826 C   0  0  0  0  0  0  0  0  0  0  0  0
   16.6152   -7.1089  -10.6666 C   0  0  2  0  0  0  0  0  0  0  0  0
   16.0434   -8.1028   -9.7782 N   0  0  0  0  0  0  0  0  0  0  0  0
   17.8703   -7.6730  -11.2426 C   0  0  0  0  0  0  0  0  0  0  0  0
   18.6907   -8.3302  -10.5435 O   0  0  0  0  0  0  0  0  0  0  0  0
   20.3132   -9.2792  -15.1555 C   0  0  0  0  0  0  0  0  0  0  0  0
   19.1378   -8.6127  -14.5226 C   0  0  1  0  0  0  0  0  0  0  0  0
   18.0816   -9.5110  -14.3854 O   0  0  0  0  0  0  0  0  0  0  0  0
   19.4432   -7.9955  -13.1840 C   0  0  2  0  0  0  0  0  0  0  0  0
   18.2086   -7.4988  -12.6142 N   0  0  0  0  0  0  0  0  0  0  0  0
   20.4126   -6.8935  -13.2628 C   0  0  0  0  0  0  0  0  0  0  0  0
   21.7486   -7.0633  -12.9447 O   0  0  0  0  0  0  0  0  0  0  0  0
   20.0343   -5.7572  -13.6279 O   0  0  0  0  0  0  0  0  0  0  0  0
  2  1  1  6
  2  3  1  0
  4  5  2  0
  4  2  1  0
  6  7  1  0
  8  7  1  1
  8  9  1  0
  9  4  1  0
 10  8  1  0
 10 11  2  0
 13 12  1  1
 13 14  1  0
 15 16  1  6
 15 13  1  0
 16 10  1  0
 17 15  1  0
 18 17  1  0
 19 17  2  0
M  END
$$$$
