AST.pdb
     RDKit          3D

 19 18  0  0  1  0  0  0  0  0999 V2000
   19.7660  -12.6749  -17.3172 C   0  0  0  0  0  0  0  0  0  0  0  0
   18.9508  -12.1793  -16.1417 C   0  0  2  0  0  0  0  0  0  0  0  0
   17.6078  -12.6988  -16.2810 N   0  0  0  0  0  0  0  0  0  0  0  0
   18.9783  -10.7007  -16.1266 C   0  0  0  0  0  0  0  0  0  0  0  0
   19.0162  -10.1150  -17.2389 O   0  0  0  0  0  0  0  0  0  0  0  0
   18.1411   -8.4809  -12.7750 O   0  0  0  0  0  0  0  0  0  0  0  0
   17.8130   -7.9886  -14.0161 C   0  0  0  0  0  0  0  0  0  0  0  0
   18.8538   -8.4621  -15.0254 C   0  0  2  0  0  0  0  0  0  0  0  0
   18.9651   -9.9071  -14.9644 N   0  0  0  0  0  0  0  0  0  0  0  0
   20.1924   -7.8831  -14.7118 C   0  0  0  0  0  0  0  0  0  0  0  0
   21.0289   -8.4876  -13.9848 O   0  0  0  0  0  0  0  0  0  0  0  0
   23.5879   -4.4451  -15.8622 C   0  0  0  0  0  0  0  0  0  0  0  0
   22.2679   -5.1140  -16.0531 C   0  0  1  0  0  0  0  0  0  0  0  0
   22.2496   -5.8270  -17.2501 O   0  0  0  0  0  0  0  0  0  0  0  0
   21.8875   -6.0312  -14.9217 C   0  0  2  0  0  0  0  0  0  0  0  0
   20.5965   -6.6154  -15.2175 N   0  0  0  0  0  0  0  0  0  0  0  0
   21.8187   -5.3485  -13.6218 C   0  0  0  0  0  0  0  0  0  0  0  0
   22.8880   -5.3263  -12.7438 O   0  0  0  0  0  0  0  0  0  0  0  0
   20.7656   -4.7629  -13.2818 O   0  0  0  0  0  0  0  0  0  0  0  0
  2  1  1  6
  2  3  1  0
  4  5  2  0
  4  2  1  0
  6  7  1  0
  8  7  1  1
  8  9  1  0
  9  4  1  0
 10  8  1  0
 10 11  2  0
 13 12  1  1
 13 14  1  0
 15 16  1  6
 15 13  1  0
 16 10  1  0
 17 15  1  0
 18 17  1  0
 19 17  2  0
M  END
$$$$
