AST.pdb
     RDKit          3D

 19 18  0  0  1  0  0  0  0  0999 V2000
   18.0178  -10.9116  -18.3591 C   0  0  0  0  0  0  0  0  0  0  0  0
   19.3698  -11.0496  -17.6921 C   0  0  2  0  0  0  0  0  0  0  0  0
   19.5452  -12.4378  -17.3247 N   0  0  0  0  0  0  0  0  0  0  0  0
   19.4211  -10.1511  -16.5184 C   0  0  0  0  0  0  0  0  0  0  0  0
   18.3729  -10.0418  -15.8320 O   0  0  0  0  0  0  0  0  0  0  0  0
   22.7219   -9.5862  -14.5220 O   0  0  0  0  0  0  0  0  0  0  0  0
   21.5241   -9.3463  -13.8910 C   0  0  0  0  0  0  0  0  0  0  0  0
   20.5760   -8.6674  -14.8740 C   0  0  2  0  0  0  0  0  0  0  0  0
   20.5511   -9.4145  -16.1172 N   0  0  0  0  0  0  0  0  0  0  0  0
   21.0373   -7.2818  -15.1782 C   0  0  0  0  0  0  0  0  0  0  0  0
   21.7685   -7.0238  -16.1744 O   0  0  0  0  0  0  0  0  0  0  0  0
   20.4390   -2.4345  -14.5041 C   0  0  0  0  0  0  0  0  0  0  0  0
   20.0485   -3.8626  -14.3180 C   0  0  1  0  0  0  0  0  0  0  0  0
   18.9529   -4.1782  -15.1189 O   0  0  0  0  0  0  0  0  0  0  0  0
   21.1643   -4.8339  -14.5957 C   0  0  2  0  0  0  0  0  0  0  0  0
   20.6756   -6.1758  -14.3584 N   0  0  0  0  0  0  0  0  0  0  0  0
   22.3534   -4.6023  -13.7635 C   0  0  0  0  0  0  0  0  0  0  0  0
   23.4522   -3.9007  -14.2275 O   0  0  0  0  0  0  0  0  0  0  0  0
   22.3904   -5.0474  -12.5938 O   0  0  0  0  0  0  0  0  0  0  0  0
  2  1  1  1
  2  3  1  0
  4  5  2  0
  4  2  1  0
  6  7  1  0
  8  7  1  1
  8  9  1  0
  9  4  1  0
 10  8  1  0
 10 11  2  0
 13 12  1  6
 13 14  1  0
 15 16  1  1
 15 13  1  0
 16 10  1  0
 17 15  1  0
 18 17  1  0
 19 17  2  0
M  END
$$$$
