AST.pdb
     RDKit          3D

 19 18  0  0  1  0  0  0  0  0999 V2000
   18.7747  -12.4078  -17.5024 C   0  0  0  0  0  0  0  0  0  0  0  0
   19.0242  -10.9544  -17.8449 C   0  0  2  0  0  0  0  0  0  0  0  0
   19.6249  -10.9040  -19.1600 N   0  0  0  0  0  0  0  0  0  0  0  0
   19.8969  -10.3593  -16.8098 C   0  0  0  0  0  0  0  0  0  0  0  0
   19.4497  -10.3179  -15.6351 O   0  0  0  0  0  0  0  0  0  0  0  0
   23.7242  -10.5281  -15.2086 O   0  0  0  0  0  0  0  0  0  0  0  0
   23.4205   -9.5588  -16.1352 C   0  0  0  0  0  0  0  0  0  0  0  0
   21.9477   -9.1879  -15.9964 C   0  0  2  0  0  0  0  0  0  0  0  0
   21.1836   -9.8392  -17.0434 N   0  0  0  0  0  0  0  0  0  0  0  0
   21.7605   -7.7146  -16.1378 C   0  0  0  0  0  0  0  0  0  0  0  0
   21.8280   -7.1363  -17.2579 O   0  0  0  0  0  0  0  0  0  0  0  0
   19.1201   -5.7023  -14.0143 C   0  0  0  0  0  0  0  0  0  0  0  0
   19.8903   -5.1072  -15.1452 C   0  0  1  0  0  0  0  0  0  0  0  0
   19.7374   -3.7224  -15.1657 O   0  0  0  0  0  0  0  0  0  0  0  0
   21.3569   -5.4456  -15.1200 C   0  0  2  0  0  0  0  0  0  0  0  0
   21.4954   -6.8827  -15.0137 N   0  0  0  0  0  0  0  0  0  0  0  0
   22.0781   -4.8106  -14.0079 C   0  0  0  0  0  0  0  0  0  0  0  0
   22.3990   -3.4644  -14.0110 O   0  0  0  0  0  0  0  0  0  0  0  0
   22.4210   -5.4951  -13.0172 O   0  0  0  0  0  0  0  0  0  0  0  0
  2  1  1  1
  2  3  1  0
  4  5  2  0
  4  2  1  0
  6  7  1  0
  8  7  1  6
  8  9  1  0
  9  4  1  0
 10  8  1  0
 10 11  2  0
 13 12  1  1
 13 14  1  0
 15 16  1  1
 15 13  1  0
 16 10  1  0
 17 15  1  0
 18 17  1  0
 19 17  2  0
M  END
$$$$
