AST.pdb
     RDKit          3D

 19 18  0  0  1  0  0  0  0  0999 V2000
   19.5170  -11.5702  -18.8384 C   0  0  0  0  0  0  0  0  0  0  0  0
   20.7392  -10.6852  -18.7162 C   0  0  2  0  0  0  0  0  0  0  0  0
   21.9091  -11.5356  -18.7456 N   0  0  0  0  0  0  0  0  0  0  0  0
   20.6463   -9.9073  -17.4618 C   0  0  0  0  0  0  0  0  0  0  0  0
   19.6381  -10.1048  -16.7362 O   0  0  0  0  0  0  0  0  0  0  0  0
   22.2834   -8.2533  -13.5421 O   0  0  0  0  0  0  0  0  0  0  0  0
   22.2674   -9.0126  -14.6883 C   0  0  0  0  0  0  0  0  0  0  0  0
   21.4655   -8.2764  -15.7565 C   0  0  2  0  0  0  0  0  0  0  0  0
   21.5987   -8.9681  -17.0245 N   0  0  0  0  0  0  0  0  0  0  0  0
   21.9771   -6.8863  -15.9337 C   0  0  0  0  0  0  0  0  0  0  0  0
   23.0357   -6.6400  -16.5758 O   0  0  0  0  0  0  0  0  0  0  0  0
   20.1715   -4.1211  -17.5751 C   0  0  0  0  0  0  0  0  0  0  0  0
   20.5703   -3.6363  -16.2214 C   0  0  1  0  0  0  0  0  0  0  0  0
   19.4856   -3.6783  -15.3479 O   0  0  0  0  0  0  0  0  0  0  0  0
   21.7213   -4.3994  -15.6226 C   0  0  2  0  0  0  0  0  0  0  0  0
   21.2959   -5.7628  -15.3863 N   0  0  0  0  0  0  0  0  0  0  0  0
   22.2039   -3.8218  -14.3601 C   0  0  0  0  0  0  0  0  0  0  0  0
   22.8619   -2.6054  -14.3103 O   0  0  0  0  0  0  0  0  0  0  0  0
   22.0222   -4.4371  -13.2850 O   0  0  0  0  0  0  0  0  0  0  0  0
  2  1  1  1
  2  3  1  0
  4  5  2  0
  4  2  1  0
  6  7  1  0
  8  7  1  1
  8  9  1  0
  9  4  1  0
 10  8  1  0
 10 11  2  0
 13 12  1  6
 13 14  1  0
 15 16  1  1
 15 13  1  0
 16 10  1  0
 17 15  1  0
 18 17  1  0
 19 17  2  0
M  END
$$$$
