AST.pdb
     RDKit          3D

 19 18  0  0  1  0  0  0  0  0999 V2000
   17.6228  -10.1410  -17.9496 C   0  0  0  0  0  0  0  0  0  0  0  0
   18.9084  -10.7840  -17.4746 C   0  0  2  0  0  0  0  0  0  0  0  0
   18.6127  -12.1517  -17.1075 N   0  0  0  0  0  0  0  0  0  0  0  0
   19.4445  -10.0047  -16.3377 C   0  0  0  0  0  0  0  0  0  0  0  0
   18.6265   -9.6377  -15.4557 O   0  0  0  0  0  0  0  0  0  0  0  0
   22.8702  -10.6798  -15.3529 O   0  0  0  0  0  0  0  0  0  0  0  0
   22.5110   -9.7051  -14.4522 C   0  0  0  0  0  0  0  0  0  0  0  0
   21.2712   -8.9852  -14.9726 C   0  0  2  0  0  0  0  0  0  0  0  0
   20.7955   -9.6465  -16.1729 N   0  0  0  0  0  0  0  0  0  0  0  0
   21.5918   -7.5708  -15.3220 C   0  0  0  0  0  0  0  0  0  0  0  0
   22.2029   -7.2662  -16.3838 O   0  0  0  0  0  0  0  0  0  0  0  0
   19.2747   -4.8441  -16.0163 C   0  0  0  0  0  0  0  0  0  0  0  0
   20.1419   -4.3908  -14.8899 C   0  0  1  0  0  0  0  0  0  0  0  0
   19.4783   -4.5353  -13.6732 O   0  0  0  0  0  0  0  0  0  0  0  0
   21.4654   -5.1047  -14.8228 C   0  0  2  0  0  0  0  0  0  0  0  0
   21.2241   -6.4887  -14.4736 N   0  0  0  0  0  0  0  0  0  0  0  0
   22.3906   -4.5171  -13.8435 C   0  0  0  0  0  0  0  0  0  0  0  0
   23.0135   -3.2998  -14.0565 O   0  0  0  0  0  0  0  0  0  0  0  0
   22.6346   -5.1242  -12.7761 O   0  0  0  0  0  0  0  0  0  0  0  0
  2  1  1  1
  2  3  1  0
  4  5  2  0
  4  2  1  0
  6  7  1  0
  8  7  1  6
  8  9  1  0
  9  4  1  0
 10  8  1  0
 10 11  2  0
 13 12  1  6
 13 14  1  0
 15 16  1  1
 15 13  1  0
 16 10  1  0
 17 15  1  0
 18 17  1  0
 19 17  2  0
M  END
$$$$
