AST.pdb
     RDKit          3D

 19 18  0  0  1  0  0  0  0  0999 V2000
   15.6621  -29.1505   -0.3048 C   0  0  0  0  0  0  0  0  0  0  0  0
   16.8825  -28.6949   -1.0762 C   0  0  2  0  0  0  0  0  0  0  0  0
   17.1920  -29.7101   -2.0593 N   0  0  0  0  0  0  0  0  0  0  0  0
   17.9970  -28.4777   -0.1287 C   0  0  0  0  0  0  0  0  0  0  0  0
   18.6775  -29.4834    0.1987 O   0  0  0  0  0  0  0  0  0  0  0  0
   18.8639  -24.8152    1.2318 O   0  0  0  0  0  0  0  0  0  0  0  0
   19.9473  -25.6532    1.3518 C   0  0  0  0  0  0  0  0  0  0  0  0
   19.4560  -27.0970    1.3561 C   0  0  2  0  0  0  0  0  0  0  0  0
   18.3486  -27.2344    0.4293 N   0  0  0  0  0  0  0  0  0  0  0  0
   18.9721  -27.4841    2.7131 C   0  0  0  0  0  0  0  0  0  0  0  0
   17.7598  -27.3736    3.0476 O   0  0  0  0  0  0  0  0  0  0  0  0
   20.1484  -29.5617    7.0992 C   0  0  0  0  0  0  0  0  0  0  0  0
   20.5237  -29.0696    5.7415 C   0  0  1  0  0  0  0  0  0  0  0  0
   20.9308  -30.1288    4.9328 O   0  0  0  0  0  0  0  0  0  0  0  0
   19.4235  -28.3099    5.0501 C   0  0  2  0  0  0  0  0  0  0  0  0
   19.8550  -27.9994    3.7036 N   0  0  0  0  0  0  0  0  0  0  0  0
   19.0616  -27.0622    5.7376 C   0  0  0  0  0  0  0  0  0  0  0  0
   17.9997  -26.9896    6.6220 O   0  0  0  0  0  0  0  0  0  0  0  0
   19.7251  -26.0214    5.5278 O   0  0  0  0  0  0  0  0  0  0  0  0
  2  1  1  1
  2  3  1  0
  4  5  2  0
  4  2  1  0
  6  7  1  0
  8  7  1  1
  8  9  1  0
  9  4  1  0
 10  8  1  0
 10 11  2  0
 13 12  1  1
 13 14  1  0
 15 16  1  6
 15 13  1  0
 16 10  1  0
 17 15  1  0
 18 17  1  0
 19 17  2  0
M  END
$$$$
