AST.pdb
     RDKit          3D

 19 18  0  0  1  0  0  0  0  0999 V2000
   14.5343  -13.4302  -16.3323 C   0  0  0  0  0  0  0  0  0  0  0  0
   16.0309  -13.4608  -16.5588 C   0  0  2  0  0  0  0  0  0  0  0  0
   16.6481  -14.0256  -15.3786 N   0  0  0  0  0  0  0  0  0  0  0  0
   16.5041  -12.0866  -16.8325 C   0  0  0  0  0  0  0  0  0  0  0  0
   16.0542  -11.5177  -17.8600 O   0  0  0  0  0  0  0  0  0  0  0  0
   17.0334   -7.7951  -16.4183 O   0  0  0  0  0  0  0  0  0  0  0  0
   16.6090   -9.0963  -16.2882 C   0  0  0  0  0  0  0  0  0  0  0  0
   17.8214  -10.0194  -16.3524 C   0  0  2  0  0  0  0  0  0  0  0  0
   17.4158  -11.3745  -16.0311 N   0  0  0  0  0  0  0  0  0  0  0  0
   18.8547   -9.6003  -15.3614 C   0  0  0  0  0  0  0  0  0  0  0  0
   18.6817   -9.7331  -14.1180 O   0  0  0  0  0  0  0  0  0  0  0  0
   22.4473  -10.7184  -14.9858 C   0  0  0  0  0  0  0  0  0  0  0  0
   22.4137   -9.2435  -15.2094 C   0  0  1  0  0  0  0  0  0  0  0  0
   22.6985   -8.9441  -16.5400 O   0  0  0  0  0  0  0  0  0  0  0  0
   21.1060   -8.6050  -14.8245 C   0  0  2  0  0  0  0  0  0  0  0  0
   20.0927   -9.0275  -15.7681 N   0  0  0  0  0  0  0  0  0  0  0  0
   21.1625   -7.1364  -14.8067 C   0  0  0  0  0  0  0  0  0  0  0  0
   21.8554   -6.4375  -13.8339 O   0  0  0  0  0  0  0  0  0  0  0  0
   20.5699   -6.4803  -15.6932 O   0  0  0  0  0  0  0  0  0  0  0  0
  2  1  1  1
  2  3  1  0
  4  5  2  0
  4  2  1  0
  6  7  1  0
  8  7  1  1
  8  9  1  0
  9  4  1  0
 10  8  1  0
 10 11  2  0
 13 12  1  6
 13 14  1  0
 15 16  1  6
 15 13  1  0
 16 10  1  0
 17 15  1  0
 18 17  1  0
 19 17  2  0
M  END
$$$$
