NKQ.pdb
     RDKit          3D

 27 26  0  0  1  0  0  0  0  0999 V2000
   30.0741  -20.6127  -10.5356 N   0  0  0  0  0  0  0  0  0  0  0  0
   29.2518  -21.0041  -11.6289 C   0  0  0  0  0  0  0  0  0  0  0  0
   29.7043  -21.8548  -12.4262 O   0  0  0  0  0  0  0  0  0  0  0  0
   27.8986  -20.4340  -11.8336 C   0  0  0  0  0  0  0  0  0  0  0  0
   27.7133  -20.1872  -13.2978 C   0  0  2  0  0  0  0  0  0  0  0  0
   28.8348  -19.4011  -13.7692 N   0  0  0  0  0  0  0  0  0  0  0  0
   26.4646  -19.5104  -13.6445 C   0  0  0  0  0  0  0  0  0  0  0  0
   26.1560  -18.4732  -13.0051 O   0  0  0  0  0  0  0  0  0  0  0  0
   25.5684  -19.9268  -14.6451 N   0  0  0  0  0  0  0  0  0  0  0  0
   24.3429  -19.1992  -14.9994 C   0  0  1  0  0  0  0  0  0  0  0  0
   24.3746  -18.8458  -16.4491 C   0  0  0  0  0  0  0  0  0  0  0  0
   25.1360  -17.6226  -16.8367 C   0  0  0  0  0  0  0  0  0  0  0  0
   25.0018  -17.4126  -18.3265 C   0  0  0  0  0  0  0  0  0  0  0  0
   25.8029  -16.2143  -18.7912 C   0  0  0  0  0  0  0  0  0  0  0  0
   25.5814  -16.1036  -20.2232 N   0  0  0  0  0  0  0  0  0  0  0  0
   23.2156  -20.0818  -14.6056 C   0  0  0  0  0  0  0  0  0  0  0  0
   23.3987  -21.3422  -14.6917 O   0  0  0  0  0  0  0  0  0  0  0  0
   21.2124  -21.2321   -9.5345 N   0  0  0  0  0  0  0  0  0  0  0  0
   20.1947  -21.8919  -10.2581 C   0  0  0  0  0  0  0  0  0  0  0  0
   19.4068  -22.6732   -9.6270 O   0  0  0  0  0  0  0  0  0  0  0  0
   19.9966  -21.7140  -11.7063 C   0  0  0  0  0  0  0  0  0  0  0  0
   20.9740  -20.8025  -12.3364 C   0  0  0  0  0  0  0  0  0  0  0  0
   20.9234  -20.6410  -13.8226 C   0  0  2  0  0  0  0  0  0  0  0  0
   21.9619  -19.6333  -14.1431 N   0  0  0  0  0  0  0  0  0  0  0  0
   19.6602  -20.2402  -14.4129 C   0  0  0  0  0  0  0  0  0  0  0  0
   19.4361  -19.0225  -14.6913 O   0  0  0  0  0  0  0  0  0  0  0  0
   18.6147  -21.1189  -14.7281 O   0  0  0  0  0  0  0  0  0  0  0  0
  2  1  1  0
  3  2  2  0
  4  2  1  0
  4  5  1  0
  5  6  1  1
  7  5  1  0
  7  8  2  0
  9  7  1  0
 10  9  1  0
 10 11  1  6
 12 11  1  0
 12 13  1  0
 13 14  1  0
 14 15  1  0
 16 10  1  0
 17 16  2  0
 19 18  1  0
 20 19  2  0
 21 19  1  0
 22 21  1  0
 23 22  1  1
 23 24  1  0
 24 16  1  0
 25 23  1  0
 26 25  2  0
 27 25  1  0
M  END
$$$$
