NKQ.pdb
     RDKit          3D

 27 26  0  0  1  0  0  0  0  0999 V2000
   14.9255  -10.0267  -17.8185 N   0  0  0  0  0  0  0  0  0  0  0  0
   15.1106  -10.6699  -16.5628 C   0  0  0  0  0  0  0  0  0  0  0  0
   14.3387  -11.6082  -16.2665 O   0  0  0  0  0  0  0  0  0  0  0  0
   16.1790  -10.2563  -15.6218 C   0  0  0  0  0  0  0  0  0  0  0  0
   17.3498  -11.1675  -15.8159 C   0  0  2  0  0  0  0  0  0  0  0  0
   17.0271  -12.4503  -15.2259 N   0  0  0  0  0  0  0  0  0  0  0  0
   18.6031  -10.6724  -15.2486 C   0  0  0  0  0  0  0  0  0  0  0  0
   18.6343  -10.4111  -14.0195 O   0  0  0  0  0  0  0  0  0  0  0  0
   19.7913  -10.4610  -15.9706 N   0  0  0  0  0  0  0  0  0  0  0  0
   21.0532  -10.0252  -15.3588 C   0  0  1  0  0  0  0  0  0  0  0  0
   22.1829  -10.8166  -15.9287 C   0  0  0  0  0  0  0  0  0  0  0  0
   23.5632  -10.4341  -15.5107 C   0  0  0  0  0  0  0  0  0  0  0  0
   24.5483  -11.3966  -16.1310 C   0  0  0  0  0  0  0  0  0  0  0  0
   25.9779  -10.9887  -15.8422 C   0  0  0  0  0  0  0  0  0  0  0  0
   26.8207  -12.0511  -16.3645 N   0  0  0  0  0  0  0  0  0  0  0  0
   21.1416   -8.5631  -15.6023 C   0  0  0  0  0  0  0  0  0  0  0  0
   20.7520   -8.1324  -16.7391 O   0  0  0  0  0  0  0  0  0  0  0  0
   17.7096   -5.2684  -16.6558 N   0  0  0  0  0  0  0  0  0  0  0  0
   18.3819   -4.2562  -15.9361 C   0  0  0  0  0  0  0  0  0  0  0  0
   17.8819   -3.0818  -15.9251 O   0  0  0  0  0  0  0  0  0  0  0  0
   19.6296   -4.4957  -15.1918 C   0  0  0  0  0  0  0  0  0  0  0  0
   20.0763   -5.9040  -15.2101 C   0  0  0  0  0  0  0  0  0  0  0  0
   21.5343   -6.1784  -15.0200 C   0  0  2  0  0  0  0  0  0  0  0  0
   21.6207   -7.6170  -14.6738 N   0  0  0  0  0  0  0  0  0  0  0  0
   22.2415   -5.3966  -14.0234 C   0  0  0  0  0  0  0  0  0  0  0  0
   22.4163   -5.8516  -12.8517 O   0  0  0  0  0  0  0  0  0  0  0  0
   22.7845   -4.1241  -14.2485 O   0  0  0  0  0  0  0  0  0  0  0  0
  2  1  1  0
  3  2  2  0
  4  2  1  0
  4  5  1  0
  5  6  1  1
  7  5  1  0
  7  8  2  0
  9  7  1  0
 10  9  1  0
 10 11  1  6
 12 11  1  0
 12 13  1  0
 13 14  1  0
 14 15  1  0
 16 10  1  0
 17 16  2  0
 19 18  1  0
 20 19  2  0
 21 19  1  0
 22 21  1  0
 23 22  1  1
 23 24  1  0
 24 16  1  0
 25 23  1  0
 26 25  2  0
 27 25  1  0
M  END
$$$$
