NKQ.pdb
     RDKit          3D

 27 26  0  0  1  0  0  0  0  0999 V2000
   24.7482  -24.2963  -14.4597 N   0  0  0  0  0  0  0  0  0  0  0  0
   23.5218  -23.9984  -13.8025 C   0  0  0  0  0  0  0  0  0  0  0  0
   22.7819  -24.9547  -13.4828 O   0  0  0  0  0  0  0  0  0  0  0  0
   23.1159  -22.6056  -13.4969 C   0  0  0  0  0  0  0  0  0  0  0  0
   24.1472  -21.6837  -14.0672 C   0  0  2  0  0  0  0  0  0  0  0  0
   25.2687  -21.6383  -13.1517 N   0  0  0  0  0  0  0  0  0  0  0  0
   23.6709  -20.3249  -14.3210 C   0  0  0  0  0  0  0  0  0  0  0  0
   23.4742  -19.5724  -13.3336 O   0  0  0  0  0  0  0  0  0  0  0  0
   23.4107  -19.7819  -15.5919 N   0  0  0  0  0  0  0  0  0  0  0  0
   22.9525  -18.4045  -15.8143 C   0  0  1  0  0  0  0  0  0  0  0  0
   23.6368  -17.8393  -17.0141 C   0  0  0  0  0  0  0  0  0  0  0  0
   25.0218  -17.3166  -16.8267 C   0  0  0  0  0  0  0  0  0  0  0  0
   25.6189  -17.0126  -18.1805 C   0  0  0  0  0  0  0  0  0  0  0  0
   27.0784  -16.6241  -18.0673 C   0  0  0  0  0  0  0  0  0  0  0  0
   27.5587  -16.4354  -19.4258 N   0  0  0  0  0  0  0  0  0  0  0  0
   21.4738  -18.4792  -15.9274 C   0  0  0  0  0  0  0  0  0  0  0  0
   20.9723  -19.5706  -16.3598 O   0  0  0  0  0  0  0  0  0  0  0  0
   17.6625  -20.5961  -12.8002 N   0  0  0  0  0  0  0  0  0  0  0  0
   18.1022  -19.3381  -12.3324 C   0  0  0  0  0  0  0  0  0  0  0  0
   17.9000  -19.0386  -11.1082 O   0  0  0  0  0  0  0  0  0  0  0  0
   18.7896  -18.3591  -13.1911 C   0  0  0  0  0  0  0  0  0  0  0  0
   18.8969  -18.7746  -14.6049 C   0  0  0  0  0  0  0  0  0  0  0  0
   19.1280  -17.7113  -15.6313 C   0  0  2  0  0  0  0  0  0  0  0  0
   20.5844  -17.4385  -15.5920 N   0  0  0  0  0  0  0  0  0  0  0  0
   18.3975  -16.4664  -15.4863 C   0  0  0  0  0  0  0  0  0  0  0  0
   18.9936  -15.4078  -15.1195 O   0  0  0  0  0  0  0  0  0  0  0  0
   17.0263  -16.3148  -15.7345 O   0  0  0  0  0  0  0  0  0  0  0  0
  2  1  1  0
  3  2  2  0
  4  2  1  0
  4  5  1  0
  5  6  1  1
  7  5  1  0
  7  8  2  0
  9  7  1  0
 10  9  1  0
 10 11  1  6
 12 11  1  0
 12 13  1  0
 13 14  1  0
 14 15  1  0
 16 10  1  0
 17 16  2  0
 19 18  1  0
 20 19  2  0
 21 19  1  0
 22 21  1  0
 23 22  1  1
 23 24  1  0
 24 16  1  0
 25 23  1  0
 26 25  2  0
 27 25  1  0
M  END
$$$$
