NKQ.pdb
     RDKit          3D

 27 26  0  0  1  0  0  0  0  0999 V2000
   37.9914  -10.0635   -6.0306 N   0  0  0  0  0  0  0  0  0  0  0  0
   37.4841   -9.1902   -7.0330 C   0  0  0  0  0  0  0  0  0  0  0  0
   36.2695   -8.8951   -6.9919 O   0  0  0  0  0  0  0  0  0  0  0  0
   38.3514   -8.6367   -8.1004 C   0  0  0  0  0  0  0  0  0  0  0  0
   39.7386   -9.1569   -7.8908 C   0  0  2  0  0  0  0  0  0  0  0  0
   40.2284   -8.6425   -6.6286 N   0  0  0  0  0  0  0  0  0  0  0  0
   40.6811   -8.8142   -8.9547 C   0  0  0  0  0  0  0  0  0  0  0  0
   41.1226   -7.6381   -8.9983 O   0  0  0  0  0  0  0  0  0  0  0  0
   41.1412   -9.6998   -9.9455 N   0  0  0  0  0  0  0  0  0  0  0  0
   42.0402   -9.3080  -11.0387 C   0  0  1  0  0  0  0  0  0  0  0  0
   42.7991  -10.5026  -11.5122 C   0  0  0  0  0  0  0  0  0  0  0  0
   43.7657  -10.2977  -12.6303 C   0  0  0  0  0  0  0  0  0  0  0  0
   44.4942  -11.5947  -12.8930 C   0  0  0  0  0  0  0  0  0  0  0  0
   45.5111  -11.4432  -14.0051 C   0  0  0  0  0  0  0  0  0  0  0  0
   46.0629  -12.7671  -14.2390 N   0  0  0  0  0  0  0  0  0  0  0  0
   41.1781   -8.6779  -12.0705 C   0  0  0  0  0  0  0  0  0  0  0  0
   40.0801   -9.2631  -12.3557 O   0  0  0  0  0  0  0  0  0  0  0  0
   37.9993   -4.8474  -11.5440 N   0  0  0  0  0  0  0  0  0  0  0  0
   37.9692   -4.5070  -12.9144 C   0  0  0  0  0  0  0  0  0  0  0  0
   36.9454   -3.8941  -13.3677 O   0  0  0  0  0  0  0  0  0  0  0  0
   39.0685   -4.8207  -13.8425 C   0  0  0  0  0  0  0  0  0  0  0  0
   40.1893   -5.5525  -13.2170 C   0  0  0  0  0  0  0  0  0  0  0  0
   40.4781   -6.9377  -13.7020 C   0  0  2  0  0  0  0  0  0  0  0  0
   41.4798   -7.4836  -12.7557 N   0  0  0  0  0  0  0  0  0  0  0  0
   40.9633   -7.0870  -15.0611 C   0  0  0  0  0  0  0  0  0  0  0  0
   42.2088   -7.0936  -15.3040 O   0  0  0  0  0  0  0  0  0  0  0  0
   40.1424   -7.2410  -16.1867 O   0  0  0  0  0  0  0  0  0  0  0  0
  2  1  1  0
  3  2  2  0
  4  2  1  0
  4  5  1  0
  5  6  1  1
  7  5  1  0
  7  8  2  0
  9  7  1  0
 10  9  1  0
 10 11  1  6
 12 11  1  0
 12 13  1  0
 13 14  1  0
 14 15  1  0
 16 10  1  0
 17 16  2  0
 19 18  1  0
 20 19  2  0
 21 19  1  0
 22 21  1  0
 23 22  1  1
 23 24  1  0
 24 16  1  0
 25 23  1  0
 26 25  2  0
 27 25  1  0
M  END
$$$$
