NKQ.pdb
     RDKit          3D

 27 26  0  0  1  0  0  0  0  0999 V2000
   20.8842  -29.7125  -16.4704 N   0  0  0  0  0  0  0  0  0  0  0  0
   21.1687  -28.7813  -15.4328 C   0  0  0  0  0  0  0  0  0  0  0  0
   22.3542  -28.4097  -15.2888 O   0  0  0  0  0  0  0  0  0  0  0  0
   20.1078  -28.2559  -14.5403 C   0  0  0  0  0  0  0  0  0  0  0  0
   20.7394  -27.3009  -13.5770 C   0  0  2  0  0  0  0  0  0  0  0  0
   21.5223  -28.0666  -12.6291 N   0  0  0  0  0  0  0  0  0  0  0  0
   19.7916  -26.4544  -12.8541 C   0  0  0  0  0  0  0  0  0  0  0  0
   18.9604  -25.7905  -13.5238 O   0  0  0  0  0  0  0  0  0  0  0  0
   19.7303  -26.3182  -11.4557 N   0  0  0  0  0  0  0  0  0  0  0  0
   18.7215  -25.5122  -10.7561 C   0  0  1  0  0  0  0  0  0  0  0  0
   18.9429  -25.6055   -9.2832 C   0  0  0  0  0  0  0  0  0  0  0  0
   17.7723  -25.3338   -8.3988 C   0  0  0  0  0  0  0  0  0  0  0  0
   18.1523  -25.6488   -6.9711 C   0  0  0  0  0  0  0  0  0  0  0  0
   16.9804  -25.4577   -6.0311 C   0  0  0  0  0  0  0  0  0  0  0  0
   17.4862  -25.7016   -4.6907 N   0  0  0  0  0  0  0  0  0  0  0  0
   18.8393  -24.1396  -11.3104 C   0  0  0  0  0  0  0  0  0  0  0  0
   20.0136  -23.7060  -11.5608 O   0  0  0  0  0  0  0  0  0  0  0  0
   18.7221  -22.8234  -16.3413 N   0  0  0  0  0  0  0  0  0  0  0  0
   19.3391  -21.6678  -15.8137 C   0  0  0  0  0  0  0  0  0  0  0  0
   19.8800  -20.8423  -16.6233 O   0  0  0  0  0  0  0  0  0  0  0  0
   19.3807  -21.3682  -14.3726 C   0  0  0  0  0  0  0  0  0  0  0  0
   18.8138  -22.4359  -13.5229 C   0  0  0  0  0  0  0  0  0  0  0  0
   18.0119  -22.0278  -12.3280 C   0  0  2  0  0  0  0  0  0  0  0  0
   17.7540  -23.2822  -11.5819 N   0  0  0  0  0  0  0  0  0  0  0  0
   16.7580  -21.3371  -12.5634 C   0  0  0  0  0  0  0  0  0  0  0  0
   15.7044  -21.9890  -12.8377 O   0  0  0  0  0  0  0  0  0  0  0  0
   16.5923  -19.9465  -12.5046 O   0  0  0  0  0  0  0  0  0  0  0  0
  2  1  1  0
  3  2  2  0
  4  2  1  0
  4  5  1  0
  5  6  1  1
  7  5  1  0
  7  8  2  0
  9  7  1  0
 10  9  1  0
 10 11  1  1
 12 11  1  0
 12 13  1  0
 13 14  1  0
 14 15  1  0
 16 10  1  0
 17 16  2  0
 19 18  1  0
 20 19  2  0
 21 19  1  0
 22 21  1  0
 23 22  1  6
 23 24  1  0
 24 16  1  0
 25 23  1  0
 26 25  2  0
 27 25  1  0
M  END
$$$$
