NKQ.pdb
     RDKit          3D

 27 26  0  0  1  0  0  0  0  0999 V2000
   18.4085  -18.6686  -13.2733 N   0  0  0  0  0  0  0  0  0  0  0  0
   18.0455  -17.7592  -14.3059 C   0  0  0  0  0  0  0  0  0  0  0  0
   17.0621  -18.0493  -15.0221 O   0  0  0  0  0  0  0  0  0  0  0  0
   18.7959  -16.5024  -14.5411 C   0  0  0  0  0  0  0  0  0  0  0  0
   19.2085  -16.4679  -15.9790 C   0  0  2  0  0  0  0  0  0  0  0  0
   20.0437  -17.6227  -16.2375 N   0  0  0  0  0  0  0  0  0  0  0  0
   19.9201  -15.2539  -16.3759 C   0  0  0  0  0  0  0  0  0  0  0  0
   20.6655  -14.7007  -15.5283 O   0  0  0  0  0  0  0  0  0  0  0  0
   19.8402  -14.6452  -17.6411 N   0  0  0  0  0  0  0  0  0  0  0  0
   20.6531  -13.4910  -18.0460 C   0  0  1  0  0  0  0  0  0  0  0  0
   21.2047  -13.7248  -19.4128 C   0  0  0  0  0  0  0  0  0  0  0  0
   22.3127  -14.7159  -19.5411 C   0  0  0  0  0  0  0  0  0  0  0  0
   22.7554  -14.7730  -20.9842 C   0  0  0  0  0  0  0  0  0  0  0  0
   23.8311  -15.8185  -21.1925 C   0  0  0  0  0  0  0  0  0  0  0  0
   24.2028  -15.7501  -22.5957 N   0  0  0  0  0  0  0  0  0  0  0  0
   19.7643  -12.3066  -17.9352 C   0  0  0  0  0  0  0  0  0  0  0  0
   18.5117  -12.4955  -18.0930 O   0  0  0  0  0  0  0  0  0  0  0  0
   15.5851  -11.0916  -16.2675 N   0  0  0  0  0  0  0  0  0  0  0  0
   15.9776   -9.8163  -15.8048 C   0  0  0  0  0  0  0  0  0  0  0  0
   15.0822   -9.0350  -15.3388 O   0  0  0  0  0  0  0  0  0  0  0  0
   17.3739   -9.3496  -15.8290 C   0  0  0  0  0  0  0  0  0  0  0  0
   18.3262  -10.3389  -16.3746 C   0  0  0  0  0  0  0  0  0  0  0  0
   19.1809   -9.9243  -17.5299 C   0  0  2  0  0  0  0  0  0  0  0  0
   20.1989  -10.9927  -17.6678 N   0  0  0  0  0  0  0  0  0  0  0  0
   19.8397   -8.6342  -17.4504 C   0  0  0  0  0  0  0  0  0  0  0  0
   21.0975   -8.5607  -17.2990 O   0  0  0  0  0  0  0  0  0  0  0  0
   19.1834   -7.3988  -17.5383 O   0  0  0  0  0  0  0  0  0  0  0  0
  2  1  1  0
  3  2  2  0
  4  2  1  0
  4  5  1  0
  5  6  1  1
  7  5  1  0
  7  8  2  0
  9  7  1  0
 10  9  1  0
 10 11  1  6
 12 11  1  0
 12 13  1  0
 13 14  1  0
 14 15  1  0
 16 10  1  0
 17 16  2  0
 19 18  1  0
 20 19  2  0
 21 19  1  0
 22 21  1  0
 23 22  1  1
 23 24  1  0
 24 16  1  0
 25 23  1  0
 26 25  2  0
 27 25  1  0
M  END
$$$$
