NKQ.pdb
     RDKit          3D

 27 26  0  0  1  0  0  0  0  0999 V2000
   24.9768  -17.0539  -18.7330 N   0  0  0  0  0  0  0  0  0  0  0  0
   25.0864  -15.6397  -18.8469 C   0  0  0  0  0  0  0  0  0  0  0  0
   26.2334  -15.1433  -18.8901 O   0  0  0  0  0  0  0  0  0  0  0  0
   23.8911  -14.7652  -18.9143 C   0  0  0  0  0  0  0  0  0  0  0  0
   22.6774  -15.6188  -18.7215 C   0  0  2  0  0  0  0  0  0  0  0  0
   22.5766  -16.5226  -19.8487 N   0  0  0  0  0  0  0  0  0  0  0  0
   21.4278  -14.8724  -18.5829 C   0  0  0  0  0  0  0  0  0  0  0  0
   20.9608  -14.3053  -19.6029 O   0  0  0  0  0  0  0  0  0  0  0  0
   20.6953  -14.7333  -17.3906 N   0  0  0  0  0  0  0  0  0  0  0  0
   19.3757  -14.0937  -17.3115 C   0  0  1  0  0  0  0  0  0  0  0  0
   18.5828  -14.7209  -16.2137 C   0  0  0  0  0  0  0  0  0  0  0  0
   17.8521  -15.9817  -16.5344 C   0  0  0  0  0  0  0  0  0  0  0  0
   17.3056  -16.5710  -15.2554 C   0  0  0  0  0  0  0  0  0  0  0  0
   16.6213  -17.8987  -15.5055 C   0  0  0  0  0  0  0  0  0  0  0  0
   16.3007  -18.4472  -14.1985 N   0  0  0  0  0  0  0  0  0  0  0  0
   19.6354  -12.6427  -17.1316 C   0  0  0  0  0  0  0  0  0  0  0  0
   20.5953  -12.3092  -16.3591 O   0  0  0  0  0  0  0  0  0  0  0  0
   18.9997   -8.1044  -21.2250 N   0  0  0  0  0  0  0  0  0  0  0  0
   19.2679   -7.3761  -20.0451 C   0  0  0  0  0  0  0  0  0  0  0  0
   19.3966   -6.1088  -20.1273 O   0  0  0  0  0  0  0  0  0  0  0  0
   19.3989   -8.0114  -18.7232 C   0  0  0  0  0  0  0  0  0  0  0  0
   19.1493   -9.4677  -18.7319 C   0  0  0  0  0  0  0  0  0  0  0  0
   19.2584  -10.2042  -17.4346 C   0  0  2  0  0  0  0  0  0  0  0  0
   18.9041  -11.6085  -17.7500 N   0  0  0  0  0  0  0  0  0  0  0  0
   18.4481   -9.7371  -16.3257 C   0  0  0  0  0  0  0  0  0  0  0  0
   18.8833   -8.8383  -15.5426 O   0  0  0  0  0  0  0  0  0  0  0  0
   17.1602  -10.2041  -16.0290 O   0  0  0  0  0  0  0  0  0  0  0  0
  2  1  1  0
  3  2  2  0
  4  2  1  0
  4  5  1  0
  5  6  1  6
  7  5  1  0
  7  8  2  0
  9  7  1  0
 10  9  1  0
 10 11  1  1
 12 11  1  0
 12 13  1  0
 13 14  1  0
 14 15  1  0
 16 10  1  0
 17 16  2  0
 19 18  1  0
 20 19  2  0
 21 19  1  0
 22 21  1  0
 23 22  1  6
 23 24  1  0
 24 16  1  0
 25 23  1  0
 26 25  2  0
 27 25  1  0
M  END
$$$$
