NKQ.pdb
     RDKit          3D

 27 26  0  0  1  0  0  0  0  0999 V2000
   25.6540  -11.4053  -16.5416 N   0  0  0  0  0  0  0  0  0  0  0  0
   25.7744  -10.0738  -16.0546 C   0  0  0  0  0  0  0  0  0  0  0  0
   26.6575   -9.8408  -15.2002 O   0  0  0  0  0  0  0  0  0  0  0  0
   24.8912   -8.9830  -16.5323 C   0  0  0  0  0  0  0  0  0  0  0  0
   23.7877   -9.5949  -17.3365 C   0  0  2  0  0  0  0  0  0  0  0  0
   24.3758  -10.2477  -18.4879 N   0  0  0  0  0  0  0  0  0  0  0  0
   22.7666   -8.6483  -17.7824 C   0  0  0  0  0  0  0  0  0  0  0  0
   23.0310   -7.4208  -17.7233 O   0  0  0  0  0  0  0  0  0  0  0  0
   21.4981   -8.9990  -18.2779 N   0  0  0  0  0  0  0  0  0  0  0  0
   20.4998   -8.0230  -18.7337 C   0  0  1  0  0  0  0  0  0  0  0  0
   19.2857   -8.7419  -19.2198 C   0  0  0  0  0  0  0  0  0  0  0  0
   18.1293   -7.9078  -19.6597 C   0  0  0  0  0  0  0  0  0  0  0  0
   17.0194   -8.8175  -20.1312 C   0  0  0  0  0  0  0  0  0  0  0  0
   15.8378   -8.0257  -20.6513 C   0  0  0  0  0  0  0  0  0  0  0  0
   14.8806   -8.9984  -21.1508 N   0  0  0  0  0  0  0  0  0  0  0  0
   20.2589   -7.1171  -17.5821 C   0  0  0  0  0  0  0  0  0  0  0  0
   20.1249   -7.6530  -16.4312 O   0  0  0  0  0  0  0  0  0  0  0  0
   23.2700   -6.4232  -13.8693 N   0  0  0  0  0  0  0  0  0  0  0  0
   22.6872   -5.1688  -13.5836 C   0  0  0  0  0  0  0  0  0  0  0  0
   23.1283   -4.5048  -12.5868 O   0  0  0  0  0  0  0  0  0  0  0  0
   21.5986   -4.5890  -14.3880 C   0  0  0  0  0  0  0  0  0  0  0  0
   21.2436   -5.3880  -15.5791 C   0  0  0  0  0  0  0  0  0  0  0  0
   20.0826   -4.9341  -16.4058 C   0  0  2  0  0  0  0  0  0  0  0  0
   20.1690   -5.7128  -17.6640 N   0  0  0  0  0  0  0  0  0  0  0  0
   19.9899   -3.5200  -16.7161 C   0  0  0  0  0  0  0  0  0  0  0  0
   19.5870   -2.6930  -15.8420 O   0  0  0  0  0  0  0  0  0  0  0  0
   20.3294   -2.9527  -17.9520 O   0  0  0  0  0  0  0  0  0  0  0  0
  2  1  1  0
  3  2  2  0
  4  2  1  0
  4  5  1  0
  5  6  1  6
  7  5  1  0
  7  8  2  0
  9  7  1  0
 10  9  1  0
 10 11  1  1
 12 11  1  0
 12 13  1  0
 13 14  1  0
 14 15  1  0
 16 10  1  0
 17 16  2  0
 19 18  1  0
 20 19  2  0
 21 19  1  0
 22 21  1  0
 23 22  1  1
 23 24  1  0
 24 16  1  0
 25 23  1  0
 26 25  2  0
 27 25  1  0
M  END
$$$$
