NKQ.pdb
     RDKit          3D

 27 26  0  0  1  0  0  0  0  0999 V2000
   26.0181  -10.7689  -15.2393 N   0  0  0  0  0  0  0  0  0  0  0  0
   25.5552  -11.0391  -16.5574 C   0  0  0  0  0  0  0  0  0  0  0  0
   26.3307  -11.6306  -17.3402 O   0  0  0  0  0  0  0  0  0  0  0  0
   24.2000  -10.6408  -17.0078 C   0  0  0  0  0  0  0  0  0  0  0  0
   23.5503   -9.8674  -15.9039 C   0  0  2  0  0  0  0  0  0  0  0  0
   23.4369  -10.7352  -14.7498 N   0  0  0  0  0  0  0  0  0  0  0  0
   22.2336   -9.3262  -16.2371 C   0  0  0  0  0  0  0  0  0  0  0  0
   22.1782   -8.3418  -17.0168 O   0  0  0  0  0  0  0  0  0  0  0  0
   21.0089   -9.8195  -15.7531 N   0  0  0  0  0  0  0  0  0  0  0  0
   19.6987   -9.2895  -16.1523 C   0  0  1  0  0  0  0  0  0  0  0  0
   18.6372  -10.2860  -15.8247 C   0  0  0  0  0  0  0  0  0  0  0  0
   17.2278   -9.9096  -16.1386 C   0  0  0  0  0  0  0  0  0  0  0  0
   16.3217  -11.0672  -15.7911 C   0  0  0  0  0  0  0  0  0  0  0  0
   14.8823  -10.7736  -16.1594 C   0  0  0  0  0  0  0  0  0  0  0  0
   14.0815  -11.8225  -15.5509 N   0  0  0  0  0  0  0  0  0  0  0  0
   19.5557   -7.9863  -15.4551 C   0  0  0  0  0  0  0  0  0  0  0  0
   20.1549   -7.8499  -14.3362 O   0  0  0  0  0  0  0  0  0  0  0  0
   23.0858   -4.7417  -14.7060 N   0  0  0  0  0  0  0  0  0  0  0  0
   22.1326   -3.7580  -14.3616 C   0  0  0  0  0  0  0  0  0  0  0  0
   22.5475   -2.6437  -13.8973 O   0  0  0  0  0  0  0  0  0  0  0  0
   20.6823   -3.9568  -14.5205 C   0  0  0  0  0  0  0  0  0  0  0  0
   20.3176   -5.2672  -15.0975 C   0  0  0  0  0  0  0  0  0  0  0  0
   18.8651   -5.6135  -15.1854 C   0  0  2  0  0  0  0  0  0  0  0  0
   18.8112   -6.8903  -15.9361 N   0  0  0  0  0  0  0  0  0  0  0  0
   17.9799   -4.6473  -15.8078 C   0  0  0  0  0  0  0  0  0  0  0  0
   17.4798   -4.8743  -16.9518 O   0  0  0  0  0  0  0  0  0  0  0  0
   17.5997   -3.4284  -15.2297 O   0  0  0  0  0  0  0  0  0  0  0  0
  2  1  1  0
  3  2  2  0
  4  2  1  0
  4  5  1  0
  5  6  1  1
  7  5  1  0
  7  8  2  0
  9  7  1  0
 10  9  1  0
 10 11  1  1
 12 11  1  0
 12 13  1  0
 13 14  1  0
 14 15  1  0
 16 10  1  0
 17 16  2  0
 19 18  1  0
 20 19  2  0
 21 19  1  0
 22 21  1  0
 23 22  1  6
 23 24  1  0
 24 16  1  0
 25 23  1  0
 26 25  2  0
 27 25  1  0
M  END
$$$$
