NKQ.pdb
     RDKit          3D

 27 26  0  0  1  0  0  0  0  0999 V2000
   19.1490  -17.0377  -19.4582 N   0  0  0  0  0  0  0  0  0  0  0  0
   19.8507  -17.9585  -18.6308 C   0  0  0  0  0  0  0  0  0  0  0  0
   20.9152  -17.5736  -18.0989 O   0  0  0  0  0  0  0  0  0  0  0  0
   19.3525  -19.3346  -18.3939 C   0  0  0  0  0  0  0  0  0  0  0  0
   20.5106  -20.2754  -18.5049 C   0  0  2  0  0  0  0  0  0  0  0  0
   20.7731  -20.5055  -19.9106 N   0  0  0  0  0  0  0  0  0  0  0  0
   20.3161  -21.5577  -17.8299 C   0  0  0  0  0  0  0  0  0  0  0  0
   19.2810  -22.2177  -18.0996 O   0  0  0  0  0  0  0  0  0  0  0  0
   21.1999  -22.1220  -16.8928 N   0  0  0  0  0  0  0  0  0  0  0  0
   20.9833  -23.4216  -16.2441 C   0  0  1  0  0  0  0  0  0  0  0  0
   22.2918  -23.9748  -15.7871 C   0  0  0  0  0  0  0  0  0  0  0  0
   23.1006  -24.7296  -16.7884 C   0  0  0  0  0  0  0  0  0  0  0  0
   24.3345  -25.2770  -16.1103 C   0  0  0  0  0  0  0  0  0  0  0  0
   25.2874  -25.8967  -17.1111 C   0  0  0  0  0  0  0  0  0  0  0  0
   26.4795  -26.2669  -16.3669 N   0  0  0  0  0  0  0  0  0  0  0  0
   20.0046  -23.1762  -15.1546 C   0  0  0  0  0  0  0  0  0  0  0  0
   20.1175  -22.0873  -14.4980 O   0  0  0  0  0  0  0  0  0  0  0  0
   15.7694  -20.5680  -16.6613 N   0  0  0  0  0  0  0  0  0  0  0  0
   15.6699  -21.1309  -15.3699 C   0  0  0  0  0  0  0  0  0  0  0  0
   15.0535  -20.4748  -14.4650 O   0  0  0  0  0  0  0  0  0  0  0  0
   16.2388  -22.4437  -15.0217 C   0  0  0  0  0  0  0  0  0  0  0  0
   17.4278  -22.3679  -14.1479 C   0  0  0  0  0  0  0  0  0  0  0  0
   18.0480  -23.6521  -13.6969 C   0  0  2  0  0  0  0  0  0  0  0  0
   18.9616  -24.0526  -14.7931 N   0  0  0  0  0  0  0  0  0  0  0  0
   17.1587  -24.7536  -13.3800 C   0  0  0  0  0  0  0  0  0  0  0  0
   17.1958  -25.8272  -14.0556 O   0  0  0  0  0  0  0  0  0  0  0  0
   16.2205  -24.7447  -12.3387 O   0  0  0  0  0  0  0  0  0  0  0  0
  2  1  1  0
  3  2  2  0
  4  2  1  0
  4  5  1  0
  5  6  1  6
  7  5  1  0
  7  8  2  0
  9  7  1  0
 10  9  1  0
 10 11  1  1
 12 11  1  0
 12 13  1  0
 13 14  1  0
 14 15  1  0
 16 10  1  0
 17 16  2  0
 19 18  1  0
 20 19  2  0
 21 19  1  0
 22 21  1  0
 23 22  1  6
 23 24  1  0
 24 16  1  0
 25 23  1  0
 26 25  2  0
 27 25  1  0
M  END
$$$$
