NKQ.pdb
     RDKit          3D

 27 26  0  0  1  0  0  0  0  0999 V2000
   30.3582  -23.9846  -15.9531 N   0  0  0  0  0  0  0  0  0  0  0  0
   29.9180  -23.0253  -16.9073 C   0  0  0  0  0  0  0  0  0  0  0  0
   30.1723  -23.2398  -18.1129 O   0  0  0  0  0  0  0  0  0  0  0  0
   29.1796  -21.8040  -16.5057 C   0  0  0  0  0  0  0  0  0  0  0  0
   27.7159  -22.0704  -16.6655 C   0  0  2  0  0  0  0  0  0  0  0  0
   27.4420  -22.2592  -18.0751 N   0  0  0  0  0  0  0  0  0  0  0  0
   26.8478  -21.0191  -16.1375 C   0  0  0  0  0  0  0  0  0  0  0  0
   27.0035  -20.6683  -14.9406 O   0  0  0  0  0  0  0  0  0  0  0  0
   25.8408  -20.3592  -16.8643 N   0  0  0  0  0  0  0  0  0  0  0  0
   24.9645  -19.3272  -16.2951 C   0  0  1  0  0  0  0  0  0  0  0  0
   24.2309  -18.6344  -17.3948 C   0  0  0  0  0  0  0  0  0  0  0  0
   23.2329  -17.5972  -17.0015 C   0  0  0  0  0  0  0  0  0  0  0  0
   22.5436  -17.0836  -18.2436 C   0  0  0  0  0  0  0  0  0  0  0  0
   21.5114  -16.0276  -17.9075 C   0  0  0  0  0  0  0  0  0  0  0  0
   20.8442  -15.6950  -19.1549 N   0  0  0  0  0  0  0  0  0  0  0  0
   24.0917  -20.0262  -15.3180 C   0  0  0  0  0  0  0  0  0  0  0  0
   23.6412  -21.1739  -15.6488 O   0  0  0  0  0  0  0  0  0  0  0  0
   25.5510  -20.7004   -9.6211 N   0  0  0  0  0  0  0  0  0  0  0  0
   24.2430  -21.2308   -9.5709 C   0  0  0  0  0  0  0  0  0  0  0  0
   23.8552  -21.7951   -8.4936 O   0  0  0  0  0  0  0  0  0  0  0  0
   23.3038  -21.1562  -10.7025 C   0  0  0  0  0  0  0  0  0  0  0  0
   23.8572  -20.4837  -11.8961 C   0  0  0  0  0  0  0  0  0  0  0  0
   22.9983  -20.4088  -13.1184 C   0  0  2  0  0  0  0  0  0  0  0  0
   23.7257  -19.5193  -14.0547 N   0  0  0  0  0  0  0  0  0  0  0  0
   21.6375  -19.9330  -12.9562 C   0  0  0  0  0  0  0  0  0  0  0  0
   21.3351  -18.7341  -13.2418 O   0  0  0  0  0  0  0  0  0  0  0  0
   20.5697  -20.7170  -12.4979 O   0  0  0  0  0  0  0  0  0  0  0  0
  2  1  1  0
  3  2  2  0
  4  2  1  0
  4  5  1  0
  5  6  1  6
  7  5  1  0
  7  8  2  0
  9  7  1  0
 10  9  1  0
 10 11  1  6
 12 11  1  0
 12 13  1  0
 13 14  1  0
 14 15  1  0
 16 10  1  0
 17 16  2  0
 19 18  1  0
 20 19  2  0
 21 19  1  0
 22 21  1  0
 23 22  1  1
 23 24  1  0
 24 16  1  0
 25 23  1  0
 26 25  2  0
 27 25  1  0
M  END
$$$$
