NKQ.pdb
     RDKit          3D

 27 26  0  0  1  0  0  0  0  0999 V2000
   26.4253  -19.6501   -7.2956 N   0  0  0  0  0  0  0  0  0  0  0  0
   25.6321  -20.0698   -8.3999 C   0  0  0  0  0  0  0  0  0  0  0  0
   24.6378  -20.7914   -8.1655 O   0  0  0  0  0  0  0  0  0  0  0  0
   25.9567  -19.6748   -9.7915 C   0  0  0  0  0  0  0  0  0  0  0  0
   25.2609  -20.6204  -10.7191 C   0  0  2  0  0  0  0  0  0  0  0  0
   25.8744  -21.9249  -10.5786 N   0  0  0  0  0  0  0  0  0  0  0  0
   25.2869  -20.2191  -12.1247 C   0  0  0  0  0  0  0  0  0  0  0  0
   25.3158  -18.9906  -12.3892 O   0  0  0  0  0  0  0  0  0  0  0  0
   25.2821  -21.1019  -13.2194 N   0  0  0  0  0  0  0  0  0  0  0  0
   25.3265  -20.6664  -14.6212 C   0  0  1  0  0  0  0  0  0  0  0  0
   26.1590  -21.6190  -15.4129 C   0  0  0  0  0  0  0  0  0  0  0  0
   26.2587  -21.3796  -16.8823 C   0  0  0  0  0  0  0  0  0  0  0  0
   27.6078  -20.7741  -17.1905 C   0  0  0  0  0  0  0  0  0  0  0  0
   27.7826  -20.5381  -18.6762 C   0  0  0  0  0  0  0  0  0  0  0  0
   29.1437  -20.0629  -18.8584 N   0  0  0  0  0  0  0  0  0  0  0  0
   23.9124  -20.5702  -15.0639 C   0  0  0  0  0  0  0  0  0  0  0  0
   23.1321  -21.5306  -14.7504 O   0  0  0  0  0  0  0  0  0  0  0  0
   18.6117  -19.5367  -13.5406 N   0  0  0  0  0  0  0  0  0  0  0  0
   19.4038  -18.4484  -13.9681 C   0  0  0  0  0  0  0  0  0  0  0  0
   18.8338  -17.3262  -14.1805 O   0  0  0  0  0  0  0  0  0  0  0  0
   20.8586  -18.5476  -14.1729 C   0  0  0  0  0  0  0  0  0  0  0  0
   21.2746  -18.4136  -15.5844 C   0  0  0  0  0  0  0  0  0  0  0  0
   21.9510  -19.5819  -16.2286 C   0  0  2  0  0  0  0  0  0  0  0  0
   23.3678  -19.4993  -15.8011 N   0  0  0  0  0  0  0  0  0  0  0  0
   21.8859  -19.6836  -17.6742 C   0  0  0  0  0  0  0  0  0  0  0  0
   22.8878  -19.3728  -18.3883 O   0  0  0  0  0  0  0  0  0  0  0  0
   20.7648  -20.1237  -18.3913 O   0  0  0  0  0  0  0  0  0  0  0  0
  2  1  1  0
  3  2  2  0
  4  2  1  0
  4  5  1  0
  5  6  1  6
  7  5  1  0
  7  8  2  0
  9  7  1  0
 10  9  1  0
 10 11  1  6
 12 11  1  0
 12 13  1  0
 13 14  1  0
 14 15  1  0
 16 10  1  0
 17 16  2  0
 19 18  1  0
 20 19  2  0
 21 19  1  0
 22 21  1  0
 23 22  1  6
 23 24  1  0
 24 16  1  0
 25 23  1  0
 26 25  2  0
 27 25  1  0
M  END
$$$$
