NKQ.pdb
     RDKit          3D

 27 26  0  0  1  0  0  0  0  0999 V2000
   15.9701  -14.4918  -17.3268 N   0  0  0  0  0  0  0  0  0  0  0  0
   15.9620  -13.5737  -16.2397 C   0  0  0  0  0  0  0  0  0  0  0  0
   14.8961  -13.4323  -15.6011 O   0  0  0  0  0  0  0  0  0  0  0  0
   17.1684  -12.8000  -15.8599 C   0  0  0  0  0  0  0  0  0  0  0  0
   18.2842  -13.1976  -16.7741 C   0  0  2  0  0  0  0  0  0  0  0  0
   18.8323  -14.4515  -16.2997 N   0  0  0  0  0  0  0  0  0  0  0  0
   19.3560  -12.2096  -16.8869 C   0  0  0  0  0  0  0  0  0  0  0  0
   20.1938  -12.1357  -15.9527 O   0  0  0  0  0  0  0  0  0  0  0  0
   19.5311  -11.3240  -17.9651 N   0  0  0  0  0  0  0  0  0  0  0  0
   20.6000  -10.3191  -18.0326 C   0  0  1  0  0  0  0  0  0  0  0  0
   20.8398   -9.9414  -19.4563 C   0  0  0  0  0  0  0  0  0  0  0  0
   21.9038   -8.9300  -19.7239 C   0  0  0  0  0  0  0  0  0  0  0  0
   22.0373   -8.7417  -21.2168 C   0  0  0  0  0  0  0  0  0  0  0  0
   23.0329   -7.6503  -21.5503 C   0  0  0  0  0  0  0  0  0  0  0  0
   23.1400   -7.6220  -22.9993 N   0  0  0  0  0  0  0  0  0  0  0  0
   20.1616   -9.1976  -17.1637 C   0  0  0  0  0  0  0  0  0  0  0  0
   18.9532   -8.8025  -17.2797 O   0  0  0  0  0  0  0  0  0  0  0  0
   19.5201   -8.3765  -11.4499 N   0  0  0  0  0  0  0  0  0  0  0  0
   18.4707   -8.2087  -12.3800 C   0  0  0  0  0  0  0  0  0  0  0  0
   17.2674   -8.2919  -11.9626 O   0  0  0  0  0  0  0  0  0  0  0  0
   18.7017   -7.9349  -13.8083 C   0  0  0  0  0  0  0  0  0  0  0  0
   20.1247   -7.7471  -14.1591 C   0  0  0  0  0  0  0  0  0  0  0  0
   20.4512   -7.3237  -15.5560 C   0  0  2  0  0  0  0  0  0  0  0  0
   20.9772   -8.5393  -16.2213 N   0  0  0  0  0  0  0  0  0  0  0  0
   21.3921   -6.2326  -15.7256 C   0  0  0  0  0  0  0  0  0  0  0  0
   22.5315   -6.4384  -16.2450 O   0  0  0  0  0  0  0  0  0  0  0  0
   21.1434   -4.9030  -15.3581 O   0  0  0  0  0  0  0  0  0  0  0  0
  2  1  1  0
  3  2  2  0
  4  2  1  0
  4  5  1  0
  5  6  1  1
  7  5  1  0
  7  8  2  0
  9  7  1  0
 10  9  1  0
 10 11  1  6
 12 11  1  0
 12 13  1  0
 13 14  1  0
 14 15  1  0
 16 10  1  0
 17 16  2  0
 19 18  1  0
 20 19  2  0
 21 19  1  0
 22 21  1  0
 23 22  1  1
 23 24  1  0
 24 16  1  0
 25 23  1  0
 26 25  2  0
 27 25  1  0
M  END
$$$$
