NKQ.pdb
     RDKit          3D

 27 26  0  0  1  0  0  0  0  0999 V2000
   28.4568  -19.6642  -18.9094 N   0  0  0  0  0  0  0  0  0  0  0  0
   28.5222  -21.0565  -18.6229 C   0  0  0  0  0  0  0  0  0  0  0  0
   29.0561  -21.8041  -19.4716 O   0  0  0  0  0  0  0  0  0  0  0  0
   27.9811  -21.6227  -17.3641 C   0  0  0  0  0  0  0  0  0  0  0  0
   27.3280  -20.5157  -16.5979 C   0  0  2  0  0  0  0  0  0  0  0  0
   28.3627  -19.6131  -16.1371 N   0  0  0  0  0  0  0  0  0  0  0  0
   26.5260  -20.9589  -15.4585 C   0  0  0  0  0  0  0  0  0  0  0  0
   25.5948  -21.7758  -15.6721 O   0  0  0  0  0  0  0  0  0  0  0  0
   26.7103  -20.5435  -14.1277 N   0  0  0  0  0  0  0  0  0  0  0  0
   25.8123  -20.9099  -13.0250 C   0  0  1  0  0  0  0  0  0  0  0  0
   26.4385  -20.5293  -11.7249 C   0  0  0  0  0  0  0  0  0  0  0  0
   25.6541  -20.7997  -10.4847 C   0  0  0  0  0  0  0  0  0  0  0  0
   26.4901  -20.4246   -9.2838 C   0  0  0  0  0  0  0  0  0  0  0  0
   25.7608  -20.7154   -7.9887 C   0  0  0  0  0  0  0  0  0  0  0  0
   26.6602  -20.3267   -6.9156 N   0  0  0  0  0  0  0  0  0  0  0  0
   24.5212  -20.2332  -13.3077 C   0  0  0  0  0  0  0  0  0  0  0  0
   24.5516  -19.1982  -14.0543 O   0  0  0  0  0  0  0  0  0  0  0  0
   22.9039  -21.2054  -17.7063 N   0  0  0  0  0  0  0  0  0  0  0  0
   21.6266  -20.7144  -17.3572 C   0  0  0  0  0  0  0  0  0  0  0  0
   20.7641  -20.5470  -18.2832 O   0  0  0  0  0  0  0  0  0  0  0  0
   21.2421  -20.3935  -15.9725 C   0  0  0  0  0  0  0  0  0  0  0  0
   22.3202  -20.6125  -14.9861 C   0  0  0  0  0  0  0  0  0  0  0  0
   22.0481  -20.2515  -13.5603 C   0  0  2  0  0  0  0  0  0  0  0  0
   23.2670  -20.6481  -12.8160 N   0  0  0  0  0  0  0  0  0  0  0  0
   20.8817  -20.8389  -12.9285 C   0  0  0  0  0  0  0  0  0  0  0  0
   19.7728  -20.2220  -12.9216 O   0  0  0  0  0  0  0  0  0  0  0  0
   20.8631  -22.0919  -12.3006 O   0  0  0  0  0  0  0  0  0  0  0  0
  2  1  1  0
  3  2  2  0
  4  2  1  0
  4  5  1  0
  5  6  1  1
  7  5  1  0
  7  8  2  0
  9  7  1  0
 10  9  1  0
 10 11  1  1
 12 11  1  0
 12 13  1  0
 13 14  1  0
 14 15  1  0
 16 10  1  0
 17 16  2  0
 19 18  1  0
 20 19  2  0
 21 19  1  0
 22 21  1  0
 23 22  1  6
 23 24  1  0
 24 16  1  0
 25 23  1  0
 26 25  2  0
 27 25  1  0
M  END
$$$$
