NKQ.pdb
     RDKit          3D

 27 26  0  0  1  0  0  0  0  0999 V2000
   17.7841  -16.3142  -13.2375 N   0  0  0  0  0  0  0  0  0  0  0  0
   17.8637  -15.5657  -14.4450 C   0  0  0  0  0  0  0  0  0  0  0  0
   17.0079  -15.7889  -15.3293 O   0  0  0  0  0  0  0  0  0  0  0  0
   18.9193  -14.5487  -14.6672 C   0  0  0  0  0  0  0  0  0  0  0  0
   19.6632  -14.9132  -15.9133 C   0  0  2  0  0  0  0  0  0  0  0  0
   20.3227  -16.1834  -15.6908 N   0  0  0  0  0  0  0  0  0  0  0  0
   20.6483  -13.9218  -16.3424 C   0  0  0  0  0  0  0  0  0  0  0  0
   21.5041  -13.5370  -15.5060 O   0  0  0  0  0  0  0  0  0  0  0  0
   20.7205  -13.3552  -17.6275 N   0  0  0  0  0  0  0  0  0  0  0  0
   21.7789  -12.4316  -18.0556 C   0  0  1  0  0  0  0  0  0  0  0  0
   22.1526  -12.7233  -19.4707 C   0  0  0  0  0  0  0  0  0  0  0  0
   23.0829  -13.8653  -19.7092 C   0  0  0  0  0  0  0  0  0  0  0  0
   23.3406  -13.9867  -21.1926 C   0  0  0  0  0  0  0  0  0  0  0  0
   24.3481  -15.0770  -21.4922 C   0  0  0  0  0  0  0  0  0  0  0  0
   23.7899  -16.3084  -20.9595 N   0  0  0  0  0  0  0  0  0  0  0  0
   21.2443  -11.0648  -17.8295 C   0  0  0  0  0  0  0  0  0  0  0  0
   20.0236  -10.8532  -18.1375 O   0  0  0  0  0  0  0  0  0  0  0  0
   22.3840   -6.1552  -13.3770 N   0  0  0  0  0  0  0  0  0  0  0  0
   22.1746   -7.5326  -13.6080 C   0  0  0  0  0  0  0  0  0  0  0  0
   21.7508   -8.2545  -12.6444 O   0  0  0  0  0  0  0  0  0  0  0  0
   22.4162   -8.1726  -14.9119 C   0  0  0  0  0  0  0  0  0  0  0  0
   21.1840   -8.4593  -15.6752 C   0  0  0  0  0  0  0  0  0  0  0  0
   21.3085   -8.6743  -17.1502 C   0  0  2  0  0  0  0  0  0  0  0  0
   21.9814   -9.9865  -17.2998 N   0  0  0  0  0  0  0  0  0  0  0  0
   22.0236   -7.6724  -17.9180 C   0  0  0  0  0  0  0  0  0  0  0  0
   22.9827   -8.0064  -18.6789 O   0  0  0  0  0  0  0  0  0  0  0  0
   21.7331   -6.3013  -17.9029 O   0  0  0  0  0  0  0  0  0  0  0  0
  2  1  1  0
  3  2  2  0
  4  2  1  0
  4  5  1  0
  5  6  1  1
  7  5  1  0
  7  8  2  0
  9  7  1  0
 10  9  1  0
 10 11  1  6
 12 11  1  0
 12 13  1  0
 13 14  1  0
 14 15  1  0
 16 10  1  0
 17 16  2  0
 19 18  1  0
 20 19  2  0
 21 19  1  0
 22 21  1  0
 23 22  1  1
 23 24  1  0
 24 16  1  0
 25 23  1  0
 26 25  2  0
 27 25  1  0
M  END
$$$$
