NKQ.pdb
     RDKit          3D

 27 26  0  0  1  0  0  0  0  0999 V2000
   28.1769  -21.5227  -15.2545 N   0  0  0  0  0  0  0  0  0  0  0  0
   27.6258  -20.2624  -15.6186 C   0  0  0  0  0  0  0  0  0  0  0  0
   28.4117  -19.3010  -15.7675 O   0  0  0  0  0  0  0  0  0  0  0  0
   26.1691  -20.0743  -15.8203 C   0  0  0  0  0  0  0  0  0  0  0  0
   25.4883  -21.3784  -15.5473 C   0  0  2  0  0  0  0  0  0  0  0  0
   25.8816  -22.3180  -16.5771 N   0  0  0  0  0  0  0  0  0  0  0  0
   24.0294  -21.3000  -15.4915 C   0  0  0  0  0  0  0  0  0  0  0  0
   23.4044  -21.1246  -16.5679 O   0  0  0  0  0  0  0  0  0  0  0  0
   23.2567  -21.4053  -14.3213 N   0  0  0  0  0  0  0  0  0  0  0  0
   21.7896  -21.3434  -14.3018 C   0  0  1  0  0  0  0  0  0  0  0  0
   21.2703  -22.1778  -13.1787 C   0  0  0  0  0  0  0  0  0  0  0  0
   19.7919  -22.2103  -12.9798 C   0  0  0  0  0  0  0  0  0  0  0  0
   19.4679  -23.1778  -11.8659 C   0  0  0  0  0  0  0  0  0  0  0  0
   17.9724  -23.3501  -11.6997 C   0  0  0  0  0  0  0  0  0  0  0  0
   17.7837  -24.1735  -10.5172 N   0  0  0  0  0  0  0  0  0  0  0  0
   21.4429  -19.9025  -14.2094 C   0  0  0  0  0  0  0  0  0  0  0  0
   22.0255  -19.2150  -13.3052 O   0  0  0  0  0  0  0  0  0  0  0  0
   18.6265  -14.4568  -17.7763 N   0  0  0  0  0  0  0  0  0  0  0  0
   19.7452  -15.3017  -17.6056 C   0  0  0  0  0  0  0  0  0  0  0  0
   20.3462  -15.7345  -18.6452 O   0  0  0  0  0  0  0  0  0  0  0  0
   20.2542  -15.7003  -16.2826 C   0  0  0  0  0  0  0  0  0  0  0  0
   20.5245  -17.1474  -16.1566 C   0  0  0  0  0  0  0  0  0  0  0  0
   20.2856  -17.7909  -14.8276 C   0  0  2  0  0  0  0  0  0  0  0  0
   20.5221  -19.2380  -15.0445 N   0  0  0  0  0  0  0  0  0  0  0  0
   18.9864  -17.5990  -14.2112 C   0  0  0  0  0  0  0  0  0  0  0  0
   18.7367  -16.5466  -13.5476 O   0  0  0  0  0  0  0  0  0  0  0  0
   17.9248  -18.5108  -14.2920 O   0  0  0  0  0  0  0  0  0  0  0  0
  2  1  1  0
  3  2  2  0
  4  2  1  0
  4  5  1  0
  5  6  1  6
  7  5  1  0
  7  8  2  0
  9  7  1  0
 10  9  1  0
 10 11  1  1
 12 11  1  0
 12 13  1  0
 13 14  1  0
 14 15  1  0
 16 10  1  0
 17 16  2  0
 19 18  1  0
 20 19  2  0
 21 19  1  0
 22 21  1  0
 23 22  1  6
 23 24  1  0
 24 16  1  0
 25 23  1  0
 26 25  2  0
 27 25  1  0
M  END
$$$$
