NKQ.pdb
     RDKit          3D

 27 26  0  0  1  0  0  0  0  0999 V2000
   21.3934  -19.7342  -18.7229 N   0  0  0  0  0  0  0  0  0  0  0  0
   22.1814  -20.7920  -19.2567 C   0  0  0  0  0  0  0  0  0  0  0  0
   21.6352  -21.5818  -20.0579 O   0  0  0  0  0  0  0  0  0  0  0  0
   23.6064  -20.9692  -18.8878 C   0  0  0  0  0  0  0  0  0  0  0  0
   23.9325  -19.9909  -17.8035 C   0  0  2  0  0  0  0  0  0  0  0  0
   24.6461  -18.8792  -18.3974 N   0  0  0  0  0  0  0  0  0  0  0  0
   24.7223  -20.5453  -16.7051 C   0  0  0  0  0  0  0  0  0  0  0  0
   24.2076  -21.4539  -16.0055 O   0  0  0  0  0  0  0  0  0  0  0  0
   26.0251  -20.1430  -16.3607 N   0  0  0  0  0  0  0  0  0  0  0  0
   26.7944  -20.7244  -15.2531 C   0  0  1  0  0  0  0  0  0  0  0  0
   28.2065  -20.2464  -15.3221 C   0  0  0  0  0  0  0  0  0  0  0  0
   29.2812  -21.2760  -15.2160 C   0  0  0  0  0  0  0  0  0  0  0  0
   29.1466  -22.2462  -16.3660 C   0  0  0  0  0  0  0  0  0  0  0  0
   30.1676  -23.3608  -16.2726 C   0  0  0  0  0  0  0  0  0  0  0  0
   29.7908  -24.3465  -17.2717 N   0  0  0  0  0  0  0  0  0  0  0  0
   26.0753  -20.3421  -14.0114 C   0  0  0  0  0  0  0  0  0  0  0  0
   25.7639  -19.1124  -13.8680 O   0  0  0  0  0  0  0  0  0  0  0  0
   20.8298  -20.6373  -12.6494 N   0  0  0  0  0  0  0  0  0  0  0  0
   21.2785  -20.1877  -11.3881 C   0  0  0  0  0  0  0  0  0  0  0  0
   20.4138  -19.7706  -10.5469 O   0  0  0  0  0  0  0  0  0  0  0  0
   22.6981  -20.1848  -10.9966 C   0  0  0  0  0  0  0  0  0  0  0  0
   23.6186  -20.5846  -12.0810 C   0  0  0  0  0  0  0  0  0  0  0  0
   25.0764  -20.6833  -11.7607 C   0  0  2  0  0  0  0  0  0  0  0  0
   25.7099  -21.2335  -12.9825 N   0  0  0  0  0  0  0  0  0  0  0  0
   25.4602  -21.4835  -10.6131 C   0  0  0  0  0  0  0  0  0  0  0  0
   25.8229  -22.6906  -10.7610 O   0  0  0  0  0  0  0  0  0  0  0  0
   25.4766  -21.0210   -9.2901 O   0  0  0  0  0  0  0  0  0  0  0  0
  2  1  1  0
  3  2  2  0
  4  2  1  0
  4  5  1  0
  5  6  1  6
  7  5  1  0
  7  8  2  0
  9  7  1  0
 10  9  1  0
 10 11  1  1
 12 11  1  0
 12 13  1  0
 13 14  1  0
 14 15  1  0
 16 10  1  0
 17 16  2  0
 19 18  1  0
 20 19  2  0
 21 19  1  0
 22 21  1  0
 23 22  1  6
 23 24  1  0
 24 16  1  0
 25 23  1  0
 26 25  2  0
 27 25  1  0
M  END
$$$$
