EFR.pdb
     RDKit          3D

 32 32  0  0  1  0  0  0  0  0999 V2000
   28.9231  -21.4554  -13.9542 N   0  0  0  0  0  0  0  0  0  0  0  0
   28.3278  -20.4131  -13.1759 C   0  0  1  0  0  0  0  0  0  0  0  0
   28.2756  -19.1673  -14.0223 C   0  0  0  0  0  0  0  0  0  0  0  0
   27.6784  -19.5167  -15.3714 C   0  0  0  0  0  0  0  0  0  0  0  0
   27.5519  -18.3111  -16.2097 C   0  0  0  0  0  0  0  0  0  0  0  0
   26.5028  -17.6220  -16.1682 O   0  0  0  0  0  0  0  0  0  0  0  0
   27.0314  -20.7703  -12.5856 C   0  0  0  0  0  0  0  0  0  0  0  0
   26.3443  -21.7032  -13.0776 O   0  0  0  0  0  0  0  0  0  0  0  0
   28.5717  -17.9153  -17.0503 O   0  0  0  0  0  0  0  0  0  0  0  0
   26.4564  -20.1222  -11.4506 N   0  0  0  0  0  0  0  0  0  0  0  0
   25.1788  -20.4931  -10.8769 C   0  0  1  0  0  0  0  0  0  0  0  0
   24.9821  -19.8759   -9.5202 C   0  0  0  0  0  0  0  0  0  0  0  0
   26.0597  -20.0661   -8.5712 C   0  0  0  0  0  0  0  0  0  0  0  0
   26.8863  -19.0392   -8.1807 C   0  0  0  0  0  0  0  0  0  0  0  0
   27.9173  -19.2274   -7.2645 C   0  0  0  0  0  0  0  0  0  0  0  0
   28.0945  -20.4991   -6.7449 C   0  0  0  0  0  0  0  0  0  0  0  0
   27.2834  -21.5525   -7.1149 C   0  0  0  0  0  0  0  0  0  0  0  0
   26.2731  -21.3243   -8.0255 C   0  0  0  0  0  0  0  0  0  0  0  0
   24.0591  -20.2304  -11.8098 C   0  0  0  0  0  0  0  0  0  0  0  0
   24.2282  -19.6802  -12.9256 O   0  0  0  0  0  0  0  0  0  0  0  0
   20.8399  -25.4338  -16.0924 N   0  0  0  0  0  0  0  0  0  0  0  0
   20.7739  -25.7963  -14.7308 C   0  0  0  0  0  0  0  0  0  0  0  0
   20.8059  -27.0190  -14.3720 N   0  0  0  0  0  0  0  0  0  0  0  0
   20.6691  -24.7988  -13.7173 N   0  0  0  0  0  0  0  0  0  0  0  0
   20.1703  -23.4809  -13.9718 C   0  0  0  0  0  0  0  0  0  0  0  0
   21.2683  -22.5244  -14.4035 C   0  0  0  0  0  0  0  0  0  0  0  0
   22.1832  -22.2195  -13.2491 C   0  0  0  0  0  0  0  0  0  0  0  0
   21.7670  -20.9745  -12.5002 C   0  0  2  0  0  0  0  0  0  0  0  0
   22.7071  -20.5913  -11.4931 N   0  0  0  0  0  0  0  0  0  0  0  0
   20.3937  -21.1166  -12.0083 C   0  0  0  0  0  0  0  0  0  0  0  0
   20.1782  -21.9043  -11.0289 O   0  0  0  0  0  0  0  0  0  0  0  0
   19.3075  -20.4620  -12.5233 O   0  0  0  0  0  0  0  0  0  0  0  0
  2  1  1  6
  2  7  1  0
  2  3  1  0
  3  4  1  0
  4  5  1  0
  5  9  1  0
  6  5  2  0
  7  8  2  0
  7 10  1  0
 10 11  1  0
 11 12  1  1
 12 13  1  0
 13 18  2  0
 13 14  1  0
 14 15  2  0
 15 16  1  0
 17 16  2  0
 18 17  1  0
 19 29  1  0
 19 11  1  0
 20 19  2  0
 22 21  1  0
 22 24  1  0
 23 22  2  0
 24 25  1  0
 25 26  1  0
 26 27  1  0
 28 27  1  1
 28 29  1  0
 28 30  1  0
 30 32  1  0
 31 30  2  0
M  END
$$$$
