EFR.pdb
     RDKit          3D

 32 32  0  0  1  0  0  0  0  0999 V2000
   19.6602  -21.9755  -10.8348 N   0  0  0  0  0  0  0  0  0  0  0  0
   19.9988  -21.8508  -12.2191 C   0  0  1  0  0  0  0  0  0  0  0  0
   18.8042  -21.2876  -12.9452 C   0  0  0  0  0  0  0  0  0  0  0  0
   17.7037  -22.3303  -12.9597 C   0  0  0  0  0  0  0  0  0  0  0  0
   18.0264  -23.4107  -13.9088 C   0  0  0  0  0  0  0  0  0  0  0  0
   18.5923  -23.1445  -14.9980 O   0  0  0  0  0  0  0  0  0  0  0  0
   21.2376  -21.1027  -12.4692 C   0  0  0  0  0  0  0  0  0  0  0  0
   21.2122  -19.8488  -12.5768 O   0  0  0  0  0  0  0  0  0  0  0  0
   17.7183  -24.7255  -13.6264 O   0  0  0  0  0  0  0  0  0  0  0  0
   22.5267  -21.7008  -12.6068 N   0  0  0  0  0  0  0  0  0  0  0  0
   23.7324  -20.9509  -12.8946 C   0  0  1  0  0  0  0  0  0  0  0  0
   24.9655  -21.7113  -12.4925 C   0  0  0  0  0  0  0  0  0  0  0  0
   26.2313  -21.1255  -12.8830 C   0  0  0  0  0  0  0  0  0  0  0  0
   26.7565  -20.0215  -12.2539 C   0  0  0  0  0  0  0  0  0  0  0  0
   27.9760  -19.4659  -12.6308 C   0  0  0  0  0  0  0  0  0  0  0  0
   28.6618  -20.0634  -13.6755 C   0  0  0  0  0  0  0  0  0  0  0  0
   28.1637  -21.1722  -14.3290 C   0  0  0  0  0  0  0  0  0  0  0  0
   26.9519  -21.6921  -13.9250 C   0  0  0  0  0  0  0  0  0  0  0  0
   23.7653  -20.4780  -14.2975 C   0  0  0  0  0  0  0  0  0  0  0  0
   23.4318  -21.2096  -15.2619 O   0  0  0  0  0  0  0  0  0  0  0  0
   22.9968  -16.1013  -20.1597 N   0  0  0  0  0  0  0  0  0  0  0  0
   21.6807  -15.7116  -19.8345 C   0  0  0  0  0  0  0  0  0  0  0  0
   20.8019  -15.5373  -20.7413 N   0  0  0  0  0  0  0  0  0  0  0  0
   21.2991  -15.5018  -18.4768 N   0  0  0  0  0  0  0  0  0  0  0  0
   22.1990  -15.6871  -17.3785 C   0  0  0  0  0  0  0  0  0  0  0  0
   22.7327  -17.1072  -17.3062 C   0  0  0  0  0  0  0  0  0  0  0  0
   23.6386  -17.2679  -16.1162 C   0  0  0  0  0  0  0  0  0  0  0  0
   24.1761  -18.6748  -15.9898 C   0  0  2  0  0  0  0  0  0  0  0  0
   24.1816  -19.1486  -14.6406 N   0  0  0  0  0  0  0  0  0  0  0  0
   25.4736  -18.7819  -16.6629 C   0  0  0  0  0  0  0  0  0  0  0  0
   26.4453  -18.0832  -16.2226 O   0  0  0  0  0  0  0  0  0  0  0  0
   25.7302  -19.5834  -17.7423 O   0  0  0  0  0  0  0  0  0  0  0  0
  2  1  1  1
  2  7  1  0
  2  3  1  0
  3  4  1  0
  4  5  1  0
  5  9  1  0
  6  5  2  0
  7  8  2  0
  7 10  1  0
 10 11  1  0
 11 12  1  6
 12 13  1  0
 13 18  2  0
 13 14  1  0
 14 15  2  0
 15 16  1  0
 17 16  2  0
 18 17  1  0
 19 29  1  0
 19 11  1  0
 20 19  2  0
 22 21  1  0
 22 24  1  0
 23 22  2  0
 24 25  1  0
 25 26  1  0
 26 27  1  0
 28 27  1  1
 28 29  1  0
 28 30  1  0
 30 32  1  0
 31 30  2  0
M  END
$$$$
