EFR.pdb
     RDKit          3D

 32 32  0  0  1  0  0  0  0  0999 V2000
   20.1440  -13.9445  -18.1665 N   0  0  0  0  0  0  0  0  0  0  0  0
   21.0355  -12.8332  -18.2960 C   0  0  1  0  0  0  0  0  0  0  0  0
   21.0408  -12.4022  -19.7401 C   0  0  0  0  0  0  0  0  0  0  0  0
   19.6174  -12.4199  -20.2616 C   0  0  0  0  0  0  0  0  0  0  0  0
   19.5826  -12.0413  -21.6856 C   0  0  0  0  0  0  0  0  0  0  0  0
   19.4462  -12.9236  -22.5690 O   0  0  0  0  0  0  0  0  0  0  0  0
   20.7637  -11.7333  -17.3616 C   0  0  0  0  0  0  0  0  0  0  0  0
   19.5840  -11.4820  -17.0015 O   0  0  0  0  0  0  0  0  0  0  0  0
   19.6975  -10.7236  -22.0776 O   0  0  0  0  0  0  0  0  0  0  0  0
   21.7665  -10.8860  -16.8002 N   0  0  0  0  0  0  0  0  0  0  0  0
   21.4761   -9.7803  -15.9103 C   0  0  1  0  0  0  0  0  0  0  0  0
   22.6861   -9.3805  -15.1125 C   0  0  0  0  0  0  0  0  0  0  0  0
   22.5046   -8.2816  -14.1866 C   0  0  0  0  0  0  0  0  0  0  0  0
   22.1073   -8.4743  -12.8845 C   0  0  0  0  0  0  0  0  0  0  0  0
   21.9391   -7.4143  -11.9981 C   0  0  0  0  0  0  0  0  0  0  0  0
   22.1864   -6.1349  -12.4679 C   0  0  0  0  0  0  0  0  0  0  0  0
   22.5864   -5.9055  -13.7686 C   0  0  0  0  0  0  0  0  0  0  0  0
   22.7414   -6.9830  -14.6153 C   0  0  0  0  0  0  0  0  0  0  0  0
   20.8442   -8.6484  -16.6261 C   0  0  0  0  0  0  0  0  0  0  0  0
   20.9986   -8.4612  -17.8580 O   0  0  0  0  0  0  0  0  0  0  0  0
   15.1660   -4.4852  -16.2941 N   0  0  0  0  0  0  0  0  0  0  0  0
   15.0017   -4.0286  -17.6186 C   0  0  0  0  0  0  0  0  0  0  0  0
   14.3353   -2.9723  -17.8736 N   0  0  0  0  0  0  0  0  0  0  0  0
   15.5797   -4.7409  -18.7101 N   0  0  0  0  0  0  0  0  0  0  0  0
   16.2287   -6.0080  -18.5555 C   0  0  0  0  0  0  0  0  0  0  0  0
   17.7251   -5.8645  -18.3386 C   0  0  0  0  0  0  0  0  0  0  0  0
   18.2464   -7.0025  -17.5045 C   0  0  0  0  0  0  0  0  0  0  0  0
   19.4128   -6.5904  -16.6362 C   0  0  2  0  0  0  0  0  0  0  0  0
   20.0129   -7.6932  -15.9516 N   0  0  0  0  0  0  0  0  0  0  0  0
   19.0214   -5.4859  -15.7559 C   0  0  0  0  0  0  0  0  0  0  0  0
   18.2930   -5.7465  -14.7421 O   0  0  0  0  0  0  0  0  0  0  0  0
   19.3802   -4.1775  -15.9370 O   0  0  0  0  0  0  0  0  0  0  0  0
  2  1  1  6
  2  7  1  0
  2  3  1  0
  3  4  1  0
  4  5  1  0
  5  9  1  0
  6  5  2  0
  7  8  2  0
  7 10  1  0
 10 11  1  0
 11 12  1  6
 12 13  1  0
 13 18  2  0
 13 14  1  0
 14 15  2  0
 15 16  1  0
 17 16  2  0
 18 17  1  0
 19 29  1  0
 19 11  1  0
 20 19  2  0
 22 21  1  0
 22 24  1  0
 23 22  2  0
 24 25  1  0
 25 26  1  0
 26 27  1  0
 28 27  1  1
 28 29  1  0
 28 30  1  0
 30 32  1  0
 31 30  2  0
M  END
$$$$
