EFR.pdb
     RDKit          3D

 32 32  0  0  1  0  0  0  0  0999 V2000
   24.2305  -19.1591  -17.6718 N   0  0  0  0  0  0  0  0  0  0  0  0
   24.2015  -20.5736  -17.4601 C   0  0  1  0  0  0  0  0  0  0  0  0
   25.5709  -21.1221  -17.7688 C   0  0  0  0  0  0  0  0  0  0  0  0
   25.9224  -20.7821  -19.2038 C   0  0  0  0  0  0  0  0  0  0  0  0
   25.1585  -21.6276  -20.1385 C   0  0  0  0  0  0  0  0  0  0  0  0
   24.0694  -21.2186  -20.6120 O   0  0  0  0  0  0  0  0  0  0  0  0
   23.6991  -20.9728  -16.1391 C   0  0  0  0  0  0  0  0  0  0  0  0
   23.7365  -22.1795  -15.7828 O   0  0  0  0  0  0  0  0  0  0  0  0
   25.6164  -22.8743  -20.5117 O   0  0  0  0  0  0  0  0  0  0  0  0
   23.1469  -20.0705  -15.1801 N   0  0  0  0  0  0  0  0  0  0  0  0
   22.6741  -20.4794  -13.8732 C   0  0  1  0  0  0  0  0  0  0  0  0
   23.0150  -19.4629  -12.8192 C   0  0  0  0  0  0  0  0  0  0  0  0
   22.6012  -19.7821  -11.4683 C   0  0  0  0  0  0  0  0  0  0  0  0
   23.4170  -20.4524  -10.5877 C   0  0  0  0  0  0  0  0  0  0  0  0
   23.0152  -20.7520   -9.2891 C   0  0  0  0  0  0  0  0  0  0  0  0
   21.7486  -20.3510   -8.8968 C   0  0  0  0  0  0  0  0  0  0  0  0
   20.9040  -19.6767   -9.7549 C   0  0  0  0  0  0  0  0  0  0  0  0
   21.3400  -19.3991  -11.0335 C   0  0  0  0  0  0  0  0  0  0  0  0
   21.2389  -20.8436  -13.8958 C   0  0  0  0  0  0  0  0  0  0  0  0
   20.3613  -20.0898  -14.3838 O   0  0  0  0  0  0  0  0  0  0  0  0
   19.5143  -27.9278  -10.4241 N   0  0  0  0  0  0  0  0  0  0  0  0
   20.0264  -27.8314  -11.7348 C   0  0  0  0  0  0  0  0  0  0  0  0
   20.3215  -28.8744  -12.4055 N   0  0  0  0  0  0  0  0  0  0  0  0
   20.2275  -26.5584  -12.3449 N   0  0  0  0  0  0  0  0  0  0  0  0
   20.0184  -25.3224  -11.6527 C   0  0  0  0  0  0  0  0  0  0  0  0
   18.8090  -24.5677  -12.1768 C   0  0  0  0  0  0  0  0  0  0  0  0
   19.1296  -23.9095  -13.4907 C   0  0  0  0  0  0  0  0  0  0  0  0
   19.3736  -22.4251  -13.3446 C   0  0  2  0  0  0  0  0  0  0  0  0
   20.7628  -22.0860  -13.3593 N   0  0  0  0  0  0  0  0  0  0  0  0
   18.6471  -21.9060  -12.1824 C   0  0  0  0  0  0  0  0  0  0  0  0
   17.3856  -22.0837  -12.1262 O   0  0  0  0  0  0  0  0  0  0  0  0
   19.2223  -21.2359  -11.1367 O   0  0  0  0  0  0  0  0  0  0  0  0
  2  1  1  1
  2  7  1  0
  2  3  1  0
  3  4  1  0
  4  5  1  0
  5  9  1  0
  6  5  2  0
  7  8  2  0
  7 10  1  0
 10 11  1  0
 11 12  1  1
 12 13  1  0
 13 18  2  0
 13 14  1  0
 14 15  2  0
 15 16  1  0
 17 16  2  0
 18 17  1  0
 19 29  1  0
 19 11  1  0
 20 19  2  0
 22 21  1  0
 22 24  1  0
 23 22  2  0
 24 25  1  0
 25 26  1  0
 26 27  1  0
 28 27  1  1
 28 29  1  0
 28 30  1  0
 30 32  1  0
 31 30  2  0
M  END
$$$$
