EFR.pdb
     RDKit          3D

 32 32  0  0  1  0  0  0  0  0999 V2000
   28.0781  -22.2391  -14.2687 N   0  0  0  0  0  0  0  0  0  0  0  0
   28.8397  -21.5119  -13.3004 C   0  0  1  0  0  0  0  0  0  0  0  0
   29.1798  -20.1656  -13.8862 C   0  0  0  0  0  0  0  0  0  0  0  0
   28.0075  -19.6833  -14.7179 C   0  0  0  0  0  0  0  0  0  0  0  0
   28.4059  -18.5431  -15.5625 C   0  0  0  0  0  0  0  0  0  0  0  0
   27.5532  -17.9595  -16.2765 O   0  0  0  0  0  0  0  0  0  0  0  0
   28.2062  -21.4278  -11.9782 C   0  0  0  0  0  0  0  0  0  0  0  0
   27.0005  -21.7570  -11.8289 O   0  0  0  0  0  0  0  0  0  0  0  0
   29.7103  -18.0945  -15.5884 O   0  0  0  0  0  0  0  0  0  0  0  0
   28.8688  -20.9852  -10.7934 N   0  0  0  0  0  0  0  0  0  0  0  0
   28.2220  -20.8896   -9.5006 C   0  0  1  0  0  0  0  0  0  0  0  0
   29.1391  -20.2989   -8.4660 C   0  0  0  0  0  0  0  0  0  0  0  0
   28.5978  -20.1799   -7.1278 C   0  0  0  0  0  0  0  0  0  0  0  0
   28.4664  -21.2608   -6.2883 C   0  0  0  0  0  0  0  0  0  0  0  0
   27.9498  -21.1391   -5.0014 C   0  0  0  0  0  0  0  0  0  0  0  0
   27.5634  -19.8781   -4.5778 C   0  0  0  0  0  0  0  0  0  0  0  0
   27.6813  -18.7718   -5.3944 C   0  0  0  0  0  0  0  0  0  0  0  0
   28.1981  -18.9349   -6.6626 C   0  0  0  0  0  0  0  0  0  0  0  0
   26.9143  -20.2004   -9.5885 C   0  0  0  0  0  0  0  0  0  0  0  0
   26.7436  -19.1676  -10.2818 O   0  0  0  0  0  0  0  0  0  0  0  0
   19.8687  -19.9561  -13.7777 N   0  0  0  0  0  0  0  0  0  0  0  0
   21.0290  -19.1795  -13.9782 C   0  0  0  0  0  0  0  0  0  0  0  0
   21.0111  -18.1496  -14.7291 N   0  0  0  0  0  0  0  0  0  0  0  0
   22.2567  -19.5292  -13.3429 N   0  0  0  0  0  0  0  0  0  0  0  0
   22.3943  -20.6738  -12.4936 C   0  0  0  0  0  0  0  0  0  0  0  0
   22.6850  -20.2891  -11.0533 C   0  0  0  0  0  0  0  0  0  0  0  0
   24.0992  -20.6490  -10.6887 C   0  0  0  0  0  0  0  0  0  0  0  0
   24.4311  -20.2936   -9.2577 C   0  0  2  0  0  0  0  0  0  0  0  0
   25.7579  -20.6743   -8.8839 N   0  0  0  0  0  0  0  0  0  0  0  0
   23.3913  -20.8002   -8.3575 C   0  0  0  0  0  0  0  0  0  0  0  0
   22.2904  -20.1611   -8.2813 O   0  0  0  0  0  0  0  0  0  0  0  0
   23.5085  -21.9208   -7.5804 O   0  0  0  0  0  0  0  0  0  0  0  0
  2  1  1  6
  2  7  1  0
  2  3  1  0
  3  4  1  0
  4  5  1  0
  5  9  1  0
  6  5  2  0
  7  8  2  0
  7 10  1  0
 10 11  1  0
 11 12  1  1
 12 13  1  0
 13 18  2  0
 13 14  1  0
 14 15  2  0
 15 16  1  0
 17 16  2  0
 18 17  1  0
 19 29  1  0
 19 11  1  0
 20 19  2  0
 22 21  1  0
 22 24  1  0
 23 22  2  0
 24 25  1  0
 25 26  1  0
 26 27  1  0
 28 27  1  6
 28 29  1  0
 28 30  1  0
 30 32  1  0
 31 30  2  0
M  END
$$$$
