EFR.pdb
     RDKit          3D

 32 32  0  0  1  0  0  0  0  0999 V2000
   29.2652  -21.4652  -14.2391 N   0  0  0  0  0  0  0  0  0  0  0  0
   28.7000  -20.5670  -13.2799 C   0  0  1  0  0  0  0  0  0  0  0  0
   28.6491  -19.1930  -13.8970 C   0  0  0  0  0  0  0  0  0  0  0  0
   27.7847  -19.2470  -15.1414 C   0  0  0  0  0  0  0  0  0  0  0  0
   27.6382  -17.9033  -15.7289 C   0  0  0  0  0  0  0  0  0  0  0  0
   26.5284  -17.3166  -15.6908 O   0  0  0  0  0  0  0  0  0  0  0  0
   27.4103  -21.0071  -12.7324 C   0  0  0  0  0  0  0  0  0  0  0  0
   26.5341  -21.5017  -13.4888 O   0  0  0  0  0  0  0  0  0  0  0  0
   28.7047  -17.2651  -16.3277 O   0  0  0  0  0  0  0  0  0  0  0  0
   27.0472  -20.9190  -11.3543 N   0  0  0  0  0  0  0  0  0  0  0  0
   25.7904  -21.4061  -10.8231 C   0  0  1  0  0  0  0  0  0  0  0  0
   25.8164  -21.4798   -9.3217 C   0  0  0  0  0  0  0  0  0  0  0  0
   26.7892  -20.6358   -8.6589 C   0  0  0  0  0  0  0  0  0  0  0  0
   28.1023  -21.0111   -8.4998 C   0  0  0  0  0  0  0  0  0  0  0  0
   29.0336  -20.1934   -7.8660 C   0  0  0  0  0  0  0  0  0  0  0  0
   28.5977  -18.9679   -7.3896 C   0  0  0  0  0  0  0  0  0  0  0  0
   27.2871  -18.5597   -7.5322 C   0  0  0  0  0  0  0  0  0  0  0  0
   26.3955  -19.3994   -8.1663 C   0  0  0  0  0  0  0  0  0  0  0  0
   24.6362  -20.6453  -11.3541 C   0  0  0  0  0  0  0  0  0  0  0  0
   24.6067  -19.3901  -11.3673 O   0  0  0  0  0  0  0  0  0  0  0  0
   20.5218  -26.1803  -14.5795 N   0  0  0  0  0  0  0  0  0  0  0  0
   20.5410  -25.2101  -15.6033 C   0  0  0  0  0  0  0  0  0  0  0  0
   19.9204  -25.3977  -16.7007 N   0  0  0  0  0  0  0  0  0  0  0  0
   21.2589  -23.9897  -15.4349 N   0  0  0  0  0  0  0  0  0  0  0  0
   21.9001  -23.6276  -14.2068 C   0  0  0  0  0  0  0  0  0  0  0  0
   21.1735  -22.5037  -13.4887 C   0  0  0  0  0  0  0  0  0  0  0  0
   21.8655  -21.1907  -13.7325 C   0  0  0  0  0  0  0  0  0  0  0  0
   22.3860  -20.5704  -12.4564 C   0  0  2  0  0  0  0  0  0  0  0  0
   23.4769  -21.3001  -11.8885 N   0  0  0  0  0  0  0  0  0  0  0  0
   21.2809  -20.3316  -11.5238 C   0  0  0  0  0  0  0  0  0  0  0  0
   21.2475  -20.9999  -10.4382 O   0  0  0  0  0  0  0  0  0  0  0  0
   20.2665  -19.4354  -11.7273 O   0  0  0  0  0  0  0  0  0  0  0  0
  2  1  1  6
  2  7  1  0
  2  3  1  0
  3  4  1  0
  4  5  1  0
  5  9  1  0
  6  5  2  0
  7  8  2  0
  7 10  1  0
 10 11  1  0
 11 12  1  1
 12 13  1  0
 13 18  2  0
 13 14  1  0
 14 15  2  0
 15 16  1  0
 17 16  2  0
 18 17  1  0
 19 29  1  0
 19 11  1  0
 20 19  2  0
 22 21  1  0
 22 24  1  0
 23 22  2  0
 24 25  1  0
 25 26  1  0
 26 27  1  0
 28 27  1  6
 28 29  1  0
 28 30  1  0
 30 32  1  0
 31 30  2  0
M  END
$$$$
