EFR.pdb
     RDKit          3D

 32 32  0  0  1  0  0  0  0  0999 V2000
   24.7718  -12.0331  -19.8672 N   0  0  0  0  0  0  0  0  0  0  0  0
   23.7552  -12.3914  -18.9267 C   0  0  1  0  0  0  0  0  0  0  0  0
   23.8567  -13.8727  -18.6680 C   0  0  0  0  0  0  0  0  0  0  0  0
   23.6393  -14.6135  -19.9728 C   0  0  0  0  0  0  0  0  0  0  0  0
   23.6936  -16.0703  -19.7566 C   0  0  0  0  0  0  0  0  0  0  0  0
   24.4751  -16.7797  -20.4373 O   0  0  0  0  0  0  0  0  0  0  0  0
   23.7614  -11.5847  -17.6994 C   0  0  0  0  0  0  0  0  0  0  0  0
   22.9387  -11.8239  -16.7773 O   0  0  0  0  0  0  0  0  0  0  0  0
   22.8965  -16.6825  -18.8116 O   0  0  0  0  0  0  0  0  0  0  0  0
   24.6604  -10.5039  -17.4498 N   0  0  0  0  0  0  0  0  0  0  0  0
   24.6733   -9.7392  -16.2194 C   0  0  1  0  0  0  0  0  0  0  0  0
   26.0743   -9.5184  -15.7205 C   0  0  0  0  0  0  0  0  0  0  0  0
   26.9138  -10.6957  -15.6362 C   0  0  0  0  0  0  0  0  0  0  0  0
   26.6770  -11.7054  -14.7335 C   0  0  0  0  0  0  0  0  0  0  0  0
   27.4848  -12.8367  -14.6606 C   0  0  0  0  0  0  0  0  0  0  0  0
   28.5544  -12.9233  -15.5366 C   0  0  0  0  0  0  0  0  0  0  0  0
   28.8210  -11.9284  -16.4551 C   0  0  0  0  0  0  0  0  0  0  0  0
   27.9965  -10.8236  -16.4951 C   0  0  0  0  0  0  0  0  0  0  0  0
   23.8887   -8.4890  -16.3395 C   0  0  0  0  0  0  0  0  0  0  0  0
   24.0910   -7.6533  -17.2544 O   0  0  0  0  0  0  0  0  0  0  0  0
   15.9165   -6.4049  -18.2595 N   0  0  0  0  0  0  0  0  0  0  0  0
   16.5154   -5.1731  -17.9224 C   0  0  0  0  0  0  0  0  0  0  0  0
   15.9333   -4.0670  -18.1721 N   0  0  0  0  0  0  0  0  0  0  0  0
   17.7933   -5.1348  -17.2910 N   0  0  0  0  0  0  0  0  0  0  0  0
   18.5457   -6.3144  -16.9857 C   0  0  0  0  0  0  0  0  0  0  0  0
   19.8939   -5.9915  -16.3655 C   0  0  0  0  0  0  0  0  0  0  0  0
   20.7119   -7.2436  -16.2057 C   0  0  0  0  0  0  0  0  0  0  0  0
   22.0499   -6.9762  -15.5557 C   0  0  2  0  0  0  0  0  0  0  0  0
   22.8446   -8.1565  -15.4134 N   0  0  0  0  0  0  0  0  0  0  0  0
   21.8648   -6.2300  -14.3079 C   0  0  0  0  0  0  0  0  0  0  0  0
   21.8380   -6.8793  -13.2107 O   0  0  0  0  0  0  0  0  0  0  0  0
   21.7161   -4.8719  -14.2242 O   0  0  0  0  0  0  0  0  0  0  0  0
  2  1  1  6
  2  7  1  0
  2  3  1  0
  3  4  1  0
  4  5  1  0
  5  9  1  0
  6  5  2  0
  7  8  2  0
  7 10  1  0
 10 11  1  0
 11 12  1  6
 12 13  1  0
 13 18  2  0
 13 14  1  0
 14 15  2  0
 15 16  1  0
 17 16  2  0
 18 17  1  0
 19 29  1  0
 19 11  1  0
 20 19  2  0
 22 21  1  0
 22 24  1  0
 23 22  2  0
 24 25  1  0
 25 26  1  0
 26 27  1  0
 28 27  1  1
 28 29  1  0
 28 30  1  0
 30 32  1  0
 31 30  2  0
M  END
$$$$
