EFR.pdb
     RDKit          3D

 32 32  0  0  1  0  0  0  0  0999 V2000
   27.8041  -21.6244  -14.5211 N   0  0  0  0  0  0  0  0  0  0  0  0
   28.3576  -20.7873  -13.5016 C   0  0  1  0  0  0  0  0  0  0  0  0
   28.2248  -19.3541  -13.9482 C   0  0  0  0  0  0  0  0  0  0  0  0
   27.5531  -19.3250  -15.3071 C   0  0  0  0  0  0  0  0  0  0  0  0
   28.5596  -19.3563  -16.3832 C   0  0  0  0  0  0  0  0  0  0  0  0
   28.2053  -19.2271  -17.5813 O   0  0  0  0  0  0  0  0  0  0  0  0
   27.8100  -21.0321  -12.1610 C   0  0  0  0  0  0  0  0  0  0  0  0
   26.7336  -21.6692  -12.0206 O   0  0  0  0  0  0  0  0  0  0  0  0
   29.8998  -19.5259  -16.1033 O   0  0  0  0  0  0  0  0  0  0  0  0
   28.4201  -20.5904  -10.9480 N   0  0  0  0  0  0  0  0  0  0  0  0
   27.8644  -20.8397   -9.6335 C   0  0  1  0  0  0  0  0  0  0  0  0
   28.8253  -20.4511   -8.5444 C   0  0  0  0  0  0  0  0  0  0  0  0
   28.3017  -20.4743   -7.1942 C   0  0  0  0  0  0  0  0  0  0  0  0
   28.4039  -21.5805   -6.3841 C   0  0  0  0  0  0  0  0  0  0  0  0
   27.9027  -21.5949   -5.0855 C   0  0  0  0  0  0  0  0  0  0  0  0
   27.2862  -20.4455   -4.6190 C   0  0  0  0  0  0  0  0  0  0  0  0
   27.1664  -19.3176   -5.4051 C   0  0  0  0  0  0  0  0  0  0  0  0
   27.6762  -19.3442   -6.6863 C   0  0  0  0  0  0  0  0  0  0  0  0
   26.5231  -20.2317   -9.4780 C   0  0  0  0  0  0  0  0  0  0  0  0
   26.3372  -18.9910   -9.5283 O   0  0  0  0  0  0  0  0  0  0  0  0
   18.5560  -21.5979  -12.0018 N   0  0  0  0  0  0  0  0  0  0  0  0
   19.6972  -22.4061  -12.1866 C   0  0  0  0  0  0  0  0  0  0  0  0
   19.5891  -23.6440  -12.4710 N   0  0  0  0  0  0  0  0  0  0  0  0
   21.0063  -21.8556  -12.0591 N   0  0  0  0  0  0  0  0  0  0  0  0
   21.2509  -20.4493  -11.9448 C   0  0  0  0  0  0  0  0  0  0  0  0
   21.9610  -20.0930  -10.6504 C   0  0  0  0  0  0  0  0  0  0  0  0
   23.3009  -20.7730  -10.5819 C   0  0  0  0  0  0  0  0  0  0  0  0
   24.0342  -20.4684   -9.2959 C   0  0  2  0  0  0  0  0  0  0  0  0
   25.3497  -21.0279   -9.2602 N   0  0  0  0  0  0  0  0  0  0  0  0
   23.2033  -20.8287   -8.1435 C   0  0  0  0  0  0  0  0  0  0  0  0
   23.6258  -21.7330   -7.3498 O   0  0  0  0  0  0  0  0  0  0  0  0
   21.9924  -20.2643   -7.8462 O   0  0  0  0  0  0  0  0  0  0  0  0
  2  1  1  6
  2  7  1  0
  2  3  1  0
  3  4  1  0
  4  5  1  0
  5  9  1  0
  6  5  2  0
  7  8  2  0
  7 10  1  0
 10 11  1  0
 11 12  1  1
 12 13  1  0
 13 18  2  0
 13 14  1  0
 14 15  2  0
 15 16  1  0
 17 16  2  0
 18 17  1  0
 19 29  1  0
 19 11  1  0
 20 19  2  0
 22 21  1  0
 22 24  1  0
 23 22  2  0
 24 25  1  0
 25 26  1  0
 26 27  1  0
 28 27  1  6
 28 29  1  0
 28 30  1  0
 30 32  1  0
 31 30  2  0
M  END
$$$$
