EFR.pdb
     RDKit          3D

 32 32  0  0  1  0  0  0  0  0999 V2000
   27.9405  -21.8009  -17.2255 N   0  0  0  0  0  0  0  0  0  0  0  0
   28.2338  -20.9126  -16.1432 C   0  0  1  0  0  0  0  0  0  0  0  0
   28.1566  -19.4998  -16.6621 C   0  0  0  0  0  0  0  0  0  0  0  0
   26.7155  -19.1850  -17.0124 C   0  0  0  0  0  0  0  0  0  0  0  0
   26.5624  -19.0109  -18.4679 C   0  0  0  0  0  0  0  0  0  0  0  0
   26.8729  -19.9432  -19.2501 O   0  0  0  0  0  0  0  0  0  0  0  0
   27.4168  -21.1373  -14.9438 C   0  0  0  0  0  0  0  0  0  0  0  0
   26.3069  -21.7246  -15.0315 O   0  0  0  0  0  0  0  0  0  0  0  0
   26.0793  -17.8332  -18.9998 O   0  0  0  0  0  0  0  0  0  0  0  0
   27.7887  -20.7295  -13.6269 N   0  0  0  0  0  0  0  0  0  0  0  0
   26.9630  -20.9470  -12.4566 C   0  0  1  0  0  0  0  0  0  0  0  0
   27.6092  -20.3989  -11.2146 C   0  0  0  0  0  0  0  0  0  0  0  0
   26.7826  -20.3700  -10.0256 C   0  0  0  0  0  0  0  0  0  0  0  0
   26.3305  -21.5163   -9.4156 C   0  0  0  0  0  0  0  0  0  0  0  0
   25.5402  -21.4821   -8.2702 C   0  0  0  0  0  0  0  0  0  0  0  0
   25.2133  -20.2411   -7.7487 C   0  0  0  0  0  0  0  0  0  0  0  0
   25.6498  -19.0708   -8.3356 C   0  0  0  0  0  0  0  0  0  0  0  0
   26.4310  -19.1480   -9.4695 C   0  0  0  0  0  0  0  0  0  0  0  0
   25.5787  -20.4625  -12.6613 C   0  0  0  0  0  0  0  0  0  0  0  0
   25.3259  -19.3540  -13.1939 O   0  0  0  0  0  0  0  0  0  0  0  0
   21.3391  -25.1658  -15.2041 N   0  0  0  0  0  0  0  0  0  0  0  0
   20.2617  -24.8677  -14.3438 C   0  0  0  0  0  0  0  0  0  0  0  0
   19.6920  -25.7804  -13.6603 N   0  0  0  0  0  0  0  0  0  0  0  0
   19.7810  -23.5313  -14.2170 N   0  0  0  0  0  0  0  0  0  0  0  0
   20.4098  -22.4147  -14.8560 C   0  0  0  0  0  0  0  0  0  0  0  0
   21.0146  -21.4456  -13.8550 C   0  0  0  0  0  0  0  0  0  0  0  0
   22.4296  -21.8399  -13.5314 C   0  0  0  0  0  0  0  0  0  0  0  0
   23.1031  -20.8530  -12.6058 C   0  0  2  0  0  0  0  0  0  0  0  0
   24.4376  -21.2349  -12.2619 N   0  0  0  0  0  0  0  0  0  0  0  0
   22.2459  -20.5801  -11.4487 C   0  0  0  0  0  0  0  0  0  0  0  0
   22.6543  -20.9343  -10.2938 O   0  0  0  0  0  0  0  0  0  0  0  0
   21.0240  -19.9663  -11.5089 O   0  0  0  0  0  0  0  0  0  0  0  0
  2  1  1  6
  2  7  1  0
  2  3  1  0
  3  4  1  0
  4  5  1  0
  5  9  1  0
  6  5  2  0
  7  8  2  0
  7 10  1  0
 10 11  1  0
 11 12  1  1
 12 13  1  0
 13 18  2  0
 13 14  1  0
 14 15  2  0
 15 16  1  0
 17 16  2  0
 18 17  1  0
 19 29  1  0
 19 11  1  0
 20 19  2  0
 22 21  1  0
 22 24  1  0
 23 22  2  0
 24 25  1  0
 25 26  1  0
 26 27  1  0
 28 27  1  1
 28 29  1  0
 28 30  1  0
 30 32  1  0
 31 30  2  0
M  END
$$$$
