EFR.pdb
     RDKit          3D

 32 32  0  0  1  0  0  0  0  0999 V2000
   20.8031  -19.8069  -11.2188 N   0  0  0  0  0  0  0  0  0  0  0  0
   21.6746  -20.6109  -12.0191 C   0  0  1  0  0  0  0  0  0  0  0  0
   21.3256  -20.3822  -13.4673 C   0  0  0  0  0  0  0  0  0  0  0  0
   19.8512  -20.6731  -13.6673 C   0  0  0  0  0  0  0  0  0  0  0  0
   19.5603  -22.0906  -13.3876 C   0  0  0  0  0  0  0  0  0  0  0  0
   20.3787  -22.9807  -13.7274 O   0  0  0  0  0  0  0  0  0  0  0  0
   23.1017  -20.4223  -11.7278 C   0  0  0  0  0  0  0  0  0  0  0  0
   23.8153  -19.7091  -12.4804 O   0  0  0  0  0  0  0  0  0  0  0  0
   18.3955  -22.4692  -12.7527 O   0  0  0  0  0  0  0  0  0  0  0  0
   23.7809  -21.0036  -10.6145 N   0  0  0  0  0  0  0  0  0  0  0  0
   25.1820  -20.7784  -10.3229 C   0  0  1  0  0  0  0  0  0  0  0  0
   25.5724  -21.3691   -8.9966 C   0  0  0  0  0  0  0  0  0  0  0  0
   26.7771  -20.8386   -8.3924 C   0  0  0  0  0  0  0  0  0  0  0  0
   28.0195  -21.3761   -8.6333 C   0  0  0  0  0  0  0  0  0  0  0  0
   29.1743  -20.8587   -8.0533 C   0  0  0  0  0  0  0  0  0  0  0  0
   29.0398  -19.7674   -7.2106 C   0  0  0  0  0  0  0  0  0  0  0  0
   27.8083  -19.2032   -6.9468 C   0  0  0  0  0  0  0  0  0  0  0  0
   26.6885  -19.7457   -7.5415 C   0  0  0  0  0  0  0  0  0  0  0  0
   26.0535  -21.2124  -11.4387 C   0  0  0  0  0  0  0  0  0  0  0  0
   26.2061  -22.4212  -11.7420 O   0  0  0  0  0  0  0  0  0  0  0  0
   27.8142  -24.9532  -16.4654 N   0  0  0  0  0  0  0  0  0  0  0  0
   26.4804  -24.9262  -16.0072 C   0  0  0  0  0  0  0  0  0  0  0  0
   25.9324  -25.9653  -15.5123 N   0  0  0  0  0  0  0  0  0  0  0  0
   25.7083  -23.7301  -16.0870 N   0  0  0  0  0  0  0  0  0  0  0  0
   26.2279  -22.5025  -16.6099 C   0  0  0  0  0  0  0  0  0  0  0  0
   27.2100  -21.8424  -15.6578 C   0  0  0  0  0  0  0  0  0  0  0  0
   26.5163  -21.4349  -14.3869 C   0  0  0  0  0  0  0  0  0  0  0  0
   27.4228  -20.6545  -13.4630 C   0  0  2  0  0  0  0  0  0  0  0  0
   26.7790  -20.2729  -12.2444 N   0  0  0  0  0  0  0  0  0  0  0  0
   28.0390  -19.5377  -14.1850 C   0  0  0  0  0  0  0  0  0  0  0  0
   27.6137  -18.3578  -13.9549 O   0  0  0  0  0  0  0  0  0  0  0  0
   29.0494  -19.6612  -15.1000 O   0  0  0  0  0  0  0  0  0  0  0  0
  2  1  1  1
  2  7  1  0
  2  3  1  0
  3  4  1  0
  4  5  1  0
  5  9  1  0
  6  5  2  0
  7  8  2  0
  7 10  1  0
 10 11  1  0
 11 12  1  1
 12 13  1  0
 13 18  2  0
 13 14  1  0
 14 15  2  0
 15 16  1  0
 17 16  2  0
 18 17  1  0
 19 29  1  0
 19 11  1  0
 20 19  2  0
 22 21  1  0
 22 24  1  0
 23 22  2  0
 24 25  1  0
 25 26  1  0
 26 27  1  0
 28 27  1  6
 28 29  1  0
 28 30  1  0
 30 32  1  0
 31 30  2  0
M  END
$$$$
