EFR.pdb
     RDKit          3D

 32 32  0  0  1  0  0  0  0  0999 V2000
   27.8586  -17.5782  -19.2340 N   0  0  0  0  0  0  0  0  0  0  0  0
   26.7495  -17.4226  -18.3440 C   0  0  1  0  0  0  0  0  0  0  0  0
   25.4871  -17.4033  -19.1669 C   0  0  0  0  0  0  0  0  0  0  0  0
   25.2817  -16.0049  -19.7155 C   0  0  0  0  0  0  0  0  0  0  0  0
   23.8596  -15.6243  -19.6445 C   0  0  0  0  0  0  0  0  0  0  0  0
   23.3675  -15.2252  -18.5601 O   0  0  0  0  0  0  0  0  0  0  0  0
   26.7159  -18.4016  -17.2498 C   0  0  0  0  0  0  0  0  0  0  0  0
   26.7441  -19.6350  -17.4992 O   0  0  0  0  0  0  0  0  0  0  0  0
   23.0444  -15.6962  -20.7552 O   0  0  0  0  0  0  0  0  0  0  0  0
   26.6512  -18.0606  -15.8647 N   0  0  0  0  0  0  0  0  0  0  0  0
   26.5408  -19.0391  -14.8021 C   0  0  1  0  0  0  0  0  0  0  0  0
   27.1789  -18.5498  -13.5317 C   0  0  0  0  0  0  0  0  0  0  0  0
   27.0998  -19.4425  -12.3939 C   0  0  0  0  0  0  0  0  0  0  0  0
   27.9799  -20.4831  -12.2123 C   0  0  0  0  0  0  0  0  0  0  0  0
   27.9017  -21.3348  -11.1141 C   0  0  0  0  0  0  0  0  0  0  0  0
   26.8960  -21.1048  -10.1896 C   0  0  0  0  0  0  0  0  0  0  0  0
   25.9958  -20.0698  -10.3408 C   0  0  0  0  0  0  0  0  0  0  0  0
   26.1075  -19.2485  -11.4431 C   0  0  0  0  0  0  0  0  0  0  0  0
   25.1449  -19.4986  -14.6193 C   0  0  0  0  0  0  0  0  0  0  0  0
   24.1703  -18.7070  -14.6227 O   0  0  0  0  0  0  0  0  0  0  0  0
   20.9823  -26.8471  -12.2784 N   0  0  0  0  0  0  0  0  0  0  0  0
   19.9919  -26.0201  -12.8483 C   0  0  0  0  0  0  0  0  0  0  0  0
   18.7522  -26.2622  -12.6762 N   0  0  0  0  0  0  0  0  0  0  0  0
   20.3547  -24.8875  -13.6348 N   0  0  0  0  0  0  0  0  0  0  0  0
   21.6986  -24.4015  -13.7250 C   0  0  0  0  0  0  0  0  0  0  0  0
   21.8018  -23.1530  -14.5837 C   0  0  0  0  0  0  0  0  0  0  0  0
   23.2384  -22.7310  -14.7265 C   0  0  0  0  0  0  0  0  0  0  0  0
   23.4774  -21.3273  -14.2199 C   0  0  2  0  0  0  0  0  0  0  0  0
   24.8208  -20.8828  -14.4270 N   0  0  0  0  0  0  0  0  0  0  0  0
   23.0179  -21.2058  -12.8335 C   0  0  0  0  0  0  0  0  0  0  0  0
   23.7329  -21.7178  -11.9100 O   0  0  0  0  0  0  0  0  0  0  0  0
   21.8658  -20.5776  -12.4443 O   0  0  0  0  0  0  0  0  0  0  0  0
  2  1  1  6
  2  7  1  0
  2  3  1  0
  3  4  1  0
  4  5  1  0
  5  9  1  0
  6  5  2  0
  7  8  2  0
  7 10  1  0
 10 11  1  0
 11 12  1  1
 12 13  1  0
 13 18  2  0
 13 14  1  0
 14 15  2  0
 15 16  1  0
 17 16  2  0
 18 17  1  0
 19 29  1  0
 19 11  1  0
 20 19  2  0
 22 21  1  0
 22 24  1  0
 23 22  2  0
 24 25  1  0
 25 26  1  0
 26 27  1  0
 28 27  1  1
 28 29  1  0
 28 30  1  0
 30 32  1  0
 31 30  2  0
M  END
$$$$
