DWS.pdb
     RDKit          3D

 29 30  0  0  1  0  0  0  0  0999 V2000
   10.2446  -17.6500   21.3789 N   0  0  0  0  0  0  0  0  0  0  0  0
   11.4729  -17.0932   21.8886 C   0  0  1  0  0  0  0  0  0  0  0  0
   11.9490  -16.0204   20.9356 C   0  0  0  0  0  0  0  0  0  0  0  0
   12.5187  -16.6044   19.7085 C   0  0  0  0  0  0  0  0  0  0  0  0
   12.6016  -17.8570   19.4984 O   0  0  0  0  0  0  0  0  0  0  0  0
   11.2491  -16.5692   23.2484 C   0  0  0  0  0  0  0  0  0  0  0  0
   12.1240  -15.8807   23.8062 O   0  0  0  0  0  0  0  0  0  0  0  0
   13.0013  -15.7916   18.7041 O   0  0  0  0  0  0  0  0  0  0  0  0
   10.0408  -16.8463   23.9237 N   0  0  0  0  0  0  0  0  0  0  0  0
    9.7324  -16.4034   25.2496 C   0  0  1  0  0  0  0  0  0  0  0  0
    8.2564  -16.3740   25.5777 C   0  0  0  0  0  0  0  0  0  0  0  0
    7.5752  -15.2096   24.9762 C   0  0  0  0  0  0  0  0  0  0  0  0
    7.0678  -15.1696   23.6757 C   0  0  0  0  0  0  0  0  0  0  0  0
    6.4974  -13.9674   23.4806 N   0  0  0  0  0  0  0  0  0  0  0  0
    6.6027  -13.2153   24.5819 C   0  0  0  0  0  0  0  0  0  0  0  0
    6.2021  -11.9420   24.8990 C   0  0  0  0  0  0  0  0  0  0  0  0
    6.4697  -11.4277   26.1526 C   0  0  0  0  0  0  0  0  0  0  0  0
    7.1358  -12.1670   27.1036 C   0  0  0  0  0  0  0  0  0  0  0  0
    7.5350  -13.4467   26.7761 C   0  0  0  0  0  0  0  0  0  0  0  0
    7.2700  -13.9686   25.5240 C   0  0  0  0  0  0  0  0  0  0  0  0
   10.4764  -17.1560   26.2894 C   0  0  0  0  0  0  0  0  0  0  0  0
   10.7314  -18.3832   26.1469 O   0  0  0  0  0  0  0  0  0  0  0  0
   10.8324  -15.4130   29.9301 O   0  0  0  0  0  0  0  0  0  0  0  0
   11.9484  -16.2173   29.6711 C   0  0  0  0  0  0  0  0  0  0  0  0
   11.5113  -17.1951   28.5731 C   0  0  2  0  0  0  0  0  0  0  0  0
   10.9143  -16.5020   27.4649 N   0  0  0  0  0  0  0  0  0  0  0  0
   10.6508  -18.2385   29.1495 C   0  0  0  0  0  0  0  0  0  0  0  0
   11.1356  -19.0483   30.1661 O   0  0  0  0  0  0  0  0  0  0  0  0
    9.4933  -18.3764   28.7098 O   0  0  0  0  0  0  0  0  0  0  0  0
  2  1  1  6
  2  6  1  0
  3  2  1  0
  3  4  1  0
  4  8  1  0
  4  5  2  0
  6  7  2  0
  9 10  1  0
  9  6  1  0
 10 11  1  1
 12 11  1  0
 13 12  2  0
 14 13  1  0
 15 14  1  0
 15 20  2  0
 16 17  2  0
 16 15  1  0
 17 18  1  0
 18 19  2  0
 20 19  1  0
 20 12  1  0
 21 10  1  0
 21 22  2  0
 23 24  1  0
 25 24  1  1
 25 26  1  0
 25 27  1  0
 26 21  1  0
 27 29  2  0
 27 28  1  0
M  END
$$$$
