DWS.pdb
     RDKit          3D

 29 30  0  0  1  0  0  0  0  0999 V2000
    7.6160  -16.1830   21.4656 N   0  0  0  0  0  0  0  0  0  0  0  0
    9.0260  -16.4487   21.6064 C   0  0  1  0  0  0  0  0  0  0  0  0
    9.7588  -15.7879   20.4609 C   0  0  0  0  0  0  0  0  0  0  0  0
    9.4388  -16.4314   19.1744 C   0  0  0  0  0  0  0  0  0  0  0  0
    8.5378  -17.3198   19.0372 O   0  0  0  0  0  0  0  0  0  0  0  0
    9.4903  -15.9610   22.9181 C   0  0  0  0  0  0  0  0  0  0  0  0
   10.2036  -14.9430   22.9912 O   0  0  0  0  0  0  0  0  0  0  0  0
   10.1247  -16.0865   18.0285 O   0  0  0  0  0  0  0  0  0  0  0  0
    9.1274  -16.6472   24.0972 N   0  0  0  0  0  0  0  0  0  0  0  0
    9.8873  -16.6335   25.3103 C   0  0  1  0  0  0  0  0  0  0  0  0
    9.2861  -15.8031   26.4221 C   0  0  0  0  0  0  0  0  0  0  0  0
    8.0266  -15.1502   26.0110 C   0  0  0  0  0  0  0  0  0  0  0  0
    6.9151  -15.8202   25.4951 C   0  0  0  0  0  0  0  0  0  0  0  0
    5.9489  -14.9159   25.2561 N   0  0  0  0  0  0  0  0  0  0  0  0
    6.3650  -13.6882   25.5864 C   0  0  0  0  0  0  0  0  0  0  0  0
    5.7830  -12.4469   25.5349 C   0  0  0  0  0  0  0  0  0  0  0  0
    6.4900  -11.3365   25.9528 C   0  0  0  0  0  0  0  0  0  0  0  0
    7.7787  -11.4430   26.4249 C   0  0  0  0  0  0  0  0  0  0  0  0
    8.3563  -12.6953   26.4733 C   0  0  0  0  0  0  0  0  0  0  0  0
    7.6546  -13.8112   26.0576 C   0  0  0  0  0  0  0  0  0  0  0  0
   10.2041  -17.9978   25.7998 C   0  0  0  0  0  0  0  0  0  0  0  0
    9.3666  -18.9357   25.6995 O   0  0  0  0  0  0  0  0  0  0  0  0
   14.0608  -18.9939   26.5894 O   0  0  0  0  0  0  0  0  0  0  0  0
   13.1562  -20.0408   26.3771 C   0  0  0  0  0  0  0  0  0  0  0  0
   11.8137  -19.5506   26.9337 C   0  0  2  0  0  0  0  0  0  0  0  0
   11.4609  -18.2679   26.3904 N   0  0  0  0  0  0  0  0  0  0  0  0
   11.8430  -19.5814   28.4033 C   0  0  0  0  0  0  0  0  0  0  0  0
   12.1452  -20.7641   29.0623 O   0  0  0  0  0  0  0  0  0  0  0  0
   11.5937  -18.5360   29.0334 O   0  0  0  0  0  0  0  0  0  0  0  0
  2  1  1  6
  2  6  1  0
  3  2  1  0
  3  4  1  0
  4  8  1  0
  4  5  2  0
  6  7  2  0
  9 10  1  0
  9  6  1  0
 10 11  1  1
 12 11  1  0
 13 12  2  0
 14 13  1  0
 15 14  1  0
 15 20  2  0
 16 17  2  0
 16 15  1  0
 17 18  1  0
 18 19  2  0
 20 19  1  0
 20 12  1  0
 21 10  1  0
 21 22  2  0
 23 24  1  0
 25 24  1  6
 25 26  1  0
 25 27  1  0
 26 21  1  0
 27 29  2  0
 27 28  1  0
M  END
$$$$
