DWS.pdb
     RDKit          3D

 29 30  0  0  1  0  0  0  0  0999 V2000
    8.3545  -17.3579   21.3392 N   0  0  0  0  0  0  0  0  0  0  0  0
    9.5265  -16.5446   21.1307 C   0  0  1  0  0  0  0  0  0  0  0  0
    9.1537  -15.3786   20.2434 C   0  0  0  0  0  0  0  0  0  0  0  0
    8.8413  -15.8228   18.8734 C   0  0  0  0  0  0  0  0  0  0  0  0
    7.7578  -15.5354   18.2707 O   0  0  0  0  0  0  0  0  0  0  0  0
   10.0581  -16.1039   22.4334 C   0  0  0  0  0  0  0  0  0  0  0  0
   10.9848  -15.2736   22.4833 O   0  0  0  0  0  0  0  0  0  0  0  0
    9.7393  -16.5933   18.1647 O   0  0  0  0  0  0  0  0  0  0  0  0
    9.5178  -16.6220   23.6302 N   0  0  0  0  0  0  0  0  0  0  0  0
   10.0745  -16.4072   24.9314 C   0  0  1  0  0  0  0  0  0  0  0  0
    9.0792  -16.4985   26.0664 C   0  0  0  0  0  0  0  0  0  0  0  0
    7.8918  -15.6509   25.8355 C   0  0  0  0  0  0  0  0  0  0  0  0
    6.6637  -16.1154   25.3594 C   0  0  0  0  0  0  0  0  0  0  0  0
    5.8131  -15.0755   25.2970 N   0  0  0  0  0  0  0  0  0  0  0  0
    6.4155  -13.9532   25.7058 C   0  0  0  0  0  0  0  0  0  0  0  0
    6.0044  -12.6499   25.8273 C   0  0  0  0  0  0  0  0  0  0  0  0
    6.8849  -11.6896   26.2854 C   0  0  0  0  0  0  0  0  0  0  0  0
    8.1797  -12.0086   26.6270 C   0  0  0  0  0  0  0  0  0  0  0  0
    8.5847  -13.3218   26.5017 C   0  0  0  0  0  0  0  0  0  0  0  0
    7.7089  -14.2886   26.0449 C   0  0  0  0  0  0  0  0  0  0  0  0
   11.2450  -17.2778   25.2014 C   0  0  0  0  0  0  0  0  0  0  0  0
   11.0967  -18.4983   25.4837 O   0  0  0  0  0  0  0  0  0  0  0  0
   15.0439  -15.6005   25.2689 O   0  0  0  0  0  0  0  0  0  0  0  0
   14.9691  -16.8920   24.7342 C   0  0  0  0  0  0  0  0  0  0  0  0
   13.7332  -17.5369   25.3740 C   0  0  2  0  0  0  0  0  0  0  0  0
   12.5551  -16.7467   25.1449 N   0  0  0  0  0  0  0  0  0  0  0  0
   13.9936  -17.8101   26.7949 C   0  0  0  0  0  0  0  0  0  0  0  0
   13.1152  -17.3395   27.7599 O   0  0  0  0  0  0  0  0  0  0  0  0
   15.0067  -18.4645   27.1073 O   0  0  0  0  0  0  0  0  0  0  0  0
  2  1  1  1
  2  6  1  0
  3  2  1  0
  3  4  1  0
  4  8  1  0
  4  5  2  0
  6  7  2  0
  9 10  1  0
  9  6  1  0
 10 11  1  1
 12 11  1  0
 13 12  2  0
 14 13  1  0
 15 14  1  0
 15 20  2  0
 16 17  2  0
 16 15  1  0
 17 18  1  0
 18 19  2  0
 20 19  1  0
 20 12  1  0
 21 10  1  0
 21 22  2  0
 23 24  1  0
 25 24  1  1
 25 26  1  0
 25 27  1  0
 26 21  1  0
 27 29  2  0
 27 28  1  0
M  END
$$$$
