DWS.pdb
     RDKit          3D

 29 30  0  0  1  0  0  0  0  0999 V2000
    7.9108  -17.4383   21.1573 N   0  0  0  0  0  0  0  0  0  0  0  0
    9.0441  -16.6053   20.8407 C   0  0  1  0  0  0  0  0  0  0  0  0
    8.5714  -15.4504   19.9871 C   0  0  0  0  0  0  0  0  0  0  0  0
    8.3941  -15.8570   18.5817 C   0  0  0  0  0  0  0  0  0  0  0  0
    8.5703  -17.0470   18.1662 O   0  0  0  0  0  0  0  0  0  0  0  0
    9.6835  -16.1488   22.0884 C   0  0  0  0  0  0  0  0  0  0  0  0
   10.6242  -15.3339   22.0485 O   0  0  0  0  0  0  0  0  0  0  0  0
    8.0176  -14.9349   17.6276 O   0  0  0  0  0  0  0  0  0  0  0  0
    9.2308  -16.6343   23.3343 N   0  0  0  0  0  0  0  0  0  0  0  0
    9.8916  -16.4042   24.5832 C   0  0  1  0  0  0  0  0  0  0  0  0
    8.9924  -16.4831   25.7967 C   0  0  0  0  0  0  0  0  0  0  0  0
    7.8055  -15.6134   25.6678 C   0  0  0  0  0  0  0  0  0  0  0  0
    6.5431  -16.0467   25.2565 C   0  0  0  0  0  0  0  0  0  0  0  0
    5.7058  -14.9946   25.2803 N   0  0  0  0  0  0  0  0  0  0  0  0
    6.3493  -13.8936   25.6844 C   0  0  0  0  0  0  0  0  0  0  0  0
    5.9661  -12.5896   25.8719 C   0  0  0  0  0  0  0  0  0  0  0  0
    6.8879  -11.6557   26.3025 C   0  0  0  0  0  0  0  0  0  0  0  0
    8.1967  -12.0020   26.5513 C   0  0  0  0  0  0  0  0  0  0  0  0
    8.5735  -13.3157   26.3601 C   0  0  0  0  0  0  0  0  0  0  0  0
    7.6564  -14.2562   25.9302 C   0  0  0  0  0  0  0  0  0  0  0  0
   11.0816  -17.2710   24.7666 C   0  0  0  0  0  0  0  0  0  0  0  0
   10.9631  -18.5207   24.8919 O   0  0  0  0  0  0  0  0  0  0  0  0
   14.8809  -15.5449   24.8969 O   0  0  0  0  0  0  0  0  0  0  0  0
   14.7732  -16.8008   24.2882 C   0  0  0  0  0  0  0  0  0  0  0  0
   13.5729  -17.4850   24.9545 C   0  0  2  0  0  0  0  0  0  0  0  0
   12.3768  -16.7032   24.8033 N   0  0  0  0  0  0  0  0  0  0  0  0
   13.8957  -17.8059   26.3524 C   0  0  0  0  0  0  0  0  0  0  0  0
   14.9854  -18.6147   26.6403 O   0  0  0  0  0  0  0  0  0  0  0  0
   13.1783  -17.3414   27.2588 O   0  0  0  0  0  0  0  0  0  0  0  0
  2  1  1  1
  2  6  1  0
  3  2  1  0
  3  4  1  0
  4  8  1  0
  4  5  2  0
  6  7  2  0
  9 10  1  0
  9  6  1  0
 10 11  1  1
 12 11  1  0
 13 12  2  0
 14 13  1  0
 15 14  1  0
 15 20  2  0
 16 17  2  0
 16 15  1  0
 17 18  1  0
 18 19  2  0
 20 19  1  0
 20 12  1  0
 21 10  1  0
 21 22  2  0
 23 24  1  0
 25 24  1  1
 25 26  1  0
 25 27  1  0
 26 21  1  0
 27 29  2  0
 27 28  1  0
M  END
$$$$
