DWS.pdb
     RDKit          3D

 29 30  0  0  1  0  0  0  0  0999 V2000
    9.4236  -17.4169   20.7725 N   0  0  0  0  0  0  0  0  0  0  0  0
   10.6777  -17.5287   21.4749 C   0  0  1  0  0  0  0  0  0  0  0  0
   11.7194  -16.7201   20.7353 C   0  0  0  0  0  0  0  0  0  0  0  0
   11.8699  -17.1804   19.3435 C   0  0  0  0  0  0  0  0  0  0  0  0
   11.4510  -18.3075   18.9261 O   0  0  0  0  0  0  0  0  0  0  0  0
   10.5052  -17.0727   22.8663 C   0  0  0  0  0  0  0  0  0  0  0  0
   11.4021  -16.4145   23.4256 O   0  0  0  0  0  0  0  0  0  0  0  0
   12.4911  -16.3831   18.4050 O   0  0  0  0  0  0  0  0  0  0  0  0
    9.3210  -17.3808   23.5704 N   0  0  0  0  0  0  0  0  0  0  0  0
    9.0756  -17.0321   24.9369 C   0  0  1  0  0  0  0  0  0  0  0  0
    7.6535  -16.6131   25.2356 C   0  0  0  0  0  0  0  0  0  0  0  0
    7.3695  -15.2385   24.7756 C   0  0  0  0  0  0  0  0  0  0  0  0
    7.1415  -14.8761   23.4462 C   0  0  0  0  0  0  0  0  0  0  0  0
    6.8939  -13.5549   23.4041 N   0  0  0  0  0  0  0  0  0  0  0  0
    6.9473  -13.0295   24.6332 C   0  0  0  0  0  0  0  0  0  0  0  0
    6.7798  -11.7605   25.1271 C   0  0  0  0  0  0  0  0  0  0  0  0
    6.9077  -11.5260   26.4821 C   0  0  0  0  0  0  0  0  0  0  0  0
    7.2027  -12.5435   27.3610 C   0  0  0  0  0  0  0  0  0  0  0  0
    7.3695  -13.8167   26.8557 C   0  0  0  0  0  0  0  0  0  0  0  0
    7.2421  -14.0592   25.5010 C   0  0  0  0  0  0  0  0  0  0  0  0
    9.5103  -18.0899   25.8820 C   0  0  0  0  0  0  0  0  0  0  0  0
    8.9664  -19.2281   25.8795 O   0  0  0  0  0  0  0  0  0  0  0  0
   13.2304  -18.2453   27.1275 O   0  0  0  0  0  0  0  0  0  0  0  0
   12.4064  -19.3661   27.2824 C   0  0  0  0  0  0  0  0  0  0  0  0
   11.0427  -18.8223   27.7268 C   0  0  2  0  0  0  0  0  0  0  0  0
   10.5502  -17.8346   26.8067 N   0  0  0  0  0  0  0  0  0  0  0  0
   11.1250  -18.3465   29.1154 C   0  0  0  0  0  0  0  0  0  0  0  0
   11.5143  -19.2189   30.1213 O   0  0  0  0  0  0  0  0  0  0  0  0
   10.8411  -17.1592   29.3638 O   0  0  0  0  0  0  0  0  0  0  0  0
  2  1  1  6
  2  6  1  0
  3  2  1  0
  3  4  1  0
  4  8  1  0
  4  5  2  0
  6  7  2  0
  9 10  1  0
  9  6  1  0
 10 11  1  6
 12 11  1  0
 13 12  2  0
 14 13  1  0
 15 14  1  0
 15 20  2  0
 16 17  2  0
 16 15  1  0
 17 18  1  0
 18 19  2  0
 20 19  1  0
 20 12  1  0
 21 10  1  0
 21 22  2  0
 23 24  1  0
 25 24  1  6
 25 26  1  0
 25 27  1  0
 26 21  1  0
 27 29  2  0
 27 28  1  0
M  END
$$$$
