DWS.pdb
     RDKit          3D

 29 30  0  0  1  0  0  0  0  0999 V2000
    6.8494  -15.6477   20.3580 N   0  0  0  0  0  0  0  0  0  0  0  0
    8.0486  -16.4280   20.5358 C   0  0  1  0  0  0  0  0  0  0  0  0
    8.8815  -16.3268   19.2781 C   0  0  0  0  0  0  0  0  0  0  0  0
    8.3187  -17.1486   18.1920 C   0  0  0  0  0  0  0  0  0  0  0  0
    7.2116  -17.7700   18.2815 O   0  0  0  0  0  0  0  0  0  0  0  0
    8.7768  -15.9480   21.7246 C   0  0  0  0  0  0  0  0  0  0  0  0
    9.3378  -14.8364   21.7089 O   0  0  0  0  0  0  0  0  0  0  0  0
    8.9901  -17.2827   16.9946 O   0  0  0  0  0  0  0  0  0  0  0  0
    8.8405  -16.7476   22.8862 N   0  0  0  0  0  0  0  0  0  0  0  0
    9.5890  -16.4147   24.0602 C   0  0  1  0  0  0  0  0  0  0  0  0
    8.8311  -16.5771   25.3588 C   0  0  0  0  0  0  0  0  0  0  0  0
    7.7198  -15.6117   25.4796 C   0  0  0  0  0  0  0  0  0  0  0  0
    6.3677  -15.9348   25.3457 C   0  0  0  0  0  0  0  0  0  0  0  0
    5.6442  -14.8181   25.5412 N   0  0  0  0  0  0  0  0  0  0  0  0
    6.4472  -13.7789   25.7957 C   0  0  0  0  0  0  0  0  0  0  0  0
    6.2212  -12.4506   26.0543 C   0  0  0  0  0  0  0  0  0  0  0  0
    7.2871  -11.6010   26.2767 C   0  0  0  0  0  0  0  0  0  0  0  0
    8.5857  -12.0564   26.2452 C   0  0  0  0  0  0  0  0  0  0  0  0
    8.8038  -13.3938   25.9845 C   0  0  0  0  0  0  0  0  0  0  0  0
    7.7421  -14.2504   25.7618 C   0  0  0  0  0  0  0  0  0  0  0  0
   10.8881  -17.1280   24.1291 C   0  0  0  0  0  0  0  0  0  0  0  0
   10.9486  -18.3366   24.4852 O   0  0  0  0  0  0  0  0  0  0  0  0
   14.5007  -15.1144   23.2698 O   0  0  0  0  0  0  0  0  0  0  0  0
   14.3378  -16.4291   22.8177 C   0  0  0  0  0  0  0  0  0  0  0  0
   13.3749  -17.0942   23.8092 C   0  0  2  0  0  0  0  0  0  0  0  0
   12.0872  -16.4567   23.7931 N   0  0  0  0  0  0  0  0  0  0  0  0
   13.9913  -17.1463   25.1429 C   0  0  0  0  0  0  0  0  0  0  0  0
   13.3152  -16.6239   26.2358 O   0  0  0  0  0  0  0  0  0  0  0  0
   15.1183  -17.6627   25.2666 O   0  0  0  0  0  0  0  0  0  0  0  0
  2  1  1  6
  2  6  1  0
  3  2  1  0
  3  4  1  0
  4  8  1  0
  4  5  2  0
  6  7  2  0
  9 10  1  0
  9  6  1  0
 10 11  1  1
 12 11  1  0
 13 12  2  0
 14 13  1  0
 15 14  1  0
 15 20  2  0
 16 17  2  0
 16 15  1  0
 17 18  1  0
 18 19  2  0
 20 19  1  0
 20 12  1  0
 21 10  1  0
 21 22  2  0
 23 24  1  0
 25 24  1  6
 25 26  1  0
 25 27  1  0
 26 21  1  0
 27 29  2  0
 27 28  1  0
M  END
$$$$
