DWS.pdb
     RDKit          3D

 29 30  0  0  1  0  0  0  0  0999 V2000
    8.8788  -17.6564   20.9569 N   0  0  0  0  0  0  0  0  0  0  0  0
   10.1717  -17.0650   21.1962 C   0  0  1  0  0  0  0  0  0  0  0  0
   10.3119  -15.8399   20.3213 C   0  0  0  0  0  0  0  0  0  0  0  0
   10.4496  -16.2059   18.9004 C   0  0  0  0  0  0  0  0  0  0  0  0
    9.7313  -17.0873   18.3284 O   0  0  0  0  0  0  0  0  0  0  0  0
   10.3085  -16.7434   22.6286 C   0  0  0  0  0  0  0  0  0  0  0  0
   11.2480  -16.0275   23.0229 O   0  0  0  0  0  0  0  0  0  0  0  0
   11.3929  -15.5886   18.1060 O   0  0  0  0  0  0  0  0  0  0  0  0
    9.3739  -17.2464   23.5593 N   0  0  0  0  0  0  0  0  0  0  0  0
    9.4553  -17.0541   24.9755 C   0  0  1  0  0  0  0  0  0  0  0  0
    8.1211  -16.8824   25.6667 C   0  0  0  0  0  0  0  0  0  0  0  0
    7.4281  -15.6493   25.2415 C   0  0  0  0  0  0  0  0  0  0  0  0
    6.5003  -15.5773   24.2001 C   0  0  0  0  0  0  0  0  0  0  0  0
    6.0596  -14.3097   24.1127 N   0  0  0  0  0  0  0  0  0  0  0  0
    6.6475  -13.5449   25.0395 C   0  0  0  0  0  0  0  0  0  0  0  0
    6.5558  -12.2153   25.3651 C   0  0  0  0  0  0  0  0  0  0  0  0
    7.3172  -11.7049   26.3982 C   0  0  0  0  0  0  0  0  0  0  0  0
    8.1763  -12.5038   27.1183 C   0  0  0  0  0  0  0  0  0  0  0  0
    8.2621  -13.8399   26.7840 C   0  0  0  0  0  0  0  0  0  0  0  0
    7.5027  -14.3581   25.7520 C   0  0  0  0  0  0  0  0  0  0  0  0
   10.2525  -18.1085   25.6490 C   0  0  0  0  0  0  0  0  0  0  0  0
   10.0235  -19.3311   25.4392 O   0  0  0  0  0  0  0  0  0  0  0  0
   14.1880  -19.2618   28.1154 O   0  0  0  0  0  0  0  0  0  0  0  0
   13.5092  -18.2144   27.4817 C   0  0  0  0  0  0  0  0  0  0  0  0
   12.0803  -18.7226   27.2522 C   0  0  2  0  0  0  0  0  0  0  0  0
   11.2900  -17.7542   26.5433 N   0  0  0  0  0  0  0  0  0  0  0  0
   11.4903  -19.1438   28.5312 C   0  0  0  0  0  0  0  0  0  0  0  0
   10.3156  -18.5550   28.9759 O   0  0  0  0  0  0  0  0  0  0  0  0
   12.0619  -20.0286   29.1965 O   0  0  0  0  0  0  0  0  0  0  0  0
  2  1  1  1
  2  6  1  0
  3  2  1  0
  3  4  1  0
  4  8  1  0
  4  5  2  0
  6  7  2  0
  9 10  1  0
  9  6  1  0
 10 11  1  1
 12 11  1  0
 13 12  2  0
 14 13  1  0
 15 14  1  0
 15 20  2  0
 16 17  2  0
 16 15  1  0
 17 18  1  0
 18 19  2  0
 20 19  1  0
 20 12  1  0
 21 10  1  0
 21 22  2  0
 23 24  1  0
 25 24  1  1
 25 26  1  0
 25 27  1  0
 26 21  1  0
 27 29  2  0
 27 28  1  0
M  END
$$$$
