DWS.pdb
     RDKit          3D

 29 30  0  0  1  0  0  0  0  0999 V2000
   10.4040  -17.5027   21.4915 N   0  0  0  0  0  0  0  0  0  0  0  0
   11.5638  -16.8419   22.0363 C   0  0  1  0  0  0  0  0  0  0  0  0
   11.9612  -15.7185   21.1058 C   0  0  0  0  0  0  0  0  0  0  0  0
   12.7912  -16.2101   19.9918 C   0  0  0  0  0  0  0  0  0  0  0  0
   13.1603  -17.4223   19.8713 O   0  0  0  0  0  0  0  0  0  0  0  0
   11.2612  -16.3570   23.3954 C   0  0  0  0  0  0  0  0  0  0  0  0
   12.0647  -15.6131   23.9884 O   0  0  0  0  0  0  0  0  0  0  0  0
   13.2161  -15.3494   19.0014 O   0  0  0  0  0  0  0  0  0  0  0  0
   10.0582  -16.7347   24.0300 N   0  0  0  0  0  0  0  0  0  0  0  0
    9.7036  -16.3832   25.3717 C   0  0  1  0  0  0  0  0  0  0  0  0
    8.2193  -16.4119   25.6602 C   0  0  0  0  0  0  0  0  0  0  0  0
    7.5162  -15.2509   25.0778 C   0  0  0  0  0  0  0  0  0  0  0  0
    6.9971  -15.2036   23.7822 C   0  0  0  0  0  0  0  0  0  0  0  0
    6.4075  -14.0078   23.6056 N   0  0  0  0  0  0  0  0  0  0  0  0
    6.5114  -13.2667   24.7144 C   0  0  0  0  0  0  0  0  0  0  0  0
    6.0952  -12.0030   25.0494 C   0  0  0  0  0  0  0  0  0  0  0  0
    6.3661  -11.4990   26.3064 C   0  0  0  0  0  0  0  0  0  0  0  0
    7.0510  -12.2392   27.2433 C   0  0  0  0  0  0  0  0  0  0  0  0
    7.4659  -13.5091   26.8979 C   0  0  0  0  0  0  0  0  0  0  0  0
    7.1977  -14.0207   25.6422 C   0  0  0  0  0  0  0  0  0  0  0  0
   10.4406  -17.1798   26.3833 C   0  0  0  0  0  0  0  0  0  0  0  0
   10.7084  -18.3963   26.1844 O   0  0  0  0  0  0  0  0  0  0  0  0
   10.6424  -15.7651   30.1752 O   0  0  0  0  0  0  0  0  0  0  0  0
   11.8445  -16.3956   29.8333 C   0  0  0  0  0  0  0  0  0  0  0  0
   11.5130  -17.3088   28.6464 C   0  0  2  0  0  0  0  0  0  0  0  0
   10.8573  -16.5806   27.5953 N   0  0  0  0  0  0  0  0  0  0  0  0
   10.7563  -18.4790   29.1148 C   0  0  0  0  0  0  0  0  0  0  0  0
   11.3360  -19.3590   30.0169 O   0  0  0  0  0  0  0  0  0  0  0  0
    9.5995  -18.6591   28.6887 O   0  0  0  0  0  0  0  0  0  0  0  0
  2  1  1  6
  2  6  1  0
  3  2  1  0
  3  4  1  0
  4  8  1  0
  4  5  2  0
  6  7  2  0
  9 10  1  0
  9  6  1  0
 10 11  1  6
 12 11  1  0
 13 12  2  0
 14 13  1  0
 15 14  1  0
 15 20  2  0
 16 17  2  0
 16 15  1  0
 17 18  1  0
 18 19  2  0
 20 19  1  0
 20 12  1  0
 21 10  1  0
 21 22  2  0
 23 24  1  0
 25 24  1  1
 25 26  1  0
 25 27  1  0
 26 21  1  0
 27 29  2  0
 27 28  1  0
M  END
$$$$
