DWS.pdb
     RDKit          3D

 29 30  0  0  1  0  0  0  0  0999 V2000
    8.6687  -17.3740   21.4681 N   0  0  0  0  0  0  0  0  0  0  0  0
    9.9051  -16.6349   21.4104 C   0  0  1  0  0  0  0  0  0  0  0  0
    9.7708  -15.5495   20.3665 C   0  0  0  0  0  0  0  0  0  0  0  0
    9.7377  -16.1128   19.0052 C   0  0  0  0  0  0  0  0  0  0  0  0
    9.1610  -17.2087   18.7113 O   0  0  0  0  0  0  0  0  0  0  0  0
   10.2145  -16.0879   22.7441 C   0  0  0  0  0  0  0  0  0  0  0  0
   11.0558  -15.1783   22.8684 O   0  0  0  0  0  0  0  0  0  0  0  0
   10.3501  -15.4545   17.9592 O   0  0  0  0  0  0  0  0  0  0  0  0
    9.5573  -16.5939   23.8864 N   0  0  0  0  0  0  0  0  0  0  0  0
    9.9629  -16.3388   25.2354 C   0  0  1  0  0  0  0  0  0  0  0  0
    8.8309  -16.2960   26.2373 C   0  0  0  0  0  0  0  0  0  0  0  0
    7.7118  -15.4488   25.7774 C   0  0  0  0  0  0  0  0  0  0  0  0
    6.5947  -15.9159   25.0814 C   0  0  0  0  0  0  0  0  0  0  0  0
    5.7750  -14.8753   24.8490 N   0  0  0  0  0  0  0  0  0  0  0  0
    6.2929  -13.7500   25.3540 C   0  0  0  0  0  0  0  0  0  0  0  0
    5.8707  -12.4449   25.3831 C   0  0  0  0  0  0  0  0  0  0  0  0
    6.6518  -11.4815   25.9908 C   0  0  0  0  0  0  0  0  0  0  0  0
    7.8571  -11.7993   26.5748 C   0  0  0  0  0  0  0  0  0  0  0  0
    8.2739  -13.1143   26.5410 C   0  0  0  0  0  0  0  0  0  0  0  0
    7.4973  -14.0842   25.9354 C   0  0  0  0  0  0  0  0  0  0  0  0
   11.0243  -17.2671   25.6966 C   0  0  0  0  0  0  0  0  0  0  0  0
   11.0723  -18.4577   25.2827 O   0  0  0  0  0  0  0  0  0  0  0  0
   11.2369  -17.6827   30.0466 O   0  0  0  0  0  0  0  0  0  0  0  0
   10.8902  -17.2826   28.7508 C   0  0  0  0  0  0  0  0  0  0  0  0
   12.1747  -17.4005   27.9208 C   0  0  2  0  0  0  0  0  0  0  0  0
   12.0061  -16.8257   26.6146 N   0  0  0  0  0  0  0  0  0  0  0  0
   12.6248  -18.7999   27.8963 C   0  0  0  0  0  0  0  0  0  0  0  0
   12.1128  -19.6724   26.9472 O   0  0  0  0  0  0  0  0  0  0  0  0
   13.4642  -19.1780   28.7357 O   0  0  0  0  0  0  0  0  0  0  0  0
  2  1  1  1
  2  6  1  0
  3  2  1  0
  3  4  1  0
  4  8  1  0
  4  5  2  0
  6  7  2  0
  9 10  1  0
  9  6  1  0
 10 11  1  1
 12 11  1  0
 13 12  2  0
 14 13  1  0
 15 14  1  0
 15 20  2  0
 16 17  2  0
 16 15  1  0
 17 18  1  0
 18 19  2  0
 20 19  1  0
 20 12  1  0
 21 10  1  0
 21 22  2  0
 23 24  1  0
 25 24  1  6
 25 26  1  0
 25 27  1  0
 26 21  1  0
 27 29  2  0
 27 28  1  0
M  END
$$$$
