DWS.pdb
     RDKit          3D

 29 30  0  0  1  0  0  0  0  0999 V2000
   10.5900  -16.2947   20.7470 N   0  0  0  0  0  0  0  0  0  0  0  0
   11.1907  -17.0375   21.8267 C   0  0  1  0  0  0  0  0  0  0  0  0
   12.6844  -17.0967   21.6000 C   0  0  0  0  0  0  0  0  0  0  0  0
   13.0125  -17.8251   20.3617 C   0  0  0  0  0  0  0  0  0  0  0  0
   13.3793  -17.2533   19.2854 O   0  0  0  0  0  0  0  0  0  0  0  0
   10.8486  -16.4014   23.1121 C   0  0  0  0  0  0  0  0  0  0  0  0
   11.3019  -15.2765   23.3946 O   0  0  0  0  0  0  0  0  0  0  0  0
   12.9333  -19.2014   20.3163 O   0  0  0  0  0  0  0  0  0  0  0  0
   10.0049  -17.0660   24.0282 N   0  0  0  0  0  0  0  0  0  0  0  0
    9.7094  -16.5954   25.3475 C   0  0  1  0  0  0  0  0  0  0  0  0
    8.2613  -16.7397   25.7592 C   0  0  0  0  0  0  0  0  0  0  0  0
    7.4245  -15.6345   25.2491 C   0  0  0  0  0  0  0  0  0  0  0  0
    6.5484  -15.7350   24.1662 C   0  0  0  0  0  0  0  0  0  0  0  0
    5.9395  -14.5470   24.0026 N   0  0  0  0  0  0  0  0  0  0  0  0
    6.3682  -13.6715   24.9187 C   0  0  0  0  0  0  0  0  0  0  0  0
    6.0755  -12.3568   25.1798 C   0  0  0  0  0  0  0  0  0  0  0  0
    6.7060  -11.7041   26.2209 C   0  0  0  0  0  0  0  0  0  0  0  0
    7.6317  -12.3449   27.0130 C   0  0  0  0  0  0  0  0  0  0  0  0
    7.9200  -13.6671   26.7433 C   0  0  0  0  0  0  0  0  0  0  0  0
    7.2924  -14.3272   25.7037 C   0  0  0  0  0  0  0  0  0  0  0  0
   10.5989  -17.1878   26.3765 C   0  0  0  0  0  0  0  0  0  0  0  0
   11.1303  -18.3188   26.2041 O   0  0  0  0  0  0  0  0  0  0  0  0
   10.5437  -15.4390   29.9842 O   0  0  0  0  0  0  0  0  0  0  0  0
   11.7973  -16.0336   29.7994 C   0  0  0  0  0  0  0  0  0  0  0  0
   11.6132  -17.0502   28.6657 C   0  0  2  0  0  0  0  0  0  0  0  0
   10.8663  -16.4860   27.5755 N   0  0  0  0  0  0  0  0  0  0  0  0
   11.0327  -18.2911   29.1993 C   0  0  0  0  0  0  0  0  0  0  0  0
   11.7088  -19.0029   30.1793 O   0  0  0  0  0  0  0  0  0  0  0  0
    9.9358  -18.6825   28.7570 O   0  0  0  0  0  0  0  0  0  0  0  0
  2  1  1  6
  2  6  1  0
  3  2  1  0
  3  4  1  0
  4  8  1  0
  4  5  2  0
  6  7  2  0
  9 10  1  0
  9  6  1  0
 10 11  1  1
 12 11  1  0
 13 12  2  0
 14 13  1  0
 15 14  1  0
 15 20  2  0
 16 17  2  0
 16 15  1  0
 17 18  1  0
 18 19  2  0
 20 19  1  0
 20 12  1  0
 21 10  1  0
 21 22  2  0
 23 24  1  0
 25 24  1  1
 25 26  1  0
 25 27  1  0
 26 21  1  0
 27 29  2  0
 27 28  1  0
M  END
$$$$
