DWS.pdb
     RDKit          3D

 29 30  0  0  1  0  0  0  0  0999 V2000
   11.1920  -15.8740   20.4181 N   0  0  0  0  0  0  0  0  0  0  0  0
   11.1703  -16.8968   21.4340 C   0  0  1  0  0  0  0  0  0  0  0  0
   12.4921  -17.6305   21.4091 C   0  0  0  0  0  0  0  0  0  0  0  0
   12.6801  -18.3581   20.1414 C   0  0  0  0  0  0  0  0  0  0  0  0
   11.8332  -18.3465   19.1914 O   0  0  0  0  0  0  0  0  0  0  0  0
   10.9011  -16.2814   22.7465 C   0  0  0  0  0  0  0  0  0  0  0  0
   11.4826  -15.2311   23.0770 O   0  0  0  0  0  0  0  0  0  0  0  0
   13.8186  -19.1059   19.9249 O   0  0  0  0  0  0  0  0  0  0  0  0
    9.9820  -16.8813   23.6343 N   0  0  0  0  0  0  0  0  0  0  0  0
    9.6587  -16.3732   24.9330 C   0  0  1  0  0  0  0  0  0  0  0  0
    8.1776  -16.2907   25.2275 C   0  0  0  0  0  0  0  0  0  0  0  0
    7.5793  -15.0362   24.7275 C   0  0  0  0  0  0  0  0  0  0  0  0
    7.1098  -14.8424   23.4266 C   0  0  0  0  0  0  0  0  0  0  0  0
    6.6134  -13.5957   23.3370 N   0  0  0  0  0  0  0  0  0  0  0  0
    6.7315  -12.9598   24.5080 C   0  0  0  0  0  0  0  0  0  0  0  0
    6.3950  -11.7014   24.9387 C   0  0  0  0  0  0  0  0  0  0  0  0
    6.6576  -11.3259   26.2415 C   0  0  0  0  0  0  0  0  0  0  0  0
    7.2555  -12.1905   27.1302 C   0  0  0  0  0  0  0  0  0  0  0  0
    7.5905  -13.4542   26.6887 C   0  0  0  0  0  0  0  0  0  0  0  0
    7.3300  -13.8375   25.3865 C   0  0  0  0  0  0  0  0  0  0  0  0
   10.3604  -17.0993   26.0200 C   0  0  0  0  0  0  0  0  0  0  0  0
   10.5914  -18.3363   25.9326 O   0  0  0  0  0  0  0  0  0  0  0  0
   10.6003  -15.4433   29.7449 O   0  0  0  0  0  0  0  0  0  0  0  0
   11.8096  -16.0453   29.3781 C   0  0  0  0  0  0  0  0  0  0  0  0
   11.4566  -17.0507   28.2748 C   0  0  2  0  0  0  0  0  0  0  0  0
   10.7843  -16.4081   27.1793 N   0  0  0  0  0  0  0  0  0  0  0  0
   10.7061  -18.1769   28.8491 C   0  0  0  0  0  0  0  0  0  0  0  0
   11.3079  -18.9971   29.7922 O   0  0  0  0  0  0  0  0  0  0  0  0
    9.5345  -18.3744   28.4743 O   0  0  0  0  0  0  0  0  0  0  0  0
  2  1  1  6
  2  6  1  0
  3  2  1  0
  3  4  1  0
  4  8  1  0
  4  5  2  0
  6  7  2  0
  9 10  1  0
  9  6  1  0
 10 11  1  1
 12 11  1  0
 13 12  2  0
 14 13  1  0
 15 14  1  0
 15 20  2  0
 16 17  2  0
 16 15  1  0
 17 18  1  0
 18 19  2  0
 20 19  1  0
 20 12  1  0
 21 10  1  0
 21 22  2  0
 23 24  1  0
 25 24  1  1
 25 26  1  0
 25 27  1  0
 26 21  1  0
 27 29  2  0
 27 28  1  0
M  END
$$$$
