DWS.pdb
     RDKit          3D

 29 30  0  0  1  0  0  0  0  0999 V2000
   11.3885  -16.6258   18.9272 N   0  0  0  0  0  0  0  0  0  0  0  0
   10.4805  -17.3974   19.7388 C   0  0  1  0  0  0  0  0  0  0  0  0
   11.0498  -18.7873   19.9123 C   0  0  0  0  0  0  0  0  0  0  0  0
   11.2372  -19.4583   18.6137 C   0  0  0  0  0  0  0  0  0  0  0  0
   10.2766  -19.7805   17.8434 O   0  0  0  0  0  0  0  0  0  0  0  0
   10.2741  -16.7163   21.0301 C   0  0  0  0  0  0  0  0  0  0  0  0
   11.2501  -16.2999   21.6817 O   0  0  0  0  0  0  0  0  0  0  0  0
   12.5022  -19.7752   18.1647 O   0  0  0  0  0  0  0  0  0  0  0  0
    8.9677  -16.5336   21.5330 N   0  0  0  0  0  0  0  0  0  0  0  0
    8.6639  -16.0239   22.8357 C   0  0  1  0  0  0  0  0  0  0  0  0
    7.2632  -15.4740   22.9872 C   0  0  0  0  0  0  0  0  0  0  0  0
    6.9967  -14.9989   24.3601 C   0  0  0  0  0  0  0  0  0  0  0  0
    6.4751  -15.7881   25.3874 C   0  0  0  0  0  0  0  0  0  0  0  0
    6.3900  -15.0350   26.4984 N   0  0  0  0  0  0  0  0  0  0  0  0
    6.8269  -13.7939   26.2568 C   0  0  0  0  0  0  0  0  0  0  0  0
    6.9427  -12.6654   27.0285 C   0  0  0  0  0  0  0  0  0  0  0  0
    7.4375  -11.5005   26.4756 C   0  0  0  0  0  0  0  0  0  0  0  0
    7.8218  -11.4404   25.1552 C   0  0  0  0  0  0  0  0  0  0  0  0
    7.7020  -12.5800   24.3865 C   0  0  0  0  0  0  0  0  0  0  0  0
    7.2086  -13.7498   24.9329 C   0  0  0  0  0  0  0  0  0  0  0  0
    8.9521  -17.0031   23.9123 C   0  0  0  0  0  0  0  0  0  0  0  0
    8.6035  -18.2106   23.8039 O   0  0  0  0  0  0  0  0  0  0  0  0
   12.4898  -18.6326   25.9770 O   0  0  0  0  0  0  0  0  0  0  0  0
   11.7916  -17.7472   25.1477 C   0  0  0  0  0  0  0  0  0  0  0  0
   10.4613  -17.4710   25.8595 C   0  0  2  0  0  0  0  0  0  0  0  0
    9.6281  -16.5927   25.0854 N   0  0  0  0  0  0  0  0  0  0  0  0
   10.7178  -16.9901   27.2249 C   0  0  0  0  0  0  0  0  0  0  0  0
   10.2348  -15.7518   27.6220 O   0  0  0  0  0  0  0  0  0  0  0  0
   11.3695  -17.7101   28.0053 O   0  0  0  0  0  0  0  0  0  0  0  0
  2  1  1  6
  2  6  1  0
  3  2  1  0
  3  4  1  0
  4  8  1  0
  4  5  2  0
  6  7  2  0
  9 10  1  0
  9  6  1  0
 10 11  1  6
 12 11  1  0
 13 12  2  0
 14 13  1  0
 15 14  1  0
 15 20  2  0
 16 17  2  0
 16 15  1  0
 17 18  1  0
 18 19  2  0
 20 19  1  0
 20 12  1  0
 21 10  1  0
 21 22  2  0
 23 24  1  0
 25 24  1  6
 25 26  1  0
 25 27  1  0
 26 21  1  0
 27 29  2  0
 27 28  1  0
M  END
$$$$
