DWS.pdb
     RDKit          3D

 29 30  0  0  1  0  0  0  0  0999 V2000
    8.0361  -17.3470   21.0318 N   0  0  0  0  0  0  0  0  0  0  0  0
    9.2609  -16.5888   21.0916 C   0  0  1  0  0  0  0  0  0  0  0  0
    9.0598  -15.2870   20.3494 C   0  0  0  0  0  0  0  0  0  0  0  0
    9.0164  -15.4994   18.8918 C   0  0  0  0  0  0  0  0  0  0  0  0
    8.8425  -16.6388   18.3519 O   0  0  0  0  0  0  0  0  0  0  0  0
    9.6380  -16.3727   22.5005 C   0  0  0  0  0  0  0  0  0  0  0  0
   10.6000  -15.6352   22.7854 O   0  0  0  0  0  0  0  0  0  0  0  0
    9.1673  -14.4379   18.0241 O   0  0  0  0  0  0  0  0  0  0  0  0
    8.9088  -17.0016   23.5327 N   0  0  0  0  0  0  0  0  0  0  0  0
    9.2464  -16.9333   24.9222 C   0  0  1  0  0  0  0  0  0  0  0  0
    8.0630  -16.7874   25.8526 C   0  0  0  0  0  0  0  0  0  0  0  0
    7.2575  -15.5880   25.5453 C   0  0  0  0  0  0  0  0  0  0  0  0
    6.0782  -15.5924   24.7972 C   0  0  0  0  0  0  0  0  0  0  0  0
    5.6073  -14.3339   24.7417 N   0  0  0  0  0  0  0  0  0  0  0  0
    6.4131  -13.5029   25.4122 C   0  0  0  0  0  0  0  0  0  0  0  0
    6.3901  -12.1522   25.6520 C   0  0  0  0  0  0  0  0  0  0  0  0
    7.3965  -11.5672   26.3953 C   0  0  0  0  0  0  0  0  0  0  0  0
    8.4347  -12.3118   26.9077 C   0  0  0  0  0  0  0  0  0  0  0  0
    8.4499  -13.6695   26.6617 C   0  0  0  0  0  0  0  0  0  0  0  0
    7.4457  -14.2622   25.9195 C   0  0  0  0  0  0  0  0  0  0  0  0
   10.1066  -18.0615   25.3559 C   0  0  0  0  0  0  0  0  0  0  0  0
    9.8967  -19.2353   24.9445 O   0  0  0  0  0  0  0  0  0  0  0  0
   13.4508  -18.0575   25.3771 O   0  0  0  0  0  0  0  0  0  0  0  0
   13.3362  -19.0001   26.4055 C   0  0  0  0  0  0  0  0  0  0  0  0
   11.8910  -18.8945   26.9084 C   0  0  2  0  0  0  0  0  0  0  0  0
   11.1840  -17.8343   26.2443 N   0  0  0  0  0  0  0  0  0  0  0  0
   11.8809  -18.7832   28.3743 C   0  0  0  0  0  0  0  0  0  0  0  0
   12.5000  -19.7571   29.1441 O   0  0  0  0  0  0  0  0  0  0  0  0
   11.3116  -17.8082   28.9010 O   0  0  0  0  0  0  0  0  0  0  0  0
  2  1  1  1
  2  6  1  0
  3  2  1  0
  3  4  1  0
  4  8  1  0
  4  5  2  0
  6  7  2  0
  9 10  1  0
  9  6  1  0
 10 11  1  1
 12 11  1  0
 13 12  2  0
 14 13  1  0
 15 14  1  0
 15 20  2  0
 16 17  2  0
 16 15  1  0
 17 18  1  0
 18 19  2  0
 20 19  1  0
 20 12  1  0
 21 10  1  0
 21 22  2  0
 23 24  1  0
 25 24  1  6
 25 26  1  0
 25 27  1  0
 26 21  1  0
 27 29  2  0
 27 28  1  0
M  END
$$$$
