DWS.pdb
     RDKit          3D

 29 30  0  0  1  0  0  0  0  0999 V2000
    8.8550  -15.5867   18.2152 N   0  0  0  0  0  0  0  0  0  0  0  0
    9.4849  -16.5677   19.0633 C   0  0  1  0  0  0  0  0  0  0  0  0
   10.8666  -16.8580   18.5224 C   0  0  0  0  0  0  0  0  0  0  0  0
   10.8101  -17.3348   17.1291 C   0  0  0  0  0  0  0  0  0  0  0  0
    9.9719  -18.1982   16.7146 O   0  0  0  0  0  0  0  0  0  0  0  0
    9.5248  -16.0672   20.4496 C   0  0  0  0  0  0  0  0  0  0  0  0
   10.5094  -15.4213   20.8543 O   0  0  0  0  0  0  0  0  0  0  0  0
   11.6917  -16.8493   16.1860 O   0  0  0  0  0  0  0  0  0  0  0  0
    8.4455  -16.3187   21.3241 N   0  0  0  0  0  0  0  0  0  0  0  0
    8.4045  -15.9189   22.6981 C   0  0  1  0  0  0  0  0  0  0  0  0
    7.0134  -15.7086   23.2528 C   0  0  0  0  0  0  0  0  0  0  0  0
    7.0371  -15.2450   24.6550 C   0  0  0  0  0  0  0  0  0  0  0  0
    7.0556  -16.0856   25.7702 C   0  0  0  0  0  0  0  0  0  0  0  0
    7.0992  -15.3212   26.8758 N   0  0  0  0  0  0  0  0  0  0  0  0
    7.1098  -14.0244   26.5480 C   0  0  0  0  0  0  0  0  0  0  0  0
    7.1437  -12.8644   27.2798 C   0  0  0  0  0  0  0  0  0  0  0  0
    7.1384  -11.6428   26.6355 C   0  0  0  0  0  0  0  0  0  0  0  0
    7.0992  -11.5568   25.2622 C   0  0  0  0  0  0  0  0  0  0  0  0
    7.0653  -12.7284   24.5340 C   0  0  0  0  0  0  0  0  0  0  0  0
    7.0713  -13.9547   25.1717 C   0  0  0  0  0  0  0  0  0  0  0  0
    9.1786  -16.8273   23.5793 C   0  0  0  0  0  0  0  0  0  0  0  0
    8.8699  -18.0454   23.6902 O   0  0  0  0  0  0  0  0  0  0  0  0
   12.7577  -15.5155   25.0848 O   0  0  0  0  0  0  0  0  0  0  0  0
   12.5929  -16.8960   24.9222 C   0  0  0  0  0  0  0  0  0  0  0  0
   11.1011  -17.1676   25.1530 C   0  0  2  0  0  0  0  0  0  0  0  0
   10.2836  -16.3359   24.3135 N   0  0  0  0  0  0  0  0  0  0  0  0
   10.7892  -17.0489   26.5848 C   0  0  0  0  0  0  0  0  0  0  0  0
   11.5027  -17.7964   27.5102 O   0  0  0  0  0  0  0  0  0  0  0  0
    9.8825  -16.2728   26.9420 O   0  0  0  0  0  0  0  0  0  0  0  0
  2  1  1  6
  2  6  1  0
  3  2  1  0
  3  4  1  0
  4  8  1  0
  4  5  2  0
  6  7  2  0
  9 10  1  0
  9  6  1  0
 10 11  1  1
 12 11  1  0
 13 12  2  0
 14 13  1  0
 15 14  1  0
 15 20  2  0
 16 17  2  0
 16 15  1  0
 17 18  1  0
 18 19  2  0
 20 19  1  0
 20 12  1  0
 21 10  1  0
 21 22  2  0
 23 24  1  0
 25 24  1  1
 25 26  1  0
 25 27  1  0
 26 21  1  0
 27 29  2  0
 27 28  1  0
M  END
$$$$
