DWS.pdb
     RDKit          3D

 29 30  0  0  1  0  0  0  0  0999 V2000
    6.6883  -15.9242   20.7166 N   0  0  0  0  0  0  0  0  0  0  0  0
    8.0356  -16.4371   20.7123 C   0  0  1  0  0  0  0  0  0  0  0  0
    8.6787  -16.0945   19.3876 C   0  0  0  0  0  0  0  0  0  0  0  0
    7.9774  -16.7424   18.2651 C   0  0  0  0  0  0  0  0  0  0  0  0
    7.3595  -17.8504   18.3673 O   0  0  0  0  0  0  0  0  0  0  0  0
    8.7804  -15.8744   21.8536 C   0  0  0  0  0  0  0  0  0  0  0  0
    9.3927  -14.7969   21.7320 O   0  0  0  0  0  0  0  0  0  0  0  0
    7.9611  -16.1560   17.0168 O   0  0  0  0  0  0  0  0  0  0  0  0
    8.8019  -16.5557   23.0898 N   0  0  0  0  0  0  0  0  0  0  0  0
    9.6577  -16.2190   24.1869 C   0  0  1  0  0  0  0  0  0  0  0  0
    9.0116  -16.3340   25.5494 C   0  0  0  0  0  0  0  0  0  0  0  0
    7.7941  -15.5053   25.6603 C   0  0  0  0  0  0  0  0  0  0  0  0
    6.4907  -15.9819   25.5032 C   0  0  0  0  0  0  0  0  0  0  0  0
    5.6396  -14.9585   25.6958 N   0  0  0  0  0  0  0  0  0  0  0  0
    6.3127  -13.8356   25.9704 C   0  0  0  0  0  0  0  0  0  0  0  0
    5.9303  -12.5449   26.2354 C   0  0  0  0  0  0  0  0  0  0  0  0
    6.8869  -11.5794   26.4806 C   0  0  0  0  0  0  0  0  0  0  0  0
    8.2299  -11.8807   26.4656 C   0  0  0  0  0  0  0  0  0  0  0  0
    8.6056  -13.1813   26.1983 C   0  0  0  0  0  0  0  0  0  0  0  0
    7.6540  -14.1532   25.9529 C   0  0  0  0  0  0  0  0  0  0  0  0
   10.9395  -16.9655   24.1598 C   0  0  0  0  0  0  0  0  0  0  0  0
   11.0253  -18.1286   24.6406 O   0  0  0  0  0  0  0  0  0  0  0  0
   14.2368  -15.2268   22.3284 O   0  0  0  0  0  0  0  0  0  0  0  0
   14.1059  -16.6151   22.2070 C   0  0  0  0  0  0  0  0  0  0  0  0
   13.3443  -17.0727   23.4573 C   0  0  2  0  0  0  0  0  0  0  0  0
   12.0931  -16.3783   23.5890 N   0  0  0  0  0  0  0  0  0  0  0  0
   14.2114  -16.9561   24.6388 C   0  0  0  0  0  0  0  0  0  0  0  0
   13.7822  -16.2301   25.7402 O   0  0  0  0  0  0  0  0  0  0  0  0
   15.3242  -17.5162   24.6276 O   0  0  0  0  0  0  0  0  0  0  0  0
  2  1  1  6
  2  6  1  0
  3  2  1  0
  3  4  1  0
  4  8  1  0
  4  5  2  0
  6  7  2  0
  9 10  1  0
  9  6  1  0
 10 11  1  1
 12 11  1  0
 13 12  2  0
 14 13  1  0
 15 14  1  0
 15 20  2  0
 16 17  2  0
 16 15  1  0
 17 18  1  0
 18 19  2  0
 20 19  1  0
 20 12  1  0
 21 10  1  0
 21 22  2  0
 23 24  1  0
 25 24  1  6
 25 26  1  0
 25 27  1  0
 26 21  1  0
 27 29  2  0
 27 28  1  0
M  END
$$$$
