RWT.pdb
     RDKit          3D

 33 34  0  0  1  0  0  0  0  0999 V2000
    7.6355  -12.3157   17.1341 N   0  0  0  0  0  0  0  0  0  0  0  0
    8.2193  -13.4656   16.5073 C   0  0  0  0  0  0  0  0  0  0  0  0
    8.7571  -13.3291   15.3533 N   0  0  0  0  0  0  0  0  0  0  0  0
    8.2054  -14.7304   17.1419 N   0  0  0  0  0  0  0  0  0  0  0  0
    7.5257  -14.9403   18.3898 C   0  0  0  0  0  0  0  0  0  0  0  0
    8.2581  -14.1858   19.4707 C   0  0  0  0  0  0  0  0  0  0  0  0
    7.8000  -14.5956   20.8536 C   0  0  0  0  0  0  0  0  0  0  0  0
    8.1956  -15.9886   21.2142 C   0  0  2  0  0  0  0  0  0  0  0  0
    7.0313  -16.8340   21.1956 N   0  0  0  0  0  0  0  0  0  0  0  0
    8.8388  -15.9520   22.5688 C   0  0  0  0  0  0  0  0  0  0  0  0
    9.8173  -15.1997   22.8078 O   0  0  0  0  0  0  0  0  0  0  0  0
    9.2915  -14.1193   14.9439 N   0  0  0  0  0  0  0  0  0  0  0  0
    8.3843  -16.7570   23.6465 C   0  0  1  0  0  0  0  0  0  0  0  0
    8.9977  -16.8118   24.9559 C   0  0  0  0  0  0  0  0  0  0  0  0
    8.1101  -16.3879   26.0523 C   0  0  0  0  0  0  0  0  0  0  0  0
    7.2731  -15.2260   25.8920 C   0  0  0  0  0  0  0  0  0  0  0  0
    5.9209  -15.2291   25.5493 N   0  0  0  0  0  0  0  0  0  0  0  0
    5.4535  -13.9845   25.4864 C   0  0  0  0  0  0  0  0  0  0  0  0
    6.4596  -13.1448   25.7785 C   0  0  0  0  0  0  0  0  0  0  0  0
    6.4565  -11.7694   25.8381 C   0  0  0  0  0  0  0  0  0  0  0  0
    7.6062  -11.0923   26.1584 C   0  0  0  0  0  0  0  0  0  0  0  0
    8.7455  -11.8137   26.4149 C   0  0  0  0  0  0  0  0  0  0  0  0
    8.7345  -13.1969   26.3516 C   0  0  0  0  0  0  0  0  0  0  0  0
    7.6023  -13.9136   26.0339 C   0  0  0  0  0  0  0  0  0  0  0  0
    9.8571  -17.9873   25.1731 O   0  0  0  0  0  0  0  0  0  0  0  0
    9.3539  -19.0927   25.5700 C   0  0  0  0  0  0  0  0  0  0  0  0
   12.1680  -19.4707   22.5314 C   0  0  2  0  0  0  0  0  0  0  0  0
   12.9744  -19.2769   23.7706 O   0  0  0  0  0  0  0  0  0  0  0  0
   13.8714  -18.2547   23.6409 C   0  0  2  0  0  0  0  0  0  0  0  0
   12.0839  -19.1595   25.0017 N   0  0  0  0  0  0  0  0  0  0  0  0
   11.2700  -17.9746   24.9536 C   0  0  0  0  0  0  0  0  0  0  0  0
   12.9204  -19.3028   26.1948 O   0  0  0  0  0  0  0  0  0  0  0  0
   13.6509  -20.4354   26.5023 O   0  0  0  0  0  0  0  0  0  0  0  0
  1  2  1  0
  2  4  1  0
  2  3  2  0
  4  5  1  0
  6  5  1  0
  7  6  1  0
  8  7  1  0
  8  9  1  1
 10  8  1  0
 10 11  2  0
 12 10  1  0
 13 12  1  0
 13 14  1  1
 15 16  2  0
 15 14  1  0
 17 16  1  0
 18 23  2  0
 18 17  1  0
 19 18  1  0
 20 21  1  0
 20 19  2  0
 21 22  2  0
 22 23  1  0
 23 15  1  0
 24 13  1  0
 25 24  2  0
 27 26  1  6
 27 28  1  0
 29 30  1  1
 29 27  1  0
 30 24  1  0
 31 29  1  0
 32 31  1  0
 33 31  2  0
M  END
$$$$
