RWT.pdb
     RDKit          3D

 33 34  0  0  1  0  0  0  0  0999 V2000
    6.9898  -13.8699   15.3226 N   0  0  0  0  0  0  0  0  0  0  0  0
    7.9528  -13.4862   16.3133 C   0  0  0  0  0  0  0  0  0  0  0  0
    7.9907  -12.2634   16.6913 N   0  0  0  0  0  0  0  0  0  0  0  0
    8.8483  -14.4315   16.8672 N   0  0  0  0  0  0  0  0  0  0  0  0
    8.7730  -15.8268   16.5340 C   0  0  0  0  0  0  0  0  0  0  0  0
    8.4760  -16.6070   17.7898 C   0  0  0  0  0  0  0  0  0  0  0  0
    9.7295  -16.8839   18.5912 C   0  0  0  0  0  0  0  0  0  0  0  0
    9.4478  -17.4185   19.9558 C   0  0  2  0  0  0  0  0  0  0  0  0
    8.1682  -18.0765   19.9543 N   0  0  0  0  0  0  0  0  0  0  0  0
    9.4856  -16.2704   20.9203 C   0  0  0  0  0  0  0  0  0  0  0  0
    8.9991  -15.1500   20.6225 O   0  0  0  0  0  0  0  0  0  0  0  0
    8.6687  -11.9777   17.4236 N   0  0  0  0  0  0  0  0  0  0  0  0
   10.0674  -16.3823   22.2106 C   0  0  2  0  0  0  0  0  0  0  0  0
    9.4008  -16.0516   23.4516 C   0  0  0  0  0  0  0  0  0  0  0  0
    8.0914  -15.4008   23.2743 C   0  0  0  0  0  0  0  0  0  0  0  0
    7.3857  -14.8808   24.4179 C   0  0  0  0  0  0  0  0  0  0  0  0
    6.5762  -15.6136   25.2861 N   0  0  0  0  0  0  0  0  0  0  0  0
    6.0774  -14.8249   26.2350 C   0  0  0  0  0  0  0  0  0  0  0  0
    6.5321  -13.5792   26.0252 C   0  0  0  0  0  0  0  0  0  0  0  0
    6.2875  -12.4303   26.7433 C   0  0  0  0  0  0  0  0  0  0  0  0
    6.8560  -11.2431   26.3559 C   0  0  0  0  0  0  0  0  0  0  0  0
    7.6654  -11.2313   25.2472 C   0  0  0  0  0  0  0  0  0  0  0  0
    7.9031  -12.3943   24.5343 C   0  0  0  0  0  0  0  0  0  0  0  0
    7.3520  -13.6052   24.8898 C   0  0  0  0  0  0  0  0  0  0  0  0
    9.5305  -17.0767   24.5004 O   0  0  0  0  0  0  0  0  0  0  0  0
    8.7024  -18.0479   24.5624 C   0  0  0  0  0  0  0  0  0  0  0  0
   12.6932  -19.1526   25.4580 C   0  0  2  0  0  0  0  0  0  0  0  0
   12.1591  -18.4870   26.6807 O   0  0  0  0  0  0  0  0  0  0  0  0
   12.9706  -17.4734   27.1056 C   0  0  2  0  0  0  0  0  0  0  0  0
   10.7039  -18.0729   26.4987 N   0  0  0  0  0  0  0  0  0  0  0  0
   10.5657  -17.0602   25.4868 C   0  0  0  0  0  0  0  0  0  0  0  0
   10.1503  -17.7337   27.8110 O   0  0  0  0  0  0  0  0  0  0  0  0
    9.9782  -18.6391   28.8413 O   0  0  0  0  0  0  0  0  0  0  0  0
  1  2  1  0
  2  4  1  0
  2  3  2  0
  4  5  1  0
  6  5  1  0
  7  6  1  0
  8  7  1  0
  8  9  1  6
 10  8  1  0
 10 11  2  0
 12 10  1  0
 13 12  1  0
 13 14  1  1
 15 16  2  0
 15 14  1  0
 17 16  1  0
 18 23  2  0
 18 17  1  0
 19 18  1  0
 20 21  1  0
 20 19  2  0
 21 22  2  0
 22 23  1  0
 23 15  1  0
 24 13  1  0
 25 24  2  0
 27 26  1  1
 27 28  1  0
 29 30  1  1
 29 27  1  0
 30 24  1  0
 31 29  1  0
 32 31  1  0
 33 31  2  0
M  END
$$$$
