RWT.pdb
     RDKit          3D

 33 34  0  0  1  0  0  0  0  0999 V2000
    9.9074  -18.3624   13.9480 N   0  0  0  0  0  0  0  0  0  0  0  0
   11.1930  -17.7362   14.0526 C   0  0  0  0  0  0  0  0  0  0  0  0
   11.9836  -17.7857   13.0466 N   0  0  0  0  0  0  0  0  0  0  0  0
   11.5903  -17.0757   15.2393 N   0  0  0  0  0  0  0  0  0  0  0  0
   11.7527  -17.7842   16.4783 C   0  0  0  0  0  0  0  0  0  0  0  0
   10.4078  -17.8927   17.1515 C   0  0  0  0  0  0  0  0  0  0  0  0
   10.4200  -17.2833   18.5367 C   0  0  0  0  0  0  0  0  0  0  0  0
    9.3393  -16.2753   18.7441 C   0  0  2  0  0  0  0  0  0  0  0  0
    9.5403  -15.1701   17.8449 N   0  0  0  0  0  0  0  0  0  0  0  0
    9.3782  -15.8426   20.1798 C   0  0  0  0  0  0  0  0  0  0  0  0
   10.3939  -15.2847   20.6673 O   0  0  0  0  0  0  0  0  0  0  0  0
   12.9056  -17.3118   13.0998 N   0  0  0  0  0  0  0  0  0  0  0  0
    8.2818  -16.0372   21.0608 C   0  0  1  0  0  0  0  0  0  0  0  0
    8.2667  -15.6664   22.4594 C   0  0  0  0  0  0  0  0  0  0  0  0
    6.9783  -15.1228   22.9219 C   0  0  0  0  0  0  0  0  0  0  0  0
    6.8199  -14.7177   24.2956 C   0  0  0  0  0  0  0  0  0  0  0  0
    6.2543  -15.4813   25.3169 N   0  0  0  0  0  0  0  0  0  0  0  0
    6.2640  -14.8058   26.4635 C   0  0  0  0  0  0  0  0  0  0  0  0
    6.8225  -13.6060   26.2373 C   0  0  0  0  0  0  0  0  0  0  0  0
    7.0468  -12.5702   27.1160 C   0  0  0  0  0  0  0  0  0  0  0  0
    7.6377  -11.4120   26.6774 C   0  0  0  0  0  0  0  0  0  0  0  0
    7.9949  -11.3147   25.3556 C   0  0  0  0  0  0  0  0  0  0  0  0
    7.7636  -12.3644   24.4826 C   0  0  0  0  0  0  0  0  0  0  0  0
    7.1735  -13.5425   24.8828 C   0  0  0  0  0  0  0  0  0  0  0  0
    8.9824  -16.6027   23.3418 O   0  0  0  0  0  0  0  0  0  0  0  0
    8.8657  -17.8645   23.1778 C   0  0  0  0  0  0  0  0  0  0  0  0
   12.7814  -18.0583   25.8067 C   0  0  2  0  0  0  0  0  0  0  0  0
   12.0327  -17.1479   24.8936 O   0  0  0  0  0  0  0  0  0  0  0  0
   12.2681  -17.4369   23.5793 C   0  0  1  0  0  0  0  0  0  0  0  0
   10.5531  -17.0913   25.2540 N   0  0  0  0  0  0  0  0  0  0  0  0
    9.8376  -16.1764   24.4057 C   0  0  0  0  0  0  0  0  0  0  0  0
   10.4349  -16.8428   26.6921 O   0  0  0  0  0  0  0  0  0  0  0  0
   10.8499  -17.7254   27.6716 O   0  0  0  0  0  0  0  0  0  0  0  0
  1  2  1  0
  2  4  1  0
  2  3  2  0
  4  5  1  0
  6  5  1  0
  7  6  1  0
  8  7  1  0
  8  9  1  6
 10  8  1  0
 10 11  2  0
 12 10  1  0
 13 12  1  0
 13 14  1  1
 15 16  2  0
 15 14  1  0
 17 16  1  0
 18 23  2  0
 18 17  1  0
 19 18  1  0
 20 21  1  0
 20 19  2  0
 21 22  2  0
 22 23  1  0
 23 15  1  0
 24 13  1  0
 25 24  2  0
 27 26  1  6
 27 28  1  0
 29 30  1  1
 29 27  1  0
 30 24  1  0
 31 29  1  0
 32 31  1  0
 33 31  2  0
M  END
$$$$
