RWT.pdb
     RDKit          3D

 33 34  0  0  1  0  0  0  0  0999 V2000
    7.7397  -12.3885   16.8871 N   0  0  0  0  0  0  0  0  0  0  0  0
    8.4331  -13.6057   16.5811 C   0  0  0  0  0  0  0  0  0  0  0  0
    8.6163  -13.9155   15.3523 N   0  0  0  0  0  0  0  0  0  0  0  0
    8.9079  -14.4550   17.6086 N   0  0  0  0  0  0  0  0  0  0  0  0
    8.0139  -15.2542   18.3995 C   0  0  0  0  0  0  0  0  0  0  0  0
    7.3566  -14.3681   19.4275 C   0  0  0  0  0  0  0  0  0  0  0  0
    8.0174  -14.4916   20.7833 C   0  0  0  0  0  0  0  0  0  0  0  0
    8.3031  -15.9043   21.1706 C   0  0  2  0  0  0  0  0  0  0  0  0
    7.0854  -16.6688   21.1146 N   0  0  0  0  0  0  0  0  0  0  0  0
    8.8960  -15.8965   22.5484 C   0  0  0  0  0  0  0  0  0  0  0  0
    9.8497  -15.1330   22.8455 O   0  0  0  0  0  0  0  0  0  0  0  0
    9.2293  -14.7192   15.1158 N   0  0  0  0  0  0  0  0  0  0  0  0
    8.4194  -16.7425   23.5843 C   0  0  1  0  0  0  0  0  0  0  0  0
    8.9965  -16.8378   24.9077 C   0  0  0  0  0  0  0  0  0  0  0  0
    8.0748  -16.4597   25.9927 C   0  0  0  0  0  0  0  0  0  0  0  0
    7.2398  -15.2936   25.8537 C   0  0  0  0  0  0  0  0  0  0  0  0
    5.9116  -15.2808   25.4274 N   0  0  0  0  0  0  0  0  0  0  0  0
    5.4388  -14.0368   25.4138 C   0  0  0  0  0  0  0  0  0  0  0  0
    6.4177  -13.2130   25.8206 C   0  0  0  0  0  0  0  0  0  0  0  0
    6.3995  -11.8441   25.9664 C   0  0  0  0  0  0  0  0  0  0  0  0
    7.5214  -11.1836   26.4000 C   0  0  0  0  0  0  0  0  0  0  0  0
    8.6485  -11.9150   26.6814 C   0  0  0  0  0  0  0  0  0  0  0  0
    8.6529  -13.2914   26.5307 C   0  0  0  0  0  0  0  0  0  0  0  0
    7.5486  -13.9914   26.0982 C   0  0  0  0  0  0  0  0  0  0  0  0
    9.8603  -18.0130   25.1083 O   0  0  0  0  0  0  0  0  0  0  0  0
    9.3491  -19.1577   25.3551 C   0  0  0  0  0  0  0  0  0  0  0  0
   13.0988  -18.8681   22.9041 C   0  0  2  0  0  0  0  0  0  0  0  0
   13.4029  -18.9896   24.3587 O   0  0  0  0  0  0  0  0  0  0  0  0
   14.2438  -18.0024   24.7883 C   0  0  2  0  0  0  0  0  0  0  0  0
   12.1288  -19.1133   25.1855 N   0  0  0  0  0  0  0  0  0  0  0  0
   11.2873  -17.9565   25.0350 C   0  0  0  0  0  0  0  0  0  0  0  0
   12.4992  -19.4498   26.5614 O   0  0  0  0  0  0  0  0  0  0  0  0
   13.2041  -20.5825   26.9233 O   0  0  0  0  0  0  0  0  0  0  0  0
  1  2  1  0
  2  4  1  0
  2  3  2  0
  4  5  1  0
  6  5  1  0
  7  6  1  0
  8  7  1  0
  8  9  1  1
 10  8  1  0
 10 11  2  0
 12 10  1  0
 13 12  1  0
 13 14  1  1
 15 16  2  0
 15 14  1  0
 17 16  1  0
 18 23  2  0
 18 17  1  0
 19 18  1  0
 20 21  1  0
 20 19  2  0
 21 22  2  0
 22 23  1  0
 23 15  1  0
 24 13  1  0
 25 24  2  0
 27 26  1  6
 27 28  1  0
 29 30  1  1
 29 27  1  0
 30 24  1  0
 31 29  1  0
 32 31  1  0
 33 31  2  0
M  END
$$$$
