RWT.pdb
     RDKit          3D

 33 34  0  0  1  0  0  0  0  0999 V2000
   12.7460  -16.6809   16.0723 N   0  0  0  0  0  0  0  0  0  0  0  0
   11.5014  -17.1631   15.5484 C   0  0  0  0  0  0  0  0  0  0  0  0
   11.0432  -16.6385   14.4741 N   0  0  0  0  0  0  0  0  0  0  0  0
   10.7855  -18.1962   16.1986 N   0  0  0  0  0  0  0  0  0  0  0  0
   11.3322  -18.8978   17.3266 C   0  0  0  0  0  0  0  0  0  0  0  0
   11.0236  -18.1143   18.5776 C   0  0  0  0  0  0  0  0  0  0  0  0
   10.4367  -18.9919   19.6619 C   0  0  0  0  0  0  0  0  0  0  0  0
    9.1445  -18.4747   20.2003 C   0  0  2  0  0  0  0  0  0  0  0  0
    8.4937  -17.6790   19.1935 N   0  0  0  0  0  0  0  0  0  0  0  0
    9.4427  -17.6788   21.4363 C   0  0  0  0  0  0  0  0  0  0  0  0
   10.5762  -17.7138   21.9789 O   0  0  0  0  0  0  0  0  0  0  0  0
   10.1453  -16.9821   14.0825 N   0  0  0  0  0  0  0  0  0  0  0  0
    8.4716  -16.8499   22.0575 C   0  0  1  0  0  0  0  0  0  0  0  0
    8.7109  -16.0204   23.2187 C   0  0  0  0  0  0  0  0  0  0  0  0
    7.9461  -14.7616   23.2245 C   0  0  0  0  0  0  0  0  0  0  0  0
    8.1304  -13.8127   24.2931 C   0  0  0  0  0  0  0  0  0  0  0  0
    9.1965  -12.9229   24.4262 N   0  0  0  0  0  0  0  0  0  0  0  0
    9.0560  -12.1892   25.5277 C   0  0  0  0  0  0  0  0  0  0  0  0
    7.9209  -12.5648   26.1383 C   0  0  0  0  0  0  0  0  0  0  0  0
    7.3620  -12.0927   27.3046 C   0  0  0  0  0  0  0  0  0  0  0  0
    6.1808  -12.6191   27.7635 C   0  0  0  0  0  0  0  0  0  0  0  0
    5.5785  -13.6165   27.0378 C   0  0  0  0  0  0  0  0  0  0  0  0
    6.1515  -14.0819   25.8663 C   0  0  0  0  0  0  0  0  0  0  0  0
    7.3351  -13.5805   25.3721 C   0  0  0  0  0  0  0  0  0  0  0  0
    8.8292  -16.7669   24.4821 O   0  0  0  0  0  0  0  0  0  0  0  0
    7.8588  -17.4828   24.9044 C   0  0  0  0  0  0  0  0  0  0  0  0
   11.5930  -19.1994   27.6696 C   0  0  2  0  0  0  0  0  0  0  0  0
   11.4747  -18.3117   26.4774 O   0  0  0  0  0  0  0  0  0  0  0  0
   11.7185  -18.9849   25.3139 C   0  0  1  0  0  0  0  0  0  0  0  0
   10.1556  -17.5487   26.4801 N   0  0  0  0  0  0  0  0  0  0  0  0
   10.0060  -16.7485   25.2943 C   0  0  0  0  0  0  0  0  0  0  0  0
   10.0401  -16.8258   27.7481 O   0  0  0  0  0  0  0  0  0  0  0  0
    9.9171  -17.4346   28.9831 O   0  0  0  0  0  0  0  0  0  0  0  0
  1  2  1  0
  2  4  1  0
  2  3  2  0
  4  5  1  0
  6  5  1  0
  7  6  1  0
  8  7  1  0
  8  9  1  6
 10  8  1  0
 10 11  2  0
 12 10  1  0
 13 12  1  0
 13 14  1  1
 15 16  2  0
 15 14  1  0
 17 16  1  0
 18 23  2  0
 18 17  1  0
 19 18  1  0
 20 21  1  0
 20 19  2  0
 21 22  2  0
 22 23  1  0
 23 15  1  0
 24 13  1  0
 25 24  2  0
 27 26  1  1
 27 28  1  0
 29 30  1  1
 29 27  1  0
 30 24  1  0
 31 29  1  0
 32 31  1  0
 33 31  2  0
M  END
$$$$
