RWT.pdb
     RDKit          3D

 33 34  0  0  1  0  0  0  0  0999 V2000
    8.2968  -13.8926   16.6232 N   0  0  0  0  0  0  0  0  0  0  0  0
    7.8060  -13.3044   17.8352 C   0  0  0  0  0  0  0  0  0  0  0  0
    7.7137  -12.0292   17.9052 N   0  0  0  0  0  0  0  0  0  0  0  0
    7.4299  -14.1077   18.9378 N   0  0  0  0  0  0  0  0  0  0  0  0
    8.0598  -15.3720   19.1992 C   0  0  0  0  0  0  0  0  0  0  0  0
    9.5099  -15.1283   19.5335 C   0  0  0  0  0  0  0  0  0  0  0  0
    9.7678  -15.2172   21.0220 C   0  0  0  0  0  0  0  0  0  0  0  0
    9.8549  -16.6214   21.5199 C   0  0  2  0  0  0  0  0  0  0  0  0
    8.7228  -17.3680   21.0389 N   0  0  0  0  0  0  0  0  0  0  0  0
    9.9020  -16.5799   23.0185 C   0  0  0  0  0  0  0  0  0  0  0  0
   10.7544  -15.8842   23.6269 O   0  0  0  0  0  0  0  0  0  0  0  0
    7.3499  -11.5920   18.7735 N   0  0  0  0  0  0  0  0  0  0  0  0
    8.9966  -17.3168   23.8267 C   0  0  1  0  0  0  0  0  0  0  0  0
    8.9678  -17.2917   25.2732 C   0  0  0  0  0  0  0  0  0  0  0  0
    7.6273  -17.0724   25.8427 C   0  0  0  0  0  0  0  0  0  0  0  0
    7.0327  -15.7606   25.7988 C   0  0  0  0  0  0  0  0  0  0  0  0
    5.6699  -15.4798   25.6991 N   0  0  0  0  0  0  0  0  0  0  0  0
    5.4653  -14.1648   25.6838 C   0  0  0  0  0  0  0  0  0  0  0  0
    6.6582  -13.5549   25.7706 C   0  0  0  0  0  0  0  0  0  0  0  0
    6.9491  -12.2094   25.7905 C   0  0  0  0  0  0  0  0  0  0  0  0
    8.2518  -11.7887   25.8844 C   0  0  0  0  0  0  0  0  0  0  0  0
    9.2452  -12.7333   25.9573 C   0  0  0  0  0  0  0  0  0  0  0  0
    8.9385  -14.0834   25.9365 C   0  0  0  0  0  0  0  0  0  0  0  0
    7.6449  -14.5465   25.8431 C   0  0  0  0  0  0  0  0  0  0  0  0
    9.8396  -18.2905   25.9135 O   0  0  0  0  0  0  0  0  0  0  0  0
    9.5951  -19.5384   25.7884 C   0  0  0  0  0  0  0  0  0  0  0  0
   13.3648  -19.2702   25.5249 C   0  0  2  0  0  0  0  0  0  0  0  0
   13.2313  -18.8916   26.9609 O   0  0  0  0  0  0  0  0  0  0  0  0
   13.8789  -17.7222   27.2425 C   0  0  2  0  0  0  0  0  0  0  0  0
   11.7747  -18.9096   27.4083 N   0  0  0  0  0  0  0  0  0  0  0  0
   10.9894  -17.9427   26.6892 C   0  0  0  0  0  0  0  0  0  0  0  0
   11.7359  -18.7950   28.8675 O   0  0  0  0  0  0  0  0  0  0  0  0
   12.2404  -19.7440   29.7368 O   0  0  0  0  0  0  0  0  0  0  0  0
  1  2  1  0
  2  4  1  0
  2  3  2  0
  4  5  1  0
  6  5  1  0
  7  6  1  0
  8  7  1  0
  8  9  1  1
 10  8  1  0
 10 11  2  0
 12 10  1  0
 13 12  1  0
 13 14  1  1
 15 16  2  0
 15 14  1  0
 17 16  1  0
 18 23  2  0
 18 17  1  0
 19 18  1  0
 20 21  1  0
 20 19  2  0
 21 22  2  0
 22 23  1  0
 23 15  1  0
 24 13  1  0
 25 24  2  0
 27 26  1  1
 27 28  1  0
 29 30  1  1
 29 27  1  0
 30 24  1  0
 31 29  1  0
 32 31  1  0
 33 31  2  0
M  END
$$$$
