RWT.pdb
     RDKit          3D

 33 34  0  0  1  0  0  0  0  0999 V2000
   10.5163  -20.1357   17.1233 N   0  0  0  0  0  0  0  0  0  0  0  0
   11.2411  -19.4462   16.0960 C   0  0  0  0  0  0  0  0  0  0  0  0
   10.9775  -19.7159   14.8723 N   0  0  0  0  0  0  0  0  0  0  0  0
   12.2304  -18.4868   16.4171 N   0  0  0  0  0  0  0  0  0  0  0  0
   12.6948  -18.3046   17.7642 C   0  0  0  0  0  0  0  0  0  0  0  0
   12.1827  -16.9817   18.2759 C   0  0  0  0  0  0  0  0  0  0  0  0
   12.1658  -16.9307   19.7883 C   0  0  0  0  0  0  0  0  0  0  0  0
   10.9084  -17.4748   20.3800 C   0  0  2  0  0  0  0  0  0  0  0  0
    9.8779  -17.4909   19.3759 N   0  0  0  0  0  0  0  0  0  0  0  0
   10.5360  -16.6134   21.5502 C   0  0  0  0  0  0  0  0  0  0  0  0
   11.3470  -15.7848   22.0364 O   0  0  0  0  0  0  0  0  0  0  0  0
   11.4935  -19.2214   14.1195 N   0  0  0  0  0  0  0  0  0  0  0  0
    9.2602  -16.6848   22.1692 C   0  0  1  0  0  0  0  0  0  0  0  0
    8.9260  -16.0977   23.4488 C   0  0  0  0  0  0  0  0  0  0  0  0
    7.6613  -15.3428   23.4504 C   0  0  0  0  0  0  0  0  0  0  0  0
    7.1493  -14.7995   24.6828 C   0  0  0  0  0  0  0  0  0  0  0  0
    6.3762  -15.4818   25.6224 N   0  0  0  0  0  0  0  0  0  0  0  0
    6.0732  -14.6842   26.6438 C   0  0  0  0  0  0  0  0  0  0  0  0
    6.6240  -13.4818   26.4131 C   0  0  0  0  0  0  0  0  0  0  0  0
    6.5818  -12.3420   27.1842 C   0  0  0  0  0  0  0  0  0  0  0  0
    7.2186  -11.2022   26.7622 C   0  0  0  0  0  0  0  0  0  0  0  0
    7.8907  -11.2280   25.5656 C   0  0  0  0  0  0  0  0  0  0  0  0
    7.9253  -12.3813   24.8000 C   0  0  0  0  0  0  0  0  0  0  0  0
    7.2996  -13.5452   25.1877 C   0  0  0  0  0  0  0  0  0  0  0  0
    9.2225  -16.9586   24.6057 O   0  0  0  0  0  0  0  0  0  0  0  0
    8.5292  -18.0092   24.8255 C   0  0  0  0  0  0  0  0  0  0  0  0
   12.5637  -18.6236   25.4448 C   0  0  2  0  0  0  0  0  0  0  0  0
   12.1235  -17.8557   26.6447 O   0  0  0  0  0  0  0  0  0  0  0  0
   12.8864  -16.7402   26.8447 C   0  0  2  0  0  0  0  0  0  0  0  0
   10.6258  -17.5765   26.6085 N   0  0  0  0  0  0  0  0  0  0  0  0
   10.2799  -16.6899   25.5302 C   0  0  0  0  0  0  0  0  0  0  0  0
   10.2019  -17.1445   27.9417 O   0  0  0  0  0  0  0  0  0  0  0  0
   10.3206  -17.9139   29.0840 O   0  0  0  0  0  0  0  0  0  0  0  0
  1  2  1  0
  2  4  1  0
  2  3  2  0
  4  5  1  0
  6  5  1  0
  7  6  1  0
  8  7  1  0
  8  9  1  6
 10  8  1  0
 10 11  2  0
 12 10  1  0
 13 12  1  0
 13 14  1  1
 15 16  2  0
 15 14  1  0
 17 16  1  0
 18 23  2  0
 18 17  1  0
 19 18  1  0
 20 21  1  0
 20 19  2  0
 21 22  2  0
 22 23  1  0
 23 15  1  0
 24 13  1  0
 25 24  2  0
 27 26  1  1
 27 28  1  0
 29 30  1  1
 29 27  1  0
 30 24  1  0
 31 29  1  0
 32 31  1  0
 33 31  2  0
M  END
$$$$
