RWT.pdb
     RDKit          3D

 33 34  0  0  1  0  0  0  0  0999 V2000
    9.6072  -13.4804   19.7212 N   0  0  0  0  0  0  0  0  0  0  0  0
    8.4818  -12.6244   19.4833 C   0  0  0  0  0  0  0  0  0  0  0  0
    8.5695  -11.3897   19.8109 N   0  0  0  0  0  0  0  0  0  0  0  0
    7.2933  -13.1243   18.9001 N   0  0  0  0  0  0  0  0  0  0  0  0
    7.1507  -14.5098   18.5489 C   0  0  0  0  0  0  0  0  0  0  0  0
    6.9347  -15.3072   19.8105 C   0  0  0  0  0  0  0  0  0  0  0  0
    8.0918  -16.2411   20.0922 C   0  0  0  0  0  0  0  0  0  0  0  0
    7.8021  -17.2241   21.1771 C   0  0  2  0  0  0  0  0  0  0  0  0
    6.3983  -17.1870   21.4906 N   0  0  0  0  0  0  0  0  0  0  0  0
    8.6498  -16.8693   22.3626 C   0  0  0  0  0  0  0  0  0  0  0  0
    9.6959  -16.1835   22.2366 O   0  0  0  0  0  0  0  0  0  0  0  0
    7.7838  -10.7477   19.5915 N   0  0  0  0  0  0  0  0  0  0  0  0
    8.3227  -17.2840   23.6805 C   0  0  1  0  0  0  0  0  0  0  0  0
    9.1502  -17.0659   24.8473 C   0  0  0  0  0  0  0  0  0  0  0  0
    8.4078  -16.5979   26.0302 C   0  0  0  0  0  0  0  0  0  0  0  0
    7.4491  -15.5299   25.9019 C   0  0  0  0  0  0  0  0  0  0  0  0
    6.0785  -15.6781   25.6886 N   0  0  0  0  0  0  0  0  0  0  0  0
    5.4867  -14.4880   25.6188 C   0  0  0  0  0  0  0  0  0  0  0  0
    6.4270  -13.5433   25.7800 C   0  0  0  0  0  0  0  0  0  0  0  0
    6.2933  -12.1731   25.7829 C   0  0  0  0  0  0  0  0  0  0  0  0
    7.3946  -11.3751   25.9652 C   0  0  0  0  0  0  0  0  0  0  0  0
    8.6181  -11.9718   26.1425 C   0  0  0  0  0  0  0  0  0  0  0  0
    8.7382  -13.3512   26.1376 C   0  0  0  0  0  0  0  0  0  0  0  0
    7.6583  -14.1868   25.9579 C   0  0  0  0  0  0  0  0  0  0  0  0
   10.2005  -18.0789   25.0425 O   0  0  0  0  0  0  0  0  0  0  0  0
    9.8921  -19.3077   25.2089 C   0  0  0  0  0  0  0  0  0  0  0  0
   13.2897  -18.5815   22.7953 C   0  0  2  0  0  0  0  0  0  0  0  0
   13.7656  -18.5298   24.2074 O   0  0  0  0  0  0  0  0  0  0  0  0
   14.4861  -17.3972   24.4618 C   0  0  2  0  0  0  0  0  0  0  0  0
   12.6237  -18.7640   25.1889 N   0  0  0  0  0  0  0  0  0  0  0  0
   11.5961  -17.7671   25.0511 C   0  0  0  0  0  0  0  0  0  0  0  0
   13.1882  -18.9071   26.5322 O   0  0  0  0  0  0  0  0  0  0  0  0
   14.0513  -19.9185   26.9105 O   0  0  0  0  0  0  0  0  0  0  0  0
  1  2  1  0
  2  4  1  0
  2  3  2  0
  4  5  1  0
  6  5  1  0
  7  6  1  0
  8  7  1  0
  8  9  1  1
 10  8  1  0
 10 11  2  0
 12 10  1  0
 13 12  1  0
 13 14  1  1
 15 16  2  0
 15 14  1  0
 17 16  1  0
 18 23  2  0
 18 17  1  0
 19 18  1  0
 20 21  1  0
 20 19  2  0
 21 22  2  0
 22 23  1  0
 23 15  1  0
 24 13  1  0
 25 24  2  0
 27 26  1  6
 27 28  1  0
 29 30  1  1
 29 27  1  0
 30 24  1  0
 31 29  1  0
 32 31  1  0
 33 31  2  0
M  END
$$$$
