RWT.pdb
     RDKit          3D

 33 34  0  0  1  0  0  0  0  0999 V2000
    8.9302  -13.6842   14.8969 N   0  0  0  0  0  0  0  0  0  0  0  0
    8.0317  -14.6273   15.4963 C   0  0  0  0  0  0  0  0  0  0  0  0
    7.6292  -15.6215   14.7970 N   0  0  0  0  0  0  0  0  0  0  0  0
    7.5917  -14.4709   16.8321 N   0  0  0  0  0  0  0  0  0  0  0  0
    8.0859  -13.4138   17.6698 C   0  0  0  0  0  0  0  0  0  0  0  0
    7.3423  -13.4502   18.9812 C   0  0  0  0  0  0  0  0  0  0  0  0
    8.2730  -13.6884   20.1505 C   0  0  0  0  0  0  0  0  0  0  0  0
    8.2469  -15.0965   20.6443 C   0  0  2  0  0  0  0  0  0  0  0  0
    6.9001  -15.5988   20.5790 N   0  0  0  0  0  0  0  0  0  0  0  0
    8.7804  -15.1062   22.0461 C   0  0  0  0  0  0  0  0  0  0  0  0
    9.3592  -14.1016   22.5324 O   0  0  0  0  0  0  0  0  0  0  0  0
    7.0618  -16.3647   15.2480 N   0  0  0  0  0  0  0  0  0  0  0  0
    8.6640  -16.2389   22.8944 C   0  0  1  0  0  0  0  0  0  0  0  0
    9.3498  -16.4017   24.1580 C   0  0  0  0  0  0  0  0  0  0  0  0
    8.4694  -16.3057   25.3350 C   0  0  0  0  0  0  0  0  0  0  0  0
    7.5049  -15.2392   25.4270 C   0  0  0  0  0  0  0  0  0  0  0  0
    6.1352  -15.3479   25.1857 N   0  0  0  0  0  0  0  0  0  0  0  0
    5.5368  -14.1721   25.3606 C   0  0  0  0  0  0  0  0  0  0  0  0
    6.4717  -13.2755   25.7135 C   0  0  0  0  0  0  0  0  0  0  0  0
    6.3304  -11.9357   25.9972 C   0  0  0  0  0  0  0  0  0  0  0  0
    7.4271  -11.1861   26.3410 C   0  0  0  0  0  0  0  0  0  0  0  0
    8.6539  -11.7999   26.3941 C   0  0  0  0  0  0  0  0  0  0  0  0
    8.7816  -13.1483   26.1065 C   0  0  0  0  0  0  0  0  0  0  0  0
    7.7066  -13.9351   25.7576 C   0  0  0  0  0  0  0  0  0  0  0  0
   10.3905  -17.4431   24.1522 O   0  0  0  0  0  0  0  0  0  0  0  0
   10.1107  -18.6360   23.7899 C   0  0  0  0  0  0  0  0  0  0  0  0
   15.1568  -18.7596   24.2195 C   0  0  2  0  0  0  0  0  0  0  0  0
   14.1192  -17.6897   24.1766 O   0  0  0  0  0  0  0  0  0  0  0  0
   14.1209  -17.0250   22.9830 C   0  0  1  0  0  0  0  0  0  0  0  0
   12.7503  -18.2250   24.5789 N   0  0  0  0  0  0  0  0  0  0  0  0
   11.7465  -17.1959   24.5329 C   0  0  0  0  0  0  0  0  0  0  0  0
   12.8825  -18.9211   25.8602 O   0  0  0  0  0  0  0  0  0  0  0  0
   13.3011  -20.2316   25.9949 O   0  0  0  0  0  0  0  0  0  0  0  0
  1  2  1  0
  2  4  1  0
  2  3  2  0
  4  5  1  0
  6  5  1  0
  7  6  1  0
  8  7  1  0
  8  9  1  1
 10  8  1  0
 10 11  2  0
 12 10  1  0
 13 12  1  0
 13 14  1  6
 15 16  2  0
 15 14  1  0
 17 16  1  0
 18 23  2  0
 18 17  1  0
 19 18  1  0
 20 21  1  0
 20 19  2  0
 21 22  2  0
 22 23  1  0
 23 15  1  0
 24 13  1  0
 25 24  2  0
 27 26  1  1
 27 28  1  0
 29 30  1  1
 29 27  1  0
 30 24  1  0
 31 29  1  0
 32 31  1  0
 33 31  2  0
M  END
$$$$
