RWT.pdb
     RDKit          3D

 33 34  0  0  1  0  0  0  0  0999 V2000
    6.9441  -13.5195   15.6832 N   0  0  0  0  0  0  0  0  0  0  0  0
    7.7360  -13.4967   16.8784 C   0  0  0  0  0  0  0  0  0  0  0  0
    9.0050  -13.6343   16.7766 N   0  0  0  0  0  0  0  0  0  0  0  0
    7.1372  -13.3278   18.1493 N   0  0  0  0  0  0  0  0  0  0  0  0
    7.9189  -13.3064   19.3543 C   0  0  0  0  0  0  0  0  0  0  0  0
    8.1485  -14.7270   19.8052 C   0  0  0  0  0  0  0  0  0  0  0  0
    8.7760  -14.7872   21.1810 C   0  0  0  0  0  0  0  0  0  0  0  0
    9.1278  -16.1740   21.6056 C   0  0  2  0  0  0  0  0  0  0  0  0
    7.9931  -17.0357   21.4041 N   0  0  0  0  0  0  0  0  0  0  0  0
    9.5453  -16.1262   23.0455 C   0  0  0  0  0  0  0  0  0  0  0  0
   10.5127  -15.4171   23.4225 O   0  0  0  0  0  0  0  0  0  0  0  0
    9.4250  -13.8082   15.8434 N   0  0  0  0  0  0  0  0  0  0  0  0
    8.8794  -16.8718   24.0537 C   0  0  1  0  0  0  0  0  0  0  0  0
    9.2586  -16.9006   25.4498 C   0  0  0  0  0  0  0  0  0  0  0  0
    8.2011  -16.4448   26.3682 C   0  0  0  0  0  0  0  0  0  0  0  0
    7.3182  -15.3760   25.9750 C   0  0  0  0  0  0  0  0  0  0  0  0
    6.0541  -15.5234   25.4039 N   0  0  0  0  0  0  0  0  0  0  0  0
    5.5097  -14.3329   25.1641 C   0  0  0  0  0  0  0  0  0  0  0  0
    6.3779  -13.3886   25.5603 C   0  0  0  0  0  0  0  0  0  0  0  0
    6.2565  -12.0181   25.5111 C   0  0  0  0  0  0  0  0  0  0  0  0
    7.2734  -11.2206   25.9725 C   0  0  0  0  0  0  0  0  0  0  0  0
    8.4010  -11.8181   26.4783 C   0  0  0  0  0  0  0  0  0  0  0  0
    8.5099  -13.1978   26.5220 C   0  0  0  0  0  0  0  0  0  0  0  0
    7.5128  -14.0329   26.0693 C   0  0  0  0  0  0  0  0  0  0  0  0
   10.0549  -18.0769   25.8367 O   0  0  0  0  0  0  0  0  0  0  0  0
    9.4790  -19.1482   26.2283 C   0  0  0  0  0  0  0  0  0  0  0  0
   13.3136  -19.4594   23.9104 C   0  0  2  0  0  0  0  0  0  0  0  0
   13.5652  -19.3242   25.3739 O   0  0  0  0  0  0  0  0  0  0  0  0
   14.4278  -18.3016   25.6509 C   0  0  2  0  0  0  0  0  0  0  0  0
   12.2610  -19.2566   26.1592 N   0  0  0  0  0  0  0  0  0  0  0  0
   11.4840  -18.1025   25.7943 C   0  0  0  0  0  0  0  0  0  0  0  0
   12.5704  -19.3844   27.5846 O   0  0  0  0  0  0  0  0  0  0  0  0
   13.1495  -20.5005   28.1588 O   0  0  0  0  0  0  0  0  0  0  0  0
  1  2  1  0
  2  4  1  0
  2  3  2  0
  4  5  1  0
  6  5  1  0
  7  6  1  0
  8  7  1  0
  8  9  1  1
 10  8  1  0
 10 11  2  0
 12 10  1  0
 13 12  1  0
 13 14  1  1
 15 16  2  0
 15 14  1  0
 17 16  1  0
 18 23  2  0
 18 17  1  0
 19 18  1  0
 20 21  1  0
 20 19  2  0
 21 22  2  0
 22 23  1  0
 23 15  1  0
 24 13  1  0
 25 24  2  0
 27 26  1  6
 27 28  1  0
 29 30  1  1
 29 27  1  0
 30 24  1  0
 31 29  1  0
 32 31  1  0
 33 31  2  0
M  END
$$$$
