TKC.pdb
     RDKit          3D

 23 22  0  0  1  0  0  0  0  0999 V2000
   19.5794  -14.6769  -15.1871 C   0  0  0  0  0  0  0  0  0  0  0  0
   19.0704  -13.6190  -16.1270 C   0  0  1  0  0  0  0  0  0  0  0  0
   19.5800  -13.8052  -17.4293 O   0  0  0  0  0  0  0  0  0  0  0  0
   17.5620  -13.6364  -16.2667 C   0  0  2  0  0  0  0  0  0  0  0  0
   17.1319  -14.5649  -17.2919 N   0  0  0  0  0  0  0  0  0  0  0  0
   17.0184  -12.2672  -16.4703 C   0  0  0  0  0  0  0  0  0  0  0  0
   17.0104  -11.8131  -17.6233 O   0  0  0  0  0  0  0  0  0  0  0  0
   16.5272  -11.5096  -15.3827 N   0  0  0  0  0  0  0  0  0  0  0  0
   15.9093  -10.1685  -15.5857 C   0  0  1  0  0  0  0  0  0  0  0  0
   14.8449  -10.0629  -14.5484 C   0  0  0  0  0  0  0  0  0  0  0  0
   13.4861  -10.5340  -14.9017 C   0  0  0  0  0  0  0  0  0  0  0  0
   12.4804  -10.4160  -13.7971 C   0  0  0  0  0  0  0  0  0  0  0  0
   11.1469  -10.9839  -14.2504 C   0  0  0  0  0  0  0  0  0  0  0  0
   10.1639  -10.8620  -13.2018 N   0  0  0  0  0  0  0  0  0  0  0  0
   17.0138   -9.2028  -15.4840 C   0  0  0  0  0  0  0  0  0  0  0  0
   17.9492   -9.4354  -14.6725 O   0  0  0  0  0  0  0  0  0  0  0  0
   17.0995   -8.0127  -16.2495 N   0  0  0  0  0  0  0  0  0  0  0  0
   18.2126   -7.0799  -16.1069 C   0  0  1  0  0  0  0  0  0  0  0  0
   19.4943   -7.6794  -16.6428 C   0  0  0  0  0  0  0  0  0  0  0  0
   20.8217   -6.4605  -16.6991 S   0  0  0  0  0  0  0  0  0  0  0  0
   17.9073   -5.8627  -16.8616 C   0  0  0  0  0  0  0  0  0  0  0  0
   18.6262   -4.7000  -16.5669 O   0  0  0  0  0  0  0  0  0  0  0  0
   17.0360   -5.7870  -17.7652 O   0  0  0  0  0  0  0  0  0  0  0  0
  2  1  1  1
  2  4  1  0
  3  2  1  0
  4  6  1  0
  4  5  1  6
  6  8  1  0
  7  6  2  0
  8  9  1  0
  9 10  1  1
 10 11  1  0
 11 12  1  0
 12 13  1  0
 13 14  1  0
 15 17  1  0
 15  9  1  0
 16 15  2  0
 18 17  1  0
 18 19  1  6
 19 20  1  0
 21 18  1  0
 22 21  1  0
 23 21  2  0
M  END
$$$$
