TKC.pdb
     RDKit          3D

 23 22  0  0  1  0  0  0  0  0999 V2000
   27.9930  -20.0366  -13.9289 C   0  0  0  0  0  0  0  0  0  0  0  0
   27.1538  -19.5803  -12.7674 C   0  0  1  0  0  0  0  0  0  0  0  0
   26.4712  -18.3832  -13.0699 O   0  0  0  0  0  0  0  0  0  0  0  0
   26.0828  -20.5827  -12.3891 C   0  0  2  0  0  0  0  0  0  0  0  0
   26.6581  -21.8249  -11.9158 N   0  0  0  0  0  0  0  0  0  0  0  0
   25.1126  -20.7872  -13.4974 C   0  0  0  0  0  0  0  0  0  0  0  0
   25.3920  -21.6282  -14.3636 O   0  0  0  0  0  0  0  0  0  0  0  0
   23.9110  -20.0452  -13.5596 N   0  0  0  0  0  0  0  0  0  0  0  0
   22.9064  -20.2813  -14.6349 C   0  0  1  0  0  0  0  0  0  0  0  0
   21.5944  -20.3781  -13.9354 C   0  0  0  0  0  0  0  0  0  0  0  0
   21.0186  -21.7268  -13.7292 C   0  0  0  0  0  0  0  0  0  0  0  0
   19.6790  -21.7351  -13.0578 C   0  0  0  0  0  0  0  0  0  0  0  0
   19.1429  -23.1544  -12.9927 C   0  0  0  0  0  0  0  0  0  0  0  0
   17.8608  -23.1797  -12.3324 N   0  0  0  0  0  0  0  0  0  0  0  0
   23.0602  -19.1610  -15.5752 C   0  0  0  0  0  0  0  0  0  0  0  0
   22.6829  -18.0134  -15.2172 O   0  0  0  0  0  0  0  0  0  0  0  0
   23.6143  -19.2863  -16.8740 N   0  0  0  0  0  0  0  0  0  0  0  0
   23.8115  -18.1326  -17.7454 C   0  0  1  0  0  0  0  0  0  0  0  0
   25.0805  -18.2765  -18.5566 C   0  0  0  0  0  0  0  0  0  0  0  0
   26.5338  -18.3943  -17.4960 S   0  0  0  0  0  0  0  0  0  0  0  0
   22.6729  -18.0331  -18.6609 C   0  0  0  0  0  0  0  0  0  0  0  0
   21.8735  -19.1643  -18.8528 O   0  0  0  0  0  0  0  0  0  0  0  0
   22.3591  -16.9926  -19.2936 O   0  0  0  0  0  0  0  0  0  0  0  0
  2  1  1  6
  2  4  1  0
  3  2  1  0
  4  6  1  0
  4  5  1  6
  6  8  1  0
  7  6  2  0
  8  9  1  0
  9 10  1  1
 10 11  1  0
 11 12  1  0
 12 13  1  0
 13 14  1  0
 15 17  1  0
 15  9  1  0
 16 15  2  0
 18 17  1  0
 18 19  1  6
 19 20  1  0
 21 18  1  0
 22 21  1  0
 23 21  2  0
M  END
$$$$
