TKC.pdb
     RDKit          3D

 23 22  0  0  1  0  0  0  0  0999 V2000
   26.7511  -10.4607  -15.8264 C   0  0  0  0  0  0  0  0  0  0  0  0
   26.6376  -11.4295  -16.9710 C   0  0  1  0  0  0  0  0  0  0  0  0
   27.5650  -12.4846  -16.8406 O   0  0  0  0  0  0  0  0  0  0  0  0
   25.2740  -12.0849  -17.0504 C   0  0  2  0  0  0  0  0  0  0  0  0
   25.2230  -13.0847  -18.0972 N   0  0  0  0  0  0  0  0  0  0  0  0
   24.1903  -11.0738  -17.1716 C   0  0  0  0  0  0  0  0  0  0  0  0
   24.1066  -10.4392  -18.2326 O   0  0  0  0  0  0  0  0  0  0  0  0
   23.2857  -10.8452  -16.1097 N   0  0  0  0  0  0  0  0  0  0  0  0
   22.2177   -9.8101  -16.2076 C   0  0  1  0  0  0  0  0  0  0  0  0
   21.0247  -10.4099  -15.5464 C   0  0  0  0  0  0  0  0  0  0  0  0
   19.8096   -9.5727  -15.4213 C   0  0  0  0  0  0  0  0  0  0  0  0
   18.6254  -10.2791  -14.8348 C   0  0  0  0  0  0  0  0  0  0  0  0
   17.4455   -9.3268  -14.7512 C   0  0  0  0  0  0  0  0  0  0  0  0
   16.2709  -10.0188  -14.2800 N   0  0  0  0  0  0  0  0  0  0  0  0
   22.7737   -8.6046  -15.5749 C   0  0  0  0  0  0  0  0  0  0  0  0
   23.4168   -8.7270  -14.4983 O   0  0  0  0  0  0  0  0  0  0  0  0
   22.6352   -7.2963  -16.1031 N   0  0  0  0  0  0  0  0  0  0  0  0
   23.2613   -6.1380  -15.4740 C   0  0  1  0  0  0  0  0  0  0  0  0
   23.3860   -4.9910  -16.4528 C   0  0  0  0  0  0  0  0  0  0  0  0
   24.3561   -5.4580  -17.8991 S   0  0  0  0  0  0  0  0  0  0  0  0
   22.4330   -5.7093  -14.3451 C   0  0  0  0  0  0  0  0  0  0  0  0
   22.9474   -4.7464  -13.4711 O   0  0  0  0  0  0  0  0  0  0  0  0
   21.2802   -6.1494  -14.1025 O   0  0  0  0  0  0  0  0  0  0  0  0
  2  1  1  1
  2  4  1  0
  3  2  1  0
  4  6  1  0
  4  5  1  6
  6  8  1  0
  7  6  2  0
  8  9  1  0
  9 10  1  1
 10 11  1  0
 11 12  1  0
 12 13  1  0
 13 14  1  0
 15 17  1  0
 15  9  1  0
 16 15  2  0
 18 17  1  0
 18 19  1  6
 19 20  1  0
 21 18  1  0
 22 21  1  0
 23 21  2  0
M  END
$$$$
