TKC.pdb
     RDKit          3D

 23 22  0  0  1  0  0  0  0  0999 V2000
   14.8841  -10.9036  -16.0902 C   0  0  0  0  0  0  0  0  0  0  0  0
   16.3029  -10.5582  -15.7307 C   0  0  1  0  0  0  0  0  0  0  0  0
   16.4076  -10.1744  -14.3771 O   0  0  0  0  0  0  0  0  0  0  0  0
   17.2521  -11.7261  -15.9040 C   0  0  2  0  0  0  0  0  0  0  0  0
   16.8922  -12.8375  -15.0477 N   0  0  0  0  0  0  0  0  0  0  0  0
   18.6684  -11.3067  -15.7322 C   0  0  0  0  0  0  0  0  0  0  0  0
   19.2557  -11.6601  -14.6998 O   0  0  0  0  0  0  0  0  0  0  0  0
   19.3222  -10.5298  -16.7157 N   0  0  0  0  0  0  0  0  0  0  0  0
   20.7435  -10.1100  -16.5565 C   0  0  1  0  0  0  0  0  0  0  0  0
   21.3755  -10.3434  -17.8855 C   0  0  0  0  0  0  0  0  0  0  0  0
   22.7873   -9.9327  -18.0614 C   0  0  0  0  0  0  0  0  0  0  0  0
   23.3847  -10.3102  -19.3828 C   0  0  0  0  0  0  0  0  0  0  0  0
   24.7986   -9.7654  -19.4846 C   0  0  0  0  0  0  0  0  0  0  0  0
   25.3418  -10.0142  -20.7974 N   0  0  0  0  0  0  0  0  0  0  0  0
   20.6961   -8.7142  -16.0957 C   0  0  0  0  0  0  0  0  0  0  0  0
   19.8231   -7.9456  -16.5800 O   0  0  0  0  0  0  0  0  0  0  0  0
   21.5769   -8.1683  -15.1284 N   0  0  0  0  0  0  0  0  0  0  0  0
   21.5189   -6.7644  -14.7344 C   0  0  1  0  0  0  0  0  0  0  0  0
   22.2037   -6.5463  -13.4030 C   0  0  0  0  0  0  0  0  0  0  0  0
   22.2281   -4.8013  -12.9497 S   0  0  0  0  0  0  0  0  0  0  0  0
   22.1971   -5.9603  -15.7531 C   0  0  0  0  0  0  0  0  0  0  0  0
   21.6294   -4.7363  -16.1205 O   0  0  0  0  0  0  0  0  0  0  0  0
   23.2647   -6.2949  -16.3274 O   0  0  0  0  0  0  0  0  0  0  0  0
  2  1  1  1
  2  4  1  0
  3  2  1  0
  4  6  1  0
  4  5  1  1
  6  8  1  0
  7  6  2  0
  8  9  1  0
  9 10  1  6
 10 11  1  0
 11 12  1  0
 12 13  1  0
 13 14  1  0
 15 17  1  0
 15  9  1  0
 16 15  2  0
 18 17  1  0
 18 19  1  1
 19 20  1  0
 21 18  1  0
 22 21  1  0
 23 21  2  0
M  END
$$$$
