TKC.pdb
     RDKit          3D

 23 22  0  0  1  0  0  0  0  0999 V2000
   32.1361  -27.6961  -17.2116 C   0  0  0  0  0  0  0  0  0  0  0  0
   32.1188  -26.4177  -16.4198 C   0  0  1  0  0  0  0  0  0  0  0  0
   33.2536  -25.6279  -16.7006 O   0  0  0  0  0  0  0  0  0  0  0  0
   30.9203  -25.5476  -16.7384 C   0  0  2  0  0  0  0  0  0  0  0  0
   30.9561  -24.3002  -16.0030 N   0  0  0  0  0  0  0  0  0  0  0  0
   29.6444  -26.2876  -16.5480 C   0  0  0  0  0  0  0  0  0  0  0  0
   29.1963  -26.3822  -15.3966 O   0  0  0  0  0  0  0  0  0  0  0  0
   28.9661  -26.8638  -17.6462 N   0  0  0  0  0  0  0  0  0  0  0  0
   27.6675  -27.5744  -17.4717 C   0  0  1  0  0  0  0  0  0  0  0  0
   26.9251  -27.3587  -18.7454 C   0  0  0  0  0  0  0  0  0  0  0  0
   25.4461  -27.4202  -18.7026 C   0  0  0  0  0  0  0  0  0  0  0  0
   24.8227  -26.6279  -17.5939 C   0  0  0  0  0  0  0  0  0  0  0  0
   23.3126  -26.7832  -17.6344 C   0  0  0  0  0  0  0  0  0  0  0  0
   22.7054  -26.1037  -16.5163 N   0  0  0  0  0  0  0  0  0  0  0  0
   28.0165  -28.9665  -17.1508 C   0  0  0  0  0  0  0  0  0  0  0  0
   29.1373  -29.4102  -17.5176 O   0  0  0  0  0  0  0  0  0  0  0  0
   27.1663  -29.8544  -16.4447 N   0  0  0  0  0  0  0  0  0  0  0  0
   27.6100  -31.1794  -16.0240 C   0  0  1  0  0  0  0  0  0  0  0  0
   27.5690  -31.3117  -14.5173 C   0  0  0  0  0  0  0  0  0  0  0  0
   27.8730  -33.0100  -13.9938 S   0  0  0  0  0  0  0  0  0  0  0  0
   26.7205  -32.1832  -16.6118 C   0  0  0  0  0  0  0  0  0  0  0  0
   27.2892  -33.3428  -17.1480 O   0  0  0  0  0  0  0  0  0  0  0  0
   25.4688  -32.0763  -16.6698 O   0  0  0  0  0  0  0  0  0  0  0  0
  2  1  1  6
  2  4  1  0
  3  2  1  0
  4  6  1  0
  4  5  1  1
  6  8  1  0
  7  6  2  0
  8  9  1  0
  9 10  1  6
 10 11  1  0
 11 12  1  0
 12 13  1  0
 13 14  1  0
 15 17  1  0
 15  9  1  0
 16 15  2  0
 18 17  1  0
 18 19  1  1
 19 20  1  0
 21 18  1  0
 22 21  1  0
 23 21  2  0
M  END
$$$$
