TKC.pdb
     RDKit          3D

 23 22  0  0  1  0  0  0  0  0999 V2000
   14.0505   -5.5063   -8.1062 C   0  0  0  0  0  0  0  0  0  0  0  0
   15.2648   -6.0224   -8.8278 C   0  0  1  0  0  0  0  0  0  0  0  0
   16.4061   -5.9828   -7.9995 O   0  0  0  0  0  0  0  0  0  0  0  0
   15.1186   -7.4665   -9.2618 C   0  0  2  0  0  0  0  0  0  0  0  0
   14.9340   -8.3482   -8.1276 N   0  0  0  0  0  0  0  0  0  0  0  0
   16.2442   -7.8884  -10.1373 C   0  0  0  0  0  0  0  0  0  0  0  0
   17.1469   -8.5703   -9.6316 O   0  0  0  0  0  0  0  0  0  0  0  0
   16.2818   -7.5225  -11.5022 N   0  0  0  0  0  0  0  0  0  0  0  0
   17.3022   -8.0870  -12.4305 C   0  0  1  0  0  0  0  0  0  0  0  0
   16.5302   -8.6273  -13.5847 C   0  0  0  0  0  0  0  0  0  0  0  0
   16.2647  -10.0837  -13.6178 C   0  0  0  0  0  0  0  0  0  0  0  0
   15.3871  -10.5303  -14.7474 C   0  0  0  0  0  0  0  0  0  0  0  0
   15.1251  -12.0222  -14.6388 C   0  0  0  0  0  0  0  0  0  0  0  0
   14.2442  -12.4579  -15.6946 N   0  0  0  0  0  0  0  0  0  0  0  0
   18.2248   -6.9807  -12.7267 C   0  0  0  0  0  0  0  0  0  0  0  0
   17.7547   -5.8197  -12.8632 O   0  0  0  0  0  0  0  0  0  0  0  0
   19.6270   -7.1340  -12.8685 N   0  0  0  0  0  0  0  0  0  0  0  0
   20.5106   -5.9950  -13.0948 C   0  0  1  0  0  0  0  0  0  0  0  0
   21.9571   -6.3782  -12.8710 C   0  0  0  0  0  0  0  0  0  0  0  0
   23.0694   -5.0090  -13.2437 S   0  0  0  0  0  0  0  0  0  0  0  0
   20.3496   -5.5407  -14.4776 C   0  0  0  0  0  0  0  0  0  0  0  0
   20.2980   -4.1651  -14.7236 O   0  0  0  0  0  0  0  0  0  0  0  0
   20.2533   -6.3068  -15.4702 O   0  0  0  0  0  0  0  0  0  0  0  0
  2  1  1  1
  2  4  1  0
  3  2  1  0
  4  6  1  0
  4  5  1  1
  6  8  1  0
  7  6  2  0
  8  9  1  0
  9 10  1  6
 10 11  1  0
 11 12  1  0
 12 13  1  0
 13 14  1  0
 15 17  1  0
 15  9  1  0
 16 15  2  0
 18 17  1  0
 18 19  1  6
 19 20  1  0
 21 18  1  0
 22 21  1  0
 23 21  2  0
M  END
$$$$
