TKC.pdb
     RDKit          3D

 23 22  0  0  1  0  0  0  0  0999 V2000
   23.3576  -12.3773  -15.5528 C   0  0  0  0  0  0  0  0  0  0  0  0
   22.5134  -11.1334  -15.5133 C   0  0  1  0  0  0  0  0  0  0  0  0
   23.2543  -10.0008  -15.9117 O   0  0  0  0  0  0  0  0  0  0  0  0
   21.3257  -11.2015  -16.4512 C   0  0  2  0  0  0  0  0  0  0  0  0
   21.7433  -11.3320  -17.8320 N   0  0  0  0  0  0  0  0  0  0  0  0
   20.3985  -10.0583  -16.2394 C   0  0  0  0  0  0  0  0  0  0  0  0
   20.4483   -9.1160  -17.0426 O   0  0  0  0  0  0  0  0  0  0  0  0
   19.4903  -10.0484  -15.1563 N   0  0  0  0  0  0  0  0  0  0  0  0
   18.5362   -8.9216  -14.9522 C   0  0  1  0  0  0  0  0  0  0  0  0
   17.3410   -9.5290  -14.3019 C   0  0  0  0  0  0  0  0  0  0  0  0
   16.3426  -10.1918  -15.1719 C   0  0  0  0  0  0  0  0  0  0  0  0
   15.2396  -10.8879  -14.4342 C   0  0  0  0  0  0  0  0  0  0  0  0
   14.2673  -11.5067  -15.4231 C   0  0  0  0  0  0  0  0  0  0  0  0
   13.2703  -12.2855  -14.7304 N   0  0  0  0  0  0  0  0  0  0  0  0
   19.2674   -7.9202  -14.1615 C   0  0  0  0  0  0  0  0  0  0  0  0
   19.6670   -8.2328  -13.0081 O   0  0  0  0  0  0  0  0  0  0  0  0
   19.5592   -6.6097  -14.6165 N   0  0  0  0  0  0  0  0  0  0  0  0
   20.3598   -5.6779  -13.8289 C   0  0  1  0  0  0  0  0  0  0  0  0
   21.8381   -5.9375  -14.0200 C   0  0  0  0  0  0  0  0  0  0  0  0
   22.8389   -4.6167  -13.3096 S   0  0  0  0  0  0  0  0  0  0  0  0
   20.0586   -4.3126  -14.2644 C   0  0  0  0  0  0  0  0  0  0  0  0
   20.3538   -3.2574  -13.3956 O   0  0  0  0  0  0  0  0  0  0  0  0
   19.5482   -4.0177  -15.3753 O   0  0  0  0  0  0  0  0  0  0  0  0
  2  1  1  6
  2  4  1  0
  3  2  1  0
  4  6  1  0
  4  5  1  6
  6  8  1  0
  7  6  2  0
  8  9  1  0
  9 10  1  1
 10 11  1  0
 11 12  1  0
 12 13  1  0
 13 14  1  0
 15 17  1  0
 15  9  1  0
 16 15  2  0
 18 17  1  0
 18 19  1  6
 19 20  1  0
 21 18  1  0
 22 21  1  0
 23 21  2  0
M  END
$$$$
