TKC.pdb
     RDKit          3D

 23 22  0  0  1  0  0  0  0  0999 V2000
   23.3467  -13.5312  -14.5051 C   0  0  0  0  0  0  0  0  0  0  0  0
   22.9260  -12.1681  -14.9810 C   0  0  1  0  0  0  0  0  0  0  0  0
   24.0077  -11.4742  -15.5630 O   0  0  0  0  0  0  0  0  0  0  0  0
   21.8504  -12.2257  -16.0463 C   0  0  2  0  0  0  0  0  0  0  0  0
   22.3363  -12.8458  -17.2618 N   0  0  0  0  0  0  0  0  0  0  0  0
   21.2507  -10.8864  -16.2874 C   0  0  0  0  0  0  0  0  0  0  0  0
   21.8659  -10.1003  -17.0216 O   0  0  0  0  0  0  0  0  0  0  0  0
   20.0185  -10.5234  -15.6974 N   0  0  0  0  0  0  0  0  0  0  0  0
   19.3543   -9.2284  -16.0189 C   0  0  1  0  0  0  0  0  0  0  0  0
   17.8956   -9.4795  -15.8479 C   0  0  0  0  0  0  0  0  0  0  0  0
   17.1144   -9.8602  -17.0469 C   0  0  0  0  0  0  0  0  0  0  0  0
   15.6544  -10.0825  -16.7930 C   0  0  0  0  0  0  0  0  0  0  0  0
   14.9775  -10.5671  -18.0630 C   0  0  0  0  0  0  0  0  0  0  0  0
   13.5537  -10.6834  -17.8631 N   0  0  0  0  0  0  0  0  0  0  0  0
   19.9540   -8.2384  -15.1116 C   0  0  0  0  0  0  0  0  0  0  0  0
   20.2547   -8.5936  -13.9407 O   0  0  0  0  0  0  0  0  0  0  0  0
   20.2226   -6.8937  -15.4711 N   0  0  0  0  0  0  0  0  0  0  0  0
   20.8537   -5.9574  -14.5469 C   0  0  1  0  0  0  0  0  0  0  0  0
   22.3094   -5.7447  -14.9006 C   0  0  0  0  0  0  0  0  0  0  0  0
   23.0538   -4.4512  -13.8888 S   0  0  0  0  0  0  0  0  0  0  0  0
   20.1546   -4.6730  -14.6262 C   0  0  0  0  0  0  0  0  0  0  0  0
   20.0772   -3.8861  -13.4729 O   0  0  0  0  0  0  0  0  0  0  0  0
   19.6133   -4.2222  -15.6679 O   0  0  0  0  0  0  0  0  0  0  0  0
  2  1  1  6
  2  4  1  0
  3  2  1  0
  4  6  1  0
  4  5  1  6
  6  8  1  0
  7  6  2  0
  8  9  1  0
  9 10  1  1
 10 11  1  0
 11 12  1  0
 12 13  1  0
 13 14  1  0
 15 17  1  0
 15  9  1  0
 16 15  2  0
 18 17  1  0
 18 19  1  6
 19 20  1  0
 21 18  1  0
 22 21  1  0
 23 21  2  0
M  END
$$$$
