TKC.pdb
     RDKit          3D

 23 22  0  0  1  0  0  0  0  0999 V2000
   18.5976  -13.0594  -14.7338 C   0  0  0  0  0  0  0  0  0  0  0  0
   18.2048  -11.6315  -14.4723 C   0  0  1  0  0  0  0  0  0  0  0  0
   18.0321  -10.9205  -15.6785 O   0  0  0  0  0  0  0  0  0  0  0  0
   16.8896  -11.5123  -13.7300 C   0  0  2  0  0  0  0  0  0  0  0  0
   15.7927  -12.0678  -14.4956 N   0  0  0  0  0  0  0  0  0  0  0  0
   16.6340  -10.1129  -13.2966 C   0  0  0  0  0  0  0  0  0  0  0  0
   16.1612   -9.3262  -14.1292 O   0  0  0  0  0  0  0  0  0  0  0  0
   16.9216   -9.6951  -11.9772 N   0  0  0  0  0  0  0  0  0  0  0  0
   16.7157   -8.2831  -11.5466 C   0  0  1  0  0  0  0  0  0  0  0  0
   16.0063   -8.3684  -10.2391 C   0  0  0  0  0  0  0  0  0  0  0  0
   14.7573   -7.5892  -10.0781 C   0  0  0  0  0  0  0  0  0  0  0  0
   14.0776   -7.7704   -8.7549 C   0  0  0  0  0  0  0  0  0  0  0  0
   12.7623   -7.0115   -8.7421 C   0  0  0  0  0  0  0  0  0  0  0  0
   12.0548   -7.2491   -7.5077 N   0  0  0  0  0  0  0  0  0  0  0  0
   18.0551   -7.6764  -11.5208 C   0  0  0  0  0  0  0  0  0  0  0  0
   18.8740   -8.0531  -10.6404 O   0  0  0  0  0  0  0  0  0  0  0  0
   18.4939   -6.6845  -12.4336 N   0  0  0  0  0  0  0  0  0  0  0  0
   19.8180   -6.0783  -12.3394 C   0  0  1  0  0  0  0  0  0  0  0  0
   20.8694   -6.9740  -12.9570 C   0  0  0  0  0  0  0  0  0  0  0  0
   22.4422   -6.1134  -13.1482 S   0  0  0  0  0  0  0  0  0  0  0  0
   19.8038   -4.8011  -13.0557 C   0  0  0  0  0  0  0  0  0  0  0  0
   18.7462   -4.5429  -13.9333 O   0  0  0  0  0  0  0  0  0  0  0  0
   20.6837   -3.9105  -12.9370 O   0  0  0  0  0  0  0  0  0  0  0  0
  2  1  1  6
  2  4  1  0
  3  2  1  0
  4  6  1  0
  4  5  1  6
  6  8  1  0
  7  6  2  0
  8  9  1  0
  9 10  1  1
 10 11  1  0
 11 12  1  0
 12 13  1  0
 13 14  1  0
 15 17  1  0
 15  9  1  0
 16 15  2  0
 18 17  1  0
 18 19  1  6
 19 20  1  0
 21 18  1  0
 22 21  1  0
 23 21  2  0
M  END
$$$$
