TKC.pdb
     RDKit          3D

 23 22  0  0  1  0  0  0  0  0999 V2000
   26.2048  -17.5369  -14.6231 C   0  0  0  0  0  0  0  0  0  0  0  0
   26.9478  -18.7071  -15.2065 C   0  0  1  0  0  0  0  0  0  0  0  0
   28.2849  -18.3670  -15.5014 O   0  0  0  0  0  0  0  0  0  0  0  0
   27.0206  -19.8863  -14.2583 C   0  0  2  0  0  0  0  0  0  0  0  0
   27.8742  -20.9355  -14.7764 N   0  0  0  0  0  0  0  0  0  0  0  0
   25.6646  -20.3784  -13.8965 C   0  0  0  0  0  0  0  0  0  0  0  0
   25.0457  -21.0425  -14.7400 O   0  0  0  0  0  0  0  0  0  0  0  0
   25.1014  -20.0967  -12.6310 N   0  0  0  0  0  0  0  0  0  0  0  0
   23.7696  -20.6365  -12.2353 C   0  0  1  0  0  0  0  0  0  0  0  0
   23.7584  -20.6073  -10.7456 C   0  0  0  0  0  0  0  0  0  0  0  0
   22.5749  -21.1652  -10.0521 C   0  0  0  0  0  0  0  0  0  0  0  0
   22.6612  -21.1394   -8.5563 C   0  0  0  0  0  0  0  0  0  0  0  0
   21.4620  -21.8532   -7.9576 C   0  0  0  0  0  0  0  0  0  0  0  0
   21.5351  -21.8413   -6.5171 N   0  0  0  0  0  0  0  0  0  0  0  0
   22.7791  -19.7836  -12.9093 C   0  0  0  0  0  0  0  0  0  0  0  0
   22.9468  -18.5349  -12.8977 O   0  0  0  0  0  0  0  0  0  0  0  0
   21.6339  -20.2785  -13.5826 N   0  0  0  0  0  0  0  0  0  0  0  0
   20.6674  -19.3903  -14.2200 C   0  0  1  0  0  0  0  0  0  0  0  0
   20.7966  -19.4403  -15.7266 C   0  0  0  0  0  0  0  0  0  0  0  0
   22.2497  -20.3789  -16.2352 S   0  0  0  0  0  0  0  0  0  0  0  0
   19.3172  -19.8165  -13.8461 C   0  0  0  0  0  0  0  0  0  0  0  0
   18.2365  -19.0200  -14.2375 O   0  0  0  0  0  0  0  0  0  0  0  0
   19.0570  -20.8582  -13.1914 O   0  0  0  0  0  0  0  0  0  0  0  0
  2  1  1  1
  2  4  1  0
  3  2  1  0
  4  6  1  0
  4  5  1  6
  6  8  1  0
  7  6  2  0
  8  9  1  0
  9 10  1  1
 10 11  1  0
 11 12  1  0
 12 13  1  0
 13 14  1  0
 15 17  1  0
 15  9  1  0
 16 15  2  0
 18 17  1  0
 18 19  1  6
 19 20  1  0
 21 18  1  0
 22 21  1  0
 23 21  2  0
M  END
$$$$
