TKC.pdb
     RDKit          3D

 23 22  0  0  1  0  0  0  0  0999 V2000
   17.3821  -12.9407  -16.4090 C   0  0  0  0  0  0  0  0  0  0  0  0
   15.9613  -13.1256  -16.8661 C   0  0  1  0  0  0  0  0  0  0  0  0
   15.7221  -14.4582  -17.2629 O   0  0  0  0  0  0  0  0  0  0  0  0
   14.9521  -12.8314  -15.7752 C   0  0  2  0  0  0  0  0  0  0  0  0
   13.5996  -13.1144  -16.2094 N   0  0  0  0  0  0  0  0  0  0  0  0
   15.1068  -11.4491  -15.2490 C   0  0  0  0  0  0  0  0  0  0  0  0
   14.8199  -10.5076  -16.0018 O   0  0  0  0  0  0  0  0  0  0  0  0
   15.5664  -11.2184  -13.9323 N   0  0  0  0  0  0  0  0  0  0  0  0
   15.7530   -9.8368  -13.4050 C   0  0  1  0  0  0  0  0  0  0  0  0
   15.5389   -9.9431  -11.9343 C   0  0  0  0  0  0  0  0  0  0  0  0
   14.1485   -9.8657  -11.4306 C   0  0  0  0  0  0  0  0  0  0  0  0
   14.0102  -10.0712   -9.9528 C   0  0  0  0  0  0  0  0  0  0  0  0
   12.5455  -10.0051   -9.5573 C   0  0  0  0  0  0  0  0  0  0  0  0
   12.3822  -10.3519   -8.1667 N   0  0  0  0  0  0  0  0  0  0  0  0
   17.0966   -9.4245  -13.8379 C   0  0  0  0  0  0  0  0  0  0  0  0
   18.0619  -10.2125  -13.6508 O   0  0  0  0  0  0  0  0  0  0  0  0
   17.3827   -8.1844  -14.4624 N   0  0  0  0  0  0  0  0  0  0  0  0
   18.7208   -7.8484  -14.9377 C   0  0  1  0  0  0  0  0  0  0  0  0
   18.8122   -7.9859  -16.4417 C   0  0  0  0  0  0  0  0  0  0  0  0
   17.5781   -6.9694  -17.2752 S   0  0  0  0  0  0  0  0  0  0  0  0
   19.0175   -6.4623  -14.5701 C   0  0  0  0  0  0  0  0  0  0  0  0
   18.0009   -5.6958  -13.9917 O   0  0  0  0  0  0  0  0  0  0  0  0
   20.1326   -5.9059  -14.7388 O   0  0  0  0  0  0  0  0  0  0  0  0
  2  1  1  1
  2  4  1  0
  3  2  1  0
  4  6  1  0
  4  5  1  6
  6  8  1  0
  7  6  2  0
  8  9  1  0
  9 10  1  1
 10 11  1  0
 11 12  1  0
 12 13  1  0
 13 14  1  0
 15 17  1  0
 15  9  1  0
 16 15  2  0
 18 17  1  0
 18 19  1  6
 19 20  1  0
 21 18  1  0
 22 21  1  0
 23 21  2  0
M  END
$$$$
