TKC.pdb
     RDKit          3D

 23 22  0  0  1  0  0  0  0  0999 V2000
   20.2864  -11.3713  -16.0604 C   0  0  0  0  0  0  0  0  0  0  0  0
   19.2422  -10.3673  -15.6562 C   0  0  1  0  0  0  0  0  0  0  0  0
   18.4887   -9.9383  -16.7691 O   0  0  0  0  0  0  0  0  0  0  0  0
   18.2395  -10.9300  -14.6698 C   0  0  2  0  0  0  0  0  0  0  0  0
   17.5482  -12.0821  -15.2107 N   0  0  0  0  0  0  0  0  0  0  0  0
   17.3063   -9.8793  -14.1831 C   0  0  0  0  0  0  0  0  0  0  0  0
   16.2426   -9.7196  -14.7983 O   0  0  0  0  0  0  0  0  0  0  0  0
   17.6241   -9.0891  -13.0549 N   0  0  0  0  0  0  0  0  0  0  0  0
   16.7268   -7.9902  -12.5979 C   0  0  1  0  0  0  0  0  0  0  0  0
   16.5694   -8.1934  -11.1302 C   0  0  0  0  0  0  0  0  0  0  0  0
   15.7590   -7.2078  -10.3787 C   0  0  0  0  0  0  0  0  0  0  0  0
   15.5665   -7.5367   -8.9295 C   0  0  0  0  0  0  0  0  0  0  0  0
   14.6625   -6.5029   -8.2812 C   0  0  0  0  0  0  0  0  0  0  0  0
   14.3875   -6.8613   -6.9114 N   0  0  0  0  0  0  0  0  0  0  0  0
   17.3836   -6.7420  -13.0142 C   0  0  0  0  0  0  0  0  0  0  0  0
   18.6256   -6.6231  -12.8387 O   0  0  0  0  0  0  0  0  0  0  0  0
   16.7048   -5.6495  -13.6103 N   0  0  0  0  0  0  0  0  0  0  0  0
   17.4028   -4.4347  -14.0180 C   0  0  1  0  0  0  0  0  0  0  0  0
   17.1901   -4.1553  -15.4897 C   0  0  0  0  0  0  0  0  0  0  0  0
   18.6580   -4.5545  -16.4577 S   0  0  0  0  0  0  0  0  0  0  0  0
   16.8810   -3.3079  -13.2419 C   0  0  0  0  0  0  0  0  0  0  0  0
   15.6994   -3.4908  -12.5166 O   0  0  0  0  0  0  0  0  0  0  0  0
   17.4247   -2.1756  -13.1800 O   0  0  0  0  0  0  0  0  0  0  0  0
  2  1  1  6
  2  4  1  0
  3  2  1  0
  4  6  1  0
  4  5  1  6
  6  8  1  0
  7  6  2  0
  8  9  1  0
  9 10  1  1
 10 11  1  0
 11 12  1  0
 12 13  1  0
 13 14  1  0
 15 17  1  0
 15  9  1  0
 16 15  2  0
 18 17  1  0
 18 19  1  6
 19 20  1  0
 21 18  1  0
 22 21  1  0
 23 21  2  0
M  END
$$$$
