TKC.pdb
     RDKit          3D

 23 22  0  0  1  0  0  0  0  0999 V2000
   19.7612  -10.1263  -14.6306 C   0  0  0  0  0  0  0  0  0  0  0  0
   18.4880   -9.4392  -14.2200 C   0  0  1  0  0  0  0  0  0  0  0  0
   17.9396   -8.6995  -15.2889 O   0  0  0  0  0  0  0  0  0  0  0  0
   17.4083  -10.4127  -13.7939 C   0  0  2  0  0  0  0  0  0  0  0  0
   17.0872  -11.3494  -14.8509 N   0  0  0  0  0  0  0  0  0  0  0  0
   16.2091   -9.7025  -13.2749 C   0  0  0  0  0  0  0  0  0  0  0  0
   15.3095   -9.4215  -14.0794 O   0  0  0  0  0  0  0  0  0  0  0  0
   16.1006   -9.3598  -11.9078 N   0  0  0  0  0  0  0  0  0  0  0  0
   14.9309   -8.5959  -11.3884 C   0  0  1  0  0  0  0  0  0  0  0  0
   14.6123   -9.2105  -10.0689 C   0  0  0  0  0  0  0  0  0  0  0  0
   13.4604   -8.6672   -9.3134 C   0  0  0  0  0  0  0  0  0  0  0  0
   12.3219   -9.6261   -9.1408 C   0  0  0  0  0  0  0  0  0  0  0  0
   11.1966   -8.9580   -8.3704 C   0  0  0  0  0  0  0  0  0  0  0  0
   10.0893   -9.8675   -8.2046 N   0  0  0  0  0  0  0  0  0  0  0  0
   15.3551   -7.1880  -11.3639 C   0  0  0  0  0  0  0  0  0  0  0  0
   16.5022   -6.9083  -10.9240 O   0  0  0  0  0  0  0  0  0  0  0  0
   14.5504   -6.1097  -11.8104 N   0  0  0  0  0  0  0  0  0  0  0  0
   15.0574   -4.7431  -11.8790 C   0  0  1  0  0  0  0  0  0  0  0  0
   14.7572   -4.1204  -13.2249 C   0  0  0  0  0  0  0  0  0  0  0  0
   15.6275   -4.9702  -14.5558 S   0  0  0  0  0  0  0  0  0  0  0  0
   14.4103   -3.9470  -10.8340 C   0  0  0  0  0  0  0  0  0  0  0  0
   14.8550   -2.6379  -10.6243 O   0  0  0  0  0  0  0  0  0  0  0  0
   13.4735   -4.3604  -10.1039 O   0  0  0  0  0  0  0  0  0  0  0  0
  2  1  1  6
  2  4  1  0
  3  2  1  0
  4  6  1  0
  4  5  1  6
  6  8  1  0
  7  6  2  0
  8  9  1  0
  9 10  1  1
 10 11  1  0
 11 12  1  0
 12 13  1  0
 13 14  1  0
 15 17  1  0
 15  9  1  0
 16 15  2  0
 18 17  1  0
 18 19  1  6
 19 20  1  0
 21 18  1  0
 22 21  1  0
 23 21  2  0
M  END
$$$$
