TKC.pdb
     RDKit          3D

 23 22  0  0  1  0  0  0  0  0999 V2000
   20.4835   -9.5874  -13.8698 C   0  0  0  0  0  0  0  0  0  0  0  0
   19.1487   -8.9933  -13.5137 C   0  0  1  0  0  0  0  0  0  0  0  0
   18.6460   -8.1997  -14.5662 O   0  0  0  0  0  0  0  0  0  0  0  0
   18.0915  -10.0454  -13.2477 C   0  0  2  0  0  0  0  0  0  0  0  0
   17.8068  -10.8272  -14.4332 N   0  0  0  0  0  0  0  0  0  0  0  0
   16.8683   -9.4485  -12.6484 C   0  0  0  0  0  0  0  0  0  0  0  0
   16.0325   -8.9492  -13.4150 O   0  0  0  0  0  0  0  0  0  0  0  0
   16.6671   -9.4515  -11.2492 N   0  0  0  0  0  0  0  0  0  0  0  0
   15.4864   -8.7828  -10.6323 C   0  0  1  0  0  0  0  0  0  0  0  0
   14.7810   -9.8512   -9.8701 C   0  0  0  0  0  0  0  0  0  0  0  0
   13.4692  -10.3125  -10.3793 C   0  0  0  0  0  0  0  0  0  0  0  0
   12.8640  -11.4433   -9.6043 C   0  0  0  0  0  0  0  0  0  0  0  0
   11.5034  -11.7940  -10.1803 C   0  0  0  0  0  0  0  0  0  0  0  0
   10.9070  -12.8794   -9.4408 N   0  0  0  0  0  0  0  0  0  0  0  0
   16.0297   -7.6697   -9.8394 C   0  0  0  0  0  0  0  0  0  0  0  0
   16.9706   -7.9021   -9.0341 O   0  0  0  0  0  0  0  0  0  0  0  0
   15.5617   -6.3342   -9.9228 N   0  0  0  0  0  0  0  0  0  0  0  0
   16.0656   -5.2819   -9.0464 C   0  0  1  0  0  0  0  0  0  0  0  0
   16.1154   -3.9530   -9.7681 C   0  0  0  0  0  0  0  0  0  0  0  0
   16.5091   -2.6023   -8.6405 S   0  0  0  0  0  0  0  0  0  0  0  0
   15.1719   -5.1610   -7.8927 C   0  0  0  0  0  0  0  0  0  0  0  0
   15.7257   -4.8146   -6.6562 O   0  0  0  0  0  0  0  0  0  0  0  0
   13.9290   -5.3482   -7.9343 O   0  0  0  0  0  0  0  0  0  0  0  0
  2  1  1  6
  2  4  1  0
  3  2  1  0
  4  6  1  0
  4  5  1  6
  6  8  1  0
  7  6  2  0
  8  9  1  0
  9 10  1  1
 10 11  1  0
 11 12  1  0
 12 13  1  0
 13 14  1  0
 15 17  1  0
 15  9  1  0
 16 15  2  0
 18 17  1  0
 18 19  1  6
 19 20  1  0
 21 18  1  0
 22 21  1  0
 23 21  2  0
M  END
$$$$
