ENC.pdb
     RDKit          3D

 24 23  0  0  1  0  0  0  0  0999 V2000
    7.6677  -17.4239   13.0627 N   0  0  0  0  0  0  0  0  0  0  0  0
    6.6586  -17.3857   14.0705 C   0  0  1  0  0  0  0  0  0  0  0  0
    5.3004  -17.5941   13.4485 C   0  0  0  0  0  0  0  0  0  0  0  0
    5.3971  -18.4800   12.2519 C   0  0  0  0  0  0  0  0  0  0  0  0
    4.1059  -18.7137   11.5955 C   0  0  0  0  0  0  0  0  0  0  0  0
    3.4243  -19.7636   11.6528 O   0  0  0  0  0  0  0  0  0  0  0  0
    6.9375  -18.4583   15.0712 C   0  0  0  0  0  0  0  0  0  0  0  0
    6.1451  -18.6082   16.0125 O   0  0  0  0  0  0  0  0  0  0  0  0
    3.5896  -17.6614   10.8335 O   0  0  0  0  0  0  0  0  0  0  0  0
    8.1001  -23.1515   13.4162 N   0  0  0  0  0  0  0  0  0  0  0  0
    7.9501  -22.4306   14.6174 C   0  0  0  0  0  0  0  0  0  0  0  0
    6.8250  -22.5277   15.2006 O   0  0  0  0  0  0  0  0  0  0  0  0
    8.9549  -21.5838   15.2604 C   0  0  0  0  0  0  0  0  0  0  0  0
    8.3951  -20.3414   15.8843 C   0  0  2  0  0  0  0  0  0  0  0  0
    8.1061  -19.2942   14.9348 N   0  0  0  0  0  0  0  0  0  0  0  0
    9.3683  -19.8049   16.8954 C   0  0  0  0  0  0  0  0  0  0  0  0
   10.3903  -19.1583   16.5436 O   0  0  0  0  0  0  0  0  0  0  0  0
    9.1888  -19.9972   18.2929 N   0  0  0  0  0  0  0  0  0  0  0  0
   10.1454  -19.4989   19.2460 C   0  0  1  0  0  0  0  0  0  0  0  0
    9.5526  -19.3770   20.6354 C   0  0  0  0  0  0  0  0  0  0  0  0
   10.7804  -18.7519   21.8125 S   0  0  0  0  0  0  0  0  0  0  0  0
   11.3671  -20.3336   19.2759 C   0  0  0  0  0  0  0  0  0  0  0  0
   12.5903  -19.7035   19.4223 O   0  0  0  0  0  0  0  0  0  0  0  0
   11.2753  -21.5822   19.1693 O   0  0  0  0  0  0  0  0  0  0  0  0
  2  1  1  6
  3  4  1  0
  3  2  1  0
  5  9  1  0
  5  4  1  0
  6  5  2  0
  7  8  2  0
  7  2  1  0
 11 10  1  0
 11 13  1  0
 12 11  2  0
 14 13  1  6
 14 15  1  0
 15  7  1  0
 16 14  1  0
 17 16  2  0
 18 16  1  0
 19 18  1  0
 20 21  1  0
 19 20  1  1
 22 19  1  0
 22 23  1  0
 24 22  2  0
M  END
$$$$
