ENC.pdb
     RDKit          3D

 24 23  0  0  1  0  0  0  0  0999 V2000
   11.2246  -17.2136   19.1614 N   0  0  0  0  0  0  0  0  0  0  0  0
   11.0701  -17.9334   20.3835 C   0  0  1  0  0  0  0  0  0  0  0  0
   12.3808  -17.9714   21.1288 C   0  0  0  0  0  0  0  0  0  0  0  0
   13.2682  -16.8530   20.6956 C   0  0  0  0  0  0  0  0  0  0  0  0
   14.5841  -16.8700   21.3443 C   0  0  0  0  0  0  0  0  0  0  0  0
   15.0078  -16.0417   22.1836 O   0  0  0  0  0  0  0  0  0  0  0  0
   10.0261  -17.2581   21.2104 C   0  0  0  0  0  0  0  0  0  0  0  0
    9.7553  -16.0733   20.9672 O   0  0  0  0  0  0  0  0  0  0  0  0
   15.4454  -17.9125   20.9893 O   0  0  0  0  0  0  0  0  0  0  0  0
    4.8565  -17.5797   23.6787 N   0  0  0  0  0  0  0  0  0  0  0  0
    6.1213  -17.9163   24.2005 C   0  0  0  0  0  0  0  0  0  0  0  0
    6.2921  -17.7210   25.4446 O   0  0  0  0  0  0  0  0  0  0  0  0
    7.2553  -18.4663   23.4577 C   0  0  0  0  0  0  0  0  0  0  0  0
    8.2021  -17.4285   22.9355 C   0  0  2  0  0  0  0  0  0  0  0  0
    9.3554  -17.9790   22.2657 N   0  0  0  0  0  0  0  0  0  0  0  0
    8.6823  -16.5700   24.0711 C   0  0  0  0  0  0  0  0  0  0  0  0
    9.7253  -16.8579   24.7159 O   0  0  0  0  0  0  0  0  0  0  0  0
    7.9901  -15.3954   24.4755 N   0  0  0  0  0  0  0  0  0  0  0  0
    8.5187  -14.5291   25.4963 C   0  0  1  0  0  0  0  0  0  0  0  0
    7.6978  -13.2644   25.6492 C   0  0  0  0  0  0  0  0  0  0  0  0
    6.0077  -13.6475   26.1786 S   0  0  0  0  0  0  0  0  0  0  0  0
    8.6371  -15.2295   26.7946 C   0  0  0  0  0  0  0  0  0  0  0  0
    8.0402  -16.4706   26.9287 O   0  0  0  0  0  0  0  0  0  0  0  0
    9.2683  -14.6939   27.7399 O   0  0  0  0  0  0  0  0  0  0  0  0
  2  1  1  6
  3  4  1  0
  3  2  1  0
  5  9  1  0
  5  4  1  0
  6  5  2  0
  7  8  2  0
  7  2  1  0
 11 10  1  0
 11 13  1  0
 12 11  2  0
 14 13  1  1
 14 15  1  0
 15  7  1  0
 16 14  1  0
 17 16  2  0
 18 16  1  0
 19 18  1  0
 20 21  1  0
 19 20  1  1
 22 19  1  0
 22 23  1  0
 24 22  2  0
M  END
$$$$
