ENC.pdb
     RDKit          3D

 24 23  0  0  1  0  0  0  0  0999 V2000
   10.1075  -18.3409   20.8929 N   0  0  0  0  0  0  0  0  0  0  0  0
   11.1426  -17.3592   20.8731 C   0  0  1  0  0  0  0  0  0  0  0  0
   11.6919  -17.2170   19.4756 C   0  0  0  0  0  0  0  0  0  0  0  0
   12.0389  -18.5514   18.9055 C   0  0  0  0  0  0  0  0  0  0  0  0
   12.5969  -18.4775   17.5505 C   0  0  0  0  0  0  0  0  0  0  0  0
   11.9819  -18.7023   16.4821 O   0  0  0  0  0  0  0  0  0  0  0  0
   10.5797  -16.0575   21.3408 C   0  0  0  0  0  0  0  0  0  0  0  0
   11.3511  -15.0979   21.4834 O   0  0  0  0  0  0  0  0  0  0  0  0
   13.9449  -18.1218   17.4453 O   0  0  0  0  0  0  0  0  0  0  0  0
    7.4586  -12.9519   19.4798 N   0  0  0  0  0  0  0  0  0  0  0  0
    7.1562  -14.1666   20.1265 C   0  0  0  0  0  0  0  0  0  0  0  0
    6.7935  -15.1308   19.3822 O   0  0  0  0  0  0  0  0  0  0  0  0
    7.2170  -14.4305   21.5642 C   0  0  0  0  0  0  0  0  0  0  0  0
    8.6011  -14.6886   22.0778 C   0  0  2  0  0  0  0  0  0  0  0  0
    9.1687  -15.9327   21.6174 N   0  0  0  0  0  0  0  0  0  0  0  0
    8.5842  -14.7061   23.5800 C   0  0  0  0  0  0  0  0  0  0  0  0
    8.6659  -15.7850   24.2247 O   0  0  0  0  0  0  0  0  0  0  0  0
    8.4757  -13.5143   24.3482 N   0  0  0  0  0  0  0  0  0  0  0  0
    8.3372  -13.5569   25.7803 C   0  0  1  0  0  0  0  0  0  0  0  0
    7.6698  -12.3096   26.3240 C   0  0  0  0  0  0  0  0  0  0  0  0
    7.7276  -12.2792   28.1349 S   0  0  0  0  0  0  0  0  0  0  0  0
    7.6079  -14.7675   26.2193 C   0  0  0  0  0  0  0  0  0  0  0  0
    8.1522  -15.5294   27.2381 O   0  0  0  0  0  0  0  0  0  0  0  0
    6.5227  -15.0793   25.6681 O   0  0  0  0  0  0  0  0  0  0  0  0
  2  1  1  6
  3  4  1  0
  3  2  1  0
  5  9  1  0
  5  4  1  0
  6  5  2  0
  7  8  2  0
  7  2  1  0
 11 10  1  0
 11 13  1  0
 12 11  2  0
 14 13  1  6
 14 15  1  0
 15  7  1  0
 16 14  1  0
 17 16  2  0
 18 16  1  0
 19 18  1  0
 20 21  1  0
 19 20  1  6
 22 19  1  0
 22 23  1  0
 24 22  2  0
M  END
$$$$
