ENC.pdb
     RDKit          3D

 24 23  0  0  1  0  0  0  0  0999 V2000
   13.7021  -16.6161   18.4787 N   0  0  0  0  0  0  0  0  0  0  0  0
   14.1202  -15.2544   18.3973 C   0  0  1  0  0  0  0  0  0  0  0  0
   14.6689  -14.9647   17.0226 C   0  0  0  0  0  0  0  0  0  0  0  0
   14.6437  -16.1915   16.1737 C   0  0  0  0  0  0  0  0  0  0  0  0
   15.1988  -15.9817   14.8319 C   0  0  0  0  0  0  0  0  0  0  0  0
   16.4090  -16.0407   14.5126 O   0  0  0  0  0  0  0  0  0  0  0  0
   12.9479  -14.3739   18.6806 C   0  0  0  0  0  0  0  0  0  0  0  0
   13.1111  -13.1456   18.6499 O   0  0  0  0  0  0  0  0  0  0  0  0
   14.2865  -15.6878   13.8141 O   0  0  0  0  0  0  0  0  0  0  0  0
    8.0726  -12.5256   19.5307 N   0  0  0  0  0  0  0  0  0  0  0  0
    8.2465  -13.4382   18.4714 C   0  0  0  0  0  0  0  0  0  0  0  0
    7.3155  -13.4890   17.6078 O   0  0  0  0  0  0  0  0  0  0  0  0
    9.3868  -14.3311   18.2648 C   0  0  0  0  0  0  0  0  0  0  0  0
   10.5070  -14.1232   19.2384 C   0  0  2  0  0  0  0  0  0  0  0  0
   11.6603  -14.9517   18.9823 N   0  0  0  0  0  0  0  0  0  0  0  0
   10.0214  -14.4096   20.6311 C   0  0  0  0  0  0  0  0  0  0  0  0
    9.0585  -13.7726   21.1343 O   0  0  0  0  0  0  0  0  0  0  0  0
   10.6188  -15.4079   21.4491 N   0  0  0  0  0  0  0  0  0  0  0  0
   10.1505  -15.6579   22.7871 C   0  0  1  0  0  0  0  0  0  0  0  0
    8.8394  -16.4180   22.7974 C   0  0  0  0  0  0  0  0  0  0  0  0
    7.4487  -15.3185   22.4224 S   0  0  0  0  0  0  0  0  0  0  0  0
   11.1674  -16.3687   23.5940 C   0  0  0  0  0  0  0  0  0  0  0  0
   10.8928  -16.6161   24.9274 O   0  0  0  0  0  0  0  0  0  0  0  0
   12.2472  -16.7305   23.0632 O   0  0  0  0  0  0  0  0  0  0  0  0
  2  1  1  6
  3  4  1  0
  3  2  1  0
  5  9  1  0
  5  4  1  0
  6  5  2  0
  7  8  2  0
  7  2  1  0
 11 10  1  0
 11 13  1  0
 12 11  2  0
 14 13  1  6
 14 15  1  0
 15  7  1  0
 16 14  1  0
 17 16  2  0
 18 16  1  0
 19 18  1  0
 20 21  1  0
 19 20  1  6
 22 19  1  0
 22 23  1  0
 24 22  2  0
M  END
$$$$
