ENC.pdb
     RDKit          3D

 24 23  0  0  1  0  0  0  0  0999 V2000
   13.8489  -16.5035   18.7258 N   0  0  0  0  0  0  0  0  0  0  0  0
   14.0811  -15.0986   18.8135 C   0  0  1  0  0  0  0  0  0  0  0  0
   14.4199  -14.5459   17.4517 C   0  0  0  0  0  0  0  0  0  0  0  0
   14.5646  -15.6467   16.4551 C   0  0  0  0  0  0  0  0  0  0  0  0
   15.0279  -15.1851   15.1418 C   0  0  0  0  0  0  0  0  0  0  0  0
   14.3803  -15.2280   14.0699 O   0  0  0  0  0  0  0  0  0  0  0  0
   12.8510  -14.4402   19.3458 C   0  0  0  0  0  0  0  0  0  0  0  0
   12.8883  -13.2245   19.5845 O   0  0  0  0  0  0  0  0  0  0  0  0
   16.3166  -14.6460   15.0847 O   0  0  0  0  0  0  0  0  0  0  0  0
    9.2984  -13.0869   17.9577 N   0  0  0  0  0  0  0  0  0  0  0  0
    8.7664  -14.3173   18.3916 C   0  0  0  0  0  0  0  0  0  0  0  0
    7.8188  -14.8021   17.6973 O   0  0  0  0  0  0  0  0  0  0  0  0
    9.1927  -15.0918   19.5573 C   0  0  0  0  0  0  0  0  0  0  0  0
   10.4786  -14.6193   20.1650 C   0  0  2  0  0  0  0  0  0  0  0  0
   11.6531  -15.2125   19.5731 N   0  0  0  0  0  0  0  0  0  0  0  0
   10.4835  -14.9309   21.6348 C   0  0  0  0  0  0  0  0  0  0  0  0
    9.5482  -14.5530   22.3889 O   0  0  0  0  0  0  0  0  0  0  0  0
   11.5367  -15.6637   22.2482 N   0  0  0  0  0  0  0  0  0  0  0  0
   11.4326  -16.1291   23.6063 C   0  0  1  0  0  0  0  0  0  0  0  0
   10.1953  -16.9769   23.8231 C   0  0  0  0  0  0  0  0  0  0  0  0
   10.1551  -17.6483   25.5058 S   0  0  0  0  0  0  0  0  0  0  0  0
   12.6458  -16.8681   24.0212 C   0  0  0  0  0  0  0  0  0  0  0  0
   12.8499  -17.0911   25.3715 O   0  0  0  0  0  0  0  0  0  0  0  0
   13.4586  -17.2751   23.1538 O   0  0  0  0  0  0  0  0  0  0  0  0
  2  1  1  6
  3  4  1  0
  3  2  1  0
  5  9  1  0
  5  4  1  0
  6  5  2  0
  7  8  2  0
  7  2  1  0
 11 10  1  0
 11 13  1  0
 12 11  2  0
 14 13  1  6
 14 15  1  0
 15  7  1  0
 16 14  1  0
 17 16  2  0
 18 16  1  0
 19 18  1  0
 20 21  1  0
 19 20  1  6
 22 19  1  0
 22 23  1  0
 24 22  2  0
M  END
$$$$
