ENC.pdb
     RDKit          3D

 24 23  0  0  1  0  0  0  0  0999 V2000
    8.6615  -16.9583   14.3476 N   0  0  0  0  0  0  0  0  0  0  0  0
    9.9312  -16.5076   14.8169 C   0  0  1  0  0  0  0  0  0  0  0  0
   10.7400  -15.9581   13.6685 C   0  0  0  0  0  0  0  0  0  0  0  0
   10.5461  -16.7847   12.4417 C   0  0  0  0  0  0  0  0  0  0  0  0
   11.1906  -16.2188   11.2513 C   0  0  0  0  0  0  0  0  0  0  0  0
   10.6175  -15.6188   10.3124 O   0  0  0  0  0  0  0  0  0  0  0  0
    9.7147  -15.4495   15.8481 C   0  0  0  0  0  0  0  0  0  0  0  0
    9.8123  -14.2624   15.5053 O   0  0  0  0  0  0  0  0  0  0  0  0
   12.5779  -16.3651   11.1593 O   0  0  0  0  0  0  0  0  0  0  0  0
    7.9291  -12.2966   19.4867 N   0  0  0  0  0  0  0  0  0  0  0  0
    7.1832  -13.1024   18.6039 C   0  0  0  0  0  0  0  0  0  0  0  0
    5.9197  -12.9719   18.6468 O   0  0  0  0  0  0  0  0  0  0  0  0
    7.7136  -14.0717   17.6450 C   0  0  0  0  0  0  0  0  0  0  0  0
    8.8968  -14.8413   18.1487 C   0  0  2  0  0  0  0  0  0  0  0  0
    9.4002  -15.8134   17.2088 N   0  0  0  0  0  0  0  0  0  0  0  0
    8.5266  -15.5591   19.4156 C   0  0  0  0  0  0  0  0  0  0  0  0
    8.0703  -14.9386   20.4121 O   0  0  0  0  0  0  0  0  0  0  0  0
    8.6704  -16.9670   19.5559 N   0  0  0  0  0  0  0  0  0  0  0  0
    9.7109  -17.5354   20.3722 C   0  0  1  0  0  0  0  0  0  0  0  0
   11.0738  -17.4156   19.7203 C   0  0  0  0  0  0  0  0  0  0  0  0
   11.4186  -18.8503   18.6686 S   0  0  0  0  0  0  0  0  0  0  0  0
    9.7291  -16.9343   21.7244 C   0  0  0  0  0  0  0  0  0  0  0  0
   10.1303  -15.6162   21.8524 O   0  0  0  0  0  0  0  0  0  0  0  0
    9.3853  -17.6202   22.7194 O   0  0  0  0  0  0  0  0  0  0  0  0
  2  1  1  6
  3  4  1  0
  3  2  1  0
  5  9  1  0
  5  4  1  0
  6  5  2  0
  7  8  2  0
  7  2  1  0
 11 10  1  0
 11 13  1  0
 12 11  2  0
 14 13  1  6
 14 15  1  0
 15  7  1  0
 16 14  1  0
 17 16  2  0
 18 16  1  0
 19 18  1  0
 20 21  1  0
 19 20  1  6
 22 19  1  0
 22 23  1  0
 24 22  2  0
M  END
$$$$
