ENC.pdb
     RDKit          3D

 24 23  0  0  1  0  0  0  0  0999 V2000
   11.3960  -16.6493   21.3138 N   0  0  0  0  0  0  0  0  0  0  0  0
    9.9803  -16.7017   21.4827 C   0  0  1  0  0  0  0  0  0  0  0  0
    9.3879  -17.7319   20.5541 C   0  0  0  0  0  0  0  0  0  0  0  0
   10.2924  -17.9807   19.3939 C   0  0  0  0  0  0  0  0  0  0  0  0
    9.7850  -19.0002   18.4690 C   0  0  0  0  0  0  0  0  0  0  0  0
    8.7239  -19.6545   18.5962 O   0  0  0  0  0  0  0  0  0  0  0  0
    9.6781  -17.0527   22.9024 C   0  0  0  0  0  0  0  0  0  0  0  0
    8.4957  -17.2338   23.2269 O   0  0  0  0  0  0  0  0  0  0  0  0
   10.5630  -19.2645   17.3378 O   0  0  0  0  0  0  0  0  0  0  0  0
    9.6100  -20.1525   24.8078 N   0  0  0  0  0  0  0  0  0  0  0  0
   10.8236  -19.8280   25.4458 C   0  0  0  0  0  0  0  0  0  0  0  0
   11.6235  -20.7905   25.6668 O   0  0  0  0  0  0  0  0  0  0  0  0
   11.2559  -18.4990   25.8786 C   0  0  0  0  0  0  0  0  0  0  0  0
   10.4746  -17.3756   25.2673 C   0  0  2  0  0  0  0  0  0  0  0  0
   10.7467  -17.1749   23.8647 N   0  0  0  0  0  0  0  0  0  0  0  0
   10.7813  -16.0970   25.9942 C   0  0  0  0  0  0  0  0  0  0  0  0
   11.9595  -15.6617   26.0879 O   0  0  0  0  0  0  0  0  0  0  0  0
    9.7652  -15.3159   26.6105 N   0  0  0  0  0  0  0  0  0  0  0  0
   10.0893  -14.2600   27.5336 C   0  0  1  0  0  0  0  0  0  0  0  0
    8.9196  -13.3229   27.7583 C   0  0  0  0  0  0  0  0  0  0  0  0
    8.1038  -12.9161   26.1922 S   0  0  0  0  0  0  0  0  0  0  0  0
   10.5772  -14.7975   28.8233 C   0  0  0  0  0  0  0  0  0  0  0  0
   11.0590  -13.9068   29.7663 O   0  0  0  0  0  0  0  0  0  0  0  0
   10.5465  -16.0351   29.0379 O   0  0  0  0  0  0  0  0  0  0  0  0
  2  1  1  1
  3  4  1  0
  3  2  1  0
  5  9  1  0
  5  4  1  0
  6  5  2  0
  7  8  2  0
  7  2  1  0
 11 10  1  0
 11 13  1  0
 12 11  2  0
 14 13  1  1
 14 15  1  0
 15  7  1  0
 16 14  1  0
 17 16  2  0
 18 16  1  0
 19 18  1  0
 20 21  1  0
 19 20  1  1
 22 19  1  0
 22 23  1  0
 24 22  2  0
M  END
$$$$
