ENC.pdb
     RDKit          3D

 24 23  0  0  1  0  0  0  0  0999 V2000
   11.4410  -17.0791   20.1127 N   0  0  0  0  0  0  0  0  0  0  0  0
   12.0785  -16.6192   21.3034 C   0  0  1  0  0  0  0  0  0  0  0  0
   12.8978  -15.3880   21.0071 C   0  0  0  0  0  0  0  0  0  0  0  0
   14.1999  -15.7575   20.3796 C   0  0  0  0  0  0  0  0  0  0  0  0
   15.0298  -14.5974   20.0359 C   0  0  0  0  0  0  0  0  0  0  0  0
   15.7856  -13.9699   20.8138 O   0  0  0  0  0  0  0  0  0  0  0  0
   11.0304  -16.3088   22.3207 C   0  0  0  0  0  0  0  0  0  0  0  0
   10.2901  -15.3337   22.1270 O   0  0  0  0  0  0  0  0  0  0  0  0
   14.9688  -14.1522   18.7120 O   0  0  0  0  0  0  0  0  0  0  0  0
    8.4795  -19.7410   22.8163 N   0  0  0  0  0  0  0  0  0  0  0  0
    8.2265  -18.5971   23.5991 C   0  0  0  0  0  0  0  0  0  0  0  0
    7.2105  -17.9040   23.2792 O   0  0  0  0  0  0  0  0  0  0  0  0
    9.0124  -18.1271   24.7400 C   0  0  0  0  0  0  0  0  0  0  0  0
    9.8342  -16.9072   24.4520 C   0  0  2  0  0  0  0  0  0  0  0  0
   10.8929  -17.1322   23.4980 N   0  0  0  0  0  0  0  0  0  0  0  0
   10.4485  -16.4032   25.7271 C   0  0  0  0  0  0  0  0  0  0  0  0
   11.5783  -16.8034   26.1142 O   0  0  0  0  0  0  0  0  0  0  0  0
    9.7921  -15.4544   26.5586 N   0  0  0  0  0  0  0  0  0  0  0  0
   10.3291  -15.0859   27.8422 C   0  0  1  0  0  0  0  0  0  0  0  0
    9.7264  -13.7959   28.3611 C   0  0  0  0  0  0  0  0  0  0  0  0
    9.3427  -12.6645   26.9986 S   0  0  0  0  0  0  0  0  0  0  0  0
   10.1599  -16.1719   28.8333 C   0  0  0  0  0  0  0  0  0  0  0  0
   10.8032  -16.0548   30.0528 O   0  0  0  0  0  0  0  0  0  0  0  0
    9.4456  -17.1676   28.5556 O   0  0  0  0  0  0  0  0  0  0  0  0
  2  1  1  6
  3  4  1  0
  3  2  1  0
  5  9  1  0
  5  4  1  0
  6  5  2  0
  7  8  2  0
  7  2  1  0
 11 10  1  0
 11 13  1  0
 12 11  2  0
 14 13  1  1
 14 15  1  0
 15  7  1  0
 16 14  1  0
 17 16  2  0
 18 16  1  0
 19 18  1  0
 20 21  1  0
 19 20  1  1
 22 19  1  0
 22 23  1  0
 24 22  2  0
M  END
$$$$
