ENC.pdb
     RDKit          3D

 24 23  0  0  1  0  0  0  0  0999 V2000
   10.9204  -13.8449   20.0936 N   0  0  0  0  0  0  0  0  0  0  0  0
    9.6250  -13.2690   20.2537 C   0  0  1  0  0  0  0  0  0  0  0  0
    8.8588  -13.3545   18.9573 C   0  0  0  0  0  0  0  0  0  0  0  0
    8.8799  -14.7467   18.4213 C   0  0  0  0  0  0  0  0  0  0  0  0
    8.2332  -14.8751   17.1106 C   0  0  0  0  0  0  0  0  0  0  0  0
    7.5520  -15.8484   16.7121 O   0  0  0  0  0  0  0  0  0  0  0  0
    8.9004  -14.0073   21.3306 C   0  0  0  0  0  0  0  0  0  0  0  0
    7.7466  -13.6546   21.6147 O   0  0  0  0  0  0  0  0  0  0  0  0
    8.3948  -13.8066   16.2236 O   0  0  0  0  0  0  0  0  0  0  0  0
    6.7756  -18.2871   24.1656 N   0  0  0  0  0  0  0  0  0  0  0  0
    8.1414  -18.0343   23.9294 C   0  0  0  0  0  0  0  0  0  0  0  0
    8.9610  -18.5076   24.7776 O   0  0  0  0  0  0  0  0  0  0  0  0
    8.7109  -17.2843   22.8098 C   0  0  0  0  0  0  0  0  0  0  0  0
    8.8702  -15.8183   23.0773 C   0  0  2  0  0  0  0  0  0  0  0  0
    9.5396  -15.1039   22.0174 N   0  0  0  0  0  0  0  0  0  0  0  0
    9.6522  -15.6213   24.3450 C   0  0  0  0  0  0  0  0  0  0  0  0
   10.9116  -15.6311   24.3474 O   0  0  0  0  0  0  0  0  0  0  0  0
    9.0167  -15.4147   25.6003 N   0  0  0  0  0  0  0  0  0  0  0  0
    9.7786  -15.1203   26.7855 C   0  0  1  0  0  0  0  0  0  0  0  0
    9.2122  -13.9381   27.5461 C   0  0  0  0  0  0  0  0  0  0  0  0
   10.1775  -13.6069   29.0435 S   0  0  0  0  0  0  0  0  0  0  0  0
    9.8848  -16.3021   27.6699 C   0  0  0  0  0  0  0  0  0  0  0  0
   11.0115  -16.4305   28.4628 O   0  0  0  0  0  0  0  0  0  0  0  0
    8.9640  -17.1569   27.6863 O   0  0  0  0  0  0  0  0  0  0  0  0
  2  1  1  6
  3  4  1  0
  3  2  1  0
  5  9  1  0
  5  4  1  0
  6  5  2  0
  7  8  2  0
  7  2  1  0
 11 10  1  0
 11 13  1  0
 12 11  2  0
 14 13  1  6
 14 15  1  0
 15  7  1  0
 16 14  1  0
 17 16  2  0
 18 16  1  0
 19 18  1  0
 20 21  1  0
 19 20  1  1
 22 19  1  0
 22 23  1  0
 24 22  2  0
M  END
$$$$
