ENC.pdb
     RDKit          3D

 24 23  0  0  1  0  0  0  0  0999 V2000
    9.1942  -15.2808   13.4677 N   0  0  0  0  0  0  0  0  0  0  0  0
    9.0522  -16.1528   14.5880 C   0  0  1  0  0  0  0  0  0  0  0  0
   10.0724  -17.2610   14.5115 C   0  0  0  0  0  0  0  0  0  0  0  0
   11.4529  -16.7033   14.4154 C   0  0  0  0  0  0  0  0  0  0  0  0
   12.4892  -17.7343   14.2894 C   0  0  0  0  0  0  0  0  0  0  0  0
   12.7583  -18.6219   15.1319 O   0  0  0  0  0  0  0  0  0  0  0  0
    9.2430  -15.3618   15.8401 C   0  0  0  0  0  0  0  0  0  0  0  0
   10.0315  -14.4057   15.8201 O   0  0  0  0  0  0  0  0  0  0  0  0
   13.2472  -17.7220   13.1147 O   0  0  0  0  0  0  0  0  0  0  0  0
    8.5354  -13.2033   20.6100 N   0  0  0  0  0  0  0  0  0  0  0  0
    7.3695  -13.7624   20.0506 C   0  0  0  0  0  0  0  0  0  0  0  0
    6.2676  -13.4391   20.5951 O   0  0  0  0  0  0  0  0  0  0  0  0
    7.2980  -14.6750   18.9094 C   0  0  0  0  0  0  0  0  0  0  0  0
    8.6155  -14.9105   18.2348 C   0  0  2  0  0  0  0  0  0  0  0  0
    8.5206  -15.7127   17.0393 N   0  0  0  0  0  0  0  0  0  0  0  0
    9.5525  -15.5958   19.1885 C   0  0  0  0  0  0  0  0  0  0  0  0
    9.7000  -16.8466   19.1786 O   0  0  0  0  0  0  0  0  0  0  0  0
   10.3171  -14.8741   20.1460 N   0  0  0  0  0  0  0  0  0  0  0  0
   11.1093  -15.5536   21.1373 C   0  0  1  0  0  0  0  0  0  0  0  0
   12.1300  -14.6340   21.7771 C   0  0  0  0  0  0  0  0  0  0  0  0
   13.1292  -15.5236   22.9993 S   0  0  0  0  0  0  0  0  0  0  0  0
   10.2597  -16.1838   22.1723 C   0  0  0  0  0  0  0  0  0  0  0  0
   10.7339  -17.3152   22.8124 O   0  0  0  0  0  0  0  0  0  0  0  0
    9.1384  -15.6888   22.4489 O   0  0  0  0  0  0  0  0  0  0  0  0
  2  1  1  6
  3  4  1  0
  3  2  1  0
  5  9  1  0
  5  4  1  0
  6  5  2  0
  7  8  2  0
  7  2  1  0
 11 10  1  0
 11 13  1  0
 12 11  2  0
 14 13  1  1
 14 15  1  0
 15  7  1  0
 16 14  1  0
 17 16  2  0
 18 16  1  0
 19 18  1  0
 20 21  1  0
 19 20  1  1
 22 19  1  0
 22 23  1  0
 24 22  2  0
M  END
$$$$
