ENC.pdb
     RDKit          3D

 24 23  0  0  1  0  0  0  0  0999 V2000
   10.1896  -14.5314   19.6710 N   0  0  0  0  0  0  0  0  0  0  0  0
    9.0921  -13.6566   19.9274 C   0  0  1  0  0  0  0  0  0  0  0  0
    8.1535  -13.6470   18.7469 C   0  0  0  0  0  0  0  0  0  0  0  0
    8.7010  -14.4699   17.6292 C   0  0  0  0  0  0  0  0  0  0  0  0
    7.8119  -14.5331   16.4639 C   0  0  0  0  0  0  0  0  0  0  0  0
    6.9406  -15.4060   16.2425 O   0  0  0  0  0  0  0  0  0  0  0  0
    8.3772  -14.1280   21.1508 C   0  0  0  0  0  0  0  0  0  0  0  0
    7.2918  -13.6036   21.4391 O   0  0  0  0  0  0  0  0  0  0  0  0
    7.9533  -13.5200   15.5108 O   0  0  0  0  0  0  0  0  0  0  0  0
    7.6572  -17.6749   21.1079 N   0  0  0  0  0  0  0  0  0  0  0  0
    8.2508  -18.0124   22.3403 C   0  0  0  0  0  0  0  0  0  0  0  0
    8.5587  -19.2343   22.5059 O   0  0  0  0  0  0  0  0  0  0  0  0
    8.5482  -17.1019   23.4461 C   0  0  0  0  0  0  0  0  0  0  0  0
    8.2644  -15.6620   23.1422 C   0  0  2  0  0  0  0  0  0  0  0  0
    8.9473  -15.1703   21.9702 N   0  0  0  0  0  0  0  0  0  0  0  0
    8.6685  -14.8126   24.3137 C   0  0  0  0  0  0  0  0  0  0  0  0
    9.8796  -14.5765   24.5664 O   0  0  0  0  0  0  0  0  0  0  0  0
    7.7122  -14.2341   25.1930 N   0  0  0  0  0  0  0  0  0  0  0  0
    8.1161  -13.3965   26.2917 C   0  0  1  0  0  0  0  0  0  0  0  0
    7.1573  -12.2431   26.5093 C   0  0  0  0  0  0  0  0  0  0  0  0
    5.4688  -12.8443   26.7761 S   0  0  0  0  0  0  0  0  0  0  0  0
    8.2781  -14.1772   27.5384 C   0  0  0  0  0  0  0  0  0  0  0  0
    8.9127  -13.5773   28.6118 O   0  0  0  0  0  0  0  0  0  0  0  0
    7.8434  -15.3544   27.6012 O   0  0  0  0  0  0  0  0  0  0  0  0
  2  1  1  6
  3  4  1  0
  3  2  1  0
  5  9  1  0
  5  4  1  0
  6  5  2  0
  7  8  2  0
  7  2  1  0
 11 10  1  0
 11 13  1  0
 12 11  2  0
 14 13  1  1
 14 15  1  0
 15  7  1  0
 16 14  1  0
 17 16  2  0
 18 16  1  0
 19 18  1  0
 20 21  1  0
 19 20  1  1
 22 19  1  0
 22 23  1  0
 24 22  2  0
M  END
$$$$
