ENC.pdb
     RDKit          3D

 24 23  0  0  1  0  0  0  0  0999 V2000
   10.2413  -18.4771   20.3077 N   0  0  0  0  0  0  0  0  0  0  0  0
   10.9383  -18.0806   21.4877 C   0  0  1  0  0  0  0  0  0  0  0  0
   11.9502  -17.0129   21.1549 C   0  0  0  0  0  0  0  0  0  0  0  0
   13.1064  -17.5932   20.4116 C   0  0  0  0  0  0  0  0  0  0  0  0
   14.1565  -16.6132   20.1126 C   0  0  0  0  0  0  0  0  0  0  0  0
   14.2955  -15.9793   19.0407 O   0  0  0  0  0  0  0  0  0  0  0  0
    9.9491  -17.5625   22.4791 C   0  0  0  0  0  0  0  0  0  0  0  0
    8.8769  -17.1039   22.0590 O   0  0  0  0  0  0  0  0  0  0  0  0
   15.0900  -16.3653   21.1233 O   0  0  0  0  0  0  0  0  0  0  0  0
    7.1945  -19.0436   27.4320 N   0  0  0  0  0  0  0  0  0  0  0  0
    7.4281  -18.2195   26.3132 C   0  0  0  0  0  0  0  0  0  0  0  0
    6.7538  -17.1441   26.2501 O   0  0  0  0  0  0  0  0  0  0  0  0
    8.3654  -18.4750   25.2195 C   0  0  0  0  0  0  0  0  0  0  0  0
    9.2371  -17.3044   24.8788 C   0  0  2  0  0  0  0  0  0  0  0  0
   10.2464  -17.6000   23.8909 N   0  0  0  0  0  0  0  0  0  0  0  0
    9.9239  -16.8116   26.1208 C   0  0  0  0  0  0  0  0  0  0  0  0
   10.9025  -17.4289   26.6185 O   0  0  0  0  0  0  0  0  0  0  0  0
    9.5089  -15.6305   26.7955 N   0  0  0  0  0  0  0  0  0  0  0  0
   10.2262  -15.1304   27.9389 C   0  0  1  0  0  0  0  0  0  0  0  0
    9.7357  -13.7605   28.3627 C   0  0  0  0  0  0  0  0  0  0  0  0
    9.4154  -12.7110   26.9206 S   0  0  0  0  0  0  0  0  0  0  0  0
   10.1642  -16.0768   29.0750 C   0  0  0  0  0  0  0  0  0  0  0  0
   10.9462  -15.8204   30.1874 O   0  0  0  0  0  0  0  0  0  0  0  0
    9.4138  -17.0826   29.0120 O   0  0  0  0  0  0  0  0  0  0  0  0
  2  1  1  6
  3  4  1  0
  3  2  1  0
  5  9  1  0
  5  4  1  0
  6  5  2  0
  7  8  2  0
  7  2  1  0
 11 10  1  0
 11 13  1  0
 12 11  2  0
 14 13  1  1
 14 15  1  0
 15  7  1  0
 16 14  1  0
 17 16  2  0
 18 16  1  0
 19 18  1  0
 20 21  1  0
 19 20  1  1
 22 19  1  0
 22 23  1  0
 24 22  2  0
M  END
$$$$
