ENC.pdb
     RDKit          3D

 24 23  0  0  1  0  0  0  0  0999 V2000
    9.9325  -15.9178   19.6017 N   0  0  0  0  0  0  0  0  0  0  0  0
    8.6661  -15.2634   19.5447 C   0  0  1  0  0  0  0  0  0  0  0  0
    7.8937  -15.7389   18.3396 C   0  0  0  0  0  0  0  0  0  0  0  0
    8.7969  -15.9027   17.1634 C   0  0  0  0  0  0  0  0  0  0  0  0
    8.0974  -16.3374   15.9491 C   0  0  0  0  0  0  0  0  0  0  0  0
    6.8752  -16.5955   15.8496 O   0  0  0  0  0  0  0  0  0  0  0  0
    7.9099  -15.5695   20.7955 C   0  0  0  0  0  0  0  0  0  0  0  0
    6.6800  -15.7052   20.7236 O   0  0  0  0  0  0  0  0  0  0  0  0
    8.8724  -16.4759   14.7938 O   0  0  0  0  0  0  0  0  0  0  0  0
    6.0700  -17.6074   25.4769 N   0  0  0  0  0  0  0  0  0  0  0  0
    7.4323  -17.5323   25.1252 C   0  0  0  0  0  0  0  0  0  0  0  0
    8.2703  -17.6434   26.0742 O   0  0  0  0  0  0  0  0  0  0  0  0
    7.9793  -17.3399   23.7820 C   0  0  0  0  0  0  0  0  0  0  0  0
    7.8930  -15.9282   23.2860 C   0  0  2  0  0  0  0  0  0  0  0  0
    8.6065  -15.7015   22.0526 N   0  0  0  0  0  0  0  0  0  0  0  0
    8.4442  -14.9957   24.3271 C   0  0  0  0  0  0  0  0  0  0  0  0
    9.6849  -14.8639   24.4992 O   0  0  0  0  0  0  0  0  0  0  0  0
    7.6007  -14.2179   25.1673 N   0  0  0  0  0  0  0  0  0  0  0  0
    8.1463  -13.2883   26.1213 C   0  0  1  0  0  0  0  0  0  0  0  0
    7.2400  -12.0918   26.3309 C   0  0  0  0  0  0  0  0  0  0  0  0
    5.6576  -12.5953   27.0563 S   0  0  0  0  0  0  0  0  0  0  0  0
    8.4413  -13.9469   27.4133 C   0  0  0  0  0  0  0  0  0  0  0  0
    9.2280  -13.2725   28.3303 O   0  0  0  0  0  0  0  0  0  0  0  0
    7.9796  -15.0907   27.6531 O   0  0  0  0  0  0  0  0  0  0  0  0
  2  1  1  1
  3  4  1  0
  3  2  1  0
  5  9  1  0
  5  4  1  0
  6  5  2  0
  7  8  2  0
  7  2  1  0
 11 10  1  0
 11 13  1  0
 12 11  2  0
 14 13  1  1
 14 15  1  0
 15  7  1  0
 16 14  1  0
 17 16  2  0
 18 16  1  0
 19 18  1  0
 20 21  1  0
 19 20  1  1
 22 19  1  0
 22 23  1  0
 24 22  2  0
M  END
$$$$
