DYC.pdb
     RDKit          3D

 27 27  0  0  1  0  0  0  0  0999 V2000
   23.6131  -18.1567  -18.7088 N   0  0  0  0  0  0  0  0  0  0  0  0
   23.6181  -19.2365  -17.7266 C   0  0  1  0  0  0  0  0  0  0  0  0
   24.9948  -19.8754  -17.7002 C   0  0  0  0  0  0  0  0  0  0  0  0
   25.3211  -20.5314  -18.9705 C   0  0  0  0  0  0  0  0  0  0  0  0
   26.3511  -21.2178  -19.1045 O   0  0  0  0  0  0  0  0  0  0  0  0
   23.1707  -18.7637  -16.3994 C   0  0  0  0  0  0  0  0  0  0  0  0
   23.6778  -17.7211  -15.9173 O   0  0  0  0  0  0  0  0  0  0  0  0
   24.4665  -20.3839  -20.0461 O   0  0  0  0  0  0  0  0  0  0  0  0
   18.9127  -13.5049  -16.5286 O   0  0  0  0  0  0  0  0  0  0  0  0
   19.2202  -14.7872  -16.0914 C   0  0  0  0  0  0  0  0  0  0  0  0
   19.2981  -15.0412  -14.7362 C   0  0  0  0  0  0  0  0  0  0  0  0
   19.5991  -16.2885  -14.2376 C   0  0  0  0  0  0  0  0  0  0  0  0
   19.8371  -17.3479  -15.1122 C   0  0  0  0  0  0  0  0  0  0  0  0
   20.1439  -18.6527  -14.4900 C   0  0  0  0  0  0  0  0  0  0  0  0
   21.6237  -18.9503  -14.3896 C   0  0  2  0  0  0  0  0  0  0  0  0
   22.1871  -19.4236  -15.6201 N   0  0  0  0  0  0  0  0  0  0  0  0
   21.7905  -20.0038  -13.3704 C   0  0  0  0  0  0  0  0  0  0  0  0
   21.3979  -21.1683  -13.6832 O   0  0  0  0  0  0  0  0  0  0  0  0
   19.7609  -17.1012  -16.4598 C   0  0  0  0  0  0  0  0  0  0  0  0
   19.4549  -15.8309  -16.9573 C   0  0  0  0  0  0  0  0  0  0  0  0
   22.3455  -19.8243  -12.0866 N   0  0  0  0  0  0  0  0  0  0  0  0
   22.3539  -20.9465  -11.1763 C   0  0  1  0  0  0  0  0  0  0  0  0
   23.2988  -20.7461  -10.0184 C   0  0  0  0  0  0  0  0  0  0  0  0
   25.0049  -20.7442  -10.6748 S   0  0  0  0  0  0  0  0  0  0  0  0
   20.9673  -21.1287  -10.6365 C   0  0  0  0  0  0  0  0  0  0  0  0
   20.0976  -20.3064  -10.9445 O   0  0  0  0  0  0  0  0  0  0  0  0
   20.6516  -22.2055   -9.8007 O   0  0  0  0  0  0  0  0  0  0  0  0
  2  1  1  6
  2  6  1  0
  3  2  1  0
  3  4  1  0
  4  5  2  0
  6 16  1  0
  6  7  2  0
  8  4  1  0
  9 10  1  0
 10 11  2  0
 11 12  1  0
 13 14  1  0
 13 12  2  0
 15 14  1  6
 15 17  1  0
 16 15  1  0
 17 18  2  0
 19 13  1  0
 20 19  2  0
 20 10  1  0
 21 17  1  0
 21 22  1  0
 22 25  1  0
 22 23  1  1
 24 23  1  0
 25 27  1  0
 26 25  2  0
M  END
$$$$
