DYC.pdb
     RDKit          3D

 27 27  0  0  1  0  0  0  0  0999 V2000
   16.0936   -9.3363  -14.4500 N   0  0  0  0  0  0  0  0  0  0  0  0
   15.5040   -9.9123  -13.2452 C   0  0  1  0  0  0  0  0  0  0  0  0
   15.8032  -11.4001  -13.2101 C   0  0  0  0  0  0  0  0  0  0  0  0
   15.0459  -12.1374  -14.2266 C   0  0  0  0  0  0  0  0  0  0  0  0
   15.3907  -13.2739  -14.6001 O   0  0  0  0  0  0  0  0  0  0  0  0
   15.9514   -9.2001  -12.0296 C   0  0  0  0  0  0  0  0  0  0  0  0
   15.6382   -9.6556  -10.9022 O   0  0  0  0  0  0  0  0  0  0  0  0
   13.9231  -11.5576  -14.7854 O   0  0  0  0  0  0  0  0  0  0  0  0
   22.8078   -9.2437  -13.6873 O   0  0  0  0  0  0  0  0  0  0  0  0
   21.7640   -8.5972  -13.0373 C   0  0  0  0  0  0  0  0  0  0  0  0
   20.9738   -7.7091  -13.7401 C   0  0  0  0  0  0  0  0  0  0  0  0
   19.9252   -7.0356  -13.1556 C   0  0  0  0  0  0  0  0  0  0  0  0
   19.6314   -7.2414  -11.8084 C   0  0  0  0  0  0  0  0  0  0  0  0
   18.4838   -6.4842  -11.2666 C   0  0  0  0  0  0  0  0  0  0  0  0
   17.2913   -7.3468  -10.9172 C   0  0  2  0  0  0  0  0  0  0  0  0
   16.7264   -8.0130  -12.0541 N   0  0  0  0  0  0  0  0  0  0  0  0
   16.2616   -6.4593  -10.3440 C   0  0  0  0  0  0  0  0  0  0  0  0
   15.5289   -5.8295  -11.1653 O   0  0  0  0  0  0  0  0  0  0  0  0
   20.4131   -8.1230  -11.1052 C   0  0  0  0  0  0  0  0  0  0  0  0
   21.4766   -8.8024  -11.7070 C   0  0  0  0  0  0  0  0  0  0  0  0
   16.0270   -6.2541   -8.9687 N   0  0  0  0  0  0  0  0  0  0  0  0
   14.9412   -5.3849   -8.5769 C   0  0  1  0  0  0  0  0  0  0  0  0
   14.2894   -5.8172   -7.2877 C   0  0  0  0  0  0  0  0  0  0  0  0
   13.7256   -7.5443   -7.4907 S   0  0  0  0  0  0  0  0  0  0  0  0
   15.4849   -3.9996   -8.3972 C   0  0  0  0  0  0  0  0  0  0  0  0
   16.7094   -3.8346   -8.4227 O   0  0  0  0  0  0  0  0  0  0  0  0
   14.6325   -2.9067   -8.2051 O   0  0  0  0  0  0  0  0  0  0  0  0
  2  1  1  6
  2  6  1  0
  3  2  1  0
  3  4  1  0
  4  5  2  0
  6 16  1  0
  6  7  2  0
  8  4  1  0
  9 10  1  0
 10 11  2  0
 11 12  1  0
 13 14  1  0
 13 12  2  0
 15 14  1  6
 15 17  1  0
 16 15  1  0
 17 18  2  0
 19 13  1  0
 20 19  2  0
 20 10  1  0
 21 17  1  0
 21 22  1  0
 22 25  1  0
 22 23  1  1
 24 23  1  0
 25 27  1  0
 26 25  2  0
M  END
$$$$
