DYC.pdb
     RDKit          3D

 27 27  0  0  1  0  0  0  0  0999 V2000
   14.2190  -25.3103   -5.4476 N   0  0  0  0  0  0  0  0  0  0  0  0
   15.2561  -26.0345   -4.7189 C   0  0  1  0  0  0  0  0  0  0  0  0
   16.4286  -26.2889   -5.6488 C   0  0  0  0  0  0  0  0  0  0  0  0
   16.0592  -27.1503   -6.7766 C   0  0  0  0  0  0  0  0  0  0  0  0
   14.9187  -27.6392   -6.8777 O   0  0  0  0  0  0  0  0  0  0  0  0
   15.6401  -25.3283   -3.4784 C   0  0  0  0  0  0  0  0  0  0  0  0
   16.6648  -25.6986   -2.8545 O   0  0  0  0  0  0  0  0  0  0  0  0
   16.9989  -27.4283   -7.7506 O   0  0  0  0  0  0  0  0  0  0  0  0
   14.8088  -19.6185    3.4143 O   0  0  0  0  0  0  0  0  0  0  0  0
   14.7972  -20.2454    2.1746 C   0  0  0  0  0  0  0  0  0  0  0  0
   13.5998  -20.6931    1.6522 C   0  0  0  0  0  0  0  0  0  0  0  0
   13.5196  -21.3225    0.4305 C   0  0  0  0  0  0  0  0  0  0  0  0
   14.6743  -21.5256   -0.3239 C   0  0  0  0  0  0  0  0  0  0  0  0
   14.4939  -22.2006   -1.6261 C   0  0  0  0  0  0  0  0  0  0  0  0
   15.2378  -23.5125   -1.7439 C   0  0  2  0  0  0  0  0  0  0  0  0
   14.9123  -24.2387   -2.9365 N   0  0  0  0  0  0  0  0  0  0  0  0
   14.8562  -24.3382   -0.5824 C   0  0  0  0  0  0  0  0  0  0  0  0
   13.9261  -25.1813   -0.7618 O   0  0  0  0  0  0  0  0  0  0  0  0
   15.8669  -21.0825    0.1902 C   0  0  0  0  0  0  0  0  0  0  0  0
   15.9389  -20.4447    1.4322 C   0  0  0  0  0  0  0  0  0  0  0  0
   15.4352  -24.2675    0.7015 N   0  0  0  0  0  0  0  0  0  0  0  0
   14.8819  -25.0896    1.7532 C   0  0  1  0  0  0  0  0  0  0  0  0
   15.3480  -26.5216    1.6750 C   0  0  0  0  0  0  0  0  0  0  0  0
   17.1682  -26.5151    1.5056 S   0  0  0  0  0  0  0  0  0  0  0  0
   15.3068  -24.5195    3.0729 C   0  0  0  0  0  0  0  0  0  0  0  0
   16.1130  -23.5829    3.0830 O   0  0  0  0  0  0  0  0  0  0  0  0
   14.8060  -25.0285    4.2762 O   0  0  0  0  0  0  0  0  0  0  0  0
  2  1  1  6
  2  6  1  0
  3  2  1  0
  3  4  1  0
  4  5  2  0
  6 16  1  0
  6  7  2  0
  8  4  1  0
  9 10  1  0
 10 11  2  0
 11 12  1  0
 13 14  1  0
 13 12  2  0
 15 14  1  6
 15 17  1  0
 16 15  1  0
 17 18  2  0
 19 13  1  0
 20 19  2  0
 20 10  1  0
 21 17  1  0
 21 22  1  0
 22 25  1  0
 22 23  1  6
 24 23  1  0
 25 27  1  0
 26 25  2  0
M  END
$$$$
