DYC.pdb
     RDKit          3D

 27 27  0  0  1  0  0  0  0  0999 V2000
   19.9224   -7.8073  -14.6956 N   0  0  0  0  0  0  0  0  0  0  0  0
   19.8147   -7.3758  -13.3052 C   0  0  1  0  0  0  0  0  0  0  0  0
   20.4508   -6.0050  -13.1615 C   0  0  0  0  0  0  0  0  0  0  0  0
   21.8970   -6.0420  -13.4017 C   0  0  0  0  0  0  0  0  0  0  0  0
   22.4826   -7.1009  -13.6946 O   0  0  0  0  0  0  0  0  0  0  0  0
   18.4153   -7.4202  -12.8311 C   0  0  0  0  0  0  0  0  0  0  0  0
   17.4980   -7.0223  -13.5906 O   0  0  0  0  0  0  0  0  0  0  0  0
   22.6290   -4.8747  -13.2994 O   0  0  0  0  0  0  0  0  0  0  0  0
   11.0242   -9.9036   -8.7612 O   0  0  0  0  0  0  0  0  0  0  0  0
   12.3705   -9.6937   -9.0325 C   0  0  0  0  0  0  0  0  0  0  0  0
   12.8803  -10.0635  -10.2615 C   0  0  0  0  0  0  0  0  0  0  0  0
   14.2042   -9.8839  -10.5930 C   0  0  0  0  0  0  0  0  0  0  0  0
   15.0798   -9.3102   -9.6721 C   0  0  0  0  0  0  0  0  0  0  0  0
   16.4800   -9.1471  -10.1155 C   0  0  0  0  0  0  0  0  0  0  0  0
   16.6963   -7.9687  -11.0389 C   0  0  2  0  0  0  0  0  0  0  0  0
   18.0338   -7.8922  -11.5496 N   0  0  0  0  0  0  0  0  0  0  0  0
   16.4301   -6.7456  -10.2580 C   0  0  0  0  0  0  0  0  0  0  0  0
   17.2671   -6.4534   -9.3513 O   0  0  0  0  0  0  0  0  0  0  0  0
   14.5786   -8.9407   -8.4493 C   0  0  0  0  0  0  0  0  0  0  0  0
   13.2324   -9.1273   -8.1211 C   0  0  0  0  0  0  0  0  0  0  0  0
   15.3298   -5.8815  -10.4346 N   0  0  0  0  0  0  0  0  0  0  0  0
   15.2334   -4.7085   -9.5963 C   0  0  1  0  0  0  0  0  0  0  0  0
   15.2160   -3.4277  -10.3919 C   0  0  0  0  0  0  0  0  0  0  0  0
   16.8259   -3.2693  -11.2435 S   0  0  0  0  0  0  0  0  0  0  0  0
   13.9644   -4.7964   -8.8031 C   0  0  0  0  0  0  0  0  0  0  0  0
   13.0153   -5.4353   -9.2705 O   0  0  0  0  0  0  0  0  0  0  0  0
   13.8453   -4.1726   -7.5563 O   0  0  0  0  0  0  0  0  0  0  0  0
  2  1  1  6
  2  6  1  0
  3  2  1  0
  3  4  1  0
  4  5  2  0
  6 16  1  0
  6  7  2  0
  8  4  1  0
  9 10  1  0
 10 11  2  0
 11 12  1  0
 13 14  1  0
 13 12  2  0
 15 14  1  1
 15 17  1  0
 16 15  1  0
 17 18  2  0
 19 13  1  0
 20 19  2  0
 20 10  1  0
 21 17  1  0
 21 22  1  0
 22 25  1  0
 22 23  1  6
 24 23  1  0
 25 27  1  0
 26 25  2  0
M  END
$$$$
