DYC.pdb
     RDKit          3D

 27 27  0  0  1  0  0  0  0  0999 V2000
   27.6798  -23.5815  -16.8732 N   0  0  0  0  0  0  0  0  0  0  0  0
   27.1649  -22.2262  -16.7022 C   0  0  1  0  0  0  0  0  0  0  0  0
   26.5315  -21.7693  -18.0039 C   0  0  0  0  0  0  0  0  0  0  0  0
   27.5210  -21.6278  -19.0769 C   0  0  0  0  0  0  0  0  0  0  0  0
   27.3387  -22.1281  -20.2023 O   0  0  0  0  0  0  0  0  0  0  0  0
   26.2479  -22.1370  -15.5463 C   0  0  0  0  0  0  0  0  0  0  0  0
   25.5592  -23.1386  -15.2315 O   0  0  0  0  0  0  0  0  0  0  0  0
   28.6848  -20.9238  -18.8344 O   0  0  0  0  0  0  0  0  0  0  0  0
   25.8857  -21.0111   -7.1964 O   0  0  0  0  0  0  0  0  0  0  0  0
   25.8810  -20.7188   -8.5545 C   0  0  0  0  0  0  0  0  0  0  0  0
   24.8152  -20.0272   -9.0958 C   0  0  0  0  0  0  0  0  0  0  0  0
   24.7487  -19.7070  -10.4329 C   0  0  0  0  0  0  0  0  0  0  0  0
   25.7820  -20.0832  -11.2900 C   0  0  0  0  0  0  0  0  0  0  0  0
   25.6318  -19.6901  -12.7066 C   0  0  0  0  0  0  0  0  0  0  0  0
   25.2293  -20.8282  -13.6183 C   0  0  2  0  0  0  0  0  0  0  0  0
   26.0922  -20.9712  -14.7543 N   0  0  0  0  0  0  0  0  0  0  0  0
   23.8679  -20.5376  -14.1069 C   0  0  0  0  0  0  0  0  0  0  0  0
   23.7682  -20.0982  -15.2922 O   0  0  0  0  0  0  0  0  0  0  0  0
   26.8437  -20.7703  -10.7576 C   0  0  0  0  0  0  0  0  0  0  0  0
   26.9026  -21.0917   -9.3982 C   0  0  0  0  0  0  0  0  0  0  0  0
   22.6774  -20.7059  -13.3701 N   0  0  0  0  0  0  0  0  0  0  0  0
   21.4330  -20.8393  -14.0924 C   0  0  1  0  0  0  0  0  0  0  0  0
   20.9612  -22.2692  -14.1744 C   0  0  0  0  0  0  0  0  0  0  0  0
   20.5487  -22.6290  -15.9187 S   0  0  0  0  0  0  0  0  0  0  0  0
   20.3869  -20.0300  -13.3868 C   0  0  0  0  0  0  0  0  0  0  0  0
   20.4786  -19.8782  -12.1638 O   0  0  0  0  0  0  0  0  0  0  0  0
   19.3236  -19.4517  -14.0888 O   0  0  0  0  0  0  0  0  0  0  0  0
  2  1  1  6
  2  6  1  0
  3  2  1  0
  3  4  1  0
  4  5  2  0
  6 16  1  0
  6  7  2  0
  8  4  1  0
  9 10  1  0
 10 11  2  0
 11 12  1  0
 13 14  1  0
 13 12  2  0
 15 14  1  1
 15 17  1  0
 16 15  1  0
 17 18  2  0
 19 13  1  0
 20 19  2  0
 20 10  1  0
 21 17  1  0
 21 22  1  0
 22 25  1  0
 22 23  1  1
 24 23  1  0
 25 27  1  0
 26 25  2  0
M  END
$$$$
