DYC.pdb
     RDKit          3D

 27 27  0  0  1  0  0  0  0  0999 V2000
   25.2690  -18.0502  -18.7348 N   0  0  0  0  0  0  0  0  0  0  0  0
   24.9267  -17.8791  -17.3261 C   0  0  1  0  0  0  0  0  0  0  0  0
   23.9342  -16.7383  -17.1928 C   0  0  0  0  0  0  0  0  0  0  0  0
   24.5621  -15.4333  -17.4234 C   0  0  0  0  0  0  0  0  0  0  0  0
   25.4413  -15.2768  -18.2909 O   0  0  0  0  0  0  0  0  0  0  0  0
   24.4447  -19.1423  -16.7285 C   0  0  0  0  0  0  0  0  0  0  0  0
   23.8149  -19.9584  -17.4454 O   0  0  0  0  0  0  0  0  0  0  0  0
   24.1706  -14.3506  -16.6596 O   0  0  0  0  0  0  0  0  0  0  0  0
   29.4810  -23.5985  -17.0609 O   0  0  0  0  0  0  0  0  0  0  0  0
   28.4256  -23.1118  -16.2998 C   0  0  0  0  0  0  0  0  0  0  0  0
   28.5006  -21.8375  -15.7727 C   0  0  0  0  0  0  0  0  0  0  0  0
   27.4907  -21.2963  -15.0098 C   0  0  0  0  0  0  0  0  0  0  0  0
   26.3421  -22.0417  -14.7472 C   0  0  0  0  0  0  0  0  0  0  0  0
   25.3059  -21.3789  -13.9280 C   0  0  0  0  0  0  0  0  0  0  0  0
   24.2181  -20.7113  -14.7399 C   0  0  2  0  0  0  0  0  0  0  0  0
   24.6511  -19.4994  -15.3719 N   0  0  0  0  0  0  0  0  0  0  0  0
   23.1196  -20.3806  -13.8122 C   0  0  0  0  0  0  0  0  0  0  0  0
   23.3276  -19.4334  -12.9952 O   0  0  0  0  0  0  0  0  0  0  0  0
   26.2620  -23.3084  -15.2687 C   0  0  0  0  0  0  0  0  0  0  0  0
   27.2930  -23.8502  -16.0422 C   0  0  0  0  0  0  0  0  0  0  0  0
   21.8672  -21.0265  -13.7586 N   0  0  0  0  0  0  0  0  0  0  0  0
   20.8136  -20.4231  -12.9751 C   0  0  1  0  0  0  0  0  0  0  0  0
   20.4429  -19.0462  -13.4656 C   0  0  0  0  0  0  0  0  0  0  0  0
   19.1076  -18.4050  -12.3941 S   0  0  0  0  0  0  0  0  0  0  0  0
   19.6017  -21.3018  -13.0547 C   0  0  0  0  0  0  0  0  0  0  0  0
   19.5126  -22.1069  -13.9880 O   0  0  0  0  0  0  0  0  0  0  0  0
   18.5856  -21.2220  -12.0961 O   0  0  0  0  0  0  0  0  0  0  0  0
  2  1  1  6
  2  6  1  0
  3  2  1  0
  3  4  1  0
  4  5  2  0
  6 16  1  0
  6  7  2  0
  8  4  1  0
  9 10  1  0
 10 11  2  0
 11 12  1  0
 13 14  1  0
 13 12  2  0
 15 14  1  1
 15 17  1  0
 16 15  1  0
 17 18  2  0
 19 13  1  0
 20 19  2  0
 20 10  1  0
 21 17  1  0
 21 22  1  0
 22 25  1  0
 22 23  1  6
 24 23  1  0
 25 27  1  0
 26 25  2  0
M  END
$$$$
