DYC.pdb
     RDKit          3D

 27 27  0  0  1  0  0  0  0  0999 V2000
   27.6762  -19.6402  -19.8038 N   0  0  0  0  0  0  0  0  0  0  0  0
   27.7793  -18.8544  -18.5779 C   0  0  1  0  0  0  0  0  0  0  0  0
   27.0630  -17.5308  -18.7766 C   0  0  0  0  0  0  0  0  0  0  0  0
   27.7431  -16.6795  -19.7581 C   0  0  0  0  0  0  0  0  0  0  0  0
   28.9804  -16.5415  -19.7556 O   0  0  0  0  0  0  0  0  0  0  0  0
   27.2889  -19.6111  -17.4066 C   0  0  0  0  0  0  0  0  0  0  0  0
   26.5573  -20.6153  -17.5881 O   0  0  0  0  0  0  0  0  0  0  0  0
   26.9938  -16.0127  -20.7083 O   0  0  0  0  0  0  0  0  0  0  0  0
   25.1542  -21.4658   -8.9854 O   0  0  0  0  0  0  0  0  0  0  0  0
   25.7650  -20.9058  -10.1005 C   0  0  0  0  0  0  0  0  0  0  0  0
   26.4286  -21.7244  -10.9930 C   0  0  0  0  0  0  0  0  0  0  0  0
   27.0549  -21.2332  -12.1161 C   0  0  0  0  0  0  0  0  0  0  0  0
   27.0314  -19.8650  -12.3829 C   0  0  0  0  0  0  0  0  0  0  0  0
   27.7210  -19.4273  -13.6145 C   0  0  0  0  0  0  0  0  0  0  0  0
   27.0372  -19.8697  -14.8892 C   0  0  2  0  0  0  0  0  0  0  0  0
   27.5969  -19.2702  -16.0652 N   0  0  0  0  0  0  0  0  0  0  0  0
   25.6228  -19.4616  -14.7919 C   0  0  0  0  0  0  0  0  0  0  0  0
   25.3717  -18.2289  -14.9519 O   0  0  0  0  0  0  0  0  0  0  0  0
   26.3731  -19.0469  -11.4996 C   0  0  0  0  0  0  0  0  0  0  0  0
   25.7401  -19.5546  -10.3610 C   0  0  0  0  0  0  0  0  0  0  0  0
   24.5352  -20.3221  -14.5368 N   0  0  0  0  0  0  0  0  0  0  0  0
   23.2225  -19.7422  -14.3682 C   0  0  1  0  0  0  0  0  0  0  0  0
   22.4096  -19.7697  -15.6380 C   0  0  0  0  0  0  0  0  0  0  0  0
   20.7028  -19.2592  -15.2276 S   0  0  0  0  0  0  0  0  0  0  0  0
   22.4924  -20.5210  -13.3157 C   0  0  0  0  0  0  0  0  0  0  0  0
   21.4089  -20.0919  -12.9043 O   0  0  0  0  0  0  0  0  0  0  0  0
   23.0166  -21.7126  -12.8028 O   0  0  0  0  0  0  0  0  0  0  0  0
  2  1  1  6
  2  6  1  0
  3  2  1  0
  3  4  1  0
  4  5  2  0
  6 16  1  0
  6  7  2  0
  8  4  1  0
  9 10  1  0
 10 11  2  0
 11 12  1  0
 13 14  1  0
 13 12  2  0
 15 14  1  1
 15 17  1  0
 16 15  1  0
 17 18  2  0
 19 13  1  0
 20 19  2  0
 20 10  1  0
 21 17  1  0
 21 22  1  0
 22 25  1  0
 22 23  1  6
 24 23  1  0
 25 27  1  0
 26 25  2  0
M  END
$$$$
