DYC.pdb
     RDKit          3D

 27 27  0  0  1  0  0  0  0  0999 V2000
   19.3577  -12.6802  -16.4881 N   0  0  0  0  0  0  0  0  0  0  0  0
   20.0454  -11.4355  -16.8177 C   0  0  1  0  0  0  0  0  0  0  0  0
   19.7727  -11.0888  -18.2703 C   0  0  0  0  0  0  0  0  0  0  0  0
   20.2829  -12.1147  -19.1856 C   0  0  0  0  0  0  0  0  0  0  0  0
   21.4681  -12.1176  -19.5666 O   0  0  0  0  0  0  0  0  0  0  0  0
   19.6802  -10.3507  -15.8823 C   0  0  0  0  0  0  0  0  0  0  0  0
   18.4737  -10.1857  -15.5762 O   0  0  0  0  0  0  0  0  0  0  0  0
   19.4285  -13.1017  -19.6380 O   0  0  0  0  0  0  0  0  0  0  0  0
   19.4343   -5.1587   -8.9194 O   0  0  0  0  0  0  0  0  0  0  0  0
   19.9312   -5.8731  -10.0023 C   0  0  0  0  0  0  0  0  0  0  0  0
   19.5844   -7.2011  -10.1553 C   0  0  0  0  0  0  0  0  0  0  0  0
   20.0428   -7.9649  -11.2048 C   0  0  0  0  0  0  0  0  0  0  0  0
   20.8875   -7.3997  -12.1591 C   0  0  0  0  0  0  0  0  0  0  0  0
   21.3234   -8.2897  -13.2553 C   0  0  0  0  0  0  0  0  0  0  0  0
   20.3283   -8.3964  -14.3896 C   0  0  2  0  0  0  0  0  0  0  0  0
   20.6219   -9.4671  -15.2968 N   0  0  0  0  0  0  0  0  0  0  0  0
   20.3823   -7.1277  -15.1405 C   0  0  0  0  0  0  0  0  0  0  0  0
   21.4361   -6.9043  -15.8095 O   0  0  0  0  0  0  0  0  0  0  0  0
   21.2352   -6.0805  -12.0121 C   0  0  0  0  0  0  0  0  0  0  0  0
   20.7652   -5.3123  -10.9427 C   0  0  0  0  0  0  0  0  0  0  0  0
   19.3670   -6.1497  -15.1749 N   0  0  0  0  0  0  0  0  0  0  0  0
   19.5737   -4.9699  -15.9832 C   0  0  1  0  0  0  0  0  0  0  0  0
   18.3483   -4.5876  -16.7744 C   0  0  0  0  0  0  0  0  0  0  0  0
   17.8111   -6.0522  -17.7273 S   0  0  0  0  0  0  0  0  0  0  0  0
   19.9321   -3.8314  -15.0762 C   0  0  0  0  0  0  0  0  0  0  0  0
   19.4111   -3.7775  -13.9568 O   0  0  0  0  0  0  0  0  0  0  0  0
   20.8386   -2.8439  -15.4775 O   0  0  0  0  0  0  0  0  0  0  0  0
  2  1  1  1
  2  6  1  0
  3  2  1  0
  3  4  1  0
  4  5  2  0
  6 16  1  0
  6  7  2  0
  8  4  1  0
  9 10  1  0
 10 11  2  0
 11 12  1  0
 13 14  1  0
 13 12  2  0
 15 14  1  1
 15 17  1  0
 16 15  1  0
 17 18  2  0
 19 13  1  0
 20 19  2  0
 20 10  1  0
 21 17  1  0
 21 22  1  0
 22 25  1  0
 22 23  1  1
 24 23  1  0
 25 27  1  0
 26 25  2  0
M  END
$$$$
