DYC.pdb
     RDKit          3D

 27 27  0  0  1  0  0  0  0  0999 V2000
   27.0996   -4.7817  -20.2452 N   0  0  0  0  0  0  0  0  0  0  0  0
   26.1015   -5.8412  -20.1346 C   0  0  1  0  0  0  0  0  0  0  0  0
   26.5520   -7.0337  -20.9588 C   0  0  0  0  0  0  0  0  0  0  0  0
   26.1779   -6.8994  -22.3704 C   0  0  0  0  0  0  0  0  0  0  0  0
   25.6015   -5.8822  -22.7984 O   0  0  0  0  0  0  0  0  0  0  0  0
   25.8262   -6.1807  -18.7225 C   0  0  0  0  0  0  0  0  0  0  0  0
   26.7460   -6.0702  -17.8750 O   0  0  0  0  0  0  0  0  0  0  0  0
   26.4702   -7.9261  -23.2475 O   0  0  0  0  0  0  0  0  0  0  0  0
   24.4908   -0.5104  -16.1146 O   0  0  0  0  0  0  0  0  0  0  0  0
   24.2153   -1.8720  -16.1285 C   0  0  0  0  0  0  0  0  0  0  0  0
   23.1246   -2.3361  -16.8372 C   0  0  0  0  0  0  0  0  0  0  0  0
   22.7962   -3.6718  -16.8908 C   0  0  0  0  0  0  0  0  0  0  0  0
   23.5776   -4.6075  -16.2142 C   0  0  0  0  0  0  0  0  0  0  0  0
   23.1572   -6.0191  -16.3340 C   0  0  0  0  0  0  0  0  0  0  0  0
   24.2269   -6.9310  -16.8931 C   0  0  2  0  0  0  0  0  0  0  0  0
   24.5664   -6.6319  -18.2535 N   0  0  0  0  0  0  0  0  0  0  0  0
   23.6996   -8.3079  -16.8413 C   0  0  0  0  0  0  0  0  0  0  0  0
   22.9057   -8.6508  -17.7689 O   0  0  0  0  0  0  0  0  0  0  0  0
   24.6628   -4.1520  -15.5086 C   0  0  0  0  0  0  0  0  0  0  0  0
   24.9886   -2.7933  -15.4594 C   0  0  0  0  0  0  0  0  0  0  0  0
   24.0023   -9.2668  -15.8527 N   0  0  0  0  0  0  0  0  0  0  0  0
   23.3770  -10.5667  -15.9391 C   0  0  1  0  0  0  0  0  0  0  0  0
   24.1396  -11.6276  -15.1863 C   0  0  0  0  0  0  0  0  0  0  0  0
   25.8090  -11.7521  -15.9208 S   0  0  0  0  0  0  0  0  0  0  0  0
   21.9975  -10.4679  -15.3609 C   0  0  0  0  0  0  0  0  0  0  0  0
   21.2033  -11.3939  -15.5585 O   0  0  0  0  0  0  0  0  0  0  0  0
   21.6057   -9.3546  -14.6092 O   0  0  0  0  0  0  0  0  0  0  0  0
  2  1  1  1
  2  6  1  0
  3  2  1  0
  3  4  1  0
  4  5  2  0
  6 16  1  0
  6  7  2  0
  8  4  1  0
  9 10  1  0
 10 11  2  0
 11 12  1  0
 13 14  1  0
 13 12  2  0
 15 14  1  6
 15 17  1  0
 16 15  1  0
 17 18  2  0
 19 13  1  0
 20 19  2  0
 20 10  1  0
 21 17  1  0
 21 22  1  0
 22 25  1  0
 22 23  1  1
 24 23  1  0
 25 27  1  0
 26 25  2  0
M  END
$$$$
