DYC.pdb
     RDKit          3D

 27 27  0  0  1  0  0  0  0  0999 V2000
   26.1907  -19.0193  -17.2079 N   0  0  0  0  0  0  0  0  0  0  0  0
   25.5927  -20.0266  -16.3369 C   0  0  1  0  0  0  0  0  0  0  0  0
   26.6734  -20.6199  -15.4513 C   0  0  0  0  0  0  0  0  0  0  0  0
   27.4440  -21.6575  -16.1441 C   0  0  0  0  0  0  0  0  0  0  0  0
   27.2064  -21.9661  -17.3266 O   0  0  0  0  0  0  0  0  0  0  0  0
   24.4529  -19.4753  -15.5739 C   0  0  0  0  0  0  0  0  0  0  0  0
   24.5539  -18.3339  -15.0605 O   0  0  0  0  0  0  0  0  0  0  0  0
   28.4575  -22.3103  -15.4692 O   0  0  0  0  0  0  0  0  0  0  0  0
   20.5242  -15.2129  -19.1175 O   0  0  0  0  0  0  0  0  0  0  0  0
   20.6261  -16.3372  -18.3078 C   0  0  0  0  0  0  0  0  0  0  0  0
   20.2305  -16.2599  -16.9870 C   0  0  0  0  0  0  0  0  0  0  0  0
   20.3064  -17.3360  -16.1320 C   0  0  0  0  0  0  0  0  0  0  0  0
   20.7962  -18.5571  -16.5933 C   0  0  0  0  0  0  0  0  0  0  0  0
   20.8338  -19.6597  -15.6101 C   0  0  0  0  0  0  0  0  0  0  0  0
   22.0616  -19.6503  -14.7265 C   0  0  2  0  0  0  0  0  0  0  0  0
   23.2292  -20.1648  -15.3803 N   0  0  0  0  0  0  0  0  0  0  0  0
   21.7697  -20.5075  -13.5618 C   0  0  0  0  0  0  0  0  0  0  0  0
   21.7910  -21.7606  -13.7553 O   0  0  0  0  0  0  0  0  0  0  0  0
   21.1906  -18.6398  -17.9050 C   0  0  0  0  0  0  0  0  0  0  0  0
   21.1103  -17.5413  -18.7662 C   0  0  0  0  0  0  0  0  0  0  0  0
   21.4702  -20.0523  -12.2612 N   0  0  0  0  0  0  0  0  0  0  0  0
   21.2706  -21.0312  -11.2173 C   0  0  1  0  0  0  0  0  0  0  0  0
   21.6023  -20.4938   -9.8480 C   0  0  0  0  0  0  0  0  0  0  0  0
   20.6262  -18.9703   -9.5871 S   0  0  0  0  0  0  0  0  0  0  0  0
   19.8317  -21.4513  -11.2309 C   0  0  0  0  0  0  0  0  0  0  0  0
   19.0238  -20.7806  -11.8826 O   0  0  0  0  0  0  0  0  0  0  0  0
   19.4002  -22.5794  -10.5246 O   0  0  0  0  0  0  0  0  0  0  0  0
  2  1  1  1
  2  6  1  0
  3  2  1  0
  3  4  1  0
  4  5  2  0
  6 16  1  0
  6  7  2  0
  8  4  1  0
  9 10  1  0
 10 11  2  0
 11 12  1  0
 13 14  1  0
 13 12  2  0
 15 14  1  6
 15 17  1  0
 16 15  1  0
 17 18  2  0
 19 13  1  0
 20 19  2  0
 20 10  1  0
 21 17  1  0
 21 22  1  0
 22 25  1  0
 22 23  1  1
 24 23  1  0
 25 27  1  0
 26 25  2  0
M  END
$$$$
