DYC.pdb
     RDKit          3D

 27 27  0  0  1  0  0  0  0  0999 V2000
   20.8184   -8.4625  -19.3837 N   0  0  0  0  0  0  0  0  0  0  0  0
   21.6258   -7.4134  -18.7685 C   0  0  1  0  0  0  0  0  0  0  0  0
   21.9389   -6.3546  -19.8102 C   0  0  0  0  0  0  0  0  0  0  0  0
   22.8744   -6.8442  -20.8279 C   0  0  0  0  0  0  0  0  0  0  0  0
   23.3454   -7.9957  -20.7808 O   0  0  0  0  0  0  0  0  0  0  0  0
   20.9731   -6.8659  -17.5605 C   0  0  0  0  0  0  0  0  0  0  0  0
   19.7485   -6.5908  -17.5968 O   0  0  0  0  0  0  0  0  0  0  0  0
   23.2440   -6.0081  -21.8639 O   0  0  0  0  0  0  0  0  0  0  0  0
   17.6639  -11.5918  -14.5186 O   0  0  0  0  0  0  0  0  0  0  0  0
   18.4659  -10.4675  -14.3680 C   0  0  0  0  0  0  0  0  0  0  0  0
   19.8154  -10.5545  -14.6481 C   0  0  0  0  0  0  0  0  0  0  0  0
   20.6645   -9.4788  -14.5186 C   0  0  0  0  0  0  0  0  0  0  0  0
   20.1674   -8.2482  -14.0918 C   0  0  0  0  0  0  0  0  0  0  0  0
   21.1477   -7.1470  -13.9901 C   0  0  0  0  0  0  0  0  0  0  0  0
   21.0652   -6.1476  -15.1226 C   0  0  2  0  0  0  0  0  0  0  0  0
   21.6531   -6.6264  -16.3395 N   0  0  0  0  0  0  0  0  0  0  0  0
   21.8020   -4.9422  -14.6976 C   0  0  0  0  0  0  0  0  0  0  0  0
   23.0275   -5.0939  -14.4090 O   0  0  0  0  0  0  0  0  0  0  0  0
   18.8272   -8.1559  -13.8123 C   0  0  0  0  0  0  0  0  0  0  0  0
   17.9721   -9.2539  -13.9462 C   0  0  0  0  0  0  0  0  0  0  0  0
   21.2602   -3.6451  -14.5856 N   0  0  0  0  0  0  0  0  0  0  0  0
   22.1613   -2.5396  -14.3533 C   0  0  1  0  0  0  0  0  0  0  0  0
   23.1632   -2.3650  -15.4666 C   0  0  0  0  0  0  0  0  0  0  0  0
   22.2430   -2.2462  -17.0417 S   0  0  0  0  0  0  0  0  0  0  0  0
   21.3504   -1.2840  -14.2380 C   0  0  0  0  0  0  0  0  0  0  0  0
   20.1378   -1.3372  -14.4703 O   0  0  0  0  0  0  0  0  0  0  0  0
   21.9436   -0.0701  -13.8739 O   0  0  0  0  0  0  0  0  0  0  0  0
  2  1  1  6
  2  6  1  0
  3  2  1  0
  3  4  1  0
  4  5  2  0
  6 16  1  0
  6  7  2  0
  8  4  1  0
  9 10  1  0
 10 11  2  0
 11 12  1  0
 13 14  1  0
 13 12  2  0
 15 14  1  1
 15 17  1  0
 16 15  1  0
 17 18  2  0
 19 13  1  0
 20 19  2  0
 20 10  1  0
 21 17  1  0
 21 22  1  0
 22 25  1  0
 22 23  1  6
 24 23  1  0
 25 27  1  0
 26 25  2  0
M  END
$$$$
