DYC.pdb
     RDKit          3D

 27 27  0  0  1  0  0  0  0  0999 V2000
   18.0567   -9.6097  -16.5269 N   0  0  0  0  0  0  0  0  0  0  0  0
   18.9794  -10.1645  -15.5412 C   0  0  1  0  0  0  0  0  0  0  0  0
   20.2628  -10.5751  -16.2403 C   0  0  0  0  0  0  0  0  0  0  0  0
   20.0640  -11.7316  -17.1199 C   0  0  0  0  0  0  0  0  0  0  0  0
   20.7105  -12.7848  -16.9686 O   0  0  0  0  0  0  0  0  0  0  0  0
   19.2020   -9.2273  -14.4199 C   0  0  0  0  0  0  0  0  0  0  0  0
   20.0013   -9.5449  -13.5051 O   0  0  0  0  0  0  0  0  0  0  0  0
   19.1384  -11.6515  -18.1425 O   0  0  0  0  0  0  0  0  0  0  0  0
   23.7784   -4.8062  -16.8685 O   0  0  0  0  0  0  0  0  0  0  0  0
   22.5786   -5.0217  -16.2020 C   0  0  0  0  0  0  0  0  0  0  0  0
   22.4723   -4.6779  -14.8687 C   0  0  0  0  0  0  0  0  0  0  0  0
   21.3130   -4.8659  -14.1507 C   0  0  0  0  0  0  0  0  0  0  0  0
   20.1939   -5.4209  -14.7701 C   0  0  0  0  0  0  0  0  0  0  0  0
   18.9907   -5.5780  -13.9266 C   0  0  0  0  0  0  0  0  0  0  0  0
   18.8384   -6.9591  -13.3287 C   0  0  2  0  0  0  0  0  0  0  0  0
   18.5593   -7.9684  -14.3080 N   0  0  0  0  0  0  0  0  0  0  0  0
   17.7052   -6.9056  -12.3856 C   0  0  0  0  0  0  0  0  0  0  0  0
   16.5451   -6.8228  -12.8907 O   0  0  0  0  0  0  0  0  0  0  0  0
   20.2939   -5.7641  -16.0948 C   0  0  0  0  0  0  0  0  0  0  0  0
   21.4757   -5.5699  -16.8162 C   0  0  0  0  0  0  0  0  0  0  0  0
   17.8047   -6.9379  -10.9793 N   0  0  0  0  0  0  0  0  0  0  0  0
   16.5964   -6.7969  -10.1995 C   0  0  1  0  0  0  0  0  0  0  0  0
   16.0856   -8.1167   -9.6789 C   0  0  0  0  0  0  0  0  0  0  0  0
   14.7145   -7.7743   -8.5191 S   0  0  0  0  0  0  0  0  0  0  0  0
   16.8877   -5.9025   -9.0323 C   0  0  0  0  0  0  0  0  0  0  0  0
   18.0552   -5.7992   -8.6406 O   0  0  0  0  0  0  0  0  0  0  0  0
   15.8662   -5.1925   -8.3918 O   0  0  0  0  0  0  0  0  0  0  0  0
  2  1  1  6
  2  6  1  0
  3  2  1  0
  3  4  1  0
  4  5  2  0
  6 16  1  0
  6  7  2  0
  8  4  1  0
  9 10  1  0
 10 11  2  0
 11 12  1  0
 13 14  1  0
 13 12  2  0
 15 14  1  6
 15 17  1  0
 16 15  1  0
 17 18  2  0
 19 13  1  0
 20 19  2  0
 20 10  1  0
 21 17  1  0
 21 22  1  0
 22 25  1  0
 22 23  1  1
 24 23  1  0
 25 27  1  0
 26 25  2  0
M  END
$$$$
