DYC.pdb
     RDKit          3D

 27 27  0  0  1  0  0  0  0  0999 V2000
   20.6448   -4.5609  -16.9942 N   0  0  0  0  0  0  0  0  0  0  0  0
   20.8208   -5.7837  -16.2165 C   0  0  1  0  0  0  0  0  0  0  0  0
   19.5072   -6.5437  -16.1848 C   0  0  0  0  0  0  0  0  0  0  0  0
   18.4687   -5.8164  -15.4480 C   0  0  0  0  0  0  0  0  0  0  0  0
   17.3950   -6.3591  -15.1274 O   0  0  0  0  0  0  0  0  0  0  0  0
   21.9485   -6.5922  -16.7262 C   0  0  0  0  0  0  0  0  0  0  0  0
   22.2074   -6.5771  -17.9547 O   0  0  0  0  0  0  0  0  0  0  0  0
   18.6848   -4.4964  -15.1016 O   0  0  0  0  0  0  0  0  0  0  0  0
   29.4159  -11.5592  -16.6419 O   0  0  0  0  0  0  0  0  0  0  0  0
   28.3365  -10.7334  -16.3539 C   0  0  0  0  0  0  0  0  0  0  0  0
   27.4968  -11.0555  -15.3059 C   0  0  0  0  0  0  0  0  0  0  0  0
   26.4100  -10.2807  -14.9691 C   0  0  0  0  0  0  0  0  0  0  0  0
   26.1275   -9.1255  -15.6967 C   0  0  0  0  0  0  0  0  0  0  0  0
   24.9478   -8.3502  -15.2600 C   0  0  0  0  0  0  0  0  0  0  0  0
   23.8951   -8.1808  -16.3331 C   0  0  2  0  0  0  0  0  0  0  0  0
   22.7730   -7.3993  -15.9021 N   0  0  0  0  0  0  0  0  0  0  0  0
   23.4099   -9.5283  -16.6873 C   0  0  0  0  0  0  0  0  0  0  0  0
   22.6409  -10.0959  -15.8539 O   0  0  0  0  0  0  0  0  0  0  0  0
   26.9587   -8.8005  -16.7390 C   0  0  0  0  0  0  0  0  0  0  0  0
   28.0601   -9.5937  -17.0744 C   0  0  0  0  0  0  0  0  0  0  0  0
   23.7289  -10.2324  -17.8667 N   0  0  0  0  0  0  0  0  0  0  0  0
   23.1775  -11.5555  -18.0498 C   0  0  1  0  0  0  0  0  0  0  0  0
   22.2608  -11.6409  -19.2440 C   0  0  0  0  0  0  0  0  0  0  0  0
   20.6943  -10.8015  -18.8153 S   0  0  0  0  0  0  0  0  0  0  0  0
   24.3102  -12.5175  -18.2464 C   0  0  0  0  0  0  0  0  0  0  0  0
   25.3191  -12.1318  -18.8469 O   0  0  0  0  0  0  0  0  0  0  0  0
   24.2387  -13.8285  -17.7627 O   0  0  0  0  0  0  0  0  0  0  0  0
  2  1  1  6
  2  6  1  0
  3  2  1  0
  3  4  1  0
  4  5  2  0
  6 16  1  0
  6  7  2  0
  8  4  1  0
  9 10  1  0
 10 11  2  0
 11 12  1  0
 13 14  1  0
 13 12  2  0
 15 14  1  1
 15 17  1  0
 16 15  1  0
 17 18  2  0
 19 13  1  0
 20 19  2  0
 20 10  1  0
 21 17  1  0
 21 22  1  0
 22 25  1  0
 22 23  1  6
 24 23  1  0
 25 27  1  0
 26 25  2  0
M  END
$$$$
