DYC.pdb
     RDKit          3D

 27 27  0  0  1  0  0  0  0  0999 V2000
   17.8899   -9.2132  -16.9944 N   0  0  0  0  0  0  0  0  0  0  0  0
   17.7793   -9.2866  -15.5406 C   0  0  1  0  0  0  0  0  0  0  0  0
   18.3156  -10.6266  -15.0703 C   0  0  0  0  0  0  0  0  0  0  0  0
   17.3261  -11.6983  -15.2208 C   0  0  0  0  0  0  0  0  0  0  0  0
   16.1884  -11.4765  -15.6752 O   0  0  0  0  0  0  0  0  0  0  0  0
   18.4381   -8.1351  -14.8885 C   0  0  0  0  0  0  0  0  0  0  0  0
   18.4404   -8.0594  -13.6352 O   0  0  0  0  0  0  0  0  0  0  0  0
   17.6625  -12.9857  -14.8485 O   0  0  0  0  0  0  0  0  0  0  0  0
   24.1281  -10.7905  -14.5827 O   0  0  0  0  0  0  0  0  0  0  0  0
   23.4377   -9.5953  -14.7401 C   0  0  0  0  0  0  0  0  0  0  0  0
   22.9322   -9.2625  -15.9814 C   0  0  0  0  0  0  0  0  0  0  0  0
   22.2400   -8.0938  -16.2047 C   0  0  0  0  0  0  0  0  0  0  0  0
   22.0291   -7.1996  -15.1560 C   0  0  0  0  0  0  0  0  0  0  0  0
   21.2687   -5.9755  -15.4838 C   0  0  0  0  0  0  0  0  0  0  0  0
   19.8273   -6.0094  -15.0261 C   0  0  2  0  0  0  0  0  0  0  0  0
   19.0800   -7.0900  -15.6000 N   0  0  0  0  0  0  0  0  0  0  0  0
   19.2034   -4.7413  -15.4494 C   0  0  0  0  0  0  0  0  0  0  0  0
   18.8150   -4.6701  -16.6545 O   0  0  0  0  0  0  0  0  0  0  0  0
   22.5289   -7.5253  -13.9203 C   0  0  0  0  0  0  0  0  0  0  0  0
   23.2313   -8.7145  -13.7029 C   0  0  0  0  0  0  0  0  0  0  0  0
   19.0055   -3.6099  -14.6313 N   0  0  0  0  0  0  0  0  0  0  0  0
   18.3041   -2.4739  -15.1841 C   0  0  1  0  0  0  0  0  0  0  0  0
   17.3749   -1.8263  -14.1886 C   0  0  0  0  0  0  0  0  0  0  0  0
   16.0643   -3.0309  -13.7721 S   0  0  0  0  0  0  0  0  0  0  0  0
   19.3170   -1.4598  -15.6231 C   0  0  0  0  0  0  0  0  0  0  0  0
   20.5141   -1.6905  -15.4207 O   0  0  0  0  0  0  0  0  0  0  0  0
   18.9268   -0.2723  -16.2520 O   0  0  0  0  0  0  0  0  0  0  0  0
  2  1  1  6
  2  6  1  0
  3  2  1  0
  3  4  1  0
  4  5  2  0
  6 16  1  0
  6  7  2  0
  8  4  1  0
  9 10  1  0
 10 11  2  0
 11 12  1  0
 13 14  1  0
 13 12  2  0
 15 14  1  6
 15 17  1  0
 16 15  1  0
 17 18  2  0
 19 13  1  0
 20 19  2  0
 20 10  1  0
 21 17  1  0
 21 22  1  0
 22 25  1  0
 22 23  1  1
 24 23  1  0
 25 27  1  0
 26 25  2  0
M  END
$$$$
