DYC.pdb
     RDKit          3D

 27 27  0  0  1  0  0  0  0  0999 V2000
   27.9487  -20.3830  -17.3111 N   0  0  0  0  0  0  0  0  0  0  0  0
   26.9625  -21.4588  -17.3419 C   0  0  1  0  0  0  0  0  0  0  0  0
   27.6210  -22.7191  -17.8734 C   0  0  0  0  0  0  0  0  0  0  0  0
   28.3799  -22.4665  -19.1025 C   0  0  0  0  0  0  0  0  0  0  0  0
   28.4315  -21.3335  -19.6160 O   0  0  0  0  0  0  0  0  0  0  0  0
   26.3258  -21.6478  -16.0213 C   0  0  0  0  0  0  0  0  0  0  0  0
   25.4921  -22.5744  -15.8698 O   0  0  0  0  0  0  0  0  0  0  0  0
   29.0533  -23.5104  -19.7074 O   0  0  0  0  0  0  0  0  0  0  0  0
   24.2717  -20.6989   -7.4376 O   0  0  0  0  0  0  0  0  0  0  0  0
   24.8452  -20.5001   -8.6872 C   0  0  0  0  0  0  0  0  0  0  0  0
   25.5367  -21.5334   -9.2882 C   0  0  0  0  0  0  0  0  0  0  0  0
   26.1288  -21.4018  -10.5239 C   0  0  0  0  0  0  0  0  0  0  0  0
   26.0402  -20.1924  -11.2119 C   0  0  0  0  0  0  0  0  0  0  0  0
   26.6970  -20.1434  -12.5348 C   0  0  0  0  0  0  0  0  0  0  0  0
   25.9794  -20.9369  -13.6042 C   0  0  2  0  0  0  0  0  0  0  0  0
   26.6005  -20.8350  -14.8924 N   0  0  0  0  0  0  0  0  0  0  0  0
   24.6111  -20.3951  -13.7077 C   0  0  0  0  0  0  0  0  0  0  0  0
   24.4620  -19.3509  -14.4116 O   0  0  0  0  0  0  0  0  0  0  0  0
   25.3541  -19.1622  -10.6196 C   0  0  0  0  0  0  0  0  0  0  0  0
   24.7561  -19.3048   -9.3639 C   0  0  0  0  0  0  0  0  0  0  0  0
   23.4640  -20.9377  -13.0927 N   0  0  0  0  0  0  0  0  0  0  0  0
   22.1925  -20.2866  -13.3097 C   0  0  1  0  0  0  0  0  0  0  0  0
   21.6471  -20.5275  -14.6947 C   0  0  0  0  0  0  0  0  0  0  0  0
   20.3641  -19.2676  -15.0241 S   0  0  0  0  0  0  0  0  0  0  0  0
   21.2110  -20.8191  -12.3096 C   0  0  0  0  0  0  0  0  0  0  0  0
   21.5679  -21.7303  -11.5547 O   0  0  0  0  0  0  0  0  0  0  0  0
   19.9139  -20.3018  -12.2220 O   0  0  0  0  0  0  0  0  0  0  0  0
  2  1  1  1
  2  6  1  0
  3  2  1  0
  3  4  1  0
  4  5  2  0
  6 16  1  0
  6  7  2  0
  8  4  1  0
  9 10  1  0
 10 11  2  0
 11 12  1  0
 13 14  1  0
 13 12  2  0
 15 14  1  1
 15 17  1  0
 16 15  1  0
 17 18  2  0
 19 13  1  0
 20 19  2  0
 20 10  1  0
 21 17  1  0
 21 22  1  0
 22 25  1  0
 22 23  1  6
 24 23  1  0
 25 27  1  0
 26 25  2  0
M  END
$$$$
