VSF.pdb
     RDKit          3D

 25 25  0  0  1  0  0  0  0  0999 V2000
   28.7870  -19.9282  -18.1098 C   0  0  0  0  0  0  0  0  0  0  0  0
   28.6924  -21.4137  -18.2668 C   0  0  2  0  0  0  0  0  0  0  0  0
   28.1664  -21.7165  -19.6547 C   0  0  0  0  0  0  0  0  0  0  0  0
   27.7585  -22.0574  -17.2732 C   0  0  2  0  0  0  0  0  0  0  0  0
   26.3856  -21.7728  -17.6252 N   0  0  0  0  0  0  0  0  0  0  0  0
   28.0587  -21.6306  -15.8771 C   0  0  0  0  0  0  0  0  0  0  0  0
   28.9697  -22.1939  -15.2199 O   0  0  0  0  0  0  0  0  0  0  0  0
   26.8702  -18.1780  -14.5287 O   0  0  0  0  0  0  0  0  0  0  0  0
   27.8020  -18.8149  -13.7160 C   0  0  0  0  0  0  0  0  0  0  0  0
   27.5813  -20.3063  -13.8604 C   0  0  2  0  0  0  0  0  0  0  0  0
   27.3430  -20.5874  -15.2368 N   0  0  0  0  0  0  0  0  0  0  0  0
   26.4513  -20.7606  -12.9817 C   0  0  0  0  0  0  0  0  0  0  0  0
   25.3033  -20.8453  -13.4510 O   0  0  0  0  0  0  0  0  0  0  0  0
   26.6538  -21.1001  -11.6185 N   0  0  0  0  0  0  0  0  0  0  0  0
   25.5730  -21.5067  -10.7274 C   0  0  1  0  0  0  0  0  0  0  0  0
   26.0723  -22.0899   -9.4571 C   0  0  0  0  0  0  0  0  0  0  0  0
   26.8098  -21.0939   -8.6856 C   0  0  0  0  0  0  0  0  0  0  0  0
   28.1798  -21.1183   -8.6104 C   0  0  0  0  0  0  0  0  0  0  0  0
   28.8727  -20.1520   -7.8643 C   0  0  0  0  0  0  0  0  0  0  0  0
   28.1813  -19.1675   -7.1988 C   0  0  0  0  0  0  0  0  0  0  0  0
   26.8097  -19.1375   -7.2701 C   0  0  0  0  0  0  0  0  0  0  0  0
   26.1449  -20.0976   -8.0098 C   0  0  0  0  0  0  0  0  0  0  0  0
   24.6105  -20.4422  -10.4958 C   0  0  0  0  0  0  0  0  0  0  0  0
   24.7654  -19.2152  -10.6446 O   0  0  0  0  0  0  0  0  0  0  0  0
   23.3246  -20.8125  -10.0432 O   0  0  0  0  0  0  0  0  0  0  0  0
  2  1  1  1
  2  4  1  0
  2  3  1  0
  4  6  1  0
  4  5  1  6
  6  7  2  0
  9  8  1  0
 10  9  1  6
 10 12  1  0
 11  6  1  0
 11 10  1  0
 12 13  2  0
 14 15  1  0
 14 12  1  0
 15 23  1  0
 15 16  1  1
 17 16  1  0
 18 17  2  0
 19 18  1  0
 20 21  1  0
 20 19  2  0
 21 22  2  0
 22 17  1  0
 23 24  2  0
 23 25  1  0
M  END
$$$$
