VSF.pdb
     RDKit          3D

 25 25  0  0  1  0  0  0  0  0999 V2000
   25.7194  -18.0596  -16.2736 C   0  0  0  0  0  0  0  0  0  0  0  0
   25.6948  -17.0533  -15.1659 C   0  0  2  0  0  0  0  0  0  0  0  0
   26.2360  -15.7421  -15.6974 C   0  0  0  0  0  0  0  0  0  0  0  0
   26.5410  -17.4515  -13.9831 C   0  0  2  0  0  0  0  0  0  0  0  0
   27.9289  -17.5495  -14.3755 N   0  0  0  0  0  0  0  0  0  0  0  0
   26.0627  -18.7205  -13.3648 C   0  0  0  0  0  0  0  0  0  0  0  0
   24.8756  -18.8284  -12.9671 O   0  0  0  0  0  0  0  0  0  0  0  0
   26.9290  -21.8780  -14.6002 O   0  0  0  0  0  0  0  0  0  0  0  0
   26.8658  -22.2244  -13.2547 C   0  0  0  0  0  0  0  0  0  0  0  0
   26.4395  -20.9882  -12.4905 C   0  0  2  0  0  0  0  0  0  0  0  0
   26.9101  -19.8453  -13.1995 N   0  0  0  0  0  0  0  0  0  0  0  0
   26.9532  -21.0358  -11.0801 C   0  0  0  0  0  0  0  0  0  0  0  0
   28.1769  -21.1070  -10.8736 O   0  0  0  0  0  0  0  0  0  0  0  0
   26.0775  -21.0016   -9.9636 N   0  0  0  0  0  0  0  0  0  0  0  0
   26.5450  -20.9631   -8.5826 C   0  0  1  0  0  0  0  0  0  0  0  0
   27.5353  -19.8827   -8.3473 C   0  0  0  0  0  0  0  0  0  0  0  0
   27.9565  -19.8628   -6.9497 C   0  0  0  0  0  0  0  0  0  0  0  0
   28.9410  -20.6996   -6.4874 C   0  0  0  0  0  0  0  0  0  0  0  0
   29.3338  -20.6665   -5.1402 C   0  0  0  0  0  0  0  0  0  0  0  0
   28.7326  -19.7908   -4.2673 C   0  0  0  0  0  0  0  0  0  0  0  0
   27.7463  -18.9505   -4.7238 C   0  0  0  0  0  0  0  0  0  0  0  0
   27.3730  -18.9976   -6.0539 C   0  0  0  0  0  0  0  0  0  0  0  0
   25.4524  -20.9173   -7.6246 C   0  0  0  0  0  0  0  0  0  0  0  0
   25.3815  -21.4639   -6.5075 O   0  0  0  0  0  0  0  0  0  0  0  0
   24.3092  -20.1649   -7.9745 O   0  0  0  0  0  0  0  0  0  0  0  0
  2  1  1  6
  2  4  1  0
  2  3  1  0
  4  6  1  0
  4  5  1  6
  6  7  2  0
  9  8  1  0
 10  9  1  6
 10 12  1  0
 11  6  1  0
 11 10  1  0
 12 13  2  0
 14 15  1  0
 14 12  1  0
 15 23  1  0
 15 16  1  6
 17 16  1  0
 18 17  2  0
 19 18  1  0
 20 21  1  0
 20 19  2  0
 21 22  2  0
 22 17  1  0
 23 24  2  0
 23 25  1  0
M  END
$$$$
