VSF.pdb
     RDKit          3D

 25 25  0  0  1  0  0  0  0  0999 V2000
   24.9330   -3.4348  -22.0342 C   0  0  0  0  0  0  0  0  0  0  0  0
   24.8245   -4.1703  -20.7352 C   0  0  2  0  0  0  0  0  0  0  0  0
   24.1396   -5.4970  -20.9912 C   0  0  0  0  0  0  0  0  0  0  0  0
   24.0158   -3.4304  -19.6997 C   0  0  2  0  0  0  0  0  0  0  0  0
   24.6592   -2.1792  -19.3677 N   0  0  0  0  0  0  0  0  0  0  0  0
   23.7858   -4.2601  -18.4831 C   0  0  0  0  0  0  0  0  0  0  0  0
   24.7132   -4.4516  -17.6570 O   0  0  0  0  0  0  0  0  0  0  0  0
   20.1131   -5.0399  -17.0158 O   0  0  0  0  0  0  0  0  0  0  0  0
   21.2478   -5.0621  -16.2119 C   0  0  0  0  0  0  0  0  0  0  0  0
   22.3716   -5.6570  -17.0349 C   0  0  2  0  0  0  0  0  0  0  0  0
   22.5319   -4.8612  -18.2059 N   0  0  0  0  0  0  0  0  0  0  0  0
   22.0855   -7.0955  -17.3577 C   0  0  0  0  0  0  0  0  0  0  0  0
   21.3787   -7.3761  -18.3410 O   0  0  0  0  0  0  0  0  0  0  0  0
   22.6016   -8.1562  -16.5682 N   0  0  0  0  0  0  0  0  0  0  0  0
   22.2838   -9.5591  -16.8091 C   0  0  1  0  0  0  0  0  0  0  0  0
   23.3947  -10.2884  -17.4703 C   0  0  0  0  0  0  0  0  0  0  0  0
   24.5976  -10.2577  -16.6436 C   0  0  0  0  0  0  0  0  0  0  0  0
   24.7310  -11.0686  -15.5446 C   0  0  0  0  0  0  0  0  0  0  0  0
   25.8951  -11.0261  -14.7614 C   0  0  0  0  0  0  0  0  0  0  0  0
   26.9172  -10.1674  -15.0900 C   0  0  0  0  0  0  0  0  0  0  0  0
   26.7898   -9.3530  -16.1890 C   0  0  0  0  0  0  0  0  0  0  0  0
   25.6360   -9.4090  -16.9482 C   0  0  0  0  0  0  0  0  0  0  0  0
   21.8231  -10.2408  -15.6105 C   0  0  0  0  0  0  0  0  0  0  0  0
   21.3190  -11.3757  -15.5131 O   0  0  0  0  0  0  0  0  0  0  0  0
   21.9489   -9.5559  -14.3815 O   0  0  0  0  0  0  0  0  0  0  0  0
  2  1  1  6
  2  4  1  0
  2  3  1  0
  4  6  1  0
  4  5  1  1
  6  7  2  0
  9  8  1  0
 10  9  1  6
 10 12  1  0
 11  6  1  0
 11 10  1  0
 12 13  2  0
 14 15  1  0
 14 12  1  0
 15 23  1  0
 15 16  1  1
 17 16  1  0
 18 17  2  0
 19 18  1  0
 20 21  1  0
 20 19  2  0
 21 22  2  0
 22 17  1  0
 23 24  2  0
 23 25  1  0
M  END
$$$$
