VSF.pdb
     RDKit          3D

 25 25  0  0  1  0  0  0  0  0999 V2000
   16.7501  -11.0278  -15.9196 C   0  0  0  0  0  0  0  0  0  0  0  0
   16.4223  -10.6946  -17.3414 C   0  0  2  0  0  0  0  0  0  0  0  0
   15.1191  -11.3760  -17.7052 C   0  0  0  0  0  0  0  0  0  0  0  0
   17.4714  -11.1629  -18.3180 C   0  0  2  0  0  0  0  0  0  0  0  0
   17.5336  -12.6072  -18.3259 N   0  0  0  0  0  0  0  0  0  0  0  0
   18.8048  -10.5656  -18.0239 C   0  0  0  0  0  0  0  0  0  0  0  0
   19.6403  -11.1860  -17.3195 O   0  0  0  0  0  0  0  0  0  0  0  0
   20.3067   -7.5113  -20.1511 O   0  0  0  0  0  0  0  0  0  0  0  0
   21.1639   -8.3521  -19.4492 C   0  0  0  0  0  0  0  0  0  0  0  0
   20.4574   -8.7501  -18.1700 C   0  0  2  0  0  0  0  0  0  0  0  0
   19.1859   -9.2918  -18.5165 N   0  0  0  0  0  0  0  0  0  0  0  0
   20.3428   -7.5746  -17.2423 C   0  0  0  0  0  0  0  0  0  0  0  0
   19.2829   -6.9266  -17.1991 O   0  0  0  0  0  0  0  0  0  0  0  0
   21.4169   -7.1755  -16.4045 N   0  0  0  0  0  0  0  0  0  0  0  0
   21.3762   -5.9814  -15.5679 C   0  0  1  0  0  0  0  0  0  0  0  0
   21.8502   -6.2395  -14.1851 C   0  0  0  0  0  0  0  0  0  0  0  0
   22.5550   -7.5157  -14.1099 C   0  0  0  0  0  0  0  0  0  0  0  0
   22.0937   -8.5423  -13.3249 C   0  0  0  0  0  0  0  0  0  0  0  0
   22.7841   -9.7631  -13.2652 C   0  0  0  0  0  0  0  0  0  0  0  0
   23.9346   -9.9419  -13.9964 C   0  0  0  0  0  0  0  0  0  0  0  0
   24.4016   -8.9180  -14.7842 C   0  0  0  0  0  0  0  0  0  0  0  0
   23.7081   -7.7231  -14.8302 C   0  0  0  0  0  0  0  0  0  0  0  0
   22.0599   -4.8512  -16.1750 C   0  0  0  0  0  0  0  0  0  0  0  0
   22.7846   -4.8405  -17.1881 O   0  0  0  0  0  0  0  0  0  0  0  0
   21.9033   -3.5881  -15.5621 O   0  0  0  0  0  0  0  0  0  0  0  0
  2  1  1  1
  2  4  1  0
  2  3  1  0
  4  6  1  0
  4  5  1  1
  6  7  2  0
  9  8  1  0
 10  9  1  6
 10 12  1  0
 11  6  1  0
 11 10  1  0
 12 13  2  0
 14 15  1  0
 14 12  1  0
 15 23  1  0
 15 16  1  1
 17 16  1  0
 18 17  2  0
 19 18  1  0
 20 21  1  0
 20 19  2  0
 21 22  2  0
 22 17  1  0
 23 24  2  0
 23 25  1  0
M  END
$$$$
