VSF.pdb
     RDKit          3D

 25 25  0  0  1  0  0  0  0  0999 V2000
   22.9783  -16.1680  -18.2396 C   0  0  0  0  0  0  0  0  0  0  0  0
   23.2637  -16.5744  -16.8277 C   0  0  2  0  0  0  0  0  0  0  0  0
   24.7657  -16.6439  -16.6433 C   0  0  0  0  0  0  0  0  0  0  0  0
   22.6963  -17.9256  -16.4725 C   0  0  2  0  0  0  0  0  0  0  0  0
   21.2926  -17.9801  -16.8134 N   0  0  0  0  0  0  0  0  0  0  0  0
   22.9175  -18.2566  -15.0363 C   0  0  0  0  0  0  0  0  0  0  0  0
   22.6556  -17.4155  -14.1402 O   0  0  0  0  0  0  0  0  0  0  0  0
   22.4954  -20.7954  -11.4110 O   0  0  0  0  0  0  0  0  0  0  0  0
   22.3110  -20.4800  -12.7530 C   0  0  0  0  0  0  0  0  0  0  0  0
   23.5735  -19.7942  -13.2324 C   0  0  2  0  0  0  0  0  0  0  0  0
   23.4249  -19.5140  -14.6215 N   0  0  0  0  0  0  0  0  0  0  0  0
   24.7776  -20.6456  -12.9480 C   0  0  0  0  0  0  0  0  0  0  0  0
   24.9921  -21.6571  -13.6379 O   0  0  0  0  0  0  0  0  0  0  0  0
   25.6881  -20.3291  -11.9061 N   0  0  0  0  0  0  0  0  0  0  0  0
   26.8693  -21.1307  -11.6066 C   0  0  1  0  0  0  0  0  0  0  0  0
   27.9860  -20.3172  -11.0641 C   0  0  0  0  0  0  0  0  0  0  0  0
   27.7197  -19.9302   -9.6819 C   0  0  0  0  0  0  0  0  0  0  0  0
   26.8539  -18.9095   -9.3791 C   0  0  0  0  0  0  0  0  0  0  0  0
   26.6093  -18.5512   -8.0441 C   0  0  0  0  0  0  0  0  0  0  0  0
   27.2382  -19.2232   -7.0227 C   0  0  0  0  0  0  0  0  0  0  0  0
   28.1061  -20.2459   -7.3192 C   0  0  0  0  0  0  0  0  0  0  0  0
   28.3343  -20.5844   -8.6399 C   0  0  0  0  0  0  0  0  0  0  0  0
   26.5681  -22.2738  -10.7604 C   0  0  0  0  0  0  0  0  0  0  0  0
   27.2875  -23.2592  -10.5089 O   0  0  0  0  0  0  0  0  0  0  0  0
   25.3058  -22.3020  -10.1270 O   0  0  0  0  0  0  0  0  0  0  0  0
  2  1  1  6
  2  4  1  0
  2  3  1  0
  4  6  1  0
  4  5  1  1
  6  7  2  0
  9  8  1  0
 10  9  1  6
 10 12  1  0
 11  6  1  0
 11 10  1  0
 12 13  2  0
 14 15  1  0
 14 12  1  0
 15 23  1  0
 15 16  1  1
 17 16  1  0
 18 17  2  0
 19 18  1  0
 20 21  1  0
 20 19  2  0
 21 22  2  0
 22 17  1  0
 23 24  2  0
 23 25  1  0
M  END
$$$$
