VSF.pdb
     RDKit          3D

 25 25  0  0  1  0  0  0  0  0999 V2000
   28.8920  -18.2308  -16.5644 C   0  0  0  0  0  0  0  0  0  0  0  0
   27.5976  -18.9527  -16.3553 C   0  0  2  0  0  0  0  0  0  0  0  0
   27.2253  -18.8545  -14.8902 C   0  0  0  0  0  0  0  0  0  0  0  0
   27.6696  -20.4160  -16.7119 C   0  0  2  0  0  0  0  0  0  0  0  0
   28.2780  -20.5811  -18.0127 N   0  0  0  0  0  0  0  0  0  0  0  0
   26.3286  -21.0642  -16.6555 C   0  0  0  0  0  0  0  0  0  0  0  0
   25.3870  -20.6452  -17.3746 O   0  0  0  0  0  0  0  0  0  0  0  0
   25.6236  -24.6574  -14.8282 O   0  0  0  0  0  0  0  0  0  0  0  0
   24.8055  -24.1879  -15.8503 C   0  0  0  0  0  0  0  0  0  0  0  0
   24.7330  -22.6812  -15.7134 C   0  0  2  0  0  0  0  0  0  0  0  0
   26.0577  -22.1643  -15.8030 N   0  0  0  0  0  0  0  0  0  0  0  0
   24.0577  -22.2996  -14.4274 C   0  0  0  0  0  0  0  0  0  0  0  0
   24.4692  -22.7712  -13.3534 O   0  0  0  0  0  0  0  0  0  0  0  0
   22.9533  -21.4084  -14.3984 N   0  0  0  0  0  0  0  0  0  0  0  0
   22.2127  -21.0935  -13.1819 C   0  0  1  0  0  0  0  0  0  0  0  0
   22.6818  -19.8406  -12.5388 C   0  0  0  0  0  0  0  0  0  0  0  0
   23.8527  -20.0946  -11.7047 C   0  0  0  0  0  0  0  0  0  0  0  0
   25.1173  -20.1233  -12.2368 C   0  0  0  0  0  0  0  0  0  0  0  0
   26.2319  -20.3685  -11.4196 C   0  0  0  0  0  0  0  0  0  0  0  0
   26.0657  -20.5833  -10.0718 C   0  0  0  0  0  0  0  0  0  0  0  0
   24.8023  -20.5559   -9.5330 C   0  0  0  0  0  0  0  0  0  0  0  0
   23.7169  -20.3128  -10.3536 C   0  0  0  0  0  0  0  0  0  0  0  0
   20.7738  -21.0927  -13.3890 C   0  0  0  0  0  0  0  0  0  0  0  0
   20.1487  -21.1183  -14.4662 O   0  0  0  0  0  0  0  0  0  0  0  0
   19.9497  -21.0589  -12.2423 O   0  0  0  0  0  0  0  0  0  0  0  0
  2  1  1  1
  2  4  1  0
  2  3  1  0
  4  6  1  0
  4  5  1  6
  6  7  2  0
  9  8  1  0
 10  9  1  1
 10 12  1  0
 11  6  1  0
 11 10  1  0
 12 13  2  0
 14 15  1  0
 14 12  1  0
 15 23  1  0
 15 16  1  6
 17 16  1  0
 18 17  2  0
 19 18  1  0
 20 21  1  0
 20 19  2  0
 21 22  2  0
 22 17  1  0
 23 24  2  0
 23 25  1  0
M  END
$$$$
