VSF.pdb
     RDKit          3D

 25 25  0  0  1  0  0  0  0  0999 V2000
   20.1372  -12.5866  -20.5383 C   0  0  0  0  0  0  0  0  0  0  0  0
   20.2491  -11.8608  -19.2341 C   0  0  2  0  0  0  0  0  0  0  0  0
   20.6957  -10.4404  -19.5127 C   0  0  0  0  0  0  0  0  0  0  0  0
   21.2528  -12.4798  -18.2943 C   0  0  2  0  0  0  0  0  0  0  0  0
   20.9021  -13.8570  -18.0298 N   0  0  0  0  0  0  0  0  0  0  0  0
   21.3779  -11.7009  -17.0298 C   0  0  0  0  0  0  0  0  0  0  0  0
   20.4600  -11.7256  -16.1720 O   0  0  0  0  0  0  0  0  0  0  0  0
   23.8807   -9.7743  -13.6316 O   0  0  0  0  0  0  0  0  0  0  0  0
   23.8727  -10.4765  -14.8321 C   0  0  0  0  0  0  0  0  0  0  0  0
   22.5695  -10.1549  -15.5336 C   0  0  2  0  0  0  0  0  0  0  0  0
   22.5186  -10.9097  -16.7410 N   0  0  0  0  0  0  0  0  0  0  0  0
   22.4522   -8.6779  -15.7791 C   0  0  0  0  0  0  0  0  0  0  0  0
   23.0357   -8.1681  -16.7510 O   0  0  0  0  0  0  0  0  0  0  0  0
   21.6886   -7.8366  -14.9283 N   0  0  0  0  0  0  0  0  0  0  0  0
   21.6257   -6.3879  -15.0847 C   0  0  1  0  0  0  0  0  0  0  0  0
   20.2361   -5.8939  -15.2535 C   0  0  0  0  0  0  0  0  0  0  0  0
   20.2273   -4.4616  -15.5354 C   0  0  0  0  0  0  0  0  0  0  0  0
   20.4789   -3.9790  -16.7952 C   0  0  0  0  0  0  0  0  0  0  0  0
   20.4657   -2.5983  -17.0482 C   0  0  0  0  0  0  0  0  0  0  0  0
   20.1992   -1.7127  -16.0309 C   0  0  0  0  0  0  0  0  0  0  0  0
   19.9466   -2.1894  -14.7675 C   0  0  0  0  0  0  0  0  0  0  0  0
   19.9640   -3.5524  -14.5376 C   0  0  0  0  0  0  0  0  0  0  0  0
   22.3291   -5.6813  -14.0267 C   0  0  0  0  0  0  0  0  0  0  0  0
   23.0754   -4.6887  -14.1248 O   0  0  0  0  0  0  0  0  0  0  0  0
   22.1672   -6.1554  -12.7060 O   0  0  0  0  0  0  0  0  0  0  0  0
  2  1  1  6
  2  4  1  0
  2  3  1  0
  4  6  1  0
  4  5  1  1
  6  7  2  0
  9  8  1  0
 10  9  1  6
 10 12  1  0
 11  6  1  0
 11 10  1  0
 12 13  2  0
 14 15  1  0
 14 12  1  0
 15 23  1  0
 15 16  1  1
 17 16  1  0
 18 17  2  0
 19 18  1  0
 20 21  1  0
 20 19  2  0
 21 22  2  0
 22 17  1  0
 23 24  2  0
 23 25  1  0
M  END
$$$$
