VSF.pdb
     RDKit          3D

 25 25  0  0  1  0  0  0  0  0999 V2000
   19.0041  -11.7739  -19.9941 C   0  0  0  0  0  0  0  0  0  0  0  0
   19.1725  -10.8449  -18.8328 C   0  0  2  0  0  0  0  0  0  0  0  0
   20.0904   -9.7150  -19.2519 C   0  0  0  0  0  0  0  0  0  0  0  0
   19.7859  -11.5085  -17.6256 C   0  0  2  0  0  0  0  0  0  0  0  0
   18.9578  -12.6104  -17.1901 N   0  0  0  0  0  0  0  0  0  0  0  0
   20.0183  -10.5363  -16.5201 C   0  0  0  0  0  0  0  0  0  0  0  0
   19.0487   -9.9850  -15.9413 O   0  0  0  0  0  0  0  0  0  0  0  0
   23.7545   -9.8041  -15.1014 O   0  0  0  0  0  0  0  0  0  0  0  0
   22.6938   -9.6106  -14.2229 C   0  0  0  0  0  0  0  0  0  0  0  0
   21.4877   -9.2200  -15.0515 C   0  0  2  0  0  0  0  0  0  0  0  0
   21.3213  -10.1944  -16.0778 N   0  0  0  0  0  0  0  0  0  0  0  0
   21.6527   -7.8331  -15.6034 C   0  0  0  0  0  0  0  0  0  0  0  0
   22.0393   -7.6795  -16.7748 O   0  0  0  0  0  0  0  0  0  0  0  0
   21.3786   -6.6798  -14.8225 N   0  0  0  0  0  0  0  0  0  0  0  0
   21.5348   -5.3194  -15.3248 C   0  0  1  0  0  0  0  0  0  0  0  0
   20.9104   -5.1303  -16.6580 C   0  0  0  0  0  0  0  0  0  0  0  0
   21.1288   -3.7708  -17.1430 C   0  0  0  0  0  0  0  0  0  0  0  0
   20.0841   -2.9002  -17.3260 C   0  0  0  0  0  0  0  0  0  0  0  0
   20.3128   -1.5962  -17.7926 C   0  0  0  0  0  0  0  0  0  0  0  0
   21.5922   -1.1775  -18.0719 C   0  0  0  0  0  0  0  0  0  0  0  0
   22.6425   -2.0443  -17.8909 C   0  0  0  0  0  0  0  0  0  0  0  0
   22.3976   -3.3245  -17.4305 C   0  0  0  0  0  0  0  0  0  0  0  0
   21.0910   -4.3175  -14.3694 C   0  0  0  0  0  0  0  0  0  0  0  0
   21.5023   -3.1502  -14.2276 O   0  0  0  0  0  0  0  0  0  0  0  0
   20.0627   -4.6820  -13.4722 O   0  0  0  0  0  0  0  0  0  0  0  0
  2  1  1  6
  2  4  1  0
  2  3  1  0
  4  6  1  0
  4  5  1  1
  6  7  2  0
  9  8  1  0
 10  9  1  6
 10 12  1  0
 11  6  1  0
 11 10  1  0
 12 13  2  0
 14 15  1  0
 14 12  1  0
 15 23  1  0
 15 16  1  6
 17 16  1  0
 18 17  2  0
 19 18  1  0
 20 21  1  0
 20 19  2  0
 21 22  2  0
 22 17  1  0
 23 24  2  0
 23 25  1  0
M  END
$$$$
