VSF.pdb
     RDKit          3D

 25 25  0  0  1  0  0  0  0  0999 V2000
   18.2021  -11.6010  -20.0084 C   0  0  0  0  0  0  0  0  0  0  0  0
   19.3835  -11.5285  -20.9245 C   0  0  2  0  0  0  0  0  0  0  0  0
   19.0867  -12.3590  -22.1562 C   0  0  0  0  0  0  0  0  0  0  0  0
   20.6491  -12.0653  -20.3050 C   0  0  2  0  0  0  0  0  0  0  0  0
   20.4969  -13.4708  -20.0027 N   0  0  0  0  0  0  0  0  0  0  0  0
   21.0421  -11.2908  -19.0938 C   0  0  0  0  0  0  0  0  0  0  0  0
   20.7331  -11.7005  -17.9467 O   0  0  0  0  0  0  0  0  0  0  0  0
   23.7058   -8.0369  -16.9633 O   0  0  0  0  0  0  0  0  0  0  0  0
   23.4267   -8.7157  -18.1447 C   0  0  0  0  0  0  0  0  0  0  0  0
   22.0542   -9.3381  -17.9933 C   0  0  2  0  0  0  0  0  0  0  0  0
   21.7701  -10.0770  -19.1780 N   0  0  0  0  0  0  0  0  0  0  0  0
   21.0226   -8.2819  -17.7188 C   0  0  0  0  0  0  0  0  0  0  0  0
   20.5304   -7.6426  -18.6645 O   0  0  0  0  0  0  0  0  0  0  0  0
   20.5867   -7.9868  -16.4005 N   0  0  0  0  0  0  0  0  0  0  0  0
   19.5833   -6.9719  -16.0994 C   0  0  1  0  0  0  0  0  0  0  0  0
   18.2177   -7.5408  -15.9777 C   0  0  0  0  0  0  0  0  0  0  0  0
   18.1519   -8.4960  -14.8757 C   0  0  0  0  0  0  0  0  0  0  0  0
   18.0633   -8.0783  -13.5715 C   0  0  0  0  0  0  0  0  0  0  0  0
   18.0003   -9.0110  -12.5244 C   0  0  0  0  0  0  0  0  0  0  0  0
   18.0270  -10.3582  -12.7974 C   0  0  0  0  0  0  0  0  0  0  0  0
   18.1156  -10.7828  -14.1009 C   0  0  0  0  0  0  0  0  0  0  0  0
   18.1767   -9.8494  -15.1187 C   0  0  0  0  0  0  0  0  0  0  0  0
   19.9390   -6.1604  -14.9468 C   0  0  0  0  0  0  0  0  0  0  0  0
   20.8749   -6.3297  -14.1424 O   0  0  0  0  0  0  0  0  0  0  0  0
   19.1409   -5.0267  -14.6759 O   0  0  0  0  0  0  0  0  0  0  0  0
  2  1  1  1
  2  4  1  0
  2  3  1  0
  4  6  1  0
  4  5  1  1
  6  7  2  0
  9  8  1  0
 10  9  1  6
 10 12  1  0
 11  6  1  0
 11 10  1  0
 12 13  2  0
 14 15  1  0
 14 12  1  0
 15 23  1  0
 15 16  1  1
 17 16  1  0
 18 17  2  0
 19 18  1  0
 20 21  1  0
 20 19  2  0
 21 22  2  0
 22 17  1  0
 23 24  2  0
 23 25  1  0
M  END
$$$$
