VSF.pdb
     RDKit          3D

 25 25  0  0  1  0  0  0  0  0999 V2000
   12.7946  -12.8987  -16.2324 C   0  0  0  0  0  0  0  0  0  0  0  0
   13.9943  -12.0253  -16.4269 C   0  0  2  0  0  0  0  0  0  0  0  0
   14.2547  -11.2744  -15.1372 C   0  0  0  0  0  0  0  0  0  0  0  0
   13.8144  -11.0045  -17.5221 C   0  0  2  0  0  0  0  0  0  0  0  0
   13.5186  -11.6653  -18.7733 N   0  0  0  0  0  0  0  0  0  0  0  0
   15.0036  -10.1149  -17.6479 C   0  0  0  0  0  0  0  0  0  0  0  0
   16.1146  -10.5818  -18.0038 O   0  0  0  0  0  0  0  0  0  0  0  0
   14.7874   -6.0953  -16.8696 O   0  0  0  0  0  0  0  0  0  0  0  0
   15.6050   -6.5050  -17.9175 C   0  0  0  0  0  0  0  0  0  0  0  0
   16.0829   -7.9056  -17.5953 C   0  0  2  0  0  0  0  0  0  0  0  0
   14.9377   -8.7247  -17.3767 N   0  0  0  0  0  0  0  0  0  0  0  0
   17.0066   -7.8892  -16.4113 C   0  0  0  0  0  0  0  0  0  0  0  0
   16.5507   -8.0930  -15.2730 O   0  0  0  0  0  0  0  0  0  0  0  0
   18.3981   -7.6462  -16.5516 N   0  0  0  0  0  0  0  0  0  0  0  0
   19.2977   -7.4762  -15.4162 C   0  0  1  0  0  0  0  0  0  0  0  0
   20.7157   -7.7355  -15.7704 C   0  0  0  0  0  0  0  0  0  0  0  0
   21.5692   -7.6395  -14.5900 C   0  0  0  0  0  0  0  0  0  0  0  0
   21.8495   -8.7393  -13.8186 C   0  0  0  0  0  0  0  0  0  0  0  0
   22.6729   -8.6286  -12.6872 C   0  0  0  0  0  0  0  0  0  0  0  0
   23.2086   -7.4109  -12.3399 C   0  0  0  0  0  0  0  0  0  0  0  0
   22.9319   -6.3061  -13.1079 C   0  0  0  0  0  0  0  0  0  0  0  0
   22.1189   -6.4347  -14.2185 C   0  0  0  0  0  0  0  0  0  0  0  0
   19.1280   -6.1914  -14.7573 C   0  0  0  0  0  0  0  0  0  0  0  0
   18.9879   -5.0688  -15.2787 O   0  0  0  0  0  0  0  0  0  0  0  0
   19.1161   -6.1792  -13.3449 O   0  0  0  0  0  0  0  0  0  0  0  0
  2  1  1  1
  2  4  1  0
  2  3  1  0
  4  6  1  0
  4  5  1  6
  6  7  2  0
  9  8  1  0
 10  9  1  1
 10 12  1  0
 11  6  1  0
 11 10  1  0
 12 13  2  0
 14 15  1  0
 14 12  1  0
 15 23  1  0
 15 16  1  6
 17 16  1  0
 18 17  2  0
 19 18  1  0
 20 21  1  0
 20 19  2  0
 21 22  2  0
 22 17  1  0
 23 24  2  0
 23 25  1  0
M  END
$$$$
