VSF.pdb
     RDKit          3D

 25 25  0  0  1  0  0  0  0  0999 V2000
   22.0206  -21.4145  -15.3624 C   0  0  0  0  0  0  0  0  0  0  0  0
   21.3996  -20.2577  -14.6438 C   0  0  2  0  0  0  0  0  0  0  0  0
   20.8144  -19.3125  -15.6727 C   0  0  0  0  0  0  0  0  0  0  0  0
   22.3860  -19.4759  -13.8133 C   0  0  2  0  0  0  0  0  0  0  0  0
   23.3114  -18.7725  -14.6725 N   0  0  0  0  0  0  0  0  0  0  0  0
   23.1053  -20.3496  -12.8435 C   0  0  0  0  0  0  0  0  0  0  0  0
   22.4664  -21.0280  -12.0005 O   0  0  0  0  0  0  0  0  0  0  0  0
   27.0818  -21.4104  -13.2123 O   0  0  0  0  0  0  0  0  0  0  0  0
   26.1048  -22.2196  -12.6421 C   0  0  0  0  0  0  0  0  0  0  0  0
   25.1549  -21.3143  -11.8858 C   0  0  2  0  0  0  0  0  0  0  0  0
   24.5193  -20.4541  -12.8272 N   0  0  0  0  0  0  0  0  0  0  0  0
   25.8883  -20.5511  -10.8204 C   0  0  0  0  0  0  0  0  0  0  0  0
   26.3002  -19.4029  -11.0599 O   0  0  0  0  0  0  0  0  0  0  0  0
   26.1288  -21.1041   -9.5355 N   0  0  0  0  0  0  0  0  0  0  0  0
   27.0408  -20.5065   -8.5666 C   0  0  1  0  0  0  0  0  0  0  0  0
   26.5330  -20.6000   -7.1749 C   0  0  0  0  0  0  0  0  0  0  0  0
   27.5055  -20.0554   -6.2322 C   0  0  0  0  0  0  0  0  0  0  0  0
   27.6936  -18.7026   -6.1000 C   0  0  0  0  0  0  0  0  0  0  0  0
   28.6328  -18.1965   -5.1878 C   0  0  0  0  0  0  0  0  0  0  0  0
   29.3766  -19.0563   -4.4147 C   0  0  0  0  0  0  0  0  0  0  0  0
   29.1932  -20.4117   -4.5422 C   0  0  0  0  0  0  0  0  0  0  0  0
   28.2635  -20.8913   -5.4458 C   0  0  0  0  0  0  0  0  0  0  0  0
   28.3961  -21.0184   -8.6865 C   0  0  0  0  0  0  0  0  0  0  0  0
   28.7656  -22.1994   -8.8294 O   0  0  0  0  0  0  0  0  0  0  0  0
   29.4534  -20.0829   -8.6386 O   0  0  0  0  0  0  0  0  0  0  0  0
  2  1  1  6
  2  4  1  0
  2  3  1  0
  4  6  1  0
  4  5  1  6
  6  7  2  0
  9  8  1  0
 10  9  1  6
 10 12  1  0
 11  6  1  0
 11 10  1  0
 12 13  2  0
 14 15  1  0
 14 12  1  0
 15 23  1  0
 15 16  1  1
 17 16  1  0
 18 17  2  0
 19 18  1  0
 20 21  1  0
 20 19  2  0
 21 22  2  0
 22 17  1  0
 23 24  2  0
 23 25  1  0
M  END
$$$$
