VSF.pdb
     RDKit          3D

 25 25  0  0  1  0  0  0  0  0999 V2000
   20.3832  -19.1783  -11.2989 C   0  0  0  0  0  0  0  0  0  0  0  0
   21.2250  -18.7079  -12.4436 C   0  0  2  0  0  0  0  0  0  0  0  0
   20.3602  -17.8684  -13.3613 C   0  0  0  0  0  0  0  0  0  0  0  0
   21.7986  -19.8370  -13.2621 C   0  0  2  0  0  0  0  0  0  0  0  0
   20.7321  -20.6299  -13.8310 N   0  0  0  0  0  0  0  0  0  0  0  0
   22.7318  -20.6797  -12.4620 C   0  0  0  0  0  0  0  0  0  0  0  0
   22.2870  -21.5363  -11.6573 O   0  0  0  0  0  0  0  0  0  0  0  0
   26.8478  -21.0175  -13.1575 O   0  0  0  0  0  0  0  0  0  0  0  0
   26.0038  -22.0301  -12.7140 C   0  0  0  0  0  0  0  0  0  0  0  0
   24.9863  -21.3957  -11.7887 C   0  0  2  0  0  0  0  0  0  0  0  0
   24.1402  -20.5564  -12.5697 N   0  0  0  0  0  0  0  0  0  0  0  0
   25.6729  -20.6442  -10.6845 C   0  0  0  0  0  0  0  0  0  0  0  0
   25.3312  -19.4762  -10.4308 O   0  0  0  0  0  0  0  0  0  0  0  0
   26.7101  -21.2305   -9.9130 N   0  0  0  0  0  0  0  0  0  0  0  0
   27.4319  -20.5129   -8.8684 C   0  0  1  0  0  0  0  0  0  0  0  0
   26.6685  -20.4390   -7.5976 C   0  0  0  0  0  0  0  0  0  0  0  0
   27.4900  -19.8701   -6.5333 C   0  0  0  0  0  0  0  0  0  0  0  0
   28.1559  -20.6698   -5.6388 C   0  0  0  0  0  0  0  0  0  0  0  0
   28.9419  -20.1055   -4.6219 C   0  0  0  0  0  0  0  0  0  0  0  0
   29.0522  -18.7394   -4.5125 C   0  0  0  0  0  0  0  0  0  0  0  0
   28.3880  -17.9333   -5.4049 C   0  0  0  0  0  0  0  0  0  0  0  0
   27.6187  -18.5074   -6.3996 C   0  0  0  0  0  0  0  0  0  0  0  0
   28.7768  -21.0266   -8.6657 C   0  0  0  0  0  0  0  0  0  0  0  0
   29.1759  -22.2031   -8.7571 O   0  0  0  0  0  0  0  0  0  0  0  0
   29.7842  -20.0989   -8.3195 O   0  0  0  0  0  0  0  0  0  0  0  0
  2  1  1  1
  2  4  1  0
  2  3  1  0
  4  6  1  0
  4  5  1  1
  6  7  2  0
  9  8  1  0
 10  9  1  6
 10 12  1  0
 11  6  1  0
 11 10  1  0
 12 13  2  0
 14 15  1  0
 14 12  1  0
 15 23  1  0
 15 16  1  1
 17 16  1  0
 18 17  2  0
 19 18  1  0
 20 21  1  0
 20 19  2  0
 21 22  2  0
 22 17  1  0
 23 24  2  0
 23 25  1  0
M  END
$$$$
