VSF.pdb
     RDKit          3D

 25 25  0  0  1  0  0  0  0  0999 V2000
   16.1461  -12.3797  -16.4631 C   0  0  0  0  0  0  0  0  0  0  0  0
   17.2027  -11.3608  -16.1707 C   0  0  2  0  0  0  0  0  0  0  0  0
   16.5254  -10.0359  -15.8865 C   0  0  0  0  0  0  0  0  0  0  0  0
   18.1575  -11.1494  -17.3185 C   0  0  2  0  0  0  0  0  0  0  0  0
   18.8131  -12.3930  -17.6549 N   0  0  0  0  0  0  0  0  0  0  0  0
   19.1498  -10.0780  -17.0205 C   0  0  0  0  0  0  0  0  0  0  0  0
   20.1104  -10.2973  -16.2407 O   0  0  0  0  0  0  0  0  0  0  0  0
   18.6876   -6.0311  -17.9801 O   0  0  0  0  0  0  0  0  0  0  0  0
   19.8910   -6.6620  -18.2769 C   0  0  0  0  0  0  0  0  0  0  0  0
   20.0526   -7.8073  -17.2992 C   0  0  2  0  0  0  0  0  0  0  0  0
   19.0577   -8.7841  -17.5931 N   0  0  0  0  0  0  0  0  0  0  0  0
   19.9639   -7.3107  -15.8846 C   0  0  0  0  0  0  0  0  0  0  0  0
   19.0395   -7.7032  -15.1521 O   0  0  0  0  0  0  0  0  0  0  0  0
   20.9114   -6.3981  -15.3515 N   0  0  0  0  0  0  0  0  0  0  0  0
   20.9029   -5.9596  -13.9604 C   0  0  1  0  0  0  0  0  0  0  0  0
   20.9936   -7.0930  -13.0063 C   0  0  0  0  0  0  0  0  0  0  0  0
   20.8256   -6.6273  -11.6329 C   0  0  0  0  0  0  0  0  0  0  0  0
   19.5879   -6.3127  -11.1307 C   0  0  0  0  0  0  0  0  0  0  0  0
   19.4450   -5.8669   -9.8074 C   0  0  0  0  0  0  0  0  0  0  0  0
   20.5495   -5.7407   -8.9984 C   0  0  0  0  0  0  0  0  0  0  0  0
   21.7914   -6.0540   -9.4952 C   0  0  0  0  0  0  0  0  0  0  0  0
   21.9123   -6.4914  -10.8009 C   0  0  0  0  0  0  0  0  0  0  0  0
   21.9037   -4.9402  -13.6906 C   0  0  0  0  0  0  0  0  0  0  0  0
   21.7937   -3.9166  -12.9894 O   0  0  0  0  0  0  0  0  0  0  0  0
   23.1752   -5.1009  -14.2847 O   0  0  0  0  0  0  0  0  0  0  0  0
  2  1  1  6
  2  4  1  0
  2  3  1  0
  4  6  1  0
  4  5  1  1
  6  7  2  0
  9  8  1  0
 10  9  1  6
 10 12  1  0
 11  6  1  0
 11 10  1  0
 12 13  2  0
 14 15  1  0
 14 12  1  0
 15 23  1  0
 15 16  1  1
 17 16  1  0
 18 17  2  0
 19 18  1  0
 20 21  1  0
 20 19  2  0
 21 22  2  0
 22 17  1  0
 23 24  2  0
 23 25  1  0
M  END
$$$$
