WQG.pdb
     RDKit          3D

 28 29  0  0  1  0  0  0  0  0999 V2000
    6.4859  -17.8977   23.8203 N   0  0  0  0  0  0  0  0  0  0  0  0
    6.9118  -16.5234   23.7619 C   0  0  1  0  0  0  0  0  0  0  0  0
    7.6791  -16.1806   25.0048 C   0  0  0  0  0  0  0  0  0  0  0  0
    6.9711  -15.0826   25.7157 C   0  0  0  0  0  0  0  0  0  0  0  0
    5.7360  -15.2400   26.3702 C   0  0  0  0  0  0  0  0  0  0  0  0
    5.4109  -14.0690   26.9324 N   0  0  0  0  0  0  0  0  0  0  0  0
    6.3593  -13.1482   26.6862 C   0  0  0  0  0  0  0  0  0  0  0  0
    6.4471  -11.8267   27.0509 C   0  0  0  0  0  0  0  0  0  0  0  0
    7.5383  -11.0938   26.6505 C   0  0  0  0  0  0  0  0  0  0  0  0
    8.5235  -11.7207   25.8835 C   0  0  0  0  0  0  0  0  0  0  0  0
    8.4106  -13.0534   25.5301 C   0  0  0  0  0  0  0  0  0  0  0  0
    7.3323  -13.7875   25.9243 C   0  0  0  0  0  0  0  0  0  0  0  0
    7.7373  -16.3514   22.5344 C   0  0  0  0  0  0  0  0  0  0  0  0
    8.2514  -17.3363   22.0046 O   0  0  0  0  0  0  0  0  0  0  0  0
    8.9679  -14.5156   17.6045 N   0  0  0  0  0  0  0  0  0  0  0  0
    7.6582  -14.1683   17.9881 C   0  0  0  0  0  0  0  0  0  0  0  0
    6.7379  -14.4248   17.1388 O   0  0  0  0  0  0  0  0  0  0  0  0
    7.3444  -13.5359   19.3071 C   0  0  0  0  0  0  0  0  0  0  0  0
    8.6087  -13.5465   20.1297 C   0  0  0  0  0  0  0  0  0  0  0  0
    8.8324  -14.8699   20.8145 C   0  0  2  0  0  0  0  0  0  0  0  0
    7.9562  -15.0653   21.9426 N   0  0  0  0  0  0  0  0  0  0  0  0
   10.2294  -15.0704   21.2302 C   0  0  0  0  0  0  0  0  0  0  0  0
   11.1378  -14.9863   20.3788 O   0  0  0  0  0  0  0  0  0  0  0  0
   10.5916  -15.3613   22.5869 N   0  0  0  0  0  0  0  0  0  0  0  0
   11.9467  -15.4745   23.0398 C   0  0  0  0  0  0  0  0  0  0  0  0
   12.6378  -16.6637   22.5143 C   0  0  0  0  0  0  0  0  0  0  0  0
   14.0249  -16.6705   22.5193 O   0  0  0  0  0  0  0  0  0  0  0  0
   12.0550  -17.6799   22.0585 O   0  0  0  0  0  0  0  0  0  0  0  0
  2  1  1  1
  3  4  1  0
  3  2  1  0
  4  5  2  0
  6  5  1  0
  7  6  1  0
  8  7  2  0
  9  8  1  0
 10 11  1  0
 10  9  2  0
 11 12  2  0
 12  7  1  0
 12  4  1  0
 13 21  1  0
 13  2  1  0
 14 13  2  0
 16 15  1  0
 17 16  2  0
 18 16  1  0
 20 19  1  1
 19 18  1  0
 20 22  1  0
 20 21  1  0
 22 23  2  0
 24 25  1  0
 24 22  1  0
 25 26  1  0
 26 28  2  0
 26 27  1  0
M  END
$$$$
