WQG.pdb
     RDKit          3D

 28 29  0  0  1  0  0  0  0  0999 V2000
    7.3169  -18.2970   24.6511 N   0  0  0  0  0  0  0  0  0  0  0  0
    7.4879  -16.9141   24.2882 C   0  0  1  0  0  0  0  0  0  0  0  0
    8.1467  -16.1751   25.4157 C   0  0  0  0  0  0  0  0  0  0  0  0
    7.1988  -15.1537   25.9359 C   0  0  0  0  0  0  0  0  0  0  0  0
    5.9078  -15.4504   26.4090 C   0  0  0  0  0  0  0  0  0  0  0  0
    5.3485  -14.3105   26.8343 N   0  0  0  0  0  0  0  0  0  0  0  0
    6.1952  -13.2792   26.6685 C   0  0  0  0  0  0  0  0  0  0  0  0
    6.0514  -11.9423   26.9498 C   0  0  0  0  0  0  0  0  0  0  0  0
    7.0865  -11.0844   26.6661 C   0  0  0  0  0  0  0  0  0  0  0  0
    8.2530  -11.6038   26.0991 C   0  0  0  0  0  0  0  0  0  0  0  0
    8.3720  -12.9547   25.8260 C   0  0  0  0  0  0  0  0  0  0  0  0
    7.3505  -13.8124   26.1056 C   0  0  0  0  0  0  0  0  0  0  0  0
    8.3013  -16.8648   23.0417 C   0  0  0  0  0  0  0  0  0  0  0  0
    9.0588  -17.7969   22.7727 O   0  0  0  0  0  0  0  0  0  0  0  0
    8.0498  -12.6279   17.8420 N   0  0  0  0  0  0  0  0  0  0  0  0
    8.4136  -13.9678   17.6070 C   0  0  0  0  0  0  0  0  0  0  0  0
    8.0473  -14.4605   16.4858 O   0  0  0  0  0  0  0  0  0  0  0  0
    9.1829  -14.7812   18.5992 C   0  0  0  0  0  0  0  0  0  0  0  0
    8.4015  -14.7842   19.8894 C   0  0  0  0  0  0  0  0  0  0  0  0
    9.0076  -15.7000   20.9212 C   0  0  2  0  0  0  0  0  0  0  0  0
    8.2318  -15.7578   22.1349 N   0  0  0  0  0  0  0  0  0  0  0  0
   10.4031  -15.3597   21.2396 C   0  0  0  0  0  0  0  0  0  0  0  0
   10.7948  -14.1846   21.0881 O   0  0  0  0  0  0  0  0  0  0  0  0
   11.3392  -16.3334   21.7213 N   0  0  0  0  0  0  0  0  0  0  0  0
   12.1372  -17.1595   20.8639 C   0  0  0  0  0  0  0  0  0  0  0  0
   13.3365  -16.4767   20.3508 C   0  0  0  0  0  0  0  0  0  0  0  0
   14.5487  -16.7219   20.9790 O   0  0  0  0  0  0  0  0  0  0  0  0
   13.3389  -15.6820   19.3769 O   0  0  0  0  0  0  0  0  0  0  0  0
  2  1  1  1
  3  4  1  0
  3  2  1  0
  4  5  2  0
  6  5  1  0
  7  6  1  0
  8  7  2  0
  9  8  1  0
 10 11  1  0
 10  9  2  0
 11 12  2  0
 12  7  1  0
 12  4  1  0
 13 21  1  0
 13  2  1  0
 14 13  2  0
 16 15  1  0
 17 16  2  0
 18 16  1  0
 20 19  1  6
 19 18  1  0
 20 22  1  0
 20 21  1  0
 22 23  2  0
 24 25  1  0
 24 22  1  0
 25 26  1  0
 26 28  2  0
 26 27  1  0
M  END
$$$$
