WQG.pdb
     RDKit          3D

 28 29  0  0  1  0  0  0  0  0999 V2000
    7.3339  -17.6143   24.1228 N   0  0  0  0  0  0  0  0  0  0  0  0
    8.2942  -16.5693   23.8796 C   0  0  1  0  0  0  0  0  0  0  0  0
    8.6592  -15.9089   25.1765 C   0  0  0  0  0  0  0  0  0  0  0  0
    7.5222  -15.0561   25.6150 C   0  0  0  0  0  0  0  0  0  0  0  0
    6.2811  -15.5620   26.0418 C   0  0  0  0  0  0  0  0  0  0  0  0
    5.5102  -14.5268   26.3981 N   0  0  0  0  0  0  0  0  0  0  0  0
    6.1704  -13.3675   26.2305 C   0  0  0  0  0  0  0  0  0  0  0  0
    5.7808  -12.0692   26.4538 C   0  0  0  0  0  0  0  0  0  0  0  0
    6.6626  -11.0507   26.1835 C   0  0  0  0  0  0  0  0  0  0  0  0
    7.9290  -11.3724   25.6887 C   0  0  0  0  0  0  0  0  0  0  0  0
    8.2962  -12.6886   25.4730 C   0  0  0  0  0  0  0  0  0  0  0  0
    7.4280  -13.7046   25.7398 C   0  0  0  0  0  0  0  0  0  0  0  0
    9.4784  -17.1808   23.2152 C   0  0  0  0  0  0  0  0  0  0  0  0
    9.9471  -18.2308   23.6542 O   0  0  0  0  0  0  0  0  0  0  0  0
   12.6127  -20.0115   19.1296 N   0  0  0  0  0  0  0  0  0  0  0  0
   12.3951  -18.6461   18.8630 C   0  0  0  0  0  0  0  0  0  0  0  0
   13.3276  -18.0420   18.2308 O   0  0  0  0  0  0  0  0  0  0  0  0
   11.1525  -17.9289   19.2870 C   0  0  0  0  0  0  0  0  0  0  0  0
   11.5726  -16.7410   20.1162 C   0  0  0  0  0  0  0  0  0  0  0  0
   11.3971  -16.9853   21.5926 C   0  0  2  0  0  0  0  0  0  0  0  0
   10.0979  -16.5824   22.0704 N   0  0  0  0  0  0  0  0  0  0  0  0
   12.4446  -16.3493   22.4066 C   0  0  0  0  0  0  0  0  0  0  0  0
   12.2042  -15.2621   22.9700 O   0  0  0  0  0  0  0  0  0  0  0  0
   13.7424  -16.9344   22.5799 N   0  0  0  0  0  0  0  0  0  0  0  0
   14.7705  -16.3580   23.3954 C   0  0  0  0  0  0  0  0  0  0  0  0
   16.0362  -17.1090   23.3520 C   0  0  0  0  0  0  0  0  0  0  0  0
   17.1154  -16.6155   24.0703 O   0  0  0  0  0  0  0  0  0  0  0  0
   16.2084  -18.1732   22.7054 O   0  0  0  0  0  0  0  0  0  0  0  0
  2  1  1  1
  3  4  1  0
  3  2  1  0
  4  5  2  0
  6  5  1  0
  7  6  1  0
  8  7  2  0
  9  8  1  0
 10 11  1  0
 10  9  2  0
 11 12  2  0
 12  7  1  0
 12  4  1  0
 13 21  1  0
 13  2  1  0
 14 13  2  0
 16 15  1  0
 17 16  2  0
 18 16  1  0
 20 19  1  6
 19 18  1  0
 20 22  1  0
 20 21  1  0
 22 23  2  0
 24 25  1  0
 24 22  1  0
 25 26  1  0
 26 28  2  0
 26 27  1  0
M  END
$$$$
