WQG.pdb
     RDKit          3D

 28 29  0  0  1  0  0  0  0  0999 V2000
    6.6347  -17.8404   24.3412 N   0  0  0  0  0  0  0  0  0  0  0  0
    7.1860  -16.5960   23.8712 C   0  0  1  0  0  0  0  0  0  0  0  0
    8.1654  -16.0670   24.8773 C   0  0  0  0  0  0  0  0  0  0  0  0
    7.4724  -15.0760   25.7433 C   0  0  0  0  0  0  0  0  0  0  0  0
    6.6208  -15.4239   26.8073 C   0  0  0  0  0  0  0  0  0  0  0  0
    6.2036  -14.2942   27.3928 N   0  0  0  0  0  0  0  0  0  0  0  0
    6.7300  -13.2214   26.7763 C   0  0  0  0  0  0  0  0  0  0  0  0
    6.5785  -11.8782   27.0211 C   0  0  0  0  0  0  0  0  0  0  0  0
    7.2320  -10.9745   26.2183 C   0  0  0  0  0  0  0  0  0  0  0  0
    8.0301  -11.4554   25.1773 C   0  0  0  0  0  0  0  0  0  0  0  0
    8.1657  -12.8136   24.9526 C   0  0  0  0  0  0  0  0  0  0  0  0
    7.5221  -13.7164   25.7450 C   0  0  0  0  0  0  0  0  0  0  0  0
    7.8277  -16.8487   22.5512 C   0  0  0  0  0  0  0  0  0  0  0  0
    8.5990  -17.7991   22.4222 O   0  0  0  0  0  0  0  0  0  0  0  0
    7.9381  -14.6300   16.4567 N   0  0  0  0  0  0  0  0  0  0  0  0
    8.1885  -13.6985   17.4826 C   0  0  0  0  0  0  0  0  0  0  0  0
    8.5851  -12.5428   17.1070 O   0  0  0  0  0  0  0  0  0  0  0  0
    8.0066  -14.0250   18.9312 C   0  0  0  0  0  0  0  0  0  0  0  0
    7.5758  -15.4676   19.0225 C   0  0  0  0  0  0  0  0  0  0  0  0
    8.2538  -16.1947   20.1548 C   0  0  2  0  0  0  0  0  0  0  0  0
    7.5756  -16.0145   21.4141 N   0  0  0  0  0  0  0  0  0  0  0  0
    9.6727  -15.8337   20.2989 C   0  0  0  0  0  0  0  0  0  0  0  0
   10.0045  -14.9933   21.1597 O   0  0  0  0  0  0  0  0  0  0  0  0
   10.6986  -16.4142   19.4822 N   0  0  0  0  0  0  0  0  0  0  0  0
   12.0738  -16.0132   19.5307 C   0  0  0  0  0  0  0  0  0  0  0  0
   12.9298  -16.7576   18.5921 C   0  0  0  0  0  0  0  0  0  0  0  0
   14.2797  -16.4419   18.5458 O   0  0  0  0  0  0  0  0  0  0  0  0
   12.5203  -17.6651   17.8247 O   0  0  0  0  0  0  0  0  0  0  0  0
  2  1  1  1
  3  4  1  0
  3  2  1  0
  4  5  2  0
  6  5  1  0
  7  6  1  0
  8  7  2  0
  9  8  1  0
 10 11  1  0
 10  9  2  0
 11 12  2  0
 12  7  1  0
 12  4  1  0
 13 21  1  0
 13  2  1  0
 14 13  2  0
 16 15  1  0
 17 16  2  0
 18 16  1  0
 20 19  1  6
 19 18  1  0
 20 22  1  0
 20 21  1  0
 22 23  2  0
 24 25  1  0
 24 22  1  0
 25 26  1  0
 26 28  2  0
 26 27  1  0
M  END
$$$$
