WQG.pdb
     RDKit          3D

 28 29  0  0  1  0  0  0  0  0999 V2000
    6.7987  -18.2621   24.0438 N   0  0  0  0  0  0  0  0  0  0  0  0
    6.9309  -16.8302   23.9691 C   0  0  1  0  0  0  0  0  0  0  0  0
    7.6623  -16.3280   25.1791 C   0  0  0  0  0  0  0  0  0  0  0  0
    6.9854  -15.0980   25.6702 C   0  0  0  0  0  0  0  0  0  0  0  0
    5.6035  -15.0084   25.9169 C   0  0  0  0  0  0  0  0  0  0  0  0
    5.3430  -13.7808   26.3838 N   0  0  0  0  0  0  0  0  0  0  0  0
    6.4726  -13.0552   26.4587 C   0  0  0  0  0  0  0  0  0  0  0  0
    6.6856  -11.7606   26.8658 C   0  0  0  0  0  0  0  0  0  0  0  0
    7.9610  -11.2505   26.8322 C   0  0  0  0  0  0  0  0  0  0  0  0
    9.0002  -12.0694   26.3831 C   0  0  0  0  0  0  0  0  0  0  0  0
    8.7583  -13.3701   25.9789 C   0  0  0  0  0  0  0  0  0  0  0  0
    7.4965  -13.8839   26.0104 C   0  0  0  0  0  0  0  0  0  0  0  0
    7.6521  -16.5019   22.7082 C   0  0  0  0  0  0  0  0  0  0  0  0
    8.3034  -17.3751   22.1352 O   0  0  0  0  0  0  0  0  0  0  0  0
    7.0692  -14.8798   18.1056 N   0  0  0  0  0  0  0  0  0  0  0  0
    8.1181  -13.9514   17.9608 C   0  0  0  0  0  0  0  0  0  0  0  0
    8.5900  -13.8172   16.7804 O   0  0  0  0  0  0  0  0  0  0  0  0
    8.6604  -13.1607   19.1092 C   0  0  0  0  0  0  0  0  0  0  0  0
    7.8696  -13.5391   20.3366 C   0  0  0  0  0  0  0  0  0  0  0  0
    8.3148  -14.8558   20.9183 C   0  0  2  0  0  0  0  0  0  0  0  0
    7.6137  -15.1904   22.1328 N   0  0  0  0  0  0  0  0  0  0  0  0
    9.7664  -14.9180   21.1498 C   0  0  0  0  0  0  0  0  0  0  0  0
   10.5437  -14.8365   20.1770 O   0  0  0  0  0  0  0  0  0  0  0  0
   10.3283  -15.0698   22.4603 N   0  0  0  0  0  0  0  0  0  0  0  0
   11.7368  -15.0646   22.7256 C   0  0  0  0  0  0  0  0  0  0  0  0
   12.4539  -16.1766   22.0798 C   0  0  0  0  0  0  0  0  0  0  0  0
   13.1894  -15.9047   20.9355 O   0  0  0  0  0  0  0  0  0  0  0  0
   12.4464  -17.3629   22.4954 O   0  0  0  0  0  0  0  0  0  0  0  0
  2  1  1  1
  3  4  1  0
  3  2  1  0
  4  5  2  0
  6  5  1  0
  7  6  1  0
  8  7  2  0
  9  8  1  0
 10 11  1  0
 10  9  2  0
 11 12  2  0
 12  7  1  0
 12  4  1  0
 13 21  1  0
 13  2  1  0
 14 13  2  0
 16 15  1  0
 17 16  2  0
 18 16  1  0
 20 19  1  1
 19 18  1  0
 20 22  1  0
 20 21  1  0
 22 23  2  0
 24 25  1  0
 24 22  1  0
 25 26  1  0
 26 28  2  0
 26 27  1  0
M  END
$$$$
