WQG.pdb
     RDKit          3D

 28 29  0  0  1  0  0  0  0  0999 V2000
    9.5167  -15.3608   21.5034 N   0  0  0  0  0  0  0  0  0  0  0  0
    9.3796  -15.2417   22.9319 C   0  0  1  0  0  0  0  0  0  0  0  0
    8.0099  -15.6932   23.3458 C   0  0  0  0  0  0  0  0  0  0  0  0
    7.1445  -14.4960   23.5195 C   0  0  0  0  0  0  0  0  0  0  0  0
    6.2846  -13.9986   22.5237 C   0  0  0  0  0  0  0  0  0  0  0  0
    5.6315  -12.9435   23.0271 N   0  0  0  0  0  0  0  0  0  0  0  0
    6.0113  -12.7157   24.2967 C   0  0  0  0  0  0  0  0  0  0  0  0
    5.6213  -11.7510   25.1935 C   0  0  0  0  0  0  0  0  0  0  0  0
    6.1849  -11.7362   26.4466 C   0  0  0  0  0  0  0  0  0  0  0  0
    7.1386  -12.7062   26.7655 C   0  0  0  0  0  0  0  0  0  0  0  0
    7.5133  -13.6670   25.8434 C   0  0  0  0  0  0  0  0  0  0  0  0
    6.9581  -13.6893   24.5991 C   0  0  0  0  0  0  0  0  0  0  0  0
   10.4496  -16.0618   23.5647 C   0  0  0  0  0  0  0  0  0  0  0  0
   11.2621  -16.6538   22.8546 O   0  0  0  0  0  0  0  0  0  0  0  0
   11.7015  -14.7806   29.5949 N   0  0  0  0  0  0  0  0  0  0  0  0
   11.0686  -16.0146   29.3507 C   0  0  0  0  0  0  0  0  0  0  0  0
   10.5262  -16.5770   30.3624 O   0  0  0  0  0  0  0  0  0  0  0  0
   11.0242  -16.6445   27.9945 C   0  0  0  0  0  0  0  0  0  0  0  0
   11.8135  -15.7647   27.0575 C   0  0  0  0  0  0  0  0  0  0  0  0
   11.8403  -16.3077   25.6522 C   0  0  2  0  0  0  0  0  0  0  0  0
   10.5670  -16.1870   24.9870 N   0  0  0  0  0  0  0  0  0  0  0  0
   12.3049  -17.7021   25.5860 C   0  0  0  0  0  0  0  0  0  0  0  0
   11.4772  -18.6278   25.7087 O   0  0  0  0  0  0  0  0  0  0  0  0
   13.6832  -18.0425   25.3844 N   0  0  0  0  0  0  0  0  0  0  0  0
   14.1457  -19.3803   25.1590 C   0  0  0  0  0  0  0  0  0  0  0  0
   15.6119  -19.4810   25.0694 C   0  0  0  0  0  0  0  0  0  0  0  0
   16.1735  -20.7401   24.9161 O   0  0  0  0  0  0  0  0  0  0  0  0
   16.3955  -18.4996   25.1224 O   0  0  0  0  0  0  0  0  0  0  0  0
  2  1  1  6
  3  4  1  0
  3  2  1  0
  4  5  2  0
  6  5  1  0
  7  6  1  0
  8  7  2  0
  9  8  1  0
 10 11  1  0
 10  9  2  0
 11 12  2  0
 12  7  1  0
 12  4  1  0
 13 21  1  0
 13  2  1  0
 14 13  2  0
 16 15  1  0
 17 16  2  0
 18 16  1  0
 20 19  1  1
 19 18  1  0
 20 22  1  0
 20 21  1  0
 22 23  2  0
 24 25  1  0
 24 22  1  0
 25 26  1  0
 26 28  2  0
 26 27  1  0
M  END
$$$$
