WQG.pdb
     RDKit          3D

 28 29  0  0  1  0  0  0  0  0999 V2000
    6.4231  -17.6249   23.8094 N   0  0  0  0  0  0  0  0  0  0  0  0
    6.9687  -16.2945   23.7334 C   0  0  1  0  0  0  0  0  0  0  0  0
    7.6926  -15.9733   25.0078 C   0  0  0  0  0  0  0  0  0  0  0  0
    6.9487  -14.9019   25.7227 C   0  0  0  0  0  0  0  0  0  0  0  0
    5.7041  -15.0947   26.3489 C   0  0  0  0  0  0  0  0  0  0  0  0
    5.3445  -13.9403   26.9243 N   0  0  0  0  0  0  0  0  0  0  0  0
    6.2793  -12.9971   26.7134 C   0  0  0  0  0  0  0  0  0  0  0  0
    6.3336  -11.6807   27.1024 C   0  0  0  0  0  0  0  0  0  0  0  0
    7.4179  -10.9199   26.7371 C   0  0  0  0  0  0  0  0  0  0  0  0
    8.4307  -11.5139   25.9799 C   0  0  0  0  0  0  0  0  0  0  0  0
    8.3513  -12.8422   25.6014 C   0  0  0  0  0  0  0  0  0  0  0  0
    7.2800  -13.6039   25.9608 C   0  0  0  0  0  0  0  0  0  0  0  0
    7.8729  -16.2370   22.5514 C   0  0  0  0  0  0  0  0  0  0  0  0
    8.3347  -17.2796   22.0880 O   0  0  0  0  0  0  0  0  0  0  0  0
    6.1653  -15.7099   18.5928 N   0  0  0  0  0  0  0  0  0  0  0  0
    7.1957  -14.7595   18.4582 C   0  0  0  0  0  0  0  0  0  0  0  0
    7.9778  -14.9172   17.4596 O   0  0  0  0  0  0  0  0  0  0  0  0
    7.3789  -13.6264   19.4177 C   0  0  0  0  0  0  0  0  0  0  0  0
    8.7956  -13.6894   19.9317 C   0  0  0  0  0  0  0  0  0  0  0  0
    9.0517  -14.9301   20.7474 C   0  0  2  0  0  0  0  0  0  0  0  0
    8.2278  -14.9967   21.9286 N   0  0  0  0  0  0  0  0  0  0  0  0
   10.4664  -15.0888   21.1193 C   0  0  0  0  0  0  0  0  0  0  0  0
   11.3343  -15.1117   20.2230 O   0  0  0  0  0  0  0  0  0  0  0  0
   10.8910  -15.2196   22.4827 N   0  0  0  0  0  0  0  0  0  0  0  0
   12.2645  -15.1988   22.8918 C   0  0  0  0  0  0  0  0  0  0  0  0
   12.8931  -16.5302   22.8849 C   0  0  0  0  0  0  0  0  0  0  0  0
   12.1473  -17.6041   22.4215 O   0  0  0  0  0  0  0  0  0  0  0  0
   14.0660  -16.7635   23.2722 O   0  0  0  0  0  0  0  0  0  0  0  0
  2  1  1  1
  3  4  1  0
  3  2  1  0
  4  5  2  0
  6  5  1  0
  7  6  1  0
  8  7  2  0
  9  8  1  0
 10 11  1  0
 10  9  2  0
 11 12  2  0
 12  7  1  0
 12  4  1  0
 13 21  1  0
 13  2  1  0
 14 13  2  0
 16 15  1  0
 17 16  2  0
 18 16  1  0
 20 19  1  1
 19 18  1  0
 20 22  1  0
 20 21  1  0
 22 23  2  0
 24 25  1  0
 24 22  1  0
 25 26  1  0
 26 28  2  0
 26 27  1  0
M  END
$$$$
