WQG.pdb
     RDKit          3D

 28 29  0  0  1  0  0  0  0  0999 V2000
    6.4464  -17.4037   23.8058 N   0  0  0  0  0  0  0  0  0  0  0  0
    7.2091  -16.2530   23.3964 C   0  0  1  0  0  0  0  0  0  0  0  0
    8.1045  -15.8169   24.5186 C   0  0  0  0  0  0  0  0  0  0  0  0
    7.3084  -15.0041   25.4767 C   0  0  0  0  0  0  0  0  0  0  0  0
    6.4912  -15.5532   26.4812 C   0  0  0  0  0  0  0  0  0  0  0  0
    5.9567  -14.5440   27.1805 N   0  0  0  0  0  0  0  0  0  0  0  0
    6.3733  -13.3613   26.6951 C   0  0  0  0  0  0  0  0  0  0  0  0
    6.0831  -12.0762   27.0839 C   0  0  0  0  0  0  0  0  0  0  0  0
    6.6446  -11.0270   26.3969 C   0  0  0  0  0  0  0  0  0  0  0  0
    7.4938  -11.3052   25.3229 C   0  0  0  0  0  0  0  0  0  0  0  0
    7.7697  -12.6091   24.9521 C   0  0  0  0  0  0  0  0  0  0  0  0
    7.2179  -13.6552   25.6291 C   0  0  0  0  0  0  0  0  0  0  0  0
    7.9840  -16.6260   22.1805 C   0  0  0  0  0  0  0  0  0  0  0  0
    8.0662  -17.8090   21.8511 O   0  0  0  0  0  0  0  0  0  0  0  0
    7.9060  -12.2984   17.2274 N   0  0  0  0  0  0  0  0  0  0  0  0
    8.0114  -13.6875   17.4330 C   0  0  0  0  0  0  0  0  0  0  0  0
    8.1941  -14.3976   16.3859 O   0  0  0  0  0  0  0  0  0  0  0  0
    7.9173  -14.3122   18.7891 C   0  0  0  0  0  0  0  0  0  0  0  0
    9.2973  -14.7891   19.1676 C   0  0  0  0  0  0  0  0  0  0  0  0
    9.2562  -15.9663   20.1072 C   0  0  2  0  0  0  0  0  0  0  0  0
    8.6443  -15.6445   21.3723 N   0  0  0  0  0  0  0  0  0  0  0  0
   10.5812  -16.5642   20.3343 C   0  0  0  0  0  0  0  0  0  0  0  0
   11.2400  -16.9772   19.3583 O   0  0  0  0  0  0  0  0  0  0  0  0
   11.1505  -16.6922   21.6442 N   0  0  0  0  0  0  0  0  0  0  0  0
   12.4107  -17.3238   21.9038 C   0  0  0  0  0  0  0  0  0  0  0  0
   13.3079  -16.5090   22.7399 C   0  0  0  0  0  0  0  0  0  0  0  0
   14.5768  -17.0001   23.0098 O   0  0  0  0  0  0  0  0  0  0  0  0
   13.0025  -15.3923   23.2295 O   0  0  0  0  0  0  0  0  0  0  0  0
  2  1  1  1
  3  4  1  0
  3  2  1  0
  4  5  2  0
  6  5  1  0
  7  6  1  0
  8  7  2  0
  9  8  1  0
 10 11  1  0
 10  9  2  0
 11 12  2  0
 12  7  1  0
 12  4  1  0
 13 21  1  0
 13  2  1  0
 14 13  2  0
 16 15  1  0
 17 16  2  0
 18 16  1  0
 20 19  1  6
 19 18  1  0
 20 22  1  0
 20 21  1  0
 22 23  2  0
 24 25  1  0
 24 22  1  0
 25 26  1  0
 26 28  2  0
 26 27  1  0
M  END
$$$$
