WQG.pdb
     RDKit          3D

 28 29  0  0  1  0  0  0  0  0999 V2000
    6.7872  -17.3858   23.7339 N   0  0  0  0  0  0  0  0  0  0  0  0
    7.5551  -16.2068   23.4272 C   0  0  1  0  0  0  0  0  0  0  0  0
    8.2212  -15.7014   24.6730 C   0  0  0  0  0  0  0  0  0  0  0  0
    7.2551  -14.8527   25.4205 C   0  0  0  0  0  0  0  0  0  0  0  0
    6.1276  -15.3552   26.0948 C   0  0  0  0  0  0  0  0  0  0  0  0
    5.5057  -14.3284   26.6880 N   0  0  0  0  0  0  0  0  0  0  0  0
    6.1571  -13.1778   26.4436 C   0  0  0  0  0  0  0  0  0  0  0  0
    5.8857  -11.8892   26.8347 C   0  0  0  0  0  0  0  0  0  0  0  0
    6.7223  -10.8773   26.4295 C   0  0  0  0  0  0  0  0  0  0  0  0
    7.8235  -11.1958   25.6307 C   0  0  0  0  0  0  0  0  0  0  0  0
    8.0741  -12.5022   25.2511 C   0  0  0  0  0  0  0  0  0  0  0  0
    7.2500  -13.5116   25.6499 C   0  0  0  0  0  0  0  0  0  0  0  0
    8.5454  -16.5661   22.3746 C   0  0  0  0  0  0  0  0  0  0  0  0
    9.0717  -17.6787   22.3893 O   0  0  0  0  0  0  0  0  0  0  0  0
    8.7132  -12.7636   18.1671 N   0  0  0  0  0  0  0  0  0  0  0  0
    7.9426  -13.9296   17.9950 C   0  0  0  0  0  0  0  0  0  0  0  0
    6.7875  -13.7669   17.4723 O   0  0  0  0  0  0  0  0  0  0  0  0
    8.4308  -15.2861   18.3944 C   0  0  0  0  0  0  0  0  0  0  0  0
    9.7539  -15.1057   19.0959 C   0  0  0  0  0  0  0  0  0  0  0  0
    9.8767  -15.9813   20.3160 C   0  0  2  0  0  0  0  0  0  0  0  0
    8.9108  -15.6515   21.3342 N   0  0  0  0  0  0  0  0  0  0  0  0
   11.2298  -15.9720   20.8935 C   0  0  0  0  0  0  0  0  0  0  0  0
   11.4644  -15.2552   21.8876 O   0  0  0  0  0  0  0  0  0  0  0  0
   12.2991  -16.7610   20.3545 N   0  0  0  0  0  0  0  0  0  0  0  0
   13.6797  -16.5551   20.6802 C   0  0  0  0  0  0  0  0  0  0  0  0
   14.1144  -17.3060   21.8698 C   0  0  0  0  0  0  0  0  0  0  0  0
   15.4548  -17.2541   22.2231 O   0  0  0  0  0  0  0  0  0  0  0  0
   13.3510  -17.9953   22.5924 O   0  0  0  0  0  0  0  0  0  0  0  0
  2  1  1  1
  3  4  1  0
  3  2  1  0
  4  5  2  0
  6  5  1  0
  7  6  1  0
  8  7  2  0
  9  8  1  0
 10 11  1  0
 10  9  2  0
 11 12  2  0
 12  7  1  0
 12  4  1  0
 13 21  1  0
 13  2  1  0
 14 13  2  0
 16 15  1  0
 17 16  2  0
 18 16  1  0
 20 19  1  6
 19 18  1  0
 20 22  1  0
 20 21  1  0
 22 23  2  0
 24 25  1  0
 24 22  1  0
 25 26  1  0
 26 28  2  0
 26 27  1  0
M  END
$$$$
