WQG.pdb
     RDKit          3D

 28 29  0  0  1  0  0  0  0  0999 V2000
    6.1334  -17.6859   24.0568 N   0  0  0  0  0  0  0  0  0  0  0  0
    6.9596  -16.5413   23.7727 C   0  0  1  0  0  0  0  0  0  0  0  0
    7.7677  -16.1895   24.9869 C   0  0  0  0  0  0  0  0  0  0  0  0
    7.0949  -15.0716   25.7011 C   0  0  0  0  0  0  0  0  0  0  0  0
    5.8986  -15.2118   26.4274 C   0  0  0  0  0  0  0  0  0  0  0  0
    5.5995  -14.0246   26.9698 N   0  0  0  0  0  0  0  0  0  0  0  0
    6.5287  -13.1093   26.6427 C   0  0  0  0  0  0  0  0  0  0  0  0
    6.6304  -11.7767   26.9604 C   0  0  0  0  0  0  0  0  0  0  0  0
    7.6945  -11.0537   26.4776 C   0  0  0  0  0  0  0  0  0  0  0  0
    8.6388  -11.7017   25.6773 C   0  0  0  0  0  0  0  0  0  0  0  0
    8.5127  -13.0452   25.3727 C   0  0  0  0  0  0  0  0  0  0  0  0
    7.4611  -13.7696   25.8487 C   0  0  0  0  0  0  0  0  0  0  0  0
    7.8248  -16.8785   22.6084 C   0  0  0  0  0  0  0  0  0  0  0  0
    8.0860  -18.0566   22.3661 O   0  0  0  0  0  0  0  0  0  0  0  0
    9.2791  -13.0161   17.8498 N   0  0  0  0  0  0  0  0  0  0  0  0
    8.3969  -14.0890   17.6181 C   0  0  0  0  0  0  0  0  0  0  0  0
    7.6505  -13.9888   16.5853 O   0  0  0  0  0  0  0  0  0  0  0  0
    8.3241  -15.2826   18.5169 C   0  0  0  0  0  0  0  0  0  0  0  0
    9.3177  -15.0742   19.6325 C   0  0  0  0  0  0  0  0  0  0  0  0
    9.2605  -16.1745   20.6602 C   0  0  2  0  0  0  0  0  0  0  0  0
    8.3695  -15.8680   21.7514 N   0  0  0  0  0  0  0  0  0  0  0  0
   10.5859  -16.5347   21.1877 C   0  0  0  0  0  0  0  0  0  0  0  0
   11.2693  -17.3901   20.5890 O   0  0  0  0  0  0  0  0  0  0  0  0
   11.1282  -15.9366   22.3728 N   0  0  0  0  0  0  0  0  0  0  0  0
   12.3957  -16.2981   22.9358 C   0  0  0  0  0  0  0  0  0  0  0  0
   13.5409  -15.7660   22.1786 C   0  0  0  0  0  0  0  0  0  0  0  0
   13.2837  -15.0580   21.0139 O   0  0  0  0  0  0  0  0  0  0  0  0
   14.7433  -15.9093   22.5160 O   0  0  0  0  0  0  0  0  0  0  0  0
  2  1  1  1
  3  4  1  0
  3  2  1  0
  4  5  2  0
  6  5  1  0
  7  6  1  0
  8  7  2  0
  9  8  1  0
 10 11  1  0
 10  9  2  0
 11 12  2  0
 12  7  1  0
 12  4  1  0
 13 21  1  0
 13  2  1  0
 14 13  2  0
 16 15  1  0
 17 16  2  0
 18 16  1  0
 20 19  1  6
 19 18  1  0
 20 22  1  0
 20 21  1  0
 22 23  2  0
 24 25  1  0
 24 22  1  0
 25 26  1  0
 26 28  2  0
 26 27  1  0
M  END
$$$$
