WQG.pdb
     RDKit          3D

 28 29  0  0  1  0  0  0  0  0999 V2000
    6.6921  -18.1946   23.8973 N   0  0  0  0  0  0  0  0  0  0  0  0
    6.8742  -16.7701   23.7913 C   0  0  1  0  0  0  0  0  0  0  0  0
    7.6816  -16.2775   24.9560 C   0  0  0  0  0  0  0  0  0  0  0  0
    6.9321  -15.1822   25.6276 C   0  0  0  0  0  0  0  0  0  0  0  0
    5.7058  -15.3635   26.2922 C   0  0  0  0  0  0  0  0  0  0  0  0
    5.3356  -14.1859   26.8111 N   0  0  0  0  0  0  0  0  0  0  0  0
    6.2462  -13.2383   26.5267 C   0  0  0  0  0  0  0  0  0  0  0  0
    6.2823  -11.9014   26.8409 C   0  0  0  0  0  0  0  0  0  0  0  0
    7.3425  -11.1416   26.4090 C   0  0  0  0  0  0  0  0  0  0  0  0
    8.3502  -11.7576   25.6625 C   0  0  0  0  0  0  0  0  0  0  0  0
    8.2895  -13.1061   25.3601 C   0  0  0  0  0  0  0  0  0  0  0  0
    7.2421  -13.8669   25.7858 C   0  0  0  0  0  0  0  0  0  0  0  0
    7.5455  -16.4896   22.4919 C   0  0  0  0  0  0  0  0  0  0  0  0
    8.0691  -17.4114   21.8665 O   0  0  0  0  0  0  0  0  0  0  0  0
    7.6119  -12.9749   16.6398 N   0  0  0  0  0  0  0  0  0  0  0  0
    8.0718  -13.7567   17.7169 C   0  0  0  0  0  0  0  0  0  0  0  0
    7.9075  -15.0194   17.6044 O   0  0  0  0  0  0  0  0  0  0  0  0
    8.7167  -13.1618   18.9286 C   0  0  0  0  0  0  0  0  0  0  0  0
    7.8785  -13.5417   20.1237 C   0  0  0  0  0  0  0  0  0  0  0  0
    8.2737  -14.8785   20.6956 C   0  0  2  0  0  0  0  0  0  0  0  0
    7.6038  -15.1694   21.9387 N   0  0  0  0  0  0  0  0  0  0  0  0
    9.7277  -15.0192   20.8705 C   0  0  0  0  0  0  0  0  0  0  0  0
   10.4786  -14.8668   19.8856 O   0  0  0  0  0  0  0  0  0  0  0  0
   10.3214  -15.3272   22.1390 N   0  0  0  0  0  0  0  0  0  0  0  0
   11.7361  -15.3538   22.3678 C   0  0  0  0  0  0  0  0  0  0  0  0
   12.3486  -16.6592   22.0701 C   0  0  0  0  0  0  0  0  0  0  0  0
   13.7070  -16.8137   22.3046 O   0  0  0  0  0  0  0  0  0  0  0  0
   11.7227  -17.6499   21.6154 O   0  0  0  0  0  0  0  0  0  0  0  0
  2  1  1  1
  3  4  1  0
  3  2  1  0
  4  5  2  0
  6  5  1  0
  7  6  1  0
  8  7  2  0
  9  8  1  0
 10 11  1  0
 10  9  2  0
 11 12  2  0
 12  7  1  0
 12  4  1  0
 13 21  1  0
 13  2  1  0
 14 13  2  0
 16 15  1  0
 17 16  2  0
 18 16  1  0
 20 19  1  1
 19 18  1  0
 20 22  1  0
 20 21  1  0
 22 23  2  0
 24 25  1  0
 24 22  1  0
 25 26  1  0
 26 28  2  0
 26 27  1  0
M  END
$$$$
