WQG.pdb
     RDKit          3D

 28 29  0  0  1  0  0  0  0  0999 V2000
    6.7774  -17.9684   24.7906 N   0  0  0  0  0  0  0  0  0  0  0  0
    7.1912  -16.6771   24.3061 C   0  0  1  0  0  0  0  0  0  0  0  0
    8.2562  -16.1198   25.2041 C   0  0  0  0  0  0  0  0  0  0  0  0
    7.6411  -15.1070   26.1031 C   0  0  0  0  0  0  0  0  0  0  0  0
    7.1142  -15.4024   27.3733 C   0  0  0  0  0  0  0  0  0  0  0  0
    6.6805  -14.2596   27.9200 N   0  0  0  0  0  0  0  0  0  0  0  0
    6.8902  -13.2276   27.0838 C   0  0  0  0  0  0  0  0  0  0  0  0
    6.6036  -11.8905   27.2148 C   0  0  0  0  0  0  0  0  0  0  0  0
    6.9180  -11.0356   26.1860 C   0  0  0  0  0  0  0  0  0  0  0  0
    7.5199  -11.5584   25.0386 C   0  0  0  0  0  0  0  0  0  0  0  0
    7.7979  -12.9094   24.9325 C   0  0  0  0  0  0  0  0  0  0  0  0
    7.4905  -13.7636   25.9488 C   0  0  0  0  0  0  0  0  0  0  0  0
    7.6760  -16.8462   22.9081 C   0  0  0  0  0  0  0  0  0  0  0  0
    8.1521  -17.9252   22.5560 O   0  0  0  0  0  0  0  0  0  0  0  0
    7.2316  -12.6669   18.0958 N   0  0  0  0  0  0  0  0  0  0  0  0
    8.0397  -13.6943   17.5720 C   0  0  0  0  0  0  0  0  0  0  0  0
    8.3343  -13.5996   16.3317 O   0  0  0  0  0  0  0  0  0  0  0  0
    8.5331  -14.8362   18.4030 C   0  0  0  0  0  0  0  0  0  0  0  0
    7.9480  -14.6804   19.7845 C   0  0  0  0  0  0  0  0  0  0  0  0
    8.3053  -15.8318   20.6884 C   0  0  2  0  0  0  0  0  0  0  0  0
    7.6068  -15.7846   21.9486 N   0  0  0  0  0  0  0  0  0  0  0  0
    9.7527  -15.9447   20.9269 C   0  0  0  0  0  0  0  0  0  0  0  0
   10.2552  -15.3709   21.9145 O   0  0  0  0  0  0  0  0  0  0  0  0
   10.6165  -16.6944   20.0618 N   0  0  0  0  0  0  0  0  0  0  0  0
   12.0113  -16.4111   19.8932 C   0  0  0  0  0  0  0  0  0  0  0  0
   12.6444  -17.2171   18.8361 C   0  0  0  0  0  0  0  0  0  0  0  0
   13.6431  -18.1078   19.2014 O   0  0  0  0  0  0  0  0  0  0  0  0
   12.3412  -17.1543   17.6178 O   0  0  0  0  0  0  0  0  0  0  0  0
  2  1  1  1
  3  4  1  0
  3  2  1  0
  4  5  2  0
  6  5  1  0
  7  6  1  0
  8  7  2  0
  9  8  1  0
 10 11  1  0
 10  9  2  0
 11 12  2  0
 12  7  1  0
 12  4  1  0
 13 21  1  0
 13  2  1  0
 14 13  2  0
 16 15  1  0
 17 16  2  0
 18 16  1  0
 20 19  1  1
 19 18  1  0
 20 22  1  0
 20 21  1  0
 22 23  2  0
 24 25  1  0
 24 22  1  0
 25 26  1  0
 26 28  2  0
 26 27  1  0
M  END
$$$$
