WKQ.pdb
     RDKit          3D

 33 34  0  0  1  0  0  0  0  0999 V2000
   28.9414  -32.2558  -14.2947 N   0  0  0  0  0  0  0  0  0  0  0  0
   28.9262  -31.7595  -15.6394 C   0  0  1  0  0  0  0  0  0  0  0  0
   28.7692  -32.8787  -16.6115 C   0  0  0  0  0  0  0  0  0  0  0  0
   30.0089  -33.6881  -16.6428 C   0  0  0  0  0  0  0  0  0  0  0  0
   30.1924  -34.9166  -16.0029 C   0  0  0  0  0  0  0  0  0  0  0  0
   31.4099  -35.4001  -16.2588 N   0  0  0  0  0  0  0  0  0  0  0  0
   32.0484  -34.5189  -17.0584 C   0  0  0  0  0  0  0  0  0  0  0  0
   33.3222  -34.5399  -17.6006 C   0  0  0  0  0  0  0  0  0  0  0  0
   33.7240  -33.4832  -18.3870 C   0  0  0  0  0  0  0  0  0  0  0  0
   32.9063  -32.4103  -18.6516 C   0  0  0  0  0  0  0  0  0  0  0  0
   31.6249  -32.4153  -18.0913 C   0  0  0  0  0  0  0  0  0  0  0  0
   31.1960  -33.4463  -17.3095 C   0  0  0  0  0  0  0  0  0  0  0  0
   27.8604  -30.7324  -15.7765 C   0  0  0  0  0  0  0  0  0  0  0  0
   26.7901  -30.8988  -15.1614 O   0  0  0  0  0  0  0  0  0  0  0  0
   28.0373  -29.5875  -16.5806 N   0  0  0  0  0  0  0  0  0  0  0  0
   26.9449  -28.6530  -16.9066 C   0  0  1  0  0  0  0  0  0  0  0  0
   27.5478  -27.5958  -17.7549 C   0  0  0  0  0  0  0  0  0  0  0  0
   27.8616  -27.9372  -19.1639 C   0  0  0  0  0  0  0  0  0  0  0  0
   28.4426  -26.7073  -19.8720 C   0  0  0  0  0  0  0  0  0  0  0  0
   28.6845  -26.9343  -21.3284 C   0  0  0  0  0  0  0  0  0  0  0  0
   29.2278  -25.7202  -21.9426 N   0  0  0  0  0  0  0  0  0  0  0  0
   25.8254  -29.4097  -17.4568 C   0  0  0  0  0  0  0  0  0  0  0  0
   25.9520  -30.5656  -17.9744 O   0  0  0  0  0  0  0  0  0  0  0  0
   23.4208  -32.8659  -14.6334 N   0  0  0  0  0  0  0  0  0  0  0  0
   22.3077  -32.7477  -15.4876 C   0  0  0  0  0  0  0  0  0  0  0  0
   21.3524  -33.5648  -15.3488 O   0  0  0  0  0  0  0  0  0  0  0  0
   22.1990  -31.7145  -16.5308 C   0  0  0  0  0  0  0  0  0  0  0  0
   23.3229  -30.7519  -16.6054 C   0  0  0  0  0  0  0  0  0  0  0  0
   23.3341  -29.7717  -17.7312 C   0  0  2  0  0  0  0  0  0  0  0  0
   24.5189  -28.8926  -17.4387 N   0  0  0  0  0  0  0  0  0  0  0  0
   22.1947  -28.8672  -17.8496 C   0  0  0  0  0  0  0  0  0  0  0  0
   22.2389  -27.6661  -17.4754 O   0  0  0  0  0  0  0  0  0  0  0  0
   20.9801  -29.3151  -18.4061 O   0  0  0  0  0  0  0  0  0  0  0  0
  2  1  1  1
  3  2  1  0
  4  5  2  0
  4  3  1  0
  6  5  1  0
  7 12  2  0
  7  6  1  0
  8  7  1  0
  9 10  1  0
  9  8  2  0
 10 11  2  0
 11 12  1  0
 12  4  1  0
 13  2  1  0
 14 13  2  0
 15 13  1  0
 16 22  1  0
 16 15  1  0
 16 17  1  6
 18 17  1  0
 19 18  1  0
 20 19  1  0
 21 20  1  0
 22 30  1  0
 23 22  2  0
 24 25  1  0
 25 27  1  0
 26 25  2  0
 27 28  1  0
 29 28  1  1
 29 31  1  0
 30 29  1  0
 31 32  2  0
 31 33  1  0
M  END
$$$$
