WKQ.pdb
     RDKit          3D

 33 34  0  0  1  0  0  0  0  0999 V2000
   23.6324  -15.7256  -18.4404 N   0  0  0  0  0  0  0  0  0  0  0  0
   22.8944  -16.1228  -17.2775 C   0  0  1  0  0  0  0  0  0  0  0  0
   21.4286  -15.9878  -17.5133 C   0  0  0  0  0  0  0  0  0  0  0  0
   21.0310  -14.5682  -17.3740 C   0  0  0  0  0  0  0  0  0  0  0  0
   21.2166  -13.5749  -18.3391 C   0  0  0  0  0  0  0  0  0  0  0  0
   20.7159  -12.4122  -17.9161 N   0  0  0  0  0  0  0  0  0  0  0  0
   20.1977  -12.6054  -16.6842 C   0  0  0  0  0  0  0  0  0  0  0  0
   19.5737  -11.7294  -15.8121 C   0  0  0  0  0  0  0  0  0  0  0  0
   19.1451  -12.2034  -14.5923 C   0  0  0  0  0  0  0  0  0  0  0  0
   19.3149  -13.5132  -14.2109 C   0  0  0  0  0  0  0  0  0  0  0  0
   19.9480  -14.3759  -15.1113 C   0  0  0  0  0  0  0  0  0  0  0  0
   20.3830  -13.9388  -16.3269 C   0  0  0  0  0  0  0  0  0  0  0  0
   23.2842  -17.5042  -16.8911 C   0  0  0  0  0  0  0  0  0  0  0  0
   23.3583  -18.3731  -17.7805 O   0  0  0  0  0  0  0  0  0  0  0  0
   23.5676  -17.8442  -15.5522 N   0  0  0  0  0  0  0  0  0  0  0  0
   23.9070  -19.2123  -15.1209 C   0  0  1  0  0  0  0  0  0  0  0  0
   25.2453  -19.1236  -14.4872 C   0  0  0  0  0  0  0  0  0  0  0  0
   26.4306  -19.0989  -15.3786 C   0  0  0  0  0  0  0  0  0  0  0  0
   26.9529  -20.5270  -15.5764 C   0  0  0  0  0  0  0  0  0  0  0  0
   28.1246  -20.5955  -16.5002 C   0  0  0  0  0  0  0  0  0  0  0  0
   28.5643  -21.9849  -16.6517 N   0  0  0  0  0  0  0  0  0  0  0  0
   22.8086  -19.7397  -14.3183 C   0  0  0  0  0  0  0  0  0  0  0  0
   22.6043  -19.4022  -13.1081 O   0  0  0  0  0  0  0  0  0  0  0  0
   18.9160  -19.6497  -11.7741 N   0  0  0  0  0  0  0  0  0  0  0  0
   18.0146  -20.4458  -12.5065 C   0  0  0  0  0  0  0  0  0  0  0  0
   16.9383  -20.8059  -11.9485 O   0  0  0  0  0  0  0  0  0  0  0  0
   18.2614  -20.8742  -13.8933 C   0  0  0  0  0  0  0  0  0  0  0  0
   19.5718  -20.4856  -14.4653 C   0  0  0  0  0  0  0  0  0  0  0  0
   20.7839  -21.2296  -14.0120 C   0  0  2  0  0  0  0  0  0  0  0  0
   21.8955  -20.6644  -14.8529 N   0  0  0  0  0  0  0  0  0  0  0  0
   20.8149  -22.6711  -14.2391 C   0  0  0  0  0  0  0  0  0  0  0  0
   21.2667  -23.1828  -15.2968 O   0  0  0  0  0  0  0  0  0  0  0  0
   20.3359  -23.5609  -13.2570 O   0  0  0  0  0  0  0  0  0  0  0  0
  2  1  1  6
  3  2  1  0
  4  5  2  0
  4  3  1  0
  6  5  1  0
  7 12  2  0
  7  6  1  0
  8  7  1  0
  9 10  1  0
  9  8  2  0
 10 11  2  0
 11 12  1  0
 12  4  1  0
 13  2  1  0
 14 13  2  0
 15 13  1  0
 16 22  1  0
 16 15  1  0
 16 17  1  1
 18 17  1  0
 19 18  1  0
 20 19  1  0
 21 20  1  0
 22 30  1  0
 23 22  2  0
 24 25  1  0
 25 27  1  0
 26 25  2  0
 27 28  1  0
 29 28  1  6
 29 31  1  0
 30 29  1  0
 31 32  2  0
 31 33  1  0
M  END
$$$$
