WKQ.pdb
     RDKit          3D

 33 34  0  0  1  0  0  0  0  0999 V2000
   27.4453  -21.9944   -9.6843 N   0  0  0  0  0  0  0  0  0  0  0  0
   26.7096  -20.7974   -9.4000 C   0  0  1  0  0  0  0  0  0  0  0  0
   27.6361  -19.6506   -9.1790 C   0  0  0  0  0  0  0  0  0  0  0  0
   28.5909  -19.9836   -8.0973 C   0  0  0  0  0  0  0  0  0  0  0  0
   29.8358  -20.5933   -8.2728 C   0  0  0  0  0  0  0  0  0  0  0  0
   30.4634  -20.7212   -7.1018 N   0  0  0  0  0  0  0  0  0  0  0  0
   29.6631  -20.2092   -6.1423 C   0  0  0  0  0  0  0  0  0  0  0  0
   29.8372  -20.1048   -4.7726 C   0  0  0  0  0  0  0  0  0  0  0  0
   28.8338  -19.5370   -4.0196 C   0  0  0  0  0  0  0  0  0  0  0  0
   27.6675  -19.0714   -4.5790 C   0  0  0  0  0  0  0  0  0  0  0  0
   27.5185  -19.1893   -5.9645 C   0  0  0  0  0  0  0  0  0  0  0  0
   28.4930  -19.7453   -6.7386 C   0  0  0  0  0  0  0  0  0  0  0  0
   25.7374  -20.5414  -10.4948 C   0  0  0  0  0  0  0  0  0  0  0  0
   25.1993  -19.4201  -10.5635 O   0  0  0  0  0  0  0  0  0  0  0  0
   25.4172  -21.5332  -11.4448 N   0  0  0  0  0  0  0  0  0  0  0  0
   24.6489  -21.2575  -12.6723 C   0  0  1  0  0  0  0  0  0  0  0  0
   25.0077  -22.3308  -13.6315 C   0  0  0  0  0  0  0  0  0  0  0  0
   24.3120  -22.3463  -14.9414 C   0  0  0  0  0  0  0  0  0  0  0  0
   25.2921  -21.9363  -16.0472 C   0  0  0  0  0  0  0  0  0  0  0  0
   24.6600  -21.8961  -17.3999 C   0  0  0  0  0  0  0  0  0  0  0  0
   25.5964  -21.3321  -18.3754 N   0  0  0  0  0  0  0  0  0  0  0  0
   23.2411  -21.1015  -12.3225 C   0  0  0  0  0  0  0  0  0  0  0  0
   22.6459  -21.8443  -11.4773 O   0  0  0  0  0  0  0  0  0  0  0  0
   19.9260  -16.0105  -14.2289 N   0  0  0  0  0  0  0  0  0  0  0  0
   18.9910  -16.7433  -13.4730 C   0  0  0  0  0  0  0  0  0  0  0  0
   17.8237  -16.2747  -13.3405 O   0  0  0  0  0  0  0  0  0  0  0  0
   19.3043  -18.0324  -12.8345 C   0  0  0  0  0  0  0  0  0  0  0  0
   20.6602  -18.5695  -13.0961 C   0  0  0  0  0  0  0  0  0  0  0  0
   21.0318  -19.8725  -12.4697 C   0  0  2  0  0  0  0  0  0  0  0  0
   22.4526  -20.0973  -12.9093 N   0  0  0  0  0  0  0  0  0  0  0  0
   20.2974  -21.0597  -12.8956 C   0  0  0  0  0  0  0  0  0  0  0  0
   19.3617  -21.5595  -12.2178 O   0  0  0  0  0  0  0  0  0  0  0  0
   20.6124  -21.6983  -14.1116 O   0  0  0  0  0  0  0  0  0  0  0  0
  2  1  1  6
  3  2  1  0
  4  5  2  0
  4  3  1  0
  6  5  1  0
  7 12  2  0
  7  6  1  0
  8  7  1  0
  9 10  1  0
  9  8  2  0
 10 11  2  0
 11 12  1  0
 12  4  1  0
 13  2  1  0
 14 13  2  0
 15 13  1  0
 16 22  1  0
 16 15  1  0
 16 17  1  6
 18 17  1  0
 19 18  1  0
 20 19  1  0
 21 20  1  0
 22 30  1  0
 23 22  2  0
 24 25  1  0
 25 27  1  0
 26 25  2  0
 27 28  1  0
 29 28  1  6
 29 31  1  0
 30 29  1  0
 31 32  2  0
 31 33  1  0
M  END
$$$$
