WKQ.pdb
     RDKit          3D

 33 34  0  0  1  0  0  0  0  0999 V2000
   24.3623  -20.1236   -9.3116 N   0  0  0  0  0  0  0  0  0  0  0  0
   25.7614  -20.1206   -9.6237 C   0  0  1  0  0  0  0  0  0  0  0  0
   26.4707  -21.1938   -8.8705 C   0  0  0  0  0  0  0  0  0  0  0  0
   26.5209  -20.8427   -7.4328 C   0  0  0  0  0  0  0  0  0  0  0  0
   25.6117  -21.2687   -6.4611 C   0  0  0  0  0  0  0  0  0  0  0  0
   25.9598  -20.8045   -5.2591 N   0  0  0  0  0  0  0  0  0  0  0  0
   27.0859  -20.0738   -5.4049 C   0  0  0  0  0  0  0  0  0  0  0  0
   27.8442  -19.3766   -4.4796 C   0  0  0  0  0  0  0  0  0  0  0  0
   28.9598  -18.6973   -4.9158 C   0  0  0  0  0  0  0  0  0  0  0  0
   29.3461  -18.6870   -6.2351 C   0  0  0  0  0  0  0  0  0  0  0  0
   28.5620  -19.3997   -7.1479 C   0  0  0  0  0  0  0  0  0  0  0  0
   27.4524  -20.0834   -6.7487 C   0  0  0  0  0  0  0  0  0  0  0  0
   25.9414  -20.2426  -11.0942 C   0  0  0  0  0  0  0  0  0  0  0  0
   24.9820  -20.6428  -11.7806 O   0  0  0  0  0  0  0  0  0  0  0  0
   27.1637  -19.9177  -11.7179 N   0  0  0  0  0  0  0  0  0  0  0  0
   27.3251  -19.8279  -13.1804 C   0  0  1  0  0  0  0  0  0  0  0  0
   28.6853  -19.2826  -13.4111 C   0  0  0  0  0  0  0  0  0  0  0  0
   29.0521  -18.9074  -14.7985 C   0  0  0  0  0  0  0  0  0  0  0  0
   27.8023  -18.4298  -15.5477 C   0  0  0  0  0  0  0  0  0  0  0  0
   28.0832  -18.0476  -16.9640 C   0  0  0  0  0  0  0  0  0  0  0  0
   26.8418  -17.6491  -17.6324 N   0  0  0  0  0  0  0  0  0  0  0  0
   27.0029  -21.1227  -13.7708 C   0  0  0  0  0  0  0  0  0  0  0  0
   27.4663  -22.2241  -13.3321 O   0  0  0  0  0  0  0  0  0  0  0  0
   23.7920  -25.7935  -13.9303 N   0  0  0  0  0  0  0  0  0  0  0  0
   22.9611  -24.6667  -14.0807 C   0  0  0  0  0  0  0  0  0  0  0  0
   21.7087  -24.8279  -14.0085 O   0  0  0  0  0  0  0  0  0  0  0  0
   23.4799  -23.3084  -14.3116 C   0  0  0  0  0  0  0  0  0  0  0  0
   24.9499  -23.1531  -14.2101 C   0  0  0  0  0  0  0  0  0  0  0  0
   25.6755  -22.5647  -15.3744 C   0  0  2  0  0  0  0  0  0  0  0  0
   26.1406  -21.2241  -14.8757 N   0  0  0  0  0  0  0  0  0  0  0  0
   24.9025  -22.2872  -16.5809 C   0  0  0  0  0  0  0  0  0  0  0  0
   24.8414  -23.0902  -17.5485 O   0  0  0  0  0  0  0  0  0  0  0  0
   24.1751  -21.0867  -16.7047 O   0  0  0  0  0  0  0  0  0  0  0  0
  2  1  1  6
  3  2  1  0
  4  5  2  0
  4  3  1  0
  6  5  1  0
  7 12  2  0
  7  6  1  0
  8  7  1  0
  9 10  1  0
  9  8  2  0
 10 11  2  0
 11 12  1  0
 12  4  1  0
 13  2  1  0
 14 13  2  0
 15 13  1  0
 16 22  1  0
 16 15  1  0
 16 17  1  1
 18 17  1  0
 19 18  1  0
 20 19  1  0
 21 20  1  0
 22 30  1  0
 23 22  2  0
 24 25  1  0
 25 27  1  0
 26 25  2  0
 27 28  1  0
 29 28  1  1
 29 31  1  0
 30 29  1  0
 31 32  2  0
 31 33  1  0
M  END
$$$$
