WKQ.pdb
     RDKit          3D

 33 34  0  0  1  0  0  0  0  0999 V2000
   25.5917  -18.1124  -21.3550 N   0  0  0  0  0  0  0  0  0  0  0  0
   25.5126  -17.4625  -20.0798 C   0  0  1  0  0  0  0  0  0  0  0  0
   24.3111  -16.5828  -20.0114 C   0  0  0  0  0  0  0  0  0  0  0  0
   24.4745  -15.4438  -20.9435 C   0  0  0  0  0  0  0  0  0  0  0  0
   24.3038  -15.4982  -22.3292 C   0  0  0  0  0  0  0  0  0  0  0  0
   24.4903  -14.2929  -22.8713 N   0  0  0  0  0  0  0  0  0  0  0  0
   24.7839  -13.4293  -21.8755 C   0  0  0  0  0  0  0  0  0  0  0  0
   25.0690  -12.0746  -21.9008 C   0  0  0  0  0  0  0  0  0  0  0  0
   25.3478  -11.4350  -20.7136 C   0  0  0  0  0  0  0  0  0  0  0  0
   25.3531  -12.0932  -19.5066 C   0  0  0  0  0  0  0  0  0  0  0  0
   25.0614  -13.4610  -19.5105 C   0  0  0  0  0  0  0  0  0  0  0  0
   24.7801  -14.1236  -20.6680 C   0  0  0  0  0  0  0  0  0  0  0  0
   25.5323  -18.4846  -19.0007 C   0  0  0  0  0  0  0  0  0  0  0  0
   24.7385  -19.4418  -19.0722 O   0  0  0  0  0  0  0  0  0  0  0  0
   26.4224  -18.3907  -17.9109 N   0  0  0  0  0  0  0  0  0  0  0  0
   26.3404  -19.2609  -16.7239 C   0  0  1  0  0  0  0  0  0  0  0  0
   27.6548  -19.1542  -16.0444 C   0  0  0  0  0  0  0  0  0  0  0  0
   28.1822  -20.3645  -15.3682 C   0  0  0  0  0  0  0  0  0  0  0  0
   28.2088  -21.5346  -16.3590 C   0  0  0  0  0  0  0  0  0  0  0  0
   28.8381  -22.7643  -15.7908 C   0  0  0  0  0  0  0  0  0  0  0  0
   28.5945  -23.9074  -16.6743 N   0  0  0  0  0  0  0  0  0  0  0  0
   25.1495  -18.9051  -15.9598 C   0  0  0  0  0  0  0  0  0  0  0  0
   24.8717  -17.7113  -15.6167 O   0  0  0  0  0  0  0  0  0  0  0  0
   19.5876  -20.5634  -17.2107 N   0  0  0  0  0  0  0  0  0  0  0  0
   19.4060  -20.1944  -15.8640 C   0  0  0  0  0  0  0  0  0  0  0  0
   18.2387  -20.2396  -15.3792 O   0  0  0  0  0  0  0  0  0  0  0  0
   20.5105  -19.7643  -14.9907 C   0  0  0  0  0  0  0  0  0  0  0  0
   21.8628  -19.8006  -15.5950 C   0  0  0  0  0  0  0  0  0  0  0  0
   23.0338  -19.5218  -14.7122 C   0  0  2  0  0  0  0  0  0  0  0  0
   24.2236  -19.8830  -15.5584 N   0  0  0  0  0  0  0  0  0  0  0  0
   23.1642  -20.3149  -13.4939 C   0  0  0  0  0  0  0  0  0  0  0  0
   23.8654  -21.3587  -13.4343 O   0  0  0  0  0  0  0  0  0  0  0  0
   22.5003  -19.9272  -12.3130 O   0  0  0  0  0  0  0  0  0  0  0  0
  2  1  1  6
  3  2  1  0
  4  5  2  0
  4  3  1  0
  6  5  1  0
  7 12  2  0
  7  6  1  0
  8  7  1  0
  9 10  1  0
  9  8  2  0
 10 11  2  0
 11 12  1  0
 12  4  1  0
 13  2  1  0
 14 13  2  0
 15 13  1  0
 16 22  1  0
 16 15  1  0
 16 17  1  1
 18 17  1  0
 19 18  1  0
 20 19  1  0
 21 20  1  0
 22 30  1  0
 23 22  2  0
 24 25  1  0
 25 27  1  0
 26 25  2  0
 27 28  1  0
 29 28  1  6
 29 31  1  0
 30 29  1  0
 31 32  2  0
 31 33  1  0
M  END
$$$$
