WKQ.pdb
     RDKit          3D

 33 34  0  0  1  0  0  0  0  0999 V2000
   27.3020  -22.1921   -9.4345 N   0  0  0  0  0  0  0  0  0  0  0  0
   26.5776  -21.0054   -9.7834 C   0  0  1  0  0  0  0  0  0  0  0  0
   27.3081  -19.7894   -9.3253 C   0  0  0  0  0  0  0  0  0  0  0  0
   27.2356  -19.6918   -7.8495 C   0  0  0  0  0  0  0  0  0  0  0  0
   26.0882  -19.3900   -7.1114 C   0  0  0  0  0  0  0  0  0  0  0  0
   26.3530  -19.4154   -5.8035 N   0  0  0  0  0  0  0  0  0  0  0  0
   27.6575  -19.7282   -5.6487 C   0  0  0  0  0  0  0  0  0  0  0  0
   28.4290  -19.8737   -4.5082 C   0  0  0  0  0  0  0  0  0  0  0  0
   29.7614  -20.1926   -4.6470 C   0  0  0  0  0  0  0  0  0  0  0  0
   30.3512  -20.3709   -5.8759 C   0  0  0  0  0  0  0  0  0  0  0  0
   29.5485  -20.2180   -7.0109 C   0  0  0  0  0  0  0  0  0  0  0  0
   28.2261  -19.9038   -6.9081 C   0  0  0  0  0  0  0  0  0  0  0  0
   26.3174  -20.9959  -11.2468 C   0  0  0  0  0  0  0  0  0  0  0  0
   27.2737  -20.8004  -12.0207 O   0  0  0  0  0  0  0  0  0  0  0  0
   25.0233  -21.2015  -11.7681 N   0  0  0  0  0  0  0  0  0  0  0  0
   24.7301  -21.2336  -13.2124 C   0  0  1  0  0  0  0  0  0  0  0  0
   24.9917  -22.6254  -13.6541 C   0  0  0  0  0  0  0  0  0  0  0  0
   24.7827  -22.9451  -15.0874 C   0  0  0  0  0  0  0  0  0  0  0  0
   25.0812  -24.4296  -15.3301 C   0  0  0  0  0  0  0  0  0  0  0  0
   26.1551  -24.6491  -16.3447 C   0  0  0  0  0  0  0  0  0  0  0  0
   27.4720  -24.4573  -15.7317 N   0  0  0  0  0  0  0  0  0  0  0  0
   23.3946  -20.6898  -13.4346 C   0  0  0  0  0  0  0  0  0  0  0  0
   22.3884  -20.9964  -12.7178 O   0  0  0  0  0  0  0  0  0  0  0  0
   22.5145  -15.6496  -17.1753 N   0  0  0  0  0  0  0  0  0  0  0  0
   22.2560  -15.4966  -15.7997 C   0  0  0  0  0  0  0  0  0  0  0  0
   22.2571  -14.3293  -15.3128 O   0  0  0  0  0  0  0  0  0  0  0  0
   21.9779  -16.6294  -14.9014 C   0  0  0  0  0  0  0  0  0  0  0  0
   22.0335  -17.9738  -15.5218 C   0  0  0  0  0  0  0  0  0  0  0  0
   21.7840  -19.1598  -14.6503 C   0  0  2  0  0  0  0  0  0  0  0  0
   23.1449  -19.7746  -14.4712 N   0  0  0  0  0  0  0  0  0  0  0  0
   20.9405  -20.2242  -15.1849 C   0  0  0  0  0  0  0  0  0  0  0  0
   21.3953  -21.1621  -15.8906 O   0  0  0  0  0  0  0  0  0  0  0  0
   19.5570  -20.2436  -14.9175 O   0  0  0  0  0  0  0  0  0  0  0  0
  2  1  1  6
  3  2  1  0
  4  5  2  0
  4  3  1  0
  6  5  1  0
  7 12  2  0
  7  6  1  0
  8  7  1  0
  9 10  1  0
  9  8  2  0
 10 11  2  0
 11 12  1  0
 12  4  1  0
 13  2  1  0
 14 13  2  0
 15 13  1  0
 16 22  1  0
 16 15  1  0
 16 17  1  1
 18 17  1  0
 19 18  1  0
 20 19  1  0
 21 20  1  0
 22 30  1  0
 23 22  2  0
 24 25  1  0
 25 27  1  0
 26 25  2  0
 27 28  1  0
 29 28  1  6
 29 31  1  0
 30 29  1  0
 31 32  2  0
 31 33  1  0
M  END
$$$$
