WKQ.pdb
     RDKit          3D

 33 34  0  0  1  0  0  0  0  0999 V2000
   28.1455  -20.5316  -10.7261 N   0  0  0  0  0  0  0  0  0  0  0  0
   26.9547  -21.2177  -10.3183 C   0  0  1  0  0  0  0  0  0  0  0  0
   26.5689  -20.8239   -8.9333 C   0  0  0  0  0  0  0  0  0  0  0  0
   27.7809  -20.7246   -8.0883 C   0  0  0  0  0  0  0  0  0  0  0  0
   29.0516  -21.1921   -8.4337 C   0  0  0  0  0  0  0  0  0  0  0  0
   29.9303  -20.9156   -7.4679 N   0  0  0  0  0  0  0  0  0  0  0  0
   29.2736  -20.2713   -6.4793 C   0  0  0  0  0  0  0  0  0  0  0  0
   29.7167  -19.7783   -5.2637 C   0  0  0  0  0  0  0  0  0  0  0  0
   28.8102  -19.1632   -4.4293 C   0  0  0  0  0  0  0  0  0  0  0  0
   27.4834  -19.0219   -4.7604 C   0  0  0  0  0  0  0  0  0  0  0  0
   27.0635  -19.5289   -5.9942 C   0  0  0  0  0  0  0  0  0  0  0  0
   27.9355  -20.1422   -6.8437 C   0  0  0  0  0  0  0  0  0  0  0  0
   25.8730  -20.9622  -11.3053 C   0  0  0  0  0  0  0  0  0  0  0  0
   25.2008  -19.9191  -11.1958 O   0  0  0  0  0  0  0  0  0  0  0  0
   25.5976  -21.8684  -12.3501 N   0  0  0  0  0  0  0  0  0  0  0  0
   24.6989  -21.5543  -13.4755 C   0  0  1  0  0  0  0  0  0  0  0  0
   25.0644  -22.4902  -14.5670 C   0  0  0  0  0  0  0  0  0  0  0  0
   25.6589  -21.9155  -15.7984 C   0  0  0  0  0  0  0  0  0  0  0  0
   27.1650  -22.2027  -15.8227 C   0  0  0  0  0  0  0  0  0  0  0  0
   27.8704  -21.5168  -16.9465 C   0  0  0  0  0  0  0  0  0  0  0  0
   29.3208  -21.6208  -16.7673 N   0  0  0  0  0  0  0  0  0  0  0  0
   23.3205  -21.5729  -12.9977 C   0  0  0  0  0  0  0  0  0  0  0  0
   22.9066  -22.3664  -12.0925 O   0  0  0  0  0  0  0  0  0  0  0  0
   20.0177  -17.9311  -10.4937 N   0  0  0  0  0  0  0  0  0  0  0  0
   18.9518  -18.2992  -11.3368 C   0  0  0  0  0  0  0  0  0  0  0  0
   17.7699  -18.0727  -10.9476 O   0  0  0  0  0  0  0  0  0  0  0  0
   19.1465  -18.9296  -12.6530 C   0  0  0  0  0  0  0  0  0  0  0  0
   20.5455  -19.2657  -13.0070 C   0  0  0  0  0  0  0  0  0  0  0  0
   20.9415  -20.7050  -13.0129 C   0  0  2  0  0  0  0  0  0  0  0  0
   22.3577  -20.6923  -13.5194 N   0  0  0  0  0  0  0  0  0  0  0  0
   20.2139  -21.6012  -13.9061 C   0  0  0  0  0  0  0  0  0  0  0  0
   19.2366  -22.2961  -13.5232 O   0  0  0  0  0  0  0  0  0  0  0  0
   20.5839  -21.7171  -15.2608 O   0  0  0  0  0  0  0  0  0  0  0  0
  2  1  1  6
  3  2  1  0
  4  5  2  0
  4  3  1  0
  6  5  1  0
  7 12  2  0
  7  6  1  0
  8  7  1  0
  9 10  1  0
  9  8  2  0
 10 11  2  0
 11 12  1  0
 12  4  1  0
 13  2  1  0
 14 13  2  0
 15 13  1  0
 16 22  1  0
 16 15  1  0
 16 17  1  6
 18 17  1  0
 19 18  1  0
 20 19  1  0
 21 20  1  0
 22 30  1  0
 23 22  2  0
 24 25  1  0
 25 27  1  0
 26 25  2  0
 27 28  1  0
 29 28  1  6
 29 31  1  0
 30 29  1  0
 31 32  2  0
 31 33  1  0
M  END
$$$$
