WKQ.pdb
     RDKit          3D

 33 34  0  0  1  0  0  0  0  0999 V2000
   27.4886  -19.4869   -9.9588 N   0  0  0  0  0  0  0  0  0  0  0  0
   26.6317  -20.6198   -9.7661 C   0  0  1  0  0  0  0  0  0  0  0  0
   25.9634  -20.5534   -8.4352 C   0  0  0  0  0  0  0  0  0  0  0  0
   26.8439  -19.8555   -7.4706 C   0  0  0  0  0  0  0  0  0  0  0  0
   27.2637  -18.5264   -7.5694 C   0  0  0  0  0  0  0  0  0  0  0  0
   28.0202  -18.1956   -6.5208 N   0  0  0  0  0  0  0  0  0  0  0  0
   28.1172  -19.2779   -5.7191 C   0  0  0  0  0  0  0  0  0  0  0  0
   28.7866  -19.4660   -4.5218 C   0  0  0  0  0  0  0  0  0  0  0  0
   28.7219  -20.7003   -3.9145 C   0  0  0  0  0  0  0  0  0  0  0  0
   28.0175  -21.7501   -4.4546 C   0  0  0  0  0  0  0  0  0  0  0  0
   27.3507  -21.5320   -5.6644 C   0  0  0  0  0  0  0  0  0  0  0  0
   27.3938  -20.3220   -6.2906 C   0  0  0  0  0  0  0  0  0  0  0  0
   25.6599  -20.7025  -10.8879 C   0  0  0  0  0  0  0  0  0  0  0  0
   24.7862  -19.8201  -10.9855 O   0  0  0  0  0  0  0  0  0  0  0  0
   25.7089  -21.7494  -11.8314 N   0  0  0  0  0  0  0  0  0  0  0  0
   24.9227  -21.7500  -13.0784 C   0  0  1  0  0  0  0  0  0  0  0  0
   25.5650  -22.7478  -13.9688 C   0  0  0  0  0  0  0  0  0  0  0  0
   25.6540  -22.4266  -15.4141 C   0  0  0  0  0  0  0  0  0  0  0  0
   26.6625  -21.2909  -15.6256 C   0  0  0  0  0  0  0  0  0  0  0  0
   26.8154  -20.9081  -17.0613 C   0  0  0  0  0  0  0  0  0  0  0  0
   27.7784  -19.8113  -17.1888 N   0  0  0  0  0  0  0  0  0  0  0  0
   23.5146  -21.9410  -12.7480 C   0  0  0  0  0  0  0  0  0  0  0  0
   23.1129  -22.7378  -11.8402 O   0  0  0  0  0  0  0  0  0  0  0  0
   19.1253  -17.7858  -14.6432 N   0  0  0  0  0  0  0  0  0  0  0  0
   18.3733  -18.7449  -13.9380 C   0  0  0  0  0  0  0  0  0  0  0  0
   17.1298  -18.5563  -13.8048 O   0  0  0  0  0  0  0  0  0  0  0  0
   18.9635  -19.9604  -13.3533 C   0  0  0  0  0  0  0  0  0  0  0  0
   20.4212  -20.1317  -13.5557 C   0  0  0  0  0  0  0  0  0  0  0  0
   21.0628  -21.3703  -13.0244 C   0  0  2  0  0  0  0  0  0  0  0  0
   22.5060  -21.2356  -13.4260 N   0  0  0  0  0  0  0  0  0  0  0  0
   20.6208  -22.6481  -13.5740 C   0  0  0  0  0  0  0  0  0  0  0  0
   19.7669  -23.3750  -13.0021 O   0  0  0  0  0  0  0  0  0  0  0  0
   21.1409  -23.1201  -14.7957 O   0  0  0  0  0  0  0  0  0  0  0  0
  2  1  1  6
  3  2  1  0
  4  5  2  0
  4  3  1  0
  6  5  1  0
  7 12  2  0
  7  6  1  0
  8  7  1  0
  9 10  1  0
  9  8  2  0
 10 11  2  0
 11 12  1  0
 12  4  1  0
 13  2  1  0
 14 13  2  0
 15 13  1  0
 16 22  1  0
 16 15  1  0
 16 17  1  6
 18 17  1  0
 19 18  1  0
 20 19  1  0
 21 20  1  0
 22 30  1  0
 23 22  2  0
 24 25  1  0
 25 27  1  0
 26 25  2  0
 27 28  1  0
 29 28  1  6
 29 31  1  0
 30 29  1  0
 31 32  2  0
 31 33  1  0
M  END
$$$$
