WKQ.pdb
     RDKit          3D

 33 34  0  0  1  0  0  0  0  0999 V2000
   24.9557  -13.3296  -17.7935 N   0  0  0  0  0  0  0  0  0  0  0  0
   23.8558  -13.3663  -16.8749 C   0  0  1  0  0  0  0  0  0  0  0  0
   24.3435  -13.5398  -15.4770 C   0  0  0  0  0  0  0  0  0  0  0  0
   24.8500  -14.9193  -15.2943 C   0  0  0  0  0  0  0  0  0  0  0  0
   26.1585  -15.2639  -14.9459 C   0  0  0  0  0  0  0  0  0  0  0  0
   26.2779  -16.5880  -14.8275 N   0  0  0  0  0  0  0  0  0  0  0  0
   25.0738  -17.1399  -15.0904 C   0  0  0  0  0  0  0  0  0  0  0  0
   24.6645  -18.4624  -15.1119 C   0  0  0  0  0  0  0  0  0  0  0  0
   23.3544  -18.7444  -15.4287 C   0  0  0  0  0  0  0  0  0  0  0  0
   22.4406  -17.7606  -15.7241 C   0  0  0  0  0  0  0  0  0  0  0  0
   22.8812  -16.4337  -15.6947 C   0  0  0  0  0  0  0  0  0  0  0  0
   24.1710  -16.1206  -15.3838 C   0  0  0  0  0  0  0  0  0  0  0  0
   23.0296  -12.1420  -17.0420 C   0  0  0  0  0  0  0  0  0  0  0  0
   23.6044  -11.0640  -17.2852 O   0  0  0  0  0  0  0  0  0  0  0  0
   21.6242  -12.1788  -16.9312 N   0  0  0  0  0  0  0  0  0  0  0  0
   20.7616  -11.0158  -17.2078 C   0  0  1  0  0  0  0  0  0  0  0  0
   19.4676  -11.5668  -17.6797 C   0  0  0  0  0  0  0  0  0  0  0  0
   18.4118  -10.6040  -18.0776 C   0  0  0  0  0  0  0  0  0  0  0  0
   17.1569  -11.3704  -18.5127 C   0  0  0  0  0  0  0  0  0  0  0  0
   16.0565  -10.4717  -18.9737 C   0  0  0  0  0  0  0  0  0  0  0  0
   14.9772  -11.2637  -19.5689 N   0  0  0  0  0  0  0  0  0  0  0  0
   20.7441  -10.1516  -16.0324 C   0  0  0  0  0  0  0  0  0  0  0  0
   20.7288  -10.5962  -14.8398 O   0  0  0  0  0  0  0  0  0  0  0  0
   22.4105   -4.0733  -16.5488 N   0  0  0  0  0  0  0  0  0  0  0  0
   22.2177   -4.2359  -15.1636 C   0  0  0  0  0  0  0  0  0  0  0  0
   22.4743   -3.2599  -14.4011 O   0  0  0  0  0  0  0  0  0  0  0  0
   21.7256   -5.4853  -14.5598 C   0  0  0  0  0  0  0  0  0  0  0  0
   21.4684   -6.5996  -15.5018 C   0  0  0  0  0  0  0  0  0  0  0  0
   20.9018   -7.8666  -14.9522 C   0  0  2  0  0  0  0  0  0  0  0  0
   20.7489   -8.7521  -16.1583 N   0  0  0  0  0  0  0  0  0  0  0  0
   19.5777   -7.8044  -14.3413 C   0  0  0  0  0  0  0  0  0  0  0  0
   19.4068   -7.6522  -13.1035 O   0  0  0  0  0  0  0  0  0  0  0  0
   18.4178   -7.9077  -15.1349 O   0  0  0  0  0  0  0  0  0  0  0  0
  2  1  1  6
  3  2  1  0
  4  5  2  0
  4  3  1  0
  6  5  1  0
  7 12  2  0
  7  6  1  0
  8  7  1  0
  9 10  1  0
  9  8  2  0
 10 11  2  0
 11 12  1  0
 12  4  1  0
 13  2  1  0
 14 13  2  0
 15 13  1  0
 16 22  1  0
 16 15  1  0
 16 17  1  1
 18 17  1  0
 19 18  1  0
 20 19  1  0
 21 20  1  0
 22 30  1  0
 23 22  2  0
 24 25  1  0
 25 27  1  0
 26 25  2  0
 27 28  1  0
 29 28  1  6
 29 31  1  0
 30 29  1  0
 31 32  2  0
 31 33  1  0
M  END
$$$$
