WKQ.pdb
     RDKit          3D

 33 34  0  0  1  0  0  0  0  0999 V2000
   22.0389  -18.4317  -15.7843 N   0  0  0  0  0  0  0  0  0  0  0  0
   22.8905  -19.1346  -14.8702 C   0  0  1  0  0  0  0  0  0  0  0  0
   22.3081  -20.4624  -14.5239 C   0  0  0  0  0  0  0  0  0  0  0  0
   21.1085  -20.2739  -13.6765 C   0  0  0  0  0  0  0  0  0  0  0  0
   19.7842  -20.3657  -14.1126 C   0  0  0  0  0  0  0  0  0  0  0  0
   18.9421  -20.1775  -13.0942 N   0  0  0  0  0  0  0  0  0  0  0  0
   19.6760  -19.9603  -11.9817 C   0  0  0  0  0  0  0  0  0  0  0  0
   19.2941  -19.7060  -10.6753 C   0  0  0  0  0  0  0  0  0  0  0  0
   20.2725  -19.5090   -9.7265 C   0  0  0  0  0  0  0  0  0  0  0  0
   21.6124  -19.5557  -10.0305 C   0  0  0  0  0  0  0  0  0  0  0  0
   21.9696  -19.8145  -11.3576 C   0  0  0  0  0  0  0  0  0  0  0  0
   21.0259  -20.0152  -12.3206 C   0  0  0  0  0  0  0  0  0  0  0  0
   24.2551  -19.2447  -15.4491 C   0  0  0  0  0  0  0  0  0  0  0  0
   24.3792  -19.7104  -16.5977 O   0  0  0  0  0  0  0  0  0  0  0  0
   25.3974  -18.8366  -14.7299 N   0  0  0  0  0  0  0  0  0  0  0  0
   26.7258  -19.4504  -14.9081 C   0  0  1  0  0  0  0  0  0  0  0  0
   27.6905  -18.3263  -14.9884 C   0  0  0  0  0  0  0  0  0  0  0  0
   27.4361  -17.2695  -15.9977 C   0  0  0  0  0  0  0  0  0  0  0  0
   28.7526  -16.8922  -16.6876 C   0  0  0  0  0  0  0  0  0  0  0  0
   28.6104  -15.7329  -17.6187 C   0  0  0  0  0  0  0  0  0  0  0  0
   29.9202  -15.3579  -18.1576 N   0  0  0  0  0  0  0  0  0  0  0  0
   26.9290  -20.4468  -13.8619 C   0  0  0  0  0  0  0  0  0  0  0  0
   27.9512  -21.2034  -13.8082 O   0  0  0  0  0  0  0  0  0  0  0  0
   27.2317  -20.5119   -7.2058 N   0  0  0  0  0  0  0  0  0  0  0  0
   26.6041  -20.1037   -8.3984 C   0  0  0  0  0  0  0  0  0  0  0  0
   25.7032  -19.2184   -8.3325 O   0  0  0  0  0  0  0  0  0  0  0  0
   26.9502  -20.6532   -9.7197 C   0  0  0  0  0  0  0  0  0  0  0  0
   25.8124  -21.1403  -10.5343 C   0  0  0  0  0  0  0  0  0  0  0  0
   26.1122  -21.7620  -11.8578 C   0  0  2  0  0  0  0  0  0  0  0  0
   25.9885  -20.6234  -12.8329 N   0  0  0  0  0  0  0  0  0  0  0  0
   25.1991  -22.7929  -12.3413 C   0  0  0  0  0  0  0  0  0  0  0  0
   25.2393  -23.9826  -11.9320 O   0  0  0  0  0  0  0  0  0  0  0  0
   24.2134  -22.4837  -13.2998 O   0  0  0  0  0  0  0  0  0  0  0  0
  2  1  1  6
  3  2  1  0
  4  5  2  0
  4  3  1  0
  6  5  1  0
  7 12  2  0
  7  6  1  0
  8  7  1  0
  9 10  1  0
  9  8  2  0
 10 11  2  0
 11 12  1  0
 12  4  1  0
 13  2  1  0
 14 13  2  0
 15 13  1  0
 16 22  1  0
 16 15  1  0
 16 17  1  1
 18 17  1  0
 19 18  1  0
 20 19  1  0
 21 20  1  0
 22 30  1  0
 23 22  2  0
 24 25  1  0
 25 27  1  0
 26 25  2  0
 27 28  1  0
 29 28  1  1
 29 31  1  0
 30 29  1  0
 31 32  2  0
 31 33  1  0
M  END
$$$$
