WKQ.pdb
     RDKit          3D

 33 34  0  0  1  0  0  0  0  0999 V2000
   25.4911  -16.7191  -18.9292 N   0  0  0  0  0  0  0  0  0  0  0  0
   24.8800  -16.5829  -17.6397 C   0  0  1  0  0  0  0  0  0  0  0  0
   24.2343  -15.2464  -17.5021 C   0  0  0  0  0  0  0  0  0  0  0  0
   25.2639  -14.1854  -17.5860 C   0  0  0  0  0  0  0  0  0  0  0  0
   25.2398  -13.0986  -18.4639 C   0  0  0  0  0  0  0  0  0  0  0  0
   26.2964  -12.3090  -18.2601 N   0  0  0  0  0  0  0  0  0  0  0  0
   27.0307  -12.8453  -17.2618 C   0  0  0  0  0  0  0  0  0  0  0  0
   28.2141  -12.4271  -16.6772 C   0  0  0  0  0  0  0  0  0  0  0  0
   28.7570  -13.1874  -15.6654 C   0  0  0  0  0  0  0  0  0  0  0  0
   28.1663  -14.3448  -15.2166 C   0  0  0  0  0  0  0  0  0  0  0  0
   26.9717  -14.7434  -15.8248 C   0  0  0  0  0  0  0  0  0  0  0  0
   26.4075  -14.0130  -16.8279 C   0  0  0  0  0  0  0  0  0  0  0  0
   23.9255  -17.7016  -17.4231 C   0  0  0  0  0  0  0  0  0  0  0  0
   23.1914  -18.0497  -18.3674 O   0  0  0  0  0  0  0  0  0  0  0  0
   23.8371  -18.3672  -16.1830 N   0  0  0  0  0  0  0  0  0  0  0  0
   22.9620  -19.5306  -15.9515 C   0  0  1  0  0  0  0  0  0  0  0  0
   23.8588  -20.6518  -15.5784 C   0  0  0  0  0  0  0  0  0  0  0  0
   24.3934  -21.5007  -16.6710 C   0  0  0  0  0  0  0  0  0  0  0  0
   25.4414  -22.4660  -16.1041 C   0  0  0  0  0  0  0  0  0  0  0  0
   26.1701  -23.2230  -17.1656 C   0  0  0  0  0  0  0  0  0  0  0  0
   27.2430  -24.0211  -16.5668 N   0  0  0  0  0  0  0  0  0  0  0  0
   21.9163  -19.1535  -15.0065 C   0  0  0  0  0  0  0  0  0  0  0  0
   22.1587  -18.7136  -13.8369 O   0  0  0  0  0  0  0  0  0  0  0  0
   15.9294  -18.2842  -16.8971 N   0  0  0  0  0  0  0  0  0  0  0  0
   16.3999  -17.2289  -16.0923 C   0  0  0  0  0  0  0  0  0  0  0  0
   15.7809  -16.1264  -16.1221 O   0  0  0  0  0  0  0  0  0  0  0  0
   17.5743  -17.3487  -15.2125 C   0  0  0  0  0  0  0  0  0  0  0  0
   18.2738  -18.6545  -15.2438 C   0  0  0  0  0  0  0  0  0  0  0  0
   19.4834  -18.8235  -14.3858 C   0  0  2  0  0  0  0  0  0  0  0  0
   20.5568  -19.2532  -15.3478 N   0  0  0  0  0  0  0  0  0  0  0  0
   19.4418  -19.8584  -13.3573 C   0  0  0  0  0  0  0  0  0  0  0  0
   19.0263  -19.6394  -12.1894 O   0  0  0  0  0  0  0  0  0  0  0  0
   19.8683  -21.1704  -13.6444 O   0  0  0  0  0  0  0  0  0  0  0  0
  2  1  1  6
  3  2  1  0
  4  5  2  0
  4  3  1  0
  6  5  1  0
  7 12  2  0
  7  6  1  0
  8  7  1  0
  9 10  1  0
  9  8  2  0
 10 11  2  0
 11 12  1  0
 12  4  1  0
 13  2  1  0
 14 13  2  0
 15 13  1  0
 16 22  1  0
 16 15  1  0
 16 17  1  1
 18 17  1  0
 19 18  1  0
 20 19  1  0
 21 20  1  0
 22 30  1  0
 23 22  2  0
 24 25  1  0
 25 27  1  0
 26 25  2  0
 27 28  1  0
 29 28  1  6
 29 31  1  0
 30 29  1  0
 31 32  2  0
 31 33  1  0
M  END
$$$$
