HIT.pdb
     RDKit          3D

 26 26  0  0  1  0  0  0  0  0999 V2000
   10.0171  -18.0466   16.8953 N   0  0  0  0  0  0  0  0  0  0  0  0
    9.0443  -18.0305   17.9459 C   0  0  1  0  0  0  0  0  0  0  0  0
    8.8742  -19.4448   18.4612 C   0  0  0  0  0  0  0  0  0  0  0  0
    8.2230  -20.2489   17.3947 C   0  0  0  0  0  0  0  0  0  0  0  0
    8.7748  -21.1552   16.5194 C   0  0  0  0  0  0  0  0  0  0  0  0
    7.8275  -21.6574   15.7161 N   0  0  0  0  0  0  0  0  0  0  0  0
    6.6617  -21.0822   16.0644 C   0  0  0  0  0  0  0  0  0  0  0  0
    6.8979  -20.2236   17.0865 N   0  0  0  0  0  0  0  0  0  0  0  0
    9.4043  -17.0877   19.0254 C   0  0  0  0  0  0  0  0  0  0  0  0
   10.6508  -16.9253   19.2436 O   0  0  0  0  0  0  0  0  0  0  0  0
    6.8617  -12.2958   19.5505 C   0  0  0  0  0  0  0  0  0  0  0  0
    7.9004  -13.3357   19.6231 C   0  0  0  0  0  0  0  0  0  0  0  0
    7.8791  -14.2670   20.7982 C   0  0  2  0  0  0  0  0  0  0  0  0
    8.2427  -13.3859   21.9849 C   0  0  0  0  0  0  0  0  0  0  0  0
    8.8756  -15.3948   20.7379 C   0  0  2  0  0  0  0  0  0  0  0  0
    8.4390  -16.4056   19.7730 N   0  0  0  0  0  0  0  0  0  0  0  0
    8.8169  -16.1152   22.0512 C   0  0  0  0  0  0  0  0  0  0  0  0
    7.8158  -16.8877   22.2971 O   0  0  0  0  0  0  0  0  0  0  0  0
   11.4995  -18.3417   22.1545 C   0  0  0  0  0  0  0  0  0  0  0  0
   10.4150  -18.4151   23.2016 C   0  0  1  0  0  0  0  0  0  0  0  0
   10.6898  -19.4676   24.0502 O   0  0  0  0  0  0  0  0  0  0  0  0
   10.2135  -17.1155   23.9067 C   0  0  2  0  0  0  0  0  0  0  0  0
    9.7946  -16.0225   23.0717 N   0  0  0  0  0  0  0  0  0  0  0  0
   11.3453  -16.7682   24.8250 C   0  0  0  0  0  0  0  0  0  0  0  0
   11.9671  -15.5495   24.7559 O   0  0  0  0  0  0  0  0  0  0  0  0
   11.7543  -17.5857   25.6870 O   0  0  0  0  0  0  0  0  0  0  0  0
  2  1  1  6
  3  2  1  0
  4  3  1  0
  5  4  2  0
  6  5  1  0
  7  6  1  0
  7  8  2  0
  8  4  1  0
  9  2  1  0
  9 16  1  0
 10  9  2  0
 12 11  1  0
 13 14  1  1
 13 12  1  0
 15 13  1  0
 15 16  1  6
 17 15  1  0
 18 17  2  0
 20 19  1  6
 20 21  1  0
 20 22  1  0
 22 23  1  6
 23 17  1  0
 24 22  1  0
 24 25  1  0
 26 24  2  0
M  END
$$$$
