HIT.pdb
     RDKit          3D

 26 26  0  0  1  0  0  0  0  0999 V2000
    7.6123  -15.5316   20.7050 N   0  0  0  0  0  0  0  0  0  0  0  0
    7.0955  -15.9566   21.9709 C   0  0  1  0  0  0  0  0  0  0  0  0
    6.9456  -17.4638   21.9442 C   0  0  0  0  0  0  0  0  0  0  0  0
    5.8922  -17.8049   20.9532 C   0  0  0  0  0  0  0  0  0  0  0  0
    4.5245  -17.8226   21.0986 C   0  0  0  0  0  0  0  0  0  0  0  0
    3.9424  -18.1898   19.9491 N   0  0  0  0  0  0  0  0  0  0  0  0
    4.9248  -18.4112   19.0562 C   0  0  0  0  0  0  0  0  0  0  0  0
    6.1141  -18.1779   19.6636 N   0  0  0  0  0  0  0  0  0  0  0  0
    7.9375  -15.5041   23.0978 C   0  0  0  0  0  0  0  0  0  0  0  0
    9.1968  -15.4881   22.8935 O   0  0  0  0  0  0  0  0  0  0  0  0
    5.9164  -11.8564   26.6307 C   0  0  0  0  0  0  0  0  0  0  0  0
    6.9665  -12.5246   25.8459 C   0  0  0  0  0  0  0  0  0  0  0  0
    7.5308  -13.8077   26.3789 C   0  0  2  0  0  0  0  0  0  0  0  0
    8.5067  -13.3699   27.4618 C   0  0  0  0  0  0  0  0  0  0  0  0
    8.2929  -14.6354   25.3775 C   0  0  2  0  0  0  0  0  0  0  0  0
    7.3937  -15.1125   24.3254 N   0  0  0  0  0  0  0  0  0  0  0  0
    8.7215  -15.8939   26.0700 C   0  0  0  0  0  0  0  0  0  0  0  0
    7.8408  -16.5940   26.6975 O   0  0  0  0  0  0  0  0  0  0  0  0
   10.8036  -18.7692   24.4940 C   0  0  0  0  0  0  0  0  0  0  0  0
   11.3565  -18.4847   25.8692 C   0  0  1  0  0  0  0  0  0  0  0  0
   12.6221  -17.9518   25.7358 O   0  0  0  0  0  0  0  0  0  0  0  0
   10.4375  -17.6441   26.6912 C   0  0  2  0  0  0  0  0  0  0  0  0
   10.0450  -16.3975   26.0920 N   0  0  0  0  0  0  0  0  0  0  0  0
   10.8858  -17.5099   28.1145 C   0  0  0  0  0  0  0  0  0  0  0  0
   10.9998  -18.6053   28.9292 O   0  0  0  0  0  0  0  0  0  0  0  0
   11.1725  -16.3872   28.6002 O   0  0  0  0  0  0  0  0  0  0  0  0
  2  1  1  6
  3  2  1  0
  4  3  1  0
  5  4  2  0
  6  5  1  0
  7  6  1  0
  7  8  2  0
  8  4  1  0
  9  2  1  0
  9 16  1  0
 10  9  2  0
 12 11  1  0
 13 14  1  1
 13 12  1  0
 15 13  1  0
 15 16  1  6
 17 15  1  0
 18 17  2  0
 20 19  1  6
 20 21  1  0
 20 22  1  0
 22 23  1  6
 23 17  1  0
 24 22  1  0
 24 25  1  0
 26 24  2  0
M  END
$$$$
