HIT.pdb
     RDKit          3D

 26 26  0  0  1  0  0  0  0  0999 V2000
    9.6734  -15.2154   20.5601 N   0  0  0  0  0  0  0  0  0  0  0  0
    8.6135  -15.5156   21.4749 C   0  0  1  0  0  0  0  0  0  0  0  0
    8.2551  -16.9800   21.3269 C   0  0  0  0  0  0  0  0  0  0  0  0
    7.6416  -17.1714   19.9871 C   0  0  0  0  0  0  0  0  0  0  0  0
    7.5044  -16.2784   18.9499 C   0  0  0  0  0  0  0  0  0  0  0  0
    6.8882  -16.8641   17.9144 N   0  0  0  0  0  0  0  0  0  0  0  0
    6.6237  -18.1341   18.2727 C   0  0  0  0  0  0  0  0  0  0  0  0
    7.0809  -18.3256   19.5345 N   0  0  0  0  0  0  0  0  0  0  0  0
    8.9641  -15.1697   22.8682 C   0  0  0  0  0  0  0  0  0  0  0  0
   10.2059  -15.1855   23.1606 O   0  0  0  0  0  0  0  0  0  0  0  0
    5.7304  -11.8015   25.7802 C   0  0  0  0  0  0  0  0  0  0  0  0
    6.9667  -12.4472   25.3113 C   0  0  0  0  0  0  0  0  0  0  0  0
    7.3365  -13.7714   25.9097 C   0  0  2  0  0  0  0  0  0  0  0  0
    7.8543  -13.4266   27.2989 C   0  0  0  0  0  0  0  0  0  0  0  0
    8.4240  -14.5194   25.1840 C   0  0  2  0  0  0  0  0  0  0  0  0
    7.9952  -14.8415   23.8218 N   0  0  0  0  0  0  0  0  0  0  0  0
    8.5566  -15.8622   25.8368 C   0  0  0  0  0  0  0  0  0  0  0  0
    7.5139  -16.6107   25.9461 O   0  0  0  0  0  0  0  0  0  0  0  0
   10.1746  -18.9263   24.8035 C   0  0  0  0  0  0  0  0  0  0  0  0
   10.7147  -18.6758   26.1904 C   0  0  1  0  0  0  0  0  0  0  0  0
   12.0436  -18.3188   26.0900 O   0  0  0  0  0  0  0  0  0  0  0  0
    9.8889  -17.6969   26.9563 C   0  0  2  0  0  0  0  0  0  0  0  0
    9.7615  -16.3974   26.3541 N   0  0  0  0  0  0  0  0  0  0  0  0
   10.2393  -17.6507   28.4122 C   0  0  0  0  0  0  0  0  0  0  0  0
   10.1116  -18.7580   29.2086 O   0  0  0  0  0  0  0  0  0  0  0  0
   10.6634  -16.5939   28.9433 O   0  0  0  0  0  0  0  0  0  0  0  0
  2  1  1  6
  3  2  1  0
  4  3  1  0
  5  4  2  0
  6  5  1  0
  7  6  1  0
  7  8  2  0
  8  4  1  0
  9  2  1  0
  9 16  1  0
 10  9  2  0
 12 11  1  0
 13 14  1  1
 13 12  1  0
 15 13  1  0
 15 16  1  6
 17 15  1  0
 18 17  2  0
 20 19  1  6
 20 21  1  0
 20 22  1  0
 22 23  1  6
 23 17  1  0
 24 22  1  0
 24 25  1  0
 26 24  2  0
M  END
$$$$
