HIT.pdb
     RDKit          3D

 26 26  0  0  1  0  0  0  0  0999 V2000
   10.0375  -14.3643   20.7285 N   0  0  0  0  0  0  0  0  0  0  0  0
    8.7410  -14.3181   21.3345 C   0  0  1  0  0  0  0  0  0  0  0  0
    7.8350  -15.2838   20.5988 C   0  0  0  0  0  0  0  0  0  0  0  0
    7.5851  -14.7372   19.2398 C   0  0  0  0  0  0  0  0  0  0  0  0
    8.1345  -13.6377   18.6223 C   0  0  0  0  0  0  0  0  0  0  0  0
    7.6290  -13.4996   17.3892 N   0  0  0  0  0  0  0  0  0  0  0  0
    6.7532  -14.5040   17.2013 C   0  0  0  0  0  0  0  0  0  0  0  0
    6.7233  -15.2603   18.3260 N   0  0  0  0  0  0  0  0  0  0  0  0
    8.7920  -14.6019   22.7839 C   0  0  0  0  0  0  0  0  0  0  0  0
    9.8495  -15.1727   23.2126 O   0  0  0  0  0  0  0  0  0  0  0  0
    5.7760  -11.2301   25.9995 C   0  0  0  0  0  0  0  0  0  0  0  0
    6.9121  -12.0258   25.5083 C   0  0  0  0  0  0  0  0  0  0  0  0
    6.9198  -13.4954   25.8066 C   0  0  2  0  0  0  0  0  0  0  0  0
    7.2033  -13.5761   27.2999 C   0  0  0  0  0  0  0  0  0  0  0  0
    7.9829  -14.2872   25.0913 C   0  0  2  0  0  0  0  0  0  0  0  0
    7.7438  -14.2673   23.6471 N   0  0  0  0  0  0  0  0  0  0  0  0
    7.7919  -15.7279   25.4587 C   0  0  0  0  0  0  0  0  0  0  0  0
    6.9462  -16.4365   24.7937 O   0  0  0  0  0  0  0  0  0  0  0  0
    8.4331  -18.0016   24.0745 C   0  0  0  0  0  0  0  0  0  0  0  0
    9.2275  -18.4238   25.2864 C   0  0  1  0  0  0  0  0  0  0  0  0
   10.5620  -18.1619   25.0540 O   0  0  0  0  0  0  0  0  0  0  0  0
    8.7100  -17.8171   26.5477 C   0  0  2  0  0  0  0  0  0  0  0  0
    8.4818  -16.3984   26.4980 N   0  0  0  0  0  0  0  0  0  0  0  0
    9.4678  -18.2598   27.7620 C   0  0  0  0  0  0  0  0  0  0  0  0
    9.4982  -19.5766   28.1389 O   0  0  0  0  0  0  0  0  0  0  0  0
   10.0998  -17.4346   28.4678 O   0  0  0  0  0  0  0  0  0  0  0  0
  2  1  1  6
  3  2  1  0
  4  3  1  0
  5  4  2  0
  6  5  1  0
  7  6  1  0
  7  8  2  0
  8  4  1  0
  9  2  1  0
  9 16  1  0
 10  9  2  0
 12 11  1  0
 13 14  1  1
 13 12  1  0
 15 13  1  0
 15 16  1  6
 17 15  1  0
 18 17  2  0
 20 19  1  6
 20 21  1  0
 20 22  1  0
 22 23  1  6
 23 17  1  0
 24 22  1  0
 24 25  1  0
 26 24  2  0
M  END
$$$$
