HIT.pdb
     RDKit          3D

 26 26  0  0  1  0  0  0  0  0999 V2000
    7.1480  -15.5476   21.0241 N   0  0  0  0  0  0  0  0  0  0  0  0
    8.5086  -15.1127   21.1244 C   0  0  1  0  0  0  0  0  0  0  0  0
    8.6754  -13.8668   20.2790 C   0  0  0  0  0  0  0  0  0  0  0  0
    8.2768  -14.1977   18.8863 C   0  0  0  0  0  0  0  0  0  0  0  0
    7.8448  -15.3921   18.3583 C   0  0  0  0  0  0  0  0  0  0  0  0
    7.5886  -15.2535   17.0506 N   0  0  0  0  0  0  0  0  0  0  0  0
    7.8518  -13.9744   16.7249 C   0  0  0  0  0  0  0  0  0  0  0  0
    8.2713  -13.3277   17.8401 N   0  0  0  0  0  0  0  0  0  0  0  0
    8.9214  -14.8901   22.5257 C   0  0  0  0  0  0  0  0  0  0  0  0
   10.1365  -14.5475   22.7109 O   0  0  0  0  0  0  0  0  0  0  0  0
    5.9033  -12.0339   25.7854 C   0  0  0  0  0  0  0  0  0  0  0  0
    7.0630  -12.7115   25.1844 C   0  0  0  0  0  0  0  0  0  0  0  0
    7.4652  -14.0429   25.7448 C   0  0  2  0  0  0  0  0  0  0  0  0
    8.0514  -13.7161   27.1109 C   0  0  0  0  0  0  0  0  0  0  0  0
    8.5164  -14.7777   24.9549 C   0  0  2  0  0  0  0  0  0  0  0  0
    8.0365  -15.0439   23.5977 N   0  0  0  0  0  0  0  0  0  0  0  0
    8.6523  -16.1452   25.5536 C   0  0  0  0  0  0  0  0  0  0  0  0
    7.5988  -16.8722   25.6992 O   0  0  0  0  0  0  0  0  0  0  0  0
   10.3620  -19.1539   24.3159 C   0  0  0  0  0  0  0  0  0  0  0  0
   10.8535  -18.9848   25.7328 C   0  0  1  0  0  0  0  0  0  0  0  0
   12.1848  -18.6240   25.6993 O   0  0  0  0  0  0  0  0  0  0  0  0
   10.0009  -18.0509   26.5250 C   0  0  2  0  0  0  0  0  0  0  0  0
    9.8712  -16.7265   25.9806 N   0  0  0  0  0  0  0  0  0  0  0  0
   10.3205  -18.0683   27.9887 C   0  0  0  0  0  0  0  0  0  0  0  0
   10.1467  -19.2006   28.7399 O   0  0  0  0  0  0  0  0  0  0  0  0
   10.7600  -17.0436   28.5680 O   0  0  0  0  0  0  0  0  0  0  0  0
  2  1  1  1
  3  2  1  0
  4  3  1  0
  5  4  2  0
  6  5  1  0
  7  6  1  0
  7  8  2  0
  8  4  1  0
  9  2  1  0
  9 16  1  0
 10  9  2  0
 12 11  1  0
 13 14  1  1
 13 12  1  0
 15 13  1  0
 15 16  1  6
 17 15  1  0
 18 17  2  0
 20 19  1  6
 20 21  1  0
 20 22  1  0
 22 23  1  6
 23 17  1  0
 24 22  1  0
 24 25  1  0
 26 24  2  0
M  END
$$$$
