HIT.pdb
     RDKit          3D

 26 26  0  0  1  0  0  0  0  0999 V2000
    6.5685  -16.2844   21.0083 N   0  0  0  0  0  0  0  0  0  0  0  0
    6.2750  -16.5130   22.3910 C   0  0  1  0  0  0  0  0  0  0  0  0
    6.1330  -18.0054   22.6089 C   0  0  0  0  0  0  0  0  0  0  0  0
    4.9049  -18.4592   21.9061 C   0  0  0  0  0  0  0  0  0  0  0  0
    3.6131  -17.9991   22.0126 C   0  0  0  0  0  0  0  0  0  0  0  0
    2.8073  -18.6910   21.1958 N   0  0  0  0  0  0  0  0  0  0  0  0
    3.5687  -19.5993   20.5582 C   0  0  0  0  0  0  0  0  0  0  0  0
    4.8472  -19.4616   20.9878 N   0  0  0  0  0  0  0  0  0  0  0  0
    7.2916  -15.9177   23.2832 C   0  0  0  0  0  0  0  0  0  0  0  0
    8.5046  -16.0035   22.8969 O   0  0  0  0  0  0  0  0  0  0  0  0
    5.9273  -11.7547   26.7279 C   0  0  0  0  0  0  0  0  0  0  0  0
    6.8218  -12.5037   25.8311 C   0  0  0  0  0  0  0  0  0  0  0  0
    7.4176  -13.7814   26.3421 C   0  0  2  0  0  0  0  0  0  0  0  0
    8.5434  -13.3315   27.2625 C   0  0  0  0  0  0  0  0  0  0  0  0
    8.0134  -14.6758   25.2867 C   0  0  2  0  0  0  0  0  0  0  0  0
    6.9531  -15.2920   24.4873 N   0  0  0  0  0  0  0  0  0  0  0  0
    8.6443  -15.8398   25.9898 C   0  0  0  0  0  0  0  0  0  0  0  0
    7.9264  -16.5536   26.7865 O   0  0  0  0  0  0  0  0  0  0  0  0
   12.5759  -17.2624   24.7904 C   0  0  0  0  0  0  0  0  0  0  0  0
   11.3891  -18.1420   25.0999 C   0  0  1  0  0  0  0  0  0  0  0  0
   11.8449  -19.4060   25.4131 O   0  0  0  0  0  0  0  0  0  0  0  0
   10.4982  -17.5526   26.1418 C   0  0  2  0  0  0  0  0  0  0  0  0
    9.9960  -16.2378   25.8479 N   0  0  0  0  0  0  0  0  0  0  0  0
   11.0525  -17.6862   27.5273 C   0  0  0  0  0  0  0  0  0  0  0  0
   11.3391  -18.9146   28.0618 O   0  0  0  0  0  0  0  0  0  0  0  0
   11.2728  -16.6734   28.2374 O   0  0  0  0  0  0  0  0  0  0  0  0
  2  1  1  6
  3  2  1  0
  4  3  1  0
  5  4  2  0
  6  5  1  0
  7  6  1  0
  7  8  2  0
  8  4  1  0
  9  2  1  0
  9 16  1  0
 10  9  2  0
 12 11  1  0
 13 14  1  1
 13 12  1  0
 15 13  1  0
 15 16  1  6
 17 15  1  0
 18 17  2  0
 20 19  1  1
 20 21  1  0
 20 22  1  0
 22 23  1  6
 23 17  1  0
 24 22  1  0
 24 25  1  0
 26 24  2  0
M  END
$$$$
