HIT.pdb
     RDKit          3D

 26 26  0  0  1  0  0  0  0  0999 V2000
    9.4375  -15.0589   20.3546 N   0  0  0  0  0  0  0  0  0  0  0  0
    8.4123  -15.3680   21.3052 C   0  0  1  0  0  0  0  0  0  0  0  0
    7.9817  -16.8048   21.0934 C   0  0  0  0  0  0  0  0  0  0  0  0
    7.4949  -16.9390   19.6959 C   0  0  0  0  0  0  0  0  0  0  0  0
    6.6052  -16.1556   18.9983 C   0  0  0  0  0  0  0  0  0  0  0  0
    6.4446  -16.6324   17.7565 N   0  0  0  0  0  0  0  0  0  0  0  0
    7.2257  -17.7225   17.6427 C   0  0  0  0  0  0  0  0  0  0  0  0
    7.8673  -17.9129   18.8216 N   0  0  0  0  0  0  0  0  0  0  0  0
    8.8472  -15.1197   22.6955 C   0  0  0  0  0  0  0  0  0  0  0  0
   10.1061  -15.1150   22.9032 O   0  0  0  0  0  0  0  0  0  0  0  0
    5.9571  -11.7365   25.8494 C   0  0  0  0  0  0  0  0  0  0  0  0
    7.1190  -12.4525   25.2996 C   0  0  0  0  0  0  0  0  0  0  0  0
    7.4330  -13.8099   25.8543 C   0  0  2  0  0  0  0  0  0  0  0  0
    8.0188  -13.5290   27.2308 C   0  0  0  0  0  0  0  0  0  0  0  0
    8.4491  -14.6004   25.0724 C   0  0  2  0  0  0  0  0  0  0  0  0
    7.9368  -14.9008   23.7343 N   0  0  0  0  0  0  0  0  0  0  0  0
    8.5595  -15.9493   25.7168 C   0  0  0  0  0  0  0  0  0  0  0  0
    7.4894  -16.6397   25.9109 O   0  0  0  0  0  0  0  0  0  0  0  0
   10.1537  -19.0576   24.5331 C   0  0  0  0  0  0  0  0  0  0  0  0
   10.6967  -18.8357   25.9237 C   0  0  1  0  0  0  0  0  0  0  0  0
   12.0275  -18.4846   25.8282 O   0  0  0  0  0  0  0  0  0  0  0  0
    9.8775  -17.8661   26.7083 C   0  0  2  0  0  0  0  0  0  0  0  0
    9.7707  -16.5504   26.1384 N   0  0  0  0  0  0  0  0  0  0  0  0
   10.2177  -17.8612   28.1673 C   0  0  0  0  0  0  0  0  0  0  0  0
   10.0766  -18.9884   28.9330 O   0  0  0  0  0  0  0  0  0  0  0  0
   10.6452  -16.8220   28.7294 O   0  0  0  0  0  0  0  0  0  0  0  0
  2  1  1  6
  3  2  1  0
  4  3  1  0
  5  4  2  0
  6  5  1  0
  7  6  1  0
  7  8  2  0
  8  4  1  0
  9  2  1  0
  9 16  1  0
 10  9  2  0
 12 11  1  0
 13 14  1  1
 13 12  1  0
 15 13  1  0
 15 16  1  6
 17 15  1  0
 18 17  2  0
 20 19  1  6
 20 21  1  0
 20 22  1  0
 22 23  1  6
 23 17  1  0
 24 22  1  0
 24 25  1  0
 26 24  2  0
M  END
$$$$
