HIT.pdb
     RDKit          3D

 26 26  0  0  1  0  0  0  0  0999 V2000
   10.1233  -14.2112   20.7849 N   0  0  0  0  0  0  0  0  0  0  0  0
    8.8206  -14.1591   21.3770 C   0  0  1  0  0  0  0  0  0  0  0  0
    7.9212  -15.1292   20.6390 C   0  0  0  0  0  0  0  0  0  0  0  0
    7.7495  -14.6325   19.2490 C   0  0  0  0  0  0  0  0  0  0  0  0
    8.2493  -13.4966   18.6558 C   0  0  0  0  0  0  0  0  0  0  0  0
    7.8506  -13.4286   17.3786 N   0  0  0  0  0  0  0  0  0  0  0  0
    7.0936  -14.5150   17.1376 C   0  0  0  0  0  0  0  0  0  0  0  0
    7.0294  -15.2511   18.2742 N   0  0  0  0  0  0  0  0  0  0  0  0
    8.8563  -14.4324   22.8288 C   0  0  0  0  0  0  0  0  0  0  0  0
    9.9115  -14.9948   23.2738 O   0  0  0  0  0  0  0  0  0  0  0  0
    5.6752  -11.2489   26.1540 C   0  0  0  0  0  0  0  0  0  0  0  0
    6.8442  -11.9826   25.6439 C   0  0  0  0  0  0  0  0  0  0  0  0
    6.8833  -13.4678   25.8474 C   0  0  2  0  0  0  0  0  0  0  0  0
    7.1124  -13.6382   27.3425 C   0  0  0  0  0  0  0  0  0  0  0  0
    7.9952  -14.1827   25.1254 C   0  0  2  0  0  0  0  0  0  0  0  0
    7.7965  -14.0970   23.6775 N   0  0  0  0  0  0  0  0  0  0  0  0
    7.8481  -15.6464   25.4136 C   0  0  0  0  0  0  0  0  0  0  0  0
    7.0645  -16.3540   24.6755 O   0  0  0  0  0  0  0  0  0  0  0  0
    8.4916  -17.8865   23.9671 C   0  0  0  0  0  0  0  0  0  0  0  0
    9.3495  -18.2721   25.1475 C   0  0  1  0  0  0  0  0  0  0  0  0
   10.6505  -17.8905   24.8923 O   0  0  0  0  0  0  0  0  0  0  0  0
    8.8146  -17.7467   26.4377 C   0  0  2  0  0  0  0  0  0  0  0  0
    8.5169  -16.3401   26.4516 N   0  0  0  0  0  0  0  0  0  0  0  0
    9.6042  -18.2037   27.6261 C   0  0  0  0  0  0  0  0  0  0  0  0
    9.6710  -19.5289   27.9671 O   0  0  0  0  0  0  0  0  0  0  0  0
   10.2301  -17.3830   28.3426 O   0  0  0  0  0  0  0  0  0  0  0  0
  2  1  1  6
  3  2  1  0
  4  3  1  0
  5  4  2  0
  6  5  1  0
  7  6  1  0
  7  8  2  0
  8  4  1  0
  9  2  1  0
  9 16  1  0
 10  9  2  0
 12 11  1  0
 13 14  1  1
 13 12  1  0
 15 13  1  0
 15 16  1  6
 17 15  1  0
 18 17  2  0
 20 19  1  6
 20 21  1  0
 20 22  1  0
 22 23  1  6
 23 17  1  0
 24 22  1  0
 24 25  1  0
 26 24  2  0
M  END
$$$$
