HIT.pdb
     RDKit          3D

 26 26  0  0  1  0  0  0  0  0999 V2000
    8.7151  -15.9150   20.5004 N   0  0  0  0  0  0  0  0  0  0  0  0
    7.7894  -16.0270   21.5871 C   0  0  1  0  0  0  0  0  0  0  0  0
    7.3269  -17.4669   21.6743 C   0  0  0  0  0  0  0  0  0  0  0  0
    6.5750  -17.7856   20.4328 C   0  0  0  0  0  0  0  0  0  0  0  0
    6.3664  -17.0160   19.3121 C   0  0  0  0  0  0  0  0  0  0  0  0
    5.6282  -17.6896   18.4197 N   0  0  0  0  0  0  0  0  0  0  0  0
    5.3554  -18.8942   18.9544 C   0  0  0  0  0  0  0  0  0  0  0  0
    5.9302  -18.9570   20.1806 N   0  0  0  0  0  0  0  0  0  0  0  0
    8.3659  -15.5527   22.8624 C   0  0  0  0  0  0  0  0  0  0  0  0
    9.6378  -15.5881   22.9573 O   0  0  0  0  0  0  0  0  0  0  0  0
    5.8246  -11.7165   25.9063 C   0  0  0  0  0  0  0  0  0  0  0  0
    6.9062  -12.5075   25.2981 C   0  0  0  0  0  0  0  0  0  0  0  0
    7.2904  -13.7963   25.9614 C   0  0  2  0  0  0  0  0  0  0  0  0
    8.0282  -13.3671   27.2216 C   0  0  0  0  0  0  0  0  0  0  0  0
    8.2154  -14.6757   25.1616 C   0  0  2  0  0  0  0  0  0  0  0  0
    7.5697  -15.0884   23.9142 N   0  0  0  0  0  0  0  0  0  0  0  0
    8.3751  -15.9612   25.9159 C   0  0  0  0  0  0  0  0  0  0  0  0
    7.3229  -16.5814   26.3255 O   0  0  0  0  0  0  0  0  0  0  0  0
    9.8491  -19.1912   24.8072 C   0  0  0  0  0  0  0  0  0  0  0  0
   10.4954  -18.8851   26.1363 C   0  0  1  0  0  0  0  0  0  0  0  0
   11.8254  -18.5864   25.9233 O   0  0  0  0  0  0  0  0  0  0  0  0
    9.7613  -17.8336   26.8992 C   0  0  2  0  0  0  0  0  0  0  0  0
    9.6149  -16.5735   26.2224 N   0  0  0  0  0  0  0  0  0  0  0  0
   10.2346  -17.7019   28.3146 C   0  0  0  0  0  0  0  0  0  0  0  0
   10.1583  -18.7534   29.1894 O   0  0  0  0  0  0  0  0  0  0  0  0
   10.7180  -16.6223   28.7383 O   0  0  0  0  0  0  0  0  0  0  0  0
  2  1  1  6
  3  2  1  0
  4  3  1  0
  5  4  2  0
  6  5  1  0
  7  6  1  0
  7  8  2  0
  8  4  1  0
  9  2  1  0
  9 16  1  0
 10  9  2  0
 12 11  1  0
 13 14  1  1
 13 12  1  0
 15 13  1  0
 15 16  1  6
 17 15  1  0
 18 17  2  0
 20 19  1  6
 20 21  1  0
 20 22  1  0
 22 23  1  6
 23 17  1  0
 24 22  1  0
 24 25  1  0
 26 24  2  0
M  END
$$$$
