HIT.pdb
     RDKit          3D

 26 26  0  0  1  0  0  0  0  0999 V2000
   13.1416  -15.0171   16.8048 N   0  0  0  0  0  0  0  0  0  0  0  0
   11.8815  -15.5467   17.2313 C   0  0  1  0  0  0  0  0  0  0  0  0
   11.9413  -17.0574   17.1364 C   0  0  0  0  0  0  0  0  0  0  0  0
   11.9530  -17.4289   15.6977 C   0  0  0  0  0  0  0  0  0  0  0  0
   11.9314  -16.6224   14.5837 C   0  0  0  0  0  0  0  0  0  0  0  0
   11.9534  -17.3695   13.4718 N   0  0  0  0  0  0  0  0  0  0  0  0
   11.9893  -18.6586   13.8569 C   0  0  0  0  0  0  0  0  0  0  0  0
   11.9892  -18.6994   15.2120 N   0  0  0  0  0  0  0  0  0  0  0  0
   11.5155  -15.0914   18.5887 C   0  0  0  0  0  0  0  0  0  0  0  0
   12.4795  -14.7447   19.3492 O   0  0  0  0  0  0  0  0  0  0  0  0
    7.5519  -11.5857   19.3400 C   0  0  0  0  0  0  0  0  0  0  0  0
    8.7775  -12.3656   19.5748 C   0  0  0  0  0  0  0  0  0  0  0  0
    8.6524  -13.6603   20.3209 C   0  0  2  0  0  0  0  0  0  0  0  0
    8.3293  -13.2436   21.7487 C   0  0  0  0  0  0  0  0  0  0  0  0
    9.9019  -14.5007   20.3565 C   0  0  2  0  0  0  0  0  0  0  0  0
   10.1881  -15.0397   19.0258 N   0  0  0  0  0  0  0  0  0  0  0  0
    9.5977  -15.7214   21.1716 C   0  0  0  0  0  0  0  0  0  0  0  0
    8.7913  -16.6064   20.6962 O   0  0  0  0  0  0  0  0  0  0  0  0
   10.0430  -18.3819   20.7828 C   0  0  0  0  0  0  0  0  0  0  0  0
   10.7674  -18.3661   22.1068 C   0  0  1  0  0  0  0  0  0  0  0  0
   12.1234  -18.2774   21.8682 O   0  0  0  0  0  0  0  0  0  0  0  0
   10.2520  -17.3102   23.0267 C   0  0  2  0  0  0  0  0  0  0  0  0
   10.1373  -15.9975   22.4516 N   0  0  0  0  0  0  0  0  0  0  0  0
   10.9269  -17.3214   24.3643 C   0  0  0  0  0  0  0  0  0  0  0  0
   10.8996  -18.4335   25.1640 O   0  0  0  0  0  0  0  0  0  0  0  0
   11.5400  -16.3104   24.7891 O   0  0  0  0  0  0  0  0  0  0  0  0
  2  1  1  1
  3  2  1  0
  4  3  1  0
  5  4  2  0
  6  5  1  0
  7  6  1  0
  7  8  2  0
  8  4  1  0
  9  2  1  0
  9 16  1  0
 10  9  2  0
 12 11  1  0
 13 14  1  1
 13 12  1  0
 15 13  1  0
 15 16  1  6
 17 15  1  0
 18 17  2  0
 20 19  1  6
 20 21  1  0
 20 22  1  0
 22 23  1  6
 23 17  1  0
 24 22  1  0
 24 25  1  0
 26 24  2  0
M  END
$$$$
