CQQ.pdb
     RDKit          3D

 25 24  0  0  1  0  0  0  0  0999 V2000
    7.8708  -13.7278   17.4352 N   0  0  0  0  0  0  0  0  0  0  0  0
    8.6132  -13.3172   18.5903 C   0  0  1  0  0  0  0  0  0  0  0  0
    7.6828  -13.2263   19.7770 C   0  0  0  0  0  0  0  0  0  0  0  0
    8.7222  -12.8096   21.2251 S   0  0  0  0  0  0  0  0  0  0  0  0
    9.7419  -14.2220   18.8160 C   0  0  0  0  0  0  0  0  0  0  0  0
    9.5072  -15.4794   18.7874 O   0  0  0  0  0  0  0  0  0  0  0  0
   15.3847  -13.6740   16.4562 N   0  0  0  0  0  0  0  0  0  0  0  0
   15.6454  -14.5907   17.5180 C   0  0  0  0  0  0  0  0  0  0  0  0
   16.8538  -14.9398   17.6534 O   0  0  0  0  0  0  0  0  0  0  0  0
   14.5364  -15.0407   18.3506 C   0  0  0  0  0  0  0  0  0  0  0  0
   13.2855  -14.2866   18.3516 C   0  0  0  0  0  0  0  0  0  0  0  0
   12.1594  -14.6395   19.2358 C   0  0  2  0  0  0  0  0  0  0  0  0
   11.0359  -13.7165   19.0550 N   0  0  0  0  0  0  0  0  0  0  0  0
   12.4970  -14.6548   20.6547 C   0  0  0  0  0  0  0  0  0  0  0  0
   12.6133  -13.5776   21.3401 O   0  0  0  0  0  0  0  0  0  0  0  0
   11.0166  -19.3807   24.1982 N   0  0  0  0  0  0  0  0  0  0  0  0
   11.7616  -18.6486   25.1607 C   0  0  0  0  0  0  0  0  0  0  0  0
   11.8340  -19.0696   26.3651 O   0  0  0  0  0  0  0  0  0  0  0  0
   12.4442  -17.4186   24.7537 C   0  0  0  0  0  0  0  0  0  0  0  0
   12.2672  -17.0778   23.3136 C   0  0  0  0  0  0  0  0  0  0  0  0
   13.0607  -15.9203   22.7920 C   0  0  2  0  0  0  0  0  0  0  0  0
   12.7172  -15.8418   21.3649 N   0  0  0  0  0  0  0  0  0  0  0  0
   14.4727  -15.8615   23.0414 C   0  0  0  0  0  0  0  0  0  0  0  0
   15.4160  -16.2914   22.1250 O   0  0  0  0  0  0  0  0  0  0  0  0
   14.9286  -15.4108   24.1392 O   0  0  0  0  0  0  0  0  0  0  0  0
  2  1  1  6
  3  4  1  0
  3  2  1  0
  5  2  1  0
  5  6  2  0
  7  8  1  0
  8 10  1  0
  9  8  2  0
 10 11  1  0
 12 11  1  6
 12 13  1  0
 13  5  1  0
 14 12  1  0
 15 14  2  0
 16 17  1  0
 17 19  1  0
 18 17  2  0
 20 19  1  0
 21 20  1  6
 21 22  1  0
 21 23  1  0
 22 14  1  0
 23 24  1  0
 25 23  2  0
M  END
$$$$
