CQQ.pdb
     RDKit          3D

 25 24  0  0  1  0  0  0  0  0999 V2000
    8.1929  -14.8634   17.8266 N   0  0  0  0  0  0  0  0  0  0  0  0
    9.2520  -14.1019   18.4205 C   0  0  1  0  0  0  0  0  0  0  0  0
    8.7200  -13.3576   19.6227 C   0  0  0  0  0  0  0  0  0  0  0  0
    7.4545  -12.1919   18.9974 S   0  0  0  0  0  0  0  0  0  0  0  0
   10.3845  -14.9725   18.7415 C   0  0  0  0  0  0  0  0  0  0  0  0
   10.1288  -16.1900   19.0403 O   0  0  0  0  0  0  0  0  0  0  0  0
   16.0530  -13.7099   16.1534 N   0  0  0  0  0  0  0  0  0  0  0  0
   15.8730  -13.6021   17.5647 C   0  0  0  0  0  0  0  0  0  0  0  0
   16.9217  -13.3680   18.2323 O   0  0  0  0  0  0  0  0  0  0  0  0
   14.5337  -13.7571   18.1196 C   0  0  0  0  0  0  0  0  0  0  0  0
   14.0307  -15.0945   18.4219 C   0  0  0  0  0  0  0  0  0  0  0  0
   12.8049  -15.3097   19.2129 C   0  0  2  0  0  0  0  0  0  0  0  0
   11.7044  -14.4780   18.7193 N   0  0  0  0  0  0  0  0  0  0  0  0
   12.9597  -15.0405   20.6381 C   0  0  0  0  0  0  0  0  0  0  0  0
   12.6184  -13.9213   21.1622 O   0  0  0  0  0  0  0  0  0  0  0  0
    8.7640  -15.8353   22.5606 N   0  0  0  0  0  0  0  0  0  0  0  0
    9.2563  -16.3469   23.7907 C   0  0  0  0  0  0  0  0  0  0  0  0
    8.4546  -16.5396   24.7670 O   0  0  0  0  0  0  0  0  0  0  0  0
   10.6825  -16.6531   23.9195 C   0  0  0  0  0  0  0  0  0  0  0  0
   11.4832  -16.3228   22.7067 C   0  0  0  0  0  0  0  0  0  0  0  0
   12.9690  -16.2540   22.8774 C   0  0  2  0  0  0  0  0  0  0  0  0
   13.4899  -15.9812   21.5302 N   0  0  0  0  0  0  0  0  0  0  0  0
   13.6539  -17.3230   23.5466 C   0  0  0  0  0  0  0  0  0  0  0  0
   14.2619  -17.1698   24.7800 O   0  0  0  0  0  0  0  0  0  0  0  0
   13.7414  -18.4780   23.0228 O   0  0  0  0  0  0  0  0  0  0  0  0
  2  1  1  1
  3  4  1  0
  3  2  1  0
  5  2  1  0
  5  6  2  0
  7  8  1  0
  8 10  1  0
  9  8  2  0
 10 11  1  0
 12 11  1  6
 12 13  1  0
 13  5  1  0
 14 12  1  0
 15 14  2  0
 16 17  1  0
 17 19  1  0
 18 17  2  0
 20 19  1  0
 21 20  1  6
 21 22  1  0
 21 23  1  0
 22 14  1  0
 23 24  1  0
 25 23  2  0
M  END
$$$$
