CQQ.pdb
     RDKit          3D

 25 24  0  0  1  0  0  0  0  0999 V2000
    6.7123  -19.0295   21.3015 N   0  0  0  0  0  0  0  0  0  0  0  0
    7.8976  -19.5066   20.6520 C   0  0  1  0  0  0  0  0  0  0  0  0
    7.5171  -20.2123   19.3716 C   0  0  0  0  0  0  0  0  0  0  0  0
    9.0478  -20.9781   18.7224 S   0  0  0  0  0  0  0  0  0  0  0  0
    8.8386  -18.4051   20.4406 C   0  0  0  0  0  0  0  0  0  0  0  0
   10.0280  -18.7045   20.0765 O   0  0  0  0  0  0  0  0  0  0  0  0
    7.4657  -12.2735   19.2934 N   0  0  0  0  0  0  0  0  0  0  0  0
    7.4769  -13.3426   18.3486 C   0  0  0  0  0  0  0  0  0  0  0  0
    6.8939  -13.1070   17.2509 O   0  0  0  0  0  0  0  0  0  0  0  0
    8.1451  -14.5895   18.7012 C   0  0  0  0  0  0  0  0  0  0  0  0
    8.7374  -14.7380   20.0279 C   0  0  0  0  0  0  0  0  0  0  0  0
    9.4065  -15.9818   20.4518 C   0  0  2  0  0  0  0  0  0  0  0  0
    8.4391  -17.0670   20.6338 N   0  0  0  0  0  0  0  0  0  0  0  0
   10.1705  -15.8568   21.6880 C   0  0  0  0  0  0  0  0  0  0  0  0
    9.6072  -15.6426   22.8197 O   0  0  0  0  0  0  0  0  0  0  0  0
   10.5986  -19.0297   25.3540 N   0  0  0  0  0  0  0  0  0  0  0  0
   11.8182  -18.4769   25.8278 C   0  0  0  0  0  0  0  0  0  0  0  0
   12.3247  -18.8963   26.9235 O   0  0  0  0  0  0  0  0  0  0  0  0
   12.4832  -17.4330   25.0451 C   0  0  0  0  0  0  0  0  0  0  0  0
   11.7708  -17.0762   23.7855 C   0  0  0  0  0  0  0  0  0  0  0  0
   12.3782  -15.9918   22.9510 C   0  0  2  0  0  0  0  0  0  0  0  0
   11.5668  -15.9613   21.7257 N   0  0  0  0  0  0  0  0  0  0  0  0
   13.7908  -16.0018   22.6979 C   0  0  0  0  0  0  0  0  0  0  0  0
   14.3260  -16.1579   21.4316 O   0  0  0  0  0  0  0  0  0  0  0  0
   14.6296  -15.8733   23.6444 O   0  0  0  0  0  0  0  0  0  0  0  0
  2  1  1  6
  3  4  1  0
  3  2  1  0
  5  2  1  0
  5  6  2  0
  7  8  1  0
  8 10  1  0
  9  8  2  0
 10 11  1  0
 12 11  1  1
 12 13  1  0
 13  5  1  0
 14 12  1  0
 15 14  2  0
 16 17  1  0
 17 19  1  0
 18 17  2  0
 20 19  1  0
 21 20  1  6
 21 22  1  0
 21 23  1  0
 22 14  1  0
 23 24  1  0
 25 23  2  0
M  END
$$$$
