CQQ.pdb
     RDKit          3D

 25 24  0  0  1  0  0  0  0  0999 V2000
    6.3739  -16.5998   26.1033 N   0  0  0  0  0  0  0  0  0  0  0  0
    7.0973  -15.5625   25.4288 C   0  0  1  0  0  0  0  0  0  0  0  0
    8.3393  -15.2232   26.2190 C   0  0  0  0  0  0  0  0  0  0  0  0
    8.7951  -13.5093   25.7653 S   0  0  0  0  0  0  0  0  0  0  0  0
    7.3871  -15.9603   24.0499 C   0  0  0  0  0  0  0  0  0  0  0  0
    7.2835  -17.2017   23.7579 O   0  0  0  0  0  0  0  0  0  0  0  0
    8.5457  -11.9023   19.0911 N   0  0  0  0  0  0  0  0  0  0  0  0
    8.0446  -13.1174   18.5359 C   0  0  0  0  0  0  0  0  0  0  0  0
    7.6257  -13.0412   17.3446 O   0  0  0  0  0  0  0  0  0  0  0  0
    8.0572  -14.3250   19.3527 C   0  0  0  0  0  0  0  0  0  0  0  0
    7.8289  -14.2225   20.7916 C   0  0  0  0  0  0  0  0  0  0  0  0
    7.9053  -15.3956   21.6819 C   0  0  2  0  0  0  0  0  0  0  0  0
    7.7656  -15.0032   23.0867 N   0  0  0  0  0  0  0  0  0  0  0  0
    9.1407  -16.1607   21.5559 C   0  0  0  0  0  0  0  0  0  0  0  0
    9.4847  -16.7253   20.4574 O   0  0  0  0  0  0  0  0  0  0  0  0
   13.3980  -13.7906   19.8695 N   0  0  0  0  0  0  0  0  0  0  0  0
   13.9134  -15.1034   20.0374 C   0  0  0  0  0  0  0  0  0  0  0  0
   14.7666  -15.5641   19.2050 O   0  0  0  0  0  0  0  0  0  0  0  0
   13.4608  -15.9109   21.1721 C   0  0  0  0  0  0  0  0  0  0  0  0
   11.9927  -15.8374   21.4183 C   0  0  0  0  0  0  0  0  0  0  0  0
   11.4423  -16.7309   22.4860 C   0  0  2  0  0  0  0  0  0  0  0  0
   10.0341  -16.3318   22.6211 N   0  0  0  0  0  0  0  0  0  0  0  0
   12.1271  -16.8356   23.7428 C   0  0  0  0  0  0  0  0  0  0  0  0
   13.0907  -17.7957   23.9956 O   0  0  0  0  0  0  0  0  0  0  0  0
   11.8685  -16.0411   24.7010 O   0  0  0  0  0  0  0  0  0  0  0  0
  2  1  1  1
  3  4  1  0
  3  2  1  0
  5  2  1  0
  5  6  2  0
  7  8  1  0
  8 10  1  0
  9  8  2  0
 10 11  1  0
 12 11  1  6
 12 13  1  0
 13  5  1  0
 14 12  1  0
 15 14  2  0
 16 17  1  0
 17 19  1  0
 18 17  2  0
 20 19  1  0
 21 20  1  6
 21 22  1  0
 21 23  1  0
 22 14  1  0
 23 24  1  0
 25 23  2  0
M  END
$$$$
