CQQ.pdb
     RDKit          3D

 25 24  0  0  1  0  0  0  0  0999 V2000
    7.1912  -14.2575   18.1104 N   0  0  0  0  0  0  0  0  0  0  0  0
    8.2906  -13.5123   18.6493 C   0  0  1  0  0  0  0  0  0  0  0  0
    7.7751  -12.5327   19.6774 C   0  0  0  0  0  0  0  0  0  0  0  0
    7.1584  -13.5282   21.0844 S   0  0  0  0  0  0  0  0  0  0  0  0
    9.3061  -14.4215   19.1838 C   0  0  0  0  0  0  0  0  0  0  0  0
    8.9493  -15.6236   19.4381 O   0  0  0  0  0  0  0  0  0  0  0  0
   15.6060  -13.6481   18.7513 N   0  0  0  0  0  0  0  0  0  0  0  0
   15.4863  -14.8457   19.5175 C   0  0  0  0  0  0  0  0  0  0  0  0
   16.5772  -15.4034   19.8325 O   0  0  0  0  0  0  0  0  0  0  0  0
   14.1568  -15.3232   19.8782 C   0  0  0  0  0  0  0  0  0  0  0  0
   12.9862  -14.5211   19.5327 C   0  0  0  0  0  0  0  0  0  0  0  0
   11.6245  -14.9028   19.9507 C   0  0  2  0  0  0  0  0  0  0  0  0
   10.6259  -13.9790   19.4066 N   0  0  0  0  0  0  0  0  0  0  0  0
   11.4374  -14.9571   21.3962 C   0  0  0  0  0  0  0  0  0  0  0  0
   11.1936  -13.9087   22.0926 O   0  0  0  0  0  0  0  0  0  0  0  0
    7.5305  -14.4546   24.4318 N   0  0  0  0  0  0  0  0  0  0  0  0
    7.4946  -15.6854   23.7237 C   0  0  0  0  0  0  0  0  0  0  0  0
    6.3713  -16.2231   23.4373 O   0  0  0  0  0  0  0  0  0  0  0  0
    8.7531  -16.3195   23.3254 C   0  0  0  0  0  0  0  0  0  0  0  0
    9.9687  -15.6065   23.8103 C   0  0  0  0  0  0  0  0  0  0  0  0
   11.2852  -16.2772   23.5691 C   0  0  2  0  0  0  0  0  0  0  0  0
   11.5109  -16.1529   22.1220 N   0  0  0  0  0  0  0  0  0  0  0  0
   11.5038  -17.6053   24.0670 C   0  0  0  0  0  0  0  0  0  0  0  0
   11.8149  -18.6740   23.2451 O   0  0  0  0  0  0  0  0  0  0  0  0
   11.4117  -17.8662   25.3078 O   0  0  0  0  0  0  0  0  0  0  0  0
  2  1  1  1
  3  4  1  0
  3  2  1  0
  5  2  1  0
  5  6  2  0
  7  8  1  0
  8 10  1  0
  9  8  2  0
 10 11  1  0
 12 11  1  1
 12 13  1  0
 13  5  1  0
 14 12  1  0
 15 14  2  0
 16 17  1  0
 17 19  1  0
 18 17  2  0
 20 19  1  0
 21 20  1  6
 21 22  1  0
 21 23  1  0
 22 14  1  0
 23 24  1  0
 25 23  2  0
M  END
$$$$
