CQQ.pdb
     RDKit          3D

 25 24  0  0  1  0  0  0  0  0999 V2000
    7.2317  -14.2898   18.3993 N   0  0  0  0  0  0  0  0  0  0  0  0
    8.1663  -13.9411   19.4283 C   0  0  1  0  0  0  0  0  0  0  0  0
    7.6842  -12.7005   20.1429 C   0  0  0  0  0  0  0  0  0  0  0  0
    8.9080  -12.3459   21.4574 S   0  0  0  0  0  0  0  0  0  0  0  0
    8.3753  -15.0760   20.3295 C   0  0  0  0  0  0  0  0  0  0  0  0
    7.3439  -15.7391   20.6950 O   0  0  0  0  0  0  0  0  0  0  0  0
   12.0364  -19.6721   19.5294 N   0  0  0  0  0  0  0  0  0  0  0  0
   11.6594  -19.9320   20.8807 C   0  0  0  0  0  0  0  0  0  0  0  0
   11.9778  -21.0723   21.3264 O   0  0  0  0  0  0  0  0  0  0  0  0
   10.9621  -18.8946   21.6312 C   0  0  0  0  0  0  0  0  0  0  0  0
   10.6689  -17.6161   20.9890 C   0  0  0  0  0  0  0  0  0  0  0  0
    9.8596  -16.5754   21.6498 C   0  0  2  0  0  0  0  0  0  0  0  0
    9.6692  -15.4174   20.7726 N   0  0  0  0  0  0  0  0  0  0  0  0
   10.4201  -16.0925   22.9068 C   0  0  0  0  0  0  0  0  0  0  0  0
   11.4231  -15.2949   22.9450 O   0  0  0  0  0  0  0  0  0  0  0  0
    7.5264  -13.4631   27.1164 N   0  0  0  0  0  0  0  0  0  0  0  0
    8.7004  -13.6705   27.8886 C   0  0  0  0  0  0  0  0  0  0  0  0
    8.8199  -13.1079   29.0298 O   0  0  0  0  0  0  0  0  0  0  0  0
    9.7589  -14.5359   27.3643 C   0  0  0  0  0  0  0  0  0  0  0  0
    9.4797  -15.0748   26.0031 C   0  0  0  0  0  0  0  0  0  0  0  0
   10.4630  -16.0608   25.4533 C   0  0  2  0  0  0  0  0  0  0  0  0
    9.9045  -16.4644   24.1549 N   0  0  0  0  0  0  0  0  0  0  0  0
   10.8800  -17.1699   26.2628 C   0  0  0  0  0  0  0  0  0  0  0  0
   11.9446  -17.0988   27.1437 O   0  0  0  0  0  0  0  0  0  0  0  0
   10.2840  -18.2910   26.2000 O   0  0  0  0  0  0  0  0  0  0  0  0
  2  1  1  6
  3  4  1  0
  3  2  1  0
  5  2  1  0
  5  6  2  0
  7  8  1  0
  8 10  1  0
  9  8  2  0
 10 11  1  0
 12 11  1  6
 12 13  1  0
 13  5  1  0
 14 12  1  0
 15 14  2  0
 16 17  1  0
 17 19  1  0
 18 17  2  0
 20 19  1  0
 21 20  1  1
 21 22  1  0
 21 23  1  0
 22 14  1  0
 23 24  1  0
 25 23  2  0
M  END
$$$$
