CQQ.pdb
     RDKit          3D

 25 24  0  0  1  0  0  0  0  0999 V2000
    5.8027  -18.7891   24.7729 N   0  0  0  0  0  0  0  0  0  0  0  0
    6.1763  -17.4061   24.7294 C   0  0  1  0  0  0  0  0  0  0  0  0
    6.6170  -16.9633   26.1048 C   0  0  0  0  0  0  0  0  0  0  0  0
    6.5099  -15.1359   26.1247 S   0  0  0  0  0  0  0  0  0  0  0  0
    7.1978  -17.1886   23.7034 C   0  0  0  0  0  0  0  0  0  0  0  0
    7.8222  -18.2148   23.2631 O   0  0  0  0  0  0  0  0  0  0  0  0
    7.0914  -12.6056   19.4419 N   0  0  0  0  0  0  0  0  0  0  0  0
    8.3626  -13.2000   19.1843 C   0  0  0  0  0  0  0  0  0  0  0  0
    8.9812  -12.7504   18.1765 O   0  0  0  0  0  0  0  0  0  0  0  0
    8.8471  -14.2457   20.0772 C   0  0  0  0  0  0  0  0  0  0  0  0
    8.0699  -14.5962   21.2630 C   0  0  0  0  0  0  0  0  0  0  0  0
    8.4601  -15.7030   22.1559 C   0  0  2  0  0  0  0  0  0  0  0  0
    7.4758  -15.8921   23.2247 N   0  0  0  0  0  0  0  0  0  0  0  0
    9.7667  -15.5327   22.7812 C   0  0  0  0  0  0  0  0  0  0  0  0
   10.8301  -15.3272   22.0951 O   0  0  0  0  0  0  0  0  0  0  0  0
   10.1880  -15.1169   28.9572 N   0  0  0  0  0  0  0  0  0  0  0  0
    9.6202  -14.1754   28.0580 C   0  0  0  0  0  0  0  0  0  0  0  0
    8.8168  -13.2824   28.4941 O   0  0  0  0  0  0  0  0  0  0  0  0
    9.9715  -14.2393   26.6378 C   0  0  0  0  0  0  0  0  0  0  0  0
   10.9174  -15.3400   26.2986 C   0  0  0  0  0  0  0  0  0  0  0  0
   11.2520  -15.5194   24.8504 C   0  0  2  0  0  0  0  0  0  0  0  0
    9.9511  -15.5817   24.1689 N   0  0  0  0  0  0  0  0  0  0  0  0
   12.1511  -16.5665   24.4570 C   0  0  0  0  0  0  0  0  0  0  0  0
   13.4805  -16.5982   24.8391 O   0  0  0  0  0  0  0  0  0  0  0  0
   11.7613  -17.5256   23.7192 O   0  0  0  0  0  0  0  0  0  0  0  0
  2  1  1  1
  3  4  1  0
  3  2  1  0
  5  2  1  0
  5  6  2  0
  7  8  1  0
  8 10  1  0
  9  8  2  0
 10 11  1  0
 12 11  1  1
 12 13  1  0
 13  5  1  0
 14 12  1  0
 15 14  2  0
 16 17  1  0
 17 19  1  0
 18 17  2  0
 20 19  1  0
 21 20  1  1
 21 22  1  0
 21 23  1  0
 22 14  1  0
 23 24  1  0
 25 23  2  0
M  END
$$$$
