CQQ.pdb
     RDKit          3D

 25 24  0  0  1  0  0  0  0  0999 V2000
    7.8959  -14.4130   18.1875 N   0  0  0  0  0  0  0  0  0  0  0  0
    9.0492  -13.8226   18.8004 C   0  0  1  0  0  0  0  0  0  0  0  0
    8.6228  -13.0438   20.0227 C   0  0  0  0  0  0  0  0  0  0  0  0
    7.5561  -11.6803   19.4275 S   0  0  0  0  0  0  0  0  0  0  0  0
   10.0485  -14.8508   19.0967 C   0  0  0  0  0  0  0  0  0  0  0  0
    9.6380  -15.9386   19.6307 O   0  0  0  0  0  0  0  0  0  0  0  0
   12.7056  -15.6362   14.4232 N   0  0  0  0  0  0  0  0  0  0  0  0
   13.5939  -15.8211   15.5243 C   0  0  0  0  0  0  0  0  0  0  0  0
   14.7833  -15.4327   15.3373 O   0  0  0  0  0  0  0  0  0  0  0  0
   13.0823  -16.4193   16.7516 C   0  0  0  0  0  0  0  0  0  0  0  0
   13.3972  -15.8031   18.0377 C   0  0  0  0  0  0  0  0  0  0  0  0
   12.3955  -15.6793   19.1127 C   0  0  2  0  0  0  0  0  0  0  0  0
   11.4106  -14.6403   18.8006 N   0  0  0  0  0  0  0  0  0  0  0  0
   12.9606  -15.3756   20.4226 C   0  0  0  0  0  0  0  0  0  0  0  0
   13.2680  -14.1813   20.7731 O   0  0  0  0  0  0  0  0  0  0  0  0
   11.7111  -18.8380   25.2766 N   0  0  0  0  0  0  0  0  0  0  0  0
   12.7637  -18.0872   25.8644 C   0  0  0  0  0  0  0  0  0  0  0  0
   13.0364  -18.2347   27.1041 O   0  0  0  0  0  0  0  0  0  0  0  0
   13.5287  -17.1547   25.0339 C   0  0  0  0  0  0  0  0  0  0  0  0
   13.1049  -17.1308   23.6053 C   0  0  0  0  0  0  0  0  0  0  0  0
   13.7647  -16.1173   22.7228 C   0  0  2  0  0  0  0  0  0  0  0  0
   13.2062  -16.3628   21.3855 N   0  0  0  0  0  0  0  0  0  0  0  0
   15.1949  -15.9986   22.7290 C   0  0  0  0  0  0  0  0  0  0  0  0
   16.0200  -16.8181   21.9794 O   0  0  0  0  0  0  0  0  0  0  0  0
   15.7794  -15.1242   23.4432 O   0  0  0  0  0  0  0  0  0  0  0  0
  2  1  1  1
  3  4  1  0
  3  2  1  0
  5  2  1  0
  5  6  2  0
  7  8  1  0
  8 10  1  0
  9  8  2  0
 10 11  1  0
 12 11  1  6
 12 13  1  0
 13  5  1  0
 14 12  1  0
 15 14  2  0
 16 17  1  0
 17 19  1  0
 18 17  2  0
 20 19  1  0
 21 20  1  1
 21 22  1  0
 21 23  1  0
 22 14  1  0
 23 24  1  0
 25 23  2  0
M  END
$$$$
