CQQ.pdb
     RDKit          3D

 25 24  0  0  1  0  0  0  0  0999 V2000
    7.4868  -14.7983   18.9879 N   0  0  0  0  0  0  0  0  0  0  0  0
    8.2234  -14.3167   20.1191 C   0  0  1  0  0  0  0  0  0  0  0  0
    7.6825  -12.9677   20.5311 C   0  0  0  0  0  0  0  0  0  0  0  0
    8.0951  -11.8044   19.1792 S   0  0  0  0  0  0  0  0  0  0  0  0
    8.1910  -15.3014   21.2021 C   0  0  0  0  0  0  0  0  0  0  0  0
    7.0700  -15.8621   21.4588 O   0  0  0  0  0  0  0  0  0  0  0  0
   10.8913  -20.0186   19.9996 N   0  0  0  0  0  0  0  0  0  0  0  0
   11.4408  -19.2834   21.0919 C   0  0  0  0  0  0  0  0  0  0  0  0
   12.4206  -19.8279   21.6784 O   0  0  0  0  0  0  0  0  0  0  0  0
   10.8570  -17.9934   21.4396 C   0  0  0  0  0  0  0  0  0  0  0  0
    9.8459  -17.9213   22.4911 C   0  0  0  0  0  0  0  0  0  0  0  0
    9.3135  -16.6354   22.9784 C   0  0  2  0  0  0  0  0  0  0  0  0
    9.3576  -15.6133   21.9295 N   0  0  0  0  0  0  0  0  0  0  0  0
   10.0106  -16.1046   24.1445 C   0  0  0  0  0  0  0  0  0  0  0  0
   10.8468  -15.1366   24.0577 O   0  0  0  0  0  0  0  0  0  0  0  0
    7.2719  -12.5639   25.7607 N   0  0  0  0  0  0  0  0  0  0  0  0
    7.7835  -13.0957   26.9743 C   0  0  0  0  0  0  0  0  0  0  0  0
    7.8016  -12.3738   28.0286 O   0  0  0  0  0  0  0  0  0  0  0  0
    8.2794  -14.4733   26.9998 C   0  0  0  0  0  0  0  0  0  0  0  0
    9.7225  -14.6023   26.6503 C   0  0  0  0  0  0  0  0  0  0  0  0
   10.3009  -15.9830   26.6720 C   0  0  2  0  0  0  0  0  0  0  0  0
    9.8167  -16.6129   25.4353 N   0  0  0  0  0  0  0  0  0  0  0  0
   10.1256  -16.8048   27.8354 C   0  0  0  0  0  0  0  0  0  0  0  0
   10.6670  -16.4868   29.0683 O   0  0  0  0  0  0  0  0  0  0  0  0
    9.4593  -17.8862   27.7826 O   0  0  0  0  0  0  0  0  0  0  0  0
  2  1  1  6
  3  4  1  0
  3  2  1  0
  5  2  1  0
  5  6  2  0
  7  8  1  0
  8 10  1  0
  9  8  2  0
 10 11  1  0
 12 11  1  6
 12 13  1  0
 13  5  1  0
 14 12  1  0
 15 14  2  0
 16 17  1  0
 17 19  1  0
 18 17  2  0
 20 19  1  0
 21 20  1  1
 21 22  1  0
 21 23  1  0
 22 14  1  0
 23 24  1  0
 25 23  2  0
M  END
$$$$
