CQQ.pdb
     RDKit          3D

 25 24  0  0  1  0  0  0  0  0999 V2000
    7.9916  -14.7959   17.7094 N   0  0  0  0  0  0  0  0  0  0  0  0
    8.4054  -14.1600   18.9254 C   0  0  1  0  0  0  0  0  0  0  0  0
    7.7019  -12.8298   19.0590 C   0  0  0  0  0  0  0  0  0  0  0  0
    8.1777  -12.1487   20.6902 S   0  0  0  0  0  0  0  0  0  0  0  0
    8.1732  -15.0474   20.0665 C   0  0  0  0  0  0  0  0  0  0  0  0
    7.1881  -15.8605   19.9930 O   0  0  0  0  0  0  0  0  0  0  0  0
    9.3801  -20.0581   21.0827 N   0  0  0  0  0  0  0  0  0  0  0  0
   10.5407  -19.2618   21.3161 C   0  0  0  0  0  0  0  0  0  0  0  0
   11.6485  -19.8466   21.1393 O   0  0  0  0  0  0  0  0  0  0  0  0
   10.3732  -17.8715   21.7221 C   0  0  0  0  0  0  0  0  0  0  0  0
    9.0279  -17.3266   21.8840 C   0  0  0  0  0  0  0  0  0  0  0  0
    8.7932  -15.9338   22.3081 C   0  0  2  0  0  0  0  0  0  0  0  0
    9.0100  -15.0001   21.2000 N   0  0  0  0  0  0  0  0  0  0  0  0
    9.6283  -15.5009   23.4228 C   0  0  0  0  0  0  0  0  0  0  0  0
   10.4922  -14.5612   23.3036 O   0  0  0  0  0  0  0  0  0  0  0  0
    5.9967  -12.8474   25.3722 N   0  0  0  0  0  0  0  0  0  0  0  0
    6.6479  -12.7487   26.6306 C   0  0  0  0  0  0  0  0  0  0  0  0
    6.2008  -11.9453   27.5181 O   0  0  0  0  0  0  0  0  0  0  0  0
    7.8249  -13.5789   26.8950 C   0  0  0  0  0  0  0  0  0  0  0  0
    8.2222  -14.4459   25.7497 C   0  0  0  0  0  0  0  0  0  0  0  0
    9.4115  -15.3317   25.9550 C   0  0  2  0  0  0  0  0  0  0  0  0
    9.5456  -16.0787   24.6961 N   0  0  0  0  0  0  0  0  0  0  0  0
    9.4792  -16.1653   27.1212 C   0  0  0  0  0  0  0  0  0  0  0  0
   10.0553  -15.7504   28.3088 O   0  0  0  0  0  0  0  0  0  0  0  0
    9.0115  -17.3474   27.1129 O   0  0  0  0  0  0  0  0  0  0  0  0
  2  1  1  6
  3  4  1  0
  3  2  1  0
  5  2  1  0
  5  6  2  0
  7  8  1  0
  8 10  1  0
  9  8  2  0
 10 11  1  0
 12 11  1  6
 12 13  1  0
 13  5  1  0
 14 12  1  0
 15 14  2  0
 16 17  1  0
 17 19  1  0
 18 17  2  0
 20 19  1  0
 21 20  1  6
 21 22  1  0
 21 23  1  0
 22 14  1  0
 23 24  1  0
 25 23  2  0
M  END
$$$$
