CQQ.pdb
     RDKit          3D

 25 24  0  0  1  0  0  0  0  0999 V2000
    3.8964  -20.0070   20.5643 N   0  0  0  0  0  0  0  0  0  0  0  0
    4.0668  -18.8356   21.3723 C   0  0  1  0  0  0  0  0  0  0  0  0
    3.7743  -19.1758   22.8149 C   0  0  0  0  0  0  0  0  0  0  0  0
    1.9788  -18.9158   23.0592 S   0  0  0  0  0  0  0  0  0  0  0  0
    5.4049  -18.2745   21.1765 C   0  0  0  0  0  0  0  0  0  0  0  0
    6.3816  -19.0949   21.0757 O   0  0  0  0  0  0  0  0  0  0  0  0
    6.8296  -12.3919   19.1458 N   0  0  0  0  0  0  0  0  0  0  0  0
    8.1042  -12.9785   19.4049 C   0  0  0  0  0  0  0  0  0  0  0  0
    9.1013  -12.3295   18.9750 O   0  0  0  0  0  0  0  0  0  0  0  0
    8.1658  -14.2416   20.1306 C   0  0  0  0  0  0  0  0  0  0  0  0
    6.9519  -15.0371   20.2942 C   0  0  0  0  0  0  0  0  0  0  0  0
    6.9555  -16.3365   20.9914 C   0  0  2  0  0  0  0  0  0  0  0  0
    5.5996  -16.8803   21.1031 N   0  0  0  0  0  0  0  0  0  0  0  0
    7.5277  -16.2925   22.3323 C   0  0  0  0  0  0  0  0  0  0  0  0
    6.9739  -15.6440   23.2896 O   0  0  0  0  0  0  0  0  0  0  0  0
    9.8557  -20.8117   25.2788 N   0  0  0  0  0  0  0  0  0  0  0  0
    8.5515  -20.2522   25.3376 C   0  0  0  0  0  0  0  0  0  0  0  0
    7.5752  -20.9560   25.7671 O   0  0  0  0  0  0  0  0  0  0  0  0
    8.3462  -18.8674   24.9082 C   0  0  0  0  0  0  0  0  0  0  0  0
    9.5938  -18.1793   24.4707 C   0  0  0  0  0  0  0  0  0  0  0  0
    9.4449  -16.7898   23.9336 C   0  0  2  0  0  0  0  0  0  0  0  0
    8.7170  -16.9524   22.6670 N   0  0  0  0  0  0  0  0  0  0  0  0
   10.6015  -15.9477   23.8211 C   0  0  0  0  0  0  0  0  0  0  0  0
   11.1248  -15.5487   22.6040 O   0  0  0  0  0  0  0  0  0  0  0  0
   11.2135  -15.5292   24.8539 O   0  0  0  0  0  0  0  0  0  0  0  0
  2  1  1  6
  3  4  1  0
  3  2  1  0
  5  2  1  0
  5  6  2  0
  7  8  1  0
  8 10  1  0
  9  8  2  0
 10 11  1  0
 12 11  1  1
 12 13  1  0
 13  5  1  0
 14 12  1  0
 15 14  2  0
 16 17  1  0
 17 19  1  0
 18 17  2  0
 20 19  1  0
 21 20  1  6
 21 22  1  0
 21 23  1  0
 22 14  1  0
 23 24  1  0
 25 23  2  0
M  END
$$$$
