CQQ.pdb
     RDKit          3D

 25 24  0  0  1  0  0  0  0  0999 V2000
    7.2714  -14.7455   19.2430 N   0  0  0  0  0  0  0  0  0  0  0  0
    8.4339  -14.4258   20.0179 C   0  0  1  0  0  0  0  0  0  0  0  0
    8.2323  -13.0906   20.6952 C   0  0  0  0  0  0  0  0  0  0  0  0
    8.2628  -11.8244   19.3736 S   0  0  0  0  0  0  0  0  0  0  0  0
    8.7286  -15.5069   20.9601 C   0  0  0  0  0  0  0  0  0  0  0  0
    7.7366  -16.1073   21.5009 O   0  0  0  0  0  0  0  0  0  0  0  0
    9.9324  -20.6839   20.5237 N   0  0  0  0  0  0  0  0  0  0  0  0
   10.8263  -20.6358   21.6347 C   0  0  0  0  0  0  0  0  0  0  0  0
   11.0760  -21.7483   22.1829 O   0  0  0  0  0  0  0  0  0  0  0  0
   11.3775  -19.3491   22.0424 C   0  0  0  0  0  0  0  0  0  0  0  0
   10.9207  -18.1291   21.3821 C   0  0  0  0  0  0  0  0  0  0  0  0
   10.3324  -17.0052   22.1339 C   0  0  2  0  0  0  0  0  0  0  0  0
   10.0598  -15.8657   21.2541 N   0  0  0  0  0  0  0  0  0  0  0  0
   11.1595  -16.5268   23.2359 C   0  0  0  0  0  0  0  0  0  0  0  0
   12.3032  -15.9803   23.0436 O   0  0  0  0  0  0  0  0  0  0  0  0
   10.1096  -12.8850   27.7095 N   0  0  0  0  0  0  0  0  0  0  0  0
    9.3793  -14.0897   27.8904 C   0  0  0  0  0  0  0  0  0  0  0  0
    8.3404  -14.0994   28.6344 O   0  0  0  0  0  0  0  0  0  0  0  0
    9.8278  -15.3078   27.2124 C   0  0  0  0  0  0  0  0  0  0  0  0
   11.0288  -15.1127   26.3518 C   0  0  0  0  0  0  0  0  0  0  0  0
   11.6223  -16.3404   25.7336 C   0  0  2  0  0  0  0  0  0  0  0  0
   10.7644  -16.6304   24.5758 N   0  0  0  0  0  0  0  0  0  0  0  0
   11.8804  -17.4902   26.5527 C   0  0  0  0  0  0  0  0  0  0  0  0
   11.1394  -18.6555   26.4666 O   0  0  0  0  0  0  0  0  0  0  0  0
   12.8137  -17.4868   27.4159 O   0  0  0  0  0  0  0  0  0  0  0  0
  2  1  1  1
  3  4  1  0
  3  2  1  0
  5  2  1  0
  5  6  2  0
  7  8  1  0
  8 10  1  0
  9  8  2  0
 10 11  1  0
 12 11  1  6
 12 13  1  0
 13  5  1  0
 14 12  1  0
 15 14  2  0
 16 17  1  0
 17 19  1  0
 18 17  2  0
 20 19  1  0
 21 20  1  1
 21 22  1  0
 21 23  1  0
 22 14  1  0
 23 24  1  0
 25 23  2  0
M  END
$$$$
