CQQ.pdb
     RDKit          3D

 25 24  0  0  1  0  0  0  0  0999 V2000
    5.4084  -13.8726   26.7975 N   0  0  0  0  0  0  0  0  0  0  0  0
    6.3169  -13.1567   25.9511 C   0  0  1  0  0  0  0  0  0  0  0  0
    7.3885  -12.5125   26.7989 C   0  0  0  0  0  0  0  0  0  0  0  0
    6.6028  -11.0904   27.6423 S   0  0  0  0  0  0  0  0  0  0  0  0
    6.8588  -14.0458   24.9218 C   0  0  0  0  0  0  0  0  0  0  0  0
    6.9875  -15.2840   25.2174 O   0  0  0  0  0  0  0  0  0  0  0  0
    7.7264  -12.5918   18.7360 N   0  0  0  0  0  0  0  0  0  0  0  0
    8.2284  -13.9234   18.8383 C   0  0  0  0  0  0  0  0  0  0  0  0
    8.5196  -14.4827   17.7416 O   0  0  0  0  0  0  0  0  0  0  0  0
    8.3726  -14.5242   20.1589 C   0  0  0  0  0  0  0  0  0  0  0  0
    7.8510  -13.8229   21.3290 C   0  0  0  0  0  0  0  0  0  0  0  0
    7.8478  -14.4340   22.6711 C   0  0  2  0  0  0  0  0  0  0  0  0
    7.2225  -13.5463   23.6548 N   0  0  0  0  0  0  0  0  0  0  0  0
    9.1727  -14.7854   23.1696 C   0  0  0  0  0  0  0  0  0  0  0  0
    9.7226  -14.1609   24.1450 O   0  0  0  0  0  0  0  0  0  0  0  0
    8.9206  -18.1489   26.7510 N   0  0  0  0  0  0  0  0  0  0  0  0
   10.3188  -18.3896   26.6823 C   0  0  0  0  0  0  0  0  0  0  0  0
   10.8951  -19.0636   27.6024 O   0  0  0  0  0  0  0  0  0  0  0  0
   11.0812  -17.8637   25.5481 C   0  0  0  0  0  0  0  0  0  0  0  0
   10.2650  -17.0668   24.5890 C   0  0  0  0  0  0  0  0  0  0  0  0
   10.9528  -16.5987   23.3444 C   0  0  2  0  0  0  0  0  0  0  0  0
    9.9342  -15.8249   22.6204 N   0  0  0  0  0  0  0  0  0  0  0  0
   11.6404  -17.5485   22.5169 C   0  0  0  0  0  0  0  0  0  0  0  0
   12.9722  -17.8771   22.6979 O   0  0  0  0  0  0  0  0  0  0  0  0
   11.0480  -18.1354   21.5574 O   0  0  0  0  0  0  0  0  0  0  0  0
  2  1  1  1
  3  4  1  0
  3  2  1  0
  5  2  1  0
  5  6  2  0
  7  8  1  0
  8 10  1  0
  9  8  2  0
 10 11  1  0
 12 11  1  6
 12 13  1  0
 13  5  1  0
 14 12  1  0
 15 14  2  0
 16 17  1  0
 17 19  1  0
 18 17  2  0
 20 19  1  0
 21 20  1  1
 21 22  1  0
 21 23  1  0
 22 14  1  0
 23 24  1  0
 25 23  2  0
M  END
$$$$
