FKI.pdb
     RDKit          3D

 29 29  0  0  1  0  0  0  0  0999 V2000
    5.7254  -18.3187   25.5473 N   0  0  0  0  0  0  0  0  0  0  0  0
    5.9678  -16.8980   25.3797 C   0  0  1  0  0  0  0  0  0  0  0  0
    6.2197  -16.3437   26.7843 C   0  0  0  0  0  0  0  0  0  0  0  0
    6.1031  -14.8591   26.6923 C   0  0  0  0  0  0  0  0  0  0  0  0
    7.2182  -14.0339   26.6622 C   0  0  0  0  0  0  0  0  0  0  0  0
    7.1019  -12.6573   26.5767 C   0  0  0  0  0  0  0  0  0  0  0  0
    5.8556  -12.0571   26.5182 C   0  0  0  0  0  0  0  0  0  0  0  0
    4.7555  -12.8876   26.5490 C   0  0  0  0  0  0  0  0  0  0  0  0
    4.8672  -14.2598   26.6341 C   0  0  0  0  0  0  0  0  0  0  0  0
    7.1644  -16.6660   24.5414 C   0  0  0  0  0  0  0  0  0  0  0  0
    8.1893  -17.3487   24.6852 O   0  0  0  0  0  0  0  0  0  0  0  0
    7.1511  -15.6554   23.5602 N   0  0  0  0  0  0  0  0  0  0  0  0
    8.2911  -15.4488   22.6352 C   0  0  1  0  0  0  0  0  0  0  0  0
    7.8932  -14.2535   21.8154 C   0  0  0  0  0  0  0  0  0  0  0  0
    8.8500  -14.0024   20.6981 C   0  0  0  0  0  0  0  0  0  0  0  0
    8.3995  -12.7609   19.9168 C   0  0  0  0  0  0  0  0  0  0  0  0
    8.6878  -13.0566   18.4602 C   0  0  0  0  0  0  0  0  0  0  0  0
   10.1129  -13.1908   18.2178 N   0  0  0  0  0  0  0  0  0  0  0  0
    9.5070  -15.1064   23.4370 C   0  0  0  0  0  0  0  0  0  0  0  0
    9.8084  -13.8976   23.5906 O   0  0  0  0  0  0  0  0  0  0  0  0
   10.8519  -13.3622   27.7569 C   0  0  0  0  0  0  0  0  0  0  0  0
   11.1757  -13.8440   26.3635 C   0  0  0  0  0  0  0  0  0  0  0  0
   11.1054  -15.3586   26.2763 C   0  0  2  0  0  0  0  0  0  0  0  0
   12.1616  -15.8817   27.2324 C   0  0  0  0  0  0  0  0  0  0  0  0
   11.4236  -15.8822   24.9028 C   0  0  2  0  0  0  0  0  0  0  0  0
   10.3278  -16.0802   24.0262 N   0  0  0  0  0  0  0  0  0  0  0  0
   12.3471  -17.0177   24.9774 C   0  0  0  0  0  0  0  0  0  0  0  0
   12.1641  -18.2780   24.4680 O   0  0  0  0  0  0  0  0  0  0  0  0
   13.4508  -16.7595   25.6066 O   0  0  0  0  0  0  0  0  0  0  0  0
  2  1  1  1
  3  4  1  0
  3  2  1  0
  4  5  2  0
  5  6  1  0
  7  6  2  0
  8  7  1  0
  9  4  1  0
  9  8  2  0
 10  2  1  0
 10 11  2  0
 12 10  1  0
 13 12  1  0
 13 14  1  6
 15 14  1  0
 15 16  1  0
 17 16  1  0
 17 18  1  0
 19 13  1  0
 20 19  2  0
 21 22  1  0
 22 23  1  0
 23 24  1  1
 25 23  1  0
 25 26  1  1
 26 19  1  0
 27 28  1  0
 27 25  1  0
 29 27  2  0
M  END
$$$$
