FKI.pdb
     RDKit          3D

 29 29  0  0  1  0  0  0  0  0999 V2000
    5.1999  -17.5816   24.4981 N   0  0  0  0  0  0  0  0  0  0  0  0
    5.9880  -16.3710   24.6339 C   0  0  1  0  0  0  0  0  0  0  0  0
    6.0669  -16.0845   26.1357 C   0  0  0  0  0  0  0  0  0  0  0  0
    6.4471  -14.6493   26.2843 C   0  0  0  0  0  0  0  0  0  0  0  0
    7.7580  -14.2170   26.1437 C   0  0  0  0  0  0  0  0  0  0  0  0
    8.1029  -12.8838   26.2830 C   0  0  0  0  0  0  0  0  0  0  0  0
    7.1389  -11.9322   26.5699 C   0  0  0  0  0  0  0  0  0  0  0  0
    5.8401  -12.3743   26.7073 C   0  0  0  0  0  0  0  0  0  0  0  0
    5.4925  -13.7019   26.5692 C   0  0  0  0  0  0  0  0  0  0  0  0
    7.3539  -16.5727   24.1030 C   0  0  0  0  0  0  0  0  0  0  0  0
    8.0082  -17.5869   24.3868 O   0  0  0  0  0  0  0  0  0  0  0  0
    7.9316  -15.6033   23.2598 N   0  0  0  0  0  0  0  0  0  0  0  0
    9.3442  -15.6924   22.8190 C   0  0  1  0  0  0  0  0  0  0  0  0
    9.4831  -14.6032   21.7926 C   0  0  0  0  0  0  0  0  0  0  0  0
    8.8001  -14.9547   20.5132 C   0  0  0  0  0  0  0  0  0  0  0  0
    9.0346  -13.8344   19.4912 C   0  0  0  0  0  0  0  0  0  0  0  0
    8.2932  -14.2500   18.2382 C   0  0  0  0  0  0  0  0  0  0  0  0
    8.5442  -13.3303   17.1433 N   0  0  0  0  0  0  0  0  0  0  0  0
   10.2330  -15.3820   23.9818 C   0  0  0  0  0  0  0  0  0  0  0  0
   10.7254  -14.2312   24.0751 O   0  0  0  0  0  0  0  0  0  0  0  0
    9.2985  -13.0888   27.7738 C   0  0  0  0  0  0  0  0  0  0  0  0
   10.1940  -13.8337   26.8138 C   0  0  0  0  0  0  0  0  0  0  0  0
   10.3559  -15.2858   27.2284 C   0  0  2  0  0  0  0  0  0  0  0  0
   11.1284  -15.2638   28.5346 C   0  0  0  0  0  0  0  0  0  0  0  0
   11.1460  -16.0942   26.2363 C   0  0  2  0  0  0  0  0  0  0  0  0
   10.5413  -16.3238   24.9754 N   0  0  0  0  0  0  0  0  0  0  0  0
   11.7006  -17.2961   26.8653 C   0  0  0  0  0  0  0  0  0  0  0  0
   12.7872  -17.3772   27.6984 O   0  0  0  0  0  0  0  0  0  0  0  0
   11.0624  -18.3862   26.5736 O   0  0  0  0  0  0  0  0  0  0  0  0
  2  1  1  1
  3  4  1  0
  3  2  1  0
  4  5  2  0
  5  6  1  0
  7  6  2  0
  8  7  1  0
  9  4  1  0
  9  8  2  0
 10  2  1  0
 10 11  2  0
 12 10  1  0
 13 12  1  0
 13 14  1  6
 15 14  1  0
 15 16  1  0
 17 16  1  0
 17 18  1  0
 19 13  1  0
 20 19  2  0
 21 22  1  0
 22 23  1  0
 23 24  1  1
 25 23  1  0
 25 26  1  6
 26 19  1  0
 27 28  1  0
 27 25  1  0
 29 27  2  0
M  END
$$$$
