FKI.pdb
     RDKit          3D

 29 29  0  0  1  0  0  0  0  0999 V2000
    5.1303  -18.0087   24.8712 N   0  0  0  0  0  0  0  0  0  0  0  0
    5.9060  -16.7852   24.7892 C   0  0  1  0  0  0  0  0  0  0  0  0
    5.6202  -16.0163   26.0818 C   0  0  0  0  0  0  0  0  0  0  0  0
    6.1636  -14.6391   25.8966 C   0  0  0  0  0  0  0  0  0  0  0  0
    7.3777  -14.2476   26.4423 C   0  0  0  0  0  0  0  0  0  0  0  0
    7.8753  -12.9681   26.2661 C   0  0  0  0  0  0  0  0  0  0  0  0
    7.1679  -12.0312   25.5319 C   0  0  0  0  0  0  0  0  0  0  0  0
    5.9630  -12.4323   24.9949 C   0  0  0  0  0  0  0  0  0  0  0  0
    5.4639  -13.7064   25.1683 C   0  0  0  0  0  0  0  0  0  0  0  0
    7.3522  -17.0861   24.7097 C   0  0  0  0  0  0  0  0  0  0  0  0
    7.9030  -17.8107   25.5516 O   0  0  0  0  0  0  0  0  0  0  0  0
    8.1269  -16.5461   23.6645 N   0  0  0  0  0  0  0  0  0  0  0  0
    9.5584  -16.8918   23.4933 C   0  0  1  0  0  0  0  0  0  0  0  0
    9.8835  -16.4483   22.0944 C   0  0  0  0  0  0  0  0  0  0  0  0
   11.2641  -16.8469   21.6918 C   0  0  0  0  0  0  0  0  0  0  0  0
   11.5031  -16.4359   20.2328 C   0  0  0  0  0  0  0  0  0  0  0  0
   12.8685  -16.9769   19.8647 C   0  0  0  0  0  0  0  0  0  0  0  0
   13.2580  -16.5689   18.5270 N   0  0  0  0  0  0  0  0  0  0  0  0
   10.3681  -16.0867   24.4600 C   0  0  0  0  0  0  0  0  0  0  0  0
   10.6930  -14.9155   24.1469 O   0  0  0  0  0  0  0  0  0  0  0  0
    9.3254  -13.8484   28.8679 C   0  0  0  0  0  0  0  0  0  0  0  0
    9.9247  -14.3926   27.5940 C   0  0  0  0  0  0  0  0  0  0  0  0
   11.0055  -15.4178   27.8900 C   0  0  2  0  0  0  0  0  0  0  0  0
   12.0742  -14.6826   28.6778 C   0  0  0  0  0  0  0  0  0  0  0  0
   11.6449  -15.9714   26.6464 C   0  0  2  0  0  0  0  0  0  0  0  0
   10.7817  -16.5853   25.7048 N   0  0  0  0  0  0  0  0  0  0  0  0
   12.8336  -16.7621   26.9776 C   0  0  0  0  0  0  0  0  0  0  0  0
   14.0591  -16.2981   27.3829 O   0  0  0  0  0  0  0  0  0  0  0  0
   12.6652  -18.0421   26.8595 O   0  0  0  0  0  0  0  0  0  0  0  0
  2  1  1  1
  3  4  1  0
  3  2  1  0
  4  5  2  0
  5  6  1  0
  7  6  2  0
  8  7  1  0
  9  4  1  0
  9  8  2  0
 10  2  1  0
 10 11  2  0
 12 10  1  0
 13 12  1  0
 13 14  1  6
 15 14  1  0
 15 16  1  0
 17 16  1  0
 17 18  1  0
 19 13  1  0
 20 19  2  0
 21 22  1  0
 22 23  1  0
 23 24  1  1
 25 23  1  0
 25 26  1  1
 26 19  1  0
 27 28  1  0
 27 25  1  0
 29 27  2  0
M  END
$$$$
