FKI.pdb
     RDKit          3D

 29 29  0  0  1  0  0  0  0  0999 V2000
    5.3250  -17.9216   24.5333 N   0  0  0  0  0  0  0  0  0  0  0  0
    5.9717  -16.6245   24.6010 C   0  0  1  0  0  0  0  0  0  0  0  0
    6.1198  -16.3034   26.0905 C   0  0  0  0  0  0  0  0  0  0  0  0
    6.4404  -14.8497   26.1913 C   0  0  0  0  0  0  0  0  0  0  0  0
    5.4663  -13.8981   26.4572 C   0  0  0  0  0  0  0  0  0  0  0  0
    5.7715  -12.5511   26.5491 C   0  0  0  0  0  0  0  0  0  0  0  0
    7.0724  -12.1094   26.3764 C   0  0  0  0  0  0  0  0  0  0  0  0
    8.0311  -13.0645   26.1127 C   0  0  0  0  0  0  0  0  0  0  0  0
    7.7309  -14.4076   26.0203 C   0  0  0  0  0  0  0  0  0  0  0  0
    7.3119  -16.6741   23.9767 C   0  0  0  0  0  0  0  0  0  0  0  0
    8.0723  -17.6347   24.1674 O   0  0  0  0  0  0  0  0  0  0  0  0
    7.7425  -15.6182   23.1497 N   0  0  0  0  0  0  0  0  0  0  0  0
    9.0702  -15.6333   22.4901 C   0  0  1  0  0  0  0  0  0  0  0  0
    9.0264  -14.4702   21.5390 C   0  0  0  0  0  0  0  0  0  0  0  0
    8.6602  -14.8963   20.1565 C   0  0  0  0  0  0  0  0  0  0  0  0
    8.8898  -13.7267   19.1900 C   0  0  0  0  0  0  0  0  0  0  0  0
    8.4758  -14.2273   17.8224 C   0  0  0  0  0  0  0  0  0  0  0  0
    8.5691  -13.1786   16.8228 N   0  0  0  0  0  0  0  0  0  0  0  0
   10.1241  -15.3797   23.5212 C   0  0  0  0  0  0  0  0  0  0  0  0
   10.8989  -14.4045   23.3656 O   0  0  0  0  0  0  0  0  0  0  0  0
   10.6367  -13.7622   28.9907 C   0  0  0  0  0  0  0  0  0  0  0  0
   11.3583  -14.5884   27.9538 C   0  0  0  0  0  0  0  0  0  0  0  0
   10.4733  -14.8505   26.7476 C   0  0  2  0  0  0  0  0  0  0  0  0
    9.1551  -15.3612   27.2997 C   0  0  0  0  0  0  0  0  0  0  0  0
   11.0303  -15.9035   25.8295 C   0  0  2  0  0  0  0  0  0  0  0  0
   10.2850  -16.1867   24.6579 N   0  0  0  0  0  0  0  0  0  0  0  0
   11.4393  -17.0913   26.5841 C   0  0  0  0  0  0  0  0  0  0  0  0
   12.4113  -17.1746   27.5483 O   0  0  0  0  0  0  0  0  0  0  0  0
   10.7834  -18.1654   26.2731 O   0  0  0  0  0  0  0  0  0  0  0  0
  2  1  1  1
  3  4  1  0
  3  2  1  0
  4  5  2  0
  5  6  1  0
  7  6  2  0
  8  7  1  0
  9  4  1  0
  9  8  2  0
 10  2  1  0
 10 11  2  0
 12 10  1  0
 13 12  1  0
 13 14  1  6
 15 14  1  0
 15 16  1  0
 17 16  1  0
 17 18  1  0
 19 13  1  0
 20 19  2  0
 21 22  1  0
 22 23  1  0
 23 24  1  1
 25 23  1  0
 25 26  1  6
 26 19  1  0
 27 28  1  0
 27 25  1  0
 29 27  2  0
M  END
$$$$
