FKI.pdb
     RDKit          3D

 29 29  0  0  1  0  0  0  0  0999 V2000
    5.9658  -17.3904   21.4627 N   0  0  0  0  0  0  0  0  0  0  0  0
    7.1687  -16.6220   21.7235 C   0  0  1  0  0  0  0  0  0  0  0  0
    6.7020  -15.1948   22.0218 C   0  0  0  0  0  0  0  0  0  0  0  0
    7.3387  -14.3085   21.0043 C   0  0  0  0  0  0  0  0  0  0  0  0
    7.1467  -12.9344   21.0021 C   0  0  0  0  0  0  0  0  0  0  0  0
    7.7409  -12.1187   20.0547 C   0  0  0  0  0  0  0  0  0  0  0  0
    8.5533  -12.6563   19.0708 C   0  0  0  0  0  0  0  0  0  0  0  0
    8.7363  -14.0228   19.0837 C   0  0  0  0  0  0  0  0  0  0  0  0
    8.1459  -14.8390   20.0260 C   0  0  0  0  0  0  0  0  0  0  0  0
    7.8871  -17.1568   22.9008 C   0  0  0  0  0  0  0  0  0  0  0  0
    7.2851  -17.4260   23.9507 O   0  0  0  0  0  0  0  0  0  0  0  0
    9.2785  -17.3681   22.8400 N   0  0  0  0  0  0  0  0  0  0  0  0
   10.0512  -17.8301   24.0179 C   0  0  1  0  0  0  0  0  0  0  0  0
   11.3501  -18.3203   23.4418 C   0  0  0  0  0  0  0  0  0  0  0  0
   12.2742  -18.8209   24.5012 C   0  0  0  0  0  0  0  0  0  0  0  0
   11.7666  -20.1745   25.0157 C   0  0  0  0  0  0  0  0  0  0  0  0
   12.7429  -20.6060   26.0895 C   0  0  0  0  0  0  0  0  0  0  0  0
   12.3511  -21.8703   26.6860 N   0  0  0  0  0  0  0  0  0  0  0  0
   10.3243  -16.6573   24.9059 C   0  0  0  0  0  0  0  0  0  0  0  0
   11.0125  -15.7080   24.4580 O   0  0  0  0  0  0  0  0  0  0  0  0
    7.6904  -12.7382   26.4664 C   0  0  0  0  0  0  0  0  0  0  0  0
    8.8471  -13.6778   26.2264 C   0  0  0  0  0  0  0  0  0  0  0  0
    9.1225  -14.5333   27.4508 C   0  0  2  0  0  0  0  0  0  0  0  0
    9.6686  -13.5890   28.5060 C   0  0  0  0  0  0  0  0  0  0  0  0
   10.1555  -15.5976   27.2021 C   0  0  2  0  0  0  0  0  0  0  0  0
    9.8435  -16.5721   26.2215 N   0  0  0  0  0  0  0  0  0  0  0  0
   10.6490  -16.1523   28.4656 C   0  0  0  0  0  0  0  0  0  0  0  0
   10.2976  -17.3428   29.0491 O   0  0  0  0  0  0  0  0  0  0  0  0
   11.5141  -15.3992   29.0699 O   0  0  0  0  0  0  0  0  0  0  0  0
  2  1  1  1
  3  4  1  0
  3  2  1  0
  4  5  2  0
  5  6  1  0
  7  6  2  0
  8  7  1  0
  9  4  1  0
  9  8  2  0
 10  2  1  0
 10 11  2  0
 12 10  1  0
 13 12  1  0
 13 14  1  6
 15 14  1  0
 15 16  1  0
 17 16  1  0
 17 18  1  0
 19 13  1  0
 20 19  2  0
 21 22  1  0
 22 23  1  0
 23 24  1  1
 25 23  1  0
 25 26  1  6
 26 19  1  0
 27 28  1  0
 27 25  1  0
 29 27  2  0
M  END
$$$$
