FKI.pdb
     RDKit          3D

 29 29  0  0  1  0  0  0  0  0999 V2000
    5.6102  -18.3566   25.3737 N   0  0  0  0  0  0  0  0  0  0  0  0
    5.9901  -16.9617   25.2509 C   0  0  1  0  0  0  0  0  0  0  0  0
    6.3483  -16.4953   26.6644 C   0  0  0  0  0  0  0  0  0  0  0  0
    6.2909  -15.0044   26.6570 C   0  0  0  0  0  0  0  0  0  0  0  0
    5.1400  -14.3141   26.3048 C   0  0  0  0  0  0  0  0  0  0  0  0
    5.0945  -12.9307   26.3004 C   0  0  0  0  0  0  0  0  0  0  0  0
    6.2087  -12.1873   26.6513 C   0  0  0  0  0  0  0  0  0  0  0  0
    7.3460  -12.8848   26.9993 C   0  0  0  0  0  0  0  0  0  0  0  0
    7.3952  -14.2632   27.0049 C   0  0  0  0  0  0  0  0  0  0  0  0
    7.1727  -16.8160   24.3743 C   0  0  0  0  0  0  0  0  0  0  0  0
    8.0996  -17.6389   24.4070 O   0  0  0  0  0  0  0  0  0  0  0  0
    7.2588  -15.7282   23.4835 N   0  0  0  0  0  0  0  0  0  0  0  0
    8.3099  -15.6530   22.4407 C   0  0  1  0  0  0  0  0  0  0  0  0
    7.9192  -14.4672   21.6036 C   0  0  0  0  0  0  0  0  0  0  0  0
    8.8215  -14.2958   20.4274 C   0  0  0  0  0  0  0  0  0  0  0  0
    8.3077  -13.1381   19.5612 C   0  0  0  0  0  0  0  0  0  0  0  0
    9.2415  -13.0596   18.3720 C   0  0  0  0  0  0  0  0  0  0  0  0
    9.1307  -14.2382   17.5316 N   0  0  0  0  0  0  0  0  0  0  0  0
    9.6236  -15.3725   23.0993 C   0  0  0  0  0  0  0  0  0  0  0  0
   10.4669  -14.6703   22.4899 O   0  0  0  0  0  0  0  0  0  0  0  0
   10.4524  -14.8764   28.7569 C   0  0  0  0  0  0  0  0  0  0  0  0
   10.2433  -15.5339   27.4144 C   0  0  0  0  0  0  0  0  0  0  0  0
   11.1162  -14.8949   26.3483 C   0  0  2  0  0  0  0  0  0  0  0  0
   10.4729  -13.5583   26.0276 C   0  0  0  0  0  0  0  0  0  0  0  0
   11.1732  -15.6983   25.0782 C   0  0  2  0  0  0  0  0  0  0  0  0
    9.9555  -15.8617   24.3719 N   0  0  0  0  0  0  0  0  0  0  0  0
   11.9234  -16.9412   25.2794 C   0  0  0  0  0  0  0  0  0  0  0  0
   11.4948  -18.2228   25.0447 O   0  0  0  0  0  0  0  0  0  0  0  0
   13.1247  -16.7644   25.7337 O   0  0  0  0  0  0  0  0  0  0  0  0
  2  1  1  1
  3  4  1  0
  3  2  1  0
  4  5  2  0
  5  6  1  0
  7  6  2  0
  8  7  1  0
  9  4  1  0
  9  8  2  0
 10  2  1  0
 10 11  2  0
 12 10  1  0
 13 12  1  0
 13 14  1  6
 15 14  1  0
 15 16  1  0
 17 16  1  0
 17 18  1  0
 19 13  1  0
 20 19  2  0
 21 22  1  0
 22 23  1  0
 23 24  1  6
 25 23  1  0
 25 26  1  1
 26 19  1  0
 27 28  1  0
 27 25  1  0
 29 27  2  0
M  END
$$$$
