FKI.pdb
     RDKit          3D

 29 29  0  0  1  0  0  0  0  0999 V2000
    6.0010  -18.1529   20.8248 N   0  0  0  0  0  0  0  0  0  0  0  0
    6.8373  -16.9880   21.0459 C   0  0  1  0  0  0  0  0  0  0  0  0
    5.8794  -15.8051   21.2097 C   0  0  0  0  0  0  0  0  0  0  0  0
    6.7169  -14.5708   21.2484 C   0  0  0  0  0  0  0  0  0  0  0  0
    7.0297  -13.9310   22.4392 C   0  0  0  0  0  0  0  0  0  0  0  0
    7.8073  -12.7862   22.4670 C   0  0  0  0  0  0  0  0  0  0  0  0
    8.3009  -12.2402   21.2942 C   0  0  0  0  0  0  0  0  0  0  0  0
    7.9831  -12.8851   20.1177 C   0  0  0  0  0  0  0  0  0  0  0  0
    7.2086  -14.0261   20.0859 C   0  0  0  0  0  0  0  0  0  0  0  0
    7.6365  -17.1437   22.2809 C   0  0  0  0  0  0  0  0  0  0  0  0
    7.0927  -17.3737   23.3712 O   0  0  0  0  0  0  0  0  0  0  0  0
    9.0397  -17.0308   22.2301 N   0  0  0  0  0  0  0  0  0  0  0  0
    9.8941  -17.3713   23.3929 C   0  0  1  0  0  0  0  0  0  0  0  0
   11.2380  -17.6733   22.7914 C   0  0  0  0  0  0  0  0  0  0  0  0
   12.2264  -18.0995   23.8250 C   0  0  0  0  0  0  0  0  0  0  0  0
   13.5780  -18.3695   23.1504 C   0  0  0  0  0  0  0  0  0  0  0  0
   14.4630  -18.9791   24.2170 C   0  0  0  0  0  0  0  0  0  0  0  0
   15.7837  -19.2866   23.6986 N   0  0  0  0  0  0  0  0  0  0  0  0
   10.0139  -16.1670   24.2726 C   0  0  0  0  0  0  0  0  0  0  0  0
   10.6850  -15.1870   23.8666 O   0  0  0  0  0  0  0  0  0  0  0  0
    7.1723  -12.3615   25.7416 C   0  0  0  0  0  0  0  0  0  0  0  0
    8.4321  -13.1813   25.6030 C   0  0  0  0  0  0  0  0  0  0  0  0
    8.6300  -14.0908   26.8031 C   0  0  2  0  0  0  0  0  0  0  0  0
    9.1185  -13.1974   27.9284 C   0  0  0  0  0  0  0  0  0  0  0  0
    9.6698  -15.1520   26.5693 C   0  0  2  0  0  0  0  0  0  0  0  0
    9.4074  -16.0849   25.5353 N   0  0  0  0  0  0  0  0  0  0  0  0
   10.0903  -15.7594   27.8351 C   0  0  0  0  0  0  0  0  0  0  0  0
    9.9387  -17.0654   28.2258 O   0  0  0  0  0  0  0  0  0  0  0  0
   10.6660  -14.9327   28.6511 O   0  0  0  0  0  0  0  0  0  0  0  0
  2  1  1  1
  3  4  1  0
  3  2  1  0
  4  5  2  0
  5  6  1  0
  7  6  2  0
  8  7  1  0
  9  4  1  0
  9  8  2  0
 10  2  1  0
 10 11  2  0
 12 10  1  0
 13 12  1  0
 13 14  1  6
 15 14  1  0
 15 16  1  0
 17 16  1  0
 17 18  1  0
 19 13  1  0
 20 19  2  0
 21 22  1  0
 22 23  1  0
 23 24  1  1
 25 23  1  0
 25 26  1  6
 26 19  1  0
 27 28  1  0
 27 25  1  0
 29 27  2  0
M  END
$$$$
