FKI.pdb
     RDKit          3D

 29 29  0  0  1  0  0  0  0  0999 V2000
    5.1607  -17.5382   24.8111 N   0  0  0  0  0  0  0  0  0  0  0  0
    6.2110  -16.5411   24.7206 C   0  0  1  0  0  0  0  0  0  0  0  0
    6.2598  -15.8536   26.0876 C   0  0  0  0  0  0  0  0  0  0  0  0
    6.4590  -14.3969   25.8337 C   0  0  0  0  0  0  0  0  0  0  0  0
    7.5930  -13.9086   25.2006 C   0  0  0  0  0  0  0  0  0  0  0  0
    7.7706  -12.5556   24.9686 C   0  0  0  0  0  0  0  0  0  0  0  0
    6.8111  -11.6400   25.3662 C   0  0  0  0  0  0  0  0  0  0  0  0
    5.6890  -12.1375   25.9942 C   0  0  0  0  0  0  0  0  0  0  0  0
    5.5084  -13.4850   26.2271 C   0  0  0  0  0  0  0  0  0  0  0  0
    7.5173  -17.1795   24.4482 C   0  0  0  0  0  0  0  0  0  0  0  0
    7.9057  -18.1522   25.1117 O   0  0  0  0  0  0  0  0  0  0  0  0
    8.3426  -16.6829   23.4204 N   0  0  0  0  0  0  0  0  0  0  0  0
    9.7748  -17.0527   23.3202 C   0  0  1  0  0  0  0  0  0  0  0  0
   10.2006  -16.5312   21.9764 C   0  0  0  0  0  0  0  0  0  0  0  0
   11.6341  -16.8331   21.6919 C   0  0  0  0  0  0  0  0  0  0  0  0
   11.8063  -17.0969   20.1901 C   0  0  0  0  0  0  0  0  0  0  0  0
   13.2631  -17.4594   19.9939 C   0  0  0  0  0  0  0  0  0  0  0  0
   13.5704  -17.6824   18.5926 N   0  0  0  0  0  0  0  0  0  0  0  0
   10.5354  -16.3296   24.3865 C   0  0  0  0  0  0  0  0  0  0  0  0
   11.0638  -15.2256   24.1081 O   0  0  0  0  0  0  0  0  0  0  0  0
    8.4634  -14.1566   28.3063 C   0  0  0  0  0  0  0  0  0  0  0  0
    9.5411  -14.5164   27.3126 C   0  0  0  0  0  0  0  0  0  0  0  0
   10.4329  -15.6237   27.8469 C   0  0  2  0  0  0  0  0  0  0  0  0
   11.3169  -14.9777   28.8978 C   0  0  0  0  0  0  0  0  0  0  0  0
   11.3253  -16.2180   26.7922 C   0  0  2  0  0  0  0  0  0  0  0  0
   10.6848  -16.8331   25.6878 N   0  0  0  0  0  0  0  0  0  0  0  0
   12.3853  -17.0271   27.4000 C   0  0  0  0  0  0  0  0  0  0  0  0
   13.5724  -16.5879   27.9284 O   0  0  0  0  0  0  0  0  0  0  0  0
   12.1329  -18.2986   27.4192 O   0  0  0  0  0  0  0  0  0  0  0  0
  2  1  1  1
  3  4  1  0
  3  2  1  0
  4  5  2  0
  5  6  1  0
  7  6  2  0
  8  7  1  0
  9  4  1  0
  9  8  2  0
 10  2  1  0
 10 11  2  0
 12 10  1  0
 13 12  1  0
 13 14  1  6
 15 14  1  0
 15 16  1  0
 17 16  1  0
 17 18  1  0
 19 13  1  0
 20 19  2  0
 21 22  1  0
 22 23  1  0
 23 24  1  1
 25 23  1  0
 25 26  1  6
 26 19  1  0
 27 28  1  0
 27 25  1  0
 29 27  2  0
M  END
$$$$
