FKI.pdb
     RDKit          3D

 29 29  0  0  1  0  0  0  0  0999 V2000
    5.4184  -18.0522   20.2992 N   0  0  0  0  0  0  0  0  0  0  0  0
    6.2666  -17.0764   20.9577 C   0  0  1  0  0  0  0  0  0  0  0  0
    5.6913  -15.7044   20.5964 C   0  0  0  0  0  0  0  0  0  0  0  0
    6.8493  -14.8172   20.2832 C   0  0  0  0  0  0  0  0  0  0  0  0
    6.6786  -13.5184   19.8259 C   0  0  0  0  0  0  0  0  0  0  0  0
    7.7580  -12.7013   19.5374 C   0  0  0  0  0  0  0  0  0  0  0  0
    9.0539  -13.1616   19.6986 C   0  0  0  0  0  0  0  0  0  0  0  0
    9.2103  -14.4537   20.1534 C   0  0  0  0  0  0  0  0  0  0  0  0
    8.1373  -15.2710   20.4420 C   0  0  0  0  0  0  0  0  0  0  0  0
    6.2251  -17.2520   22.4259 C   0  0  0  0  0  0  0  0  0  0  0  0
    5.1725  -17.0903   23.0609 O   0  0  0  0  0  0  0  0  0  0  0  0
    7.3945  -17.6089   23.1254 N   0  0  0  0  0  0  0  0  0  0  0  0
    7.4230  -17.7020   24.6047 C   0  0  1  0  0  0  0  0  0  0  0  0
    8.0153  -19.0556   24.8810 C   0  0  0  0  0  0  0  0  0  0  0  0
    6.9922  -20.1383   24.7930 C   0  0  0  0  0  0  0  0  0  0  0  0
    7.6221  -21.4656   25.2361 C   0  0  0  0  0  0  0  0  0  0  0  0
    6.5573  -22.5223   25.0316 C   0  0  0  0  0  0  0  0  0  0  0  0
    6.9956  -23.8183   25.5173 N   0  0  0  0  0  0  0  0  0  0  0  0
    8.3440  -16.6497   25.1367 C   0  0  0  0  0  0  0  0  0  0  0  0
    9.4625  -16.4932   24.5890 O   0  0  0  0  0  0  0  0  0  0  0  0
    6.2026  -12.0528   27.0186 C   0  0  0  0  0  0  0  0  0  0  0  0
    7.2860  -12.8819   26.3726 C   0  0  0  0  0  0  0  0  0  0  0  0
    8.0878  -13.6442   27.4132 C   0  0  2  0  0  0  0  0  0  0  0  0
    9.1290  -12.6706   27.9340 C   0  0  0  0  0  0  0  0  0  0  0  0
    8.8099  -14.8331   26.8415 C   0  0  2  0  0  0  0  0  0  0  0  0
    8.0112  -15.8279   26.2244 N   0  0  0  0  0  0  0  0  0  0  0  0
    9.7919  -15.3563   27.7954 C   0  0  0  0  0  0  0  0  0  0  0  0
   11.0700  -14.9070   28.0094 O   0  0  0  0  0  0  0  0  0  0  0  0
    9.3637  -16.3593   28.4964 O   0  0  0  0  0  0  0  0  0  0  0  0
  2  1  1  6
  3  4  1  0
  3  2  1  0
  4  5  2  0
  5  6  1  0
  7  6  2  0
  8  7  1  0
  9  4  1  0
  9  8  2  0
 10  2  1  0
 10 11  2  0
 12 10  1  0
 13 12  1  0
 13 14  1  6
 15 14  1  0
 15 16  1  0
 17 16  1  0
 17 18  1  0
 19 13  1  0
 20 19  2  0
 21 22  1  0
 22 23  1  0
 23 24  1  6
 25 23  1  0
 25 26  1  1
 26 19  1  0
 27 28  1  0
 27 25  1  0
 29 27  2  0
M  END
$$$$
