FKI.pdb
     RDKit          3D

 29 29  0  0  1  0  0  0  0  0999 V2000
    6.4856  -18.2227   20.6033 N   0  0  0  0  0  0  0  0  0  0  0  0
    7.1827  -17.0100   20.9888 C   0  0  1  0  0  0  0  0  0  0  0  0
    6.1023  -15.9401   21.1669 C   0  0  0  0  0  0  0  0  0  0  0  0
    6.8025  -14.6247   21.2426 C   0  0  0  0  0  0  0  0  0  0  0  0
    6.9326  -13.9280   22.4353 C   0  0  0  0  0  0  0  0  0  0  0  0
    7.5837  -12.7080   22.4975 C   0  0  0  0  0  0  0  0  0  0  0  0
    8.1300  -12.1413   21.3584 C   0  0  0  0  0  0  0  0  0  0  0  0
    7.9941  -12.8433   20.1796 C   0  0  0  0  0  0  0  0  0  0  0  0
    7.3461  -14.0591   20.1136 C   0  0  0  0  0  0  0  0  0  0  0  0
    7.8967  -17.2009   22.2702 C   0  0  0  0  0  0  0  0  0  0  0  0
    7.3018  -17.6019   23.2814 O   0  0  0  0  0  0  0  0  0  0  0  0
    9.2756  -16.9258   22.3553 N   0  0  0  0  0  0  0  0  0  0  0  0
   10.0540  -17.2050   23.5858 C   0  0  1  0  0  0  0  0  0  0  0  0
   11.4456  -17.4832   23.0906 C   0  0  0  0  0  0  0  0  0  0  0  0
   11.5429  -18.8155   22.4254 C   0  0  0  0  0  0  0  0  0  0  0  0
   12.9806  -19.0309   21.9341 C   0  0  0  0  0  0  0  0  0  0  0  0
   13.0434  -20.4607   21.4399 C   0  0  0  0  0  0  0  0  0  0  0  0
   12.8227  -20.5370   20.0070 N   0  0  0  0  0  0  0  0  0  0  0  0
   10.0760  -15.9720   24.4329 C   0  0  0  0  0  0  0  0  0  0  0  0
   10.6852  -14.9594   24.0097 O   0  0  0  0  0  0  0  0  0  0  0  0
    6.6918  -12.5269   25.9892 C   0  0  0  0  0  0  0  0  0  0  0  0
    7.9807  -13.2664   25.7242 C   0  0  0  0  0  0  0  0  0  0  0  0
    8.4523  -14.0086   26.9625 C   0  0  2  0  0  0  0  0  0  0  0  0
    8.9075  -12.9418   27.9411 C   0  0  0  0  0  0  0  0  0  0  0  0
    9.6195  -14.9178   26.6921 C   0  0  2  0  0  0  0  0  0  0  0  0
    9.4439  -15.8978   25.6835 N   0  0  0  0  0  0  0  0  0  0  0  0
   10.1790  -15.4361   27.9436 C   0  0  0  0  0  0  0  0  0  0  0  0
   10.2862  -16.7476   28.3306 O   0  0  0  0  0  0  0  0  0  0  0  0
   10.6093  -14.5164   28.7496 O   0  0  0  0  0  0  0  0  0  0  0  0
  2  1  1  1
  3  4  1  0
  3  2  1  0
  4  5  2  0
  5  6  1  0
  7  6  2  0
  8  7  1  0
  9  4  1  0
  9  8  2  0
 10  2  1  0
 10 11  2  0
 12 10  1  0
 13 12  1  0
 13 14  1  6
 15 14  1  0
 15 16  1  0
 17 16  1  0
 17 18  1  0
 19 13  1  0
 20 19  2  0
 21 22  1  0
 22 23  1  0
 23 24  1  1
 25 23  1  0
 25 26  1  6
 26 19  1  0
 27 28  1  0
 27 25  1  0
 29 27  2  0
M  END
$$$$
