FKI.pdb
     RDKit          3D

 29 29  0  0  1  0  0  0  0  0999 V2000
    5.2582  -17.8216   24.3458 N   0  0  0  0  0  0  0  0  0  0  0  0
    6.2076  -16.7357   24.5032 C   0  0  1  0  0  0  0  0  0  0  0  0
    5.9962  -16.1914   25.9184 C   0  0  0  0  0  0  0  0  0  0  0  0
    6.3500  -14.7423   25.8834 C   0  0  0  0  0  0  0  0  0  0  0  0
    7.6134  -14.3021   25.5157 C   0  0  0  0  0  0  0  0  0  0  0  0
    7.9341  -12.9559   25.4856 C   0  0  0  0  0  0  0  0  0  0  0  0
    6.9929  -11.9989   25.8253 C   0  0  0  0  0  0  0  0  0  0  0  0
    5.7414  -12.4489   26.1888 C   0  0  0  0  0  0  0  0  0  0  0  0
    5.4180  -13.7895   26.2200 C   0  0  0  0  0  0  0  0  0  0  0  0
    7.5956  -17.2303   24.3727 C   0  0  0  0  0  0  0  0  0  0  0  0
    8.0096  -18.1685   25.0697 O   0  0  0  0  0  0  0  0  0  0  0  0
    8.4711  -16.6334   23.4445 N   0  0  0  0  0  0  0  0  0  0  0  0
    9.9079  -16.9933   23.3817 C   0  0  1  0  0  0  0  0  0  0  0  0
   10.3745  -16.4339   22.0670 C   0  0  0  0  0  0  0  0  0  0  0  0
   11.7997  -16.7793   21.7904 C   0  0  0  0  0  0  0  0  0  0  0  0
   12.1875  -16.2503   20.4032 C   0  0  0  0  0  0  0  0  0  0  0  0
   13.6169  -16.6928   20.1719 C   0  0  0  0  0  0  0  0  0  0  0  0
   14.1692  -16.0960   18.9692 N   0  0  0  0  0  0  0  0  0  0  0  0
   10.6290  -16.2953   24.4913 C   0  0  0  0  0  0  0  0  0  0  0  0
   11.0639  -15.1348   24.2928 O   0  0  0  0  0  0  0  0  0  0  0  0
    9.7454  -12.8735   27.5506 C   0  0  0  0  0  0  0  0  0  0  0  0
   10.6512  -13.8821   26.8867 C   0  0  0  0  0  0  0  0  0  0  0  0
   10.5798  -15.2282   27.5865 C   0  0  2  0  0  0  0  0  0  0  0  0
   11.1560  -15.0092   28.9733 C   0  0  0  0  0  0  0  0  0  0  0  0
   11.4018  -16.2875   26.9051 C   0  0  2  0  0  0  0  0  0  0  0  0
   10.8413  -16.8831   25.7478 N   0  0  0  0  0  0  0  0  0  0  0  0
   11.9298  -17.2464   27.8795 C   0  0  0  0  0  0  0  0  0  0  0  0
   11.6476  -18.5856   27.9708 O   0  0  0  0  0  0  0  0  0  0  0  0
   12.7533  -16.7284   28.7363 O   0  0  0  0  0  0  0  0  0  0  0  0
  2  1  1  1
  3  4  1  0
  3  2  1  0
  4  5  2  0
  5  6  1  0
  7  6  2  0
  8  7  1  0
  9  4  1  0
  9  8  2  0
 10  2  1  0
 10 11  2  0
 12 10  1  0
 13 12  1  0
 13 14  1  6
 15 14  1  0
 15 16  1  0
 17 16  1  0
 17 18  1  0
 19 13  1  0
 20 19  2  0
 21 22  1  0
 22 23  1  0
 23 24  1  1
 25 23  1  0
 25 26  1  6
 26 19  1  0
 27 28  1  0
 27 25  1  0
 29 27  2  0
M  END
$$$$
