FKI.pdb
     RDKit          3D

 29 29  0  0  1  0  0  0  0  0999 V2000
    5.6175  -16.3764   25.1913 N   0  0  0  0  0  0  0  0  0  0  0  0
    6.9070  -15.8958   24.7316 C   0  0  1  0  0  0  0  0  0  0  0  0
    7.4482  -15.0020   25.8504 C   0  0  0  0  0  0  0  0  0  0  0  0
    6.9151  -13.6300   25.6059 C   0  0  0  0  0  0  0  0  0  0  0  0
    5.8152  -13.1350   26.2916 C   0  0  0  0  0  0  0  0  0  0  0  0
    5.3265  -11.8610   26.0591 C   0  0  0  0  0  0  0  0  0  0  0  0
    5.9278  -11.0345   25.1251 C   0  0  0  0  0  0  0  0  0  0  0  0
    7.0199  -11.5378   24.4505 C   0  0  0  0  0  0  0  0  0  0  0  0
    7.5098  -12.8067   24.6793 C   0  0  0  0  0  0  0  0  0  0  0  0
    7.8391  -17.0237   24.5138 C   0  0  0  0  0  0  0  0  0  0  0  0
    7.7427  -18.0705   25.1711 O   0  0  0  0  0  0  0  0  0  0  0  0
    8.8574  -16.9184   23.5461 N   0  0  0  0  0  0  0  0  0  0  0  0
   10.1373  -17.6553   23.6747 C   0  0  1  0  0  0  0  0  0  0  0  0
   10.8594  -17.3744   22.3867 C   0  0  0  0  0  0  0  0  0  0  0  0
   12.1449  -18.1267   22.2947 C   0  0  0  0  0  0  0  0  0  0  0  0
   12.7736  -17.8856   20.9159 C   0  0  0  0  0  0  0  0  0  0  0  0
   14.0270  -18.7340   20.8741 C   0  0  0  0  0  0  0  0  0  0  0  0
   14.7020  -18.6207   19.5938 N   0  0  0  0  0  0  0  0  0  0  0  0
   10.9188  -17.0705   24.8086 C   0  0  0  0  0  0  0  0  0  0  0  0
   11.7092  -16.1244   24.5727 O   0  0  0  0  0  0  0  0  0  0  0  0
    9.3891  -13.7849   28.0449 C   0  0  0  0  0  0  0  0  0  0  0  0
   10.3099  -14.7099   27.2866 C   0  0  0  0  0  0  0  0  0  0  0  0
   10.5623  -15.9907   28.0627 C   0  0  2  0  0  0  0  0  0  0  0  0
   11.3445  -15.5836   29.2979 C   0  0  0  0  0  0  0  0  0  0  0  0
   11.3898  -16.9865   27.2975 C   0  0  2  0  0  0  0  0  0  0  0  0
   10.8069  -17.5351   26.1280 N   0  0  0  0  0  0  0  0  0  0  0  0
   11.9775  -17.9806   28.1998 C   0  0  0  0  0  0  0  0  0  0  0  0
   13.0449  -17.8139   29.0450 O   0  0  0  0  0  0  0  0  0  0  0  0
   11.3928  -19.1371   28.1631 O   0  0  0  0  0  0  0  0  0  0  0  0
  2  1  1  1
  3  4  1  0
  3  2  1  0
  4  5  2  0
  5  6  1  0
  7  6  2  0
  8  7  1  0
  9  4  1  0
  9  8  2  0
 10  2  1  0
 10 11  2  0
 12 10  1  0
 13 12  1  0
 13 14  1  6
 15 14  1  0
 15 16  1  0
 17 16  1  0
 17 18  1  0
 19 13  1  0
 20 19  2  0
 21 22  1  0
 22 23  1  0
 23 24  1  1
 25 23  1  0
 25 26  1  6
 26 19  1  0
 27 28  1  0
 27 25  1  0
 29 27  2  0
M  END
$$$$
