FKI.pdb
     RDKit          3D

 29 29  0  0  1  0  0  0  0  0999 V2000
    4.7967  -17.7643   25.1264 N   0  0  0  0  0  0  0  0  0  0  0  0
    5.6389  -16.5836   25.0808 C   0  0  1  0  0  0  0  0  0  0  0  0
    6.3356  -16.5088   26.4419 C   0  0  0  0  0  0  0  0  0  0  0  0
    6.6981  -15.0789   26.6658 C   0  0  0  0  0  0  0  0  0  0  0  0
    8.0080  -14.6775   26.8855 C   0  0  0  0  0  0  0  0  0  0  0  0
    8.3364  -13.3489   27.0924 C   0  0  0  0  0  0  0  0  0  0  0  0
    7.3563  -12.3709   27.0861 C   0  0  0  0  0  0  0  0  0  0  0  0
    6.0587  -12.7823   26.8668 C   0  0  0  0  0  0  0  0  0  0  0  0
    5.7275  -14.1053   26.6602 C   0  0  0  0  0  0  0  0  0  0  0  0
    6.6587  -16.7083   24.0165 C   0  0  0  0  0  0  0  0  0  0  0  0
    7.1980  -17.7974   23.7706 O   0  0  0  0  0  0  0  0  0  0  0  0
    7.0317  -15.5780   23.2632 N   0  0  0  0  0  0  0  0  0  0  0  0
    8.1579  -15.6173   22.2999 C   0  0  1  0  0  0  0  0  0  0  0  0
    7.9313  -14.4246   21.4137 C   0  0  0  0  0  0  0  0  0  0  0  0
    8.8623  -14.4138   20.2475 C   0  0  0  0  0  0  0  0  0  0  0  0
    8.4418  -13.3031   19.2758 C   0  0  0  0  0  0  0  0  0  0  0  0
    9.3127  -13.4698   18.0486 C   0  0  0  0  0  0  0  0  0  0  0  0
    9.0013  -14.6979   17.3398 N   0  0  0  0  0  0  0  0  0  0  0  0
    9.4398  -15.4312   23.0486 C   0  0  0  0  0  0  0  0  0  0  0  0
   10.4272  -14.9463   22.4440 O   0  0  0  0  0  0  0  0  0  0  0  0
    9.5022  -13.3212   28.1049 C   0  0  0  0  0  0  0  0  0  0  0  0
   10.2212  -13.6452   26.8179 C   0  0  0  0  0  0  0  0  0  0  0  0
   10.4151  -15.1433   26.6595 C   0  0  2  0  0  0  0  0  0  0  0  0
   11.6237  -15.4998   27.5052 C   0  0  0  0  0  0  0  0  0  0  0  0
   10.7057  -15.5501   25.2411 C   0  0  2  0  0  0  0  0  0  0  0  0
    9.5871  -15.7761   24.4008 N   0  0  0  0  0  0  0  0  0  0  0  0
   11.7145  -16.6123   25.1984 C   0  0  0  0  0  0  0  0  0  0  0  0
   11.5615  -17.8910   24.7263 O   0  0  0  0  0  0  0  0  0  0  0  0
   12.8693  -16.2621   25.6720 O   0  0  0  0  0  0  0  0  0  0  0  0
  2  1  1  1
  3  4  1  0
  3  2  1  0
  4  5  2  0
  5  6  1  0
  7  6  2  0
  8  7  1  0
  9  4  1  0
  9  8  2  0
 10  2  1  0
 10 11  2  0
 12 10  1  0
 13 12  1  0
 13 14  1  6
 15 14  1  0
 15 16  1  0
 17 16  1  0
 17 18  1  0
 19 13  1  0
 20 19  2  0
 21 22  1  0
 22 23  1  0
 23 24  1  1
 25 23  1  0
 25 26  1  1
 26 19  1  0
 27 28  1  0
 27 25  1  0
 29 27  2  0
M  END
$$$$
