FKI.pdb
     RDKit          3D

 29 29  0  0  1  0  0  0  0  0999 V2000
    5.3263  -17.7529   24.7153 N   0  0  0  0  0  0  0  0  0  0  0  0
    5.9763  -16.4557   24.7066 C   0  0  1  0  0  0  0  0  0  0  0  0
    6.0034  -15.9870   26.1638 C   0  0  0  0  0  0  0  0  0  0  0  0
    6.2642  -14.5180   26.1423 C   0  0  0  0  0  0  0  0  0  0  0  0
    7.5425  -13.9997   25.9929 C   0  0  0  0  0  0  0  0  0  0  0  0
    7.7764  -12.6356   25.9740 C   0  0  0  0  0  0  0  0  0  0  0  0
    6.7298  -11.7387   26.1050 C   0  0  0  0  0  0  0  0  0  0  0  0
    5.4644  -12.2660   26.2528 C   0  0  0  0  0  0  0  0  0  0  0  0
    5.2273  -13.6247   26.2722 C   0  0  0  0  0  0  0  0  0  0  0  0
    7.3630  -16.5679   24.2040 C   0  0  0  0  0  0  0  0  0  0  0  0
    8.0756  -17.5381   24.5014 O   0  0  0  0  0  0  0  0  0  0  0  0
    7.8940  -15.5621   23.3730 N   0  0  0  0  0  0  0  0  0  0  0  0
    9.2760  -15.6360   22.8414 C   0  0  1  0  0  0  0  0  0  0  0  0
    9.3511  -14.5148   21.8431 C   0  0  0  0  0  0  0  0  0  0  0  0
    8.6089  -14.8366   20.5891 C   0  0  0  0  0  0  0  0  0  0  0  0
    8.9712  -13.8079   19.5097 C   0  0  0  0  0  0  0  0  0  0  0  0
    8.1400  -14.1655   18.2959 C   0  0  0  0  0  0  0  0  0  0  0  0
    8.4168  -13.2761   17.1823 N   0  0  0  0  0  0  0  0  0  0  0  0
   10.2365  -15.3615   23.9551 C   0  0  0  0  0  0  0  0  0  0  0  0
   10.6747  -14.1943   24.1007 O   0  0  0  0  0  0  0  0  0  0  0  0
    9.3963  -13.3637   28.0164 C   0  0  0  0  0  0  0  0  0  0  0  0
   10.3168  -13.9970   27.0015 C   0  0  0  0  0  0  0  0  0  0  0  0
   10.3573  -15.5066   27.1639 C   0  0  2  0  0  0  0  0  0  0  0  0
   10.9617  -15.7636   28.5321 C   0  0  0  0  0  0  0  0  0  0  0  0
   11.2255  -16.1834   26.1392 C   0  0  2  0  0  0  0  0  0  0  0  0
   10.6706  -16.3546   24.8465 N   0  0  0  0  0  0  0  0  0  0  0  0
   11.8432  -17.3913   26.6935 C   0  0  0  0  0  0  0  0  0  0  0  0
   11.7167  -18.6787   26.2374 O   0  0  0  0  0  0  0  0  0  0  0  0
   12.5851  -17.1742   27.7342 O   0  0  0  0  0  0  0  0  0  0  0  0
  2  1  1  1
  3  4  1  0
  3  2  1  0
  4  5  2  0
  5  6  1  0
  7  6  2  0
  8  7  1  0
  9  4  1  0
  9  8  2  0
 10  2  1  0
 10 11  2  0
 12 10  1  0
 13 12  1  0
 13 14  1  6
 15 14  1  0
 15 16  1  0
 17 16  1  0
 17 18  1  0
 19 13  1  0
 20 19  2  0
 21 22  1  0
 22 23  1  0
 23 24  1  1
 25 23  1  0
 25 26  1  6
 26 19  1  0
 27 28  1  0
 27 25  1  0
 29 27  2  0
M  END
$$$$
