WIH.pdb
     RDKit          3D

 33 35  0  0  1  0  0  0  0  0999 V2000
   24.4262  -20.6972   -9.1692 N   0  0  0  0  0  0  0  0  0  0  0  0
   23.6588  -20.7834  -10.3927 C   0  0  1  0  0  0  0  0  0  0  0  0
   22.2065  -20.4334  -10.2217 C   0  0  0  0  0  0  0  0  0  0  0  0
   21.5149  -21.2804   -9.2319 C   0  0  0  0  0  0  0  0  0  0  0  0
   21.4396  -21.1985   -7.8736 C   0  0  0  0  0  0  0  0  0  0  0  0
   20.6914  -22.2015   -7.3862 N   0  0  0  0  0  0  0  0  0  0  0  0
   20.2753  -22.9433   -8.4330 C   0  0  0  0  0  0  0  0  0  0  0  0
   19.4917  -24.0742   -8.5249 C   0  0  0  0  0  0  0  0  0  0  0  0
   19.1905  -24.6692   -9.7254 C   0  0  0  0  0  0  0  0  0  0  0  0
   19.6869  -24.1217  -10.8926 C   0  0  0  0  0  0  0  0  0  0  0  0
   20.4731  -22.9867  -10.7966 C   0  0  0  0  0  0  0  0  0  0  0  0
   20.7758  -22.3887   -9.5928 C   0  0  0  0  0  0  0  0  0  0  0  0
   24.2955  -20.0370  -11.5022 C   0  0  0  0  0  0  0  0  0  0  0  0
   24.5836  -18.8256  -11.3554 O   0  0  0  0  0  0  0  0  0  0  0  0
   28.8678  -21.1298  -13.2415 C   0  0  0  0  0  0  0  0  0  0  0  0
   27.4791  -20.5906  -12.9218 C   0  0  0  0  0  0  0  0  0  0  0  0
   26.6218  -20.4923  -14.1375 C   0  0  2  0  0  0  0  0  0  0  0  0
   27.2686  -19.6936  -15.2465 C   0  0  0  0  0  0  0  0  0  0  0  0
   25.2576  -19.9148  -13.8476 C   0  0  2  0  0  0  0  0  0  0  0  0
   24.6052  -20.6313  -12.7534 N   0  0  0  0  0  0  0  0  0  0  0  0
   24.4075  -19.8099  -15.0482 C   0  0  0  0  0  0  0  0  0  0  0  0
   24.1861  -20.8339  -15.7262 O   0  0  0  0  0  0  0  0  0  0  0  0
   23.8531  -18.5750  -15.4307 N   0  0  0  0  0  0  0  0  0  0  0  0
   22.9078  -18.4132  -16.5608 C   0  0  1  0  0  0  0  0  0  0  0  0
   22.3662  -17.0147  -16.5132 C   0  0  0  0  0  0  0  0  0  0  0  0
   21.4246  -16.6984  -17.5921 C   0  0  0  0  0  0  0  0  0  0  0  0
   20.3982  -17.5815  -17.9931 C   0  0  0  0  0  0  0  0  0  0  0  0
   19.7291  -16.9903  -18.9929 N   0  0  0  0  0  0  0  0  0  0  0  0
   20.2622  -15.7871  -19.2556 C   0  0  0  0  0  0  0  0  0  0  0  0
   21.2791  -15.6451  -18.3946 N   0  0  0  0  0  0  0  0  0  0  0  0
   23.6097  -18.7269  -17.8118 C   0  0  0  0  0  0  0  0  0  0  0  0
   24.7708  -18.3366  -18.0175 O   0  0  0  0  0  0  0  0  0  0  0  0
   23.0136  -19.4779  -18.8380 O   0  0  0  0  0  0  0  0  0  0  0  0
  2  1  1  1
  2  3  1  0
  3  4  1  0
  4  5  2  0
  5  6  1  0
  7  6  1  0
  8  7  2  0
  9  8  1  0
 10 11  1  0
 10  9  2  0
 11 12  2  0
 12  4  1  0
 12  7  1  0
 13 20  1  0
 13  2  1  0
 14 13  2  0
 16 15  1  0
 17 19  1  0
 17 16  1  0
 17 18  1  6
 19 20  1  1
 21 19  1  0
 22 21  2  0
 23 21  1  0
 24 25  1  6
 24 23  1  0
 25 26  1  0
 26 27  2  0
 26 30  1  0
 27 28  1  0
 28 29  1  0
 30 29  2  0
 31 24  1  0
 32 31  2  0
 33 31  1  0
M  END
$$$$
