WIH.pdb
     RDKit          3D

 33 35  0  0  1  0  0  0  0  0999 V2000
   19.8848  -22.9367  -11.1889 N   0  0  0  0  0  0  0  0  0  0  0  0
   19.9616  -22.8103   -9.7497 C   0  0  1  0  0  0  0  0  0  0  0  0
   20.2647  -21.4143   -9.2805 C   0  0  0  0  0  0  0  0  0  0  0  0
   21.5586  -20.9024   -9.7698 C   0  0  0  0  0  0  0  0  0  0  0  0
   21.9047  -20.3105  -10.9476 C   0  0  0  0  0  0  0  0  0  0  0  0
   23.2135  -20.0096  -10.9518 N   0  0  0  0  0  0  0  0  0  0  0  0
   23.7254  -20.4075   -9.7691 C   0  0  0  0  0  0  0  0  0  0  0  0
   24.9941  -20.3490   -9.2324 C   0  0  0  0  0  0  0  0  0  0  0  0
   25.2888  -20.8253   -7.9784 C   0  0  0  0  0  0  0  0  0  0  0  0
   24.2825  -21.3870   -7.2168 C   0  0  0  0  0  0  0  0  0  0  0  0
   23.0103  -21.4442   -7.7588 C   0  0  0  0  0  0  0  0  0  0  0  0
   22.7133  -20.9665   -9.0166 C   0  0  0  0  0  0  0  0  0  0  0  0
   18.7766  -23.3903   -9.0766 C   0  0  0  0  0  0  0  0  0  0  0  0
   17.6307  -22.9613   -9.3503 O   0  0  0  0  0  0  0  0  0  0  0  0
   18.4355  -28.7947   -8.1030 C   0  0  0  0  0  0  0  0  0  0  0  0
   18.6768  -27.3538   -7.6704 C   0  0  0  0  0  0  0  0  0  0  0  0
   17.5185  -26.4709   -7.9888 C   0  0  2  0  0  0  0  0  0  0  0  0
   17.1992  -26.4348   -9.4662 C   0  0  0  0  0  0  0  0  0  0  0  0
   17.7047  -25.0578   -7.4917 C   0  0  2  0  0  0  0  0  0  0  0  0
   18.8682  -24.4303   -8.1150 N   0  0  0  0  0  0  0  0  0  0  0  0
   17.7235  -24.9606   -6.0202 C   0  0  0  0  0  0  0  0  0  0  0  0
   18.8217  -24.9068   -5.4298 O   0  0  0  0  0  0  0  0  0  0  0  0
   16.5239  -24.9314   -5.2864 N   0  0  0  0  0  0  0  0  0  0  0  0
   16.4669  -24.8760   -3.8063 C   0  0  1  0  0  0  0  0  0  0  0  0
   15.1561  -24.2580   -3.4174 C   0  0  0  0  0  0  0  0  0  0  0  0
   14.9895  -24.0622   -1.9736 C   0  0  0  0  0  0  0  0  0  0  0  0
   15.9839  -24.4158   -1.0353 C   0  0  0  0  0  0  0  0  0  0  0  0
   15.5137  -24.1082    0.1818 N   0  0  0  0  0  0  0  0  0  0  0  0
   14.2837  -23.5812    0.0805 C   0  0  0  0  0  0  0  0  0  0  0  0
   14.0010  -23.5688   -1.2292 N   0  0  0  0  0  0  0  0  0  0  0  0
   16.6550  -26.2323   -3.2758 C   0  0  0  0  0  0  0  0  0  0  0  0
   16.1340  -27.2186   -3.8222 O   0  0  0  0  0  0  0  0  0  0  0  0
   17.4261  -26.4892   -2.1305 O   0  0  0  0  0  0  0  0  0  0  0  0
  2  1  1  6
  2  3  1  0
  3  4  1  0
  4  5  2  0
  5  6  1  0
  7  6  1  0
  8  7  2  0
  9  8  1  0
 10 11  1  0
 10  9  2  0
 11 12  2  0
 12  4  1  0
 12  7  1  0
 13 20  1  0
 13  2  1  0
 14 13  2  0
 16 15  1  0
 17 19  1  0
 17 16  1  0
 17 18  1  6
 19 20  1  6
 21 19  1  0
 22 21  2  0
 23 21  1  0
 24 25  1  6
 24 23  1  0
 25 26  1  0
 26 27  2  0
 26 30  1  0
 27 28  1  0
 28 29  1  0
 30 29  2  0
 31 24  1  0
 32 31  2  0
 33 31  1  0
M  END
$$$$
