WIH.pdb
     RDKit          3D

 33 35  0  0  1  0  0  0  0  0999 V2000
   27.1604  -21.4146  -16.4094 N   0  0  0  0  0  0  0  0  0  0  0  0
   26.9287  -20.4845  -15.3258 C   0  0  1  0  0  0  0  0  0  0  0  0
   26.2923  -19.1939  -15.7621 C   0  0  0  0  0  0  0  0  0  0  0  0
   26.9925  -18.5500  -16.8894 C   0  0  0  0  0  0  0  0  0  0  0  0
   26.5324  -18.0748  -18.0810 C   0  0  0  0  0  0  0  0  0  0  0  0
   27.5448  -17.5690  -18.8039 N   0  0  0  0  0  0  0  0  0  0  0  0
   28.6733  -17.7148  -18.0798 C   0  0  0  0  0  0  0  0  0  0  0  0
   29.9888  -17.3792  -18.3209 C   0  0  0  0  0  0  0  0  0  0  0  0
   30.9924  -17.6271  -17.4168 C   0  0  0  0  0  0  0  0  0  0  0  0
   30.6830  -18.2362  -16.2161 C   0  0  0  0  0  0  0  0  0  0  0  0
   29.3616  -18.5718  -15.9776 C   0  0  0  0  0  0  0  0  0  0  0  0
   28.3538  -18.3234  -16.8837 C   0  0  0  0  0  0  0  0  0  0  0  0
   26.2119  -21.1163  -14.1942 C   0  0  0  0  0  0  0  0  0  0  0  0
   25.3787  -22.0272  -14.4134 O   0  0  0  0  0  0  0  0  0  0  0  0
   28.0861  -20.9978   -8.9820 C   0  0  0  0  0  0  0  0  0  0  0  0
   27.3549  -21.4481  -10.2406 C   0  0  0  0  0  0  0  0  0  0  0  0
   26.0562  -20.7381  -10.4194 C   0  0  2  0  0  0  0  0  0  0  0  0
   25.0426  -21.0960   -9.3561 C   0  0  0  0  0  0  0  0  0  0  0  0
   25.4440  -20.9698  -11.7796 C   0  0  2  0  0  0  0  0  0  0  0  0
   26.4208  -20.7388  -12.8419 N   0  0  0  0  0  0  0  0  0  0  0  0
   24.1903  -20.2205  -11.9842 C   0  0  0  0  0  0  0  0  0  0  0  0
   24.2450  -18.9904  -12.1876 O   0  0  0  0  0  0  0  0  0  0  0  0
   22.9467  -20.8768  -11.9489 N   0  0  0  0  0  0  0  0  0  0  0  0
   21.6980  -20.3020  -12.5032 C   0  0  1  0  0  0  0  0  0  0  0  0
   21.8862  -20.1278  -13.9816 C   0  0  0  0  0  0  0  0  0  0  0  0
   20.6808  -19.6901  -14.6929 C   0  0  0  0  0  0  0  0  0  0  0  0
   19.4313  -19.5341  -14.0536 C   0  0  0  0  0  0  0  0  0  0  0  0
   18.5541  -19.1279  -14.9823 N   0  0  0  0  0  0  0  0  0  0  0  0
   19.1633  -19.0147  -16.1727 C   0  0  0  0  0  0  0  0  0  0  0  0
   20.4404  -19.3604  -15.9611 N   0  0  0  0  0  0  0  0  0  0  0  0
   20.5773  -21.1850  -12.1558 C   0  0  0  0  0  0  0  0  0  0  0  0
   19.4011  -20.8583  -12.3856 O   0  0  0  0  0  0  0  0  0  0  0  0
   20.7693  -22.4367  -11.5487 O   0  0  0  0  0  0  0  0  0  0  0  0
  2  1  1  6
  2  3  1  0
  3  4  1  0
  4  5  2  0
  5  6  1  0
  7  6  1  0
  8  7  2  0
  9  8  1  0
 10 11  1  0
 10  9  2  0
 11 12  2  0
 12  4  1  0
 12  7  1  0
 13 20  1  0
 13  2  1  0
 14 13  2  0
 16 15  1  0
 17 19  1  0
 17 16  1  0
 17 18  1  1
 19 20  1  6
 21 19  1  0
 22 21  2  0
 23 21  1  0
 24 25  1  6
 24 23  1  0
 25 26  1  0
 26 27  2  0
 26 30  1  0
 27 28  1  0
 28 29  1  0
 30 29  2  0
 31 24  1  0
 32 31  2  0
 33 31  1  0
M  END
$$$$
