WIH.pdb
     RDKit          3D

 33 35  0  0  1  0  0  0  0  0999 V2000
   20.0612  -20.1466  -12.5587 N   0  0  0  0  0  0  0  0  0  0  0  0
   20.9534  -20.8225  -13.4753 C   0  0  1  0  0  0  0  0  0  0  0  0
   20.4815  -20.8044  -14.9028 C   0  0  0  0  0  0  0  0  0  0  0  0
   19.0496  -21.1271  -15.0480 C   0  0  0  0  0  0  0  0  0  0  0  0
   17.9802  -20.3478  -15.3747 C   0  0  0  0  0  0  0  0  0  0  0  0
   16.8545  -21.0799  -15.3832 N   0  0  0  0  0  0  0  0  0  0  0  0
   17.1907  -22.3455  -15.0601 C   0  0  0  0  0  0  0  0  0  0  0  0
   16.4534  -23.5024  -14.9214 C   0  0  0  0  0  0  0  0  0  0  0  0
   17.0222  -24.7048  -14.5796 C   0  0  0  0  0  0  0  0  0  0  0  0
   18.3852  -24.7689  -14.3639 C   0  0  0  0  0  0  0  0  0  0  0  0
   19.1220  -23.6057  -14.5038 C   0  0  0  0  0  0  0  0  0  0  0  0
   18.5526  -22.3988  -14.8468 C   0  0  0  0  0  0  0  0  0  0  0  0
   22.3524  -20.3573  -13.3343 C   0  0  0  0  0  0  0  0  0  0  0  0
   22.6046  -19.1291  -13.3307 O   0  0  0  0  0  0  0  0  0  0  0  0
   25.3499  -21.3676   -9.3721 C   0  0  0  0  0  0  0  0  0  0  0  0
   24.6857  -20.9011  -10.6617 C   0  0  0  0  0  0  0  0  0  0  0  0
   25.5044  -21.2272  -11.8642 C   0  0  2  0  0  0  0  0  0  0  0  0
   26.8931  -20.6320  -11.8054 C   0  0  0  0  0  0  0  0  0  0  0  0
   24.8438  -20.8066  -13.1547 C   0  0  2  0  0  0  0  0  0  0  0  0
   23.4508  -21.2462  -13.1998 N   0  0  0  0  0  0  0  0  0  0  0  0
   25.6075  -21.2058  -14.3516 C   0  0  0  0  0  0  0  0  0  0  0  0
   26.1307  -22.3382  -14.3875 O   0  0  0  0  0  0  0  0  0  0  0  0
   25.7500  -20.3260  -15.4398 N   0  0  0  0  0  0  0  0  0  0  0  0
   25.4779  -20.7072  -16.8461 C   0  0  1  0  0  0  0  0  0  0  0  0
   24.1688  -21.4396  -16.8810 C   0  0  0  0  0  0  0  0  0  0  0  0
   23.7470  -21.8518  -18.2236 C   0  0  0  0  0  0  0  0  0  0  0  0
   24.5683  -21.6993  -19.3624 C   0  0  0  0  0  0  0  0  0  0  0  0
   23.8853  -22.1712  -20.4149 N   0  0  0  0  0  0  0  0  0  0  0  0
   22.6815  -22.6150  -20.0212 C   0  0  0  0  0  0  0  0  0  0  0  0
   22.6331  -22.4073  -18.6983 N   0  0  0  0  0  0  0  0  0  0  0  0
   25.4930  -19.4952  -17.6749 C   0  0  0  0  0  0  0  0  0  0  0  0
   26.1978  -19.4176  -18.6947 O   0  0  0  0  0  0  0  0  0  0  0  0
   24.7197  -18.3648  -17.3642 O   0  0  0  0  0  0  0  0  0  0  0  0
  2  1  1  1
  2  3  1  0
  3  4  1  0
  4  5  2  0
  5  6  1  0
  7  6  1  0
  8  7  2  0
  9  8  1  0
 10 11  1  0
 10  9  2  0
 11 12  2  0
 12  4  1  0
 12  7  1  0
 13 20  1  0
 13  2  1  0
 14 13  2  0
 16 15  1  0
 17 19  1  0
 17 16  1  0
 17 18  1  1
 19 20  1  6
 21 19  1  0
 22 21  2  0
 23 21  1  0
 24 25  1  1
 24 23  1  0
 25 26  1  0
 26 27  2  0
 26 30  1  0
 27 28  1  0
 28 29  1  0
 30 29  2  0
 31 24  1  0
 32 31  2  0
 33 31  1  0
M  END
$$$$
