WIH.pdb
     RDKit          3D

 33 35  0  0  1  0  0  0  0  0999 V2000
   22.3568  -20.2267  -16.2283 N   0  0  0  0  0  0  0  0  0  0  0  0
   22.7514  -19.0651  -16.9950 C   0  0  1  0  0  0  0  0  0  0  0  0
   21.7353  -18.6430  -18.0198 C   0  0  0  0  0  0  0  0  0  0  0  0
   21.3925  -19.7123  -18.9762 C   0  0  0  0  0  0  0  0  0  0  0  0
   21.0642  -21.0209  -18.7831 C   0  0  0  0  0  0  0  0  0  0  0  0
   20.8318  -21.6225  -19.9610 N   0  0  0  0  0  0  0  0  0  0  0  0
   21.0094  -20.7009  -20.9297 C   0  0  0  0  0  0  0  0  0  0  0  0
   20.9045  -20.7563  -22.3034 C   0  0  0  0  0  0  0  0  0  0  0  0
   21.1345  -19.6663  -23.1067 C   0  0  0  0  0  0  0  0  0  0  0  0
   21.4852  -18.4629  -22.5262 C   0  0  0  0  0  0  0  0  0  0  0  0
   21.5897  -18.4111  -21.1470 C   0  0  0  0  0  0  0  0  0  0  0  0
   21.3591  -19.5037  -20.3401 C   0  0  0  0  0  0  0  0  0  0  0  0
   23.1801  -17.9447  -16.1263 C   0  0  0  0  0  0  0  0  0  0  0  0
   22.9644  -17.9937  -14.8921 O   0  0  0  0  0  0  0  0  0  0  0  0
   27.5607  -13.9594  -15.0161 C   0  0  0  0  0  0  0  0  0  0  0  0
   26.0921  -14.3270  -14.8442 C   0  0  0  0  0  0  0  0  0  0  0  0
   25.6853  -15.4469  -15.7402 C   0  0  2  0  0  0  0  0  0  0  0  0
   26.2136  -15.2909  -17.1483 C   0  0  0  0  0  0  0  0  0  0  0  0
   24.1892  -15.6396  -15.7953 C   0  0  2  0  0  0  0  0  0  0  0  0
   23.8376  -16.7901  -16.6253 N   0  0  0  0  0  0  0  0  0  0  0  0
   23.4626  -14.4151  -16.1797 C   0  0  0  0  0  0  0  0  0  0  0  0
   23.8699  -13.3118  -15.7623 O   0  0  0  0  0  0  0  0  0  0  0  0
   22.3241  -14.4833  -17.0029 N   0  0  0  0  0  0  0  0  0  0  0  0
   21.6248  -13.2914  -17.5389 C   0  0  1  0  0  0  0  0  0  0  0  0
   22.6246  -12.4742  -18.3032 C   0  0  0  0  0  0  0  0  0  0  0  0
   22.3271  -12.3453  -19.7333 C   0  0  0  0  0  0  0  0  0  0  0  0
   21.2358  -12.9976  -20.3480 C   0  0  0  0  0  0  0  0  0  0  0  0
   21.2538  -12.6701  -21.6478 N   0  0  0  0  0  0  0  0  0  0  0  0
   22.2861  -11.8511  -21.9020 C   0  0  0  0  0  0  0  0  0  0  0  0
   22.9091  -11.6776  -20.7284 N   0  0  0  0  0  0  0  0  0  0  0  0
   20.4881  -13.7381  -18.3542 C   0  0  0  0  0  0  0  0  0  0  0  0
   19.7612  -12.9264  -18.9505 O   0  0  0  0  0  0  0  0  0  0  0  0
   20.1604  -15.0954  -18.5039 O   0  0  0  0  0  0  0  0  0  0  0  0
  2  1  1  1
  2  3  1  0
  3  4  1  0
  4  5  2  0
  5  6  1  0
  7  6  1  0
  8  7  2  0
  9  8  1  0
 10 11  1  0
 10  9  2  0
 11 12  2  0
 12  4  1  0
 12  7  1  0
 13 20  1  0
 13  2  1  0
 14 13  2  0
 16 15  1  0
 17 19  1  0
 17 16  1  0
 17 18  1  6
 19 20  1  6
 21 19  1  0
 22 21  2  0
 23 21  1  0
 24 25  1  6
 24 23  1  0
 25 26  1  0
 26 27  2  0
 26 30  1  0
 27 28  1  0
 28 29  1  0
 30 29  2  0
 31 24  1  0
 32 31  2  0
 33 31  1  0
M  END
$$$$
