WIH.pdb
     RDKit          3D

 33 35  0  0  1  0  0  0  0  0999 V2000
   26.8256  -19.7476  -11.6001 N   0  0  0  0  0  0  0  0  0  0  0  0
   26.1707  -21.0376  -11.5899 C   0  0  1  0  0  0  0  0  0  0  0  0
   25.6001  -21.4156  -10.2511 C   0  0  0  0  0  0  0  0  0  0  0  0
   26.3746  -20.8819   -9.1150 C   0  0  0  0  0  0  0  0  0  0  0  0
   25.9840  -20.2034   -7.9993 C   0  0  0  0  0  0  0  0  0  0  0  0
   27.0481  -19.9126   -7.2335 N   0  0  0  0  0  0  0  0  0  0  0  0
   28.1407  -20.4043   -7.8530 C   0  0  0  0  0  0  0  0  0  0  0  0
   29.4808  -20.4000   -7.5284 C   0  0  0  0  0  0  0  0  0  0  0  0
   30.4367  -20.9774   -8.3278 C   0  0  0  0  0  0  0  0  0  0  0  0
   30.0516  -21.5887   -9.5052 C   0  0  0  0  0  0  0  0  0  0  0  0
   28.7057  -21.5908   -9.8279 C   0  0  0  0  0  0  0  0  0  0  0  0
   27.7457  -21.0122   -9.0266 C   0  0  0  0  0  0  0  0  0  0  0  0
   25.1824  -21.1682  -12.6852 C   0  0  0  0  0  0  0  0  0  0  0  0
   24.6831  -20.1405  -13.2015 O   0  0  0  0  0  0  0  0  0  0  0  0
   26.4991  -24.7337  -16.3973 C   0  0  0  0  0  0  0  0  0  0  0  0
   25.9562  -23.5401  -15.6212 C   0  0  0  0  0  0  0  0  0  0  0  0
   24.5178  -23.7082  -15.2673 C   0  0  2  0  0  0  0  0  0  0  0  0
   23.6328  -23.8790  -16.4812 C   0  0  0  0  0  0  0  0  0  0  0  0
   23.9847  -22.5738  -14.4263 C   0  0  2  0  0  0  0  0  0  0  0  0
   24.7585  -22.4230  -13.1956 N   0  0  0  0  0  0  0  0  0  0  0  0
   22.5337  -22.6693  -14.1801 C   0  0  0  0  0  0  0  0  0  0  0  0
   22.0892  -23.6476  -13.5454 O   0  0  0  0  0  0  0  0  0  0  0  0
   21.6573  -21.6763  -14.6539 N   0  0  0  0  0  0  0  0  0  0  0  0
   20.1966  -21.6812  -14.4024 C   0  0  1  0  0  0  0  0  0  0  0  0
   19.6499  -20.3509  -14.8300 C   0  0  0  0  0  0  0  0  0  0  0  0
   20.0100  -19.2404  -13.9424 C   0  0  0  0  0  0  0  0  0  0  0  0
   20.6845  -19.4308  -12.7164 C   0  0  0  0  0  0  0  0  0  0  0  0
   20.8555  -18.2225  -12.1615 N   0  0  0  0  0  0  0  0  0  0  0  0
   20.3337  -17.2737  -12.9544 C   0  0  0  0  0  0  0  0  0  0  0  0
   19.8343  -17.9219  -14.0154 N   0  0  0  0  0  0  0  0  0  0  0  0
   19.5987  -22.8166  -15.1163 C   0  0  0  0  0  0  0  0  0  0  0  0
   20.0387  -23.1943  -16.2147 O   0  0  0  0  0  0  0  0  0  0  0  0
   18.5049  -23.5327  -14.6034 O   0  0  0  0  0  0  0  0  0  0  0  0
  2  1  1  1
  2  3  1  0
  3  4  1  0
  4  5  2  0
  5  6  1  0
  7  6  1  0
  8  7  2  0
  9  8  1  0
 10 11  1  0
 10  9  2  0
 11 12  2  0
 12  4  1  0
 12  7  1  0
 13 20  1  0
 13  2  1  0
 14 13  2  0
 16 15  1  0
 17 19  1  0
 17 16  1  0
 17 18  1  6
 19 20  1  1
 21 19  1  0
 22 21  2  0
 23 21  1  0
 24 25  1  6
 24 23  1  0
 25 26  1  0
 26 27  2  0
 26 30  1  0
 27 28  1  0
 28 29  1  0
 30 29  2  0
 31 24  1  0
 32 31  2  0
 33 31  1  0
M  END
$$$$
