WIH.pdb
     RDKit          3D

 33 35  0  0  1  0  0  0  0  0999 V2000
   15.4429  -17.2611    2.9412 N   0  0  0  0  0  0  0  0  0  0  0  0
   15.5460  -18.0601    4.1429 C   0  0  1  0  0  0  0  0  0  0  0  0
   16.1626  -19.4130    3.9187 C   0  0  0  0  0  0  0  0  0  0  0  0
   15.4438  -20.2231    2.9174 C   0  0  0  0  0  0  0  0  0  0  0  0
   14.3464  -19.9481    2.1574 C   0  0  0  0  0  0  0  0  0  0  0  0
   14.0429  -20.9992    1.3786 N   0  0  0  0  0  0  0  0  0  0  0  0
   14.9478  -21.9668    1.6316 C   0  0  0  0  0  0  0  0  0  0  0  0
   15.1214  -23.2391    1.1291 C   0  0  0  0  0  0  0  0  0  0  0  0
   16.1382  -24.0646    1.5424 C   0  0  0  0  0  0  0  0  0  0  0  0
   17.0271  -23.6128    2.4985 C   0  0  0  0  0  0  0  0  0  0  0  0
   16.8497  -22.3353    3.0007 C   0  0  0  0  0  0  0  0  0  0  0  0
   15.8302  -21.5061    2.5867 C   0  0  0  0  0  0  0  0  0  0  0  0
   16.1924  -17.3184    5.2500 C   0  0  0  0  0  0  0  0  0  0  0  0
   17.0218  -16.4134    4.9948 O   0  0  0  0  0  0  0  0  0  0  0  0
   14.9977  -15.7881   11.1390 C   0  0  0  0  0  0  0  0  0  0  0  0
   15.9434  -15.7803    9.9443 C   0  0  0  0  0  0  0  0  0  0  0  0
   15.4761  -16.6819    8.8529 C   0  0  2  0  0  0  0  0  0  0  0  0
   15.1409  -18.0716    9.3454 C   0  0  0  0  0  0  0  0  0  0  0  0
   16.4646  -16.7884    7.7170 C   0  0  2  0  0  0  0  0  0  0  0  0
   15.9187  -17.5816    6.6176 N   0  0  0  0  0  0  0  0  0  0  0  0
   17.7952  -17.2537    8.1508 C   0  0  0  0  0  0  0  0  0  0  0  0
   18.0295  -18.4791    8.1804 O   0  0  0  0  0  0  0  0  0  0  0  0
   18.7899  -16.3342    8.5297 N   0  0  0  0  0  0  0  0  0  0  0  0
   20.1490  -16.7287    8.9704 C   0  0  1  0  0  0  0  0  0  0  0  0
   21.0433  -15.5311    8.8379 C   0  0  0  0  0  0  0  0  0  0  0  0
   22.4314  -15.7702    9.2459 C   0  0  0  0  0  0  0  0  0  0  0  0
   23.0857  -17.0048    9.0408 C   0  0  0  0  0  0  0  0  0  0  0  0
   24.3295  -16.8845    9.5263 N   0  0  0  0  0  0  0  0  0  0  0  0
   24.5108  -15.6529   10.0277 C   0  0  0  0  0  0  0  0  0  0  0  0
   23.3494  -15.0109    9.8421 N   0  0  0  0  0  0  0  0  0  0  0  0
   20.0680  -17.2501   10.3408 C   0  0  0  0  0  0  0  0  0  0  0  0
   20.9991  -17.9029   10.8406 O   0  0  0  0  0  0  0  0  0  0  0  0
   18.9436  -17.0435   11.1563 O   0  0  0  0  0  0  0  0  0  0  0  0
  2  1  1  6
  2  3  1  0
  3  4  1  0
  4  5  2  0
  5  6  1  0
  7  6  1  0
  8  7  2  0
  9  8  1  0
 10 11  1  0
 10  9  2  0
 11 12  2  0
 12  4  1  0
 12  7  1  0
 13 20  1  0
 13  2  1  0
 14 13  2  0
 16 15  1  0
 17 19  1  0
 17 16  1  0
 17 18  1  1
 19 20  1  6
 21 19  1  0
 22 21  2  0
 23 21  1  0
 24 25  1  1
 24 23  1  0
 25 26  1  0
 26 27  2  0
 26 30  1  0
 27 28  1  0
 28 29  1  0
 30 29  2  0
 31 24  1  0
 32 31  2  0
 33 31  1  0
M  END
$$$$
