WIH.pdb
     RDKit          3D

 33 35  0  0  1  0  0  0  0  0999 V2000
   26.6388  -18.7691  -17.9865 N   0  0  0  0  0  0  0  0  0  0  0  0
   26.1804  -18.5165  -16.6378 C   0  0  1  0  0  0  0  0  0  0  0  0
   24.7679  -18.0061  -16.5647 C   0  0  0  0  0  0  0  0  0  0  0  0
   24.5773  -16.7161  -17.2538 C   0  0  0  0  0  0  0  0  0  0  0  0
   23.9266  -16.4005  -18.4090 C   0  0  0  0  0  0  0  0  0  0  0  0
   24.0182  -15.0829  -18.6514 N   0  0  0  0  0  0  0  0  0  0  0  0
   24.7333  -14.5342  -17.6479 C   0  0  0  0  0  0  0  0  0  0  0  0
   25.1302  -13.2410  -17.3811 C   0  0  0  0  0  0  0  0  0  0  0  0
   25.8683  -12.9083  -16.2718 C   0  0  0  0  0  0  0  0  0  0  0  0
   26.2329  -13.9004  -15.3822 C   0  0  0  0  0  0  0  0  0  0  0  0
   25.8329  -15.1973  -15.6533 C   0  0  0  0  0  0  0  0  0  0  0  0
   25.0922  -15.5323  -16.7658 C   0  0  0  0  0  0  0  0  0  0  0  0
   26.4116  -19.6758  -15.7456 C   0  0  0  0  0  0  0  0  0  0  0  0
   26.5165  -20.8267  -16.2317 O   0  0  0  0  0  0  0  0  0  0  0  0
   29.6517  -21.7436  -11.1945 C   0  0  0  0  0  0  0  0  0  0  0  0
   28.2784  -21.8036  -11.8519 C   0  0  0  0  0  0  0  0  0  0  0  0
   28.0029  -20.5996  -12.6868 C   0  0  2  0  0  0  0  0  0  0  0  0
   28.0188  -19.3168  -11.8867 C   0  0  0  0  0  0  0  0  0  0  0  0
   26.6972  -20.6938  -13.4383 C   0  0  2  0  0  0  0  0  0  0  0  0
   26.5238  -19.5535  -14.3359 N   0  0  0  0  0  0  0  0  0  0  0  0
   25.5358  -20.9062  -12.5544 C   0  0  0  0  0  0  0  0  0  0  0  0
   25.4451  -20.2419  -11.5018 O   0  0  0  0  0  0  0  0  0  0  0  0
   24.5422  -21.8449  -12.8861 N   0  0  0  0  0  0  0  0  0  0  0  0
   23.0891  -21.5875  -12.7472 C   0  0  1  0  0  0  0  0  0  0  0  0
   22.7991  -20.2424  -13.3459 C   0  0  0  0  0  0  0  0  0  0  0  0
   21.6039  -19.5887  -12.8030 C   0  0  0  0  0  0  0  0  0  0  0  0
   21.2676  -19.6292  -11.4320 C   0  0  0  0  0  0  0  0  0  0  0  0
   20.1280  -18.9402  -11.2786 N   0  0  0  0  0  0  0  0  0  0  0  0
   19.7156  -18.4627  -12.4631 C   0  0  0  0  0  0  0  0  0  0  0  0
   20.6268  -18.8719  -13.3563 N   0  0  0  0  0  0  0  0  0  0  0  0
   22.3523  -22.6844  -13.3876 C   0  0  0  0  0  0  0  0  0  0  0  0
   21.1199  -22.7890  -13.2737 O   0  0  0  0  0  0  0  0  0  0  0  0
   22.9929  -23.6692  -14.1570 O   0  0  0  0  0  0  0  0  0  0  0  0
  2  1  1  6
  2  3  1  0
  3  4  1  0
  4  5  2  0
  5  6  1  0
  7  6  1  0
  8  7  2  0
  9  8  1  0
 10 11  1  0
 10  9  2  0
 11 12  2  0
 12  4  1  0
 12  7  1  0
 13 20  1  0
 13  2  1  0
 14 13  2  0
 16 15  1  0
 17 19  1  0
 17 16  1  0
 17 18  1  1
 19 20  1  1
 21 19  1  0
 22 21  2  0
 23 21  1  0
 24 25  1  6
 24 23  1  0
 25 26  1  0
 26 27  2  0
 26 30  1  0
 27 28  1  0
 28 29  1  0
 30 29  2  0
 31 24  1  0
 32 31  2  0
 33 31  1  0
M  END
$$$$
