WIH.pdb
     RDKit          3D

 33 35  0  0  1  0  0  0  0  0999 V2000
   28.3653  -20.9552   -9.4316 N   0  0  0  0  0  0  0  0  0  0  0  0
   26.9208  -21.0343   -9.4347 C   0  0  1  0  0  0  0  0  0  0  0  0
   26.2728  -20.3097   -8.2875 C   0  0  0  0  0  0  0  0  0  0  0  0
   27.2423  -19.6582   -7.3868 C   0  0  0  0  0  0  0  0  0  0  0  0
   27.7682  -18.4009   -7.3889 C   0  0  0  0  0  0  0  0  0  0  0  0
   28.6255  -18.2519   -6.3661 N   0  0  0  0  0  0  0  0  0  0  0  0
   28.6596  -19.4193   -5.6915 C   0  0  0  0  0  0  0  0  0  0  0  0
   29.3521  -19.8331   -4.5732 C   0  0  0  0  0  0  0  0  0  0  0  0
   29.2249  -21.0968   -4.0507 C   0  0  0  0  0  0  0  0  0  0  0  0
   28.3729  -21.9964   -4.6616 C   0  0  0  0  0  0  0  0  0  0  0  0
   27.6796  -21.5776   -5.7839 C   0  0  0  0  0  0  0  0  0  0  0  0
   27.8062  -20.3101   -6.3089 C   0  0  0  0  0  0  0  0  0  0  0  0
   26.3457  -20.6516  -10.7448 C   0  0  0  0  0  0  0  0  0  0  0  0
   26.6788  -19.5679  -11.2803 O   0  0  0  0  0  0  0  0  0  0  0  0
   24.1492  -24.5147  -14.2427 C   0  0  0  0  0  0  0  0  0  0  0  0
   24.0263  -23.3691  -13.2457 C   0  0  0  0  0  0  0  0  0  0  0  0
   24.7511  -22.1486  -13.7014 C   0  0  2  0  0  0  0  0  0  0  0  0
   26.1798  -22.4335  -14.1059 C   0  0  0  0  0  0  0  0  0  0  0  0
   24.7427  -21.0437  -12.6729 C   0  0  2  0  0  0  0  0  0  0  0  0
   25.4154  -21.4632  -11.4452 N   0  0  0  0  0  0  0  0  0  0  0  0
   23.3965  -20.4936  -12.4269 C   0  0  0  0  0  0  0  0  0  0  0  0
   23.1603  -19.9326  -11.3374 O   0  0  0  0  0  0  0  0  0  0  0  0
   22.3878  -20.5991  -13.4014 N   0  0  0  0  0  0  0  0  0  0  0  0
   21.2130  -19.6978  -13.4692 C   0  0  1  0  0  0  0  0  0  0  0  0
   21.7141  -18.3027  -13.7017 C   0  0  0  0  0  0  0  0  0  0  0  0
   20.6557  -17.3175  -13.9463 C   0  0  0  0  0  0  0  0  0  0  0  0
   19.2824  -17.6322  -13.8492 C   0  0  0  0  0  0  0  0  0  0  0  0
   18.5948  -16.5170  -14.1329 N   0  0  0  0  0  0  0  0  0  0  0  0
   19.4408  -15.5111  -14.4045 C   0  0  0  0  0  0  0  0  0  0  0  0
   20.6707  -16.0287  -14.2828 N   0  0  0  0  0  0  0  0  0  0  0  0
   20.3096  -20.1785  -14.5224 C   0  0  0  0  0  0  0  0  0  0  0  0
   19.1091  -19.8602  -14.5398 O   0  0  0  0  0  0  0  0  0  0  0  0
   20.7469  -21.0185  -15.5594 O   0  0  0  0  0  0  0  0  0  0  0  0
  2  1  1  6
  2  3  1  0
  3  4  1  0
  4  5  2  0
  5  6  1  0
  7  6  1  0
  8  7  2  0
  9  8  1  0
 10 11  1  0
 10  9  2  0
 11 12  2  0
 12  4  1  0
 12  7  1  0
 13 20  1  0
 13  2  1  0
 14 13  2  0
 16 15  1  0
 17 19  1  0
 17 16  1  0
 17 18  1  1
 19 20  1  1
 21 19  1  0
 22 21  2  0
 23 21  1  0
 24 25  1  6
 24 23  1  0
 25 26  1  0
 26 27  2  0
 26 30  1  0
 27 28  1  0
 28 29  1  0
 30 29  2  0
 31 24  1  0
 32 31  2  0
 33 31  1  0
M  END
$$$$
