WIH.pdb
     RDKit          3D

 33 35  0  0  1  0  0  0  0  0999 V2000
   22.5190  -20.0155  -14.4593 N   0  0  0  0  0  0  0  0  0  0  0  0
   21.5675  -19.8366  -13.3843 C   0  0  1  0  0  0  0  0  0  0  0  0
   20.1330  -19.8787  -13.8330 C   0  0  0  0  0  0  0  0  0  0  0  0
   19.7627  -18.7521  -14.7100 C   0  0  0  0  0  0  0  0  0  0  0  0
   19.6327  -18.6710  -16.0642 C   0  0  0  0  0  0  0  0  0  0  0  0
   19.2760  -17.4277  -16.4253 N   0  0  0  0  0  0  0  0  0  0  0  0
   19.1722  -16.6920  -15.2996 C   0  0  0  0  0  0  0  0  0  0  0  0
   18.8406  -15.3732  -15.0718 C   0  0  0  0  0  0  0  0  0  0  0  0
   18.7960  -14.8293  -13.8115 C   0  0  0  0  0  0  0  0  0  0  0  0
   19.0934  -15.6257  -12.7226 C   0  0  0  0  0  0  0  0  0  0  0  0
   19.4260  -16.9489  -12.9550 C   0  0  0  0  0  0  0  0  0  0  0  0
   19.4708  -17.4958  -14.2188 C   0  0  0  0  0  0  0  0  0  0  0  0
   21.8337  -20.7490  -12.2484 C   0  0  0  0  0  0  0  0  0  0  0  0
   22.0053  -21.9732  -12.4579 O   0  0  0  0  0  0  0  0  0  0  0  0
   25.7756  -20.2021   -8.8750 C   0  0  0  0  0  0  0  0  0  0  0  0
   24.6000  -20.6656   -9.7264 C   0  0  0  0  0  0  0  0  0  0  0  0
   23.3284  -20.7119   -8.9496 C   0  0  2  0  0  0  0  0  0  0  0  0
   23.4359  -21.5584   -7.7014 C   0  0  0  0  0  0  0  0  0  0  0  0
   22.1572  -21.1940   -9.7708 C   0  0  2  0  0  0  0  0  0  0  0  0
   21.9070  -20.3039  -10.9027 N   0  0  0  0  0  0  0  0  0  0  0  0
   20.9488  -21.4436   -8.9629 C   0  0  0  0  0  0  0  0  0  0  0  0
   20.2660  -20.4730   -8.5768 O   0  0  0  0  0  0  0  0  0  0  0  0
   20.5674  -22.7550   -8.6265 N   0  0  0  0  0  0  0  0  0  0  0  0
   19.3902  -23.0785   -7.7859 C   0  0  1  0  0  0  0  0  0  0  0  0
   18.6446  -24.2002   -8.4474 C   0  0  0  0  0  0  0  0  0  0  0  0
   17.8461  -23.7890   -9.6067 C   0  0  0  0  0  0  0  0  0  0  0  0
   17.6260  -22.4345   -9.9405 C   0  0  0  0  0  0  0  0  0  0  0  0
   16.8627  -22.4125  -11.0423 N   0  0  0  0  0  0  0  0  0  0  0  0
   16.5819  -23.6653  -11.4329 C   0  0  0  0  0  0  0  0  0  0  0  0
   17.1891  -24.4664  -10.5470 N   0  0  0  0  0  0  0  0  0  0  0  0
   19.8529  -23.4024   -6.4304 C   0  0  0  0  0  0  0  0  0  0  0  0
   20.9358  -23.9792   -6.2372 O   0  0  0  0  0  0  0  0  0  0  0  0
   19.1041  -23.0826   -5.2862 O   0  0  0  0  0  0  0  0  0  0  0  0
  2  1  1  6
  2  3  1  0
  3  4  1  0
  4  5  2  0
  5  6  1  0
  7  6  1  0
  8  7  2  0
  9  8  1  0
 10 11  1  0
 10  9  2  0
 11 12  2  0
 12  4  1  0
 12  7  1  0
 13 20  1  0
 13  2  1  0
 14 13  2  0
 16 15  1  0
 17 19  1  0
 17 16  1  0
 17 18  1  1
 19 20  1  6
 21 19  1  0
 22 21  2  0
 23 21  1  0
 24 25  1  6
 24 23  1  0
 25 26  1  0
 26 27  2  0
 26 30  1  0
 27 28  1  0
 28 29  1  0
 30 29  2  0
 31 24  1  0
 32 31  2  0
 33 31  1  0
M  END
$$$$
