WIH.pdb
     RDKit          3D

 33 35  0  0  1  0  0  0  0  0999 V2000
   27.5731  -20.6415  -16.8793 N   0  0  0  0  0  0  0  0  0  0  0  0
   27.5394  -19.8319  -15.6807 C   0  0  1  0  0  0  0  0  0  0  0  0
   26.8353  -18.5154  -15.8597 C   0  0  0  0  0  0  0  0  0  0  0  0
   27.3573  -17.7234  -16.9892 C   0  0  0  0  0  0  0  0  0  0  0  0
   26.7188  -17.0564  -17.9917 C   0  0  0  0  0  0  0  0  0  0  0  0
   27.6121  -16.4722  -18.8065 N   0  0  0  0  0  0  0  0  0  0  0  0
   28.8420  -16.7594  -18.3332 C   0  0  0  0  0  0  0  0  0  0  0  0
   30.1098  -16.4263  -18.7611 C   0  0  0  0  0  0  0  0  0  0  0  0
   31.2435  -16.8389  -18.1050 C   0  0  0  0  0  0  0  0  0  0  0  0
   31.1204  -17.6186  -16.9712 C   0  0  0  0  0  0  0  0  0  0  0  0
   29.8464  -17.9511  -16.5448 C   0  0  0  0  0  0  0  0  0  0  0  0
   28.7082  -17.5376  -17.2020 C   0  0  0  0  0  0  0  0  0  0  0  0
   27.0367  -20.5898  -14.5117 C   0  0  0  0  0  0  0  0  0  0  0  0
   26.2308  -21.5354  -14.6802 O   0  0  0  0  0  0  0  0  0  0  0  0
   30.1088  -20.9800  -10.0672 C   0  0  0  0  0  0  0  0  0  0  0  0
   29.0990  -21.3475  -11.1475 C   0  0  0  0  0  0  0  0  0  0  0  0
   27.7251  -20.8732  -10.8159 C   0  0  2  0  0  0  0  0  0  0  0  0
   27.0954  -21.6508   -9.6823 C   0  0  0  0  0  0  0  0  0  0  0  0
   26.7944  -20.8963  -12.0041 C   0  0  2  0  0  0  0  0  0  0  0  0
   27.4260  -20.2980  -13.1783 N   0  0  0  0  0  0  0  0  0  0  0  0
   25.4695  -20.3181  -11.7116 C   0  0  0  0  0  0  0  0  0  0  0  0
   25.3840  -19.1022  -11.4436 O   0  0  0  0  0  0  0  0  0  0  0  0
   24.3148  -21.1210  -11.7301 N   0  0  0  0  0  0  0  0  0  0  0  0
   22.9400  -20.5810  -11.8547 C   0  0  1  0  0  0  0  0  0  0  0  0
   22.6041  -20.5059  -13.3152 C   0  0  0  0  0  0  0  0  0  0  0  0
   21.2665  -19.9748  -13.5971 C   0  0  0  0  0  0  0  0  0  0  0  0
   20.3395  -19.6608  -12.5790 C   0  0  0  0  0  0  0  0  0  0  0  0
   19.2288  -19.2049  -13.1753 N   0  0  0  0  0  0  0  0  0  0  0  0
   19.3875  -19.2077  -14.5079 C   0  0  0  0  0  0  0  0  0  0  0  0
   20.6238  -19.6765  -14.7252 N   0  0  0  0  0  0  0  0  0  0  0  0
   22.0258  -21.4360  -11.0869 C   0  0  0  0  0  0  0  0  0  0  0  0
   21.5068  -21.0422  -10.0294 O   0  0  0  0  0  0  0  0  0  0  0  0
   21.6902  -22.7356  -11.4998 O   0  0  0  0  0  0  0  0  0  0  0  0
  2  1  1  6
  2  3  1  0
  3  4  1  0
  4  5  2  0
  5  6  1  0
  7  6  1  0
  8  7  2  0
  9  8  1  0
 10 11  1  0
 10  9  2  0
 11 12  2  0
 12  4  1  0
 12  7  1  0
 13 20  1  0
 13  2  1  0
 14 13  2  0
 16 15  1  0
 17 19  1  0
 17 16  1  0
 17 18  1  1
 19 20  1  6
 21 19  1  0
 22 21  2  0
 23 21  1  0
 24 25  1  6
 24 23  1  0
 25 26  1  0
 26 27  2  0
 26 30  1  0
 27 28  1  0
 28 29  1  0
 30 29  2  0
 31 24  1  0
 32 31  2  0
 33 31  1  0
M  END
$$$$
