WIH.pdb
     RDKit          3D

 33 35  0  0  1  0  0  0  0  0999 V2000
   19.9277  -13.2536  -15.7088 N   0  0  0  0  0  0  0  0  0  0  0  0
   20.0290  -12.0628  -16.5241 C   0  0  1  0  0  0  0  0  0  0  0  0
   18.7055  -11.5664  -17.0369 C   0  0  0  0  0  0  0  0  0  0  0  0
   17.9968  -12.5530  -17.8734 C   0  0  0  0  0  0  0  0  0  0  0  0
   18.3664  -13.7876  -18.3170 C   0  0  0  0  0  0  0  0  0  0  0  0
   17.3886  -14.3279  -19.0621 N   0  0  0  0  0  0  0  0  0  0  0  0
   16.3737  -13.4405  -19.1055 C   0  0  0  0  0  0  0  0  0  0  0  0
   15.1363  -13.4643  -19.7133 C   0  0  0  0  0  0  0  0  0  0  0  0
   14.2453  -12.4236  -19.6169 C   0  0  0  0  0  0  0  0  0  0  0  0
   14.5924  -11.3045  -18.8851 C   0  0  0  0  0  0  0  0  0  0  0  0
   15.8353  -11.2841  -18.2766 C   0  0  0  0  0  0  0  0  0  0  0  0
   16.7299  -12.3276  -18.3723 C   0  0  0  0  0  0  0  0  0  0  0  0
   20.8149  -10.9983  -15.8585 C   0  0  0  0  0  0  0  0  0  0  0  0
   20.4251  -10.5257  -14.7646 O   0  0  0  0  0  0  0  0  0  0  0  0
   26.1799  -11.0785  -15.5359 C   0  0  0  0  0  0  0  0  0  0  0  0
   24.6779  -10.8725  -15.3835 C   0  0  0  0  0  0  0  0  0  0  0  0
   24.2350   -9.5547  -15.9219 C   0  0  2  0  0  0  0  0  0  0  0  0
   24.9409   -8.3885  -15.2680 C   0  0  0  0  0  0  0  0  0  0  0  0
   22.7434   -9.3491  -15.8143 C   0  0  2  0  0  0  0  0  0  0  0  0
   22.0144  -10.4703  -16.4036 N   0  0  0  0  0  0  0  0  0  0  0  0
   22.3011   -8.0427  -16.3368 C   0  0  0  0  0  0  0  0  0  0  0  0
   22.0154   -7.9387  -17.5471 O   0  0  0  0  0  0  0  0  0  0  0  0
   22.2030   -6.9251  -15.4884 N   0  0  0  0  0  0  0  0  0  0  0  0
   21.6214   -5.6265  -15.9036 C   0  0  1  0  0  0  0  0  0  0  0  0
   20.2642   -5.8932  -16.4852 C   0  0  0  0  0  0  0  0  0  0  0  0
   19.5113   -4.6835  -16.8319 C   0  0  0  0  0  0  0  0  0  0  0  0
   20.0163   -3.6932  -17.7029 C   0  0  0  0  0  0  0  0  0  0  0  0
   19.0852   -2.7338  -17.8015 N   0  0  0  0  0  0  0  0  0  0  0  0
   18.0189   -3.0482  -17.0498 C   0  0  0  0  0  0  0  0  0  0  0  0
   18.3101   -4.2262  -16.4816 N   0  0  0  0  0  0  0  0  0  0  0  0
   21.5944   -4.7286  -14.7420 C   0  0  0  0  0  0  0  0  0  0  0  0
   21.8620   -5.1392  -13.6007 O   0  0  0  0  0  0  0  0  0  0  0  0
   21.2664   -3.3677  -14.8539 O   0  0  0  0  0  0  0  0  0  0  0  0
  2  1  1  1
  2  3  1  0
  3  4  1  0
  4  5  2  0
  5  6  1  0
  7  6  1  0
  8  7  2  0
  9  8  1  0
 10 11  1  0
 10  9  2  0
 11 12  2  0
 12  4  1  0
 12  7  1  0
 13 20  1  0
 13  2  1  0
 14 13  2  0
 16 15  1  0
 17 19  1  0
 17 16  1  0
 17 18  1  1
 19 20  1  6
 21 19  1  0
 22 21  2  0
 23 21  1  0
 24 25  1  1
 24 23  1  0
 25 26  1  0
 26 27  2  0
 26 30  1  0
 27 28  1  0
 28 29  1  0
 30 29  2  0
 31 24  1  0
 32 31  2  0
 33 31  1  0
M  END
$$$$
