WIH.pdb
     RDKit          3D

 33 35  0  0  1  0  0  0  0  0999 V2000
   26.4153  -23.0232  -11.9713 N   0  0  0  0  0  0  0  0  0  0  0  0
   25.8932  -21.7974  -11.4075 C   0  0  1  0  0  0  0  0  0  0  0  0
   26.8342  -20.6302  -11.5216 C   0  0  0  0  0  0  0  0  0  0  0  0
   28.0608  -20.7891  -10.7182 C   0  0  0  0  0  0  0  0  0  0  0  0
   29.2951  -21.2658  -11.0451 C   0  0  0  0  0  0  0  0  0  0  0  0
   30.1088  -21.2254   -9.9775 N   0  0  0  0  0  0  0  0  0  0  0  0
   29.4014  -20.7191   -8.9467 C   0  0  0  0  0  0  0  0  0  0  0  0
   29.7234  -20.4545   -7.6324 C   0  0  0  0  0  0  0  0  0  0  0  0
   28.8215  -19.9240   -6.7429 C   0  0  0  0  0  0  0  0  0  0  0  0
   27.5389  -19.6410   -7.1711 C   0  0  0  0  0  0  0  0  0  0  0  0
   27.2193  -19.9081   -8.4909 C   0  0  0  0  0  0  0  0  0  0  0  0
   28.1233  -20.4400   -9.3844 C   0  0  0  0  0  0  0  0  0  0  0  0
   24.5375  -21.4850  -11.9155 C   0  0  0  0  0  0  0  0  0  0  0  0
   24.1656  -21.9399  -13.0231 O   0  0  0  0  0  0  0  0  0  0  0  0
   21.0819  -20.9338   -7.7130 C   0  0  0  0  0  0  0  0  0  0  0  0
   21.7706  -21.3297   -9.0132 C   0  0  0  0  0  0  0  0  0  0  0  0
   21.4240  -20.4103  -10.1344 C   0  0  2  0  0  0  0  0  0  0  0  0
   19.9407  -20.3760  -10.4255 C   0  0  0  0  0  0  0  0  0  0  0  0
   22.1673  -20.7328  -11.4080 C   0  0  2  0  0  0  0  0  0  0  0  0
   23.6130  -20.6792  -11.2008 N   0  0  0  0  0  0  0  0  0  0  0  0
   21.7247  -19.9206  -12.5567 C   0  0  0  0  0  0  0  0  0  0  0  0
   21.7631  -18.6762  -12.4706 O   0  0  0  0  0  0  0  0  0  0  0  0
   21.2621  -20.5340  -13.7350 N   0  0  0  0  0  0  0  0  0  0  0  0
   20.7599  -19.7829  -14.9100 C   0  0  1  0  0  0  0  0  0  0  0  0
   20.9109  -20.6602  -16.1179 C   0  0  0  0  0  0  0  0  0  0  0  0
   20.4127  -20.0619  -17.3606 C   0  0  0  0  0  0  0  0  0  0  0  0
   20.5182  -18.6815  -17.6393 C   0  0  0  0  0  0  0  0  0  0  0  0
   19.9690  -18.4731  -18.8443 N   0  0  0  0  0  0  0  0  0  0  0  0
   19.5201  -19.6313  -19.3523 C   0  0  0  0  0  0  0  0  0  0  0  0
   19.8036  -20.5645  -18.4335 N   0  0  0  0  0  0  0  0  0  0  0  0
   19.3729  -19.3754  -14.6521 C   0  0  0  0  0  0  0  0  0  0  0  0
   18.5289  -20.1837  -14.2313 O   0  0  0  0  0  0  0  0  0  0  0  0
   18.9255  -18.0615  -14.8656 O   0  0  0  0  0  0  0  0  0  0  0  0
  2  1  1  6
  2  3  1  0
  3  4  1  0
  4  5  2  0
  5  6  1  0
  7  6  1  0
  8  7  2  0
  9  8  1  0
 10 11  1  0
 10  9  2  0
 11 12  2  0
 12  4  1  0
 12  7  1  0
 13 20  1  0
 13  2  1  0
 14 13  2  0
 16 15  1  0
 17 19  1  0
 17 16  1  0
 17 18  1  6
 19 20  1  1
 21 19  1  0
 22 21  2  0
 23 21  1  0
 24 25  1  6
 24 23  1  0
 25 26  1  0
 26 27  2  0
 26 30  1  0
 27 28  1  0
 28 29  1  0
 30 29  2  0
 31 24  1  0
 32 31  2  0
 33 31  1  0
M  END
$$$$
