WIH.pdb
     RDKit          3D

 33 35  0  0  1  0  0  0  0  0999 V2000
   20.3370  -12.8125  -18.5413 N   0  0  0  0  0  0  0  0  0  0  0  0
   20.7660  -11.4356  -18.6562 C   0  0  1  0  0  0  0  0  0  0  0  0
   20.2821  -10.7534  -19.9057 C   0  0  0  0  0  0  0  0  0  0  0  0
   20.7451  -11.4074  -21.1440 C   0  0  0  0  0  0  0  0  0  0  0  0
   21.1361  -12.6891  -21.3927 C   0  0  0  0  0  0  0  0  0  0  0  0
   21.4817  -12.8297  -22.6827 N   0  0  0  0  0  0  0  0  0  0  0  0
   21.3152  -11.6321  -23.2805 C   0  0  0  0  0  0  0  0  0  0  0  0
   21.5109  -11.1978  -24.5744 C   0  0  0  0  0  0  0  0  0  0  0  0
   21.2674   -9.9037  -24.9645 C   0  0  0  0  0  0  0  0  0  0  0  0
   20.8086   -8.9935  -24.0321 C   0  0  0  0  0  0  0  0  0  0  0  0
   20.6136   -9.4329  -22.7343 C   0  0  0  0  0  0  0  0  0  0  0  0
   20.8572  -10.7309  -22.3418 C   0  0  0  0  0  0  0  0  0  0  0  0
   20.4678  -10.6563  -17.4325 C   0  0  0  0  0  0  0  0  0  0  0  0
   19.4124  -10.8779  -16.7929 O   0  0  0  0  0  0  0  0  0  0  0  0
   23.1797  -10.6659  -13.2040 C   0  0  0  0  0  0  0  0  0  0  0  0
   22.1570  -10.4609  -14.3147 C   0  0  0  0  0  0  0  0  0  0  0  0
   21.9772   -9.0201  -14.6529 C   0  0  2  0  0  0  0  0  0  0  0  0
   21.5449   -8.1901  -13.4653 C   0  0  0  0  0  0  0  0  0  0  0  0
   21.0039   -8.8011  -15.7857 C   0  0  2  0  0  0  0  0  0  0  0  0
   21.3314   -9.6476  -16.9312 N   0  0  0  0  0  0  0  0  0  0  0  0
   20.8525   -7.3801  -16.1508 C   0  0  0  0  0  0  0  0  0  0  0  0
   21.8421   -6.7570  -16.5865 O   0  0  0  0  0  0  0  0  0  0  0  0
   19.6133   -6.7298  -16.0096 N   0  0  0  0  0  0  0  0  0  0  0  0
   19.3816   -5.3133  -16.3794 C   0  0  1  0  0  0  0  0  0  0  0  0
   18.0671   -5.2329  -17.0986 C   0  0  0  0  0  0  0  0  0  0  0  0
   18.1191   -5.6751  -18.4958 C   0  0  0  0  0  0  0  0  0  0  0  0
   19.3093   -6.1198  -19.1122 C   0  0  0  0  0  0  0  0  0  0  0  0
   19.0080   -6.4444  -20.3775 N   0  0  0  0  0  0  0  0  0  0  0  0
   17.7025   -6.2357  -20.6080 C   0  0  0  0  0  0  0  0  0  0  0  0
   17.2000   -5.7733  -19.4551 N   0  0  0  0  0  0  0  0  0  0  0  0
   19.4343   -4.4932  -15.1625 C   0  0  0  0  0  0  0  0  0  0  0  0
   18.8532   -4.8421  -14.1217 O   0  0  0  0  0  0  0  0  0  0  0  0
   20.1369   -3.2785  -15.1069 O   0  0  0  0  0  0  0  0  0  0  0  0
  2  1  1  1
  2  3  1  0
  3  4  1  0
  4  5  2  0
  5  6  1  0
  7  6  1  0
  8  7  2  0
  9  8  1  0
 10 11  1  0
 10  9  2  0
 11 12  2  0
 12  4  1  0
 12  7  1  0
 13 20  1  0
 13  2  1  0
 14 13  2  0
 16 15  1  0
 17 19  1  0
 17 16  1  0
 17 18  1  1
 19 20  1  6
 21 19  1  0
 22 21  2  0
 23 21  1  0
 24 25  1  1
 24 23  1  0
 25 26  1  0
 26 27  2  0
 26 30  1  0
 27 28  1  0
 28 29  1  0
 30 29  2  0
 31 24  1  0
 32 31  2  0
 33 31  1  0
M  END
$$$$
