CIE.pdb
     RDKit          3D

 24 23  0  0  1  0  0  0  0  0999 V2000
   28.7055  -20.2454  -15.4622 N   0  0  0  0  0  0  0  0  0  0  0  0
   27.7146  -19.4421  -14.7319 C   0  0  1  0  0  0  0  0  0  0  0  0
   27.1148  -18.4967  -15.7526 C   0  0  0  0  0  0  0  0  0  0  0  0
   28.3387  -17.1642  -16.0139 S   0  0  0  0  0  0  0  0  0  0  0  0
   26.7036  -20.3310  -14.1327 C   0  0  0  0  0  0  0  0  0  0  0  0
   26.4165  -21.4050  -14.6987 O   0  0  0  0  0  0  0  0  0  0  0  0
   26.3551  -20.4154   -8.7193 C   0  0  0  0  0  0  0  0  0  0  0  0
   26.4397  -20.9558  -10.1700 C   0  0  0  0  0  0  0  0  0  0  0  0
   25.1330  -20.6167  -10.7940 C   0  0  2  0  0  0  0  0  0  0  0  0
   23.9661  -21.2521  -10.0674 C   0  0  0  0  0  0  0  0  0  0  0  0
   25.0886  -20.9009  -12.2736 C   0  0  2  0  0  0  0  0  0  0  0  0
   26.0584  -19.9799  -12.9275 N   0  0  0  0  0  0  0  0  0  0  0  0
   23.7795  -20.6301  -12.8872 C   0  0  0  0  0  0  0  0  0  0  0  0
   23.3448  -19.4273  -12.8996 O   0  0  0  0  0  0  0  0  0  0  0  0
   22.9105  -21.5650  -13.4911 N   0  0  0  0  0  0  0  0  0  0  0  0
   21.6061  -21.2550  -14.0013 C   0  0  1  0  0  0  0  0  0  0  0  0
   21.0698  -22.2818  -14.9519 C   0  0  0  0  0  0  0  0  0  0  0  0
   19.6927  -22.0014  -15.4448 C   0  0  0  0  0  0  0  0  0  0  0  0
   19.2951  -23.0778  -16.3652 C   0  0  0  0  0  0  0  0  0  0  0  0
   20.1598  -23.8103  -16.8763 O   0  0  0  0  0  0  0  0  0  0  0  0
   20.6024  -21.0813  -12.9112 C   0  0  0  0  0  0  0  0  0  0  0  0
   19.6531  -20.0747  -13.0113 O   0  0  0  0  0  0  0  0  0  0  0  0
   17.9681  -23.2877  -16.6716 O   0  0  0  0  0  0  0  0  0  0  0  0
   20.5843  -21.8281  -11.8847 O   0  0  0  0  0  0  0  0  0  0  0  0
  2  1  1  6
  3  4  1  0
  3  2  1  0
  5  6  2  0
  5  2  1  0
  7  8  1  0
  8  9  1  0
  9 11  1  0
  9 10  1  1
 11 12  1  6
 11 13  1  0
 12  5  1  0
 13 15  1  0
 14 13  2  0
 15 16  1  0
 16 21  1  0
 16 17  1  6
 17 18  1  0
 19 18  1  0
 19 23  1  0
 20 19  2  0
 21 24  2  0
 21 22  1  0
M  END
$$$$
