CIE.pdb
     RDKit          3D

 24 23  0  0  1  0  0  0  0  0999 V2000
   13.9035  -11.6478  -12.2089 N   0  0  0  0  0  0  0  0  0  0  0  0
   15.1120  -10.9052  -11.8238 C   0  0  1  0  0  0  0  0  0  0  0  0
   16.0366  -10.9690  -13.0223 C   0  0  0  0  0  0  0  0  0  0  0  0
   16.7001  -12.6712  -13.0810 S   0  0  0  0  0  0  0  0  0  0  0  0
   14.7494   -9.5210  -11.4716 C   0  0  0  0  0  0  0  0  0  0  0  0
   13.8093   -8.9607  -12.0702 O   0  0  0  0  0  0  0  0  0  0  0  0
   13.5951   -8.1561   -6.6135 C   0  0  0  0  0  0  0  0  0  0  0  0
   13.5788   -8.1417   -8.1638 C   0  0  0  0  0  0  0  0  0  0  0  0
   14.8445   -7.4720   -8.5654 C   0  0  2  0  0  0  0  0  0  0  0  0
   14.9823   -6.0910   -7.9594 C   0  0  0  0  0  0  0  0  0  0  0  0
   15.0583   -7.4490  -10.0572 C   0  0  2  0  0  0  0  0  0  0  0  0
   15.4538   -8.8248  -10.4660 N   0  0  0  0  0  0  0  0  0  0  0  0
   16.1492   -6.5590  -10.4831 C   0  0  0  0  0  0  0  0  0  0  0  0
   17.3555   -6.9662  -10.3630 O   0  0  0  0  0  0  0  0  0  0  0  0
   16.0283   -5.2639  -11.0327 N   0  0  0  0  0  0  0  0  0  0  0  0
   17.0475   -4.6034  -11.7963 C   0  0  1  0  0  0  0  0  0  0  0  0
   17.5190   -5.3898  -12.9816 C   0  0  0  0  0  0  0  0  0  0  0  0
   18.5182   -4.6819  -13.8292 C   0  0  0  0  0  0  0  0  0  0  0  0
   18.9545   -5.5917  -14.8997 C   0  0  0  0  0  0  0  0  0  0  0  0
   18.4958   -6.7455  -14.9610 O   0  0  0  0  0  0  0  0  0  0  0  0
   16.6040   -3.2668  -12.2889 C   0  0  0  0  0  0  0  0  0  0  0  0
   15.2565   -2.9389  -12.2540 O   0  0  0  0  0  0  0  0  0  0  0  0
   19.8714   -5.1806  -15.8427 O   0  0  0  0  0  0  0  0  0  0  0  0
   17.4222   -2.4093  -12.7437 O   0  0  0  0  0  0  0  0  0  0  0  0
  2  1  1  6
  3  4  1  0
  3  2  1  0
  5  6  2  0
  5  2  1  0
  7  8  1  0
  8  9  1  0
  9 11  1  0
  9 10  1  6
 11 12  1  1
 11 13  1  0
 12  5  1  0
 13 15  1  0
 14 13  2  0
 15 16  1  0
 16 21  1  0
 16 17  1  6
 17 18  1  0
 19 18  1  0
 19 23  1  0
 20 19  2  0
 21 24  2  0
 21 22  1  0
M  END
$$$$
