CIE.pdb
     RDKit          3D

 24 23  0  0  1  0  0  0  0  0999 V2000
   16.6150  -11.5007  -12.3040 N   0  0  0  0  0  0  0  0  0  0  0  0
   17.1539  -10.2037  -11.8707 C   0  0  1  0  0  0  0  0  0  0  0  0
   17.9203   -9.6566  -13.0576 C   0  0  0  0  0  0  0  0  0  0  0  0
   19.5316  -10.5194  -13.0824 S   0  0  0  0  0  0  0  0  0  0  0  0
   16.0466   -9.3197  -11.4657 C   0  0  0  0  0  0  0  0  0  0  0  0
   15.0242   -9.2500  -12.1769 O   0  0  0  0  0  0  0  0  0  0  0  0
   12.9331   -9.8175   -7.6458 C   0  0  0  0  0  0  0  0  0  0  0  0
   13.5496   -9.3815   -9.0000 C   0  0  0  0  0  0  0  0  0  0  0  0
   14.3595   -8.1725   -8.6937 C   0  0  2  0  0  0  0  0  0  0  0  0
   13.5627   -7.1181   -7.9543 C   0  0  0  0  0  0  0  0  0  0  0  0
   15.0539   -7.5993   -9.9025 C   0  0  2  0  0  0  0  0  0  0  0  0
   16.1316   -8.5530  -10.2838 N   0  0  0  0  0  0  0  0  0  0  0  0
   15.7117   -6.3086   -9.6481 C   0  0  0  0  0  0  0  0  0  0  0  0
   16.6673   -6.2637   -8.7992 O   0  0  0  0  0  0  0  0  0  0  0  0
   15.4132   -5.0659  -10.2485 N   0  0  0  0  0  0  0  0  0  0  0  0
   16.0437   -3.8231   -9.9082 C   0  0  1  0  0  0  0  0  0  0  0  0
   16.2209   -2.8970  -11.0729 C   0  0  0  0  0  0  0  0  0  0  0  0
   17.0180   -3.4673  -12.1943 C   0  0  0  0  0  0  0  0  0  0  0  0
   17.0977   -2.4670  -13.2700 C   0  0  0  0  0  0  0  0  0  0  0  0
   18.1983   -1.9886  -13.5942 O   0  0  0  0  0  0  0  0  0  0  0  0
   15.2936   -3.0822   -8.8526 C   0  0  0  0  0  0  0  0  0  0  0  0
   15.8914   -2.0009   -8.2219 O   0  0  0  0  0  0  0  0  0  0  0  0
   15.9616   -2.0495  -13.9286 O   0  0  0  0  0  0  0  0  0  0  0  0
   14.1165   -3.4077   -8.5063 O   0  0  0  0  0  0  0  0  0  0  0  0
  2  1  1  6
  3  4  1  0
  3  2  1  0
  5  6  2  0
  5  2  1  0
  7  8  1  0
  8  9  1  0
  9 11  1  0
  9 10  1  6
 11 12  1  1
 11 13  1  0
 12  5  1  0
 13 15  1  0
 14 13  2  0
 15 16  1  0
 16 21  1  0
 16 17  1  6
 17 18  1  0
 19 18  1  0
 19 23  1  0
 20 19  2  0
 21 24  2  0
 21 22  1  0
M  END
$$$$
