CIE.pdb
     RDKit          3D

 24 23  0  0  1  0  0  0  0  0999 V2000
   28.4103  -21.0946  -16.3313 N   0  0  0  0  0  0  0  0  0  0  0  0
   27.6895  -20.1103  -15.5115 C   0  0  1  0  0  0  0  0  0  0  0  0
   27.0095  -19.1749  -16.4902 C   0  0  0  0  0  0  0  0  0  0  0  0
   28.2461  -17.9095  -16.9498 S   0  0  0  0  0  0  0  0  0  0  0  0
   26.7247  -20.8049  -14.6409 C   0  0  0  0  0  0  0  0  0  0  0  0
   26.0956  -21.7877  -15.0820 O   0  0  0  0  0  0  0  0  0  0  0  0
   25.4147  -20.8888   -8.6534 C   0  0  0  0  0  0  0  0  0  0  0  0
   24.8628  -21.2780  -10.0490 C   0  0  0  0  0  0  0  0  0  0  0  0
   25.8355  -20.7221  -11.0269 C   0  0  2  0  0  0  0  0  0  0  0  0
   26.1120  -19.2519  -10.7912 C   0  0  0  0  0  0  0  0  0  0  0  0
   25.4596  -20.9947  -12.4609 C   0  0  2  0  0  0  0  0  0  0  0  0
   26.5060  -20.3702  -13.3161 N   0  0  0  0  0  0  0  0  0  0  0  0
   24.1801  -20.3891  -12.8606 C   0  0  0  0  0  0  0  0  0  0  0  0
   24.1943  -19.2422  -13.4263 O   0  0  0  0  0  0  0  0  0  0  0  0
   22.8889  -20.9365  -12.6962 N   0  0  0  0  0  0  0  0  0  0  0  0
   21.7103  -20.4605  -13.3612 C   0  0  1  0  0  0  0  0  0  0  0  0
   21.7878  -20.5369  -14.8558 C   0  0  0  0  0  0  0  0  0  0  0  0
   20.6251  -19.9308  -15.5620 C   0  0  0  0  0  0  0  0  0  0  0  0
   20.5441  -20.5067  -16.9132 C   0  0  0  0  0  0  0  0  0  0  0  0
   20.1864  -21.6875  -17.0658 O   0  0  0  0  0  0  0  0  0  0  0  0
   20.4864  -21.1992  -12.9344 C   0  0  0  0  0  0  0  0  0  0  0  0
   19.2364  -20.6544  -13.1896 O   0  0  0  0  0  0  0  0  0  0  0  0
   20.8612  -19.7508  -18.0208 O   0  0  0  0  0  0  0  0  0  0  0  0
   20.5466  -22.3193  -12.3401 O   0  0  0  0  0  0  0  0  0  0  0  0
  2  1  1  6
  3  4  1  0
  3  2  1  0
  5  6  2  0
  5  2  1  0
  7  8  1  0
  8  9  1  0
  9 11  1  0
  9 10  1  6
 11 12  1  6
 11 13  1  0
 12  5  1  0
 13 15  1  0
 14 13  2  0
 15 16  1  0
 16 21  1  0
 16 17  1  6
 17 18  1  0
 19 18  1  0
 19 23  1  0
 20 19  2  0
 21 24  2  0
 21 22  1  0
M  END
$$$$
