CIE.pdb
     RDKit          3D

 24 23  0  0  1  0  0  0  0  0999 V2000
   21.4308  -13.4774  -18.3588 N   0  0  0  0  0  0  0  0  0  0  0  0
   22.0300  -12.1517  -18.5686 C   0  0  1  0  0  0  0  0  0  0  0  0
   20.9084  -11.2650  -19.0694 C   0  0  0  0  0  0  0  0  0  0  0  0
   20.5756  -11.7671  -20.7953 S   0  0  0  0  0  0  0  0  0  0  0  0
   22.6043  -11.6638  -17.3023 C   0  0  0  0  0  0  0  0  0  0  0  0
   22.0485  -11.9530  -16.2236 O   0  0  0  0  0  0  0  0  0  0  0  0
   27.8080  -11.9454  -16.4419 C   0  0  0  0  0  0  0  0  0  0  0  0
   26.2673  -11.9773  -16.2714 C   0  0  0  0  0  0  0  0  0  0  0  0
   25.8570  -10.5553  -16.1260 C   0  0  2  0  0  0  0  0  0  0  0  0
   26.5818   -9.8602  -14.9925 C   0  0  0  0  0  0  0  0  0  0  0  0
   24.3640  -10.3739  -16.0260 C   0  0  2  0  0  0  0  0  0  0  0  0
   23.7742  -10.8743  -17.2981 N   0  0  0  0  0  0  0  0  0  0  0  0
   23.9477   -8.9689  -15.8990 C   0  0  0  0  0  0  0  0  0  0  0  0
   24.0908   -8.3864  -14.7695 O   0  0  0  0  0  0  0  0  0  0  0  0
   23.3925   -8.1492  -16.9059 N   0  0  0  0  0  0  0  0  0  0  0  0
   22.9503   -6.7992  -16.7069 C   0  0  1  0  0  0  0  0  0  0  0  0
   22.8947   -5.9900  -17.9669 C   0  0  0  0  0  0  0  0  0  0  0  0
   21.7538   -6.3273  -18.8628 C   0  0  0  0  0  0  0  0  0  0  0  0
   21.7899   -5.4294  -20.0274 C   0  0  0  0  0  0  0  0  0  0  0  0
   22.7061   -4.5972  -20.1433 O   0  0  0  0  0  0  0  0  0  0  0  0
   21.6022   -6.7368  -16.0707 C   0  0  0  0  0  0  0  0  0  0  0  0
   21.1833   -5.5570  -15.4730 O   0  0  0  0  0  0  0  0  0  0  0  0
   20.8154   -5.4976  -20.9994 O   0  0  0  0  0  0  0  0  0  0  0  0
   20.8159   -7.7333  -16.0556 O   0  0  0  0  0  0  0  0  0  0  0  0
  2  1  1  1
  3  4  1  0
  3  2  1  0
  5  6  2  0
  5  2  1  0
  7  8  1  0
  8  9  1  0
  9 11  1  0
  9 10  1  1
 11 12  1  6
 11 13  1  0
 12  5  1  0
 13 15  1  0
 14 13  2  0
 15 16  1  0
 16 21  1  0
 16 17  1  6
 17 18  1  0
 19 18  1  0
 19 23  1  0
 20 19  2  0
 21 24  2  0
 21 22  1  0
M  END
$$$$
