CIE.pdb
     RDKit          3D

 24 23  0  0  1  0  0  0  0  0999 V2000
   18.7067  -13.1002  -16.1329 N   0  0  0  0  0  0  0  0  0  0  0  0
   19.5176  -12.1140  -16.8613 C   0  0  1  0  0  0  0  0  0  0  0  0
   18.5311  -11.1594  -17.5022 C   0  0  0  0  0  0  0  0  0  0  0  0
   17.5723  -10.4058  -16.1405 S   0  0  0  0  0  0  0  0  0  0  0  0
   20.4253  -11.4314  -15.9223 C   0  0  0  0  0  0  0  0  0  0  0  0
   20.1629  -11.4332  -14.7028 O   0  0  0  0  0  0  0  0  0  0  0  0
   25.5853  -12.1111  -15.7900 C   0  0  0  0  0  0  0  0  0  0  0  0
   24.1271  -11.8289  -15.3453 C   0  0  0  0  0  0  0  0  0  0  0  0
   23.8706  -10.4104  -15.7112 C   0  0  2  0  0  0  0  0  0  0  0  0
   24.8574   -9.4616  -15.0635 C   0  0  0  0  0  0  0  0  0  0  0  0
   22.4459   -9.9818  -15.4698 C   0  0  2  0  0  0  0  0  0  0  0  0
   21.5858  -10.7773  -16.3885 N   0  0  0  0  0  0  0  0  0  0  0  0
   22.1940   -8.5674  -15.7850 C   0  0  0  0  0  0  0  0  0  0  0  0
   22.1851   -8.2042  -17.0113 O   0  0  0  0  0  0  0  0  0  0  0  0
   21.9472   -7.5203  -14.8704 N   0  0  0  0  0  0  0  0  0  0  0  0
   21.7243   -6.1516  -15.2379 C   0  0  1  0  0  0  0  0  0  0  0  0
   20.2794   -5.8071  -15.4358 C   0  0  0  0  0  0  0  0  0  0  0  0
   20.0315   -4.3817  -15.7889 C   0  0  0  0  0  0  0  0  0  0  0  0
   18.5820   -4.1805  -15.9396 C   0  0  0  0  0  0  0  0  0  0  0  0
   17.7964   -5.1143  -15.7027 O   0  0  0  0  0  0  0  0  0  0  0  0
   22.2812   -5.2011  -14.2319 C   0  0  0  0  0  0  0  0  0  0  0  0
   22.7554   -3.9659  -14.6490 O   0  0  0  0  0  0  0  0  0  0  0  0
   18.0785   -2.9628  -16.3426 O   0  0  0  0  0  0  0  0  0  0  0  0
   22.3381   -5.4832  -12.9955 O   0  0  0  0  0  0  0  0  0  0  0  0
  2  1  1  1
  3  4  1  0
  3  2  1  0
  5  6  2  0
  5  2  1  0
  7  8  1  0
  8  9  1  0
  9 11  1  0
  9 10  1  1
 11 12  1  6
 11 13  1  0
 12  5  1  0
 13 15  1  0
 14 13  2  0
 15 16  1  0
 16 21  1  0
 16 17  1  1
 17 18  1  0
 19 18  1  0
 19 23  1  0
 20 19  2  0
 21 24  2  0
 21 22  1  0
M  END
$$$$
