CIE.pdb
     RDKit          3D

 24 23  0  0  1  0  0  0  0  0999 V2000
   17.3064  -12.9373  -15.0812 N   0  0  0  0  0  0  0  0  0  0  0  0
   17.9047  -11.9794  -16.0218 C   0  0  1  0  0  0  0  0  0  0  0  0
   16.7664  -11.4886  -16.8928 C   0  0  0  0  0  0  0  0  0  0  0  0
   16.1494  -12.9414  -17.8149 S   0  0  0  0  0  0  0  0  0  0  0  0
   18.5450  -10.8849  -15.2710 C   0  0  0  0  0  0  0  0  0  0  0  0
   18.0066  -10.4561  -14.2307 O   0  0  0  0  0  0  0  0  0  0  0  0
   23.7676  -10.8387  -14.3443 C   0  0  0  0  0  0  0  0  0  0  0  0
   22.2302  -10.6958  -14.2034 C   0  0  0  0  0  0  0  0  0  0  0  0
   21.8785   -9.4605  -14.9529 C   0  0  2  0  0  0  0  0  0  0  0  0
   22.6577   -8.2542  -14.4722 C   0  0  0  0  0  0  0  0  0  0  0  0
   20.3965   -9.1876  -14.9885 C   0  0  2  0  0  0  0  0  0  0  0  0
   19.7586  -10.3186  -15.7166 N   0  0  0  0  0  0  0  0  0  0  0  0
   20.0394   -7.9651  -15.7243 C   0  0  0  0  0  0  0  0  0  0  0  0
   20.3322   -7.8894  -16.9669 O   0  0  0  0  0  0  0  0  0  0  0  0
   19.3853   -6.8225  -15.2139 N   0  0  0  0  0  0  0  0  0  0  0  0
   19.0182   -5.6760  -15.9942 C   0  0  1  0  0  0  0  0  0  0  0  0
   17.5734   -5.2985  -15.8701 C   0  0  0  0  0  0  0  0  0  0  0  0
   17.1606   -4.1590  -16.7357 C   0  0  0  0  0  0  0  0  0  0  0  0
   15.7239   -3.9140  -16.5359 C   0  0  0  0  0  0  0  0  0  0  0  0
   15.1640   -2.9771  -17.1310 O   0  0  0  0  0  0  0  0  0  0  0  0
   19.8304   -4.4743  -15.6447 C   0  0  0  0  0  0  0  0  0  0  0  0
   19.9191   -3.4243  -16.5470 O   0  0  0  0  0  0  0  0  0  0  0  0
   14.9840   -4.7139  -15.6924 O   0  0  0  0  0  0  0  0  0  0  0  0
   20.4497   -4.3755  -14.5410 O   0  0  0  0  0  0  0  0  0  0  0  0
  2  1  1  1
  3  4  1  0
  3  2  1  0
  5  6  2  0
  5  2  1  0
  7  8  1  0
  8  9  1  0
  9 11  1  0
  9 10  1  1
 11 12  1  6
 11 13  1  0
 12  5  1  0
 13 15  1  0
 14 13  2  0
 15 16  1  0
 16 21  1  0
 16 17  1  1
 17 18  1  0
 19 18  1  0
 19 23  1  0
 20 19  2  0
 21 24  2  0
 21 22  1  0
M  END
$$$$
