CIE.pdb
     RDKit          3D

 24 23  0  0  1  0  0  0  0  0999 V2000
   24.6816  -13.7003  -18.5772 N   0  0  0  0  0  0  0  0  0  0  0  0
   24.1168  -13.1524  -17.3358 C   0  0  1  0  0  0  0  0  0  0  0  0
   25.2792  -12.5251  -16.5937 C   0  0  0  0  0  0  0  0  0  0  0  0
   26.2349  -13.9001  -15.8606 S   0  0  0  0  0  0  0  0  0  0  0  0
   23.0678  -12.1704  -17.6622 C   0  0  0  0  0  0  0  0  0  0  0  0
   23.1874  -11.4585  -18.6796 O   0  0  0  0  0  0  0  0  0  0  0  0
   18.2471  -13.1814  -18.8004 C   0  0  0  0  0  0  0  0  0  0  0  0
   19.5570  -12.3528  -18.7644 C   0  0  0  0  0  0  0  0  0  0  0  0
   19.6052  -11.7498  -17.4058 C   0  0  2  0  0  0  0  0  0  0  0  0
   18.3900  -10.8951  -17.1121 C   0  0  0  0  0  0  0  0  0  0  0  0
   20.8876  -11.0076  -17.1292 C   0  0  2  0  0  0  0  0  0  0  0  0
   21.9317  -12.0278  -16.8369 N   0  0  0  0  0  0  0  0  0  0  0  0
   20.8197  -10.1322  -15.9492 C   0  0  0  0  0  0  0  0  0  0  0  0
   20.6378  -10.6640  -14.8004 O   0  0  0  0  0  0  0  0  0  0  0  0
   20.9387   -8.7254  -15.9226 N   0  0  0  0  0  0  0  0  0  0  0  0
   20.8454   -7.9212  -14.7383 C   0  0  1  0  0  0  0  0  0  0  0  0
   21.5599   -6.6080  -14.8423 C   0  0  0  0  0  0  0  0  0  0  0  0
   21.5852   -5.8218  -13.5777 C   0  0  0  0  0  0  0  0  0  0  0  0
   22.2525   -4.5367  -13.8372 C   0  0  0  0  0  0  0  0  0  0  0  0
   23.4700   -4.5070  -14.0864 O   0  0  0  0  0  0  0  0  0  0  0  0
   19.4301   -7.6364  -14.3618 C   0  0  0  0  0  0  0  0  0  0  0  0
   19.0658   -7.6402  -13.0232 O   0  0  0  0  0  0  0  0  0  0  0  0
   21.5423   -3.3562  -13.8077 O   0  0  0  0  0  0  0  0  0  0  0  0
   18.5374   -7.3882  -15.2295 O   0  0  0  0  0  0  0  0  0  0  0  0
  2  1  1  6
  3  4  1  0
  3  2  1  0
  5  6  2  0
  5  2  1  0
  7  8  1  0
  8  9  1  0
  9 11  1  0
  9 10  1  6
 11 12  1  1
 11 13  1  0
 12  5  1  0
 13 15  1  0
 14 13  2  0
 15 16  1  0
 16 21  1  0
 16 17  1  6
 17 18  1  0
 19 18  1  0
 19 23  1  0
 20 19  2  0
 21 24  2  0
 21 22  1  0
M  END
$$$$
