CIE.pdb
     RDKit          3D

 24 23  0  0  1  0  0  0  0  0999 V2000
   19.6146  -12.7531  -19.2710 N   0  0  0  0  0  0  0  0  0  0  0  0
   20.5004  -11.5805  -19.2988 C   0  0  1  0  0  0  0  0  0  0  0  0
   19.8596  -10.6004  -20.2600 C   0  0  0  0  0  0  0  0  0  0  0  0
   20.1296  -11.2645  -21.9416 S   0  0  0  0  0  0  0  0  0  0  0  0
   20.6283  -11.0264  -17.9394 C   0  0  0  0  0  0  0  0  0  0  0  0
   19.6656  -11.1060  -17.1501 O   0  0  0  0  0  0  0  0  0  0  0  0
   22.5648  -12.1716  -14.1382 C   0  0  0  0  0  0  0  0  0  0  0  0
   23.3165  -11.8732  -15.4611 C   0  0  0  0  0  0  0  0  0  0  0  0
   23.2886  -10.3933  -15.6054 C   0  0  2  0  0  0  0  0  0  0  0  0
   23.6924   -9.6830  -14.3304 C   0  0  0  0  0  0  0  0  0  0  0  0
   21.9801   -9.8723  -16.1422 C   0  0  2  0  0  0  0  0  0  0  0  0
   21.8266  -10.4080  -17.5227 N   0  0  0  0  0  0  0  0  0  0  0  0
   21.9313   -8.4067  -16.2571 C   0  0  0  0  0  0  0  0  0  0  0  0
   22.6792   -7.8339  -17.1221 O   0  0  0  0  0  0  0  0  0  0  0  0
   21.1296   -7.5183  -15.5075 N   0  0  0  0  0  0  0  0  0  0  0  0
   20.8812   -6.1497  -15.8584 C   0  0  1  0  0  0  0  0  0  0  0  0
   20.3604   -5.9686  -17.2519 C   0  0  0  0  0  0  0  0  0  0  0  0
   20.1045   -4.5515  -17.6316 C   0  0  0  0  0  0  0  0  0  0  0  0
   19.5746   -4.5214  -19.0036 C   0  0  0  0  0  0  0  0  0  0  0  0
   18.6339   -3.7610  -19.2907 O   0  0  0  0  0  0  0  0  0  0  0  0
   19.9157   -5.4965  -14.9273 C   0  0  0  0  0  0  0  0  0  0  0  0
   20.1288   -4.1835  -14.5337 O   0  0  0  0  0  0  0  0  0  0  0  0
   20.1097   -5.3298  -19.9828 O   0  0  0  0  0  0  0  0  0  0  0  0
   18.8959   -6.1036  -14.4770 O   0  0  0  0  0  0  0  0  0  0  0  0
  2  1  1  1
  3  4  1  0
  3  2  1  0
  5  6  2  0
  5  2  1  0
  7  8  1  0
  8  9  1  0
  9 11  1  0
  9 10  1  1
 11 12  1  6
 11 13  1  0
 12  5  1  0
 13 15  1  0
 14 13  2  0
 15 16  1  0
 16 21  1  0
 16 17  1  6
 17 18  1  0
 19 18  1  0
 19 23  1  0
 20 19  2  0
 21 24  2  0
 21 22  1  0
M  END
$$$$
