CIE.pdb
     RDKit          3D

 24 23  0  0  1  0  0  0  0  0999 V2000
   27.1198  -20.9905  -10.8193 N   0  0  0  0  0  0  0  0  0  0  0  0
   25.6628  -21.1849  -10.8167 C   0  0  1  0  0  0  0  0  0  0  0  0
   25.1185  -20.2210   -9.7823 C   0  0  0  0  0  0  0  0  0  0  0  0
   25.7909  -20.7521   -8.1676 S   0  0  0  0  0  0  0  0  0  0  0  0
   25.1272  -20.9194  -12.1635 C   0  0  0  0  0  0  0  0  0  0  0  0
   25.6952  -20.0859  -12.8976 O   0  0  0  0  0  0  0  0  0  0  0  0
   25.4993  -24.1823  -15.7268 C   0  0  0  0  0  0  0  0  0  0  0  0
   25.3303  -22.8520  -14.9487 C   0  0  0  0  0  0  0  0  0  0  0  0
   23.8629  -22.6753  -14.7834 C   0  0  2  0  0  0  0  0  0  0  0  0
   23.1199  -22.7712  -16.0995 C   0  0  0  0  0  0  0  0  0  0  0  0
   23.4956  -21.4245  -14.0268 C   0  0  2  0  0  0  0  0  0  0  0  0
   23.9805  -21.5973  -12.6299 N   0  0  0  0  0  0  0  0  0  0  0  0
   22.0457  -21.1932  -13.9380 C   0  0  0  0  0  0  0  0  0  0  0  0
   21.3197  -22.0679  -13.3520 O   0  0  0  0  0  0  0  0  0  0  0  0
   21.3269  -20.0833  -14.4333 N   0  0  0  0  0  0  0  0  0  0  0  0
   19.9065  -19.9160  -14.3226 C   0  0  1  0  0  0  0  0  0  0  0  0
   19.4183  -18.5768  -14.7850 C   0  0  0  0  0  0  0  0  0  0  0  0
   17.9596  -18.3531  -14.5848 C   0  0  0  0  0  0  0  0  0  0  0  0
   17.6122  -17.0232  -15.1089 C   0  0  0  0  0  0  0  0  0  0  0  0
   18.4565  -16.3625  -15.7381 O   0  0  0  0  0  0  0  0  0  0  0  0
   19.1564  -20.9573  -15.0836 C   0  0  0  0  0  0  0  0  0  0  0  0
   18.0236  -21.5291  -14.5231 O   0  0  0  0  0  0  0  0  0  0  0  0
   16.3549  -16.4950  -14.9111 O   0  0  0  0  0  0  0  0  0  0  0  0
   19.5199  -21.3436  -16.2370 O   0  0  0  0  0  0  0  0  0  0  0  0
  2  1  1  6
  3  4  1  0
  3  2  1  0
  5  6  2  0
  5  2  1  0
  7  8  1  0
  8  9  1  0
  9 11  1  0
  9 10  1  6
 11 12  1  1
 11 13  1  0
 12  5  1  0
 13 15  1  0
 14 13  2  0
 15 16  1  0
 16 21  1  0
 16 17  1  6
 17 18  1  0
 19 18  1  0
 19 23  1  0
 20 19  2  0
 21 24  2  0
 21 22  1  0
M  END
$$$$
