CIE.pdb
     RDKit          3D

 24 23  0  0  1  0  0  0  0  0999 V2000
   28.4727  -21.1519  -15.4733 N   0  0  0  0  0  0  0  0  0  0  0  0
   27.6608  -20.1484  -14.7702 C   0  0  1  0  0  0  0  0  0  0  0  0
   27.2253  -19.1540  -15.8270 C   0  0  0  0  0  0  0  0  0  0  0  0
   28.7191  -18.2186  -16.3122 S   0  0  0  0  0  0  0  0  0  0  0  0
   26.5154  -20.8085  -14.1191 C   0  0  0  0  0  0  0  0  0  0  0  0
   25.9876  -21.7999  -14.6618 O   0  0  0  0  0  0  0  0  0  0  0  0
   26.2119  -20.7028   -8.6705 C   0  0  0  0  0  0  0  0  0  0  0  0
   26.1938  -21.2609  -10.1169 C   0  0  0  0  0  0  0  0  0  0  0  0
   24.9721  -20.6906  -10.7446 C   0  0  2  0  0  0  0  0  0  0  0  0
   23.7105  -21.0715   -9.9986 C   0  0  0  0  0  0  0  0  0  0  0  0
   24.8618  -20.9951  -12.2166 C   0  0  2  0  0  0  0  0  0  0  0  0
   26.0112  -20.3309  -12.8904 N   0  0  0  0  0  0  0  0  0  0  0  0
   23.6447  -20.4546  -12.8412 C   0  0  0  0  0  0  0  0  0  0  0  0
   23.4672  -19.1880  -12.8438 O   0  0  0  0  0  0  0  0  0  0  0  0
   22.6099  -21.1846  -13.4658 N   0  0  0  0  0  0  0  0  0  0  0  0
   21.4138  -20.6050  -14.0056 C   0  0  1  0  0  0  0  0  0  0  0  0
   20.8862  -21.3219  -15.2111 C   0  0  0  0  0  0  0  0  0  0  0  0
   19.7096  -20.6675  -15.8478 C   0  0  0  0  0  0  0  0  0  0  0  0
   19.2595  -21.5022  -16.9723 C   0  0  0  0  0  0  0  0  0  0  0  0
   18.3254  -21.1182  -17.6972 O   0  0  0  0  0  0  0  0  0  0  0  0
   20.3141  -20.5448  -12.9991 C   0  0  0  0  0  0  0  0  0  0  0  0
   19.4141  -19.4897  -13.0337 O   0  0  0  0  0  0  0  0  0  0  0  0
   19.8626  -22.7128  -17.2360 O   0  0  0  0  0  0  0  0  0  0  0  0
   20.1698  -21.4321  -12.1028 O   0  0  0  0  0  0  0  0  0  0  0  0
  2  1  1  6
  3  4  1  0
  3  2  1  0
  5  6  2  0
  5  2  1  0
  7  8  1  0
  8  9  1  0
  9 11  1  0
  9 10  1  1
 11 12  1  6
 11 13  1  0
 12  5  1  0
 13 15  1  0
 14 13  2  0
 15 16  1  0
 16 21  1  0
 16 17  1  6
 17 18  1  0
 19 18  1  0
 19 23  1  0
 20 19  2  0
 21 24  2  0
 21 22  1  0
M  END
$$$$
