CIE.pdb
     RDKit          3D

 24 23  0  0  1  0  0  0  0  0999 V2000
   25.3336  -29.4529  -16.6230 N   0  0  0  0  0  0  0  0  0  0  0  0
   26.7909  -29.4928  -16.4354 C   0  0  1  0  0  0  0  0  0  0  0  0
   27.2067  -30.9203  -16.7263 C   0  0  0  0  0  0  0  0  0  0  0  0
   28.9982  -31.0245  -16.3780 S   0  0  0  0  0  0  0  0  0  0  0  0
   27.4323  -28.5280  -17.3461 C   0  0  0  0  0  0  0  0  0  0  0  0
   26.9029  -28.2769  -18.4474 O   0  0  0  0  0  0  0  0  0  0  0  0
   28.3471  -23.5635  -16.4746 C   0  0  0  0  0  0  0  0  0  0  0  0
   28.0638  -24.9343  -17.1415 C   0  0  0  0  0  0  0  0  0  0  0  0
   29.3860  -25.6088  -17.2340 C   0  0  2  0  0  0  0  0  0  0  0  0
   30.4449  -24.7175  -17.8485 C   0  0  0  0  0  0  0  0  0  0  0  0
   29.3230  -26.9507  -17.9174 C   0  0  2  0  0  0  0  0  0  0  0  0
   28.6368  -27.8870  -16.9852 N   0  0  0  0  0  0  0  0  0  0  0  0
   30.6444  -27.5341  -18.1947 C   0  0  0  0  0  0  0  0  0  0  0  0
   31.4077  -27.8203  -17.2092 O   0  0  0  0  0  0  0  0  0  0  0  0
   31.1966  -27.8334  -19.4594 N   0  0  0  0  0  0  0  0  0  0  0  0
   32.4780  -28.4441  -19.6661 C   0  0  1  0  0  0  0  0  0  0  0  0
   32.5070  -29.4155  -20.8069 C   0  0  0  0  0  0  0  0  0  0  0  0
   33.8135  -30.1062  -20.9912 C   0  0  0  0  0  0  0  0  0  0  0  0
   33.7014  -31.0257  -22.1340 C   0  0  0  0  0  0  0  0  0  0  0  0
   34.7200  -31.5621  -22.6031 O   0  0  0  0  0  0  0  0  0  0  0  0
   33.5503  -27.4347  -19.9055 C   0  0  0  0  0  0  0  0  0  0  0  0
   34.8217  -27.6556  -19.3965 O   0  0  0  0  0  0  0  0  0  0  0  0
   32.4745  -31.3032  -22.6965 O   0  0  0  0  0  0  0  0  0  0  0  0
   33.3405  -26.3701  -20.5645 O   0  0  0  0  0  0  0  0  0  0  0  0
  2  1  1  6
  3  4  1  0
  3  2  1  0
  5  6  2  0
  5  2  1  0
  7  8  1  0
  8  9  1  0
  9 11  1  0
  9 10  1  6
 11 12  1  1
 11 13  1  0
 12  5  1  0
 13 15  1  0
 14 13  2  0
 15 16  1  0
 16 21  1  0
 16 17  1  6
 17 18  1  0
 19 18  1  0
 19 23  1  0
 20 19  2  0
 21 24  2  0
 21 22  1  0
M  END
$$$$
