CIE.pdb
     RDKit          3D

 24 23  0  0  1  0  0  0  0  0999 V2000
   18.1359  -12.6453  -17.3427 N   0  0  0  0  0  0  0  0  0  0  0  0
   18.9055  -11.4453  -17.7009 C   0  0  1  0  0  0  0  0  0  0  0  0
   17.8807  -10.3819  -18.0389 C   0  0  0  0  0  0  0  0  0  0  0  0
   17.1149  -10.8782  -19.6227 S   0  0  0  0  0  0  0  0  0  0  0  0
   19.7639  -11.0536  -16.5690 C   0  0  0  0  0  0  0  0  0  0  0  0
   19.3103  -11.1023  -15.4079 O   0  0  0  0  0  0  0  0  0  0  0  0
   24.4789  -13.0437  -15.8785 C   0  0  0  0  0  0  0  0  0  0  0  0
   23.0749  -12.4355  -15.6278 C   0  0  0  0  0  0  0  0  0  0  0  0
   23.2509  -10.9656  -15.7692 C   0  0  2  0  0  0  0  0  0  0  0  0
   24.3109  -10.4204  -14.8351 C   0  0  0  0  0  0  0  0  0  0  0  0
   21.9590  -10.1977  -15.6536 C   0  0  2  0  0  0  0  0  0  0  0  0
   21.0910  -10.6248  -16.7853 N   0  0  0  0  0  0  0  0  0  0  0  0
   22.1246   -8.7419  -15.7830 C   0  0  0  0  0  0  0  0  0  0  0  0
   22.3493   -8.2506  -16.9422 O   0  0  0  0  0  0  0  0  0  0  0  0
   22.0602   -7.7809  -14.7504 N   0  0  0  0  0  0  0  0  0  0  0  0
   22.1219   -6.3619  -14.9518 C   0  0  1  0  0  0  0  0  0  0  0  0
   21.0000   -5.8208  -15.7850 C   0  0  0  0  0  0  0  0  0  0  0  0
   19.6440   -6.0603  -15.2178 C   0  0  0  0  0  0  0  0  0  0  0  0
   18.6457   -5.4671  -16.1210 C   0  0  0  0  0  0  0  0  0  0  0  0
   18.1285   -4.3714  -15.8429 O   0  0  0  0  0  0  0  0  0  0  0  0
   22.1299   -5.6106  -13.6628 C   0  0  0  0  0  0  0  0  0  0  0  0
   22.4560   -4.2622  -13.6606 O   0  0  0  0  0  0  0  0  0  0  0  0
   18.2727   -6.1132  -17.2796 O   0  0  0  0  0  0  0  0  0  0  0  0
   21.8464   -6.1648  -12.5565 O   0  0  0  0  0  0  0  0  0  0  0  0
  2  1  1  1
  3  4  1  0
  3  2  1  0
  5  6  2  0
  5  2  1  0
  7  8  1  0
  8  9  1  0
  9 11  1  0
  9 10  1  1
 11 12  1  6
 11 13  1  0
 12  5  1  0
 13 15  1  0
 14 13  2  0
 15 16  1  0
 16 21  1  0
 16 17  1  6
 17 18  1  0
 19 18  1  0
 19 23  1  0
 20 19  2  0
 21 24  2  0
 21 22  1  0
M  END
$$$$
