CIE.pdb
     RDKit          3D

 24 23  0  0  1  0  0  0  0  0999 V2000
   14.3311  -12.9507  -13.2549 N   0  0  0  0  0  0  0  0  0  0  0  0
   15.5354  -12.2780  -12.7473 C   0  0  1  0  0  0  0  0  0  0  0  0
   16.5492  -12.3402  -13.8714 C   0  0  0  0  0  0  0  0  0  0  0  0
   17.1673  -14.0597  -13.9237 S   0  0  0  0  0  0  0  0  0  0  0  0
   15.2046  -10.8924  -12.3700 C   0  0  0  0  0  0  0  0  0  0  0  0
   14.5445  -10.1825  -13.1551 O   0  0  0  0  0  0  0  0  0  0  0  0
   12.2299   -9.7131   -8.6044 C   0  0  0  0  0  0  0  0  0  0  0  0
   13.0028   -9.5755   -9.9414 C   0  0  0  0  0  0  0  0  0  0  0  0
   14.3429   -9.0483   -9.5699 C   0  0  2  0  0  0  0  0  0  0  0  0
   14.2572   -7.7330   -8.8242 C   0  0  0  0  0  0  0  0  0  0  0  0
   15.2942   -8.9660  -10.7360 C   0  0  2  0  0  0  0  0  0  0  0  0
   15.6264  -10.3622  -11.1318 N   0  0  0  0  0  0  0  0  0  0  0  0
   16.5706   -8.3112  -10.4109 C   0  0  0  0  0  0  0  0  0  0  0  0
   17.3094   -8.8244   -9.5019 O   0  0  0  0  0  0  0  0  0  0  0  0
   17.1059   -7.1453  -11.0009 N   0  0  0  0  0  0  0  0  0  0  0  0
   18.3484   -6.5363  -10.6224 C   0  0  1  0  0  0  0  0  0  0  0  0
   19.3772   -6.5357  -11.7120 C   0  0  0  0  0  0  0  0  0  0  0  0
   20.6891   -5.9523  -11.3165 C   0  0  0  0  0  0  0  0  0  0  0  0
   21.5914   -5.9954  -12.4775 C   0  0  0  0  0  0  0  0  0  0  0  0
   22.2399   -4.9848  -12.7993 O   0  0  0  0  0  0  0  0  0  0  0  0
   18.1689   -5.1259  -10.1703 C   0  0  0  0  0  0  0  0  0  0  0  0
   18.9991   -4.6144   -9.1836 O   0  0  0  0  0  0  0  0  0  0  0  0
   21.7294   -7.1484  -13.2194 O   0  0  0  0  0  0  0  0  0  0  0  0
   17.2757   -4.3684  -10.6600 O   0  0  0  0  0  0  0  0  0  0  0  0
  2  1  1  6
  3  4  1  0
  3  2  1  0
  5  6  2  0
  5  2  1  0
  7  8  1  0
  8  9  1  0
  9 11  1  0
  9 10  1  6
 11 12  1  1
 11 13  1  0
 12  5  1  0
 13 15  1  0
 14 13  2  0
 15 16  1  0
 16 21  1  0
 16 17  1  6
 17 18  1  0
 19 18  1  0
 19 23  1  0
 20 19  2  0
 21 24  2  0
 21 22  1  0
M  END
$$$$
