HVQ.pdb
     RDKit          3D

 27 27  0  0  1  0  0  0  0  0999 V2000
   27.9522  -21.8542  -16.1105 N   0  0  0  0  0  0  0  0  0  0  0  0
   27.3214  -20.7878  -15.3916 C   0  0  1  0  0  0  0  0  0  0  0  0
   26.7365  -19.7514  -16.3068 C   0  0  0  0  0  0  0  0  0  0  0  0
   27.7174  -19.1106  -17.1983 C   0  0  0  0  0  0  0  0  0  0  0  0
   27.9328  -19.4360  -18.5388 C   0  0  0  0  0  0  0  0  0  0  0  0
   28.8932  -18.6546  -19.0305 N   0  0  0  0  0  0  0  0  0  0  0  0
   29.2737  -17.8565  -18.0255 C   0  0  0  0  0  0  0  0  0  0  0  0
   28.5663  -18.1319  -16.9260 N   0  0  0  0  0  0  0  0  0  0  0  0
   26.4191  -21.2157  -14.3063 C   0  0  0  0  0  0  0  0  0  0  0  0
   25.6374  -22.1802  -14.5382 O   0  0  0  0  0  0  0  0  0  0  0  0
   24.8074  -20.8347   -9.6252 C   0  0  0  0  0  0  0  0  0  0  0  0
   25.7731  -20.4564  -10.6901 C   0  0  1  0  0  0  0  0  0  0  0  0
   27.0704  -21.2211  -10.3756 C   0  0  0  0  0  0  0  0  0  0  0  0
   25.3454  -20.9312  -12.0512 C   0  0  2  0  0  0  0  0  0  0  0  0
   26.3988  -20.5888  -13.0342 N   0  0  0  0  0  0  0  0  0  0  0  0
   24.0979  -20.3196  -12.5511 C   0  0  0  0  0  0  0  0  0  0  0  0
   24.1445  -19.3554  -13.3962 O   0  0  0  0  0  0  0  0  0  0  0  0
   22.0630  -22.1636  -16.8918 N   0  0  0  0  0  0  0  0  0  0  0  0
   20.9327  -21.3527  -16.6455 C   0  0  0  0  0  0  0  0  0  0  0  0
   20.0999  -21.2079  -17.5852 O   0  0  0  0  0  0  0  0  0  0  0  0
   20.7103  -20.6840  -15.3357 C   0  0  0  0  0  0  0  0  0  0  0  0
   21.8457  -20.9764  -14.3791 C   0  0  0  0  0  0  0  0  0  0  0  0
   21.6241  -20.3600  -13.0258 C   0  0  2  0  0  0  0  0  0  0  0  0
   22.7837  -20.6991  -12.1854 N   0  0  0  0  0  0  0  0  0  0  0  0
   20.3686  -20.8016  -12.3938 C   0  0  0  0  0  0  0  0  0  0  0  0
   20.2635  -21.9438  -11.8290 O   0  0  0  0  0  0  0  0  0  0  0  0
   19.2310  -20.0116  -12.3731 O   0  0  0  0  0  0  0  0  0  0  0  0
  2  1  1  6
  3  2  1  0
  4  3  1  0
  5  4  2  0
  6  5  1  0
  7  6  1  0
  7  8  2  0
  8  4  1  0
  9 15  1  0
  9  2  1  0
 10  9  2  0
 12 11  1  1
 13 12  1  0
 14 15  1  6
 14 12  1  0
 16 14  1  0
 17 16  2  0
 19 18  1  0
 20 19  2  0
 21 19  1  0
 23 22  1  6
 22 21  1  0
 23 24  1  0
 24 16  1  0
 25 27  1  0
 25 23  1  0
 26 25  2  0
M  END
$$$$
