HVQ.pdb
     RDKit          3D

 27 27  0  0  1  0  0  0  0  0999 V2000
   21.8054  -20.5248  -15.0110 N   0  0  0  0  0  0  0  0  0  0  0  0
   20.8932  -20.1301  -13.9795 C   0  0  1  0  0  0  0  0  0  0  0  0
   19.5414  -19.7673  -14.5224 C   0  0  0  0  0  0  0  0  0  0  0  0
   19.5616  -18.6805  -15.5155 C   0  0  0  0  0  0  0  0  0  0  0  0
   19.3938  -17.3224  -15.2389 C   0  0  0  0  0  0  0  0  0  0  0  0
   19.4700  -16.6311  -16.3751 N   0  0  0  0  0  0  0  0  0  0  0  0
   19.6808  -17.5307  -17.3437 C   0  0  0  0  0  0  0  0  0  0  0  0
   19.7355  -18.7609  -16.8253 N   0  0  0  0  0  0  0  0  0  0  0  0
   20.8547  -21.0229  -12.8061 C   0  0  0  0  0  0  0  0  0  0  0  0
   20.8559  -22.2685  -13.0153 O   0  0  0  0  0  0  0  0  0  0  0  0
   21.5515  -21.5531   -7.9192 C   0  0  0  0  0  0  0  0  0  0  0  0
   21.4553  -20.7053   -9.1364 C   0  0  1  0  0  0  0  0  0  0  0  0
   22.8962  -20.2849   -9.4740 C   0  0  0  0  0  0  0  0  0  0  0  0
   20.9679  -21.4711  -10.3352 C   0  0  2  0  0  0  0  0  0  0  0  0
   20.8144  -20.5372  -11.4742 N   0  0  0  0  0  0  0  0  0  0  0  0
   19.6557  -22.1238  -10.1551 C   0  0  0  0  0  0  0  0  0  0  0  0
   18.5748  -21.4396  -10.2535 O   0  0  0  0  0  0  0  0  0  0  0  0
   18.2687  -28.3208   -9.6015 N   0  0  0  0  0  0  0  0  0  0  0  0
   17.0016  -27.6971   -9.5673 C   0  0  0  0  0  0  0  0  0  0  0  0
   15.9846  -28.4418   -9.4736 O   0  0  0  0  0  0  0  0  0  0  0  0
   16.8460  -26.2196   -9.6375 C   0  0  0  0  0  0  0  0  0  0  0  0
   18.1878  -25.5419   -9.8116 C   0  0  0  0  0  0  0  0  0  0  0  0
   18.0878  -24.0450   -9.7107 C   0  0  2  0  0  0  0  0  0  0  0  0
   19.4432  -23.4951   -9.8731 N   0  0  0  0  0  0  0  0  0  0  0  0
   17.4853  -23.5951   -8.4437 C   0  0  0  0  0  0  0  0  0  0  0  0
   18.1797  -23.4542   -7.3796 O   0  0  0  0  0  0  0  0  0  0  0  0
   16.1371  -23.2994   -8.3277 O   0  0  0  0  0  0  0  0  0  0  0  0
  2  1  1  6
  3  2  1  0
  4  3  1  0
  5  4  2  0
  6  5  1  0
  7  6  1  0
  7  8  2  0
  8  4  1  0
  9 15  1  0
  9  2  1  0
 10  9  2  0
 12 11  1  1
 13 12  1  0
 14 15  1  6
 14 12  1  0
 16 14  1  0
 17 16  2  0
 19 18  1  0
 20 19  2  0
 21 19  1  0
 23 22  1  1
 22 21  1  0
 23 24  1  0
 24 16  1  0
 25 27  1  0
 25 23  1  0
 26 25  2  0
M  END
$$$$
