HVQ.pdb
     RDKit          3D

 27 27  0  0  1  0  0  0  0  0999 V2000
   21.0482  -21.0792  -14.6036 N   0  0  0  0  0  0  0  0  0  0  0  0
   20.4076  -20.5965  -13.4167 C   0  0  1  0  0  0  0  0  0  0  0  0
   18.9479  -20.3180  -13.6300 C   0  0  0  0  0  0  0  0  0  0  0  0
   18.6701  -19.3278  -14.6837 C   0  0  0  0  0  0  0  0  0  0  0  0
   19.2564  -18.0651  -14.7885 C   0  0  0  0  0  0  0  0  0  0  0  0
   18.7688  -17.4433  -15.8611 N   0  0  0  0  0  0  0  0  0  0  0  0
   17.8972  -18.2926  -16.4186 C   0  0  0  0  0  0  0  0  0  0  0  0
   17.8394  -19.4238  -15.7099 N   0  0  0  0  0  0  0  0  0  0  0  0
   20.7051  -21.3628  -12.1921 C   0  0  0  0  0  0  0  0  0  0  0  0
   20.6091  -22.6208  -12.2484 O   0  0  0  0  0  0  0  0  0  0  0  0
   21.6696  -19.5450   -8.3553 C   0  0  0  0  0  0  0  0  0  0  0  0
   22.2613  -20.8163   -8.8486 C   0  0  1  0  0  0  0  0  0  0  0  0
   22.4279  -21.7138   -7.6102 C   0  0  0  0  0  0  0  0  0  0  0  0
   21.3353  -21.5648   -9.7670 C   0  0  2  0  0  0  0  0  0  0  0  0
   21.0860  -20.7439  -10.9741 N   0  0  0  0  0  0  0  0  0  0  0  0
   20.0099  -21.8666   -9.1903 C   0  0  0  0  0  0  0  0  0  0  0  0
   18.9447  -21.4255   -9.7532 O   0  0  0  0  0  0  0  0  0  0  0  0
   18.4313  -27.3826   -9.9691 N   0  0  0  0  0  0  0  0  0  0  0  0
   17.3985  -26.4187   -9.9668 C   0  0  0  0  0  0  0  0  0  0  0  0
   16.5289  -26.4898  -10.8813 O   0  0  0  0  0  0  0  0  0  0  0  0
   17.3174  -25.3500   -8.9355 C   0  0  0  0  0  0  0  0  0  0  0  0
   18.5326  -24.4499   -8.9922 C   0  0  0  0  0  0  0  0  0  0  0  0
   18.5485  -23.4426   -7.8761 C   0  0  2  0  0  0  0  0  0  0  0  0
   19.7678  -22.6318   -8.0238 N   0  0  0  0  0  0  0  0  0  0  0  0
   18.4881  -24.0647   -6.5419 C   0  0  0  0  0  0  0  0  0  0  0  0
   19.5422  -24.4493   -5.9291 O   0  0  0  0  0  0  0  0  0  0  0  0
   17.2926  -24.2706   -5.8733 O   0  0  0  0  0  0  0  0  0  0  0  0
  2  1  1  6
  3  2  1  0
  4  3  1  0
  5  4  2  0
  6  5  1  0
  7  6  1  0
  7  8  2  0
  8  4  1  0
  9 15  1  0
  9  2  1  0
 10  9  2  0
 12 11  1  1
 13 12  1  0
 14 15  1  6
 14 12  1  0
 16 14  1  0
 17 16  2  0
 19 18  1  0
 20 19  2  0
 21 19  1  0
 23 22  1  6
 22 21  1  0
 23 24  1  0
 24 16  1  0
 25 27  1  0
 25 23  1  0
 26 25  2  0
M  END
$$$$
