HVQ.pdb
     RDKit          3D

 27 27  0  0  1  0  0  0  0  0999 V2000
   17.6894  -13.7172  -18.3451 N   0  0  0  0  0  0  0  0  0  0  0  0
   17.5865  -12.8240  -17.2299 C   0  0  1  0  0  0  0  0  0  0  0  0
   18.4494  -13.2495  -16.0775 C   0  0  0  0  0  0  0  0  0  0  0  0
   18.1581  -14.6015  -15.5723 C   0  0  0  0  0  0  0  0  0  0  0  0
   18.9507  -15.7332  -15.7728 C   0  0  0  0  0  0  0  0  0  0  0  0
   18.3807  -16.7788  -15.1756 N   0  0  0  0  0  0  0  0  0  0  0  0
   17.2571  -16.3178  -14.6125 C   0  0  0  0  0  0  0  0  0  0  0  0
   17.1254  -15.0100  -14.8519 N   0  0  0  0  0  0  0  0  0  0  0  0
   17.6892  -11.3917  -17.5666 C   0  0  0  0  0  0  0  0  0  0  0  0
   18.6189  -11.0363  -18.3442 O   0  0  0  0  0  0  0  0  0  0  0  0
   15.6621   -7.0067  -18.1756 C   0  0  0  0  0  0  0  0  0  0  0  0
   15.6535   -8.4789  -17.9701 C   0  0  1  0  0  0  0  0  0  0  0  0
   15.5241   -9.1008  -19.3713 C   0  0  0  0  0  0  0  0  0  0  0  0
   16.9558   -8.9918  -17.4205 C   0  0  2  0  0  0  0  0  0  0  0  0
   16.7958  -10.4174  -17.0528 N   0  0  0  0  0  0  0  0  0  0  0  0
   17.4234   -8.2999  -16.2027 C   0  0  0  0  0  0  0  0  0  0  0  0
   16.7134   -8.3215  -15.1343 O   0  0  0  0  0  0  0  0  0  0  0  0
   22.9759   -5.3556  -15.0688 N   0  0  0  0  0  0  0  0  0  0  0  0
   22.2239   -5.1015  -13.9002 C   0  0  0  0  0  0  0  0  0  0  0  0
   22.7727   -4.4215  -12.9870 O   0  0  0  0  0  0  0  0  0  0  0  0
   20.8352   -5.6059  -13.7290 C   0  0  0  0  0  0  0  0  0  0  0  0
   20.3940   -6.3981  -14.9405 C   0  0  0  0  0  0  0  0  0  0  0  0
   18.9599   -6.8390  -14.8420 C   0  0  2  0  0  0  0  0  0  0  0  0
   18.6345   -7.5778  -16.0725 N   0  0  0  0  0  0  0  0  0  0  0  0
   18.0279   -5.7160  -14.6400 C   0  0  0  0  0  0  0  0  0  0  0  0
   17.6368   -4.9815  -15.6106 O   0  0  0  0  0  0  0  0  0  0  0  0
   17.5211   -5.3882  -13.3933 O   0  0  0  0  0  0  0  0  0  0  0  0
  2  1  1  6
  3  2  1  0
  4  3  1  0
  5  4  2  0
  6  5  1  0
  7  6  1  0
  7  8  2  0
  8  4  1  0
  9 15  1  0
  9  2  1  0
 10  9  2  0
 12 11  1  6
 13 12  1  0
 14 15  1  1
 14 12  1  0
 16 14  1  0
 17 16  2  0
 19 18  1  0
 20 19  2  0
 21 19  1  0
 23 22  1  6
 22 21  1  0
 23 24  1  0
 24 16  1  0
 25 27  1  0
 25 23  1  0
 26 25  2  0
M  END
$$$$
