HVQ.pdb
     RDKit          3D

 27 27  0  0  1  0  0  0  0  0999 V2000
   27.2613  -19.9719  -18.7492 N   0  0  0  0  0  0  0  0  0  0  0  0
   26.9509  -19.2818  -17.5329 C   0  0  1  0  0  0  0  0  0  0  0  0
   25.7752  -18.3607  -17.6844 C   0  0  0  0  0  0  0  0  0  0  0  0
   25.9613  -17.3056  -18.6944 C   0  0  0  0  0  0  0  0  0  0  0  0
   27.1257  -17.0807  -19.4309 C   0  0  0  0  0  0  0  0  0  0  0  0
   26.9346  -16.0456  -20.2475 N   0  0  0  0  0  0  0  0  0  0  0  0
   25.6812  -15.6285  -20.0314 C   0  0  0  0  0  0  0  0  0  0  0  0
   25.0983  -16.3866  -19.0983 N   0  0  0  0  0  0  0  0  0  0  0  0
   26.9026  -20.1320  -16.3286 C   0  0  0  0  0  0  0  0  0  0  0  0
   26.2986  -21.2379  -16.4141 O   0  0  0  0  0  0  0  0  0  0  0  0
   29.7860  -21.4005  -14.3622 C   0  0  0  0  0  0  0  0  0  0  0  0
   28.8358  -20.8243  -13.3749 C   0  0  1  0  0  0  0  0  0  0  0  0
   29.3319  -19.3952  -13.0947 C   0  0  0  0  0  0  0  0  0  0  0  0
   27.4488  -20.6668  -13.9339 C   0  0  2  0  0  0  0  0  0  0  0  0
   27.4993  -19.7538  -15.0988 N   0  0  0  0  0  0  0  0  0  0  0  0
   26.4701  -20.0850  -12.9938 C   0  0  0  0  0  0  0  0  0  0  0  0
   25.9189  -18.9555  -13.2517 O   0  0  0  0  0  0  0  0  0  0  0  0
   21.5562  -22.1122  -13.0159 N   0  0  0  0  0  0  0  0  0  0  0  0
   21.2607  -21.0737  -12.1050 C   0  0  0  0  0  0  0  0  0  0  0  0
   20.0564  -20.9324  -11.7484 O   0  0  0  0  0  0  0  0  0  0  0  0
   22.3126  -20.1675  -11.5716 C   0  0  0  0  0  0  0  0  0  0  0  0
   23.6730  -20.5332  -12.1242 C   0  0  0  0  0  0  0  0  0  0  0  0
   24.7776  -20.2745  -11.1374 C   0  0  2  0  0  0  0  0  0  0  0  0
   26.0456  -20.6654  -11.7740 N   0  0  0  0  0  0  0  0  0  0  0  0
   24.5861  -20.9886   -9.8630 C   0  0  0  0  0  0  0  0  0  0  0  0
   23.7693  -20.5710   -8.9724 O   0  0  0  0  0  0  0  0  0  0  0  0
   25.2754  -22.1492   -9.5525 O   0  0  0  0  0  0  0  0  0  0  0  0
  2  1  1  6
  3  2  1  0
  4  3  1  0
  5  4  2  0
  6  5  1  0
  7  6  1  0
  7  8  2  0
  8  4  1  0
  9 15  1  0
  9  2  1  0
 10  9  2  0
 12 11  1  6
 13 12  1  0
 14 15  1  6
 14 12  1  0
 16 14  1  0
 17 16  2  0
 19 18  1  0
 20 19  2  0
 21 19  1  0
 23 22  1  6
 22 21  1  0
 23 24  1  0
 24 16  1  0
 25 27  1  0
 25 23  1  0
 26 25  2  0
M  END
$$$$
