HVQ.pdb
     RDKit          3D

 27 27  0  0  1  0  0  0  0  0999 V2000
   22.9081  -13.9981  -18.5593 N   0  0  0  0  0  0  0  0  0  0  0  0
   23.1883  -12.5937  -18.5282 C   0  0  1  0  0  0  0  0  0  0  0  0
   22.1933  -11.7964  -19.3208 C   0  0  0  0  0  0  0  0  0  0  0  0
   22.0340  -12.2441  -20.7144 C   0  0  0  0  0  0  0  0  0  0  0  0
   23.0630  -12.6782  -21.5521 C   0  0  0  0  0  0  0  0  0  0  0  0
   22.5536  -13.0039  -22.7392 N   0  0  0  0  0  0  0  0  0  0  0  0
   21.2366  -12.7810  -22.6521 C   0  0  0  0  0  0  0  0  0  0  0  0
   20.9266  -12.3247  -21.4352 N   0  0  0  0  0  0  0  0  0  0  0  0
   23.4754  -12.0446  -17.1898 C   0  0  0  0  0  0  0  0  0  0  0  0
   22.5550  -12.0906  -16.3261 O   0  0  0  0  0  0  0  0  0  0  0  0
   26.9793  -12.3236  -15.3678 C   0  0  0  0  0  0  0  0  0  0  0  0
   26.4086  -10.9657  -15.1680 C   0  0  1  0  0  0  0  0  0  0  0  0
   27.1036  -10.0591  -16.1985 C   0  0  0  0  0  0  0  0  0  0  0  0
   24.9431  -10.9020  -15.4988 C   0  0  2  0  0  0  0  0  0  0  0  0
   24.7281  -11.4742  -16.8477 N   0  0  0  0  0  0  0  0  0  0  0  0
   24.3800   -9.5374  -15.5332 C   0  0  0  0  0  0  0  0  0  0  0  0
   24.3148   -8.8381  -14.4596 O   0  0  0  0  0  0  0  0  0  0  0  0
   22.6296   -5.9652  -20.5262 N   0  0  0  0  0  0  0  0  0  0  0  0
   22.3373   -5.1478  -19.4116 C   0  0  0  0  0  0  0  0  0  0  0  0
   21.9153   -3.9780  -19.6378 O   0  0  0  0  0  0  0  0  0  0  0  0
   22.5120   -5.6255  -18.0140 C   0  0  0  0  0  0  0  0  0  0  0  0
   23.0530   -7.0385  -17.9887 C   0  0  0  0  0  0  0  0  0  0  0  0
   23.2478   -7.5495  -16.5881 C   0  0  2  0  0  0  0  0  0  0  0  0
   23.8786   -8.8759  -16.6805 N   0  0  0  0  0  0  0  0  0  0  0  0
   21.9906   -7.6164  -15.8228 C   0  0  0  0  0  0  0  0  0  0  0  0
   21.1592   -8.5758  -15.9745 O   0  0  0  0  0  0  0  0  0  0  0  0
   21.6335   -6.6495  -14.8974 O   0  0  0  0  0  0  0  0  0  0  0  0
  2  1  1  1
  3  2  1  0
  4  3  1  0
  5  4  2  0
  6  5  1  0
  7  6  1  0
  7  8  2  0
  8  4  1  0
  9 15  1  0
  9  2  1  0
 10  9  2  0
 12 11  1  6
 13 12  1  0
 14 15  1  6
 14 12  1  0
 16 14  1  0
 17 16  2  0
 19 18  1  0
 20 19  2  0
 21 19  1  0
 23 22  1  6
 22 21  1  0
 23 24  1  0
 24 16  1  0
 25 27  1  0
 25 23  1  0
 26 25  2  0
M  END
$$$$
