HVQ.pdb
     RDKit          3D

 27 27  0  0  1  0  0  0  0  0999 V2000
   27.2896  -22.2099  -16.7733 N   0  0  0  0  0  0  0  0  0  0  0  0
   26.3256  -21.3315  -16.1809 C   0  0  1  0  0  0  0  0  0  0  0  0
   25.3705  -20.7679  -17.1928 C   0  0  0  0  0  0  0  0  0  0  0  0
   26.0138  -19.9770  -18.2550 C   0  0  0  0  0  0  0  0  0  0  0  0
   26.3486  -18.6241  -18.1726 C   0  0  0  0  0  0  0  0  0  0  0  0
   26.9130  -18.2419  -19.3171 N   0  0  0  0  0  0  0  0  0  0  0  0
   26.9339  -19.3265  -20.1014 C   0  0  0  0  0  0  0  0  0  0  0  0
   26.3934  -20.3674  -19.4616 N   0  0  0  0  0  0  0  0  0  0  0  0
   25.6790  -21.8477  -14.9599 C   0  0  0  0  0  0  0  0  0  0  0  0
   25.2274  -23.0269  -14.9881 O   0  0  0  0  0  0  0  0  0  0  0  0
   24.9629  -19.5216  -11.2955 C   0  0  0  0  0  0  0  0  0  0  0  0
   25.3816  -20.9466  -11.3565 C   0  0  1  0  0  0  0  0  0  0  0  0
   24.6882  -21.6421  -10.1723 C   0  0  0  0  0  0  0  0  0  0  0  0
   24.8732  -21.6446  -12.5875 C   0  0  2  0  0  0  0  0  0  0  0  0
   25.5475  -21.0762  -13.7771 N   0  0  0  0  0  0  0  0  0  0  0  0
   23.4231  -21.4961  -12.8230 C   0  0  0  0  0  0  0  0  0  0  0  0
   22.9842  -20.5585  -13.5808 O   0  0  0  0  0  0  0  0  0  0  0  0
   18.5793  -24.7999  -10.2845 N   0  0  0  0  0  0  0  0  0  0  0  0
   17.9341  -23.7931  -11.0366 C   0  0  0  0  0  0  0  0  0  0  0  0
   16.6726  -23.7375  -10.9801 O   0  0  0  0  0  0  0  0  0  0  0  0
   18.6915  -22.8229  -11.8717 C   0  0  0  0  0  0  0  0  0  0  0  0
   20.1818  -23.0599  -11.7591 C   0  0  0  0  0  0  0  0  0  0  0  0
   20.9812  -22.0276  -12.5047 C   0  0  2  0  0  0  0  0  0  0  0  0
   22.4062  -22.3181  -12.2794 N   0  0  0  0  0  0  0  0  0  0  0  0
   20.6546  -20.6488  -12.1011 C   0  0  0  0  0  0  0  0  0  0  0  0
   19.9175  -19.8922  -12.8215 O   0  0  0  0  0  0  0  0  0  0  0  0
   21.1236  -20.0901  -10.9236 O   0  0  0  0  0  0  0  0  0  0  0  0
  2  1  1  6
  3  2  1  0
  4  3  1  0
  5  4  2  0
  6  5  1  0
  7  6  1  0
  7  8  2  0
  8  4  1  0
  9 15  1  0
  9  2  1  0
 10  9  2  0
 12 11  1  6
 13 12  1  0
 14 15  1  6
 14 12  1  0
 16 14  1  0
 17 16  2  0
 19 18  1  0
 20 19  2  0
 21 19  1  0
 23 22  1  1
 22 21  1  0
 23 24  1  0
 24 16  1  0
 25 27  1  0
 25 23  1  0
 26 25  2  0
M  END
$$$$
