HVQ.pdb
     RDKit          3D

 27 27  0  0  1  0  0  0  0  0999 V2000
   28.1094  -20.2929  -16.3999 N   0  0  0  0  0  0  0  0  0  0  0  0
   27.3253  -19.5788  -15.4370 C   0  0  1  0  0  0  0  0  0  0  0  0
   26.6336  -18.3883  -16.0355 C   0  0  0  0  0  0  0  0  0  0  0  0
   27.5422  -17.4151  -16.6640 C   0  0  0  0  0  0  0  0  0  0  0  0
   28.3511  -16.5014  -15.9857 C   0  0  0  0  0  0  0  0  0  0  0  0
   29.0371  -15.7813  -16.8720 N   0  0  0  0  0  0  0  0  0  0  0  0
   28.6702  -16.2297  -18.0787 C   0  0  0  0  0  0  0  0  0  0  0  0
   27.7724  -17.2109  -17.9516 N   0  0  0  0  0  0  0  0  0  0  0  0
   26.4587  -20.4204  -14.5909 C   0  0  0  0  0  0  0  0  0  0  0  0
   25.7866  -21.3273  -15.1574 O   0  0  0  0  0  0  0  0  0  0  0  0
   25.5734  -19.6528  -10.3936 C   0  0  0  0  0  0  0  0  0  0  0  0
   25.8509  -21.0087  -10.9359 C   0  0  1  0  0  0  0  0  0  0  0  0
   24.9082  -21.9654  -10.1857 C   0  0  0  0  0  0  0  0  0  0  0  0
   25.4815  -21.1355  -12.3880 C   0  0  2  0  0  0  0  0  0  0  0  0
   26.3552  -20.2460  -13.1871 N   0  0  0  0  0  0  0  0  0  0  0  0
   24.0930  -20.7457  -12.7047 C   0  0  0  0  0  0  0  0  0  0  0  0
   23.7753  -19.5062  -12.7988 O   0  0  0  0  0  0  0  0  0  0  0  0
   19.5221  -24.1121  -15.4564 N   0  0  0  0  0  0  0  0  0  0  0  0
   18.8479  -22.9274  -15.0853 C   0  0  0  0  0  0  0  0  0  0  0  0
   17.6233  -22.8325  -15.3835 O   0  0  0  0  0  0  0  0  0  0  0  0
   19.5342  -21.8191  -14.3692 C   0  0  0  0  0  0  0  0  0  0  0  0
   20.9823  -22.1646  -14.0983 C   0  0  0  0  0  0  0  0  0  0  0  0
   21.6616  -21.1377  -13.2353 C   0  0  2  0  0  0  0  0  0  0  0  0
   23.0135  -21.6336  -12.9314 N   0  0  0  0  0  0  0  0  0  0  0  0
   20.9171  -20.8464  -11.9978 C   0  0  0  0  0  0  0  0  0  0  0  0
   21.0560  -21.5573  -10.9442 O   0  0  0  0  0  0  0  0  0  0  0  0
   20.0254  -19.7909  -11.9000 O   0  0  0  0  0  0  0  0  0  0  0  0
  2  1  1  6
  3  2  1  0
  4  3  1  0
  5  4  2  0
  6  5  1  0
  7  6  1  0
  7  8  2  0
  8  4  1  0
  9 15  1  0
  9  2  1  0
 10  9  2  0
 12 11  1  1
 13 12  1  0
 14 15  1  6
 14 12  1  0
 16 14  1  0
 17 16  2  0
 19 18  1  0
 20 19  2  0
 21 19  1  0
 23 22  1  1
 22 21  1  0
 23 24  1  0
 24 16  1  0
 25 27  1  0
 25 23  1  0
 26 25  2  0
M  END
$$$$
