HVQ.pdb
     RDKit          3D

 27 27  0  0  1  0  0  0  0  0999 V2000
   21.3696  -14.8246  -15.8696 N   0  0  0  0  0  0  0  0  0  0  0  0
   21.6552  -13.7318  -16.7505 C   0  0  1  0  0  0  0  0  0  0  0  0
   20.4774  -13.3675  -17.6071 C   0  0  0  0  0  0  0  0  0  0  0  0
   19.8712  -14.5067  -18.3161 C   0  0  0  0  0  0  0  0  0  0  0  0
   18.6922  -15.1586  -17.9500 C   0  0  0  0  0  0  0  0  0  0  0  0
   18.4471  -16.1402  -18.8167 N   0  0  0  0  0  0  0  0  0  0  0  0
   19.4463  -16.1079  -19.7068 C   0  0  0  0  0  0  0  0  0  0  0  0
   20.3006  -15.1261  -19.4043 N   0  0  0  0  0  0  0  0  0  0  0  0
   22.3233  -12.5791  -16.1178 C   0  0  0  0  0  0  0  0  0  0  0  0
   21.8494  -12.1509  -15.0282 O   0  0  0  0  0  0  0  0  0  0  0  0
   26.3249   -9.7757  -15.5464 C   0  0  0  0  0  0  0  0  0  0  0  0
   25.5968  -10.9133  -16.1672 C   0  0  1  0  0  0  0  0  0  0  0  0
   26.0257  -12.1670  -15.3855 C   0  0  0  0  0  0  0  0  0  0  0  0
   24.1077  -10.8137  -15.9832 C   0  0  2  0  0  0  0  0  0  0  0  0
   23.4586  -11.9452  -16.6842 N   0  0  0  0  0  0  0  0  0  0  0  0
   23.5019   -9.5841  -16.5323 C   0  0  0  0  0  0  0  0  0  0  0  0
   23.2272   -9.5018  -17.7828 O   0  0  0  0  0  0  0  0  0  0  0  0
   18.5996   -8.8203  -17.7250 N   0  0  0  0  0  0  0  0  0  0  0  0
   18.8980   -7.4540  -17.9249 C   0  0  0  0  0  0  0  0  0  0  0  0
   18.0177   -6.7376  -18.4811 O   0  0  0  0  0  0  0  0  0  0  0  0
   20.1944   -6.8586  -17.5041 C   0  0  0  0  0  0  0  0  0  0  0  0
   21.1097   -7.9126  -16.9200 C   0  0  0  0  0  0  0  0  0  0  0  0
   22.3911   -7.3272  -16.3945 C   0  0  2  0  0  0  0  0  0  0  0  0
   23.1691   -8.4225  -15.7939 N   0  0  0  0  0  0  0  0  0  0  0  0
   22.1691   -6.2436  -15.4212 C   0  0  0  0  0  0  0  0  0  0  0  0
   22.2933   -6.4320  -14.1627 O   0  0  0  0  0  0  0  0  0  0  0  0
   21.8138   -4.9616  -15.8070 O   0  0  0  0  0  0  0  0  0  0  0  0
  2  1  1  1
  3  2  1  0
  4  3  1  0
  5  4  2  0
  6  5  1  0
  7  6  1  0
  7  8  2  0
  8  4  1  0
  9 15  1  0
  9  2  1  0
 10  9  2  0
 12 11  1  1
 13 12  1  0
 14 15  1  6
 14 12  1  0
 16 14  1  0
 17 16  2  0
 19 18  1  0
 20 19  2  0
 21 19  1  0
 23 22  1  1
 22 21  1  0
 23 24  1  0
 24 16  1  0
 25 27  1  0
 25 23  1  0
 26 25  2  0
M  END
$$$$
