HVQ.pdb
     RDKit          3D

 27 27  0  0  1  0  0  0  0  0999 V2000
   19.5804  -15.1966  -17.2586 N   0  0  0  0  0  0  0  0  0  0  0  0
   19.4265  -13.8033  -17.5536 C   0  0  1  0  0  0  0  0  0  0  0  0
   18.0602  -13.4809  -18.0856 C   0  0  0  0  0  0  0  0  0  0  0  0
   17.6807  -14.2516  -19.2813 C   0  0  0  0  0  0  0  0  0  0  0  0
   16.8916  -15.4033  -19.2902 C   0  0  0  0  0  0  0  0  0  0  0  0
   16.7554  -15.8314  -20.5444 N   0  0  0  0  0  0  0  0  0  0  0  0
   17.4412  -14.9712  -21.3070 C   0  0  0  0  0  0  0  0  0  0  0  0
   17.9961  -14.0232  -20.5465 N   0  0  0  0  0  0  0  0  0  0  0  0
   19.8970  -12.8869  -16.4980 C   0  0  0  0  0  0  0  0  0  0  0  0
   19.4083  -13.0229  -15.3413 O   0  0  0  0  0  0  0  0  0  0  0  0
   23.5977  -10.8318  -16.6477 C   0  0  0  0  0  0  0  0  0  0  0  0
   22.8197  -11.2360  -15.4472 C   0  0  1  0  0  0  0  0  0  0  0  0
   23.2439  -10.2733  -14.3246 C   0  0  0  0  0  0  0  0  0  0  0  0
   21.3410  -11.0255  -15.6209 C   0  0  2  0  0  0  0  0  0  0  0  0
   20.8610  -11.8740  -16.7357 N   0  0  0  0  0  0  0  0  0  0  0  0
   20.9530   -9.6412  -15.9575 C   0  0  0  0  0  0  0  0  0  0  0  0
   21.1679   -9.1778  -17.1344 O   0  0  0  0  0  0  0  0  0  0  0  0
   15.9348   -6.3889  -15.0765 N   0  0  0  0  0  0  0  0  0  0  0  0
   16.8249   -5.3626  -15.4641 C   0  0  0  0  0  0  0  0  0  0  0  0
   16.3403   -4.2134  -15.6688 O   0  0  0  0  0  0  0  0  0  0  0  0
   18.2832   -5.6030  -15.6313 C   0  0  0  0  0  0  0  0  0  0  0  0
   18.6258   -7.0539  -15.3717 C   0  0  0  0  0  0  0  0  0  0  0  0
   20.1019   -7.3190  -15.4779 C   0  0  2  0  0  0  0  0  0  0  0  0
   20.3342   -8.7170  -15.0810 N   0  0  0  0  0  0  0  0  0  0  0  0
   20.9098   -6.3980  -14.6594 C   0  0  0  0  0  0  0  0  0  0  0  0
   21.2477   -6.6823  -13.4596 O   0  0  0  0  0  0  0  0  0  0  0  0
   21.3500   -5.1743  -15.1362 O   0  0  0  0  0  0  0  0  0  0  0  0
  2  1  1  1
  3  2  1  0
  4  3  1  0
  5  4  2  0
  6  5  1  0
  7  6  1  0
  7  8  2  0
  8  4  1  0
  9 15  1  0
  9  2  1  0
 10  9  2  0
 12 11  1  6
 13 12  1  0
 14 15  1  6
 14 12  1  0
 16 14  1  0
 17 16  2  0
 19 18  1  0
 20 19  2  0
 21 19  1  0
 23 22  1  1
 22 21  1  0
 23 24  1  0
 24 16  1  0
 25 27  1  0
 25 23  1  0
 26 25  2  0
M  END
$$$$
