HVQ.pdb
     RDKit          3D

 27 27  0  0  1  0  0  0  0  0999 V2000
   36.5455  -27.8002  -20.4622 N   0  0  0  0  0  0  0  0  0  0  0  0
   35.7834  -28.2001  -19.3172 C   0  0  1  0  0  0  0  0  0  0  0  0
   34.3071  -28.2089  -19.5899 C   0  0  0  0  0  0  0  0  0  0  0  0
   33.7594  -26.9020  -19.9899 C   0  0  0  0  0  0  0  0  0  0  0  0
   34.2304  -25.6581  -19.5655 C   0  0  0  0  0  0  0  0  0  0  0  0
   33.4975  -24.6975  -20.1265 N   0  0  0  0  0  0  0  0  0  0  0  0
   32.5875  -25.3199  -20.8855 C   0  0  0  0  0  0  0  0  0  0  0  0
   32.7465  -26.6438  -20.8021 N   0  0  0  0  0  0  0  0  0  0  0  0
   36.2790  -29.4066  -18.6286 C   0  0  0  0  0  0  0  0  0  0  0  0
   36.4800  -30.4402  -19.3261 O   0  0  0  0  0  0  0  0  0  0  0  0
   38.7067  -31.4071  -14.8608 C   0  0  0  0  0  0  0  0  0  0  0  0
   38.1125  -30.2451  -15.5722 C   0  0  1  0  0  0  0  0  0  0  0  0
   39.2668  -29.5904  -16.3506 C   0  0  0  0  0  0  0  0  0  0  0  0
   37.1083  -30.6582  -16.6125 C   0  0  2  0  0  0  0  0  0  0  0  0
   36.5301  -29.4443  -17.2332 N   0  0  0  0  0  0  0  0  0  0  0  0
   35.9691  -31.4391  -16.0905 C   0  0  0  0  0  0  0  0  0  0  0  0
   35.0224  -30.8535  -15.4526 O   0  0  0  0  0  0  0  0  0  0  0  0
   31.1407  -32.3877  -17.7970 N   0  0  0  0  0  0  0  0  0  0  0  0
   30.9677  -33.1307  -16.6080 C   0  0  0  0  0  0  0  0  0  0  0  0
   29.7944  -33.4945  -16.3102 O   0  0  0  0  0  0  0  0  0  0  0  0
   32.1102  -33.4838  -15.7236 C   0  0  0  0  0  0  0  0  0  0  0  0
   33.3901  -32.8392  -16.2097 C   0  0  0  0  0  0  0  0  0  0  0  0
   34.6145  -33.5198  -15.6633 C   0  0  2  0  0  0  0  0  0  0  0  0
   35.7920  -32.8377  -16.2236 N   0  0  0  0  0  0  0  0  0  0  0  0
   34.6496  -34.9621  -15.9620 C   0  0  0  0  0  0  0  0  0  0  0  0
   34.1022  -35.8235  -15.1920 O   0  0  0  0  0  0  0  0  0  0  0  0
   35.2747  -35.4709  -17.0884 O   0  0  0  0  0  0  0  0  0  0  0  0
  2  1  1  6
  3  2  1  0
  4  3  1  0
  5  4  2  0
  6  5  1  0
  7  6  1  0
  7  8  2  0
  8  4  1  0
  9 15  1  0
  9  2  1  0
 10  9  2  0
 12 11  1  6
 13 12  1  0
 14 15  1  1
 14 12  1  0
 16 14  1  0
 17 16  2  0
 19 18  1  0
 20 19  2  0
 21 19  1  0
 23 22  1  6
 22 21  1  0
 23 24  1  0
 24 16  1  0
 25 27  1  0
 25 23  1  0
 26 25  2  0
M  END
$$$$
