HVQ.pdb
     RDKit          3D

 27 27  0  0  1  0  0  0  0  0999 V2000
   18.2265  -13.4745  -15.9858 N   0  0  0  0  0  0  0  0  0  0  0  0
   17.8812  -12.0949  -15.8148 C   0  0  1  0  0  0  0  0  0  0  0  0
   16.5732  -11.9193  -15.0992 C   0  0  0  0  0  0  0  0  0  0  0  0
   15.4415  -12.6189  -15.7298 C   0  0  0  0  0  0  0  0  0  0  0  0
   14.4151  -12.0143  -16.4579 C   0  0  0  0  0  0  0  0  0  0  0  0
   13.5658  -12.9507  -16.8784 N   0  0  0  0  0  0  0  0  0  0  0  0
   14.0448  -14.1163  -16.4269 C   0  0  0  0  0  0  0  0  0  0  0  0
   15.1713  -13.9148  -15.7374 N   0  0  0  0  0  0  0  0  0  0  0  0
   18.9690  -11.2381  -15.3068 C   0  0  0  0  0  0  0  0  0  0  0  0
   19.5231  -11.5734  -14.2225 O   0  0  0  0  0  0  0  0  0  0  0  0
   22.0483  -10.7275  -16.9951 C   0  0  0  0  0  0  0  0  0  0  0  0
   21.6386   -9.3515  -16.6097 C   0  0  1  0  0  0  0  0  0  0  0  0
   20.9370   -8.7579  -17.8435 C   0  0  0  0  0  0  0  0  0  0  0  0
   20.6065   -9.3425  -15.5161 C   0  0  2  0  0  0  0  0  0  0  0  0
   19.4036  -10.0693  -15.9826 N   0  0  0  0  0  0  0  0  0  0  0  0
   20.1482   -7.9973  -15.1154 C   0  0  0  0  0  0  0  0  0  0  0  0
   19.3045   -7.3592  -15.8414 O   0  0  0  0  0  0  0  0  0  0  0  0
   17.0534   -6.2959  -10.6539 N   0  0  0  0  0  0  0  0  0  0  0  0
   18.4104   -6.3016  -10.2613 C   0  0  0  0  0  0  0  0  0  0  0  0
   18.6630   -6.4205   -9.0286 O   0  0  0  0  0  0  0  0  0  0  0  0
   19.5182   -6.1739  -11.2456 C   0  0  0  0  0  0  0  0  0  0  0  0
   18.9787   -6.0339  -12.6524 C   0  0  0  0  0  0  0  0  0  0  0  0
   20.0752   -5.9310  -13.6760 C   0  0  2  0  0  0  0  0  0  0  0  0
   20.5545   -7.2941  -13.9554 N   0  0  0  0  0  0  0  0  0  0  0  0
   21.1832   -5.0616  -13.2432 C   0  0  0  0  0  0  0  0  0  0  0  0
   22.2998   -5.5403  -12.8451 O   0  0  0  0  0  0  0  0  0  0  0  0
   21.0839   -3.6800  -13.2404 O   0  0  0  0  0  0  0  0  0  0  0  0
  2  1  1  1
  3  2  1  0
  4  3  1  0
  5  4  2  0
  6  5  1  0
  7  6  1  0
  7  8  2  0
  8  4  1  0
  9 15  1  0
  9  2  1  0
 10  9  2  0
 12 11  1  6
 13 12  1  0
 14 15  1  6
 14 12  1  0
 16 14  1  0
 17 16  2  0
 19 18  1  0
 20 19  2  0
 21 19  1  0
 23 22  1  1
 22 21  1  0
 23 24  1  0
 24 16  1  0
 25 27  1  0
 25 23  1  0
 26 25  2  0
M  END
$$$$
