DKP.pdb
     RDKit          3D

 25 25  0  0  1  0  0  0  0  0999 V2000
   11.3304  -16.7306   20.3456 N   0  0  0  0  0  0  0  0  0  0  0  0
   10.5008  -17.2916   21.3759 C   0  0  1  0  0  0  0  0  0  0  0  0
   11.1629  -18.5995   21.8246 C   0  0  0  0  0  0  0  0  0  0  0  0
   10.8469  -19.6701   20.8217 C   0  0  0  0  0  0  0  0  0  0  0  0
   11.4341  -19.6260   19.7119 O   0  0  0  0  0  0  0  0  0  0  0  0
   10.4243  -16.3355   22.5084 C   0  0  0  0  0  0  0  0  0  0  0  0
   11.4645  -15.7902   22.9567 O   0  0  0  0  0  0  0  0  0  0  0  0
    9.9439  -20.6750   21.0961 O   0  0  0  0  0  0  0  0  0  0  0  0
    9.1523  -16.0047   23.1275 N   0  0  0  0  0  0  0  0  0  0  0  0
    9.1251  -15.1478   24.2794 C   0  0  1  0  0  0  0  0  0  0  0  0
    7.7614  -14.5774   24.5141 C   0  0  0  0  0  0  0  0  0  0  0  0
    7.5910  -13.7779   25.7308 C   0  0  0  0  0  0  0  0  0  0  0  0
    6.2734  -13.1112   25.9388 C   0  0  0  0  0  0  0  0  0  0  0  0
    6.2858  -12.2287   27.1645 C   0  0  0  0  0  0  0  0  0  0  0  0
    4.9580  -11.6694   27.3513 N   0  0  0  0  0  0  0  0  0  0  0  0
    9.5136  -16.0082   25.4626 C   0  0  0  0  0  0  0  0  0  0  0  0
    9.5502  -17.2632   25.2253 O   0  0  0  0  0  0  0  0  0  0  0  0
    9.8155  -15.4886   26.7303 N   0  0  0  0  0  0  0  0  0  0  0  0
    9.1756  -14.3475   27.3464 C   0  0  0  0  0  0  0  0  0  0  0  0
   10.1713  -13.8423   28.3954 C   0  0  0  0  0  0  0  0  0  0  0  0
   11.4303  -14.6628   28.0711 C   0  0  0  0  0  0  0  0  0  0  0  0
   10.7608  -15.9761   27.6851 C   0  0  1  0  0  0  0  0  0  0  0  0
   10.0161  -16.5379   28.8499 C   0  0  0  0  0  0  0  0  0  0  0  0
    8.7821  -16.4152   28.8813 O   0  0  0  0  0  0  0  0  0  0  0  0
   10.6429  -17.1878   29.8932 O   0  0  0  0  0  0  0  0  0  0  0  0
  2  3  1  0
  2  1  1  6
  3  4  1  0
  4  8  1  0
  4  5  2  0
  6  2  1  0
  7  6  2  0
  9  6  1  0
 10  9  1  0
 10 11  1  1
 11 12  1  0
 12 13  1  0
 13 14  1  0
 14 15  1  0
 16 17  2  0
 16 10  1  0
 18 16  1  0
 19 18  1  0
 20 21  1  0
 20 19  1  0
 21 22  1  0
 22 23  1  1
 22 18  1  0
 23 25  1  0
 24 23  2  0
M  END
$$$$
