DKP.pdb
     RDKit          3D

 25 25  0  0  1  0  0  0  0  0999 V2000
   10.8332  -18.2600   21.4249 N   0  0  0  0  0  0  0  0  0  0  0  0
   11.2869  -16.9074   21.5956 C   0  0  1  0  0  0  0  0  0  0  0  0
   11.0964  -16.1957   20.2512 C   0  0  0  0  0  0  0  0  0  0  0  0
   12.1112  -16.7205   19.2783 C   0  0  0  0  0  0  0  0  0  0  0  0
   11.7910  -17.7097   18.5732 O   0  0  0  0  0  0  0  0  0  0  0  0
   10.4699  -16.2532   22.6477 C   0  0  0  0  0  0  0  0  0  0  0  0
   10.5899  -15.0233   22.8787 O   0  0  0  0  0  0  0  0  0  0  0  0
   13.3578  -16.1454   19.1522 O   0  0  0  0  0  0  0  0  0  0  0  0
    9.5135  -17.0114   23.4359 N   0  0  0  0  0  0  0  0  0  0  0  0
    8.8067  -16.3667   24.5067 C   0  0  1  0  0  0  0  0  0  0  0  0
    7.6825  -17.2125   25.0175 C   0  0  0  0  0  0  0  0  0  0  0  0
    6.6991  -17.6562   24.0252 C   0  0  0  0  0  0  0  0  0  0  0  0
    6.4054  -19.1164   23.9509 C   0  0  0  0  0  0  0  0  0  0  0  0
    5.3553  -19.4183   22.9080 C   0  0  0  0  0  0  0  0  0  0  0  0
    5.1420  -20.8546   22.8617 N   0  0  0  0  0  0  0  0  0  0  0  0
    9.8128  -16.1547   25.6176 C   0  0  0  0  0  0  0  0  0  0  0  0
   10.8869  -16.8377   25.5072 O   0  0  0  0  0  0  0  0  0  0  0  0
    9.6030  -15.2797   26.6940 N   0  0  0  0  0  0  0  0  0  0  0  0
    8.3583  -14.6133   27.0067 C   0  0  0  0  0  0  0  0  0  0  0  0
    8.7507  -13.3996   27.8551 C   0  0  0  0  0  0  0  0  0  0  0  0
   10.2822  -13.3898   27.7207 C   0  0  0  0  0  0  0  0  0  0  0  0
   10.5262  -14.8939   27.7146 C   0  0  1  0  0  0  0  0  0  0  0  0
   10.0856  -15.4937   29.0082 C   0  0  0  0  0  0  0  0  0  0  0  0
   10.7644  -15.2796   30.0240 O   0  0  0  0  0  0  0  0  0  0  0  0
    8.9548  -16.2763   29.1210 O   0  0  0  0  0  0  0  0  0  0  0  0
  2  3  1  0
  2  1  1  6
  3  4  1  0
  4  8  1  0
  4  5  2  0
  6  2  1  0
  7  6  2  0
  9  6  1  0
 10  9  1  0
 10 11  1  1
 11 12  1  0
 12 13  1  0
 13 14  1  0
 14 15  1  0
 16 17  2  0
 16 10  1  0
 18 16  1  0
 19 18  1  0
 20 21  1  0
 20 19  1  0
 21 22  1  0
 22 23  1  1
 22 18  1  0
 23 25  1  0
 24 23  2  0
M  END
$$$$
