DKP.pdb
     RDKit          3D

 25 25  0  0  1  0  0  0  0  0999 V2000
   10.5542  -16.3770   19.6488 N   0  0  0  0  0  0  0  0  0  0  0  0
   10.8549  -16.7420   21.0056 C   0  0  1  0  0  0  0  0  0  0  0  0
   12.2703  -16.2348   21.3050 C   0  0  0  0  0  0  0  0  0  0  0  0
   13.2363  -16.9298   20.3908 C   0  0  0  0  0  0  0  0  0  0  0  0
   14.4640  -16.7579   20.5945 O   0  0  0  0  0  0  0  0  0  0  0  0
    9.8716  -16.0946   21.9092 C   0  0  0  0  0  0  0  0  0  0  0  0
    9.7426  -14.8443   21.9239 O   0  0  0  0  0  0  0  0  0  0  0  0
   12.8043  -17.7336   19.3574 O   0  0  0  0  0  0  0  0  0  0  0  0
    9.0348  -16.8833   22.7972 N   0  0  0  0  0  0  0  0  0  0  0  0
    8.1022  -16.2226   23.6665 C   0  0  1  0  0  0  0  0  0  0  0  0
    7.0120  -17.1451   24.1140 C   0  0  0  0  0  0  0  0  0  0  0  0
    6.1981  -17.7518   23.0566 C   0  0  0  0  0  0  0  0  0  0  0  0
    5.1957  -18.7790   23.4618 C   0  0  0  0  0  0  0  0  0  0  0  0
    4.3712  -19.2437   22.2846 C   0  0  0  0  0  0  0  0  0  0  0  0
    3.4106  -20.2305   22.7474 N   0  0  0  0  0  0  0  0  0  0  0  0
    8.8923  -15.7653   24.8740 C   0  0  0  0  0  0  0  0  0  0  0  0
   10.0586  -16.2766   24.9781 O   0  0  0  0  0  0  0  0  0  0  0  0
    8.4015  -14.8505   25.8178 N   0  0  0  0  0  0  0  0  0  0  0  0
    7.0492  -14.3411   25.8719 C   0  0  0  0  0  0  0  0  0  0  0  0
    7.1430  -13.0255   26.6513 C   0  0  0  0  0  0  0  0  0  0  0  0
    8.6624  -12.8143   26.7521 C   0  0  0  0  0  0  0  0  0  0  0  0
    9.0896  -14.2667   26.9261 C   0  0  1  0  0  0  0  0  0  0  0  0
    8.5210  -14.8243   28.1882 C   0  0  0  0  0  0  0  0  0  0  0  0
    7.4647  -15.4718   28.1287 O   0  0  0  0  0  0  0  0  0  0  0  0
    9.1215  -14.6497   29.4182 O   0  0  0  0  0  0  0  0  0  0  0  0
  2  3  1  0
  2  1  1  6
  3  4  1  0
  4  8  1  0
  4  5  2  0
  6  2  1  0
  7  6  2  0
  9  6  1  0
 10  9  1  0
 10 11  1  1
 11 12  1  0
 12 13  1  0
 13 14  1  0
 14 15  1  0
 16 17  2  0
 16 10  1  0
 18 16  1  0
 19 18  1  0
 20 21  1  0
 20 19  1  0
 21 22  1  0
 22 23  1  1
 22 18  1  0
 23 25  1  0
 24 23  2  0
M  END
$$$$
