DKP.pdb
     RDKit          3D

 25 25  0  0  1  0  0  0  0  0999 V2000
   10.4329  -16.4546   20.0806 N   0  0  0  0  0  0  0  0  0  0  0  0
   10.7050  -17.1493   21.3085 C   0  0  1  0  0  0  0  0  0  0  0  0
   12.2221  -17.1041   21.5245 C   0  0  0  0  0  0  0  0  0  0  0  0
   12.8834  -17.9691   20.4918 C   0  0  0  0  0  0  0  0  0  0  0  0
   14.1362  -18.0592   20.5171 O   0  0  0  0  0  0  0  0  0  0  0  0
   10.0036  -16.4592   22.4195 C   0  0  0  0  0  0  0  0  0  0  0  0
   10.0729  -15.2100   22.5419 O   0  0  0  0  0  0  0  0  0  0  0  0
   12.1521  -18.6483   19.5408 O   0  0  0  0  0  0  0  0  0  0  0  0
    9.2214  -17.2037   23.3914 N   0  0  0  0  0  0  0  0  0  0  0  0
    8.5524  -16.5026   24.4511 C   0  0  1  0  0  0  0  0  0  0  0  0
    7.4148  -17.2980   25.0105 C   0  0  0  0  0  0  0  0  0  0  0  0
    6.4809  -17.8715   24.0370 C   0  0  0  0  0  0  0  0  0  0  0  0
    6.0063  -19.2651   24.2752 C   0  0  0  0  0  0  0  0  0  0  0  0
    5.0683  -19.7254   23.1844 C   0  0  0  0  0  0  0  0  0  0  0  0
    4.6858  -21.1021   23.4472 N   0  0  0  0  0  0  0  0  0  0  0  0
    9.5842  -16.2810   25.5363 C   0  0  0  0  0  0  0  0  0  0  0  0
   10.6619  -16.9532   25.3982 O   0  0  0  0  0  0  0  0  0  0  0  0
    9.3929  -15.4086   26.6183 N   0  0  0  0  0  0  0  0  0  0  0  0
    8.1572  -14.7329   26.9463 C   0  0  0  0  0  0  0  0  0  0  0  0
    8.5687  -13.5261   27.7955 C   0  0  0  0  0  0  0  0  0  0  0  0
   10.0988  -13.5288   27.6456 C   0  0  0  0  0  0  0  0  0  0  0  0
   10.3298  -15.0350   27.6309 C   0  0  1  0  0  0  0  0  0  0  0  0
    9.8972  -15.6363   28.9265 C   0  0  0  0  0  0  0  0  0  0  0  0
    8.7799  -16.1713   28.9894 O   0  0  0  0  0  0  0  0  0  0  0  0
   10.6883  -15.6218   30.0568 O   0  0  0  0  0  0  0  0  0  0  0  0
  2  3  1  0
  2  1  1  6
  3  4  1  0
  4  8  1  0
  4  5  2  0
  6  2  1  0
  7  6  2  0
  9  6  1  0
 10  9  1  0
 10 11  1  1
 11 12  1  0
 12 13  1  0
 13 14  1  0
 14 15  1  0
 16 17  2  0
 16 10  1  0
 18 16  1  0
 19 18  1  0
 20 21  1  0
 20 19  1  0
 21 22  1  0
 22 23  1  1
 22 18  1  0
 23 25  1  0
 24 23  2  0
M  END
$$$$
