DKP.pdb
     RDKit          3D

 25 25  0  0  1  0  0  0  0  0999 V2000
    9.4130  -16.1553   19.3840 N   0  0  0  0  0  0  0  0  0  0  0  0
   10.0002  -16.2817   20.6893 C   0  0  1  0  0  0  0  0  0  0  0  0
   11.2461  -15.3887   20.7107 C   0  0  0  0  0  0  0  0  0  0  0  0
   12.3713  -16.1123   20.0309 C   0  0  0  0  0  0  0  0  0  0  0  0
   13.4096  -15.4592   19.7594 O   0  0  0  0  0  0  0  0  0  0  0  0
    9.0197  -15.8262   21.7060 C   0  0  0  0  0  0  0  0  0  0  0  0
    8.3512  -14.7771   21.5252 O   0  0  0  0  0  0  0  0  0  0  0  0
   12.2818  -17.4499   19.7092 O   0  0  0  0  0  0  0  0  0  0  0  0
    8.8060  -16.5757   22.9321 N   0  0  0  0  0  0  0  0  0  0  0  0
    7.8182  -16.1294   23.8739 C   0  0  1  0  0  0  0  0  0  0  0  0
    7.1759  -17.2764   24.5891 C   0  0  0  0  0  0  0  0  0  0  0  0
    6.3870  -18.1974   23.7655 C   0  0  0  0  0  0  0  0  0  0  0  0
    5.8408  -19.4177   24.4262 C   0  0  0  0  0  0  0  0  0  0  0  0
    5.1347  -20.3147   23.4371 C   0  0  0  0  0  0  0  0  0  0  0  0
    4.7704  -21.5520   24.1056 N   0  0  0  0  0  0  0  0  0  0  0  0
    8.5457  -15.2623   24.8790 C   0  0  0  0  0  0  0  0  0  0  0  0
    9.8203  -15.3337   24.8271 O   0  0  0  0  0  0  0  0  0  0  0  0
    7.8906  -14.4357   25.8041 N   0  0  0  0  0  0  0  0  0  0  0  0
    6.4665  -14.4158   26.0543 C   0  0  0  0  0  0  0  0  0  0  0  0
    6.1833  -13.0436   26.6737 C   0  0  0  0  0  0  0  0  0  0  0  0
    7.5221  -12.3143   26.4757 C   0  0  0  0  0  0  0  0  0  0  0  0
    8.4649  -13.4887   26.7076 C   0  0  1  0  0  0  0  0  0  0  0  0
    8.3139  -14.0050   28.0996 C   0  0  0  0  0  0  0  0  0  0  0  0
    7.5559  -14.9667   28.2976 O   0  0  0  0  0  0  0  0  0  0  0  0
    8.9821  -13.4570   29.1753 O   0  0  0  0  0  0  0  0  0  0  0  0
  2  3  1  0
  2  1  1  6
  3  4  1  0
  4  8  1  0
  4  5  2  0
  6  2  1  0
  7  6  2  0
  9  6  1  0
 10  9  1  0
 10 11  1  1
 11 12  1  0
 12 13  1  0
 13 14  1  0
 14 15  1  0
 16 17  2  0
 16 10  1  0
 18 16  1  0
 19 18  1  0
 20 21  1  0
 20 19  1  0
 21 22  1  0
 22 23  1  1
 22 18  1  0
 23 25  1  0
 24 23  2  0
M  END
$$$$
