DKP.pdb
     RDKit          3D

 25 25  0  0  1  0  0  0  0  0999 V2000
   10.4474  -16.0161   19.4420 N   0  0  0  0  0  0  0  0  0  0  0  0
   11.1078  -15.9170   20.7142 C   0  0  1  0  0  0  0  0  0  0  0  0
   12.2789  -14.9433   20.5387 C   0  0  0  0  0  0  0  0  0  0  0  0
   13.3910  -15.6494   19.8199 C   0  0  0  0  0  0  0  0  0  0  0  0
   13.1858  -16.8276   19.4351 O   0  0  0  0  0  0  0  0  0  0  0  0
   10.1471  -15.3950   21.7177 C   0  0  0  0  0  0  0  0  0  0  0  0
    9.6342  -14.2555   21.5802 O   0  0  0  0  0  0  0  0  0  0  0  0
   14.6032  -15.0370   19.5828 O   0  0  0  0  0  0  0  0  0  0  0  0
    9.7743  -16.1817   22.8808 N   0  0  0  0  0  0  0  0  0  0  0  0
    8.8597  -15.6355   23.8437 C   0  0  1  0  0  0  0  0  0  0  0  0
    7.6450  -16.4950   24.0044 C   0  0  0  0  0  0  0  0  0  0  0  0
    7.3060  -17.3609   22.8713 C   0  0  0  0  0  0  0  0  0  0  0  0
    6.1956  -18.3386   23.0588 C   0  0  0  0  0  0  0  0  0  0  0  0
    5.9131  -19.1069   21.7894 C   0  0  0  0  0  0  0  0  0  0  0  0
    4.8828  -20.0946   22.0605 N   0  0  0  0  0  0  0  0  0  0  0  0
    9.6059  -15.5797   25.1596 C   0  0  0  0  0  0  0  0  0  0  0  0
   10.6728  -16.2815   25.2023 O   0  0  0  0  0  0  0  0  0  0  0  0
    9.1777  -14.8215   26.2595 N   0  0  0  0  0  0  0  0  0  0  0  0
    7.8714  -14.2197   26.4095 C   0  0  0  0  0  0  0  0  0  0  0  0
    8.0612  -13.0874   27.4238 C   0  0  0  0  0  0  0  0  0  0  0  0
    9.5912  -13.0273   27.5623 C   0  0  0  0  0  0  0  0  0  0  0  0
    9.8942  -14.5171   27.4582 C   0  0  1  0  0  0  0  0  0  0  0  0
    9.2619  -15.2531   28.5920 C   0  0  0  0  0  0  0  0  0  0  0  0
    8.1727  -15.8153   28.4017 O   0  0  0  0  0  0  0  0  0  0  0  0
    9.8384  -15.3341   29.8430 O   0  0  0  0  0  0  0  0  0  0  0  0
  2  3  1  0
  2  1  1  6
  3  4  1  0
  4  8  1  0
  4  5  2  0
  6  2  1  0
  7  6  2  0
  9  6  1  0
 10  9  1  0
 10 11  1  1
 11 12  1  0
 12 13  1  0
 13 14  1  0
 14 15  1  0
 16 17  2  0
 16 10  1  0
 18 16  1  0
 19 18  1  0
 20 21  1  0
 20 19  1  0
 21 22  1  0
 22 23  1  1
 22 18  1  0
 23 25  1  0
 24 23  2  0
M  END
$$$$
