DKP.pdb
     RDKit          3D

 25 25  0  0  1  0  0  0  0  0999 V2000
    6.3283  -15.4742   19.8384 N   0  0  0  0  0  0  0  0  0  0  0  0
    7.5570  -15.5225   20.5817 C   0  0  1  0  0  0  0  0  0  0  0  0
    8.3558  -14.2670   20.2130 C   0  0  0  0  0  0  0  0  0  0  0  0
    8.9216  -14.4417   18.8342 C   0  0  0  0  0  0  0  0  0  0  0  0
    9.5154  -15.5183   18.5759 O   0  0  0  0  0  0  0  0  0  0  0  0
    7.2439  -15.5290   22.0324 C   0  0  0  0  0  0  0  0  0  0  0  0
    6.4685  -14.6701   22.5234 O   0  0  0  0  0  0  0  0  0  0  0  0
    8.8011  -13.4609   17.8728 O   0  0  0  0  0  0  0  0  0  0  0  0
    7.8216  -16.5227   22.9210 N   0  0  0  0  0  0  0  0  0  0  0  0
    7.5034  -16.4936   24.3209 C   0  0  1  0  0  0  0  0  0  0  0  0
    7.4764  -17.8682   24.9121 C   0  0  0  0  0  0  0  0  0  0  0  0
    7.3543  -17.9470   26.3707 C   0  0  0  0  0  0  0  0  0  0  0  0
    7.3696  -19.3028   26.9916 C   0  0  0  0  0  0  0  0  0  0  0  0
    7.0882  -19.2369   28.4742 C   0  0  0  0  0  0  0  0  0  0  0  0
    6.9353  -20.5897   28.9814 N   0  0  0  0  0  0  0  0  0  0  0  0
    8.5942  -15.6862   24.9914 C   0  0  0  0  0  0  0  0  0  0  0  0
    9.7704  -15.8897   24.5358 O   0  0  0  0  0  0  0  0  0  0  0  0
    8.3542  -14.7780   26.0335 N   0  0  0  0  0  0  0  0  0  0  0  0
    7.0661  -14.5036   26.6308 C   0  0  0  0  0  0  0  0  0  0  0  0
    7.2041  -13.1195   27.2728 C   0  0  0  0  0  0  0  0  0  0  0  0
    8.5621  -12.6435   26.7319 C   0  0  0  0  0  0  0  0  0  0  0  0
    9.2998  -13.9768   26.7453 C   0  0  1  0  0  0  0  0  0  0  0  0
    9.4077  -14.4931   28.1413 C   0  0  0  0  0  0  0  0  0  0  0  0
    8.5922  -15.3459   28.5240 O   0  0  0  0  0  0  0  0  0  0  0  0
   10.3766  -14.0614   29.0237 O   0  0  0  0  0  0  0  0  0  0  0  0
  2  3  1  0
  2  1  1  6
  3  4  1  0
  4  8  1  0
  4  5  2  0
  6  2  1  0
  7  6  2  0
  9  6  1  0
 10  9  1  0
 10 11  1  1
 11 12  1  0
 12 13  1  0
 13 14  1  0
 14 15  1  0
 16 17  2  0
 16 10  1  0
 18 16  1  0
 19 18  1  0
 20 21  1  0
 20 19  1  0
 21 22  1  0
 22 23  1  1
 22 18  1  0
 23 25  1  0
 24 23  2  0
M  END
$$$$
