DKP.pdb
     RDKit          3D

 25 25  0  0  1  0  0  0  0  0999 V2000
   11.0311  -16.0616   19.9607 N   0  0  0  0  0  0  0  0  0  0  0  0
   11.6977  -15.6626   21.1694 C   0  0  1  0  0  0  0  0  0  0  0  0
   12.2628  -14.2579   20.9290 C   0  0  0  0  0  0  0  0  0  0  0  0
   13.3339  -14.3405   19.8813 C   0  0  0  0  0  0  0  0  0  0  0  0
   14.2175  -15.2237   20.0141 O   0  0  0  0  0  0  0  0  0  0  0  0
   10.7130  -15.6411   22.2794 C   0  0  0  0  0  0  0  0  0  0  0  0
   10.1571  -14.5665   22.6208 O   0  0  0  0  0  0  0  0  0  0  0  0
   13.3595  -13.4817   18.8032 O   0  0  0  0  0  0  0  0  0  0  0  0
   10.3656  -16.8545   22.9989 N   0  0  0  0  0  0  0  0  0  0  0  0
    9.5179  -16.7761   24.1553 C   0  0  1  0  0  0  0  0  0  0  0  0
    8.9553  -18.1135   24.5221 C   0  0  0  0  0  0  0  0  0  0  0  0
    8.2452  -18.1919   25.8021 C   0  0  0  0  0  0  0  0  0  0  0  0
    7.7057  -19.5207   26.2110 C   0  0  0  0  0  0  0  0  0  0  0  0
    6.8755  -19.4189   27.4687 C   0  0  0  0  0  0  0  0  0  0  0  0
    6.3069  -20.7237   27.7603 N   0  0  0  0  0  0  0  0  0  0  0  0
   10.3860  -16.2747   25.2895 C   0  0  0  0  0  0  0  0  0  0  0  0
   11.6229  -16.5808   25.1951 O   0  0  0  0  0  0  0  0  0  0  0  0
    9.8915  -15.5287   26.3699 N   0  0  0  0  0  0  0  0  0  0  0  0
    8.5134  -15.1335   26.5591 C   0  0  0  0  0  0  0  0  0  0  0  0
    8.5641  -13.9261   27.5008 C   0  0  0  0  0  0  0  0  0  0  0  0
   10.0690  -13.6162   27.5523 C   0  0  0  0  0  0  0  0  0  0  0  0
   10.6033  -15.0427   27.5100 C   0  0  1  0  0  0  0  0  0  0  0  0
   10.1502  -15.7996   28.7137 C   0  0  0  0  0  0  0  0  0  0  0  0
    9.1427  -16.5170   28.6199 O   0  0  0  0  0  0  0  0  0  0  0  0
   10.8052  -15.7344   29.9264 O   0  0  0  0  0  0  0  0  0  0  0  0
  2  3  1  0
  2  1  1  6
  3  4  1  0
  4  8  1  0
  4  5  2  0
  6  2  1  0
  7  6  2  0
  9  6  1  0
 10  9  1  0
 10 11  1  1
 11 12  1  0
 12 13  1  0
 13 14  1  0
 14 15  1  0
 16 17  2  0
 16 10  1  0
 18 16  1  0
 19 18  1  0
 20 21  1  0
 20 19  1  0
 21 22  1  0
 22 23  1  1
 22 18  1  0
 23 25  1  0
 24 23  2  0
M  END
$$$$
