DKP.pdb
     RDKit          3D

 25 25  0  0  1  0  0  0  0  0999 V2000
    6.6313  -15.8438   19.4546 N   0  0  0  0  0  0  0  0  0  0  0  0
    7.6381  -15.2474   20.2884 C   0  0  1  0  0  0  0  0  0  0  0  0
    7.8036  -13.7953   19.8254 C   0  0  0  0  0  0  0  0  0  0  0  0
    8.5299  -13.7864   18.5123 C   0  0  0  0  0  0  0  0  0  0  0  0
    7.9230  -13.3349   17.5093 O   0  0  0  0  0  0  0  0  0  0  0  0
    7.1838  -15.2915   21.7006 C   0  0  0  0  0  0  0  0  0  0  0  0
    6.0347  -14.8910   22.0158 O   0  0  0  0  0  0  0  0  0  0  0  0
    9.8212  -14.2553   18.3964 O   0  0  0  0  0  0  0  0  0  0  0  0
    8.0496  -15.7960   22.7526 N   0  0  0  0  0  0  0  0  0  0  0  0
    7.5467  -15.9081   24.0929 C   0  0  1  0  0  0  0  0  0  0  0  0
    7.5379  -17.3284   24.5648 C   0  0  0  0  0  0  0  0  0  0  0  0
    7.3012  -17.5370   25.9963 C   0  0  0  0  0  0  0  0  0  0  0  0
    7.3389  -18.9386   26.5043 C   0  0  0  0  0  0  0  0  0  0  0  0
    7.0276  -19.0018   27.9809 C   0  0  0  0  0  0  0  0  0  0  0  0
    7.1451  -20.3801   28.4248 N   0  0  0  0  0  0  0  0  0  0  0  0
    8.4791  -15.0996   24.9693 C   0  0  0  0  0  0  0  0  0  0  0  0
    9.7054  -15.1197   24.6111 O   0  0  0  0  0  0  0  0  0  0  0  0
    8.0509  -14.3755   26.0921 N   0  0  0  0  0  0  0  0  0  0  0  0
    6.6967  -14.3289   26.5972 C   0  0  0  0  0  0  0  0  0  0  0  0
    6.6158  -13.0398   27.4210 C   0  0  0  0  0  0  0  0  0  0  0  0
    7.9440  -12.3477   27.0739 C   0  0  0  0  0  0  0  0  0  0  0  0
    8.8345  -13.5811   26.9852 C   0  0  1  0  0  0  0  0  0  0  0  0
    8.8956  -14.2699   28.3078 C   0  0  0  0  0  0  0  0  0  0  0  0
    8.1494  -15.2404   28.5072 O   0  0  0  0  0  0  0  0  0  0  0  0
    9.7475  -13.8720   29.3176 O   0  0  0  0  0  0  0  0  0  0  0  0
  2  3  1  0
  2  1  1  6
  3  4  1  0
  4  8  1  0
  4  5  2  0
  6  2  1  0
  7  6  2  0
  9  6  1  0
 10  9  1  0
 10 11  1  1
 11 12  1  0
 12 13  1  0
 13 14  1  0
 14 15  1  0
 16 17  2  0
 16 10  1  0
 18 16  1  0
 19 18  1  0
 20 21  1  0
 20 19  1  0
 21 22  1  0
 22 23  1  1
 22 18  1  0
 23 25  1  0
 24 23  2  0
M  END
$$$$
