DKP.pdb
     RDKit          3D

 25 25  0  0  1  0  0  0  0  0999 V2000
   10.5994  -16.2548   19.8861 N   0  0  0  0  0  0  0  0  0  0  0  0
   10.8632  -16.7788   21.1977 C   0  0  1  0  0  0  0  0  0  0  0  0
   12.2854  -16.3494   21.5762 C   0  0  0  0  0  0  0  0  0  0  0  0
   13.2606  -17.0859   20.7053 C   0  0  0  0  0  0  0  0  0  0  0  0
   13.2837  -18.3397   20.7809 O   0  0  0  0  0  0  0  0  0  0  0  0
    9.8797  -16.2093   22.1521 C   0  0  0  0  0  0  0  0  0  0  0  0
    9.5955  -14.9851   22.1237 O   0  0  0  0  0  0  0  0  0  0  0  0
   14.1090  -16.4209   19.8460 O   0  0  0  0  0  0  0  0  0  0  0  0
    9.2213  -17.0460   23.1408 N   0  0  0  0  0  0  0  0  0  0  0  0
    8.2690  -16.4625   24.0433 C   0  0  1  0  0  0  0  0  0  0  0  0
    7.3450  -17.4915   24.6156 C   0  0  0  0  0  0  0  0  0  0  0  0
    6.4719  -18.1838   23.6631 C   0  0  0  0  0  0  0  0  0  0  0  0
    5.6240  -19.2936   24.1860 C   0  0  0  0  0  0  0  0  0  0  0  0
    4.8792  -19.9936   23.0739 C   0  0  0  0  0  0  0  0  0  0  0  0
    4.1027  -21.0811   23.6438 N   0  0  0  0  0  0  0  0  0  0  0  0
    9.0697  -15.8359   25.1647 C   0  0  0  0  0  0  0  0  0  0  0  0
   10.2859  -16.2208   25.2365 O   0  0  0  0  0  0  0  0  0  0  0  0
    8.5377  -14.9017   26.0660 N   0  0  0  0  0  0  0  0  0  0  0  0
    7.1531  -14.4896   26.1316 C   0  0  0  0  0  0  0  0  0  0  0  0
    7.1695  -13.1242   26.8262 C   0  0  0  0  0  0  0  0  0  0  0  0
    8.6711  -12.7971   26.8660 C   0  0  0  0  0  0  0  0  0  0  0  0
    9.2099  -14.2006   27.1146 C   0  0  1  0  0  0  0  0  0  0  0  0
    8.7187  -14.7176   28.4255 C   0  0  0  0  0  0  0  0  0  0  0  0
    7.7246  -15.4593   28.4368 O   0  0  0  0  0  0  0  0  0  0  0  0
    9.3243  -14.4048   29.6252 O   0  0  0  0  0  0  0  0  0  0  0  0
  2  3  1  0
  2  1  1  6
  3  4  1  0
  4  8  1  0
  4  5  2  0
  6  2  1  0
  7  6  2  0
  9  6  1  0
 10  9  1  0
 10 11  1  1
 11 12  1  0
 12 13  1  0
 13 14  1  0
 14 15  1  0
 16 17  2  0
 16 10  1  0
 18 16  1  0
 19 18  1  0
 20 21  1  0
 20 19  1  0
 21 22  1  0
 22 23  1  1
 22 18  1  0
 23 25  1  0
 24 23  2  0
M  END
$$$$
