DKP.pdb
     RDKit          3D

 25 25  0  0  1  0  0  0  0  0999 V2000
   10.6959  -16.2718   19.9829 N   0  0  0  0  0  0  0  0  0  0  0  0
   11.0652  -16.7289   21.2941 C   0  0  1  0  0  0  0  0  0  0  0  0
   12.4863  -16.2210   21.5641 C   0  0  0  0  0  0  0  0  0  0  0  0
   13.4481  -17.0043   20.7196 C   0  0  0  0  0  0  0  0  0  0  0  0
   12.9715  -17.8098   19.8816 O   0  0  0  0  0  0  0  0  0  0  0  0
   10.1170  -16.1651   22.2868 C   0  0  0  0  0  0  0  0  0  0  0  0
    9.8767  -14.9315   22.3132 O   0  0  0  0  0  0  0  0  0  0  0  0
   14.8125  -16.8547   20.8489 O   0  0  0  0  0  0  0  0  0  0  0  0
    9.4435  -17.0183   23.2508 N   0  0  0  0  0  0  0  0  0  0  0  0
    8.5491  -16.4357   24.2113 C   0  0  1  0  0  0  0  0  0  0  0  0
    7.5616  -17.4351   24.7270 C   0  0  0  0  0  0  0  0  0  0  0  0
    6.7982  -18.1757   23.7183 C   0  0  0  0  0  0  0  0  0  0  0  0
    5.8474  -19.2181   24.2014 C   0  0  0  0  0  0  0  0  0  0  0  0
    5.1965  -19.9504   23.0518 C   0  0  0  0  0  0  0  0  0  0  0  0
    4.3340  -20.9893   23.5879 N   0  0  0  0  0  0  0  0  0  0  0  0
    9.4095  -15.9506   25.3585 C   0  0  0  0  0  0  0  0  0  0  0  0
   10.6065  -16.3972   25.3585 O   0  0  0  0  0  0  0  0  0  0  0  0
    8.9485  -15.0770   26.3548 N   0  0  0  0  0  0  0  0  0  0  0  0
    7.5751  -14.6661   26.5443 C   0  0  0  0  0  0  0  0  0  0  0  0
    7.6500  -13.3502   27.3250 C   0  0  0  0  0  0  0  0  0  0  0  0
    9.1532  -13.0308   27.2813 C   0  0  0  0  0  0  0  0  0  0  0  0
    9.6974  -14.4494   27.3979 C   0  0  1  0  0  0  0  0  0  0  0  0
    9.2947  -15.0511   28.7028 C   0  0  0  0  0  0  0  0  0  0  0  0
    8.3136  -15.8097   28.7297 O   0  0  0  0  0  0  0  0  0  0  0  0
    9.9682  -14.7988   29.8803 O   0  0  0  0  0  0  0  0  0  0  0  0
  2  3  1  0
  2  1  1  6
  3  4  1  0
  4  8  1  0
  4  5  2  0
  6  2  1  0
  7  6  2  0
  9  6  1  0
 10  9  1  0
 10 11  1  1
 11 12  1  0
 12 13  1  0
 13 14  1  0
 14 15  1  0
 16 17  2  0
 16 10  1  0
 18 16  1  0
 19 18  1  0
 20 21  1  0
 20 19  1  0
 21 22  1  0
 22 23  1  1
 22 18  1  0
 23 25  1  0
 24 23  2  0
M  END
$$$$
