DKP.pdb
     RDKit          3D

 25 25  0  0  1  0  0  0  0  0999 V2000
   11.1060  -16.8061   20.3511 N   0  0  0  0  0  0  0  0  0  0  0  0
   11.6513  -17.0744   21.6531 C   0  0  1  0  0  0  0  0  0  0  0  0
   13.0541  -16.4569   21.6894 C   0  0  0  0  0  0  0  0  0  0  0  0
   13.9770  -17.3049   20.8641 C   0  0  0  0  0  0  0  0  0  0  0  0
   14.5928  -16.7525   19.9187 O   0  0  0  0  0  0  0  0  0  0  0  0
   10.7827  -16.4459   22.6792 C   0  0  0  0  0  0  0  0  0  0  0  0
   10.5561  -15.2096   22.6555 O   0  0  0  0  0  0  0  0  0  0  0  0
   14.1527  -18.6474   21.1240 O   0  0  0  0  0  0  0  0  0  0  0  0
   10.1733  -17.2372   23.7343 N   0  0  0  0  0  0  0  0  0  0  0  0
    9.3603  -16.5916   24.7263 C   0  0  1  0  0  0  0  0  0  0  0  0
    8.1101  -17.3648   25.0075 C   0  0  0  0  0  0  0  0  0  0  0  0
    7.6912  -18.3213   23.9787 C   0  0  0  0  0  0  0  0  0  0  0  0
    6.4757  -19.1405   24.2531 C   0  0  0  0  0  0  0  0  0  0  0  0
    6.1427  -20.0451   23.0901 C   0  0  0  0  0  0  0  0  0  0  0  0
    4.9818  -20.8461   23.4385 N   0  0  0  0  0  0  0  0  0  0  0  0
   10.1959  -16.5234   25.9867 C   0  0  0  0  0  0  0  0  0  0  0  0
   11.2485  -17.2475   25.9733 O   0  0  0  0  0  0  0  0  0  0  0  0
    9.8596  -15.7320   27.0953 N   0  0  0  0  0  0  0  0  0  0  0  0
    8.5803  -15.0957   27.3181 C   0  0  0  0  0  0  0  0  0  0  0  0
    8.8633  -13.9471   28.2915 C   0  0  0  0  0  0  0  0  0  0  0  0
   10.4001  -13.9212   28.3266 C   0  0  0  0  0  0  0  0  0  0  0  0
   10.6615  -15.4198   28.2364 C   0  0  1  0  0  0  0  0  0  0  0  0
   10.0900  -16.1161   29.4262 C   0  0  0  0  0  0  0  0  0  0  0  0
    8.9920  -16.6818   29.3129 O   0  0  0  0  0  0  0  0  0  0  0  0
   10.7322  -16.1567   30.6468 O   0  0  0  0  0  0  0  0  0  0  0  0
  2  3  1  0
  2  1  1  6
  3  4  1  0
  4  8  1  0
  4  5  2  0
  6  2  1  0
  7  6  2  0
  9  6  1  0
 10  9  1  0
 10 11  1  1
 11 12  1  0
 12 13  1  0
 13 14  1  0
 14 15  1  0
 16 17  2  0
 16 10  1  0
 18 16  1  0
 19 18  1  0
 20 21  1  0
 20 19  1  0
 21 22  1  0
 22 23  1  1
 22 18  1  0
 23 25  1  0
 24 23  2  0
M  END
$$$$
