REC.pdb
     RDKit          3D

 27 26  0  0  1  0  0  0  0  0999 V2000
   17.2021  -28.8826  -11.6306 N   0  0  0  0  0  0  0  0  0  0  0  0
   17.9863  -29.8291  -10.9291 C   0  0  0  0  0  0  0  0  0  0  0  0
   17.5787  -31.0344  -10.8055 N   0  0  0  0  0  0  0  0  0  0  0  0
   19.2223  -29.4212  -10.3626 N   0  0  0  0  0  0  0  0  0  0  0  0
   19.7902  -28.1239  -10.5974 C   0  0  0  0  0  0  0  0  0  0  0  0
   19.6947  -27.7135  -12.0517 C   0  0  0  0  0  0  0  0  0  0  0  0
   20.2700  -26.3259  -12.2848 C   0  0  0  0  0  0  0  0  0  0  0  0
   21.4399  -26.5003  -13.1996 C   0  0  2  0  0  0  0  0  0  0  0  0
   22.2381  -27.6079  -12.7425 N   0  0  0  0  0  0  0  0  0  0  0  0
   22.2741  -25.3147  -13.3739 C   0  0  0  0  0  0  0  0  0  0  0  0
   22.8939  -24.8782  -12.3732 O   0  0  0  0  0  0  0  0  0  0  0  0
   18.1267  -31.7171  -10.2359 N   0  0  0  0  0  0  0  0  0  0  0  0
   22.4309  -24.6171  -14.6115 C   0  0  1  0  0  0  0  0  0  0  0  0
   23.2106  -23.3952  -14.6522 C   0  0  0  0  0  0  0  0  0  0  0  0
   24.2753  -23.5283  -15.6968 C   0  0  0  0  0  0  0  0  0  0  0  0
   25.3566  -24.5026  -15.2923 C   0  0  0  0  0  0  0  0  0  0  0  0
   26.2867  -24.6630  -16.4314 O   0  0  0  0  0  0  0  0  0  0  0  0
   26.0333  -24.0789  -17.5283 C   0  0  0  0  0  0  0  0  0  0  0  0
   22.3215  -22.2265  -14.8944 O   0  0  0  0  0  0  0  0  0  0  0  0
   21.3994  -22.3360  -15.7270 O   0  0  0  0  0  0  0  0  0  0  0  0
   27.4312  -25.4287  -16.3624 N   0  0  0  0  0  0  0  0  0  0  0  0
   22.4910  -20.9992  -14.2088 C   0  0  2  0  0  0  0  0  0  0  0  0
   21.6601  -19.8394  -14.4542 C   0  0  0  0  0  0  0  0  0  0  0  0
   21.8321  -18.8542  -13.3129 S   0  0  0  0  0  0  0  0  0  0  0  0
   20.5393  -17.5986  -13.4488 C   0  0  0  0  0  0  0  0  0  0  0  0
   22.0837  -19.1974  -15.7144 O   0  0  0  0  0  0  0  0  0  0  0  0
   21.2267  -18.5158  -16.5766 O   0  0  0  0  0  0  0  0  0  0  0  0
  2  1  1  0
  3  2  2  0
  4  2  1  0
  5  4  1  0
  6  5  1  0
  7  6  1  0
  8  9  1  1
  8 10  1  0
  8  7  1  0
 10 12  1  0
 11 10  2  0
 12 13  1  0
 13 14  1  1
 14 15  1  0
 15 16  1  0
 16 20  1  0
 17 16  2  0
 18 19  2  0
 18 13  1  0
 21 18  1  0
 22 21  1  0
 22 23  1  1
 24 23  1  0
 25 22  1  0
 26 25  1  0
 27 25  2  0
M  END
$$$$
