REC.pdb
     RDKit          3D

 27 26  0  0  1  0  0  0  0  0999 V2000
   33.0207  -22.2959  -11.5339 N   0  0  0  0  0  0  0  0  0  0  0  0
   33.0572  -22.1644  -12.9425 C   0  0  0  0  0  0  0  0  0  0  0  0
   33.8450  -22.8955  -13.6348 N   0  0  0  0  0  0  0  0  0  0  0  0
   32.2157  -21.2097  -13.5714 N   0  0  0  0  0  0  0  0  0  0  0  0
   31.0856  -20.6206  -12.9109 C   0  0  0  0  0  0  0  0  0  0  0  0
   30.3113  -19.6924  -13.8226 C   0  0  0  0  0  0  0  0  0  0  0  0
   29.3223  -20.4519  -14.6920 C   0  0  0  0  0  0  0  0  0  0  0  0
   28.8340  -21.6031  -13.8722 C   0  0  2  0  0  0  0  0  0  0  0  0
   29.1073  -22.8322  -14.5705 N   0  0  0  0  0  0  0  0  0  0  0  0
   27.4258  -21.5412  -13.4913 C   0  0  0  0  0  0  0  0  0  0  0  0
   26.5879  -22.1015  -14.2397 O   0  0  0  0  0  0  0  0  0  0  0  0
   33.8748  -22.7956  -14.6740 N   0  0  0  0  0  0  0  0  0  0  0  0
   26.9381  -20.8826  -12.3203 C   0  0  1  0  0  0  0  0  0  0  0  0
   25.5468  -21.0325  -11.9400 C   0  0  0  0  0  0  0  0  0  0  0  0
   25.4203  -20.8417  -10.4602 C   0  0  0  0  0  0  0  0  0  0  0  0
   24.0027  -21.0370   -9.9761 C   0  0  0  0  0  0  0  0  0  0  0  0
   23.9973  -20.9307   -8.5006 O   0  0  0  0  0  0  0  0  0  0  0  0
   25.0739  -20.6465   -7.8936 C   0  0  0  0  0  0  0  0  0  0  0  0
   24.6990  -20.0812  -12.7090 O   0  0  0  0  0  0  0  0  0  0  0  0
   25.0681  -18.8941  -12.8094 O   0  0  0  0  0  0  0  0  0  0  0  0
   22.8654  -21.1304   -7.7390 N   0  0  0  0  0  0  0  0  0  0  0  0
   23.4908  -20.4836  -13.3281 C   0  0  2  0  0  0  0  0  0  0  0  0
   22.6248  -19.5642  -14.0356 C   0  0  0  0  0  0  0  0  0  0  0  0
   22.4884  -20.0190  -15.4769 S   0  0  0  0  0  0  0  0  0  0  0  0
   22.2431  -21.8095  -15.4852 C   0  0  0  0  0  0  0  0  0  0  0  0
   21.2922  -19.5669  -13.4002 O   0  0  0  0  0  0  0  0  0  0  0  0
   20.2471  -18.7185  -13.7611 O   0  0  0  0  0  0  0  0  0  0  0  0
  2  1  1  0
  3  2  2  0
  4  2  1  0
  5  4  1  0
  6  5  1  0
  7  6  1  0
  8  9  1  6
  8 10  1  0
  8  7  1  0
 10 12  1  0
 11 10  2  0
 12 13  1  0
 13 14  1  6
 14 15  1  0
 15 16  1  0
 16 20  1  0
 17 16  2  0
 18 19  2  0
 18 13  1  0
 21 18  1  0
 22 21  1  0
 22 23  1  1
 24 23  1  0
 25 22  1  0
 26 25  1  0
 27 25  2  0
M  END
$$$$
