REC.pdb
     RDKit          3D

 27 26  0  0  1  0  0  0  0  0999 V2000
   31.4139  -25.1713  -16.3171 N   0  0  0  0  0  0  0  0  0  0  0  0
   30.8412  -25.2277  -17.6100 C   0  0  0  0  0  0  0  0  0  0  0  0
   31.4079  -25.9061  -18.5336 N   0  0  0  0  0  0  0  0  0  0  0  0
   29.6383  -24.5190  -17.8667 N   0  0  0  0  0  0  0  0  0  0  0  0
   29.3072  -23.2909  -17.2014 C   0  0  0  0  0  0  0  0  0  0  0  0
   28.9426  -23.5089  -15.7482 C   0  0  0  0  0  0  0  0  0  0  0  0
   27.4366  -23.5343  -15.5425 C   0  0  0  0  0  0  0  0  0  0  0  0
   26.9559  -22.1346  -15.7565 C   0  0  2  0  0  0  0  0  0  0  0  0
   27.8572  -21.2192  -15.1065 N   0  0  0  0  0  0  0  0  0  0  0  0
   25.5826  -21.8779  -15.3324 C   0  0  0  0  0  0  0  0  0  0  0  0
   24.6847  -22.6535  -15.7425 O   0  0  0  0  0  0  0  0  0  0  0  0
   30.9520  -26.0019  -19.4683 N   0  0  0  0  0  0  0  0  0  0  0  0
   25.1930  -20.7991  -14.4796 C   0  0  1  0  0  0  0  0  0  0  0  0
   23.8044  -20.6621  -14.0851 C   0  0  0  0  0  0  0  0  0  0  0  0
   23.7017  -20.8028  -12.5978 C   0  0  0  0  0  0  0  0  0  0  0  0
   24.8934  -21.5182  -12.0061 C   0  0  0  0  0  0  0  0  0  0  0  0
   24.7350  -21.5459  -10.5356 O   0  0  0  0  0  0  0  0  0  0  0  0
   25.6289  -22.0964   -9.8240 C   0  0  0  0  0  0  0  0  0  0  0  0
   23.2579  -19.3659  -14.5713 O   0  0  0  0  0  0  0  0  0  0  0  0
   23.4014  -18.3500  -13.8621 O   0  0  0  0  0  0  0  0  0  0  0  0
   23.6478  -20.9980   -9.8884 N   0  0  0  0  0  0  0  0  0  0  0  0
   22.5833  -19.2531  -15.8111 C   0  0  1  0  0  0  0  0  0  0  0  0
   22.0115  -18.0108  -16.2857 C   0  0  0  0  0  0  0  0  0  0  0  0
   22.6887  -17.6163  -17.5853 S   0  0  0  0  0  0  0  0  0  0  0  0
   24.1448  -16.6229  -17.1865 C   0  0  0  0  0  0  0  0  0  0  0  0
   20.5688  -18.2039  -16.5322 O   0  0  0  0  0  0  0  0  0  0  0  0
   19.9701  -19.4398  -16.7703 O   0  0  0  0  0  0  0  0  0  0  0  0
  2  1  1  0
  3  2  2  0
  4  2  1  0
  5  4  1  0
  6  5  1  0
  7  6  1  0
  8  9  1  1
  8 10  1  0
  8  7  1  0
 10 12  1  0
 11 10  2  0
 12 13  1  0
 13 14  1  6
 14 15  1  0
 15 16  1  0
 16 20  1  0
 17 16  2  0
 18 19  2  0
 18 13  1  0
 21 18  1  0
 22 21  1  0
 22 23  1  1
 24 23  1  0
 25 22  1  0
 26 25  1  0
 27 25  2  0
M  END
$$$$
