REC.pdb
     RDKit          3D

 27 26  0  0  1  0  0  0  0  0999 V2000
   14.2707  -15.4108  -13.2817 N   0  0  0  0  0  0  0  0  0  0  0  0
   13.7867  -15.2864  -14.6057 C   0  0  0  0  0  0  0  0  0  0  0  0
   12.6039  -15.6754  -14.8955 N   0  0  0  0  0  0  0  0  0  0  0  0
   14.6312  -14.7321  -15.6031 N   0  0  0  0  0  0  0  0  0  0  0  0
   15.9752  -14.3084  -15.3304 C   0  0  0  0  0  0  0  0  0  0  0  0
   16.6519  -13.7317  -16.5560 C   0  0  0  0  0  0  0  0  0  0  0  0
   16.1528  -12.3303  -16.8686 C   0  0  0  0  0  0  0  0  0  0  0  0
   16.8094  -11.9221  -18.1485 C   0  0  2  0  0  0  0  0  0  0  0  0
   17.1199  -13.0985  -18.9183 N   0  0  0  0  0  0  0  0  0  0  0  0
   17.9987  -11.0887  -17.9980 C   0  0  0  0  0  0  0  0  0  0  0  0
   19.1187  -11.6559  -17.9926 O   0  0  0  0  0  0  0  0  0  0  0  0
   12.2969  -15.7211  -15.8927 N   0  0  0  0  0  0  0  0  0  0  0  0
   17.9712   -9.6668  -17.8557 C   0  0  2  0  0  0  0  0  0  0  0  0
   19.2173   -8.9292  -17.7793 C   0  0  0  0  0  0  0  0  0  0  0  0
   18.9767   -7.5154  -18.2100 C   0  0  0  0  0  0  0  0  0  0  0  0
   18.1186   -6.7547  -17.2266 C   0  0  0  0  0  0  0  0  0  0  0  0
   17.9272   -5.3816  -17.7426 O   0  0  0  0  0  0  0  0  0  0  0  0
   16.7650   -4.9987  -18.0758 C   0  0  0  0  0  0  0  0  0  0  0  0
   19.7815   -9.0152  -16.4048 O   0  0  0  0  0  0  0  0  0  0  0  0
   18.9977   -9.0983  -15.4382 O   0  0  0  0  0  0  0  0  0  0  0  0
   18.9634   -4.4833  -17.8850 N   0  0  0  0  0  0  0  0  0  0  0  0
   21.1768   -9.0063  -16.1639 C   0  0  2  0  0  0  0  0  0  0  0  0
   21.7457   -9.0244  -14.8328 C   0  0  0  0  0  0  0  0  0  0  0  0
   23.2132   -9.3999  -14.9244 S   0  0  0  0  0  0  0  0  0  0  0  0
   23.3260  -11.1044  -15.5145 C   0  0  0  0  0  0  0  0  0  0  0  0
   21.6278   -7.6789  -14.2368 O   0  0  0  0  0  0  0  0  0  0  0  0
   21.5717   -7.4276  -12.8671 O   0  0  0  0  0  0  0  0  0  0  0  0
  2  1  1  0
  3  2  2  0
  4  2  1  0
  5  4  1  0
  6  5  1  0
  7  6  1  0
  8  9  1  1
  8 10  1  0
  8  7  1  0
 10 12  1  0
 11 10  2  0
 12 13  1  0
 13 14  1  6
 14 15  1  0
 15 16  1  0
 16 20  1  0
 17 16  2  0
 18 19  2  0
 18 13  1  0
 21 18  1  0
 22 21  1  0
 22 23  1  6
 24 23  1  0
 25 22  1  0
 26 25  1  0
 27 25  2  0
M  END
$$$$
