REC.pdb
     RDKit          3D

 27 26  0  0  1  0  0  0  0  0999 V2000
   26.2423  -26.3221  -16.1596 N   0  0  0  0  0  0  0  0  0  0  0  0
   27.4838  -25.8285  -16.6264 C   0  0  0  0  0  0  0  0  0  0  0  0
   28.4583  -26.6311  -16.8281 N   0  0  0  0  0  0  0  0  0  0  0  0
   27.6324  -24.4363  -16.8602 N   0  0  0  0  0  0  0  0  0  0  0  0
   26.5655  -23.4988  -16.6521 C   0  0  0  0  0  0  0  0  0  0  0  0
   27.0155  -22.0674  -16.8544 C   0  0  0  0  0  0  0  0  0  0  0  0
   25.8479  -21.0957  -16.7950 C   0  0  0  0  0  0  0  0  0  0  0  0
   25.8253  -20.5445  -15.4053 C   0  0  2  0  0  0  0  0  0  0  0  0
   26.4805  -21.4696  -14.5176 N   0  0  0  0  0  0  0  0  0  0  0  0
   24.5008  -20.2053  -14.8932 C   0  0  0  0  0  0  0  0  0  0  0  0
   24.2787  -20.3830  -13.6704 O   0  0  0  0  0  0  0  0  0  0  0  0
   29.3658  -26.2708  -17.1988 N   0  0  0  0  0  0  0  0  0  0  0  0
   23.4384  -19.6838  -15.6945 C   0  0  2  0  0  0  0  0  0  0  0  0
   22.1785  -19.3273  -15.0715 C   0  0  0  0  0  0  0  0  0  0  0  0
   21.5414  -18.2205  -15.8535 C   0  0  0  0  0  0  0  0  0  0  0  0
   21.6361  -16.8897  -15.1448 C   0  0  0  0  0  0  0  0  0  0  0  0
   21.0466  -15.8540  -16.0213 O   0  0  0  0  0  0  0  0  0  0  0  0
   19.8737  -15.4334  -15.7851 C   0  0  0  0  0  0  0  0  0  0  0  0
   21.3011  -20.5247  -14.9656 O   0  0  0  0  0  0  0  0  0  0  0  0
   21.3159  -21.3634  -15.8885 O   0  0  0  0  0  0  0  0  0  0  0  0
   21.7156  -15.3157  -17.1000 N   0  0  0  0  0  0  0  0  0  0  0  0
   20.4541  -20.7388  -13.8512 C   0  0  2  0  0  0  0  0  0  0  0  0
   19.5746  -21.8832  -13.7396 C   0  0  0  0  0  0  0  0  0  0  0  0
   19.9042  -22.6414  -12.4670 S   0  0  0  0  0  0  0  0  0  0  0  0
   18.7458  -24.0199  -12.3126 C   0  0  0  0  0  0  0  0  0  0  0  0
   18.1758  -21.4153  -13.6744 O   0  0  0  0  0  0  0  0  0  0  0  0
   17.0656  -22.2162  -13.9362 O   0  0  0  0  0  0  0  0  0  0  0  0
  2  1  1  0
  3  2  2  0
  4  2  1  0
  5  4  1  0
  6  5  1  0
  7  6  1  0
  8  9  1  1
  8 10  1  0
  8  7  1  0
 10 12  1  0
 11 10  2  0
 12 13  1  0
 13 14  1  1
 14 15  1  0
 15 16  1  0
 16 20  1  0
 17 16  2  0
 18 19  2  0
 18 13  1  0
 21 18  1  0
 22 21  1  0
 22 23  1  1
 24 23  1  0
 25 22  1  0
 26 25  1  0
 27 25  2  0
M  END
$$$$
