REC.pdb
     RDKit          3D

 27 26  0  0  1  0  0  0  0  0999 V2000
   13.3591  -14.2591  -13.8651 N   0  0  0  0  0  0  0  0  0  0  0  0
   12.9595  -14.0670  -15.2091 C   0  0  0  0  0  0  0  0  0  0  0  0
   12.5757  -15.0628  -15.9128 N   0  0  0  0  0  0  0  0  0  0  0  0
   12.9968  -12.7605  -15.7632 N   0  0  0  0  0  0  0  0  0  0  0  0
   13.4567  -11.6195  -15.0235 C   0  0  0  0  0  0  0  0  0  0  0  0
   14.9668  -11.5737  -14.9249 C   0  0  0  0  0  0  0  0  0  0  0  0
   15.4469  -10.3261  -14.2012 C   0  0  0  0  0  0  0  0  0  0  0  0
   16.8692  -10.5803  -13.8158 C   0  0  2  0  0  0  0  0  0  0  0  0
   17.0043  -11.9442  -13.3749 N   0  0  0  0  0  0  0  0  0  0  0  0
   17.4133   -9.6692  -12.8131 C   0  0  0  0  0  0  0  0  0  0  0  0
   17.2118   -9.9365  -11.6031 O   0  0  0  0  0  0  0  0  0  0  0  0
   12.2288  -14.9137  -16.8867 N   0  0  0  0  0  0  0  0  0  0  0  0
   18.1612   -8.4904  -13.1196 C   0  0  1  0  0  0  0  0  0  0  0  0
   18.6374   -7.6430  -12.0435 C   0  0  0  0  0  0  0  0  0  0  0  0
   19.7763   -6.8095  -12.5440 C   0  0  0  0  0  0  0  0  0  0  0  0
   20.3561   -5.9244  -11.4658 C   0  0  0  0  0  0  0  0  0  0  0  0
   21.5044   -5.1877  -12.0377 O   0  0  0  0  0  0  0  0  0  0  0  0
   22.4585   -5.8356  -12.5654 C   0  0  0  0  0  0  0  0  0  0  0  0
   17.5214   -6.8160  -11.5090 O   0  0  0  0  0  0  0  0  0  0  0  0
   16.8452   -6.1338  -12.3045 O   0  0  0  0  0  0  0  0  0  0  0  0
   21.5940   -3.8119  -12.0242 N   0  0  0  0  0  0  0  0  0  0  0  0
   17.2060   -6.7823  -10.1290 C   0  0  2  0  0  0  0  0  0  0  0  0
   16.1383   -5.9699   -9.5854 C   0  0  0  0  0  0  0  0  0  0  0  0
   15.7663   -6.4929   -8.2103 S   0  0  0  0  0  0  0  0  0  0  0  0
   15.1302   -8.1742   -8.3967 C   0  0  0  0  0  0  0  0  0  0  0  0
   16.6054   -4.5749   -9.4614 O   0  0  0  0  0  0  0  0  0  0  0  0
   17.8877   -4.1423   -9.7943 O   0  0  0  0  0  0  0  0  0  0  0  0
  2  1  1  0
  3  2  2  0
  4  2  1  0
  5  4  1  0
  6  5  1  0
  7  6  1  0
  8  9  1  1
  8 10  1  0
  8  7  1  0
 10 12  1  0
 11 10  2  0
 12 13  1  0
 13 14  1  1
 14 15  1  0
 15 16  1  0
 16 20  1  0
 17 16  2  0
 18 19  2  0
 18 13  1  0
 21 18  1  0
 22 21  1  0
 22 23  1  1
 24 23  1  0
 25 22  1  0
 26 25  1  0
 27 25  2  0
M  END
$$$$
