REC.pdb
     RDKit          3D

 27 26  0  0  1  0  0  0  0  0999 V2000
   12.8785  -14.9993  -11.2023 N   0  0  0  0  0  0  0  0  0  0  0  0
   11.9301  -14.4863  -12.1188 C   0  0  0  0  0  0  0  0  0  0  0  0
   10.6935  -14.4317  -11.7991 N   0  0  0  0  0  0  0  0  0  0  0  0
   12.3686  -14.0415  -13.3936 N   0  0  0  0  0  0  0  0  0  0  0  0
   13.7202  -13.6296  -13.6463 C   0  0  0  0  0  0  0  0  0  0  0  0
   13.9469  -12.1726  -13.3025 C   0  0  0  0  0  0  0  0  0  0  0  0
   15.3698  -11.7354  -13.6107 C   0  0  0  0  0  0  0  0  0  0  0  0
   15.4741  -10.3043  -13.1900 C   0  0  2  0  0  0  0  0  0  0  0  0
   14.2578   -9.6176  -13.5390 N   0  0  0  0  0  0  0  0  0  0  0  0
   16.6296   -9.5845  -13.7176 C   0  0  0  0  0  0  0  0  0  0  0  0
   17.7690  -10.0726  -13.5183 O   0  0  0  0  0  0  0  0  0  0  0  0
    9.9965  -14.0337  -12.4675 N   0  0  0  0  0  0  0  0  0  0  0  0
   16.5483   -8.3581  -14.4470 C   0  0  1  0  0  0  0  0  0  0  0  0
   17.7566   -7.7587  -14.9795 C   0  0  0  0  0  0  0  0  0  0  0  0
   17.3891   -6.8072  -16.0759 C   0  0  0  0  0  0  0  0  0  0  0  0
   18.5998   -6.1421  -16.6873 C   0  0  0  0  0  0  0  0  0  0  0  0
   18.1375   -5.2256  -17.7526 O   0  0  0  0  0  0  0  0  0  0  0  0
   17.2439   -4.3653  -17.4883 C   0  0  0  0  0  0  0  0  0  0  0  0
   18.5256   -7.0985  -13.8897 O   0  0  0  0  0  0  0  0  0  0  0  0
   17.9001   -6.5257  -12.9753 O   0  0  0  0  0  0  0  0  0  0  0  0
   18.6334   -5.2605  -19.0386 N   0  0  0  0  0  0  0  0  0  0  0  0
   19.9413   -7.1026  -13.8607 C   0  0  2  0  0  0  0  0  0  0  0  0
   20.7089   -6.4601  -12.8149 C   0  0  0  0  0  0  0  0  0  0  0  0
   21.5665   -7.4998  -12.1174 S   0  0  0  0  0  0  0  0  0  0  0  0
   22.5589   -6.6641  -10.8593 C   0  0  0  0  0  0  0  0  0  0  0  0
   21.5855   -5.4357  -13.4164 O   0  0  0  0  0  0  0  0  0  0  0  0
   22.0623   -4.3137  -12.7410 O   0  0  0  0  0  0  0  0  0  0  0  0
  2  1  1  0
  3  2  2  0
  4  2  1  0
  5  4  1  0
  6  5  1  0
  7  6  1  0
  8  9  1  6
  8 10  1  0
  8  7  1  0
 10 12  1  0
 11 10  2  0
 12 13  1  0
 13 14  1  6
 14 15  1  0
 15 16  1  0
 16 20  1  0
 17 16  2  0
 18 19  2  0
 18 13  1  0
 21 18  1  0
 22 21  1  0
 22 23  1  6
 24 23  1  0
 25 22  1  0
 26 25  1  0
 27 25  2  0
M  END
$$$$
