REC.pdb
     RDKit          3D

 27 26  0  0  1  0  0  0  0  0999 V2000
   23.3739  -20.5881  -15.2161 N   0  0  0  0  0  0  0  0  0  0  0  0
   22.4205  -19.5428  -15.1809 C   0  0  0  0  0  0  0  0  0  0  0  0
   22.5067  -18.5679  -16.0033 N   0  0  0  0  0  0  0  0  0  0  0  0
   21.3765  -19.5892  -14.2201 N   0  0  0  0  0  0  0  0  0  0  0  0
   21.1053  -20.7555  -13.4284 C   0  0  0  0  0  0  0  0  0  0  0  0
   20.4857  -21.8691  -14.2458 C   0  0  0  0  0  0  0  0  0  0  0  0
   19.2994  -22.4985  -13.5333 C   0  0  0  0  0  0  0  0  0  0  0  0
   19.8299  -23.6846  -12.7933 C   0  0  2  0  0  0  0  0  0  0  0  0
   20.2237  -24.6962  -13.7390 N   0  0  0  0  0  0  0  0  0  0  0  0
   18.9254  -24.2500  -11.7963 C   0  0  0  0  0  0  0  0  0  0  0  0
   17.9823  -24.9739  -12.1998 O   0  0  0  0  0  0  0  0  0  0  0  0
   21.8569  -17.7544  -15.9217 N   0  0  0  0  0  0  0  0  0  0  0  0
   19.0433  -24.0324  -10.3887 C   0  0  2  0  0  0  0  0  0  0  0  0
   18.0300  -24.5578   -9.4943 C   0  0  0  0  0  0  0  0  0  0  0  0
   18.5936  -24.6387   -8.1093 C   0  0  0  0  0  0  0  0  0  0  0  0
   17.6044  -25.2088   -7.1202 C   0  0  0  0  0  0  0  0  0  0  0  0
   18.2663  -25.2974   -5.8002 O   0  0  0  0  0  0  0  0  0  0  0  0
   17.6214  -25.7594   -4.8108 C   0  0  0  0  0  0  0  0  0  0  0  0
   16.8027  -23.7184   -9.5590 O   0  0  0  0  0  0  0  0  0  0  0  0
   16.9232  -22.4771   -9.5510 O   0  0  0  0  0  0  0  0  0  0  0  0
   19.5675  -24.8950   -5.5859 N   0  0  0  0  0  0  0  0  0  0  0  0
   15.5075  -24.2862   -9.6300 C   0  0  2  0  0  0  0  0  0  0  0  0
   14.3040  -23.4894   -9.7405 C   0  0  0  0  0  0  0  0  0  0  0  0
   13.1039  -24.4128   -9.8411 S   0  0  0  0  0  0  0  0  0  0  0  0
   13.2535  -25.6779   -8.5593 C   0  0  0  0  0  0  0  0  0  0  0  0
   14.1666  -22.6487   -8.5347 O   0  0  0  0  0  0  0  0  0  0  0  0
   13.4584  -21.4492   -8.4887 O   0  0  0  0  0  0  0  0  0  0  0  0
  2  1  1  0
  3  2  2  0
  4  2  1  0
  5  4  1  0
  6  5  1  0
  7  6  1  0
  8  9  1  6
  8 10  1  0
  8  7  1  0
 10 12  1  0
 11 10  2  0
 12 13  1  0
 13 14  1  1
 14 15  1  0
 15 16  1  0
 16 20  1  0
 17 16  2  0
 18 19  2  0
 18 13  1  0
 21 18  1  0
 22 21  1  0
 22 23  1  6
 24 23  1  0
 25 22  1  0
 26 25  1  0
 27 25  2  0
M  END
$$$$
