REC.pdb
     RDKit          3D

 27 26  0  0  1  0  0  0  0  0999 V2000
   16.6519  -22.9998  -14.6778 N   0  0  0  0  0  0  0  0  0  0  0  0
   16.9079  -23.1713  -13.2966 C   0  0  0  0  0  0  0  0  0  0  0  0
   16.4118  -24.1699  -12.6714 N   0  0  0  0  0  0  0  0  0  0  0  0
   17.7141  -22.2202  -12.6179 N   0  0  0  0  0  0  0  0  0  0  0  0
   18.2976  -21.0880  -13.2799 C   0  0  0  0  0  0  0  0  0  0  0  0
   19.5033  -21.4716  -14.1114 C   0  0  0  0  0  0  0  0  0  0  0  0
   20.1981  -20.2512  -14.6934 C   0  0  0  0  0  0  0  0  0  0  0  0
   21.2825  -20.7658  -15.5851 C   0  0  2  0  0  0  0  0  0  0  0  0
   20.7603  -21.8314  -16.4004 N   0  0  0  0  0  0  0  0  0  0  0  0
   22.4953  -21.2026  -14.8995 C   0  0  0  0  0  0  0  0  0  0  0  0
   22.5292  -22.3750  -14.4519 O   0  0  0  0  0  0  0  0  0  0  0  0
   16.6896  -24.3597  -11.6826 N   0  0  0  0  0  0  0  0  0  0  0  0
   23.6483  -20.3809  -14.7038 C   0  0  1  0  0  0  0  0  0  0  0  0
   24.8309  -20.9415  -14.0793 C   0  0  0  0  0  0  0  0  0  0  0  0
   26.0156  -20.6900  -14.9600 C   0  0  0  0  0  0  0  0  0  0  0  0
   26.6923  -21.9703  -15.3901 C   0  0  0  0  0  0  0  0  0  0  0  0
   27.8716  -21.6189  -16.2111 O   0  0  0  0  0  0  0  0  0  0  0  0
   28.6283  -22.5420  -16.6399 C   0  0  0  0  0  0  0  0  0  0  0  0
   25.0084  -20.3750  -12.7145 O   0  0  0  0  0  0  0  0  0  0  0  0
   24.7221  -19.1768  -12.5199 O   0  0  0  0  0  0  0  0  0  0  0  0
   28.1975  -20.3195  -16.5372 N   0  0  0  0  0  0  0  0  0  0  0  0
   25.4901  -21.1543  -11.6348 C   0  0  2  0  0  0  0  0  0  0  0  0
   25.8372  -20.5877  -10.3487 C   0  0  0  0  0  0  0  0  0  0  0  0
   24.9535  -21.2032   -9.2795 S   0  0  0  0  0  0  0  0  0  0  0  0
   25.4219  -20.4984   -7.6827 C   0  0  0  0  0  0  0  0  0  0  0  0
   27.2484  -20.8988  -10.0468 O   0  0  0  0  0  0  0  0  0  0  0  0
   28.0845  -20.0915   -9.2776 O   0  0  0  0  0  0  0  0  0  0  0  0
  2  1  1  0
  3  2  2  0
  4  2  1  0
  5  4  1  0
  6  5  1  0
  7  6  1  0
  8  9  1  1
  8 10  1  0
  8  7  1  0
 10 12  1  0
 11 10  2  0
 12 13  1  0
 13 14  1  1
 14 15  1  0
 15 16  1  0
 16 20  1  0
 17 16  2  0
 18 19  2  0
 18 13  1  0
 21 18  1  0
 22 21  1  0
 22 23  1  1
 24 23  1  0
 25 22  1  0
 26 25  1  0
 27 25  2  0
M  END
$$$$
