REC.pdb
     RDKit          3D

 27 26  0  0  1  0  0  0  0  0999 V2000
   27.1426  -21.1631   -9.1352 N   0  0  0  0  0  0  0  0  0  0  0  0
   25.8375  -20.9008   -9.6155 C   0  0  0  0  0  0  0  0  0  0  0  0
   24.9108  -20.5617   -8.8027 N   0  0  0  0  0  0  0  0  0  0  0  0
   25.5723  -21.0250  -11.0045 N   0  0  0  0  0  0  0  0  0  0  0  0
   26.3610  -21.8538  -11.8714 C   0  0  0  0  0  0  0  0  0  0  0  0
   27.1139  -21.0443  -12.9060 C   0  0  0  0  0  0  0  0  0  0  0  0
   26.2380  -19.9674  -13.5257 C   0  0  0  0  0  0  0  0  0  0  0  0
   25.1638  -20.6792  -14.2842 C   0  0  2  0  0  0  0  0  0  0  0  0
   25.7687  -21.5904  -15.2204 N   0  0  0  0  0  0  0  0  0  0  0  0
   24.2083  -19.8127  -14.9683 C   0  0  0  0  0  0  0  0  0  0  0  0
   23.7404  -18.8354  -14.3342 O   0  0  0  0  0  0  0  0  0  0  0  0
   23.9423  -20.3907   -9.1541 N   0  0  0  0  0  0  0  0  0  0  0  0
   23.7695  -20.0052  -16.3149 C   0  0  1  0  0  0  0  0  0  0  0  0
   22.7676  -19.1199  -16.8763 C   0  0  0  0  0  0  0  0  0  0  0  0
   23.1448  -18.7851  -18.2862 C   0  0  0  0  0  0  0  0  0  0  0  0
   24.3377  -17.8608  -18.3564 C   0  0  0  0  0  0  0  0  0  0  0  0
   24.6132  -17.5657  -19.7795 O   0  0  0  0  0  0  0  0  0  0  0  0
   24.7079  -16.3587  -20.1574 C   0  0  0  0  0  0  0  0  0  0  0  0
   21.4201  -19.7447  -16.7829 O   0  0  0  0  0  0  0  0  0  0  0  0
   21.2668  -20.9078  -17.2063 O   0  0  0  0  0  0  0  0  0  0  0  0
   24.7723  -18.5499  -20.7318 N   0  0  0  0  0  0  0  0  0  0  0  0
   20.3116  -19.0598  -16.2287 C   0  0  1  0  0  0  0  0  0  0  0  0
   18.9636  -19.5864  -16.2634 C   0  0  0  0  0  0  0  0  0  0  0  0
   18.6237  -20.1729  -14.9057 S   0  0  0  0  0  0  0  0  0  0  0  0
   16.8533  -20.5343  -14.8718 C   0  0  0  0  0  0  0  0  0  0  0  0
   18.0222  -18.4897  -16.5651 O   0  0  0  0  0  0  0  0  0  0  0  0
   18.3590  -17.1374  -16.5489 O   0  0  0  0  0  0  0  0  0  0  0  0
  2  1  1  0
  3  2  2  0
  4  2  1  0
  5  4  1  0
  6  5  1  0
  7  6  1  0
  8  9  1  6
  8 10  1  0
  8  7  1  0
 10 12  1  0
 11 10  2  0
 12 13  1  0
 13 14  1  1
 14 15  1  0
 15 16  1  0
 16 20  1  0
 17 16  2  0
 18 19  2  0
 18 13  1  0
 21 18  1  0
 22 21  1  0
 22 23  1  6
 24 23  1  0
 25 22  1  0
 26 25  1  0
 27 25  2  0
M  END
$$$$
