REC.pdb
     RDKit          3D

 27 26  0  0  1  0  0  0  0  0999 V2000
   18.4550  -16.8930  -14.3064 N   0  0  0  0  0  0  0  0  0  0  0  0
   19.1904  -16.7073  -15.5012 C   0  0  0  0  0  0  0  0  0  0  0  0
   19.9709  -17.6275  -15.9237 N   0  0  0  0  0  0  0  0  0  0  0  0
   19.0543  -15.4887  -16.2165 N   0  0  0  0  0  0  0  0  0  0  0  0
   18.1378  -14.4575  -15.8202 C   0  0  0  0  0  0  0  0  0  0  0  0
   18.2032  -13.2530  -16.7352 C   0  0  0  0  0  0  0  0  0  0  0  0
   17.3089  -12.1248  -16.2468 C   0  0  0  0  0  0  0  0  0  0  0  0
   17.5684  -10.9586  -17.1460 C   0  0  2  0  0  0  0  0  0  0  0  0
   18.4400  -11.3695  -18.2157 N   0  0  0  0  0  0  0  0  0  0  0  0
   18.1046   -9.7722  -16.4852 C   0  0  0  0  0  0  0  0  0  0  0  0
   17.5006   -9.3373  -15.4742 O   0  0  0  0  0  0  0  0  0  0  0  0
   20.4952  -17.5003  -16.8179 N   0  0  0  0  0  0  0  0  0  0  0  0
   19.2739   -9.0718  -16.9153 C   0  0  2  0  0  0  0  0  0  0  0  0
   19.7257   -7.9086  -16.1767 C   0  0  0  0  0  0  0  0  0  0  0  0
   21.2202   -7.8389  -16.2392 C   0  0  0  0  0  0  0  0  0  0  0  0
   21.8741   -8.4534  -15.0238 C   0  0  0  0  0  0  0  0  0  0  0  0
   21.5540   -7.6125  -13.8496 O   0  0  0  0  0  0  0  0  0  0  0  0
   20.7863   -8.0684  -12.9489 C   0  0  0  0  0  0  0  0  0  0  0  0
   19.0779   -6.6790  -16.7088 O   0  0  0  0  0  0  0  0  0  0  0  0
   19.0127   -6.5213  -17.9443 O   0  0  0  0  0  0  0  0  0  0  0  0
   22.0525   -6.3380  -13.6822 N   0  0  0  0  0  0  0  0  0  0  0  0
   18.5348   -5.6873  -15.8564 C   0  0  2  0  0  0  0  0  0  0  0  0
   17.8356   -4.5206  -16.3518 C   0  0  0  0  0  0  0  0  0  0  0  0
   16.3791   -4.5986  -15.9329 S   0  0  0  0  0  0  0  0  0  0  0  0
   15.5710   -3.0518  -16.4024 C   0  0  0  0  0  0  0  0  0  0  0  0
   18.4417   -3.3077  -15.7678 O   0  0  0  0  0  0  0  0  0  0  0  0
   18.5508   -2.0861  -16.4298 O   0  0  0  0  0  0  0  0  0  0  0  0
  2  1  1  0
  3  2  2  0
  4  2  1  0
  5  4  1  0
  6  5  1  0
  7  6  1  0
  8  9  1  6
  8 10  1  0
  8  7  1  0
 10 12  1  0
 11 10  2  0
 12 13  1  0
 13 14  1  1
 14 15  1  0
 15 16  1  0
 16 20  1  0
 17 16  2  0
 18 19  2  0
 18 13  1  0
 21 18  1  0
 22 21  1  0
 22 23  1  1
 24 23  1  0
 25 22  1  0
 26 25  1  0
 27 25  2  0
M  END
$$$$
