REC.pdb
     RDKit          3D

 27 26  0  0  1  0  0  0  0  0999 V2000
   28.9644  -21.3236  -15.5464 N   0  0  0  0  0  0  0  0  0  0  0  0
   28.1389  -20.1829  -15.6883 C   0  0  0  0  0  0  0  0  0  0  0  0
   28.3613  -19.3427  -16.6258 N   0  0  0  0  0  0  0  0  0  0  0  0
   27.0700  -19.9832  -14.7758 N   0  0  0  0  0  0  0  0  0  0  0  0
   26.7468  -20.9278  -13.7444 C   0  0  0  0  0  0  0  0  0  0  0  0
   26.2789  -22.2523  -14.3093 C   0  0  0  0  0  0  0  0  0  0  0  0
   24.8922  -22.1453  -14.9228 C   0  0  0  0  0  0  0  0  0  0  0  0
   23.9950  -23.0099  -14.0961 C   0  0  2  0  0  0  0  0  0  0  0  0
   24.3431  -24.3911  -14.3054 N   0  0  0  0  0  0  0  0  0  0  0  0
   22.5654  -22.8105  -14.3157 C   0  0  0  0  0  0  0  0  0  0  0  0
   22.0962  -23.1029  -15.4429 O   0  0  0  0  0  0  0  0  0  0  0  0
   27.7475  -18.5047  -16.7350 N   0  0  0  0  0  0  0  0  0  0  0  0
   21.6638  -22.3028  -13.3298 C   0  0  1  0  0  0  0  0  0  0  0  0
   20.2581  -22.1526  -13.6528 C   0  0  0  0  0  0  0  0  0  0  0  0
   19.4364  -22.6083  -12.4868 C   0  0  0  0  0  0  0  0  0  0  0  0
   19.1868  -24.0981  -12.5087 C   0  0  0  0  0  0  0  0  0  0  0  0
   18.3503  -24.4458  -11.3393 O   0  0  0  0  0  0  0  0  0  0  0  0
   17.9704  -25.6455  -11.1810 C   0  0  0  0  0  0  0  0  0  0  0  0
   19.9669  -20.7444  -14.0361 O   0  0  0  0  0  0  0  0  0  0  0  0
   20.3625  -19.8254  -13.2915 O   0  0  0  0  0  0  0  0  0  0  0  0
   17.9537  -23.5185  -10.3992 N   0  0  0  0  0  0  0  0  0  0  0  0
   19.2571  -20.4190  -15.2174 C   0  0  1  0  0  0  0  0  0  0  0  0
   18.9928  -19.0558  -15.6265 C   0  0  0  0  0  0  0  0  0  0  0  0
   19.3389  -18.9017  -17.0960 S   0  0  0  0  0  0  0  0  0  0  0  0
   21.1162  -19.1658  -17.2901 C   0  0  0  0  0  0  0  0  0  0  0  0
   17.5589  -18.7613  -15.4346 O   0  0  0  0  0  0  0  0  0  0  0  0
   16.6124  -19.6970  -15.0210 O   0  0  0  0  0  0  0  0  0  0  0  0
  2  1  1  0
  3  2  2  0
  4  2  1  0
  5  4  1  0
  6  5  1  0
  7  6  1  0
  8  9  1  6
  8 10  1  0
  8  7  1  0
 10 12  1  0
 11 10  2  0
 12 13  1  0
 13 14  1  6
 14 15  1  0
 15 16  1  0
 16 20  1  0
 17 16  2  0
 18 19  2  0
 18 13  1  0
 21 18  1  0
 22 21  1  0
 22 23  1  1
 24 23  1  0
 25 22  1  0
 26 25  1  0
 27 25  2  0
M  END
$$$$
