QLK.pdb
     RDKit          3D

 27 26  0  0  1  0  0  0  0  0999 V2000
    7.7483  -19.5359   20.2870 N   0  0  0  0  0  0  0  0  0  0  0  0
    7.5102  -18.5866   19.2571 C   0  0  0  0  0  0  0  0  0  0  0  0
    7.7937  -18.9291   18.0846 O   0  0  0  0  0  0  0  0  0  0  0  0
    6.9535  -17.2435   19.5177 C   0  0  0  0  0  0  0  0  0  0  0  0
    7.6389  -16.6635   20.7227 C   0  0  0  0  0  0  0  0  0  0  0  0
    7.0186  -15.3725   21.1889 C   0  0  2  0  0  0  0  0  0  0  0  0
    6.8913  -14.4611   20.0706 N   0  0  0  0  0  0  0  0  0  0  0  0
    7.8736  -14.7213   22.2487 C   0  0  0  0  0  0  0  0  0  0  0  0
    8.9774  -14.2159   21.9427 O   0  0  0  0  0  0  0  0  0  0  0  0
    5.7661  -11.9552   26.6104 C   0  0  0  0  0  0  0  0  0  0  0  0
    6.7211  -12.3071   25.5089 C   0  0  1  0  0  0  0  0  0  0  0  0
    7.5896  -11.0720   25.2971 C   0  0  0  0  0  0  0  0  0  0  0  0
    7.4812  -13.5456   25.6610 C   0  0  0  0  0  0  0  0  0  0  0  0
    8.3616  -14.0892   24.6153 C   0  0  2  0  0  0  0  0  0  0  0  0
    7.4333  -14.6796   23.5825 N   0  0  0  0  0  0  0  0  0  0  0  0
    9.1888  -15.2299   25.0166 C   0  0  0  0  0  0  0  0  0  0  0  0
    8.6380  -16.3893   24.9243 O   0  0  0  0  0  0  0  0  0  0  0  0
   10.5212  -15.2247   25.4729 N   0  0  0  0  0  0  0  0  0  0  0  0
   11.2182  -16.4105   25.8068 C   0  0  1  0  0  0  0  0  0  0  0  0
   10.5286  -17.5465   26.3986 C   0  0  0  0  0  0  0  0  0  0  0  0
   11.1465  -18.8400   26.7065 C   0  0  0  0  0  0  0  0  0  0  0  0
   10.9618  -19.4851   28.0254 C   0  0  0  0  0  0  0  0  0  0  0  0
   11.6989  -20.7435   28.2460 C   0  0  0  0  0  0  0  0  0  0  0  0
   11.4051  -21.1495   29.6529 N   0  0  0  0  0  0  0  0  0  0  0  0
   11.9995  -16.9515   24.5769 C   0  0  0  0  0  0  0  0  0  0  0  0
   13.3398  -17.1578   24.6571 O   0  0  0  0  0  0  0  0  0  0  0  0
   11.3765  -17.1967   23.5260 O   0  0  0  0  0  0  0  0  0  0  0  0
  2  4  1  0
  2  1  1  0
  3  2  2  0
  5  4  1  0
  6  5  1  0
  6  8  1  0
  6  7  1  6
  8 15  1  0
  9  8  2  0
 11 10  1  1
 11 12  1  0
 13 11  1  0
 14 13  1  1
 15 14  1  0
 16 14  1  0
 16 17  2  0
 18 16  1  0
 19 18  1  0
 19 20  1  6
 20 21  1  0
 22 23  1  0
 22 21  1  0
 23 24  1  0
 25 19  1  0
 26 25  1  0
 27 25  2  0
M  END
$$$$
