QLK.pdb
     RDKit          3D

 27 26  0  0  1  0  0  0  0  0999 V2000
   11.3361  -16.6414   17.9951 N   0  0  0  0  0  0  0  0  0  0  0  0
   10.0064  -16.9754   17.6223 C   0  0  0  0  0  0  0  0  0  0  0  0
    9.8438  -17.5217   16.5054 O   0  0  0  0  0  0  0  0  0  0  0  0
    8.8395  -16.7059   18.4870 C   0  0  0  0  0  0  0  0  0  0  0  0
    9.3224  -16.0881   19.7689 C   0  0  0  0  0  0  0  0  0  0  0  0
    8.6034  -16.6136   20.9837 C   0  0  2  0  0  0  0  0  0  0  0  0
    7.1760  -16.4293   20.8230 N   0  0  0  0  0  0  0  0  0  0  0  0
    9.0487  -15.8815   22.2262 C   0  0  0  0  0  0  0  0  0  0  0  0
   10.2672  -15.7886   22.4984 O   0  0  0  0  0  0  0  0  0  0  0  0
    8.5238  -11.9011   26.1869 C   0  0  0  0  0  0  0  0  0  0  0  0
    7.5158  -12.9986   26.0188 C   0  0  1  0  0  0  0  0  0  0  0  0
    6.1655  -12.3851   26.3721 C   0  0  0  0  0  0  0  0  0  0  0  0
    7.5242  -13.7173   24.7467 C   0  0  0  0  0  0  0  0  0  0  0  0
    8.5906  -14.6499   24.3504 C   0  0  2  0  0  0  0  0  0  0  0  0
    8.0971  -15.3009   23.0817 N   0  0  0  0  0  0  0  0  0  0  0  0
    8.8034  -15.7855   25.2515 C   0  0  0  0  0  0  0  0  0  0  0  0
    7.8003  -16.5750   25.4144 O   0  0  0  0  0  0  0  0  0  0  0  0
    9.9744  -16.1386   25.9498 N   0  0  0  0  0  0  0  0  0  0  0  0
   10.0887  -17.3398   26.6897 C   0  0  1  0  0  0  0  0  0  0  0  0
   10.9295  -18.4320   26.2245 C   0  0  0  0  0  0  0  0  0  0  0  0
   11.1538  -18.7826   24.8185 C   0  0  0  0  0  0  0  0  0  0  0  0
   12.0823  -19.8696   24.4365 C   0  0  0  0  0  0  0  0  0  0  0  0
   12.1394  -20.2057   23.0015 C   0  0  0  0  0  0  0  0  0  0  0  0
   13.0892  -21.3525   22.8865 N   0  0  0  0  0  0  0  0  0  0  0  0
   10.5107  -17.0422   28.1556 C   0  0  0  0  0  0  0  0  0  0  0  0
   10.4592  -18.0241   29.0930 O   0  0  0  0  0  0  0  0  0  0  0  0
   10.9003  -15.8961   28.4509 O   0  0  0  0  0  0  0  0  0  0  0  0
  2  4  1  0
  2  1  1  0
  3  2  2  0
  5  4  1  0
  6  5  1  0
  6  8  1  0
  6  7  1  6
  8 15  1  0
  9  8  2  0
 11 10  1  6
 11 12  1  0
 13 11  1  0
 14 13  1  1
 15 14  1  0
 16 14  1  0
 16 17  2  0
 18 16  1  0
 19 18  1  0
 19 20  1  6
 20 21  1  0
 22 23  1  0
 22 21  1  0
 23 24  1  0
 25 19  1  0
 26 25  1  0
 27 25  2  0
M  END
$$$$
