QLK.pdb
     RDKit          3D

 27 26  0  0  1  0  0  0  0  0999 V2000
    7.6352  -19.4705   21.0524 N   0  0  0  0  0  0  0  0  0  0  0  0
    8.3765  -18.6614   20.1499 C   0  0  0  0  0  0  0  0  0  0  0  0
    9.1308  -19.2496   19.3390 O   0  0  0  0  0  0  0  0  0  0  0  0
    8.2888  -17.1869   20.1373 C   0  0  0  0  0  0  0  0  0  0  0  0
    7.2403  -16.7584   21.1249 C   0  0  0  0  0  0  0  0  0  0  0  0
    7.2413  -15.2736   21.3781 C   0  0  2  0  0  0  0  0  0  0  0  0
    7.8319  -14.5868   20.2481 N   0  0  0  0  0  0  0  0  0  0  0  0
    8.0397  -14.9434   22.6158 C   0  0  0  0  0  0  0  0  0  0  0  0
    9.2818  -14.8046   22.5440 O   0  0  0  0  0  0  0  0  0  0  0  0
    5.7727  -11.9894   26.8441 C   0  0  0  0  0  0  0  0  0  0  0  0
    6.7748  -12.4601   25.8326 C   0  0  1  0  0  0  0  0  0  0  0  0
    7.8448  -11.3760   25.7671 C   0  0  0  0  0  0  0  0  0  0  0  0
    7.3091  -13.8088   26.0067 C   0  0  0  0  0  0  0  0  0  0  0  0
    8.2347  -14.4425   25.0550 C   0  0  2  0  0  0  0  0  0  0  0  0
    7.3913  -14.7901   23.8530 N   0  0  0  0  0  0  0  0  0  0  0  0
    8.7792  -15.7376   25.4709 C   0  0  0  0  0  0  0  0  0  0  0  0
    7.9581  -16.7284   25.4559 O   0  0  0  0  0  0  0  0  0  0  0  0
   10.0952  -16.0449   25.8672 N   0  0  0  0  0  0  0  0  0  0  0  0
   10.5070  -17.3594   26.1926 C   0  0  1  0  0  0  0  0  0  0  0  0
   11.6958  -17.9449   25.5925 C   0  0  0  0  0  0  0  0  0  0  0  0
   12.2083  -19.2890   25.8769 C   0  0  0  0  0  0  0  0  0  0  0  0
   13.4437  -19.7916   25.2360 C   0  0  0  0  0  0  0  0  0  0  0  0
   13.8816  -21.1433   25.6320 C   0  0  0  0  0  0  0  0  0  0  0  0
   15.0164  -21.4888   24.7246 N   0  0  0  0  0  0  0  0  0  0  0  0
   10.6547  -17.5223   27.7311 C   0  0  0  0  0  0  0  0  0  0  0  0
   10.8617  -18.7519   28.2701 O   0  0  0  0  0  0  0  0  0  0  0  0
   10.5866  -16.5102   28.4547 O   0  0  0  0  0  0  0  0  0  0  0  0
  2  4  1  0
  2  1  1  0
  3  2  2  0
  5  4  1  0
  6  5  1  0
  6  8  1  0
  6  7  1  6
  8 15  1  0
  9  8  2  0
 11 10  1  1
 11 12  1  0
 13 11  1  0
 14 13  1  1
 15 14  1  0
 16 14  1  0
 16 17  2  0
 18 16  1  0
 19 18  1  0
 19 20  1  6
 20 21  1  0
 22 23  1  0
 22 21  1  0
 23 24  1  0
 25 19  1  0
 26 25  1  0
 27 25  2  0
M  END
$$$$
