QLK.pdb
     RDKit          3D

 27 26  0  0  1  0  0  0  0  0999 V2000
    9.5666  -18.5776   19.1667 N   0  0  0  0  0  0  0  0  0  0  0  0
    8.4479  -17.9556   18.5502 C   0  0  0  0  0  0  0  0  0  0  0  0
    8.0641  -18.4241   17.4522 O   0  0  0  0  0  0  0  0  0  0  0  0
    7.7411  -16.8040   19.1468 C   0  0  0  0  0  0  0  0  0  0  0  0
    8.3317  -16.5248   20.5001 C   0  0  0  0  0  0  0  0  0  0  0  0
    7.5664  -15.4830   21.2734 C   0  0  2  0  0  0  0  0  0  0  0  0
    7.4419  -14.2793   20.4779 N   0  0  0  0  0  0  0  0  0  0  0  0
    8.2795  -15.1414   22.5591 C   0  0  0  0  0  0  0  0  0  0  0  0
    9.5159  -14.9443   22.5589 O   0  0  0  0  0  0  0  0  0  0  0  0
    5.7298  -12.1371   26.5926 C   0  0  0  0  0  0  0  0  0  0  0  0
    6.8059  -12.6164   25.6646 C   0  0  1  0  0  0  0  0  0  0  0  0
    7.9026  -11.5584   25.7129 C   0  0  0  0  0  0  0  0  0  0  0  0
    7.2910  -13.9806   25.8605 C   0  0  0  0  0  0  0  0  0  0  0  0
    8.3035  -14.6116   24.9999 C   0  0  2  0  0  0  0  0  0  0  0  0
    7.5580  -15.0429   23.7608 N   0  0  0  0  0  0  0  0  0  0  0  0
    8.8700  -15.8646   25.5058 C   0  0  0  0  0  0  0  0  0  0  0  0
    8.1253  -16.9082   25.3954 O   0  0  0  0  0  0  0  0  0  0  0  0
   10.1372  -16.0803   26.0812 N   0  0  0  0  0  0  0  0  0  0  0  0
   10.5968  -17.3659   26.4550 C   0  0  1  0  0  0  0  0  0  0  0  0
   11.8522  -17.8934   25.9433 C   0  0  0  0  0  0  0  0  0  0  0  0
   12.4118  -19.2072   26.2759 C   0  0  0  0  0  0  0  0  0  0  0  0
   13.7317  -19.6331   25.7598 C   0  0  0  0  0  0  0  0  0  0  0  0
   14.2060  -20.9602   26.1949 C   0  0  0  0  0  0  0  0  0  0  0  0
   15.5269  -21.1624   25.5280 N   0  0  0  0  0  0  0  0  0  0  0  0
   10.6518  -17.4996   28.0024 C   0  0  0  0  0  0  0  0  0  0  0  0
   10.9042  -18.7056   28.5743 O   0  0  0  0  0  0  0  0  0  0  0  0
   10.4677  -16.4857   28.7030 O   0  0  0  0  0  0  0  0  0  0  0  0
  2  4  1  0
  2  1  1  0
  3  2  2  0
  5  4  1  0
  6  5  1  0
  6  8  1  0
  6  7  1  6
  8 15  1  0
  9  8  2  0
 11 10  1  1
 11 12  1  0
 13 11  1  0
 14 13  1  1
 15 14  1  0
 16 14  1  0
 16 17  2  0
 18 16  1  0
 19 18  1  0
 19 20  1  6
 20 21  1  0
 22 23  1  0
 22 21  1  0
 23 24  1  0
 25 19  1  0
 26 25  1  0
 27 25  2  0
M  END
$$$$
