QLK.pdb
     RDKit          3D

 27 26  0  0  1  0  0  0  0  0999 V2000
    7.8007  -22.1158   20.3111 N   0  0  0  0  0  0  0  0  0  0  0  0
    9.1612  -21.7119   20.2434 C   0  0  0  0  0  0  0  0  0  0  0  0
   10.0125  -22.4753   20.7580 O   0  0  0  0  0  0  0  0  0  0  0  0
    9.5929  -20.4531   19.6023 C   0  0  0  0  0  0  0  0  0  0  0  0
    8.3900  -19.7802   19.0036 C   0  0  0  0  0  0  0  0  0  0  0  0
    8.7248  -18.4897   18.3026 C   0  0  2  0  0  0  0  0  0  0  0  0
    9.6752  -18.7446   17.2399 N   0  0  0  0  0  0  0  0  0  0  0  0
    9.3317  -17.5000   19.2671 C   0  0  0  0  0  0  0  0  0  0  0  0
   10.5754  -17.4200   19.3861 O   0  0  0  0  0  0  0  0  0  0  0  0
    8.1670  -13.2854   18.9018 C   0  0  0  0  0  0  0  0  0  0  0  0
    8.0223  -13.2816   20.3945 C   0  0  1  0  0  0  0  0  0  0  0  0
    6.7500  -12.4951   20.6900 C   0  0  0  0  0  0  0  0  0  0  0  0
    8.0883  -14.5753   21.0702 C   0  0  0  0  0  0  0  0  0  0  0  0
    9.1541  -15.5606   20.8310 C   0  0  2  0  0  0  0  0  0  0  0  0
    8.5026  -16.6643   20.0345 N   0  0  0  0  0  0  0  0  0  0  0  0
    9.6525  -16.2533   22.0221 C   0  0  0  0  0  0  0  0  0  0  0  0
    8.9881  -17.2910   22.3934 O   0  0  0  0  0  0  0  0  0  0  0  0
   10.7809  -15.9419   22.8051 N   0  0  0  0  0  0  0  0  0  0  0  0
   11.5279  -16.9278   23.4933 C   0  0  1  0  0  0  0  0  0  0  0  0
   12.0897  -18.0713   22.7911 C   0  0  0  0  0  0  0  0  0  0  0  0
   12.8490  -19.1564   23.4205 C   0  0  0  0  0  0  0  0  0  0  0  0
   12.1650  -20.2802   24.0979 C   0  0  0  0  0  0  0  0  0  0  0  0
   13.0325  -21.3494   24.6269 C   0  0  0  0  0  0  0  0  0  0  0  0
   12.1126  -22.3842   25.1868 N   0  0  0  0  0  0  0  0  0  0  0  0
   12.6913  -16.2759   24.2913 C   0  0  0  0  0  0  0  0  0  0  0  0
   13.2091  -15.0851   23.8922 O   0  0  0  0  0  0  0  0  0  0  0  0
   13.1324  -16.8589   25.3004 O   0  0  0  0  0  0  0  0  0  0  0  0
  2  4  1  0
  2  1  1  0
  3  2  2  0
  5  4  1  0
  6  5  1  0
  6  8  1  0
  6  7  1  6
  8 15  1  0
  9  8  2  0
 11 10  1  6
 11 12  1  0
 13 11  1  0
 14 13  1  1
 15 14  1  0
 16 14  1  0
 16 17  2  0
 18 16  1  0
 19 18  1  0
 19 20  1  6
 20 21  1  0
 22 23  1  0
 22 21  1  0
 23 24  1  0
 25 19  1  0
 26 25  1  0
 27 25  2  0
M  END
$$$$
