QLK.pdb
     RDKit          3D

 27 26  0  0  1  0  0  0  0  0999 V2000
    9.5332  -12.5278   18.4626 N   0  0  0  0  0  0  0  0  0  0  0  0
    8.3066  -13.1768   18.1577 C   0  0  0  0  0  0  0  0  0  0  0  0
    7.9217  -13.1447   16.9647 O   0  0  0  0  0  0  0  0  0  0  0  0
    7.4916  -13.8702   19.1759 C   0  0  0  0  0  0  0  0  0  0  0  0
    8.2011  -13.7887   20.4981 C   0  0  0  0  0  0  0  0  0  0  0  0
    8.2218  -15.1009   21.2375 C   0  0  2  0  0  0  0  0  0  0  0  0
    6.8872  -15.6620   21.2718 N   0  0  0  0  0  0  0  0  0  0  0  0
    8.7016  -14.9073   22.6554 C   0  0  0  0  0  0  0  0  0  0  0  0
    9.8800  -14.5470   22.8765 O   0  0  0  0  0  0  0  0  0  0  0  0
    5.6004  -12.3168   26.3196 C   0  0  0  0  0  0  0  0  0  0  0  0
    6.8403  -12.7970   25.6261 C   0  0  1  0  0  0  0  0  0  0  0  0
    7.9407  -11.8124   26.0059 C   0  0  0  0  0  0  0  0  0  0  0  0
    7.2075  -14.1979   25.8191 C   0  0  0  0  0  0  0  0  0  0  0  0
    8.3324  -14.8434   25.1249 C   0  0  2  0  0  0  0  0  0  0  0  0
    7.8270  -15.1306   23.7324 N   0  0  0  0  0  0  0  0  0  0  0  0
    8.7082  -16.1675   25.6271 C   0  0  0  0  0  0  0  0  0  0  0  0
    7.8259  -17.0949   25.4945 O   0  0  0  0  0  0  0  0  0  0  0  0
    9.9224  -16.5642   26.2202 N   0  0  0  0  0  0  0  0  0  0  0  0
   10.1634  -17.8904   26.6521 C   0  0  1  0  0  0  0  0  0  0  0  0
   11.1175  -18.7442   25.9616 C   0  0  0  0  0  0  0  0  0  0  0  0
   11.3508  -20.1606   26.2606 C   0  0  0  0  0  0  0  0  0  0  0  0
   12.3362  -20.9553   25.4944 C   0  0  0  0  0  0  0  0  0  0  0  0
   12.5658  -22.3359   25.9600 C   0  0  0  0  0  0  0  0  0  0  0  0
   13.5675  -22.9239   25.0213 N   0  0  0  0  0  0  0  0  0  0  0  0
   10.5476  -17.9149   28.1579 C   0  0  0  0  0  0  0  0  0  0  0  0
   10.8278  -16.7562   28.8093 O   0  0  0  0  0  0  0  0  0  0  0  0
   10.5872  -19.0088   28.7532 O   0  0  0  0  0  0  0  0  0  0  0  0
  2  4  1  0
  2  1  1  0
  3  2  2  0
  5  4  1  0
  6  5  1  0
  6  8  1  0
  6  7  1  1
  8 15  1  0
  9  8  2  0
 11 10  1  1
 11 12  1  0
 13 11  1  0
 14 13  1  1
 15 14  1  0
 16 14  1  0
 16 17  2  0
 18 16  1  0
 19 18  1  0
 19 20  1  6
 20 21  1  0
 22 23  1  0
 22 21  1  0
 23 24  1  0
 25 19  1  0
 26 25  1  0
 27 25  2  0
M  END
$$$$
