QLK.pdb
     RDKit          3D

 27 26  0  0  1  0  0  0  0  0999 V2000
    8.5183  -17.3760   16.9446 N   0  0  0  0  0  0  0  0  0  0  0  0
    8.8437  -16.6857   18.1430 C   0  0  0  0  0  0  0  0  0  0  0  0
   10.0067  -16.8288   18.5897 O   0  0  0  0  0  0  0  0  0  0  0  0
    7.8798  -15.8269   18.8607 C   0  0  0  0  0  0  0  0  0  0  0  0
    8.5240  -15.3318   20.1249 C   0  0  0  0  0  0  0  0  0  0  0  0
    8.1217  -16.1245   21.3408 C   0  0  2  0  0  0  0  0  0  0  0  0
    6.6792  -16.2444   21.3891 N   0  0  0  0  0  0  0  0  0  0  0  0
    8.5928  -15.4431   22.6025 C   0  0  0  0  0  0  0  0  0  0  0  0
    9.7959  -15.1216   22.7315 O   0  0  0  0  0  0  0  0  0  0  0  0
    5.7380  -11.9206   26.0715 C   0  0  0  0  0  0  0  0  0  0  0  0
    6.8865  -12.5484   25.3394 C   0  0  1  0  0  0  0  0  0  0  0  0
    8.0869  -11.6415   25.5867 C   0  0  0  0  0  0  0  0  0  0  0  0
    7.1482  -13.9613   25.6038 C   0  0  0  0  0  0  0  0  0  0  0  0
    8.2375  -14.7165   24.9657 C   0  0  2  0  0  0  0  0  0  0  0  0
    7.6825  -15.1668   23.6367 N   0  0  0  0  0  0  0  0  0  0  0  0
    8.6027  -15.9744   25.6222 C   0  0  0  0  0  0  0  0  0  0  0  0
    7.6536  -16.8298   25.7753 O   0  0  0  0  0  0  0  0  0  0  0  0
    9.8674  -16.3793   26.0914 N   0  0  0  0  0  0  0  0  0  0  0  0
   10.1019  -17.6614   26.6435 C   0  0  1  0  0  0  0  0  0  0  0  0
   10.6701  -18.7331   25.8405 C   0  0  0  0  0  0  0  0  0  0  0  0
   10.8019  -20.1287   26.2703 C   0  0  0  0  0  0  0  0  0  0  0  0
   11.3997  -21.1522   25.3843 C   0  0  0  0  0  0  0  0  0  0  0  0
   11.4863  -22.5193   25.9311 C   0  0  0  0  0  0  0  0  0  0  0  0
   12.0407  -23.3658   24.8327 N   0  0  0  0  0  0  0  0  0  0  0  0
   10.9709  -17.5543   27.9276 C   0  0  0  0  0  0  0  0  0  0  0  0
   10.9489  -18.5503   28.8511 O   0  0  0  0  0  0  0  0  0  0  0  0
   11.6876  -16.5479   28.0895 O   0  0  0  0  0  0  0  0  0  0  0  0
  2  4  1  0
  2  1  1  0
  3  2  2  0
  5  4  1  0
  6  5  1  0
  6  8  1  0
  6  7  1  1
  8 15  1  0
  9  8  2  0
 11 10  1  1
 11 12  1  0
 13 11  1  0
 14 13  1  1
 15 14  1  0
 16 14  1  0
 16 17  2  0
 18 16  1  0
 19 18  1  0
 19 20  1  6
 20 21  1  0
 22 23  1  0
 22 21  1  0
 23 24  1  0
 25 19  1  0
 26 25  1  0
 27 25  2  0
M  END
$$$$
