QLK.pdb
     RDKit          3D

 27 26  0  0  1  0  0  0  0  0999 V2000
    7.0569  -12.4602   18.6828 N   0  0  0  0  0  0  0  0  0  0  0  0
    7.9881  -13.4602   18.2936 C   0  0  0  0  0  0  0  0  0  0  0  0
    8.0714  -13.7215   17.0700 O   0  0  0  0  0  0  0  0  0  0  0  0
    8.8392  -14.1832   19.2605 C   0  0  0  0  0  0  0  0  0  0  0  0
    8.2285  -14.0575   20.6278 C   0  0  0  0  0  0  0  0  0  0  0  0
    8.5536  -15.2211   21.5275 C   0  0  2  0  0  0  0  0  0  0  0  0
    7.3792  -16.0521   21.6931 N   0  0  0  0  0  0  0  0  0  0  0  0
    8.9993  -14.7374   22.8860 C   0  0  0  0  0  0  0  0  0  0  0  0
   10.0951  -14.1456   23.0142 O   0  0  0  0  0  0  0  0  0  0  0  0
    5.7073  -12.4897   26.5626 C   0  0  0  0  0  0  0  0  0  0  0  0
    6.9468  -12.8265   25.7886 C   0  0  1  0  0  0  0  0  0  0  0  0
    7.8365  -11.5906   25.8641 C   0  0  0  0  0  0  0  0  0  0  0  0
    7.6301  -14.0695   26.1391 C   0  0  0  0  0  0  0  0  0  0  0  0
    8.7563  -14.6195   25.3692 C   0  0  2  0  0  0  0  0  0  0  0  0
    8.1855  -14.9494   24.0118 N   0  0  0  0  0  0  0  0  0  0  0  0
    9.2736  -15.9072   25.8394 C   0  0  0  0  0  0  0  0  0  0  0  0
    9.5828  -15.9720   27.0869 O   0  0  0  0  0  0  0  0  0  0  0  0
    9.4581  -17.0948   25.1051 N   0  0  0  0  0  0  0  0  0  0  0  0
   10.0676  -18.2466   25.6575 C   0  0  1  0  0  0  0  0  0  0  0  0
   10.1862  -19.4761   24.8890 C   0  0  0  0  0  0  0  0  0  0  0  0
   10.7685  -20.7269   25.3853 C   0  0  0  0  0  0  0  0  0  0  0  0
   10.0102  -21.9970   25.3435 C   0  0  0  0  0  0  0  0  0  0  0  0
   10.7050  -23.1899   25.8628 C   0  0  0  0  0  0  0  0  0  0  0  0
    9.7479  -24.3249   25.7004 N   0  0  0  0  0  0  0  0  0  0  0  0
   11.4887  -17.9123   26.1905 C   0  0  0  0  0  0  0  0  0  0  0  0
   11.8850  -18.3665   27.4079 O   0  0  0  0  0  0  0  0  0  0  0  0
   12.2542  -17.2302   25.4824 O   0  0  0  0  0  0  0  0  0  0  0  0
  2  4  1  0
  2  1  1  0
  3  2  2  0
  5  4  1  0
  6  5  1  0
  6  8  1  0
  6  7  1  1
  8 15  1  0
  9  8  2  0
 11 10  1  1
 11 12  1  0
 13 11  1  0
 14 13  1  1
 15 14  1  0
 16 14  1  0
 16 17  2  0
 18 16  1  0
 19 18  1  0
 19 20  1  6
 20 21  1  0
 22 23  1  0
 22 21  1  0
 23 24  1  0
 25 19  1  0
 26 25  1  0
 27 25  2  0
M  END
$$$$
