QLK.pdb
     RDKit          3D

 27 26  0  0  1  0  0  0  0  0999 V2000
    8.0558  -21.8586   19.1741 N   0  0  0  0  0  0  0  0  0  0  0  0
    9.2869  -21.6894   18.4852 C   0  0  0  0  0  0  0  0  0  0  0  0
   10.0399  -22.6887   18.4024 O   0  0  0  0  0  0  0  0  0  0  0  0
    9.6969  -20.4063   17.8791 C   0  0  0  0  0  0  0  0  0  0  0  0
    8.6013  -19.4004   18.0939 C   0  0  0  0  0  0  0  0  0  0  0  0
    8.9115  -18.0543   17.4933 C   0  0  2  0  0  0  0  0  0  0  0  0
    9.8745  -18.2084   16.4227 N   0  0  0  0  0  0  0  0  0  0  0  0
    9.4893  -17.1257   18.5336 C   0  0  0  0  0  0  0  0  0  0  0  0
   10.7160  -16.8756   18.5409 O   0  0  0  0  0  0  0  0  0  0  0  0
    6.2716  -13.0042   20.4697 C   0  0  0  0  0  0  0  0  0  0  0  0
    7.5046  -13.6882   19.9591 C   0  0  1  0  0  0  0  0  0  0  0  0
    8.4384  -12.5761   19.4942 C   0  0  0  0  0  0  0  0  0  0  0  0
    8.1388  -14.6607   20.8462 C   0  0  0  0  0  0  0  0  0  0  0  0
    9.2575  -15.5229   20.4352 C   0  0  2  0  0  0  0  0  0  0  0  0
    8.6521  -16.5381   19.4972 N   0  0  0  0  0  0  0  0  0  0  0  0
    9.8405  -16.3491   21.4955 C   0  0  0  0  0  0  0  0  0  0  0  0
    9.2329  -17.4543   21.7512 O   0  0  0  0  0  0  0  0  0  0  0  0
   10.9962  -16.0998   22.2609 N   0  0  0  0  0  0  0  0  0  0  0  0
   11.5366  -17.0509   23.1590 C   0  0  1  0  0  0  0  0  0  0  0  0
   12.9687  -17.2994   23.2188 C   0  0  0  0  0  0  0  0  0  0  0  0
   13.6154  -18.2983   24.0755 C   0  0  0  0  0  0  0  0  0  0  0  0
   15.0816  -18.4966   24.0523 C   0  0  0  0  0  0  0  0  0  0  0  0
   15.6197  -19.5019   24.9879 C   0  0  0  0  0  0  0  0  0  0  0  0
   17.0996  -19.4982   24.7872 N   0  0  0  0  0  0  0  0  0  0  0  0
   11.0714  -16.7578   24.6127 C   0  0  0  0  0  0  0  0  0  0  0  0
   11.3430  -17.6424   25.6072 O   0  0  0  0  0  0  0  0  0  0  0  0
   10.4549  -15.7009   24.8479 O   0  0  0  0  0  0  0  0  0  0  0  0
  2  4  1  0
  2  1  1  0
  3  2  2  0
  5  4  1  0
  6  5  1  0
  6  8  1  0
  6  7  1  6
  8 15  1  0
  9  8  2  0
 11 10  1  1
 11 12  1  0
 13 11  1  0
 14 13  1  1
 15 14  1  0
 16 14  1  0
 16 17  2  0
 18 16  1  0
 19 18  1  0
 19 20  1  1
 20 21  1  0
 22 23  1  0
 22 21  1  0
 23 24  1  0
 25 19  1  0
 26 25  1  0
 27 25  2  0
M  END
$$$$
