QLK.pdb
     RDKit          3D

 27 26  0  0  1  0  0  0  0  0999 V2000
   11.5915  -19.3711   19.6195 N   0  0  0  0  0  0  0  0  0  0  0  0
   11.8901  -18.3661   20.5783 C   0  0  0  0  0  0  0  0  0  0  0  0
   12.9147  -18.5311   21.2821 O   0  0  0  0  0  0  0  0  0  0  0  0
   11.0529  -17.1639   20.7670 C   0  0  0  0  0  0  0  0  0  0  0  0
    9.7472  -17.5784   21.3847 C   0  0  0  0  0  0  0  0  0  0  0  0
    8.7902  -16.4294   21.5662 C   0  0  2  0  0  0  0  0  0  0  0  0
    8.9670  -15.4736   20.4926 N   0  0  0  0  0  0  0  0  0  0  0  0
    9.0376  -15.7310   22.8812 C   0  0  0  0  0  0  0  0  0  0  0  0
   10.1751  -15.7587   23.4033 O   0  0  0  0  0  0  0  0  0  0  0  0
    8.0007  -11.3915   26.2435 C   0  0  0  0  0  0  0  0  0  0  0  0
    7.0203  -12.5238   26.1675 C   0  0  1  0  0  0  0  0  0  0  0  0
    5.6401  -11.8937   26.3179 C   0  0  0  0  0  0  0  0  0  0  0  0
    7.1372  -13.4263   25.0244 C   0  0  0  0  0  0  0  0  0  0  0  0
    8.3212  -14.2613   24.7694 C   0  0  2  0  0  0  0  0  0  0  0  0
    7.9919  -15.0467   23.5237 N   0  0  0  0  0  0  0  0  0  0  0  0
    8.5853  -15.3032   25.7650 C   0  0  0  0  0  0  0  0  0  0  0  0
    7.6949  -16.2265   25.8686 O   0  0  0  0  0  0  0  0  0  0  0  0
    9.7017  -15.4377   26.6131 N   0  0  0  0  0  0  0  0  0  0  0  0
    9.8367  -16.5045   27.5335 C   0  0  1  0  0  0  0  0  0  0  0  0
   10.6507  -17.6688   27.2204 C   0  0  0  0  0  0  0  0  0  0  0  0
   10.8880  -18.7986   28.1245 C   0  0  0  0  0  0  0  0  0  0  0  0
   11.7829  -19.9135   27.7424 C   0  0  0  0  0  0  0  0  0  0  0  0
   11.9589  -20.9823   28.7434 C   0  0  0  0  0  0  0  0  0  0  0  0
   12.8166  -22.0169   28.0920 N   0  0  0  0  0  0  0  0  0  0  0  0
   10.3185  -15.9790   28.9145 C   0  0  0  0  0  0  0  0  0  0  0  0
   10.3681  -16.8159   29.9833 O   0  0  0  0  0  0  0  0  0  0  0  0
   10.6620  -14.7859   29.0201 O   0  0  0  0  0  0  0  0  0  0  0  0
  2  4  1  0
  2  1  1  0
  3  2  2  0
  5  4  1  0
  6  5  1  0
  6  8  1  0
  6  7  1  6
  8 15  1  0
  9  8  2  0
 11 10  1  6
 11 12  1  0
 13 11  1  0
 14 13  1  1
 15 14  1  0
 16 14  1  0
 16 17  2  0
 18 16  1  0
 19 18  1  0
 19 20  1  6
 20 21  1  0
 22 23  1  0
 22 21  1  0
 23 24  1  0
 25 19  1  0
 26 25  1  0
 27 25  2  0
M  END
$$$$
