QLK.pdb
     RDKit          3D

 27 26  0  0  1  0  0  0  0  0999 V2000
    7.5953  -16.9855   18.0743 N   0  0  0  0  0  0  0  0  0  0  0  0
    8.6648  -16.1508   18.4964 C   0  0  0  0  0  0  0  0  0  0  0  0
    8.6861  -14.9778   18.0537 O   0  0  0  0  0  0  0  0  0  0  0  0
    9.7251  -16.6099   19.4166 C   0  0  0  0  0  0  0  0  0  0  0  0
    9.5966  -15.8594   20.7122 C   0  0  0  0  0  0  0  0  0  0  0  0
    9.0920  -16.7175   21.8426 C   0  0  2  0  0  0  0  0  0  0  0  0
    7.6603  -16.8962   21.7172 N   0  0  0  0  0  0  0  0  0  0  0  0
    9.3837  -16.0712   23.1750 C   0  0  0  0  0  0  0  0  0  0  0  0
   10.5638  -15.8116   23.5027 O   0  0  0  0  0  0  0  0  0  0  0  0
    5.9319  -12.3676   25.7243 C   0  0  0  0  0  0  0  0  0  0  0  0
    7.1889  -13.0242   25.2367 C   0  0  1  0  0  0  0  0  0  0  0  0
    8.3041  -12.0074   25.4541 C   0  0  0  0  0  0  0  0  0  0  0  0
    7.4897  -14.3536   25.7630 C   0  0  0  0  0  0  0  0  0  0  0  0
    8.6803  -15.1269   25.3778 C   0  0  2  0  0  0  0  0  0  0  0  0
    8.3316  -15.7581   24.0523 N   0  0  0  0  0  0  0  0  0  0  0  0
    8.9876  -16.2789   26.2294 C   0  0  0  0  0  0  0  0  0  0  0  0
    8.0029  -17.0620   26.5000 O   0  0  0  0  0  0  0  0  0  0  0  0
   10.2302  -16.6538   26.7761 N   0  0  0  0  0  0  0  0  0  0  0  0
   10.3966  -17.8157   27.5672 C   0  0  1  0  0  0  0  0  0  0  0  0
   11.2639  -18.9010   27.1357 C   0  0  0  0  0  0  0  0  0  0  0  0
   11.4944  -19.2916   25.7413 C   0  0  0  0  0  0  0  0  0  0  0  0
   12.4970  -20.3208   25.3876 C   0  0  0  0  0  0  0  0  0  0  0  0
   12.6680  -20.5990   23.9492 C   0  0  0  0  0  0  0  0  0  0  0  0
   13.7041  -21.6708   23.8593 N   0  0  0  0  0  0  0  0  0  0  0  0
   10.8346  -17.4383   29.0098 C   0  0  0  0  0  0  0  0  0  0  0  0
   11.1283  -16.1482   29.3179 O   0  0  0  0  0  0  0  0  0  0  0  0
   10.9046  -18.3338   29.8733 O   0  0  0  0  0  0  0  0  0  0  0  0
  2  4  1  0
  2  1  1  0
  3  2  2  0
  5  4  1  0
  6  5  1  0
  6  8  1  0
  6  7  1  6
  8 15  1  0
  9  8  2  0
 11 10  1  1
 11 12  1  0
 13 11  1  0
 14 13  1  1
 15 14  1  0
 16 14  1  0
 16 17  2  0
 18 16  1  0
 19 18  1  0
 19 20  1  6
 20 21  1  0
 22 23  1  0
 22 21  1  0
 23 24  1  0
 25 19  1  0
 26 25  1  0
 27 25  2  0
M  END
$$$$
