QLK.pdb
     RDKit          3D

 27 26  0  0  1  0  0  0  0  0999 V2000
    7.2086  -20.0059   20.8041 N   0  0  0  0  0  0  0  0  0  0  0  0
    7.0097  -18.6065   20.6595 C   0  0  0  0  0  0  0  0  0  0  0  0
    5.8567  -18.1653   20.8790 O   0  0  0  0  0  0  0  0  0  0  0  0
    8.0910  -17.6792   20.2685 C   0  0  0  0  0  0  0  0  0  0  0  0
    8.6632  -17.0557   21.5102 C   0  0  0  0  0  0  0  0  0  0  0  0
    8.3823  -15.5793   21.6113 C   0  0  2  0  0  0  0  0  0  0  0  0
    9.0343  -14.8833   20.5214 N   0  0  0  0  0  0  0  0  0  0  0  0
    8.8993  -15.0255   22.9168 C   0  0  0  0  0  0  0  0  0  0  0  0
   10.1166  -14.7656   23.0512 O   0  0  0  0  0  0  0  0  0  0  0  0
    5.4566  -12.1465   26.2317 C   0  0  0  0  0  0  0  0  0  0  0  0
    6.6536  -12.5791   25.4386 C   0  0  1  0  0  0  0  0  0  0  0  0
    7.4489  -11.3098   25.1545 C   0  0  0  0  0  0  0  0  0  0  0  0
    7.4558  -13.6687   25.9900 C   0  0  0  0  0  0  0  0  0  0  0  0
    8.5908  -14.2785   25.2802 C   0  0  2  0  0  0  0  0  0  0  0  0
    8.0158  -14.7992   23.9859 N   0  0  0  0  0  0  0  0  0  0  0  0
    9.1556  -15.4775   25.9048 C   0  0  0  0  0  0  0  0  0  0  0  0
    9.4997  -15.3643   27.1396 O   0  0  0  0  0  0  0  0  0  0  0  0
    9.3530  -16.7493   25.3330 N   0  0  0  0  0  0  0  0  0  0  0  0
   10.0144  -17.7984   26.0152 C   0  0  1  0  0  0  0  0  0  0  0  0
    9.9140  -19.1749   25.5554 C   0  0  0  0  0  0  0  0  0  0  0  0
   10.5264  -20.3310   26.2174 C   0  0  0  0  0  0  0  0  0  0  0  0
   10.7505  -21.6016   25.4926 C   0  0  0  0  0  0  0  0  0  0  0  0
   11.3845  -22.6890   26.2614 C   0  0  0  0  0  0  0  0  0  0  0  0
   11.3545  -23.8899   25.3741 N   0  0  0  0  0  0  0  0  0  0  0  0
   11.5294  -17.4852   26.1648 C   0  0  0  0  0  0  0  0  0  0  0  0
   12.2215  -16.9515   25.1248 O   0  0  0  0  0  0  0  0  0  0  0  0
   12.0912  -17.7251   27.2508 O   0  0  0  0  0  0  0  0  0  0  0  0
  2  4  1  0
  2  1  1  0
  3  2  2  0
  5  4  1  0
  6  5  1  0
  6  8  1  0
  6  7  1  6
  8 15  1  0
  9  8  2  0
 11 10  1  1
 11 12  1  0
 13 11  1  0
 14 13  1  1
 15 14  1  0
 16 14  1  0
 16 17  2  0
 18 16  1  0
 19 18  1  0
 19 20  1  6
 20 21  1  0
 22 23  1  0
 22 21  1  0
 23 24  1  0
 25 19  1  0
 26 25  1  0
 27 25  2  0
M  END
$$$$
