QLK.pdb
     RDKit          3D

 27 26  0  0  1  0  0  0  0  0999 V2000
    8.0955  -11.9886   19.0234 N   0  0  0  0  0  0  0  0  0  0  0  0
    8.1769  -13.3703   18.7029 C   0  0  0  0  0  0  0  0  0  0  0  0
    8.6813  -13.6736   17.5957 O   0  0  0  0  0  0  0  0  0  0  0  0
    7.6981  -14.4334   19.6099 C   0  0  0  0  0  0  0  0  0  0  0  0
    8.8413  -14.8762   20.4788 C   0  0  0  0  0  0  0  0  0  0  0  0
    8.4203  -15.8309   21.5651 C   0  0  2  0  0  0  0  0  0  0  0  0
    6.9758  -15.8450   21.6687 N   0  0  0  0  0  0  0  0  0  0  0  0
    8.9965  -15.4131   22.8962 C   0  0  0  0  0  0  0  0  0  0  0  0
   10.2037  -15.0940   22.9861 O   0  0  0  0  0  0  0  0  0  0  0  0
    5.8918  -12.7075   26.6043 C   0  0  0  0  0  0  0  0  0  0  0  0
    7.0529  -13.1368   25.7579 C   0  0  1  0  0  0  0  0  0  0  0  0
    7.9816  -11.9303   25.6777 C   0  0  0  0  0  0  0  0  0  0  0  0
    7.7260  -14.3773   26.1358 C   0  0  0  0  0  0  0  0  0  0  0  0
    8.8127  -14.9812   25.3494 C   0  0  2  0  0  0  0  0  0  0  0  0
    8.1796  -15.3804   24.0391 N   0  0  0  0  0  0  0  0  0  0  0  0
    9.3400  -16.2459   25.8683 C   0  0  0  0  0  0  0  0  0  0  0  0
    9.5995  -16.2770   27.1284 O   0  0  0  0  0  0  0  0  0  0  0  0
    9.5819  -17.4439   25.1683 N   0  0  0  0  0  0  0  0  0  0  0  0
   10.1732  -18.5770   25.7764 C   0  0  1  0  0  0  0  0  0  0  0  0
   10.0276  -19.9031   25.1964 C   0  0  0  0  0  0  0  0  0  0  0  0
    8.8243  -20.7358   25.2894 C   0  0  0  0  0  0  0  0  0  0  0  0
    7.6223  -20.4421   24.4779 C   0  0  0  0  0  0  0  0  0  0  0  0
    6.4475  -21.3016   24.7159 C   0  0  0  0  0  0  0  0  0  0  0  0
    5.3727  -20.7852   23.8167 N   0  0  0  0  0  0  0  0  0  0  0  0
   11.6946  -18.3489   25.9973 C   0  0  0  0  0  0  0  0  0  0  0  0
   12.2977  -17.2393   25.4969 O   0  0  0  0  0  0  0  0  0  0  0  0
   12.3444  -19.1937   26.6429 O   0  0  0  0  0  0  0  0  0  0  0  0
  2  4  1  0
  2  1  1  0
  3  2  2  0
  5  4  1  0
  6  5  1  0
  6  8  1  0
  6  7  1  1
  8 15  1  0
  9  8  2  0
 11 10  1  1
 11 12  1  0
 13 11  1  0
 14 13  1  1
 15 14  1  0
 16 14  1  0
 16 17  2  0
 18 16  1  0
 19 18  1  0
 19 20  1  6
 20 21  1  0
 22 23  1  0
 22 21  1  0
 23 24  1  0
 25 19  1  0
 26 25  1  0
 27 25  2  0
M  END
$$$$
