EGC.pdb
     RDKit          3D

 20 19  0  0  1  0  0  0  0  0999 V2000
   17.2802  -10.8723  -14.1704 N   0  0  0  0  0  0  0  0  0  0  0  0
   18.5315  -10.1879  -14.3649 C   0  0  1  0  0  0  0  0  0  0  0  0
   18.6977   -9.6344  -15.7341 C   0  0  0  0  0  0  0  0  0  0  0  0
   18.6254  -10.5723  -16.8671 C   0  0  0  0  0  0  0  0  0  0  0  0
   19.7047  -11.5261  -17.0519 C   0  0  0  0  0  0  0  0  0  0  0  0
   20.7852  -11.2784  -16.3998 O   0  0  0  0  0  0  0  0  0  0  0  0
   18.7027   -9.1205  -13.3125 C   0  0  0  0  0  0  0  0  0  0  0  0
   19.7718   -8.4495  -13.3095 O   0  0  0  0  0  0  0  0  0  0  0  0
   19.7406  -12.6548  -17.8251 O   0  0  0  0  0  0  0  0  0  0  0  0
   17.7340   -8.8359  -12.3383 N   0  0  0  0  0  0  0  0  0  0  0  0
   17.7729   -7.7515  -11.4132 C   0  0  0  0  0  0  0  0  0  0  0  0
   16.4159   -7.3679  -10.9224 C   0  0  0  0  0  0  0  0  0  0  0  0
   15.4370   -7.6110  -11.6410 O   0  0  0  0  0  0  0  0  0  0  0  0
   16.2543   -6.7381   -9.6557 N   0  0  0  0  0  0  0  0  0  0  0  0
   14.9644   -6.3936   -9.1188 C   0  0  1  0  0  0  0  0  0  0  0  0
   14.9221   -6.5015   -7.6103 C   0  0  0  0  0  0  0  0  0  0  0  0
   15.4492   -8.1705   -7.1293 S   0  0  0  0  0  0  0  0  0  0  0  0
   14.4781   -5.0851   -9.6086 C   0  0  0  0  0  0  0  0  0  0  0  0
   13.1129   -4.8813   -9.6785 O   0  0  0  0  0  0  0  0  0  0  0  0
   15.2430   -4.1721   -9.9554 O   0  0  0  0  0  0  0  0  0  0  0  0
  2  1  1  6
  3  2  1  0
  4  3  1  0
  4  5  1  0
  5  6  2  0
  7  2  1  0
  8  7  2  0
  9  5  1  0
 10  7  1  0
 11 12  1  0
 11 10  1  0
 12 14  1  0
 13 12  2  0
 15 14  1  0
 15 16  1  1
 16 17  1  0
 18 15  1  0
 19 18  1  0
 20 18  2  0
M  END
$$$$
