EGC.pdb
     RDKit          3D

 20 19  0  0  1  0  0  0  0  0999 V2000
   19.1661  -11.5876  -16.2122 N   0  0  0  0  0  0  0  0  0  0  0  0
   17.7297  -11.5565  -16.1246 C   0  0  1  0  0  0  0  0  0  0  0  0
   17.1547  -12.7209  -15.4018 C   0  0  0  0  0  0  0  0  0  0  0  0
   17.3930  -14.0620  -15.9614 C   0  0  0  0  0  0  0  0  0  0  0  0
   16.8797  -15.2168  -15.2461 C   0  0  0  0  0  0  0  0  0  0  0  0
   17.0682  -16.3544  -15.8158 O   0  0  0  0  0  0  0  0  0  0  0  0
   17.2798  -10.2512  -15.5164 C   0  0  0  0  0  0  0  0  0  0  0  0
   16.0522   -9.9611  -15.5632 O   0  0  0  0  0  0  0  0  0  0  0  0
   16.2186  -15.2710  -14.0490 O   0  0  0  0  0  0  0  0  0  0  0  0
   18.1562   -9.3447  -14.9013 N   0  0  0  0  0  0  0  0  0  0  0  0
   17.7788   -8.1572  -14.2079 C   0  0  0  0  0  0  0  0  0  0  0  0
   18.9567   -7.3696  -13.7368 C   0  0  0  0  0  0  0  0  0  0  0  0
   19.5920   -7.7849  -12.7582 O   0  0  0  0  0  0  0  0  0  0  0  0
   19.3388   -6.1694  -14.4006 N   0  0  0  0  0  0  0  0  0  0  0  0
   20.5460   -5.4549  -14.0793 C   0  0  1  0  0  0  0  0  0  0  0  0
   21.7818   -6.3127  -14.2399 C   0  0  0  0  0  0  0  0  0  0  0  0
   23.2369   -5.3339  -13.7714 S   0  0  0  0  0  0  0  0  0  0  0  0
   20.6506   -4.1671  -14.7998 C   0  0  0  0  0  0  0  0  0  0  0  0
   21.1330   -3.0711  -14.1096 O   0  0  0  0  0  0  0  0  0  0  0  0
   20.3249   -4.0355  -15.9895 O   0  0  0  0  0  0  0  0  0  0  0  0
  2  1  1  1
  3  2  1  0
  4  3  1  0
  4  5  1  0
  5  6  2  0
  7  2  1  0
  8  7  2  0
  9  5  1  0
 10  7  1  0
 11 12  1  0
 11 10  1  0
 12 14  1  0
 13 12  2  0
 15 14  1  0
 15 16  1  6
 16 17  1  0
 18 15  1  0
 19 18  1  0
 20 18  2  0
M  END
$$$$
