EGC.pdb
     RDKit          3D

 20 19  0  0  1  0  0  0  0  0999 V2000
   20.4971  -14.8578  -17.3144 N   0  0  0  0  0  0  0  0  0  0  0  0
   19.2117  -14.6652  -17.9329 C   0  0  1  0  0  0  0  0  0  0  0  0
   18.0957  -15.3115  -17.1941 C   0  0  0  0  0  0  0  0  0  0  0  0
   18.4328  -16.3818  -16.2404 C   0  0  0  0  0  0  0  0  0  0  0  0
   17.7656  -17.6651  -16.3691 C   0  0  0  0  0  0  0  0  0  0  0  0
   16.5062  -17.6154  -16.6249 O   0  0  0  0  0  0  0  0  0  0  0  0
   18.9571  -13.1930  -18.1418 C   0  0  0  0  0  0  0  0  0  0  0  0
   17.9255  -12.8494  -18.7830 O   0  0  0  0  0  0  0  0  0  0  0  0
   18.2840  -18.9266  -16.2544 O   0  0  0  0  0  0  0  0  0  0  0  0
   19.8079  -12.1873  -17.6592 N   0  0  0  0  0  0  0  0  0  0  0  0
   19.6329  -10.7844  -17.8449 C   0  0  0  0  0  0  0  0  0  0  0  0
   19.8892  -10.0046  -16.5976 C   0  0  0  0  0  0  0  0  0  0  0  0
   19.2229  -10.2695  -15.5878 O   0  0  0  0  0  0  0  0  0  0  0  0
   20.8788   -8.9813  -16.5728 N   0  0  0  0  0  0  0  0  0  0  0  0
   21.1902   -8.2309  -15.3849 C   0  0  1  0  0  0  0  0  0  0  0  0
   22.5426   -8.5952  -14.8128 C   0  0  0  0  0  0  0  0  0  0  0  0
   22.5237   -8.2824  -13.0250 S   0  0  0  0  0  0  0  0  0  0  0  0
   21.0287   -6.7731  -15.5775 C   0  0  0  0  0  0  0  0  0  0  0  0
   20.5715   -6.0212  -14.5116 O   0  0  0  0  0  0  0  0  0  0  0  0
   21.2862   -6.2052  -16.6499 O   0  0  0  0  0  0  0  0  0  0  0  0
  2  1  1  1
  3  2  1  0
  4  3  1  0
  4  5  1  0
  5  6  2  0
  7  2  1  0
  8  7  2  0
  9  5  1  0
 10  7  1  0
 11 12  1  0
 11 10  1  0
 12 14  1  0
 13 12  2  0
 15 14  1  0
 15 16  1  6
 16 17  1  0
 18 15  1  0
 19 18  1  0
 20 18  2  0
M  END
$$$$
