EGC.pdb
     RDKit          3D

 20 19  0  0  1  0  0  0  0  0999 V2000
   25.3197  -18.1889  -16.5787 N   0  0  0  0  0  0  0  0  0  0  0  0
   25.9897  -19.0877  -17.4816 C   0  0  1  0  0  0  0  0  0  0  0  0
   27.0229  -18.4249  -18.3194 C   0  0  0  0  0  0  0  0  0  0  0  0
   26.6944  -18.1565  -19.7297 C   0  0  0  0  0  0  0  0  0  0  0  0
   25.9145  -19.1381  -20.4624 C   0  0  0  0  0  0  0  0  0  0  0  0
   24.6996  -18.8044  -20.7208 O   0  0  0  0  0  0  0  0  0  0  0  0
   26.5639  -20.2532  -16.7149 C   0  0  0  0  0  0  0  0  0  0  0  0
   26.3539  -21.4186  -17.1520 O   0  0  0  0  0  0  0  0  0  0  0  0
   26.2851  -20.3743  -20.9181 O   0  0  0  0  0  0  0  0  0  0  0  0
   27.3196  -20.1073  -15.5418 N   0  0  0  0  0  0  0  0  0  0  0  0
   27.8515  -21.1693  -14.7530 C   0  0  0  0  0  0  0  0  0  0  0  0
   26.9083  -21.6191  -13.6863 C   0  0  0  0  0  0  0  0  0  0  0  0
   26.1866  -22.6001  -13.9111 O   0  0  0  0  0  0  0  0  0  0  0  0
   26.8436  -20.9342  -12.4398 N   0  0  0  0  0  0  0  0  0  0  0  0
   25.8251  -21.2016  -11.4589 C   0  0  1  0  0  0  0  0  0  0  0  0
   26.0911  -20.4965  -10.1470 C   0  0  0  0  0  0  0  0  0  0  0  0
   24.7440  -20.8822   -8.9932 S   0  0  0  0  0  0  0  0  0  0  0  0
   24.4619  -20.9475  -11.9743 C   0  0  0  0  0  0  0  0  0  0  0  0
   24.2688  -19.8526  -12.7955 O   0  0  0  0  0  0  0  0  0  0  0  0
   23.4945  -21.6739  -11.6999 O   0  0  0  0  0  0  0  0  0  0  0  0
  2  1  1  1
  3  2  1  0
  4  3  1  0
  4  5  1  0
  5  6  2  0
  7  2  1  0
  8  7  2  0
  9  5  1  0
 10  7  1  0
 11 12  1  0
 11 10  1  0
 12 14  1  0
 13 12  2  0
 15 14  1  0
 15 16  1  1
 16 17  1  0
 18 15  1  0
 19 18  1  0
 20 18  2  0
M  END
$$$$
