EGC.pdb
     RDKit          3D

 20 19  0  0  1  0  0  0  0  0999 V2000
   15.9704  -12.4167  -15.4151 N   0  0  0  0  0  0  0  0  0  0  0  0
   17.3210  -12.9139  -15.3909 C   0  0  1  0  0  0  0  0  0  0  0  0
   17.4925  -14.1993  -16.1169 C   0  0  0  0  0  0  0  0  0  0  0  0
   16.7291  -15.3645  -15.6392 C   0  0  0  0  0  0  0  0  0  0  0  0
   16.8657  -16.6249  -16.3473 C   0  0  0  0  0  0  0  0  0  0  0  0
   15.9682  -17.5093  -16.0893 O   0  0  0  0  0  0  0  0  0  0  0  0
   18.2670  -11.8576  -15.9061 C   0  0  0  0  0  0  0  0  0  0  0  0
   19.5079  -12.0714  -15.8177 O   0  0  0  0  0  0  0  0  0  0  0  0
   17.8170  -17.0119  -17.2519 O   0  0  0  0  0  0  0  0  0  0  0  0
   17.8374  -10.6510  -16.4787 N   0  0  0  0  0  0  0  0  0  0  0  0
   18.6786   -9.6496  -17.0469 C   0  0  0  0  0  0  0  0  0  0  0  0
   19.0333   -8.5772  -16.0703 C   0  0  0  0  0  0  0  0  0  0  0  0
   18.1882   -8.2402  -15.2300 O   0  0  0  0  0  0  0  0  0  0  0  0
   20.3153   -7.9590  -16.1062 N   0  0  0  0  0  0  0  0  0  0  0  0
   20.6924   -6.9005  -15.2071 C   0  0  1  0  0  0  0  0  0  0  0  0
   22.1567   -6.9600  -14.8309 C   0  0  0  0  0  0  0  0  0  0  0  0
   22.4990   -8.5718  -14.0699 S   0  0  0  0  0  0  0  0  0  0  0  0
   20.2864   -5.5664  -15.7010 C   0  0  0  0  0  0  0  0  0  0  0  0
   20.2788   -4.5140  -14.8051 O   0  0  0  0  0  0  0  0  0  0  0  0
   19.9559   -5.3588  -16.8785 O   0  0  0  0  0  0  0  0  0  0  0  0
  2  1  1  6
  3  2  1  0
  4  3  1  0
  4  5  1  0
  5  6  2  0
  7  2  1  0
  8  7  2  0
  9  5  1  0
 10  7  1  0
 11 12  1  0
 11 10  1  0
 12 14  1  0
 13 12  2  0
 15 14  1  0
 15 16  1  6
 16 17  1  0
 18 15  1  0
 19 18  1  0
 20 18  2  0
M  END
$$$$
