EGC.pdb
     RDKit          3D

 20 19  0  0  1  0  0  0  0  0999 V2000
   27.0766  -21.0785  -17.4606 N   0  0  0  0  0  0  0  0  0  0  0  0
   26.1979  -19.9646  -17.2175 C   0  0  1  0  0  0  0  0  0  0  0  0
   24.7965  -20.2105  -17.6471 C   0  0  0  0  0  0  0  0  0  0  0  0
   24.0435  -21.2719  -16.9578 C   0  0  0  0  0  0  0  0  0  0  0  0
   23.1836  -20.9065  -15.8461 C   0  0  0  0  0  0  0  0  0  0  0  0
   23.1881  -21.7175  -14.8480 O   0  0  0  0  0  0  0  0  0  0  0  0
   26.2683  -19.5614  -15.7655 C   0  0  0  0  0  0  0  0  0  0  0  0
   25.5148  -18.6310  -15.3657 O   0  0  0  0  0  0  0  0  0  0  0  0
   22.3626  -19.8204  -15.7063 O   0  0  0  0  0  0  0  0  0  0  0  0
   27.1279  -20.1685  -14.8376 N   0  0  0  0  0  0  0  0  0  0  0  0
   27.2313  -19.8387  -13.4543 C   0  0  0  0  0  0  0  0  0  0  0  0
   26.2519  -20.5873  -12.6117 C   0  0  0  0  0  0  0  0  0  0  0  0
   25.3051  -21.1568  -13.1711 O   0  0  0  0  0  0  0  0  0  0  0  0
   26.4067  -20.6441  -11.1975 N   0  0  0  0  0  0  0  0  0  0  0  0
   25.4599  -21.3054  -10.3387 C   0  0  1  0  0  0  0  0  0  0  0  0
   25.8672  -21.2489   -8.8827 C   0  0  0  0  0  0  0  0  0  0  0  0
   26.1930  -19.5205   -8.4342 S   0  0  0  0  0  0  0  0  0  0  0  0
   24.0734  -20.8392  -10.5593 C   0  0  0  0  0  0  0  0  0  0  0  0
   23.0376  -21.6457  -10.1269 O   0  0  0  0  0  0  0  0  0  0  0  0
   23.8080  -19.7611  -11.1126 O   0  0  0  0  0  0  0  0  0  0  0  0
  2  1  1  1
  3  2  1  0
  4  3  1  0
  4  5  1  0
  5  6  2  0
  7  2  1  0
  8  7  2  0
  9  5  1  0
 10  7  1  0
 11 12  1  0
 11 10  1  0
 12 14  1  0
 13 12  2  0
 15 14  1  0
 15 16  1  1
 16 17  1  0
 18 15  1  0
 19 18  1  0
 20 18  2  0
M  END
$$$$
