EGC.pdb
     RDKit          3D

 20 19  0  0  1  0  0  0  0  0999 V2000
   15.9943  -13.8723  -13.0103 N   0  0  0  0  0  0  0  0  0  0  0  0
   16.4310  -12.5153  -12.8108 C   0  0  1  0  0  0  0  0  0  0  0  0
   16.7561  -11.8054  -14.0754 C   0  0  0  0  0  0  0  0  0  0  0  0
   17.8596  -12.3337  -14.8950 C   0  0  0  0  0  0  0  0  0  0  0  0
   18.2729  -11.5885  -16.0707 C   0  0  0  0  0  0  0  0  0  0  0  0
   18.9737  -10.5341  -15.8444 O   0  0  0  0  0  0  0  0  0  0  0  0
   15.4074  -11.7596  -12.0001 C   0  0  0  0  0  0  0  0  0  0  0  0
   14.2101  -12.1585  -12.0268 O   0  0  0  0  0  0  0  0  0  0  0  0
   18.0218  -11.8446  -17.3916 O   0  0  0  0  0  0  0  0  0  0  0  0
   15.7190  -10.6373  -11.2180 N   0  0  0  0  0  0  0  0  0  0  0  0
   14.7946   -9.8746  -10.4453 C   0  0  0  0  0  0  0  0  0  0  0  0
   15.4581   -8.7851   -9.6691 C   0  0  0  0  0  0  0  0  0  0  0  0
   16.4166   -9.0774   -8.9415 O   0  0  0  0  0  0  0  0  0  0  0  0
   14.9974   -7.4415   -9.7667 N   0  0  0  0  0  0  0  0  0  0  0  0
   15.5701   -6.3667   -8.9999 C   0  0  1  0  0  0  0  0  0  0  0  0
   16.6787   -5.6561   -9.7450 C   0  0  0  0  0  0  0  0  0  0  0  0
   17.6349   -6.8839  -10.6791 S   0  0  0  0  0  0  0  0  0  0  0  0
   14.5464   -5.4340   -8.4798 C   0  0  0  0  0  0  0  0  0  0  0  0
   13.2385   -5.6049   -8.8928 O   0  0  0  0  0  0  0  0  0  0  0  0
   14.8154   -4.5128   -7.6937 O   0  0  0  0  0  0  0  0  0  0  0  0
  2  1  1  6
  3  2  1  0
  4  3  1  0
  4  5  1  0
  5  6  2  0
  7  2  1  0
  8  7  2  0
  9  5  1  0
 10  7  1  0
 11 12  1  0
 11 10  1  0
 12 14  1  0
 13 12  2  0
 15 14  1  0
 15 16  1  6
 16 17  1  0
 18 15  1  0
 19 18  1  0
 20 18  2  0
M  END
$$$$
