EGC.pdb
     RDKit          3D

 20 19  0  0  1  0  0  0  0  0999 V2000
   18.1288  -11.8131  -15.1717 N   0  0  0  0  0  0  0  0  0  0  0  0
   17.0071  -11.0436  -14.7008 C   0  0  1  0  0  0  0  0  0  0  0  0
   15.9224  -11.8742  -14.1159 C   0  0  0  0  0  0  0  0  0  0  0  0
   14.7872  -12.2309  -14.9835 C   0  0  0  0  0  0  0  0  0  0  0  0
   13.7040  -11.2768  -15.1412 C   0  0  0  0  0  0  0  0  0  0  0  0
   12.9766  -11.0820  -14.0985 O   0  0  0  0  0  0  0  0  0  0  0  0
   17.4785   -9.9876  -13.7319 C   0  0  0  0  0  0  0  0  0  0  0  0
   18.0089  -10.3628  -12.6497 O   0  0  0  0  0  0  0  0  0  0  0  0
   13.3406  -10.5528  -16.2444 O   0  0  0  0  0  0  0  0  0  0  0  0
   17.3578   -8.6108  -13.9732 N   0  0  0  0  0  0  0  0  0  0  0  0
   17.8475   -7.5690  -13.1317 C   0  0  0  0  0  0  0  0  0  0  0  0
   19.3123   -7.3349  -13.3026 C   0  0  0  0  0  0  0  0  0  0  0  0
   20.0575   -8.3167  -13.4233 O   0  0  0  0  0  0  0  0  0  0  0  0
   19.8370   -6.0116  -13.3270 N   0  0  0  0  0  0  0  0  0  0  0  0
   21.2049   -5.7250  -13.6702 C   0  0  1  0  0  0  0  0  0  0  0  0
   21.5985   -6.3160  -15.0061 C   0  0  0  0  0  0  0  0  0  0  0  0
   23.3491   -5.9485  -15.3143 S   0  0  0  0  0  0  0  0  0  0  0  0
   21.5237   -4.2838  -13.5705 C   0  0  0  0  0  0  0  0  0  0  0  0
   22.7832   -3.9235  -13.1297 O   0  0  0  0  0  0  0  0  0  0  0  0
   20.7105   -3.3947  -13.8654 O   0  0  0  0  0  0  0  0  0  0  0  0
  2  1  1  1
  3  2  1  0
  4  3  1  0
  4  5  1  0
  5  6  2  0
  7  2  1  0
  8  7  2  0
  9  5  1  0
 10  7  1  0
 11 12  1  0
 11 10  1  0
 12 14  1  0
 13 12  2  0
 15 14  1  0
 15 16  1  6
 16 17  1  0
 18 15  1  0
 19 18  1  0
 20 18  2  0
M  END
$$$$
