EGC.pdb
     RDKit          3D

 20 19  0  0  1  0  0  0  0  0999 V2000
   19.4770  -11.8983  -16.7672 N   0  0  0  0  0  0  0  0  0  0  0  0
   18.1313  -11.4319  -16.9757 C   0  0  1  0  0  0  0  0  0  0  0  0
   17.1875  -11.8478  -15.9057 C   0  0  0  0  0  0  0  0  0  0  0  0
   17.4602  -13.1133  -15.2037 C   0  0  0  0  0  0  0  0  0  0  0  0
   16.3641  -14.0413  -14.9892 C   0  0  0  0  0  0  0  0  0  0  0  0
   15.8535  -14.0376  -13.8088 O   0  0  0  0  0  0  0  0  0  0  0  0
   18.1293   -9.9350  -17.1635 C   0  0  0  0  0  0  0  0  0  0  0  0
   17.0275   -9.3619  -17.3896 O   0  0  0  0  0  0  0  0  0  0  0  0
   15.7941  -14.9261  -15.8641 O   0  0  0  0  0  0  0  0  0  0  0  0
   19.2891   -9.1482  -17.0987 N   0  0  0  0  0  0  0  0  0  0  0  0
   19.3414   -7.7269  -17.2005 C   0  0  0  0  0  0  0  0  0  0  0  0
   19.6788   -7.0712  -15.9021 C   0  0  0  0  0  0  0  0  0  0  0  0
   19.1427   -7.4950  -14.8693 O   0  0  0  0  0  0  0  0  0  0  0  0
   20.5976   -5.9845  -15.8559 N   0  0  0  0  0  0  0  0  0  0  0  0
   20.9842   -5.3464  -14.6253 C   0  0  1  0  0  0  0  0  0  0  0  0
   22.3851   -5.7246  -14.1970 C   0  0  0  0  0  0  0  0  0  0  0  0
   22.7357   -4.9472  -12.5947 S   0  0  0  0  0  0  0  0  0  0  0  0
   20.7754   -3.8822  -14.6567 C   0  0  0  0  0  0  0  0  0  0  0  0
   20.3966   -3.2523  -13.4862 O   0  0  0  0  0  0  0  0  0  0  0  0
   20.9266   -3.2047  -15.6848 O   0  0  0  0  0  0  0  0  0  0  0  0
  2  1  1  1
  3  2  1  0
  4  3  1  0
  4  5  1  0
  5  6  2  0
  7  2  1  0
  8  7  2  0
  9  5  1  0
 10  7  1  0
 11 12  1  0
 11 10  1  0
 12 14  1  0
 13 12  2  0
 15 14  1  0
 15 16  1  6
 16 17  1  0
 18 15  1  0
 19 18  1  0
 20 18  2  0
M  END
$$$$
