AKD.pdb
     RDKit          3D

 23 22  0  0  1  0  0  0  0  0999 V2000
   19.8578  -14.3202  -15.6675 C   0  0  0  0  0  0  0  0  0  0  0  0
   18.4547  -14.6282  -16.1534 C   0  0  2  0  0  0  0  0  0  0  0  0
   18.5414  -15.0843  -17.5251 N   0  0  0  0  0  0  0  0  0  0  0  0
   17.6975  -13.3373  -16.1078 C   0  0  0  0  0  0  0  0  0  0  0  0
   17.8788  -12.4275  -16.9449 O   0  0  0  0  0  0  0  0  0  0  0  0
   16.7294  -13.1110  -15.0842 N   0  0  0  0  0  0  0  0  0  0  0  0
   15.8440  -11.9805  -15.1413 C   0  0  1  0  0  0  0  0  0  0  0  0
   14.5437  -12.2810  -14.3987 C   0  0  0  0  0  0  0  0  0  0  0  0
   13.5494  -11.1598  -14.5774 C   0  0  0  0  0  0  0  0  0  0  0  0
   12.2867  -11.3624  -13.8178 C   0  0  0  0  0  0  0  0  0  0  0  0
   11.2798  -10.2579  -14.0069 C   0  0  0  0  0  0  0  0  0  0  0  0
   10.0170  -10.5847  -13.3845 N   0  0  0  0  0  0  0  0  0  0  0  0
   16.4958  -10.7599  -14.5438 C   0  0  0  0  0  0  0  0  0  0  0  0
   17.0799  -10.7862  -13.4519 O   0  0  0  0  0  0  0  0  0  0  0  0
   16.4313   -9.5572  -15.2611 N   0  0  0  0  0  0  0  0  0  0  0  0
   17.0526   -8.2979  -14.7527 C   0  0  1  0  0  0  0  0  0  0  0  0
   17.7577   -7.6295  -15.8941 C   0  0  0  0  0  0  0  0  0  0  0  0
   18.3417   -6.3294  -15.6429 C   0  0  0  0  0  0  0  0  0  0  0  0
   18.2997   -5.7369  -14.5667 O   0  0  0  0  0  0  0  0  0  0  0  0
   15.9701   -7.4313  -14.2206 C   0  0  0  0  0  0  0  0  0  0  0  0
   14.8700   -7.3580  -14.8708 O   0  0  0  0  0  0  0  0  0  0  0  0
   19.0030   -5.7176  -16.7308 O   0  0  0  0  0  0  0  0  0  0  0  0
   16.1038   -6.7139  -13.0683 O   0  0  0  0  0  0  0  0  0  0  0  0
  2  1  1  6
  2  4  1  0
  3  2  1  0
  4  6  1  0
  5  4  2  0
  6  7  1  0
  7  8  1  1
  7 13  1  0
  8  9  1  0
  9 10  1  0
 10 11  1  0
 11 12  1  0
 13 14  2  0
 15 13  1  0
 15 16  1  0
 16 17  1  6
 18 17  1  0
 19 18  2  0
 20 16  1  0
 20 23  1  0
 21 20  2  0
 22 18  1  0
M  END
$$$$
