AKD.pdb
     RDKit          3D

 23 22  0  0  1  0  0  0  0  0999 V2000
   16.9061  -15.9984  -12.9405 C   0  0  0  0  0  0  0  0  0  0  0  0
   17.7527  -16.4533  -14.1134 C   0  0  2  0  0  0  0  0  0  0  0  0
   18.7841  -17.3367  -13.6106 N   0  0  0  0  0  0  0  0  0  0  0  0
   18.3886  -15.2218  -14.6799 C   0  0  0  0  0  0  0  0  0  0  0  0
   19.3530  -14.6533  -14.1250 O   0  0  0  0  0  0  0  0  0  0  0  0
   17.8967  -14.6561  -15.8941 N   0  0  0  0  0  0  0  0  0  0  0  0
   18.4584  -13.4447  -16.4257 C   0  0  1  0  0  0  0  0  0  0  0  0
   18.6237  -13.5512  -17.9402 C   0  0  0  0  0  0  0  0  0  0  0  0
   19.3475  -12.3461  -18.4894 C   0  0  0  0  0  0  0  0  0  0  0  0
   19.5952  -12.4217  -19.9541 C   0  0  0  0  0  0  0  0  0  0  0  0
   20.3287  -11.2284  -20.5089 C   0  0  0  0  0  0  0  0  0  0  0  0
   20.4229  -11.2917  -21.9497 N   0  0  0  0  0  0  0  0  0  0  0  0
   17.5861  -12.2608  -16.0953 C   0  0  0  0  0  0  0  0  0  0  0  0
   16.3499  -12.3332  -16.0692 O   0  0  0  0  0  0  0  0  0  0  0  0
   18.2102  -11.0386  -15.8088 N   0  0  0  0  0  0  0  0  0  0  0  0
   17.4333   -9.8279  -15.4076 C   0  0  1  0  0  0  0  0  0  0  0  0
   18.3691   -8.8754  -14.7266 C   0  0  0  0  0  0  0  0  0  0  0  0
   17.8476   -7.5725  -14.3726 C   0  0  0  0  0  0  0  0  0  0  0  0
   16.8435   -7.3799  -13.6903 O   0  0  0  0  0  0  0  0  0  0  0  0
   16.8611   -9.2188  -16.6353 C   0  0  0  0  0  0  0  0  0  0  0  0
   15.8975   -8.3852  -16.5126 O   0  0  0  0  0  0  0  0  0  0  0  0
   18.5635   -6.4565  -14.8597 O   0  0  0  0  0  0  0  0  0  0  0  0
   17.3233   -9.5130  -17.8845 O   0  0  0  0  0  0  0  0  0  0  0  0
  2  1  1  1
  2  4  1  0
  3  2  1  0
  4  6  1  0
  5  4  2  0
  6  7  1  0
  7  8  1  6
  7 13  1  0
  8  9  1  0
  9 10  1  0
 10 11  1  0
 11 12  1  0
 13 14  2  0
 15 13  1  0
 15 16  1  0
 16 17  1  6
 18 17  1  0
 19 18  2  0
 20 16  1  0
 20 23  1  0
 21 20  2  0
 22 18  1  0
M  END
$$$$
