AKD.pdb
     RDKit          3D

 23 22  0  0  1  0  0  0  0  0999 V2000
   27.2210  -22.2654  -17.2758 C   0  0  0  0  0  0  0  0  0  0  0  0
   26.9072  -21.0907  -16.3696 C   0  0  2  0  0  0  0  0  0  0  0  0
   27.4234  -21.3877  -15.0496 N   0  0  0  0  0  0  0  0  0  0  0  0
   25.4145  -20.9909  -16.3066 C   0  0  0  0  0  0  0  0  0  0  0  0
   24.7072  -20.9139  -17.3337 O   0  0  0  0  0  0  0  0  0  0  0  0
   24.7504  -20.9812  -15.0437 N   0  0  0  0  0  0  0  0  0  0  0  0
   23.3266  -20.8049  -14.9588 C   0  0  1  0  0  0  0  0  0  0  0  0
   22.7912  -21.3935  -13.6553 C   0  0  0  0  0  0  0  0  0  0  0  0
   21.2821  -21.3878  -13.6410 C   0  0  0  0  0  0  0  0  0  0  0  0
   20.6989  -22.1139  -12.4812 C   0  0  0  0  0  0  0  0  0  0  0  0
   19.1932  -22.1647  -12.4907 C   0  0  0  0  0  0  0  0  0  0  0  0
   18.6887  -23.0181  -11.4390 N   0  0  0  0  0  0  0  0  0  0  0  0
   22.9628  -19.3445  -15.0400 C   0  0  0  0  0  0  0  0  0  0  0  0
   23.4301  -18.4995  -14.2643 O   0  0  0  0  0  0  0  0  0  0  0  0
   22.0613  -18.9415  -16.0351 N   0  0  0  0  0  0  0  0  0  0  0  0
   21.6310  -17.5192  -16.1845 C   0  0  1  0  0  0  0  0  0  0  0  0
   22.1667  -17.0022  -17.4855 C   0  0  0  0  0  0  0  0  0  0  0  0
   21.7397  -15.6832  -17.9011 C   0  0  0  0  0  0  0  0  0  0  0  0
   20.8721  -15.4587  -18.7423 O   0  0  0  0  0  0  0  0  0  0  0  0
   20.1464  -17.4825  -16.1728 C   0  0  0  0  0  0  0  0  0  0  0  0
   19.5058  -18.5249  -16.5491 O   0  0  0  0  0  0  0  0  0  0  0  0
   22.3830  -14.5904  -17.2790 O   0  0  0  0  0  0  0  0  0  0  0  0
   19.4424  -16.3836  -15.7765 O   0  0  0  0  0  0  0  0  0  0  0  0
  2  1  1  6
  2  4  1  0
  3  2  1  0
  4  6  1  0
  5  4  2  0
  6  7  1  0
  7  8  1  1
  7 13  1  0
  8  9  1  0
  9 10  1  0
 10 11  1  0
 11 12  1  0
 13 14  2  0
 15 13  1  0
 15 16  1  0
 16 17  1  6
 18 17  1  0
 19 18  2  0
 20 16  1  0
 20 23  1  0
 21 20  2  0
 22 18  1  0
M  END
$$$$
