AKD.pdb
     RDKit          3D

 23 22  0  0  1  0  0  0  0  0999 V2000
   27.7727  -19.2509  -16.3673 C   0  0  0  0  0  0  0  0  0  0  0  0
   28.1607  -20.4401  -15.5101 C   0  0  2  0  0  0  0  0  0  0  0  0
   28.6326  -21.4931  -16.3850 N   0  0  0  0  0  0  0  0  0  0  0  0
   26.9104  -20.8919  -14.8213 C   0  0  0  0  0  0  0  0  0  0  0  0
   26.0861  -21.6553  -15.3681 O   0  0  0  0  0  0  0  0  0  0  0  0
   26.6249  -20.4511  -13.4945 N   0  0  0  0  0  0  0  0  0  0  0  0
   25.4398  -20.8889  -12.8093 C   0  0  1  0  0  0  0  0  0  0  0  0
   25.5490  -20.6002  -11.3136 C   0  0  0  0  0  0  0  0  0  0  0  0
   24.3423  -21.1244  -10.5740 C   0  0  0  0  0  0  0  0  0  0  0  0
   24.3285  -20.7605   -9.1319 C   0  0  0  0  0  0  0  0  0  0  0  0
   23.1605  -21.3330   -8.3718 C   0  0  0  0  0  0  0  0  0  0  0  0
   23.1143  -20.8272   -7.0186 N   0  0  0  0  0  0  0  0  0  0  0  0
   24.2169  -20.2070  -13.3670 C   0  0  0  0  0  0  0  0  0  0  0  0
   24.1595  -18.9815  -13.5375 O   0  0  0  0  0  0  0  0  0  0  0  0
   23.1109  -21.0010  -13.7009 N   0  0  0  0  0  0  0  0  0  0  0  0
   21.8828  -20.4252  -14.3260 C   0  0  1  0  0  0  0  0  0  0  0  0
   21.6397  -21.1368  -15.6226 C   0  0  0  0  0  0  0  0  0  0  0  0
   20.4869  -20.7290  -16.3968 C   0  0  0  0  0  0  0  0  0  0  0  0
   19.7560  -19.7799  -16.1212 O   0  0  0  0  0  0  0  0  0  0  0  0
   20.7484  -20.6313  -13.3899 C   0  0  0  0  0  0  0  0  0  0  0  0
   20.6720  -21.7409  -12.7563 O   0  0  0  0  0  0  0  0  0  0  0  0
   20.2021  -21.4946  -17.5492 O   0  0  0  0  0  0  0  0  0  0  0  0
   19.7888  -19.6850  -13.1800 O   0  0  0  0  0  0  0  0  0  0  0  0
  2  1  1  6
  2  4  1  0
  3  2  1  0
  4  6  1  0
  5  4  2  0
  6  7  1  0
  7  8  1  1
  7 13  1  0
  8  9  1  0
  9 10  1  0
 10 11  1  0
 11 12  1  0
 13 14  2  0
 15 13  1  0
 15 16  1  0
 16 17  1  6
 18 17  1  0
 19 18  2  0
 20 16  1  0
 20 23  1  0
 21 20  2  0
 22 18  1  0
M  END
$$$$
