AKD.pdb
     RDKit          3D

 23 22  0  0  1  0  0  0  0  0999 V2000
   13.5950  -12.9362  -12.5189 C   0  0  0  0  0  0  0  0  0  0  0  0
   14.8965  -12.4535  -11.9086 C   0  0  2  0  0  0  0  0  0  0  0  0
   15.1563  -13.2378  -10.7193 N   0  0  0  0  0  0  0  0  0  0  0  0
   14.6781  -11.0238  -11.5209 C   0  0  0  0  0  0  0  0  0  0  0  0
   14.2766  -10.1655  -12.3354 O   0  0  0  0  0  0  0  0  0  0  0  0
   14.9291  -10.5988  -10.1820 N   0  0  0  0  0  0  0  0  0  0  0  0
   14.7205   -9.2322   -9.7891 C   0  0  1  0  0  0  0  0  0  0  0  0
   14.2628   -9.1577   -8.3340 C   0  0  0  0  0  0  0  0  0  0  0  0
   12.9204   -8.4765   -8.2255 C   0  0  0  0  0  0  0  0  0  0  0  0
   11.7725   -9.4214   -8.2678 C   0  0  0  0  0  0  0  0  0  0  0  0
   10.4374   -8.7671   -8.0246 C   0  0  0  0  0  0  0  0  0  0  0  0
    9.3612   -9.7302   -8.0812 N   0  0  0  0  0  0  0  0  0  0  0  0
   15.9828   -8.4272   -9.9629 C   0  0  0  0  0  0  0  0  0  0  0  0
   17.0395   -8.7158   -9.3848 O   0  0  0  0  0  0  0  0  0  0  0  0
   15.9454   -7.3133  -10.8132 N   0  0  0  0  0  0  0  0  0  0  0  0
   17.1273   -6.4193  -10.9992 C   0  0  1  0  0  0  0  0  0  0  0  0
   17.1708   -5.9935  -12.4358 C   0  0  0  0  0  0  0  0  0  0  0  0
   18.1351   -4.9765  -12.7969 C   0  0  0  0  0  0  0  0  0  0  0  0
   17.9395   -4.0839  -13.6191 O   0  0  0  0  0  0  0  0  0  0  0  0
   16.9629   -5.2449  -10.1052 C   0  0  0  0  0  0  0  0  0  0  0  0
   15.7810   -4.8069   -9.8818 O   0  0  0  0  0  0  0  0  0  0  0  0
   19.3852   -5.0363  -12.1422 O   0  0  0  0  0  0  0  0  0  0  0  0
   18.0206   -4.6184   -9.5144 O   0  0  0  0  0  0  0  0  0  0  0  0
  2  1  1  1
  2  4  1  0
  3  2  1  0
  4  6  1  0
  5  4  2  0
  6  7  1  0
  7  8  1  1
  7 13  1  0
  8  9  1  0
  9 10  1  0
 10 11  1  0
 11 12  1  0
 13 14  2  0
 15 13  1  0
 15 16  1  0
 16 17  1  6
 18 17  1  0
 19 18  2  0
 20 16  1  0
 20 23  1  0
 21 20  2  0
 22 18  1  0
M  END
$$$$
