AKD.pdb
     RDKit          3D

 23 22  0  0  1  0  0  0  0  0999 V2000
   13.7954   -8.7833  -13.6268 C   0  0  0  0  0  0  0  0  0  0  0  0
   14.3681  -10.0214  -14.2891 C   0  0  2  0  0  0  0  0  0  0  0  0
   13.8998  -11.1816  -13.5600 N   0  0  0  0  0  0  0  0  0  0  0  0
   15.8564   -9.9219  -14.1582 C   0  0  0  0  0  0  0  0  0  0  0  0
   16.4447  -10.1112  -13.0722 O   0  0  0  0  0  0  0  0  0  0  0  0
   16.6552   -9.6013  -15.2963 N   0  0  0  0  0  0  0  0  0  0  0  0
   18.0876   -9.5357  -15.1989 C   0  0  1  0  0  0  0  0  0  0  0  0
   18.7375  -10.2250  -16.3967 C   0  0  0  0  0  0  0  0  0  0  0  0
   19.0483  -11.6685  -16.0846 C   0  0  0  0  0  0  0  0  0  0  0  0
   19.7120  -12.3863  -17.2056 C   0  0  0  0  0  0  0  0  0  0  0  0
   19.8671  -13.8666  -16.9723 C   0  0  0  0  0  0  0  0  0  0  0  0
   20.5359  -14.5071  -18.0821 N   0  0  0  0  0  0  0  0  0  0  0  0
   18.5536   -8.1041  -15.1264 C   0  0  0  0  0  0  0  0  0  0  0  0
   17.9749   -7.1862  -15.7237 O   0  0  0  0  0  0  0  0  0  0  0  0
   19.6849   -7.8150  -14.3508 N   0  0  0  0  0  0  0  0  0  0  0  0
   20.2481   -6.4351  -14.2558 C   0  0  1  0  0  0  0  0  0  0  0  0
   21.1208   -6.3682  -13.0389 C   0  0  0  0  0  0  0  0  0  0  0  0
   21.7906   -5.1134  -12.7715 C   0  0  0  0  0  0  0  0  0  0  0  0
   21.5327   -4.0475  -13.3267 O   0  0  0  0  0  0  0  0  0  0  0  0
   21.0371   -6.1728  -15.4864 C   0  0  0  0  0  0  0  0  0  0  0  0
   21.2452   -4.9582  -15.8323 O   0  0  0  0  0  0  0  0  0  0  0  0
   22.8122   -5.1427  -11.7964 O   0  0  0  0  0  0  0  0  0  0  0  0
   21.5473   -7.1748  -16.2586 O   0  0  0  0  0  0  0  0  0  0  0  0
  2  1  1  1
  2  4  1  0
  3  2  1  0
  4  6  1  0
  5  4  2  0
  6  7  1  0
  7  8  1  6
  7 13  1  0
  8  9  1  0
  9 10  1  0
 10 11  1  0
 11 12  1  0
 13 14  2  0
 15 13  1  0
 15 16  1  0
 16 17  1  1
 18 17  1  0
 19 18  2  0
 20 16  1  0
 20 23  1  0
 21 20  2  0
 22 18  1  0
M  END
$$$$
