AKD.pdb
     RDKit          3D

 23 22  0  0  1  0  0  0  0  0999 V2000
   19.8282  -13.2973  -15.8155 C   0  0  0  0  0  0  0  0  0  0  0  0
   19.7469  -12.1619  -16.8173 C   0  0  2  0  0  0  0  0  0  0  0  0
   19.9604  -12.7104  -18.1404 N   0  0  0  0  0  0  0  0  0  0  0  0
   20.8643  -11.2224  -16.4845 C   0  0  0  0  0  0  0  0  0  0  0  0
   20.9738  -10.6874  -15.3607 O   0  0  0  0  0  0  0  0  0  0  0  0
   21.8523  -10.9093  -17.4653 N   0  0  0  0  0  0  0  0  0  0  0  0
   22.9545  -10.0413  -17.1531 C   0  0  1  0  0  0  0  0  0  0  0  0
   24.1814  -10.4149  -17.9822 C   0  0  0  0  0  0  0  0  0  0  0  0
   24.6265  -11.8252  -17.6809 C   0  0  0  0  0  0  0  0  0  0  0  0
   26.0808  -11.9368  -17.3893 C   0  0  0  0  0  0  0  0  0  0  0  0
   26.5366  -13.3435  -17.1008 C   0  0  0  0  0  0  0  0  0  0  0  0
   27.9076  -13.3692  -16.6440 N   0  0  0  0  0  0  0  0  0  0  0  0
   22.5908   -8.6015  -17.4106 C   0  0  0  0  0  0  0  0  0  0  0  0
   22.1426   -8.2139  -18.4983 O   0  0  0  0  0  0  0  0  0  0  0  0
   22.7714   -7.6775  -16.3719 N   0  0  0  0  0  0  0  0  0  0  0  0
   22.3690   -6.2456  -16.5072 C   0  0  1  0  0  0  0  0  0  0  0  0
   21.7052   -5.8231  -15.2314 C   0  0  0  0  0  0  0  0  0  0  0  0
   21.3013   -4.4377  -15.1213 C   0  0  0  0  0  0  0  0  0  0  0  0
   20.8889   -3.7504  -16.0532 O   0  0  0  0  0  0  0  0  0  0  0  0
   23.5939   -5.4435  -16.7559 C   0  0  0  0  0  0  0  0  0  0  0  0
   24.6942   -5.8270  -16.2259 O   0  0  0  0  0  0  0  0  0  0  0  0
   21.3976   -3.8560  -13.8378 O   0  0  0  0  0  0  0  0  0  0  0  0
   23.5904   -4.3178  -17.5261 O   0  0  0  0  0  0  0  0  0  0  0  0
  2  1  1  1
  2  4  1  0
  3  2  1  0
  4  6  1  0
  5  4  2  0
  6  7  1  0
  7  8  1  6
  7 13  1  0
  8  9  1  0
  9 10  1  0
 10 11  1  0
 11 12  1  0
 13 14  2  0
 15 13  1  0
 15 16  1  0
 16 17  1  1
 18 17  1  0
 19 18  2  0
 20 16  1  0
 20 23  1  0
 21 20  2  0
 22 18  1  0
M  END
$$$$
