AKD.pdb
     RDKit          3D

 23 22  0  0  1  0  0  0  0  0999 V2000
   22.7398  -11.5985  -17.2337 C   0  0  0  0  0  0  0  0  0  0  0  0
   22.7145  -10.9292  -15.8732 C   0  0  2  0  0  0  0  0  0  0  0  0
   22.1322  -11.8554  -14.9246 N   0  0  0  0  0  0  0  0  0  0  0  0
   21.8249   -9.7322  -16.0063 C   0  0  0  0  0  0  0  0  0  0  0  0
   22.0849   -8.7911  -16.7861 O   0  0  0  0  0  0  0  0  0  0  0  0
   20.6327   -9.6363  -15.2280 N   0  0  0  0  0  0  0  0  0  0  0  0
   19.7487   -8.5115  -15.3658 C   0  0  1  0  0  0  0  0  0  0  0  0
   18.3343   -8.8857  -14.9280 C   0  0  0  0  0  0  0  0  0  0  0  0
   17.5979   -9.5983  -16.0360 C   0  0  0  0  0  0  0  0  0  0  0  0
   16.2099   -9.9872  -15.6690 C   0  0  0  0  0  0  0  0  0  0  0  0
   15.4533  -10.6627  -16.7829 C   0  0  0  0  0  0  0  0  0  0  0  0
   14.1843  -11.1774  -16.3206 N   0  0  0  0  0  0  0  0  0  0  0  0
   20.2378   -7.3437  -14.5481 C   0  0  0  0  0  0  0  0  0  0  0  0
   20.7897   -7.4875  -13.4486 O   0  0  0  0  0  0  0  0  0  0  0  0
   20.0549   -6.0526  -15.0628 N   0  0  0  0  0  0  0  0  0  0  0  0
   20.4849   -4.8338  -14.3145 C   0  0  1  0  0  0  0  0  0  0  0  0
   21.6242   -4.2051  -15.0585 C   0  0  0  0  0  0  0  0  0  0  0  0
   22.1193   -2.9377  -14.5653 C   0  0  0  0  0  0  0  0  0  0  0  0
   21.7319   -2.3842  -13.5385 O   0  0  0  0  0  0  0  0  0  0  0  0
   19.3274   -3.9062  -14.2394 C   0  0  0  0  0  0  0  0  0  0  0  0
   18.3568   -4.0717  -15.0572 O   0  0  0  0  0  0  0  0  0  0  0  0
   23.1212   -2.3113  -15.3393 O   0  0  0  0  0  0  0  0  0  0  0  0
   19.2600   -2.8885  -13.3337 O   0  0  0  0  0  0  0  0  0  0  0  0
  2  1  1  6
  2  4  1  0
  3  2  1  0
  4  6  1  0
  5  4  2  0
  6  7  1  0
  7  8  1  1
  7 13  1  0
  8  9  1  0
  9 10  1  0
 10 11  1  0
 11 12  1  0
 13 14  2  0
 15 13  1  0
 15 16  1  0
 16 17  1  6
 18 17  1  0
 19 18  2  0
 20 16  1  0
 20 23  1  0
 21 20  2  0
 22 18  1  0
M  END
$$$$
