AKD.pdb
     RDKit          3D

 23 22  0  0  1  0  0  0  0  0999 V2000
   22.9854  -14.0137  -20.1045 C   0  0  0  0  0  0  0  0  0  0  0  0
   23.4998  -13.3176  -18.8593 C   0  0  2  0  0  0  0  0  0  0  0  0
   23.5914  -14.2988  -17.7983 N   0  0  0  0  0  0  0  0  0  0  0  0
   22.4748  -12.2887  -18.4951 C   0  0  0  0  0  0  0  0  0  0  0  0
   22.1740  -11.3470  -19.2593 O   0  0  0  0  0  0  0  0  0  0  0  0
   21.8028  -12.3613  -17.2384 N   0  0  0  0  0  0  0  0  0  0  0  0
   20.7346  -11.4547  -16.9182 C   0  0  1  0  0  0  0  0  0  0  0  0
   19.6244  -12.1814  -16.1621 C   0  0  0  0  0  0  0  0  0  0  0  0
   18.7360  -12.9460  -17.1128 C   0  0  0  0  0  0  0  0  0  0  0  0
   17.6115  -13.6469  -16.4371 C   0  0  0  0  0  0  0  0  0  0  0  0
   16.6929  -14.3752  -17.3834 C   0  0  0  0  0  0  0  0  0  0  0  0
   15.6405  -15.0629  -16.6705 N   0  0  0  0  0  0  0  0  0  0  0  0
   21.2412  -10.3037  -16.0873 C   0  0  0  0  0  0  0  0  0  0  0  0
   22.0186  -10.4626  -15.1362 O   0  0  0  0  0  0  0  0  0  0  0  0
   20.8086   -9.0109  -16.4141 N   0  0  0  0  0  0  0  0  0  0  0  0
   21.3179   -7.8017  -15.7007 C   0  0  1  0  0  0  0  0  0  0  0  0
   20.9808   -6.5955  -16.5243 C   0  0  0  0  0  0  0  0  0  0  0  0
   21.2572   -5.2984  -15.9447 C   0  0  0  0  0  0  0  0  0  0  0  0
   22.2481   -5.0279  -15.2696 O   0  0  0  0  0  0  0  0  0  0  0  0
   20.6558   -7.7362  -14.3729 C   0  0  0  0  0  0  0  0  0  0  0  0
   19.4173   -8.0491  -14.2909 O   0  0  0  0  0  0  0  0  0  0  0  0
   20.3024   -4.2862  -16.1875 O   0  0  0  0  0  0  0  0  0  0  0  0
   21.3163   -7.3572  -13.2413 O   0  0  0  0  0  0  0  0  0  0  0  0
  2  1  1  6
  2  4  1  0
  3  2  1  0
  4  6  1  0
  5  4  2  0
  6  7  1  0
  7  8  1  1
  7 13  1  0
  8  9  1  0
  9 10  1  0
 10 11  1  0
 11 12  1  0
 13 14  2  0
 15 13  1  0
 15 16  1  0
 16 17  1  6
 18 17  1  0
 19 18  2  0
 20 16  1  0
 20 23  1  0
 21 20  2  0
 22 18  1  0
M  END
$$$$
