AKD.pdb
     RDKit          3D

 23 22  0  0  1  0  0  0  0  0999 V2000
   13.8415  -13.5269  -14.5929 C   0  0  0  0  0  0  0  0  0  0  0  0
   14.1132  -12.1196  -15.0881 C   0  0  2  0  0  0  0  0  0  0  0  0
   13.8694  -12.0877  -16.5151 N   0  0  0  0  0  0  0  0  0  0  0  0
   15.5630  -11.8512  -14.8273 C   0  0  0  0  0  0  0  0  0  0  0  0
   16.0488  -11.8717  -13.6762 O   0  0  0  0  0  0  0  0  0  0  0  0
   16.4433  -11.5592  -15.9117 N   0  0  0  0  0  0  0  0  0  0  0  0
   17.8565  -11.4103  -15.6968 C   0  0  1  0  0  0  0  0  0  0  0  0
   18.6398  -12.3292  -16.6319 C   0  0  0  0  0  0  0  0  0  0  0  0
   18.7370  -13.7229  -16.0612 C   0  0  0  0  0  0  0  0  0  0  0  0
   19.5592  -14.6452  -16.8894 C   0  0  0  0  0  0  0  0  0  0  0  0
   19.6351  -16.0475  -16.3440 C   0  0  0  0  0  0  0  0  0  0  0  0
   20.4907  -16.8824  -17.1562 N   0  0  0  0  0  0  0  0  0  0  0  0
   18.2835   -9.9819  -15.9186 C   0  0  0  0  0  0  0  0  0  0  0  0
   19.4473   -9.6743  -16.2106 O   0  0  0  0  0  0  0  0  0  0  0  0
   17.3178   -8.9744  -15.7863 N   0  0  0  0  0  0  0  0  0  0  0  0
   17.6742   -7.5249  -15.8347 C   0  0  1  0  0  0  0  0  0  0  0  0
   16.6330   -6.8134  -16.6449 C   0  0  0  0  0  0  0  0  0  0  0  0
   16.5520   -7.1384  -18.0529 C   0  0  0  0  0  0  0  0  0  0  0  0
   17.5091   -7.1641  -18.8237 O   0  0  0  0  0  0  0  0  0  0  0  0
   17.7024   -7.0099  -14.4419 C   0  0  0  0  0  0  0  0  0  0  0  0
   17.9953   -5.7786  -14.2509 O   0  0  0  0  0  0  0  0  0  0  0  0
   15.2671   -7.4447  -18.5534 O   0  0  0  0  0  0  0  0  0  0  0  0
   17.4277   -7.7972  -13.3625 O   0  0  0  0  0  0  0  0  0  0  0  0
  2  1  1  6
  2  4  1  0
  3  2  1  0
  4  6  1  0
  5  4  2  0
  6  7  1  0
  7  8  1  6
  7 13  1  0
  8  9  1  0
  9 10  1  0
 10 11  1  0
 11 12  1  0
 13 14  2  0
 15 13  1  0
 15 16  1  0
 16 17  1  6
 18 17  1  0
 19 18  2  0
 20 16  1  0
 20 23  1  0
 21 20  2  0
 22 18  1  0
M  END
$$$$
