AKD.pdb
     RDKit          3D

 23 22  0  0  1  0  0  0  0  0999 V2000
   27.7551  -22.8295  -17.4143 C   0  0  0  0  0  0  0  0  0  0  0  0
   27.0899  -21.5014  -17.1089 C   0  0  2  0  0  0  0  0  0  0  0  0
   28.1110  -20.5762  -16.6638 N   0  0  0  0  0  0  0  0  0  0  0  0
   26.1300  -21.7561  -15.9882 C   0  0  0  0  0  0  0  0  0  0  0  0
   25.1555  -22.5291  -16.1072 O   0  0  0  0  0  0  0  0  0  0  0  0
   26.3100  -21.1072  -14.7302 N   0  0  0  0  0  0  0  0  0  0  0  0
   25.3242  -21.2236  -13.6909 C   0  0  1  0  0  0  0  0  0  0  0  0
   25.9204  -20.8297  -12.3412 C   0  0  0  0  0  0  0  0  0  0  0  0
   24.9216  -21.0386  -11.2292 C   0  0  0  0  0  0  0  0  0  0  0  0
   25.4656  -20.7293   -9.8798 C   0  0  0  0  0  0  0  0  0  0  0  0
   24.4956  -20.9945   -8.7580 C   0  0  0  0  0  0  0  0  0  0  0  0
   25.0394  -20.5828   -7.4837 N   0  0  0  0  0  0  0  0  0  0  0  0
   24.1291  -20.3544  -13.9877 C   0  0  0  0  0  0  0  0  0  0  0  0
   24.2313  -19.1429  -14.2244 O   0  0  0  0  0  0  0  0  0  0  0  0
   22.8611  -20.9522  -13.9929 N   0  0  0  0  0  0  0  0  0  0  0  0
   21.6249  -20.1834  -14.3265 C   0  0  1  0  0  0  0  0  0  0  0  0
   21.3412  -20.3637  -15.7873 C   0  0  0  0  0  0  0  0  0  0  0  0
   20.1385  -19.7514  -16.3097 C   0  0  0  0  0  0  0  0  0  0  0  0
   19.3641  -19.0555  -15.6563 O   0  0  0  0  0  0  0  0  0  0  0  0
   20.5116  -20.7195  -13.5024 C   0  0  0  0  0  0  0  0  0  0  0  0
   19.6001  -19.9127  -13.1067 O   0  0  0  0  0  0  0  0  0  0  0  0
   19.8563  -19.9861  -17.6737 O   0  0  0  0  0  0  0  0  0  0  0  0
   20.4242  -22.0352  -13.1536 O   0  0  0  0  0  0  0  0  0  0  0  0
  2  1  1  1
  2  4  1  0
  3  2  1  0
  4  6  1  0
  5  4  2  0
  6  7  1  0
  7  8  1  1
  7 13  1  0
  8  9  1  0
  9 10  1  0
 10 11  1  0
 11 12  1  0
 13 14  2  0
 15 13  1  0
 15 16  1  0
 16 17  1  6
 18 17  1  0
 19 18  2  0
 20 16  1  0
 20 23  1  0
 21 20  2  0
 22 18  1  0
M  END
$$$$
