AKD.pdb
     RDKit          3D

 23 22  0  0  1  0  0  0  0  0999 V2000
   23.1777  -20.2940  -20.4694 C   0  0  0  0  0  0  0  0  0  0  0  0
   23.6129  -19.2337  -19.4764 C   0  0  2  0  0  0  0  0  0  0  0  0
   24.5878  -19.8241  -18.5831 N   0  0  0  0  0  0  0  0  0  0  0  0
   22.3915  -18.8565  -18.6967 C   0  0  0  0  0  0  0  0  0  0  0  0
   21.2768  -18.6978  -19.2385 O   0  0  0  0  0  0  0  0  0  0  0  0
   22.4742  -18.6653  -17.2851 N   0  0  0  0  0  0  0  0  0  0  0  0
   21.3334  -18.2226  -16.5312 C   0  0  1  0  0  0  0  0  0  0  0  0
   21.4659  -18.6367  -15.0672 C   0  0  0  0  0  0  0  0  0  0  0  0
   21.1357  -20.0984  -14.8885 C   0  0  0  0  0  0  0  0  0  0  0  0
   21.4199  -20.6059  -13.5195 C   0  0  0  0  0  0  0  0  0  0  0  0
   20.9472  -22.0169  -13.2841 C   0  0  0  0  0  0  0  0  0  0  0  0
   21.4104  -22.5216  -12.0114 N   0  0  0  0  0  0  0  0  0  0  0  0
   21.1817  -16.7257  -16.6205 C   0  0  0  0  0  0  0  0  0  0  0  0
   22.1289  -15.9497  -16.4340 O   0  0  0  0  0  0  0  0  0  0  0  0
   19.9162  -16.2060  -16.9269 N   0  0  0  0  0  0  0  0  0  0  0  0
   19.6516  -14.7366  -16.9640 C   0  0  1  0  0  0  0  0  0  0  0  0
   19.4371  -14.3353  -18.3922 C   0  0  0  0  0  0  0  0  0  0  0  0
   19.0896  -12.9538  -18.6477 C   0  0  0  0  0  0  0  0  0  0  0  0
   18.9631  -12.0901  -17.7824 O   0  0  0  0  0  0  0  0  0  0  0  0
   18.4384  -14.4656  -16.1515 C   0  0  0  0  0  0  0  0  0  0  0  0
   17.5793  -15.4029  -16.0035 O   0  0  0  0  0  0  0  0  0  0  0  0
   18.8862  -12.5976  -19.9994 O   0  0  0  0  0  0  0  0  0  0  0  0
   18.2067  -13.2594  -15.5582 O   0  0  0  0  0  0  0  0  0  0  0  0
  2  1  1  6
  2  4  1  0
  3  2  1  0
  4  6  1  0
  5  4  2  0
  6  7  1  0
  7  8  1  1
  7 13  1  0
  8  9  1  0
  9 10  1  0
 10 11  1  0
 11 12  1  0
 13 14  2  0
 15 13  1  0
 15 16  1  0
 16 17  1  6
 18 17  1  0
 19 18  2  0
 20 16  1  0
 20 23  1  0
 21 20  2  0
 22 18  1  0
M  END
$$$$
