AKD.pdb
     RDKit          3D

 23 22  0  0  1  0  0  0  0  0999 V2000
   16.1097  -12.7071  -12.0602 C   0  0  0  0  0  0  0  0  0  0  0  0
   15.0976  -12.1660  -11.0691 C   0  0  2  0  0  0  0  0  0  0  0  0
   13.7803  -12.5994  -11.4861 N   0  0  0  0  0  0  0  0  0  0  0  0
   15.1775  -10.6732  -11.1541 C   0  0  0  0  0  0  0  0  0  0  0  0
   14.9451  -10.0518  -12.2129 O   0  0  0  0  0  0  0  0  0  0  0  0
   15.5290   -9.9085  -10.0018 N   0  0  0  0  0  0  0  0  0  0  0  0
   15.5327   -8.4718  -10.0413 C   0  0  1  0  0  0  0  0  0  0  0  0
   15.0579   -7.8986   -8.7077 C   0  0  0  0  0  0  0  0  0  0  0  0
   13.5597   -8.0193   -8.5719 C   0  0  0  0  0  0  0  0  0  0  0  0
   13.0125   -7.2966   -7.3927 C   0  0  0  0  0  0  0  0  0  0  0  0
   11.5117   -7.3647   -7.2808 C   0  0  0  0  0  0  0  0  0  0  0  0
   11.0272   -6.5435   -6.1945 N   0  0  0  0  0  0  0  0  0  0  0  0
   16.9115   -7.9490  -10.3530 C   0  0  0  0  0  0  0  0  0  0  0  0
   17.8833   -8.1561   -9.6135 O   0  0  0  0  0  0  0  0  0  0  0  0
   17.0864   -7.2023  -11.5265 N   0  0  0  0  0  0  0  0  0  0  0  0
   18.3959   -6.5769  -11.8792 C   0  0  1  0  0  0  0  0  0  0  0  0
   19.3310   -7.6635  -12.3172 C   0  0  0  0  0  0  0  0  0  0  0  0
   20.5978   -7.2582  -12.8875 C   0  0  0  0  0  0  0  0  0  0  0  0
   20.9962   -6.0975  -12.9596 O   0  0  0  0  0  0  0  0  0  0  0  0
   18.1626   -5.6062  -12.9787 C   0  0  0  0  0  0  0  0  0  0  0  0
   18.8933   -4.5566  -13.0333 O   0  0  0  0  0  0  0  0  0  0  0  0
   21.4184   -8.2915  -13.3916 O   0  0  0  0  0  0  0  0  0  0  0  0
   17.2026   -5.7912  -13.9297 O   0  0  0  0  0  0  0  0  0  0  0  0
  2  1  1  6
  2  4  1  0
  3  2  1  0
  4  6  1  0
  5  4  2  0
  6  7  1  0
  7  8  1  1
  7 13  1  0
  8  9  1  0
  9 10  1  0
 10 11  1  0
 11 12  1  0
 13 14  2  0
 15 13  1  0
 15 16  1  0
 16 17  1  6
 18 17  1  0
 19 18  2  0
 20 16  1  0
 20 23  1  0
 21 20  2  0
 22 18  1  0
M  END
$$$$
