AKD.pdb
     RDKit          3D

 23 22  0  0  1  0  0  0  0  0999 V2000
   14.9092  -13.1103  -15.4128 C   0  0  0  0  0  0  0  0  0  0  0  0
   15.2106  -12.0967  -16.4997 C   0  0  2  0  0  0  0  0  0  0  0  0
   15.1630  -12.7766  -17.7774 N   0  0  0  0  0  0  0  0  0  0  0  0
   16.6041  -11.6092  -16.2499 C   0  0  0  0  0  0  0  0  0  0  0  0
   16.9553  -11.1269  -15.1520 O   0  0  0  0  0  0  0  0  0  0  0  0
   17.5852  -11.6858  -17.2831 N   0  0  0  0  0  0  0  0  0  0  0  0
   18.9372  -11.2566  -17.0516 C   0  0  1  0  0  0  0  0  0  0  0  0
   19.9000  -11.9992  -17.9757 C   0  0  0  0  0  0  0  0  0  0  0  0
   20.1989  -13.3802  -17.4454 C   0  0  0  0  0  0  0  0  0  0  0  0
   21.0968  -14.1714  -18.3286 C   0  0  0  0  0  0  0  0  0  0  0  0
   21.3630  -15.5680  -17.8304 C   0  0  0  0  0  0  0  0  0  0  0  0
   22.3414  -16.2427  -18.6529 N   0  0  0  0  0  0  0  0  0  0  0  0
   19.0718   -9.7715  -17.2708 C   0  0  0  0  0  0  0  0  0  0  0  0
   18.6376   -9.2077  -18.2845 O   0  0  0  0  0  0  0  0  0  0  0  0
   19.7142   -9.0124  -16.2827 N   0  0  0  0  0  0  0  0  0  0  0  0
   19.9965   -7.5568  -16.4614 C   0  0  1  0  0  0  0  0  0  0  0  0
   18.8227   -6.7846  -15.9391 C   0  0  0  0  0  0  0  0  0  0  0  0
   18.9304   -5.3413  -15.9279 C   0  0  0  0  0  0  0  0  0  0  0  0
   19.8234   -4.7083  -15.3688 O   0  0  0  0  0  0  0  0  0  0  0  0
   21.2269   -7.2281  -15.6973 C   0  0  0  0  0  0  0  0  0  0  0  0
   21.6991   -8.1039  -14.8921 O   0  0  0  0  0  0  0  0  0  0  0  0
   17.9224   -4.6314  -16.6173 O   0  0  0  0  0  0  0  0  0  0  0  0
   21.8708   -6.0321  -15.8220 O   0  0  0  0  0  0  0  0  0  0  0  0
  2  1  1  1
  2  4  1  0
  3  2  1  0
  4  6  1  0
  5  4  2  0
  6  7  1  0
  7  8  1  6
  7 13  1  0
  8  9  1  0
  9 10  1  0
 10 11  1  0
 11 12  1  0
 13 14  2  0
 15 13  1  0
 15 16  1  0
 16 17  1  1
 18 17  1  0
 19 18  2  0
 20 16  1  0
 20 23  1  0
 21 20  2  0
 22 18  1  0
M  END
$$$$
