AKD.pdb
     RDKit          3D

 23 22  0  0  1  0  0  0  0  0999 V2000
   18.6467  -10.2820  -13.6495 C   0  0  0  0  0  0  0  0  0  0  0  0
   17.3695  -11.0228  -13.3037 C   0  0  2  0  0  0  0  0  0  0  0  0
   16.7340  -11.4293  -14.5398 N   0  0  0  0  0  0  0  0  0  0  0  0
   16.4892  -10.0413  -12.5938 C   0  0  0  0  0  0  0  0  0  0  0  0
   15.9802   -9.0595  -13.1754 O   0  0  0  0  0  0  0  0  0  0  0  0
   16.2051  -10.2083  -11.2055 N   0  0  0  0  0  0  0  0  0  0  0  0
   15.1846   -9.4281  -10.5610 C   0  0  1  0  0  0  0  0  0  0  0  0
   14.3435  -10.3060   -9.6368 C   0  0  0  0  0  0  0  0  0  0  0  0
   13.1451  -10.8629  -10.3658 C   0  0  0  0  0  0  0  0  0  0  0  0
   12.3701  -11.8473   -9.5641 C   0  0  0  0  0  0  0  0  0  0  0  0
   11.2237  -12.4742  -10.3142 C   0  0  0  0  0  0  0  0  0  0  0  0
   10.6009  -13.5249   -9.5415 N   0  0  0  0  0  0  0  0  0  0  0  0
   15.7942   -8.3002   -9.7687 C   0  0  0  0  0  0  0  0  0  0  0  0
   16.6975   -8.4822   -8.9410 O   0  0  0  0  0  0  0  0  0  0  0  0
   15.3117   -7.0021   -9.9866 N   0  0  0  0  0  0  0  0  0  0  0  0
   15.8681   -5.8191   -9.2647 C   0  0  1  0  0  0  0  0  0  0  0  0
   16.1129   -4.7315  -10.2667 C   0  0  0  0  0  0  0  0  0  0  0  0
   16.4489   -3.4206   -9.7537 C   0  0  0  0  0  0  0  0  0  0  0  0
   15.8637   -2.3804  -10.0476 O   0  0  0  0  0  0  0  0  0  0  0  0
   14.8732   -5.3878   -8.2498 C   0  0  0  0  0  0  0  0  0  0  0  0
   13.6802   -5.8446   -8.3303 O   0  0  0  0  0  0  0  0  0  0  0  0
   17.5332   -3.3592   -8.8505 O   0  0  0  0  0  0  0  0  0  0  0  0
   15.1826   -4.5269   -7.2382 O   0  0  0  0  0  0  0  0  0  0  0  0
  2  1  1  6
  2  4  1  0
  3  2  1  0
  4  6  1  0
  5  4  2  0
  6  7  1  0
  7  8  1  1
  7 13  1  0
  8  9  1  0
  9 10  1  0
 10 11  1  0
 11 12  1  0
 13 14  2  0
 15 13  1  0
 15 16  1  0
 16 17  1  6
 18 17  1  0
 19 18  2  0
 20 16  1  0
 20 23  1  0
 21 20  2  0
 22 18  1  0
M  END
$$$$
