WDV.pdb
     RDKit          3D

 30 31  0  0  1  0  0  0  0  0999 V2000
    6.7081  -17.3003   23.9091 N   0  0  0  0  0  0  0  0  0  0  0  0
    7.8190  -16.3676   24.0923 C   0  0  1  0  0  0  0  0  0  0  0  0
    7.7037  -15.7326   25.4395 C   0  0  0  0  0  0  0  0  0  0  0  0
    6.7040  -14.6783   25.5978 C   0  0  0  0  0  0  0  0  0  0  0  0
    5.4020  -14.7938   26.0960 C   0  0  0  0  0  0  0  0  0  0  0  0
    4.7948  -13.6052   26.0614 N   0  0  0  0  0  0  0  0  0  0  0  0
    5.6470  -12.7053   25.5589 C   0  0  0  0  0  0  0  0  0  0  0  0
    5.5119  -11.3247   25.3278 C   0  0  0  0  0  0  0  0  0  0  0  0
    6.5423  -10.5746   24.8094 C   0  0  0  0  0  0  0  0  0  0  0  0
    7.7248  -11.2176   24.5182 C   0  0  0  0  0  0  0  0  0  0  0  0
    7.8505  -12.5660   24.7458 C   0  0  0  0  0  0  0  0  0  0  0  0
    6.8345  -13.3416   25.2642 C   0  0  0  0  0  0  0  0  0  0  0  0
    9.1113  -17.0024   23.7910 C   0  0  0  0  0  0  0  0  0  0  0  0
    9.3326  -18.2327   23.9078 O   0  0  0  0  0  0  0  0  0  0  0  0
   10.2435  -16.2289   23.3291 N   0  0  0  0  0  0  0  0  0  0  0  0
   11.5947  -16.6739   23.4722 C   0  0  1  0  0  0  0  0  0  0  0  0
   12.5533  -15.9307   22.5688 C   0  0  0  0  0  0  0  0  0  0  0  0
   13.9270  -16.4481   22.6340 C   0  0  0  0  0  0  0  0  0  0  0  0
   14.8445  -15.6586   22.9942 O   0  0  0  0  0  0  0  0  0  0  0  0
   12.0501  -16.6687   24.8893 C   0  0  0  0  0  0  0  0  0  0  0  0
   13.2126  -17.0196   25.2071 O   0  0  0  0  0  0  0  0  0  0  0  0
   14.2884  -17.7359   22.3298 O   0  0  0  0  0  0  0  0  0  0  0  0
   10.8097  -13.9549   27.6368 C   0  0  0  0  0  0  0  0  0  0  0  0
   10.8841  -15.3686   28.2147 C   0  0  1  0  0  0  0  0  0  0  0  0
    9.5308  -15.8806   28.5955 C   0  0  0  0  0  0  0  0  0  0  0  0
   11.6413  -16.2506   27.2818 C   0  0  2  0  0  0  0  0  0  0  0  0
   11.1534  -16.2562   25.9316 N   0  0  0  0  0  0  0  0  0  0  0  0
   11.6741  -17.6488   27.8263 C   0  0  0  0  0  0  0  0  0  0  0  0
   11.0891  -18.7194   27.1889 O   0  0  0  0  0  0  0  0  0  0  0  0
   12.2591  -17.8954   28.9235 O   0  0  0  0  0  0  0  0  0  0  0  0
  2 13  1  0
  2  3  1  0
  2  1  1  1
  3  4  1  0
  4  5  2  0
  4 12  1  0
  5  6  1  0
  6  7  1  0
  7  8  2  0
  9  8  1  0
 10  9  2  0
 11 12  2  0
 11 10  1  0
 12  7  1  0
 13 14  2  0
 15 16  1  0
 15 13  1  0
 16 20  1  0
 17 18  1  0
 16 17  1  6
 18 22  1  0
 19 18  2  0
 20 21  2  0
 24 23  1  6
 24 26  1  0
 25 24  1  0
 26 28  1  0
 27 20  1  0
 26 27  1  6
 28 30  2  0
 28 29  1  0
M  END
$$$$
