WDV.pdb
     RDKit          3D

 30 31  0  0  1  0  0  0  0  0999 V2000
    6.5727  -17.2407   24.7369 N   0  0  0  0  0  0  0  0  0  0  0  0
    7.7337  -16.4489   24.3333 C   0  0  1  0  0  0  0  0  0  0  0  0
    7.9351  -15.3441   25.3185 C   0  0  0  0  0  0  0  0  0  0  0  0
    6.8418  -14.3883   25.4832 C   0  0  0  0  0  0  0  0  0  0  0  0
    5.4895  -14.6587   25.7175 C   0  0  0  0  0  0  0  0  0  0  0  0
    4.8028  -13.5158   25.7878 N   0  0  0  0  0  0  0  0  0  0  0  0
    5.6507  -12.4971   25.6093 C   0  0  0  0  0  0  0  0  0  0  0  0
    5.4449  -11.1059   25.6058 C   0  0  0  0  0  0  0  0  0  0  0  0
    6.4826  -10.2224   25.4166 C   0  0  0  0  0  0  0  0  0  0  0  0
    7.7444  -10.7408   25.2278 C   0  0  0  0  0  0  0  0  0  0  0  0
    7.9389  -12.1002   25.2320 C   0  0  0  0  0  0  0  0  0  0  0  0
    6.9174  -13.0080   25.4192 C   0  0  0  0  0  0  0  0  0  0  0  0
    8.9049  -17.3011   24.0771 C   0  0  0  0  0  0  0  0  0  0  0  0
    9.0847  -18.4244   24.6082 O   0  0  0  0  0  0  0  0  0  0  0  0
    9.9560  -16.8884   23.1724 N   0  0  0  0  0  0  0  0  0  0  0  0
   11.3367  -17.1754   23.4082 C   0  0  1  0  0  0  0  0  0  0  0  0
   12.2275  -16.7387   22.2667 C   0  0  0  0  0  0  0  0  0  0  0  0
   13.5806  -17.3068   22.3401 C   0  0  0  0  0  0  0  0  0  0  0  0
   13.7437  -18.3745   22.9944 O   0  0  0  0  0  0  0  0  0  0  0  0
   11.8134  -16.6497   24.7168 C   0  0  0  0  0  0  0  0  0  0  0  0
   12.7949  -15.8712   24.7939 O   0  0  0  0  0  0  0  0  0  0  0  0
   14.6879  -16.7578   21.7452 O   0  0  0  0  0  0  0  0  0  0  0  0
   10.6443  -14.2885   26.8685 C   0  0  0  0  0  0  0  0  0  0  0  0
   10.8022  -15.4798   27.8140 C   0  0  1  0  0  0  0  0  0  0  0  0
    9.4775  -15.9771   28.3003 C   0  0  0  0  0  0  0  0  0  0  0  0
   11.6569  -16.5180   27.1712 C   0  0  2  0  0  0  0  0  0  0  0  0
   11.1482  -17.0308   25.9304 N   0  0  0  0  0  0  0  0  0  0  0  0
   11.8955  -17.6419   28.1369 C   0  0  0  0  0  0  0  0  0  0  0  0
   12.4996  -17.4677   29.3613 O   0  0  0  0  0  0  0  0  0  0  0  0
   11.5373  -18.8228   27.8466 O   0  0  0  0  0  0  0  0  0  0  0  0
  2 13  1  0
  2  3  1  0
  2  1  1  1
  3  4  1  0
  4  5  2  0
  4 12  1  0
  5  6  1  0
  6  7  1  0
  7  8  2  0
  9  8  1  0
 10  9  2  0
 11 12  2  0
 11 10  1  0
 12  7  1  0
 13 14  2  0
 15 16  1  0
 15 13  1  0
 16 20  1  0
 17 18  1  0
 16 17  1  6
 18 22  1  0
 19 18  2  0
 20 21  2  0
 24 23  1  6
 24 26  1  0
 25 24  1  0
 26 28  1  0
 27 20  1  0
 26 27  1  6
 28 30  2  0
 28 29  1  0
M  END
$$$$
