WDV.pdb
     RDKit          3D

 30 31  0  0  1  0  0  0  0  0999 V2000
    7.8183  -17.7499   21.5939 N   0  0  0  0  0  0  0  0  0  0  0  0
    8.6787  -16.7748   22.2622 C   0  0  1  0  0  0  0  0  0  0  0  0
    7.8682  -15.5692   22.6102 C   0  0  0  0  0  0  0  0  0  0  0  0
    7.2396  -14.8454   21.5070 C   0  0  0  0  0  0  0  0  0  0  0  0
    5.9191  -14.9414   21.0555 C   0  0  0  0  0  0  0  0  0  0  0  0
    5.7363  -14.1321   20.0094 N   0  0  0  0  0  0  0  0  0  0  0  0
    6.8875  -13.5024   19.7509 C   0  0  0  0  0  0  0  0  0  0  0  0
    7.2258  -12.5461   18.7768 C   0  0  0  0  0  0  0  0  0  0  0  0
    8.4898  -12.0078   18.7010 C   0  0  0  0  0  0  0  0  0  0  0  0
    9.4281  -12.4344   19.6144 C   0  0  0  0  0  0  0  0  0  0  0  0
    9.0917  -13.3686   20.5630 C   0  0  0  0  0  0  0  0  0  0  0  0
    7.8332  -13.9244   20.6616 C   0  0  0  0  0  0  0  0  0  0  0  0
    9.4270  -17.3864   23.3710 C   0  0  0  0  0  0  0  0  0  0  0  0
    8.8889  -17.9855   24.3342 O   0  0  0  0  0  0  0  0  0  0  0  0
   10.8719  -17.3349   23.4264 N   0  0  0  0  0  0  0  0  0  0  0  0
   11.6175  -17.7495   24.5739 C   0  0  1  0  0  0  0  0  0  0  0  0
   13.0120  -18.2201   24.2257 C   0  0  0  0  0  0  0  0  0  0  0  0
   13.7409  -18.7683   25.3778 C   0  0  0  0  0  0  0  0  0  0  0  0
   14.6444  -18.0595   25.9032 O   0  0  0  0  0  0  0  0  0  0  0  0
   11.6313  -16.7191   25.6481 C   0  0  0  0  0  0  0  0  0  0  0  0
   12.4118  -15.7370   25.6066 O   0  0  0  0  0  0  0  0  0  0  0  0
   13.5099  -20.0032   25.9283 O   0  0  0  0  0  0  0  0  0  0  0  0
    9.6854  -14.0694   26.8997 C   0  0  0  0  0  0  0  0  0  0  0  0
    9.8299  -14.9837   28.1169 C   0  0  1  0  0  0  0  0  0  0  0  0
    8.5238  -15.6071   28.4964 C   0  0  0  0  0  0  0  0  0  0  0  0
   10.9365  -15.9546   27.8839 C   0  0  2  0  0  0  0  0  0  0  0  0
   10.7386  -16.8340   26.7664 N   0  0  0  0  0  0  0  0  0  0  0  0
   11.1785  -16.7510   29.1329 C   0  0  0  0  0  0  0  0  0  0  0  0
   11.6333  -16.1929   30.3060 O   0  0  0  0  0  0  0  0  0  0  0  0
   10.9652  -18.0005   29.1472 O   0  0  0  0  0  0  0  0  0  0  0  0
  2 13  1  0
  2  3  1  0
  2  1  1  1
  3  4  1  0
  4  5  2  0
  4 12  1  0
  5  6  1  0
  6  7  1  0
  7  8  2  0
  9  8  1  0
 10  9  2  0
 11 12  2  0
 11 10  1  0
 12  7  1  0
 13 14  2  0
 15 16  1  0
 15 13  1  0
 16 20  1  0
 17 18  1  0
 16 17  1  6
 18 22  1  0
 19 18  2  0
 20 21  2  0
 24 23  1  6
 24 26  1  0
 25 24  1  0
 26 28  1  0
 27 20  1  0
 26 27  1  6
 28 30  2  0
 28 29  1  0
M  END
$$$$
