WDV.pdb
     RDKit          3D

 30 31  0  0  1  0  0  0  0  0999 V2000
    6.9792  -18.3177   24.5407 N   0  0  0  0  0  0  0  0  0  0  0  0
    7.7513  -17.6955   23.4663 C   0  0  1  0  0  0  0  0  0  0  0  0
    7.1271  -16.3845   23.1153 C   0  0  0  0  0  0  0  0  0  0  0  0
    6.7707  -15.4970   24.2204 C   0  0  0  0  0  0  0  0  0  0  0  0
    6.1954  -15.8393   25.4487 C   0  0  0  0  0  0  0  0  0  0  0  0
    6.0037  -14.7408   26.1829 N   0  0  0  0  0  0  0  0  0  0  0  0
    6.4314  -13.6821   25.4864 C   0  0  0  0  0  0  0  0  0  0  0  0
    6.4687  -12.3130   25.8052 C   0  0  0  0  0  0  0  0  0  0  0  0
    6.9765  -11.3808   24.9297 C   0  0  0  0  0  0  0  0  0  0  0  0
    7.4533  -11.8275   23.7174 C   0  0  0  0  0  0  0  0  0  0  0  0
    7.4138  -13.1657   23.4118 C   0  0  0  0  0  0  0  0  0  0  0  0
    6.9106  -14.1211   24.2701 C   0  0  0  0  0  0  0  0  0  0  0  0
    9.1866  -17.6573   23.7861 C   0  0  0  0  0  0  0  0  0  0  0  0
    9.8138  -18.6096   24.3116 O   0  0  0  0  0  0  0  0  0  0  0  0
    9.9912  -16.4869   23.5098 N   0  0  0  0  0  0  0  0  0  0  0  0
   11.4062  -16.4554   23.7124 C   0  0  1  0  0  0  0  0  0  0  0  0
   12.1040  -15.4645   22.8077 C   0  0  0  0  0  0  0  0  0  0  0  0
   12.2663  -15.9538   21.4317 C   0  0  0  0  0  0  0  0  0  0  0  0
   11.8263  -15.2378   20.4890 O   0  0  0  0  0  0  0  0  0  0  0  0
   11.7737  -16.2570   25.1412 C   0  0  0  0  0  0  0  0  0  0  0  0
   12.9696  -16.2821   25.5216 O   0  0  0  0  0  0  0  0  0  0  0  0
   12.8655  -17.1405   21.0938 O   0  0  0  0  0  0  0  0  0  0  0  0
   10.6092  -13.4920   27.5165 C   0  0  0  0  0  0  0  0  0  0  0  0
   10.4418  -14.8239   28.2487 C   0  0  1  0  0  0  0  0  0  0  0  0
    9.0042  -15.1119   28.5474 C   0  0  0  0  0  0  0  0  0  0  0  0
   11.1469  -15.8999   27.4961 C   0  0  2  0  0  0  0  0  0  0  0  0
   10.7506  -16.0306   26.1224 N   0  0  0  0  0  0  0  0  0  0  0  0
   10.9763  -17.2087   28.2109 C   0  0  0  0  0  0  0  0  0  0  0  0
   11.3950  -17.4205   29.5049 O   0  0  0  0  0  0  0  0  0  0  0  0
   10.4248  -18.1898   27.6278 O   0  0  0  0  0  0  0  0  0  0  0  0
  2 13  1  0
  2  3  1  0
  2  1  1  1
  3  4  1  0
  4  5  2  0
  4 12  1  0
  5  6  1  0
  6  7  1  0
  7  8  2  0
  9  8  1  0
 10  9  2  0
 11 12  2  0
 11 10  1  0
 12  7  1  0
 13 14  2  0
 15 16  1  0
 15 13  1  0
 16 20  1  0
 17 18  1  0
 16 17  1  6
 18 22  1  0
 19 18  2  0
 20 21  2  0
 24 23  1  6
 24 26  1  0
 25 24  1  0
 26 28  1  0
 27 20  1  0
 26 27  1  6
 28 30  2  0
 28 29  1  0
M  END
$$$$
