WDV.pdb
     RDKit          3D

 30 31  0  0  1  0  0  0  0  0999 V2000
    7.3366  -17.3745   23.8680 N   0  0  0  0  0  0  0  0  0  0  0  0
    7.8255  -16.5693   22.7499 C   0  0  1  0  0  0  0  0  0  0  0  0
    7.2684  -15.1880   22.8653 C   0  0  0  0  0  0  0  0  0  0  0  0
    6.7642  -14.7781   24.1744 C   0  0  0  0  0  0  0  0  0  0  0  0
    6.1173  -15.5651   25.1330 C   0  0  0  0  0  0  0  0  0  0  0  0
    5.7920  -14.8177   26.1905 N   0  0  0  0  0  0  0  0  0  0  0  0
    6.2001  -13.5636   25.9683 C   0  0  0  0  0  0  0  0  0  0  0  0
    6.1172  -12.4048   26.7608 C   0  0  0  0  0  0  0  0  0  0  0  0
    6.6281  -11.2003   26.3350 C   0  0  0  0  0  0  0  0  0  0  0  0
    7.2302  -11.1566   25.0973 C   0  0  0  0  0  0  0  0  0  0  0  0
    7.3077  -12.2915   24.3280 C   0  0  0  0  0  0  0  0  0  0  0  0
    6.8044  -13.5113   24.7299 C   0  0  0  0  0  0  0  0  0  0  0  0
    9.2874  -16.6622   22.6171 C   0  0  0  0  0  0  0  0  0  0  0  0
    9.9339  -16.2043   21.6431 O   0  0  0  0  0  0  0  0  0  0  0  0
   10.0983  -17.3064   23.6276 N   0  0  0  0  0  0  0  0  0  0  0  0
   11.4975  -17.0516   23.7752 C   0  0  1  0  0  0  0  0  0  0  0  0
   12.0510  -16.1753   22.6739 C   0  0  0  0  0  0  0  0  0  0  0  0
   13.4670  -16.4389   22.3828 C   0  0  0  0  0  0  0  0  0  0  0  0
   14.0416  -17.3696   23.0139 O   0  0  0  0  0  0  0  0  0  0  0  0
   11.8431  -16.5305   25.1260 C   0  0  0  0  0  0  0  0  0  0  0  0
   13.0104  -16.1677   25.4114 O   0  0  0  0  0  0  0  0  0  0  0  0
   14.2158  -15.7424   21.4686 O   0  0  0  0  0  0  0  0  0  0  0  0
   10.3528  -13.7595   26.7472 C   0  0  0  0  0  0  0  0  0  0  0  0
   10.4934  -14.7476   27.9056 C   0  0  1  0  0  0  0  0  0  0  0  0
    9.1759  -15.0211   28.5600 C   0  0  0  0  0  0  0  0  0  0  0  0
   11.2192  -15.9634   27.4401 C   0  0  2  0  0  0  0  0  0  0  0  0
   10.8317  -16.4332   26.1400 N   0  0  0  0  0  0  0  0  0  0  0  0
   11.0662  -17.0598   28.4536 C   0  0  0  0  0  0  0  0  0  0  0  0
   11.4551  -16.9306   29.7677 O   0  0  0  0  0  0  0  0  0  0  0  0
   10.5588  -18.1729   28.1214 O   0  0  0  0  0  0  0  0  0  0  0  0
  2 13  1  0
  2  3  1  0
  2  1  1  1
  3  4  1  0
  4  5  2  0
  4 12  1  0
  5  6  1  0
  6  7  1  0
  7  8  2  0
  9  8  1  0
 10  9  2  0
 11 12  2  0
 11 10  1  0
 12  7  1  0
 13 14  2  0
 15 16  1  0
 15 13  1  0
 16 20  1  0
 17 18  1  0
 16 17  1  6
 18 22  1  0
 19 18  2  0
 20 21  2  0
 24 23  1  6
 24 26  1  0
 25 24  1  0
 26 28  1  0
 27 20  1  0
 26 27  1  6
 28 30  2  0
 28 29  1  0
M  END
$$$$
