WDV.pdb
     RDKit          3D

 30 31  0  0  1  0  0  0  0  0999 V2000
    9.3776  -16.3767   20.9539 N   0  0  0  0  0  0  0  0  0  0  0  0
    9.0777  -15.6704   22.1985 C   0  0  1  0  0  0  0  0  0  0  0  0
    7.6633  -15.1915   22.1570 C   0  0  0  0  0  0  0  0  0  0  0  0
    7.4282  -13.7772   22.4412 C   0  0  0  0  0  0  0  0  0  0  0  0
    7.6307  -12.6833   21.5933 C   0  0  0  0  0  0  0  0  0  0  0  0
    7.3185  -11.5514   22.2290 N   0  0  0  0  0  0  0  0  0  0  0  0
    6.9156  -11.8550   23.4676 C   0  0  0  0  0  0  0  0  0  0  0  0
    6.4682  -11.0429   24.5250 C   0  0  0  0  0  0  0  0  0  0  0  0
    6.0790  -11.5772   25.7317 C   0  0  0  0  0  0  0  0  0  0  0  0
    6.1395  -12.9450   25.8807 C   0  0  0  0  0  0  0  0  0  0  0  0
    6.5775  -13.7326   24.8447 C   0  0  0  0  0  0  0  0  0  0  0  0
    6.9734  -13.2238   23.6252 C   0  0  0  0  0  0  0  0  0  0  0  0
    9.4497  -16.4703   23.3755 C   0  0  0  0  0  0  0  0  0  0  0  0
    8.7330  -16.5864   24.3997 O   0  0  0  0  0  0  0  0  0  0  0  0
   10.7011  -17.1945   23.4319 N   0  0  0  0  0  0  0  0  0  0  0  0
   11.1417  -17.8878   24.6022 C   0  0  1  0  0  0  0  0  0  0  0  0
   12.2336  -18.8925   24.3096 C   0  0  0  0  0  0  0  0  0  0  0  0
   11.9529  -19.7237   23.1308 C   0  0  0  0  0  0  0  0  0  0  0  0
   10.9945  -20.5436   23.1947 O   0  0  0  0  0  0  0  0  0  0  0  0
   11.5196  -16.9625   25.7052 C   0  0  0  0  0  0  0  0  0  0  0  0
   12.5402  -16.2355   25.6323 O   0  0  0  0  0  0  0  0  0  0  0  0
   12.6612  -19.6736   21.9573 O   0  0  0  0  0  0  0  0  0  0  0  0
   10.8809  -13.9211   27.1747 C   0  0  0  0  0  0  0  0  0  0  0  0
   10.6154  -14.8883   28.3289 C   0  0  1  0  0  0  0  0  0  0  0  0
    9.1592  -14.9583   28.6657 C   0  0  0  0  0  0  0  0  0  0  0  0
   11.2478  -16.2051   28.0330 C   0  0  2  0  0  0  0  0  0  0  0  0
   10.7107  -16.8857   26.8886 N   0  0  0  0  0  0  0  0  0  0  0  0
   11.1660  -17.0864   29.2451 C   0  0  0  0  0  0  0  0  0  0  0  0
   10.5097  -18.2963   29.2539 O   0  0  0  0  0  0  0  0  0  0  0  0
   11.7152  -16.7337   30.3318 O   0  0  0  0  0  0  0  0  0  0  0  0
  2 13  1  0
  2  3  1  0
  2  1  1  6
  3  4  1  0
  4  5  2  0
  4 12  1  0
  5  6  1  0
  6  7  1  0
  7  8  2  0
  9  8  1  0
 10  9  2  0
 11 12  2  0
 11 10  1  0
 12  7  1  0
 13 14  2  0
 15 16  1  0
 15 13  1  0
 16 20  1  0
 17 18  1  0
 16 17  1  6
 18 22  1  0
 19 18  2  0
 20 21  2  0
 24 23  1  6
 24 26  1  0
 25 24  1  0
 26 28  1  0
 27 20  1  0
 26 27  1  6
 28 30  2  0
 28 29  1  0
M  END
$$$$
