WDV.pdb
     RDKit          3D

 30 31  0  0  1  0  0  0  0  0999 V2000
    6.5249  -17.0882   24.6130 N   0  0  0  0  0  0  0  0  0  0  0  0
    7.8015  -16.5921   24.1013 C   0  0  1  0  0  0  0  0  0  0  0  0
    8.1550  -15.3297   24.8177 C   0  0  0  0  0  0  0  0  0  0  0  0
    7.0530  -14.5420   25.3666 C   0  0  0  0  0  0  0  0  0  0  0  0
    5.8722  -15.0064   25.9555 C   0  0  0  0  0  0  0  0  0  0  0  0
    5.1057  -13.9734   26.3131 N   0  0  0  0  0  0  0  0  0  0  0  0
    5.7354  -12.8405   25.9833 C   0  0  0  0  0  0  0  0  0  0  0  0
    5.3734  -11.4923   26.1530 C   0  0  0  0  0  0  0  0  0  0  0  0
    6.1961  -10.4667   25.7475 C   0  0  0  0  0  0  0  0  0  0  0  0
    7.3986  -10.7972   25.1633 C   0  0  0  0  0  0  0  0  0  0  0  0
    7.7463  -12.1156   25.0000 C   0  0  0  0  0  0  0  0  0  0  0  0
    6.9412  -13.1630   25.3970 C   0  0  0  0  0  0  0  0  0  0  0  0
    8.8305  -17.6432   24.1086 C   0  0  0  0  0  0  0  0  0  0  0  0
    8.7112  -18.7374   24.7125 O   0  0  0  0  0  0  0  0  0  0  0  0
   10.0824  -17.4796   23.4019 N   0  0  0  0  0  0  0  0  0  0  0  0
   11.3284  -17.9585   23.9142 C   0  0  1  0  0  0  0  0  0  0  0  0
   12.4011  -18.0483   22.8519 C   0  0  0  0  0  0  0  0  0  0  0  0
   12.4812  -16.8472   22.0092 C   0  0  0  0  0  0  0  0  0  0  0  0
   13.3495  -15.9758   22.2949 O   0  0  0  0  0  0  0  0  0  0  0  0
   11.7884  -17.1919   25.1044 C   0  0  0  0  0  0  0  0  0  0  0  0
   12.9995  -16.9109   25.2771 O   0  0  0  0  0  0  0  0  0  0  0  0
   11.6756  -16.6016   20.9265 O   0  0  0  0  0  0  0  0  0  0  0  0
   11.0269  -13.9036   26.5927 C   0  0  0  0  0  0  0  0  0  0  0  0
   10.7900  -14.9086   27.7206 C   0  0  1  0  0  0  0  0  0  0  0  0
    9.3560  -14.9311   28.1469 C   0  0  0  0  0  0  0  0  0  0  0  0
   11.3424  -16.2369   27.3303 C   0  0  2  0  0  0  0  0  0  0  0  0
   10.8399  -16.7552   26.0893 N   0  0  0  0  0  0  0  0  0  0  0  0
   11.1080  -17.2240   28.4364 C   0  0  0  0  0  0  0  0  0  0  0  0
   11.6688  -17.1008   29.6874 O   0  0  0  0  0  0  0  0  0  0  0  0
   10.3639  -18.2327   28.2477 O   0  0  0  0  0  0  0  0  0  0  0  0
  2 13  1  0
  2  3  1  0
  2  1  1  1
  3  4  1  0
  4  5  2  0
  4 12  1  0
  5  6  1  0
  6  7  1  0
  7  8  2  0
  9  8  1  0
 10  9  2  0
 11 12  2  0
 11 10  1  0
 12  7  1  0
 13 14  2  0
 15 16  1  0
 15 13  1  0
 16 20  1  0
 17 18  1  0
 16 17  1  6
 18 22  1  0
 19 18  2  0
 20 21  2  0
 24 23  1  6
 24 26  1  0
 25 24  1  0
 26 28  1  0
 27 20  1  0
 26 27  1  6
 28 30  2  0
 28 29  1  0
M  END
$$$$
