WDV.pdb
     RDKit          3D

 30 31  0  0  1  0  0  0  0  0999 V2000
    6.7275  -17.9635   24.3008 N   0  0  0  0  0  0  0  0  0  0  0  0
    7.6126  -17.2376   23.3913 C   0  0  1  0  0  0  0  0  0  0  0  0
    7.1540  -15.8190   23.2957 C   0  0  0  0  0  0  0  0  0  0  0  0
    6.6670  -15.1902   24.5218 C   0  0  0  0  0  0  0  0  0  0  0  0
    5.9121  -15.7709   25.5463 C   0  0  0  0  0  0  0  0  0  0  0  0
    5.6471  -14.8616   26.4873 N   0  0  0  0  0  0  0  0  0  0  0  0
    6.1994  -13.6988   26.1245 C   0  0  0  0  0  0  0  0  0  0  0  0
    6.2282  -12.4448   26.7603 C   0  0  0  0  0  0  0  0  0  0  0  0
    6.8820  -11.3685   26.2060 C   0  0  0  0  0  0  0  0  0  0  0  0
    7.5156  -11.5517   24.9970 C   0  0  0  0  0  0  0  0  0  0  0  0
    7.4836  -12.7786   24.3810 C   0  0  0  0  0  0  0  0  0  0  0  0
    6.8361  -13.8738   24.9139 C   0  0  0  0  0  0  0  0  0  0  0  0
    9.0269  -17.4319   23.7457 C   0  0  0  0  0  0  0  0  0  0  0  0
    9.4502  -18.3843   24.4456 O   0  0  0  0  0  0  0  0  0  0  0  0
   10.0507  -16.5119   23.2996 N   0  0  0  0  0  0  0  0  0  0  0  0
   11.4357  -16.6861   23.6093 C   0  0  1  0  0  0  0  0  0  0  0  0
   12.3427  -15.8896   22.6983 C   0  0  0  0  0  0  0  0  0  0  0  0
   12.5712  -16.5384   21.3998 C   0  0  0  0  0  0  0  0  0  0  0  0
   11.6089  -16.5938   20.5840 O   0  0  0  0  0  0  0  0  0  0  0  0
   11.7347  -16.4373   25.0462 C   0  0  0  0  0  0  0  0  0  0  0  0
   12.8654  -16.6807   25.5337 O   0  0  0  0  0  0  0  0  0  0  0  0
   13.7626  -17.0927   21.0063 O   0  0  0  0  0  0  0  0  0  0  0  0
   10.4073  -13.2536   27.0441 C   0  0  0  0  0  0  0  0  0  0  0  0
   10.2891  -14.5159   27.8991 C   0  0  1  0  0  0  0  0  0  0  0  0
    8.8607  -14.8528   28.1903 C   0  0  0  0  0  0  0  0  0  0  0  0
   11.0716  -15.6189   27.2725 C   0  0  2  0  0  0  0  0  0  0  0  0
   10.7189  -15.9072   25.9110 N   0  0  0  0  0  0  0  0  0  0  0  0
   10.9547  -16.8582   28.1111 C   0  0  0  0  0  0  0  0  0  0  0  0
   11.4357  -16.9453   29.3978 O   0  0  0  0  0  0  0  0  0  0  0  0
   10.3924  -17.8950   27.6467 O   0  0  0  0  0  0  0  0  0  0  0  0
  2 13  1  0
  2  3  1  0
  2  1  1  1
  3  4  1  0
  4  5  2  0
  4 12  1  0
  5  6  1  0
  6  7  1  0
  7  8  2  0
  9  8  1  0
 10  9  2  0
 11 12  2  0
 11 10  1  0
 12  7  1  0
 13 14  2  0
 15 16  1  0
 15 13  1  0
 16 20  1  0
 17 18  1  0
 16 17  1  6
 18 22  1  0
 19 18  2  0
 20 21  2  0
 24 23  1  6
 24 26  1  0
 25 24  1  0
 26 28  1  0
 27 20  1  0
 26 27  1  6
 28 30  2  0
 28 29  1  0
M  END
$$$$
