WDV.pdb
     RDKit          3D

 30 31  0  0  1  0  0  0  0  0999 V2000
    8.2469  -17.8751   21.6327 N   0  0  0  0  0  0  0  0  0  0  0  0
    8.8162  -16.7537   22.3783 C   0  0  1  0  0  0  0  0  0  0  0  0
    7.7208  -15.8052   22.7416 C   0  0  0  0  0  0  0  0  0  0  0  0
    7.0327  -15.1274   21.6447 C   0  0  0  0  0  0  0  0  0  0  0  0
    5.8414  -15.5009   21.0139 C   0  0  0  0  0  0  0  0  0  0  0  0
    5.5505  -14.6335   20.0415 N   0  0  0  0  0  0  0  0  0  0  0  0
    6.5054  -13.6978   20.0048 C   0  0  0  0  0  0  0  0  0  0  0  0
    6.6654  -12.5643   19.1879 C   0  0  0  0  0  0  0  0  0  0  0  0
    7.7348  -11.7115   19.3369 C   0  0  0  0  0  0  0  0  0  0  0  0
    8.6570  -11.9991   20.3184 C   0  0  0  0  0  0  0  0  0  0  0  0
    8.4953  -13.1075   21.1127 C   0  0  0  0  0  0  0  0  0  0  0  0
    7.4336  -13.9788   20.9851 C   0  0  0  0  0  0  0  0  0  0  0  0
    9.6579  -17.2182   23.4916 C   0  0  0  0  0  0  0  0  0  0  0  0
    9.2160  -17.8180   24.5022 O   0  0  0  0  0  0  0  0  0  0  0  0
   11.0893  -17.0071   23.4956 N   0  0  0  0  0  0  0  0  0  0  0  0
   11.9092  -17.2852   24.6335 C   0  0  1  0  0  0  0  0  0  0  0  0
   13.3688  -17.4530   24.2748 C   0  0  0  0  0  0  0  0  0  0  0  0
   13.5975  -18.4834   23.2524 C   0  0  0  0  0  0  0  0  0  0  0  0
   13.9783  -18.1119   22.1071 O   0  0  0  0  0  0  0  0  0  0  0  0
   11.7171  -16.2973   25.7304 C   0  0  0  0  0  0  0  0  0  0  0  0
   12.3730  -15.2280   25.7739 O   0  0  0  0  0  0  0  0  0  0  0  0
   13.4260  -19.8294   23.4528 O   0  0  0  0  0  0  0  0  0  0  0  0
    9.5967  -13.7840   26.9799 C   0  0  0  0  0  0  0  0  0  0  0  0
    9.6056  -14.8295   28.0957 C   0  0  1  0  0  0  0  0  0  0  0  0
    8.2966  -15.5482   28.1883 C   0  0  0  0  0  0  0  0  0  0  0  0
   10.7917  -15.7183   27.9382 C   0  0  2  0  0  0  0  0  0  0  0  0
   10.7641  -16.5557   26.7723 N   0  0  0  0  0  0  0  0  0  0  0  0
   10.9611  -16.5550   29.1727 C   0  0  0  0  0  0  0  0  0  0  0  0
   10.9187  -17.9307   29.1621 O   0  0  0  0  0  0  0  0  0  0  0  0
   11.1543  -16.0044   30.2980 O   0  0  0  0  0  0  0  0  0  0  0  0
  2 13  1  0
  2  3  1  0
  2  1  1  1
  3  4  1  0
  4  5  2  0
  4 12  1  0
  5  6  1  0
  6  7  1  0
  7  8  2  0
  9  8  1  0
 10  9  2  0
 11 12  2  0
 11 10  1  0
 12  7  1  0
 13 14  2  0
 15 16  1  0
 15 13  1  0
 16 20  1  0
 17 18  1  0
 16 17  1  6
 18 22  1  0
 19 18  2  0
 20 21  2  0
 24 23  1  6
 24 26  1  0
 25 24  1  0
 26 28  1  0
 27 20  1  0
 26 27  1  6
 28 30  2  0
 28 29  1  0
M  END
$$$$
