WDV.pdb
     RDKit          3D

 30 31  0  0  1  0  0  0  0  0999 V2000
    6.6366  -17.3793   24.3637 N   0  0  0  0  0  0  0  0  0  0  0  0
    7.7863  -16.4812   24.2668 C   0  0  1  0  0  0  0  0  0  0  0  0
    7.8730  -15.6659   25.5156 C   0  0  0  0  0  0  0  0  0  0  0  0
    6.7862  -14.7238   25.7752 C   0  0  0  0  0  0  0  0  0  0  0  0
    5.4974  -15.0031   26.2417 C   0  0  0  0  0  0  0  0  0  0  0  0
    4.7908  -13.8737   26.3290 N   0  0  0  0  0  0  0  0  0  0  0  0
    5.5643  -12.8552   25.9377 C   0  0  0  0  0  0  0  0  0  0  0  0
    5.3120  -11.4741   25.8563 C   0  0  0  0  0  0  0  0  0  0  0  0
    6.2759  -10.5871   25.4352 C   0  0  0  0  0  0  0  0  0  0  0  0
    7.5100  -11.0918   25.0905 C   0  0  0  0  0  0  0  0  0  0  0  0
    7.7501  -12.4414   25.1718 C   0  0  0  0  0  0  0  0  0  0  0  0
    6.8027  -13.3524   25.5903 C   0  0  0  0  0  0  0  0  0  0  0  0
    9.0081  -17.2082   23.8895 C   0  0  0  0  0  0  0  0  0  0  0  0
    9.2195  -18.4149   24.1644 O   0  0  0  0  0  0  0  0  0  0  0  0
   10.0762  -16.5620   23.1580 N   0  0  0  0  0  0  0  0  0  0  0  0
   11.4563  -16.8686   23.3718 C   0  0  1  0  0  0  0  0  0  0  0  0
   12.3680  -16.1804   22.3806 C   0  0  0  0  0  0  0  0  0  0  0  0
   13.7686  -16.6115   22.4883 C   0  0  0  0  0  0  0  0  0  0  0  0
   13.9999  -17.8040   22.8337 O   0  0  0  0  0  0  0  0  0  0  0  0
   11.8828  -16.6289   24.7777 C   0  0  0  0  0  0  0  0  0  0  0  0
   13.0654  -16.3185   25.0616 O   0  0  0  0  0  0  0  0  0  0  0  0
   14.8513  -15.8071   22.2393 O   0  0  0  0  0  0  0  0  0  0  0  0
   11.0190  -15.1887   29.2853 C   0  0  0  0  0  0  0  0  0  0  0  0
   10.6320  -15.2901   27.8095 C   0  0  1  0  0  0  0  0  0  0  0  0
   10.7865  -13.9778   27.1076 C   0  0  0  0  0  0  0  0  0  0  0  0
   11.3665  -16.4224   27.1770 C   0  0  2  0  0  0  0  0  0  0  0  0
   10.9341  -16.7511   25.8480 N   0  0  0  0  0  0  0  0  0  0  0  0
   11.2851  -17.6319   28.0619 C   0  0  0  0  0  0  0  0  0  0  0  0
   11.9112  -17.7140   29.2850 O   0  0  0  0  0  0  0  0  0  0  0  0
   10.6172  -18.6466   27.6999 O   0  0  0  0  0  0  0  0  0  0  0  0
  2 13  1  0
  2  3  1  0
  2  1  1  1
  3  4  1  0
  4  5  2  0
  4 12  1  0
  5  6  1  0
  6  7  1  0
  7  8  2  0
  9  8  1  0
 10  9  2  0
 11 12  2  0
 11 10  1  0
 12  7  1  0
 13 14  2  0
 15 16  1  0
 15 13  1  0
 16 20  1  0
 17 18  1  0
 16 17  1  6
 18 22  1  0
 19 18  2  0
 20 21  2  0
 24 23  1  1
 24 26  1  0
 25 24  1  0
 26 28  1  0
 27 20  1  0
 26 27  1  6
 28 30  2  0
 28 29  1  0
M  END
$$$$
