WDV.pdb
     RDKit          3D

 30 31  0  0  1  0  0  0  0  0999 V2000
    6.6717  -17.1277   24.1931 N   0  0  0  0  0  0  0  0  0  0  0  0
    7.9453  -16.4102   24.1603 C   0  0  1  0  0  0  0  0  0  0  0  0
    8.0559  -15.5600   25.3836 C   0  0  0  0  0  0  0  0  0  0  0  0
    6.9666  -14.6216   25.6459 C   0  0  0  0  0  0  0  0  0  0  0  0
    5.6385  -14.9137   25.9736 C   0  0  0  0  0  0  0  0  0  0  0  0
    4.9455  -13.7813   26.1154 N   0  0  0  0  0  0  0  0  0  0  0  0
    5.7660  -12.7486   25.8942 C   0  0  0  0  0  0  0  0  0  0  0  0
    5.5442  -11.3604   25.9318 C   0  0  0  0  0  0  0  0  0  0  0  0
    6.5548  -10.4602   25.6835 C   0  0  0  0  0  0  0  0  0  0  0  0
    7.8053  -10.9587   25.3931 C   0  0  0  0  0  0  0  0  0  0  0  0
    8.0154  -12.3153   25.3576 C   0  0  0  0  0  0  0  0  0  0  0  0
    7.0212  -13.2395   25.6023 C   0  0  0  0  0  0  0  0  0  0  0  0
    9.0716  -17.3222   23.9091 C   0  0  0  0  0  0  0  0  0  0  0  0
    9.1152  -18.5106   24.3117 O   0  0  0  0  0  0  0  0  0  0  0  0
   10.2357  -16.8972   23.1622 N   0  0  0  0  0  0  0  0  0  0  0  0
   11.5723  -17.1590   23.5974 C   0  0  1  0  0  0  0  0  0  0  0  0
   12.6059  -16.8186   22.5471 C   0  0  0  0  0  0  0  0  0  0  0  0
   12.2527  -17.3109   21.2084 C   0  0  0  0  0  0  0  0  0  0  0  0
   12.2065  -18.5596   21.0259 O   0  0  0  0  0  0  0  0  0  0  0  0
   11.8809  -16.5223   24.9070 C   0  0  0  0  0  0  0  0  0  0  0  0
   12.7074  -15.5823   25.0021 O   0  0  0  0  0  0  0  0  0  0  0  0
   11.9674  -16.5069   20.1343 O   0  0  0  0  0  0  0  0  0  0  0  0
   10.9877  -14.1575   26.9856 C   0  0  0  0  0  0  0  0  0  0  0  0
   10.9137  -15.3583   27.9295 C   0  0  1  0  0  0  0  0  0  0  0  0
    9.4991  -15.6998   28.2773 C   0  0  0  0  0  0  0  0  0  0  0  0
   11.7037  -16.4882   27.3633 C   0  0  2  0  0  0  0  0  0  0  0  0
   11.2286  -16.9801   26.1010 N   0  0  0  0  0  0  0  0  0  0  0  0
   11.7704  -17.6061   28.3626 C   0  0  0  0  0  0  0  0  0  0  0  0
   12.3769  -17.4824   29.5920 O   0  0  0  0  0  0  0  0  0  0  0  0
   11.2546  -18.7334   28.0980 O   0  0  0  0  0  0  0  0  0  0  0  0
  2 13  1  0
  2  3  1  0
  2  1  1  1
  3  4  1  0
  4  5  2  0
  4 12  1  0
  5  6  1  0
  6  7  1  0
  7  8  2  0
  9  8  1  0
 10  9  2  0
 11 12  2  0
 11 10  1  0
 12  7  1  0
 13 14  2  0
 15 16  1  0
 15 13  1  0
 16 20  1  0
 17 18  1  0
 16 17  1  6
 18 22  1  0
 19 18  2  0
 20 21  2  0
 24 23  1  6
 24 26  1  0
 25 24  1  0
 26 28  1  0
 27 20  1  0
 26 27  1  6
 28 30  2  0
 28 29  1  0
M  END
$$$$
