WDV.pdb
     RDKit          3D

 30 31  0  0  1  0  0  0  0  0999 V2000
    6.6030  -17.5981   23.3777 N   0  0  0  0  0  0  0  0  0  0  0  0
    7.7384  -16.7841   22.9467 C   0  0  1  0  0  0  0  0  0  0  0  0
    7.3955  -15.3405   23.1206 C   0  0  0  0  0  0  0  0  0  0  0  0
    6.9573  -14.9130   24.4477 C   0  0  0  0  0  0  0  0  0  0  0  0
    6.3304  -15.6792   25.4359 C   0  0  0  0  0  0  0  0  0  0  0  0
    6.0694  -14.9199   26.5026 N   0  0  0  0  0  0  0  0  0  0  0  0
    6.5009  -13.6778   26.2580 C   0  0  0  0  0  0  0  0  0  0  0  0
    6.4818  -12.5146   27.0481 C   0  0  0  0  0  0  0  0  0  0  0  0
    7.0061  -11.3255   26.5961 C   0  0  0  0  0  0  0  0  0  0  0  0
    7.5570  -11.3021   25.3341 C   0  0  0  0  0  0  0  0  0  0  0  0
    7.5724  -12.4412   24.5674 C   0  0  0  0  0  0  0  0  0  0  0  0
    7.0542  -13.6458   24.9953 C   0  0  0  0  0  0  0  0  0  0  0  0
    8.9903  -17.2266   23.5797 C   0  0  0  0  0  0  0  0  0  0  0  0
    9.0413  -17.9874   24.5771 O   0  0  0  0  0  0  0  0  0  0  0  0
   10.2803  -16.8010   23.0814 N   0  0  0  0  0  0  0  0  0  0  0  0
   11.5069  -17.1053   23.7502 C   0  0  1  0  0  0  0  0  0  0  0  0
   12.7085  -17.0152   22.8363 C   0  0  0  0  0  0  0  0  0  0  0  0
   13.9655  -17.3944   23.4961 C   0  0  0  0  0  0  0  0  0  0  0  0
   13.9488  -18.3760   24.2905 O   0  0  0  0  0  0  0  0  0  0  0  0
   11.6928  -16.3064   24.9924 C   0  0  0  0  0  0  0  0  0  0  0  0
   12.5187  -15.3629   25.0493 O   0  0  0  0  0  0  0  0  0  0  0  0
   15.1649  -16.7552   23.3106 O   0  0  0  0  0  0  0  0  0  0  0  0
   10.3941  -13.7006   26.5498 C   0  0  0  0  0  0  0  0  0  0  0  0
   10.2757  -14.7524   27.6534 C   0  0  1  0  0  0  0  0  0  0  0  0
    8.8532  -15.1582   27.8779 C   0  0  0  0  0  0  0  0  0  0  0  0
   11.2057  -15.8819   27.3690 C   0  0  2  0  0  0  0  0  0  0  0  0
   10.9190  -16.6070   26.1635 N   0  0  0  0  0  0  0  0  0  0  0  0
   11.2340  -16.8180   28.5419 C   0  0  0  0  0  0  0  0  0  0  0  0
   10.8754  -18.1441   28.4562 O   0  0  0  0  0  0  0  0  0  0  0  0
   11.5999  -16.4043   29.6829 O   0  0  0  0  0  0  0  0  0  0  0  0
  2 13  1  0
  2  3  1  0
  2  1  1  1
  3  4  1  0
  4  5  2  0
  4 12  1  0
  5  6  1  0
  6  7  1  0
  7  8  2  0
  9  8  1  0
 10  9  2  0
 11 12  2  0
 11 10  1  0
 12  7  1  0
 13 14  2  0
 15 16  1  0
 15 13  1  0
 16 20  1  0
 17 18  1  0
 16 17  1  6
 18 22  1  0
 19 18  2  0
 20 21  2  0
 24 23  1  6
 24 26  1  0
 25 24  1  0
 26 28  1  0
 27 20  1  0
 26 27  1  6
 28 30  2  0
 28 29  1  0
M  END
$$$$
