WDV.pdb
     RDKit          3D

 30 31  0  0  1  0  0  0  0  0999 V2000
    7.1052  -17.4346   23.2490 N   0  0  0  0  0  0  0  0  0  0  0  0
    8.2106  -16.5520   22.8793 C   0  0  1  0  0  0  0  0  0  0  0  0
    7.7488  -15.1337   22.9617 C   0  0  0  0  0  0  0  0  0  0  0  0
    7.1001  -14.7132   24.2020 C   0  0  0  0  0  0  0  0  0  0  0  0
    6.4874  -15.5172   25.1689 C   0  0  0  0  0  0  0  0  0  0  0  0
    5.9921  -14.7549   26.1467 N   0  0  0  0  0  0  0  0  0  0  0  0
    6.2544  -13.4743   25.8638 C   0  0  0  0  0  0  0  0  0  0  0  0
    5.9670  -12.2896   26.5648 C   0  0  0  0  0  0  0  0  0  0  0  0
    6.3525  -11.0572   26.0896 C   0  0  0  0  0  0  0  0  0  0  0  0
    7.0355  -11.0118   24.8946 C   0  0  0  0  0  0  0  0  0  0  0  0
    7.3129  -12.1721   24.2147 C   0  0  0  0  0  0  0  0  0  0  0  0
    6.9385  -13.4200   24.6677 C   0  0  0  0  0  0  0  0  0  0  0  0
    9.4324  -16.8734   23.6327 C   0  0  0  0  0  0  0  0  0  0  0  0
    9.4424  -17.5127   24.7132 O   0  0  0  0  0  0  0  0  0  0  0  0
   10.7383  -16.4611   23.1656 N   0  0  0  0  0  0  0  0  0  0  0  0
   11.9491  -16.8233   23.8344 C   0  0  1  0  0  0  0  0  0  0  0  0
   13.1760  -16.6140   22.9754 C   0  0  0  0  0  0  0  0  0  0  0  0
   13.0232  -17.1403   21.6120 C   0  0  0  0  0  0  0  0  0  0  0  0
   12.7225  -18.3590   21.4742 O   0  0  0  0  0  0  0  0  0  0  0  0
   12.0841  -16.1685   25.1644 C   0  0  0  0  0  0  0  0  0  0  0  0
   13.0300  -15.3831   25.4170 O   0  0  0  0  0  0  0  0  0  0  0  0
   13.1844  -16.3987   20.4694 O   0  0  0  0  0  0  0  0  0  0  0  0
   10.7157  -13.6742   27.0489 C   0  0  0  0  0  0  0  0  0  0  0  0
   10.5854  -14.8535   28.0136 C   0  0  1  0  0  0  0  0  0  0  0  0
    9.1527  -15.1985   28.2723 C   0  0  0  0  0  0  0  0  0  0  0  0
   11.4196  -15.9898   27.5292 C   0  0  2  0  0  0  0  0  0  0  0  0
   11.1201  -16.4290   26.1956 N   0  0  0  0  0  0  0  0  0  0  0  0
   11.3116  -17.1384   28.4892 C   0  0  0  0  0  0  0  0  0  0  0  0
   11.6872  -17.0537   29.8107 O   0  0  0  0  0  0  0  0  0  0  0  0
   10.8573  -18.2566   28.1016 O   0  0  0  0  0  0  0  0  0  0  0  0
  2 13  1  0
  2  3  1  0
  2  1  1  1
  3  4  1  0
  4  5  2  0
  4 12  1  0
  5  6  1  0
  6  7  1  0
  7  8  2  0
  9  8  1  0
 10  9  2  0
 11 12  2  0
 11 10  1  0
 12  7  1  0
 13 14  2  0
 15 16  1  0
 15 13  1  0
 16 20  1  0
 17 18  1  0
 16 17  1  6
 18 22  1  0
 19 18  2  0
 20 21  2  0
 24 23  1  6
 24 26  1  0
 25 24  1  0
 26 28  1  0
 27 20  1  0
 26 27  1  6
 28 30  2  0
 28 29  1  0
M  END
$$$$
