WDV.pdb
     RDKit          3D

 30 31  0  0  1  0  0  0  0  0999 V2000
    6.9016  -17.8223   23.4846 N   0  0  0  0  0  0  0  0  0  0  0  0
    7.9458  -16.9758   22.9094 C   0  0  1  0  0  0  0  0  0  0  0  0
    7.4250  -15.5817   22.7799 C   0  0  0  0  0  0  0  0  0  0  0  0
    6.9201  -14.9417   23.9930 C   0  0  0  0  0  0  0  0  0  0  0  0
    6.4088  -15.5551   25.1414 C   0  0  0  0  0  0  0  0  0  0  0  0
    6.0311  -14.6265   26.0231 N   0  0  0  0  0  0  0  0  0  0  0  0
    6.2739  -13.4191   25.5015 C   0  0  0  0  0  0  0  0  0  0  0  0
    6.0769  -12.1262   26.0185 C   0  0  0  0  0  0  0  0  0  0  0  0
    6.4206  -11.0020   25.3036 C   0  0  0  0  0  0  0  0  0  0  0  0
    6.9692  -11.1762   24.0525 C   0  0  0  0  0  0  0  0  0  0  0  0
    7.1589  -12.4413   23.5531 C   0  0  0  0  0  0  0  0  0  0  0  0
    6.8236  -13.5848   24.2477 C   0  0  0  0  0  0  0  0  0  0  0  0
    9.2175  -17.1207   23.6341 C   0  0  0  0  0  0  0  0  0  0  0  0
    9.3368  -17.7261   24.7275 O   0  0  0  0  0  0  0  0  0  0  0  0
   10.4478  -16.5581   23.1209 N   0  0  0  0  0  0  0  0  0  0  0  0
   11.7170  -16.7773   23.7417 C   0  0  1  0  0  0  0  0  0  0  0  0
   12.8746  -16.3227   22.8812 C   0  0  0  0  0  0  0  0  0  0  0  0
   12.9870  -17.0714   21.6218 C   0  0  0  0  0  0  0  0  0  0  0  0
   12.6020  -18.2741   21.6075 O   0  0  0  0  0  0  0  0  0  0  0  0
   11.7872  -16.2053   25.1142 C   0  0  0  0  0  0  0  0  0  0  0  0
   12.3670  -15.1158   25.3430 O   0  0  0  0  0  0  0  0  0  0  0  0
   13.4833  -16.5554   20.4519 O   0  0  0  0  0  0  0  0  0  0  0  0
    8.8133  -16.0405   27.6070 C   0  0  0  0  0  0  0  0  0  0  0  0
   10.1610  -15.3569   27.8405 C   0  0  1  0  0  0  0  0  0  0  0  0
   10.2409  -14.7474   29.2047 C   0  0  0  0  0  0  0  0  0  0  0  0
   11.2648  -16.3054   27.5190 C   0  0  2  0  0  0  0  0  0  0  0  0
   11.1840  -16.9012   26.2153 N   0  0  0  0  0  0  0  0  0  0  0  0
   11.3345  -17.3722   28.5724 C   0  0  0  0  0  0  0  0  0  0  0  0
   11.0939  -18.7027   28.3144 O   0  0  0  0  0  0  0  0  0  0  0  0
   11.6258  -17.0725   29.7692 O   0  0  0  0  0  0  0  0  0  0  0  0
  2 13  1  0
  2  3  1  0
  2  1  1  1
  3  4  1  0
  4  5  2  0
  4 12  1  0
  5  6  1  0
  6  7  1  0
  7  8  2  0
  9  8  1  0
 10  9  2  0
 11 12  2  0
 11 10  1  0
 12  7  1  0
 13 14  2  0
 15 16  1  0
 15 13  1  0
 16 20  1  0
 17 18  1  0
 16 17  1  6
 18 22  1  0
 19 18  2  0
 20 21  2  0
 24 23  1  1
 24 26  1  0
 25 24  1  0
 26 28  1  0
 27 20  1  0
 26 27  1  6
 28 30  2  0
 28 29  1  0
M  END
$$$$
