WDV.pdb
     RDKit          3D

 30 31  0  0  1  0  0  0  0  0999 V2000
    6.6421  -17.3013   24.0033 N   0  0  0  0  0  0  0  0  0  0  0  0
    7.7823  -16.3916   24.1038 C   0  0  1  0  0  0  0  0  0  0  0  0
    7.7446  -15.7097   25.4325 C   0  0  0  0  0  0  0  0  0  0  0  0
    6.6809  -14.7316   25.6516 C   0  0  0  0  0  0  0  0  0  0  0  0
    5.3598  -14.9696   26.0448 C   0  0  0  0  0  0  0  0  0  0  0  0
    4.6916  -13.8158   26.1152 N   0  0  0  0  0  0  0  0  0  0  0  0
    5.5217  -12.8211   25.7834 C   0  0  0  0  0  0  0  0  0  0  0  0
    5.3251  -11.4303   25.7136 C   0  0  0  0  0  0  0  0  0  0  0  0
    6.3420  -10.5737   25.3596 C   0  0  0  0  0  0  0  0  0  0  0  0
    7.5732  -11.1190   25.0711 C   0  0  0  0  0  0  0  0  0  0  0  0
    7.7588  -12.4778   25.1407 C   0  0  0  0  0  0  0  0  0  0  0  0
    6.7577  -13.3590   25.4925 C   0  0  0  0  0  0  0  0  0  0  0  0
    9.0437  -17.0686   23.7660 C   0  0  0  0  0  0  0  0  0  0  0  0
    9.2539  -18.2926   23.9497 O   0  0  0  0  0  0  0  0  0  0  0  0
   10.1558  -16.3478   23.1852 N   0  0  0  0  0  0  0  0  0  0  0  0
   11.5171  -16.7413   23.3761 C   0  0  1  0  0  0  0  0  0  0  0  0
   12.4792  -15.9529   22.5159 C   0  0  0  0  0  0  0  0  0  0  0  0
   13.8195  -16.5517   22.4507 C   0  0  0  0  0  0  0  0  0  0  0  0
   14.7368  -15.8982   21.8795 O   0  0  0  0  0  0  0  0  0  0  0  0
   11.9181  -16.7317   24.8096 C   0  0  0  0  0  0  0  0  0  0  0  0
   13.1167  -16.8662   25.1574 O   0  0  0  0  0  0  0  0  0  0  0  0
   14.1494  -17.7781   22.9689 O   0  0  0  0  0  0  0  0  0  0  0  0
   11.1085  -15.1808   29.3439 C   0  0  0  0  0  0  0  0  0  0  0  0
   10.6865  -15.2065   27.8744 C   0  0  1  0  0  0  0  0  0  0  0  0
   10.8665  -13.8703   27.2257 C   0  0  0  0  0  0  0  0  0  0  0  0
   11.3714  -16.3320   27.1775 C   0  0  2  0  0  0  0  0  0  0  0  0
   10.9254  -16.5664   25.8332 N   0  0  0  0  0  0  0  0  0  0  0  0
   11.2377  -17.5849   27.9932 C   0  0  0  0  0  0  0  0  0  0  0  0
   11.8051  -17.7376   29.2379 O   0  0  0  0  0  0  0  0  0  0  0  0
   10.5781  -18.5716   27.5480 O   0  0  0  0  0  0  0  0  0  0  0  0
  2 13  1  0
  2  3  1  0
  2  1  1  1
  3  4  1  0
  4  5  2  0
  4 12  1  0
  5  6  1  0
  6  7  1  0
  7  8  2  0
  9  8  1  0
 10  9  2  0
 11 12  2  0
 11 10  1  0
 12  7  1  0
 13 14  2  0
 15 16  1  0
 15 13  1  0
 16 20  1  0
 17 18  1  0
 16 17  1  6
 18 22  1  0
 19 18  2  0
 20 21  2  0
 24 23  1  1
 24 26  1  0
 25 24  1  0
 26 28  1  0
 27 20  1  0
 26 27  1  6
 28 30  2  0
 28 29  1  0
M  END
$$$$
