SDA.pdb
     RDKit          3D

 20 19  0  0  1  0  0  0  0  0999 V2000
   13.7147  -10.4179   -9.8310 O   0  0  0  0  0  0  0  0  0  0  0  0
   14.9209  -10.3351  -10.4927 C   0  0  0  0  0  0  0  0  0  0  0  0
   15.3648   -8.9085  -10.7376 C   0  0  2  0  0  0  0  0  0  0  0  0
   14.3920   -8.2507  -11.5503 N   0  0  0  0  0  0  0  0  0  0  0  0
   16.6594   -8.9749  -11.4596 C   0  0  0  0  0  0  0  0  0  0  0  0
   17.6551   -9.4382  -10.8408 O   0  0  0  0  0  0  0  0  0  0  0  0
   16.7169   -8.5220  -12.7899 N   0  0  0  0  0  0  0  0  0  0  0  0
   17.9853   -8.6513  -13.5308 C   0  0  1  0  0  0  0  0  0  0  0  0
   17.6041   -8.9968  -14.9158 C   0  0  0  0  0  0  0  0  0  0  0  0
   17.1691  -10.3473  -15.2046 C   0  0  0  0  0  0  0  0  0  0  0  0
   17.6119  -11.4301  -14.8023 O   0  0  0  0  0  0  0  0  0  0  0  0
   18.7740   -7.4087  -13.3864 C   0  0  0  0  0  0  0  0  0  0  0  0
   18.2008   -6.3114  -13.5613 O   0  0  0  0  0  0  0  0  0  0  0  0
   16.0653  -10.4506  -16.0842 O   0  0  0  0  0  0  0  0  0  0  0  0
   22.0886   -6.3723  -12.1337 C   0  0  0  0  0  0  0  0  0  0  0  0
   20.8540   -6.1383  -13.0008 C   0  0  2  0  0  0  0  0  0  0  0  0
   20.1457   -7.3880  -13.0603 N   0  0  0  0  0  0  0  0  0  0  0  0
   21.2190   -5.6081  -14.3202 C   0  0  0  0  0  0  0  0  0  0  0  0
   21.1460   -6.2484  -15.4007 O   0  0  0  0  0  0  0  0  0  0  0  0
   21.6812   -4.3009  -14.3908 O   0  0  0  0  0  0  0  0  0  0  0  0
  2  1  1  0
  3  5  1  0
  3  2  1  0
  3  4  1  6
  5  6  2  0
  7  8  1  0
  7  5  1  0
  9 10  1  0
  8  9  1  6
 10 14  1  0
 11 10  2  0
 12 13  2  0
 12  8  1  0
 16 15  1  1
 16 17  1  0
 16 18  1  0
 17 12  1  0
 18 20  1  0
 19 18  2  0
M  END
$$$$
