SDA.pdb
     RDKit          3D

 20 19  0  0  1  0  0  0  0  0999 V2000
   25.3113  -10.3669  -20.5526 O   0  0  0  0  0  0  0  0  0  0  0  0
   24.2327   -9.7579  -19.9479 C   0  0  0  0  0  0  0  0  0  0  0  0
   23.6421  -10.5815  -18.8231 C   0  0  2  0  0  0  0  0  0  0  0  0
   23.1194  -11.7972  -19.3604 N   0  0  0  0  0  0  0  0  0  0  0  0
   22.5421   -9.7812  -18.2308 C   0  0  0  0  0  0  0  0  0  0  0  0
   21.4561   -9.7120  -18.8670 O   0  0  0  0  0  0  0  0  0  0  0  0
   22.7585   -9.1413  -16.9971 N   0  0  0  0  0  0  0  0  0  0  0  0
   21.6482   -8.3921  -16.3803 C   0  0  1  0  0  0  0  0  0  0  0  0
   21.1592   -9.2424  -15.2754 C   0  0  0  0  0  0  0  0  0  0  0  0
   20.0971   -8.7436  -14.4271 C   0  0  0  0  0  0  0  0  0  0  0  0
   19.0252   -8.2036  -14.7269 O   0  0  0  0  0  0  0  0  0  0  0  0
   22.1175   -7.0480  -15.9800 C   0  0  0  0  0  0  0  0  0  0  0  0
   23.2136   -6.9482  -15.3868 O   0  0  0  0  0  0  0  0  0  0  0  0
   20.3139   -8.8948  -13.0368 O   0  0  0  0  0  0  0  0  0  0  0  0
   21.0915   -3.5161  -16.4872 C   0  0  0  0  0  0  0  0  0  0  0  0
   21.9155   -4.5961  -15.7905 C   0  0  2  0  0  0  0  0  0  0  0  0
   21.3960   -5.8626  -16.2297 N   0  0  0  0  0  0  0  0  0  0  0  0
   21.8948   -4.4282  -14.3322 C   0  0  0  0  0  0  0  0  0  0  0  0
   21.2254   -5.1335  -13.5339 O   0  0  0  0  0  0  0  0  0  0  0  0
   22.6702   -3.4161  -13.7829 O   0  0  0  0  0  0  0  0  0  0  0  0
  2  1  1  0
  3  5  1  0
  3  2  1  0
  3  4  1  6
  5  6  2  0
  7  8  1  0
  7  5  1  0
  9 10  1  0
  8  9  1  1
 10 14  1  0
 11 10  2  0
 12 13  2  0
 12  8  1  0
 16 15  1  6
 16 17  1  0
 16 18  1  0
 17 12  1  0
 18 20  1  0
 19 18  2  0
M  END
$$$$
