SDA.pdb
     RDKit          3D

 20 19  0  0  1  0  0  0  0  0999 V2000
   27.8701  -20.1188  -17.2587 O   0  0  0  0  0  0  0  0  0  0  0  0
   27.7819  -20.5077  -15.9393 C   0  0  0  0  0  0  0  0  0  0  0  0
   26.9022  -21.7235  -15.7382 C   0  0  2  0  0  0  0  0  0  0  0  0
   27.2813  -22.7330  -16.6747 N   0  0  0  0  0  0  0  0  0  0  0  0
   25.5055  -21.2963  -15.9994 C   0  0  0  0  0  0  0  0  0  0  0  0
   24.9499  -21.7122  -17.0517 O   0  0  0  0  0  0  0  0  0  0  0  0
   24.8698  -20.4541  -15.0695 N   0  0  0  0  0  0  0  0  0  0  0  0
   23.4552  -20.0972  -15.2843 C   0  0  1  0  0  0  0  0  0  0  0  0
   22.8573  -20.0101  -13.9361 C   0  0  0  0  0  0  0  0  0  0  0  0
   21.4398  -19.7398  -13.8164 C   0  0  0  0  0  0  0  0  0  0  0  0
   20.8382  -18.6617  -13.7389 O   0  0  0  0  0  0  0  0  0  0  0  0
   23.3717  -18.8605  -16.0909 C   0  0  0  0  0  0  0  0  0  0  0  0
   24.0565  -17.8728  -15.7461 O   0  0  0  0  0  0  0  0  0  0  0  0
   20.6081  -20.8843  -13.7821 O   0  0  0  0  0  0  0  0  0  0  0  0
   22.8378  -17.7992  -19.4089 C   0  0  0  0  0  0  0  0  0  0  0  0
   22.5175  -17.4816  -17.9504 C   0  0  2  0  0  0  0  0  0  0  0  0
   22.5588  -18.7282  -17.2355 N   0  0  0  0  0  0  0  0  0  0  0  0
   21.2360  -16.7763  -17.8249 C   0  0  0  0  0  0  0  0  0  0  0  0
   20.2232  -17.2208  -17.2255 O   0  0  0  0  0  0  0  0  0  0  0  0
   21.1240  -15.5219  -18.4093 O   0  0  0  0  0  0  0  0  0  0  0  0
  2  1  1  0
  3  5  1  0
  3  2  1  0
  3  4  1  6
  5  6  2  0
  7  8  1  0
  7  5  1  0
  9 10  1  0
  8  9  1  1
 10 14  1  0
 11 10  2  0
 12 13  2  0
 12  8  1  0
 16 15  1  6
 16 17  1  0
 16 18  1  0
 17 12  1  0
 18 20  1  0
 19 18  2  0
M  END
$$$$
