SDA.pdb
     RDKit          3D

 20 19  0  0  1  0  0  0  0  0999 V2000
   15.7944  -12.9363  -15.8739 O   0  0  0  0  0  0  0  0  0  0  0  0
   16.5742  -11.8811  -16.2961 C   0  0  0  0  0  0  0  0  0  0  0  0
   17.5248  -11.3833  -15.2280 C   0  0  2  0  0  0  0  0  0  0  0  0
   16.8011  -11.1949  -14.0112 N   0  0  0  0  0  0  0  0  0  0  0  0
   18.0627  -10.0828  -15.6981 C   0  0  0  0  0  0  0  0  0  0  0  0
   18.6926  -10.0666  -16.7899 O   0  0  0  0  0  0  0  0  0  0  0  0
   17.8476   -8.9369  -14.9116 N   0  0  0  0  0  0  0  0  0  0  0  0
   18.3408   -7.6360  -15.4006 C   0  0  1  0  0  0  0  0  0  0  0  0
   17.2085   -6.6989  -15.2505 C   0  0  0  0  0  0  0  0  0  0  0  0
   17.4422   -5.2834  -15.4466 C   0  0  0  0  0  0  0  0  0  0  0  0
   17.9099   -4.6806  -16.4204 O   0  0  0  0  0  0  0  0  0  0  0  0
   19.5688   -7.2622  -14.6661 C   0  0  0  0  0  0  0  0  0  0  0  0
   19.5924   -7.4082  -13.4246 O   0  0  0  0  0  0  0  0  0  0  0  0
   17.0808   -4.4556  -14.3572 O   0  0  0  0  0  0  0  0  0  0  0  0
   23.0674   -6.3576  -15.4408 C   0  0  0  0  0  0  0  0  0  0  0  0
   21.8677   -6.3818  -14.4970 C   0  0  2  0  0  0  0  0  0  0  0  0
   20.7243   -6.7466  -15.2884 N   0  0  0  0  0  0  0  0  0  0  0  0
   21.7112   -5.1009  -13.7969 C   0  0  0  0  0  0  0  0  0  0  0  0
   20.9059   -4.1921  -14.1261 O   0  0  0  0  0  0  0  0  0  0  0  0
   22.5088   -4.8655  -12.6852 O   0  0  0  0  0  0  0  0  0  0  0  0
  2  1  1  0
  3  5  1  0
  3  2  1  0
  3  4  1  1
  5  6  2  0
  7  8  1  0
  7  5  1  0
  9 10  1  0
  8  9  1  1
 10 14  1  0
 11 10  2  0
 12 13  2  0
 12  8  1  0
 16 15  1  6
 16 17  1  0
 16 18  1  0
 17 12  1  0
 18 20  1  0
 19 18  2  0
M  END
$$$$
