SDA.pdb
     RDKit          3D

 20 19  0  0  1  0  0  0  0  0999 V2000
   17.9087   -8.6908  -18.1211 O   0  0  0  0  0  0  0  0  0  0  0  0
   18.5939   -9.8269  -17.7475 C   0  0  0  0  0  0  0  0  0  0  0  0
   20.0341   -9.5520  -17.3699 C   0  0  2  0  0  0  0  0  0  0  0  0
   20.6399  -10.7673  -16.9274 N   0  0  0  0  0  0  0  0  0  0  0  0
   20.0112   -8.5694  -16.2585 C   0  0  0  0  0  0  0  0  0  0  0  0
   19.5299   -8.9410  -15.1542 O   0  0  0  0  0  0  0  0  0  0  0  0
   20.5229   -7.2790  -16.4847 N   0  0  0  0  0  0  0  0  0  0  0  0
   20.4227   -6.2756  -15.4087 C   0  0  1  0  0  0  0  0  0  0  0  0
   21.7975   -6.1035  -14.8955 C   0  0  0  0  0  0  0  0  0  0  0  0
   22.0259   -5.1773  -13.8062 C   0  0  0  0  0  0  0  0  0  0  0  0
   22.9803   -4.4201  -13.5913 O   0  0  0  0  0  0  0  0  0  0  0  0
   19.7879   -5.0469  -15.9324 C   0  0  0  0  0  0  0  0  0  0  0  0
   20.2896   -4.4941  -16.9354 O   0  0  0  0  0  0  0  0  0  0  0  0
   21.0003   -5.1261  -12.8325 O   0  0  0  0  0  0  0  0  0  0  0  0
   16.6947   -3.0945  -15.5075 C   0  0  0  0  0  0  0  0  0  0  0  0
   18.1865   -3.1729  -15.8226 C   0  0  2  0  0  0  0  0  0  0  0  0
   18.6408   -4.4570  -15.3628 N   0  0  0  0  0  0  0  0  0  0  0  0
   18.9186   -2.0461  -15.2315 C   0  0  0  0  0  0  0  0  0  0  0  0
   19.7035   -2.1297  -14.2519 O   0  0  0  0  0  0  0  0  0  0  0  0
   18.7372   -0.7879  -15.7897 O   0  0  0  0  0  0  0  0  0  0  0  0
  2  1  1  0
  3  5  1  0
  3  2  1  0
  3  4  1  1
  5  6  2  0
  7  8  1  0
  7  5  1  0
  9 10  1  0
  8  9  1  6
 10 14  1  0
 11 10  2  0
 12 13  2  0
 12  8  1  0
 16 15  1  1
 16 17  1  0
 16 18  1  0
 17 12  1  0
 18 20  1  0
 19 18  2  0
M  END
$$$$
