SDA.pdb
     RDKit          3D

 20 19  0  0  1  0  0  0  0  0999 V2000
   26.4602  -10.0152  -16.3625 O   0  0  0  0  0  0  0  0  0  0  0  0
   25.8249  -10.7045  -15.3521 C   0  0  0  0  0  0  0  0  0  0  0  0
   24.5735  -11.4180  -15.8184 C   0  0  2  0  0  0  0  0  0  0  0  0
   24.8871  -12.2056  -16.9677 N   0  0  0  0  0  0  0  0  0  0  0  0
   23.5871  -10.3708  -16.1819 C   0  0  0  0  0  0  0  0  0  0  0  0
   23.4039  -10.1347  -17.4065 O   0  0  0  0  0  0  0  0  0  0  0  0
   22.9069   -9.6948  -15.1531 N   0  0  0  0  0  0  0  0  0  0  0  0
   21.8792   -8.7008  -15.5137 C   0  0  1  0  0  0  0  0  0  0  0  0
   20.6178   -9.2028  -14.9309 C   0  0  0  0  0  0  0  0  0  0  0  0
   19.8896  -10.2411  -15.6296 C   0  0  0  0  0  0  0  0  0  0  0  0
   20.2331  -11.3910  -15.9298 O   0  0  0  0  0  0  0  0  0  0  0  0
   22.2984   -7.3612  -15.0482 C   0  0  0  0  0  0  0  0  0  0  0  0
   22.7165   -7.2378  -13.8763 O   0  0  0  0  0  0  0  0  0  0  0  0
   18.5796   -9.8912  -16.0348 O   0  0  0  0  0  0  0  0  0  0  0  0
   22.6370   -3.9414  -16.4816 C   0  0  0  0  0  0  0  0  0  0  0  0
   22.7081   -4.9447  -15.3331 C   0  0  2  0  0  0  0  0  0  0  0  0
   22.2542   -6.2052  -15.8544 N   0  0  0  0  0  0  0  0  0  0  0  0
   21.9421   -4.4817  -14.1694 C   0  0  0  0  0  0  0  0  0  0  0  0
   22.3798   -3.7090  -13.2782 O   0  0  0  0  0  0  0  0  0  0  0  0
   20.6336   -4.9253  -14.0336 O   0  0  0  0  0  0  0  0  0  0  0  0
  2  1  1  0
  3  5  1  0
  3  2  1  0
  3  4  1  6
  5  6  2  0
  7  8  1  0
  7  5  1  0
  9 10  1  0
  8  9  1  1
 10 14  1  0
 11 10  2  0
 12 13  2  0
 12  8  1  0
 16 15  1  6
 16 17  1  0
 16 18  1  0
 17 12  1  0
 18 20  1  0
 19 18  2  0
M  END
$$$$
