SDA.pdb
     RDKit          3D

 20 19  0  0  1  0  0  0  0  0999 V2000
   17.0168  -10.7898  -14.6884 O   0  0  0  0  0  0  0  0  0  0  0  0
   16.5190  -10.7477  -15.9730 C   0  0  0  0  0  0  0  0  0  0  0  0
   17.4834  -11.3026  -16.9998 C   0  0  2  0  0  0  0  0  0  0  0  0
   17.8621  -12.6252  -16.6165 N   0  0  0  0  0  0  0  0  0  0  0  0
   18.6753  -10.4190  -16.9974 C   0  0  0  0  0  0  0  0  0  0  0  0
   19.7743  -10.9143  -16.6284 O   0  0  0  0  0  0  0  0  0  0  0  0
   18.5270   -9.0805  -17.4033 N   0  0  0  0  0  0  0  0  0  0  0  0
   19.7275   -8.2298  -17.5003 C   0  0  1  0  0  0  0  0  0  0  0  0
   19.4567   -7.2831  -18.6019 C   0  0  0  0  0  0  0  0  0  0  0  0
   20.4766   -6.3209  -18.9630 C   0  0  0  0  0  0  0  0  0  0  0  0
   20.4190   -5.3459  -19.7223 O   0  0  0  0  0  0  0  0  0  0  0  0
   20.0022   -7.6063  -16.1878 C   0  0  0  0  0  0  0  0  0  0  0  0
   19.0719   -7.0126  -15.6000 O   0  0  0  0  0  0  0  0  0  0  0  0
   21.7387   -6.5225  -18.3553 O   0  0  0  0  0  0  0  0  0  0  0  0
   22.4334   -7.7988  -13.4890 C   0  0  0  0  0  0  0  0  0  0  0  0
   21.4622   -6.9531  -14.3089 C   0  0  2  0  0  0  0  0  0  0  0  0
   21.2616   -7.6420  -15.5546 N   0  0  0  0  0  0  0  0  0  0  0  0
   21.9540   -5.5793  -14.4715 C   0  0  0  0  0  0  0  0  0  0  0  0
   22.2782   -5.0538  -15.5677 O   0  0  0  0  0  0  0  0  0  0  0  0
   22.0739   -4.7924  -13.3340 O   0  0  0  0  0  0  0  0  0  0  0  0
  2  1  1  0
  3  5  1  0
  3  2  1  0
  3  4  1  1
  5  6  2  0
  7  8  1  0
  7  5  1  0
  9 10  1  0
  8  9  1  6
 10 14  1  0
 11 10  2  0
 12 13  2  0
 12  8  1  0
 16 15  1  1
 16 17  1  0
 16 18  1  0
 17 12  1  0
 18 20  1  0
 19 18  2  0
M  END
$$$$
