SDA.pdb
     RDKit          3D

 20 19  0  0  1  0  0  0  0  0999 V2000
   16.8582   -9.3894  -16.2300 O   0  0  0  0  0  0  0  0  0  0  0  0
   17.2098   -9.8314  -17.4873 C   0  0  0  0  0  0  0  0  0  0  0  0
   18.3616  -10.8140  -17.4685 C   0  0  2  0  0  0  0  0  0  0  0  0
   18.0596  -11.8685  -16.5540 N   0  0  0  0  0  0  0  0  0  0  0  0
   19.5577  -10.0713  -17.0003 C   0  0  0  0  0  0  0  0  0  0  0  0
   20.0478  -10.3892  -15.8833 O   0  0  0  0  0  0  0  0  0  0  0  0
   20.0862   -9.0551  -17.8165 N   0  0  0  0  0  0  0  0  0  0  0  0
   21.3003   -8.3457  -17.3722 C   0  0  1  0  0  0  0  0  0  0  0  0
   21.9820   -7.9103  -18.6086 C   0  0  0  0  0  0  0  0  0  0  0  0
   23.2094   -7.1499  -18.4993 C   0  0  0  0  0  0  0  0  0  0  0  0
   23.7484   -6.3865  -19.3098 O   0  0  0  0  0  0  0  0  0  0  0  0
   20.9280   -7.2579  -16.4422 C   0  0  0  0  0  0  0  0  0  0  0  0
   19.9532   -6.5301  -16.7309 O   0  0  0  0  0  0  0  0  0  0  0  0
   23.9051   -7.2999  -17.2761 O   0  0  0  0  0  0  0  0  0  0  0  0
   21.2426   -6.4329  -12.9551 C   0  0  0  0  0  0  0  0  0  0  0  0
   21.1846   -5.9130  -14.3894 C   0  0  2  0  0  0  0  0  0  0  0  0
   21.6131   -6.9906  -15.2390 N   0  0  0  0  0  0  0  0  0  0  0  0
   21.9805   -4.6896  -14.5480 C   0  0  0  0  0  0  0  0  0  0  0  0
   23.1041   -4.6275  -15.1105 O   0  0  0  0  0  0  0  0  0  0  0  0
   21.4614   -3.5057  -14.0418 O   0  0  0  0  0  0  0  0  0  0  0  0
  2  1  1  0
  3  5  1  0
  3  2  1  0
  3  4  1  1
  5  6  2  0
  7  8  1  0
  7  5  1  0
  9 10  1  0
  8  9  1  6
 10 14  1  0
 11 10  2  0
 12 13  2  0
 12  8  1  0
 16 15  1  1
 16 17  1  0
 16 18  1  0
 17 12  1  0
 18 20  1  0
 19 18  2  0
M  END
$$$$
