SDA.pdb
     RDKit          3D

 20 19  0  0  1  0  0  0  0  0999 V2000
   15.3370  -13.4217  -16.3884 O   0  0  0  0  0  0  0  0  0  0  0  0
   15.9861  -12.3545  -15.8058 C   0  0  0  0  0  0  0  0  0  0  0  0
   15.2486  -11.0443  -15.9840 C   0  0  2  0  0  0  0  0  0  0  0  0
   14.8280  -10.9275  -17.3438 N   0  0  0  0  0  0  0  0  0  0  0  0
   16.2075   -9.9593  -15.6606 C   0  0  0  0  0  0  0  0  0  0  0  0
   16.6589   -9.9040  -14.4849 O   0  0  0  0  0  0  0  0  0  0  0  0
   16.5666   -9.0494  -16.6712 N   0  0  0  0  0  0  0  0  0  0  0  0
   17.6616   -8.0959  -16.4132 C   0  0  1  0  0  0  0  0  0  0  0  0
   18.7586   -8.4948  -17.3188 C   0  0  0  0  0  0  0  0  0  0  0  0
   20.0342   -7.8181  -17.2118 C   0  0  0  0  0  0  0  0  0  0  0  0
   21.0318   -7.8787  -17.9408 O   0  0  0  0  0  0  0  0  0  0  0  0
   17.1689   -6.7131  -16.5922 C   0  0  0  0  0  0  0  0  0  0  0  0
   16.6484   -6.3992  -17.6847 O   0  0  0  0  0  0  0  0  0  0  0  0
   20.1657   -6.9503  -16.1016 O   0  0  0  0  0  0  0  0  0  0  0  0
   15.7872   -3.9753  -14.9045 C   0  0  0  0  0  0  0  0  0  0  0  0
   16.8814   -4.3634  -15.8960 C   0  0  2  0  0  0  0  0  0  0  0  0
   17.2521   -5.7194  -15.5952 N   0  0  0  0  0  0  0  0  0  0  0  0
   18.0077   -3.4230  -15.8457 C   0  0  0  0  0  0  0  0  0  0  0  0
   19.1793   -3.7183  -15.4950 O   0  0  0  0  0  0  0  0  0  0  0  0
   17.7713   -2.1047  -16.2112 O   0  0  0  0  0  0  0  0  0  0  0  0
  2  1  1  0
  3  5  1  0
  3  2  1  0
  3  4  1  6
  5  6  2  0
  7  8  1  0
  7  5  1  0
  9 10  1  0
  8  9  1  6
 10 14  1  0
 11 10  2  0
 12 13  2  0
 12  8  1  0
 16 15  1  1
 16 17  1  0
 16 18  1  0
 17 12  1  0
 18 20  1  0
 19 18  2  0
M  END
$$$$
