SDA.pdb
     RDKit          3D

 20 19  0  0  1  0  0  0  0  0999 V2000
   17.6270  -12.7935  -15.3667 O   0  0  0  0  0  0  0  0  0  0  0  0
   18.4391  -11.7709  -15.8077 C   0  0  0  0  0  0  0  0  0  0  0  0
   18.1893  -10.4636  -15.0860 C   0  0  2  0  0  0  0  0  0  0  0  0
   16.8502  -10.0383  -15.3424 N   0  0  0  0  0  0  0  0  0  0  0  0
   19.1449   -9.4729  -15.6398 C   0  0  0  0  0  0  0  0  0  0  0  0
   20.3767   -9.7126  -15.5196 O   0  0  0  0  0  0  0  0  0  0  0  0
   18.6382   -8.3212  -16.2682 N   0  0  0  0  0  0  0  0  0  0  0  0
   19.5794   -7.2625  -16.6781 C   0  0  1  0  0  0  0  0  0  0  0  0
   19.0110   -6.6800  -17.9112 C   0  0  0  0  0  0  0  0  0  0  0  0
   19.1228   -7.4210  -19.1501 C   0  0  0  0  0  0  0  0  0  0  0  0
   20.1059   -7.9665  -19.6662 O   0  0  0  0  0  0  0  0  0  0  0  0
   19.7725   -6.3103  -15.5631 C   0  0  0  0  0  0  0  0  0  0  0  0
   18.7653   -5.7753  -15.0508 O   0  0  0  0  0  0  0  0  0  0  0  0
   17.9229   -7.5436  -19.8903 O   0  0  0  0  0  0  0  0  0  0  0  0
   22.3546   -5.3472  -13.1575 C   0  0  0  0  0  0  0  0  0  0  0  0
   21.1425   -4.9726  -14.0068 C   0  0  2  0  0  0  0  0  0  0  0  0
   21.0359   -5.9672  -15.0393 N   0  0  0  0  0  0  0  0  0  0  0  0
   21.2527   -3.6023  -14.5222 C   0  0  0  0  0  0  0  0  0  0  0  0
   21.4307   -3.2976  -15.7298 O   0  0  0  0  0  0  0  0  0  0  0  0
   21.1541   -2.5562  -13.6148 O   0  0  0  0  0  0  0  0  0  0  0  0
  2  1  1  0
  3  5  1  0
  3  2  1  0
  3  4  1  6
  5  6  2  0
  7  8  1  0
  7  5  1  0
  9 10  1  0
  8  9  1  6
 10 14  1  0
 11 10  2  0
 12 13  2  0
 12  8  1  0
 16 15  1  6
 16 17  1  0
 16 18  1  0
 17 12  1  0
 18 20  1  0
 19 18  2  0
M  END
$$$$
