SDA.pdb
     RDKit          3D

 20 19  0  0  1  0  0  0  0  0999 V2000
   15.1516   -7.9886  -14.2300 O   0  0  0  0  0  0  0  0  0  0  0  0
   16.3341   -7.2852  -14.1478 C   0  0  0  0  0  0  0  0  0  0  0  0
   17.4981   -8.1365  -13.6867 C   0  0  2  0  0  0  0  0  0  0  0  0
   17.2532   -8.5760  -12.3501 N   0  0  0  0  0  0  0  0  0  0  0  0
   18.7052   -7.2743  -13.7179 C   0  0  0  0  0  0  0  0  0  0  0  0
   19.0652   -6.7266  -12.6411 O   0  0  0  0  0  0  0  0  0  0  0  0
   19.3875   -7.1082  -14.9365 N   0  0  0  0  0  0  0  0  0  0  0  0
   20.6308   -6.3155  -14.9529 C   0  0  1  0  0  0  0  0  0  0  0  0
   21.6215   -7.1435  -15.6713 C   0  0  0  0  0  0  0  0  0  0  0  0
   22.1274   -8.3400  -15.0318 C   0  0  0  0  0  0  0  0  0  0  0  0
   22.5215   -9.4026  -15.5278 O   0  0  0  0  0  0  0  0  0  0  0  0
   20.3668   -4.9892  -15.5513 C   0  0  0  0  0  0  0  0  0  0  0  0
   19.6913   -4.9294  -16.6017 O   0  0  0  0  0  0  0  0  0  0  0  0
   22.1817   -8.2919  -13.6185 O   0  0  0  0  0  0  0  0  0  0  0  0
   20.9528   -1.4228  -14.6785 C   0  0  0  0  0  0  0  0  0  0  0  0
   20.5182   -2.5278  -15.6380 C   0  0  2  0  0  0  0  0  0  0  0  0
   20.8356   -3.7777  -15.0027 N   0  0  0  0  0  0  0  0  0  0  0  0
   21.1408   -2.3665  -16.9578 C   0  0  0  0  0  0  0  0  0  0  0  0
   22.1209   -3.0329  -17.3797 O   0  0  0  0  0  0  0  0  0  0  0  0
   20.6144   -1.4075  -17.8125 O   0  0  0  0  0  0  0  0  0  0  0  0
  2  1  1  0
  3  5  1  0
  3  2  1  0
  3  4  1  1
  5  6  2  0
  7  8  1  0
  7  5  1  0
  9 10  1  0
  8  9  1  6
 10 14  1  0
 11 10  2  0
 12 13  2  0
 12  8  1  0
 16 15  1  1
 16 17  1  0
 16 18  1  0
 17 12  1  0
 18 20  1  0
 19 18  2  0
M  END
$$$$
