SDA.pdb
     RDKit          3D

 20 19  0  0  1  0  0  0  0  0999 V2000
   20.5108  -11.0797  -15.4336 O   0  0  0  0  0  0  0  0  0  0  0  0
   20.6605  -11.0833  -16.8038 C   0  0  0  0  0  0  0  0  0  0  0  0
   22.1032  -11.2237  -17.2411 C   0  0  2  0  0  0  0  0  0  0  0  0
   22.6744  -12.3667  -16.6031 N   0  0  0  0  0  0  0  0  0  0  0  0
   22.8116   -9.9969  -16.8002 C   0  0  0  0  0  0  0  0  0  0  0  0
   23.1834   -9.9322  -15.5974 O   0  0  0  0  0  0  0  0  0  0  0  0
   23.0344   -8.9703  -17.7354 N   0  0  0  0  0  0  0  0  0  0  0  0
   23.7516   -7.7570  -17.3020 C   0  0  1  0  0  0  0  0  0  0  0  0
   24.4659   -7.2676  -18.4991 C   0  0  0  0  0  0  0  0  0  0  0  0
   25.2226   -6.0366  -18.4069 C   0  0  0  0  0  0  0  0  0  0  0  0
   25.2895   -5.0819  -19.1908 O   0  0  0  0  0  0  0  0  0  0  0  0
   22.7946   -6.8005  -16.7052 C   0  0  0  0  0  0  0  0  0  0  0  0
   21.7237   -6.5695  -17.3078 O   0  0  0  0  0  0  0  0  0  0  0  0
   26.0107   -5.8987  -17.2395 O   0  0  0  0  0  0  0  0  0  0  0  0
   21.7527   -5.5565  -13.5549 C   0  0  0  0  0  0  0  0  0  0  0  0
   22.0601   -5.1745  -15.0007 C   0  0  2  0  0  0  0  0  0  0  0  0
   23.0202   -6.1279  -15.4866 N   0  0  0  0  0  0  0  0  0  0  0  0
   22.5142   -3.7821  -15.1016 C   0  0  0  0  0  0  0  0  0  0  0  0
   23.6728   -3.4232  -15.4357 O   0  0  0  0  0  0  0  0  0  0  0  0
   21.6020   -2.7775  -14.8079 O   0  0  0  0  0  0  0  0  0  0  0  0
  2  1  1  0
  3  5  1  0
  3  2  1  0
  3  4  1  1
  5  6  2  0
  7  8  1  0
  7  5  1  0
  9 10  1  0
  8  9  1  6
 10 14  1  0
 11 10  2  0
 12 13  2  0
 12  8  1  0
 16 15  1  1
 16 17  1  0
 16 18  1  0
 17 12  1  0
 18 20  1  0
 19 18  2  0
M  END
$$$$
