SDA.pdb
     RDKit          3D

 20 19  0  0  1  0  0  0  0  0999 V2000
   14.6212   -7.4937  -18.6169 O   0  0  0  0  0  0  0  0  0  0  0  0
   15.4260   -7.3684  -17.5050 C   0  0  0  0  0  0  0  0  0  0  0  0
   16.4975   -8.4351  -17.4266 C   0  0  2  0  0  0  0  0  0  0  0  0
   15.8818   -9.6951  -17.1561 N   0  0  0  0  0  0  0  0  0  0  0  0
   17.3966   -8.0653  -16.3058 C   0  0  0  0  0  0  0  0  0  0  0  0
   16.9983   -8.2938  -15.1319 O   0  0  0  0  0  0  0  0  0  0  0  0
   18.6418   -7.4817  -16.6008 N   0  0  0  0  0  0  0  0  0  0  0  0
   19.5732   -7.1960  -15.4938 C   0  0  1  0  0  0  0  0  0  0  0  0
   20.6071   -8.2492  -15.5614 C   0  0  0  0  0  0  0  0  0  0  0  0
   21.7678   -8.1453  -14.7020 C   0  0  0  0  0  0  0  0  0  0  0  0
   21.8417   -8.0525  -13.4707 O   0  0  0  0  0  0  0  0  0  0  0  0
   20.0771   -5.8107  -15.6134 C   0  0  0  0  0  0  0  0  0  0  0  0
   20.5544   -5.4390  -16.7076 O   0  0  0  0  0  0  0  0  0  0  0  0
   23.0155   -8.1501  -15.3699 O   0  0  0  0  0  0  0  0  0  0  0  0
   19.9273   -2.6386  -13.7568 C   0  0  0  0  0  0  0  0  0  0  0  0
   20.6371   -3.5754  -14.7312 C   0  0  2  0  0  0  0  0  0  0  0  0
   20.0509   -4.8765  -14.5575 N   0  0  0  0  0  0  0  0  0  0  0  0
   22.0912   -3.5560  -14.5295 C   0  0  0  0  0  0  0  0  0  0  0  0
   22.7449   -4.4311  -13.9052 O   0  0  0  0  0  0  0  0  0  0  0  0
   22.8081   -2.4947  -15.0652 O   0  0  0  0  0  0  0  0  0  0  0  0
  2  1  1  0
  3  5  1  0
  3  2  1  0
  3  4  1  1
  5  6  2  0
  7  8  1  0
  7  5  1  0
  9 10  1  0
  8  9  1  6
 10 14  1  0
 11 10  2  0
 12 13  2  0
 12  8  1  0
 16 15  1  1
 16 17  1  0
 16 18  1  0
 17 12  1  0
 18 20  1  0
 19 18  2  0
M  END
$$$$
