SDA.pdb
     RDKit          3D

 20 19  0  0  1  0  0  0  0  0999 V2000
   16.3820   -9.5561  -14.2532 O   0  0  0  0  0  0  0  0  0  0  0  0
   16.4412   -9.6930  -15.6234 C   0  0  0  0  0  0  0  0  0  0  0  0
   17.4430  -10.7362  -16.0713 C   0  0  2  0  0  0  0  0  0  0  0  0
   17.1465  -11.9747  -15.4247 N   0  0  0  0  0  0  0  0  0  0  0  0
   18.7834  -10.2591  -15.6506 C   0  0  0  0  0  0  0  0  0  0  0  0
   19.2128  -10.6284  -14.5244 O   0  0  0  0  0  0  0  0  0  0  0  0
   19.5084   -9.4238  -16.5194 N   0  0  0  0  0  0  0  0  0  0  0  0
   20.8230   -8.9160  -16.0852 C   0  0  1  0  0  0  0  0  0  0  0  0
   21.7064   -9.0397  -17.2630 C   0  0  0  0  0  0  0  0  0  0  0  0
   22.3003  -10.3267  -17.5590 C   0  0  0  0  0  0  0  0  0  0  0  0
   22.6393  -11.2415  -16.7984 O   0  0  0  0  0  0  0  0  0  0  0  0
   20.6744   -7.5450  -15.5511 C   0  0  0  0  0  0  0  0  0  0  0  0
   19.8251   -6.7884  -16.0701 O   0  0  0  0  0  0  0  0  0  0  0  0
   22.5311  -10.5834  -18.9315 O   0  0  0  0  0  0  0  0  0  0  0  0
   21.7021   -5.6702  -12.5507 C   0  0  0  0  0  0  0  0  0  0  0  0
   21.2010   -5.7060  -13.9924 C   0  0  2  0  0  0  0  0  0  0  0  0
   21.4404   -7.0363  -14.4821 N   0  0  0  0  0  0  0  0  0  0  0  0
   21.8334   -4.6597  -14.8053 C   0  0  0  0  0  0  0  0  0  0  0  0
   22.6798   -4.8641  -15.7134 O   0  0  0  0  0  0  0  0  0  0  0  0
   21.4762   -3.3407  -14.5602 O   0  0  0  0  0  0  0  0  0  0  0  0
  2  1  1  0
  3  5  1  0
  3  2  1  0
  3  4  1  1
  5  6  2  0
  7  8  1  0
  7  5  1  0
  9 10  1  0
  8  9  1  6
 10 14  1  0
 11 10  2  0
 12 13  2  0
 12  8  1  0
 16 15  1  1
 16 17  1  0
 16 18  1  0
 17 12  1  0
 18 20  1  0
 19 18  2  0
M  END
$$$$
