KIK.pdb
     RDKit          3D

 27 26  0  0  1  0  0  0  0  0999 V2000
   19.7871  -13.6337  -17.6888 N   0  0  0  0  0  0  0  0  0  0  0  0
   20.2173  -12.3827  -18.1583 C   0  0  1  0  0  0  0  0  0  0  0  0
   19.5590  -11.7357  -19.2987 C   0  0  0  0  0  0  0  0  0  0  0  0
   19.2594  -12.4114  -20.5465 C   0  0  0  0  0  0  0  0  0  0  0  0
   19.7799  -12.1000  -21.8612 C   0  0  0  0  0  0  0  0  0  0  0  0
   19.3418  -12.7989  -23.0774 C   0  0  0  0  0  0  0  0  0  0  0  0
   17.8329  -12.8619  -23.0505 N   0  0  0  0  0  0  0  0  0  0  0  0
   20.1252  -11.4045  -17.0002 C   0  0  0  0  0  0  0  0  0  0  0  0
   19.2191  -11.4896  -16.1442 O   0  0  0  0  0  0  0  0  0  0  0  0
   23.9120  -10.7981  -13.6410 C   0  0  0  0  0  0  0  0  0  0  0  0
   22.6293  -10.7261  -14.3940 C   0  0  0  0  0  0  0  0  0  0  0  0
   22.3428   -9.4186  -15.0519 C   0  0  2  0  0  0  0  0  0  0  0  0
   22.3064   -8.3660  -13.9262 C   0  0  0  0  0  0  0  0  0  0  0  0
   21.0879   -9.3625  -15.8566 C   0  0  2  0  0  0  0  0  0  0  0  0
   21.0777  -10.3859  -16.8916 N   0  0  0  0  0  0  0  0  0  0  0  0
   20.7268   -8.0343  -16.3834 C   0  0  0  0  0  0  0  0  0  0  0  0
   21.4347   -7.4871  -17.2624 O   0  0  0  0  0  0  0  0  0  0  0  0
   19.5898   -7.3711  -15.9052 N   0  0  0  0  0  0  0  0  0  0  0  0
   19.1317   -6.0743  -16.3903 C   0  0  1  0  0  0  0  0  0  0  0  0
   17.6656   -5.9764  -16.1380 C   0  0  0  0  0  0  0  0  0  0  0  0
   17.0617   -4.6658  -16.5111 C   0  0  0  0  0  0  0  0  0  0  0  0
   15.5980   -4.5624  -16.1690 C   0  0  0  0  0  0  0  0  0  0  0  0
   15.3165   -4.7393  -14.7159 C   0  0  0  0  0  0  0  0  0  0  0  0
   13.9293   -4.5641  -14.3718 N   0  0  0  0  0  0  0  0  0  0  0  0
   19.9301   -5.0144  -15.7368 C   0  0  0  0  0  0  0  0  0  0  0  0
   20.2564   -5.1029  -14.5209 O   0  0  0  0  0  0  0  0  0  0  0  0
   20.3555   -3.8833  -16.4191 O   0  0  0  0  0  0  0  0  0  0  0  0
  2  1  1  1
  2  3  1  0
  3  4  1  0
  5  6  1  0
  5  4  1  0
  7  6  1  0
  8  2  1  0
  9  8  2  0
 11 10  1  0
 12 11  1  0
 12 13  1  1
 12 14  1  0
 14 15  1  6
 15  8  1  0
 16 17  2  0
 16 14  1  0
 18 16  1  0
 19 18  1  0
 20 21  1  0
 19 20  1  1
 21 22  1  0
 23 22  1  0
 23 24  1  0
 25 19  1  0
 26 25  2  0
 27 25  1  0
M  END
$$$$
