KIK.pdb
     RDKit          3D

 27 26  0  0  1  0  0  0  0  0999 V2000
   19.1771  -21.7933  -10.7087 N   0  0  0  0  0  0  0  0  0  0  0  0
   19.6578  -22.1017  -11.9911 C   0  0  1  0  0  0  0  0  0  0  0  0
   18.7531  -22.1569  -13.1447 C   0  0  0  0  0  0  0  0  0  0  0  0
   17.9477  -23.3144  -13.4832 C   0  0  0  0  0  0  0  0  0  0  0  0
   18.2614  -24.7060  -13.2350 C   0  0  0  0  0  0  0  0  0  0  0  0
   17.3740  -25.8064  -13.6364 C   0  0  0  0  0  0  0  0  0  0  0  0
   15.9763  -25.4552  -13.1841 N   0  0  0  0  0  0  0  0  0  0  0  0
   20.7275  -21.0799  -12.3351 C   0  0  0  0  0  0  0  0  0  0  0  0
   20.6461  -19.8944  -11.9494 O   0  0  0  0  0  0  0  0  0  0  0  0
   25.8101  -22.2247  -11.4525 C   0  0  0  0  0  0  0  0  0  0  0  0
   24.5042  -21.5713  -11.7447 C   0  0  0  0  0  0  0  0  0  0  0  0
   24.2499  -21.2569  -13.1802 C   0  0  2  0  0  0  0  0  0  0  0  0
   25.4087  -20.3485  -13.6368 C   0  0  0  0  0  0  0  0  0  0  0  0
   22.9372  -20.6133  -13.4771 C   0  0  2  0  0  0  0  0  0  0  0  0
   21.8280  -21.4778  -13.1015 N   0  0  0  0  0  0  0  0  0  0  0  0
   22.7853  -20.0730  -14.8397 C   0  0  0  0  0  0  0  0  0  0  0  0
   22.7501  -20.8451  -15.8275 O   0  0  0  0  0  0  0  0  0  0  0  0
   22.6804  -18.6913  -15.0430 N   0  0  0  0  0  0  0  0  0  0  0  0
   22.4059  -18.0706  -16.3339 C   0  0  1  0  0  0  0  0  0  0  0  0
   22.0028  -16.6558  -16.0916 C   0  0  0  0  0  0  0  0  0  0  0  0
   21.6604  -15.8921  -17.3249 C   0  0  0  0  0  0  0  0  0  0  0  0
   21.2499  -14.4683  -17.0525 C   0  0  0  0  0  0  0  0  0  0  0  0
   20.7729  -13.7479  -18.2672 C   0  0  0  0  0  0  0  0  0  0  0  0
   20.3730  -12.3883  -18.0114 N   0  0  0  0  0  0  0  0  0  0  0  0
   23.5986  -18.2207  -17.1955 C   0  0  0  0  0  0  0  0  0  0  0  0
   24.7621  -18.1733  -16.7089 O   0  0  0  0  0  0  0  0  0  0  0  0
   23.5000  -18.4188  -18.5655 O   0  0  0  0  0  0  0  0  0  0  0  0
  2  1  1  1
  2  3  1  0
  3  4  1  0
  5  6  1  0
  5  4  1  0
  7  6  1  0
  8  2  1  0
  9  8  2  0
 11 10  1  0
 12 11  1  0
 12 13  1  1
 12 14  1  0
 14 15  1  6
 15  8  1  0
 16 17  2  0
 16 14  1  0
 18 16  1  0
 19 18  1  0
 20 21  1  0
 19 20  1  1
 21 22  1  0
 23 22  1  0
 23 24  1  0
 25 19  1  0
 26 25  2  0
 27 25  1  0
M  END
$$$$
