KIK.pdb
     RDKit          3D

 27 26  0  0  1  0  0  0  0  0999 V2000
   28.7217  -21.8024  -15.8548 N   0  0  0  0  0  0  0  0  0  0  0  0
   27.6548  -22.5137  -16.4260 C   0  0  1  0  0  0  0  0  0  0  0  0
   27.8651  -23.8308  -17.0373 C   0  0  0  0  0  0  0  0  0  0  0  0
   28.9380  -24.1260  -17.9672 C   0  0  0  0  0  0  0  0  0  0  0  0
   30.3245  -24.3985  -17.6513 C   0  0  0  0  0  0  0  0  0  0  0  0
   31.3356  -24.6789  -18.6801 C   0  0  0  0  0  0  0  0  0  0  0  0
   31.8508  -23.3532  -19.1887 N   0  0  0  0  0  0  0  0  0  0  0  0
   26.6049  -22.7066  -15.3456 C   0  0  0  0  0  0  0  0  0  0  0  0
   26.0914  -23.8243  -15.1263 O   0  0  0  0  0  0  0  0  0  0  0  0
   25.7485  -20.6382   -9.7439 C   0  0  0  0  0  0  0  0  0  0  0  0
   25.0884  -21.1265  -10.9863 C   0  0  0  0  0  0  0  0  0  0  0  0
   25.9569  -21.1781  -12.1977 C   0  0  2  0  0  0  0  0  0  0  0  0
   26.4994  -19.7498  -12.4031 C   0  0  0  0  0  0  0  0  0  0  0  0
   25.2983  -21.6680  -13.4433 C   0  0  2  0  0  0  0  0  0  0  0  0
   26.2054  -21.6062  -14.5800 N   0  0  0  0  0  0  0  0  0  0  0  0
   23.9844  -21.0733  -13.7465 C   0  0  0  0  0  0  0  0  0  0  0  0
   23.8709  -19.8344  -13.9054 O   0  0  0  0  0  0  0  0  0  0  0  0
   22.8505  -21.8877  -13.8583 N   0  0  0  0  0  0  0  0  0  0  0  0
   21.5130  -21.3939  -14.1655 C   0  0  1  0  0  0  0  0  0  0  0  0
   20.7086  -22.5325  -14.6938 C   0  0  0  0  0  0  0  0  0  0  0  0
   20.5041  -22.5107  -16.1701 C   0  0  0  0  0  0  0  0  0  0  0  0
   19.6311  -23.6322  -16.6700 C   0  0  0  0  0  0  0  0  0  0  0  0
   19.5285  -23.6841  -18.1563 C   0  0  0  0  0  0  0  0  0  0  0  0
   18.7579  -24.7992  -18.6425 N   0  0  0  0  0  0  0  0  0  0  0  0
   20.9485  -20.7666  -12.9508 C   0  0  0  0  0  0  0  0  0  0  0  0
   20.1046  -19.8319  -13.0343 O   0  0  0  0  0  0  0  0  0  0  0  0
   21.3135  -21.1691  -11.6738 O   0  0  0  0  0  0  0  0  0  0  0  0
  2  1  1  1
  2  3  1  0
  3  4  1  0
  5  6  1  0
  5  4  1  0
  7  6  1  0
  8  2  1  0
  9  8  2  0
 11 10  1  0
 12 11  1  0
 12 13  1  6
 12 14  1  0
 14 15  1  6
 15  8  1  0
 16 17  2  0
 16 14  1  0
 18 16  1  0
 19 18  1  0
 20 21  1  0
 19 20  1  1
 21 22  1  0
 23 22  1  0
 23 24  1  0
 25 19  1  0
 26 25  2  0
 27 25  1  0
M  END
$$$$
