KIK.pdb
     RDKit          3D

 27 26  0  0  1  0  0  0  0  0999 V2000
   19.8453  -20.8843  -11.4250 N   0  0  0  0  0  0  0  0  0  0  0  0
   20.5571  -21.5338  -12.4459 C   0  0  1  0  0  0  0  0  0  0  0  0
   19.9059  -21.8947  -13.7101 C   0  0  0  0  0  0  0  0  0  0  0  0
   18.8398  -22.8719  -13.8177 C   0  0  0  0  0  0  0  0  0  0  0  0
   18.7898  -24.1876  -13.2154 C   0  0  0  0  0  0  0  0  0  0  0  0
   17.6937  -25.1351  -13.4613 C   0  0  0  0  0  0  0  0  0  0  0  0
   17.9065  -26.3258  -12.5567 N   0  0  0  0  0  0  0  0  0  0  0  0
   21.7388  -20.6521  -12.8101 C   0  0  0  0  0  0  0  0  0  0  0  0
   21.6634  -19.4060  -12.7609 O   0  0  0  0  0  0  0  0  0  0  0  0
   26.4740  -21.6542  -10.6881 C   0  0  0  0  0  0  0  0  0  0  0  0
   25.3074  -21.0405  -11.3811 C   0  0  0  0  0  0  0  0  0  0  0  0
   25.3427  -21.0967  -12.8711 C   0  0  2  0  0  0  0  0  0  0  0  0
   26.6212  -20.3514  -13.3027 C   0  0  0  0  0  0  0  0  0  0  0  0
   24.1508  -20.5298  -13.5664 C   0  0  2  0  0  0  0  0  0  0  0  0
   22.9380  -21.2513  -13.2096 N   0  0  0  0  0  0  0  0  0  0  0  0
   24.2859  -20.3544  -15.0235 C   0  0  0  0  0  0  0  0  0  0  0  0
   24.3760  -21.3533  -15.7766 O   0  0  0  0  0  0  0  0  0  0  0  0
   24.3163  -19.0693  -15.5794 N   0  0  0  0  0  0  0  0  0  0  0  0
   24.4047  -18.7959  -17.0092 C   0  0  1  0  0  0  0  0  0  0  0  0
   23.6850  -17.5192  -17.2824 C   0  0  0  0  0  0  0  0  0  0  0  0
   23.6083  -17.1508  -18.7246 C   0  0  0  0  0  0  0  0  0  0  0  0
   22.8203  -15.8922  -18.9797 C   0  0  0  0  0  0  0  0  0  0  0  0
   22.7734  -15.5054  -20.4186 C   0  0  0  0  0  0  0  0  0  0  0  0
   24.0736  -15.3057  -21.0045 N   0  0  0  0  0  0  0  0  0  0  0  0
   25.8306  -18.7826  -17.4022 C   0  0  0  0  0  0  0  0  0  0  0  0
   26.6985  -18.2183  -16.6803 O   0  0  0  0  0  0  0  0  0  0  0  0
   26.2806  -19.3825  -18.5699 O   0  0  0  0  0  0  0  0  0  0  0  0
  2  1  1  1
  2  3  1  0
  3  4  1  0
  5  6  1  0
  5  4  1  0
  7  6  1  0
  8  2  1  0
  9  8  2  0
 11 10  1  0
 12 11  1  0
 12 13  1  6
 12 14  1  0
 14 15  1  6
 15  8  1  0
 16 17  2  0
 16 14  1  0
 18 16  1  0
 19 18  1  0
 20 21  1  0
 19 20  1  1
 21 22  1  0
 23 22  1  0
 23 24  1  0
 25 19  1  0
 26 25  2  0
 27 25  1  0
M  END
$$$$
