KIK.pdb
     RDKit          3D

 27 26  0  0  1  0  0  0  0  0999 V2000
   28.2015  -21.1902  -15.7938 N   0  0  0  0  0  0  0  0  0  0  0  0
   27.3881  -20.1953  -15.2290 C   0  0  1  0  0  0  0  0  0  0  0  0
   26.8649  -19.0933  -16.0441 C   0  0  0  0  0  0  0  0  0  0  0  0
   27.6877  -18.0273  -16.5823 C   0  0  0  0  0  0  0  0  0  0  0  0
   29.1334  -17.9475  -16.5814 C   0  0  0  0  0  0  0  0  0  0  0  0
   29.8670  -16.7800  -17.0897 C   0  0  0  0  0  0  0  0  0  0  0  0
   29.3261  -16.4623  -18.4637 N   0  0  0  0  0  0  0  0  0  0  0  0
   26.1811  -20.8855  -14.6179 C   0  0  0  0  0  0  0  0  0  0  0  0
   25.5216  -21.7335  -15.2556 O   0  0  0  0  0  0  0  0  0  0  0  0
   25.2865  -20.3453   -8.8811 C   0  0  0  0  0  0  0  0  0  0  0  0
   25.1272  -20.1226  -10.3449 C   0  0  0  0  0  0  0  0  0  0  0  0
   24.9636  -21.3553  -11.1684 C   0  0  2  0  0  0  0  0  0  0  0  0
   26.2716  -22.1563  -11.0140 C   0  0  0  0  0  0  0  0  0  0  0  0
   24.6585  -21.1315  -12.6114 C   0  0  2  0  0  0  0  0  0  0  0  0
   25.8011  -20.5624  -13.3110 N   0  0  0  0  0  0  0  0  0  0  0  0
   23.4115  -20.3986  -12.8936 C   0  0  0  0  0  0  0  0  0  0  0  0
   23.3962  -19.1445  -12.8793 O   0  0  0  0  0  0  0  0  0  0  0  0
   22.2318  -21.0973  -13.1788 N   0  0  0  0  0  0  0  0  0  0  0  0
   20.9313  -20.4665  -13.3731 C   0  0  1  0  0  0  0  0  0  0  0  0
   20.3437  -20.9955  -14.6371 C   0  0  0  0  0  0  0  0  0  0  0  0
   18.9612  -20.5169  -14.9223 C   0  0  0  0  0  0  0  0  0  0  0  0
   18.3032  -21.2378  -16.0701 C   0  0  0  0  0  0  0  0  0  0  0  0
   16.9699  -20.6786  -16.4329 C   0  0  0  0  0  0  0  0  0  0  0  0
   16.2669  -21.4576  -17.4192 N   0  0  0  0  0  0  0  0  0  0  0  0
   20.1022  -20.7093  -12.1726 C   0  0  0  0  0  0  0  0  0  0  0  0
   20.2558  -21.7508  -11.4765 O   0  0  0  0  0  0  0  0  0  0  0  0
   19.1258  -19.8155  -11.7559 O   0  0  0  0  0  0  0  0  0  0  0  0
  2  1  1  6
  2  3  1  0
  3  4  1  0
  5  6  1  0
  5  4  1  0
  7  6  1  0
  8  2  1  0
  9  8  2  0
 11 10  1  0
 12 11  1  0
 12 13  1  6
 12 14  1  0
 14 15  1  1
 15  8  1  0
 16 17  2  0
 16 14  1  0
 18 16  1  0
 19 18  1  0
 20 21  1  0
 19 20  1  6
 21 22  1  0
 23 22  1  0
 23 24  1  0
 25 19  1  0
 26 25  2  0
 27 25  1  0
M  END
$$$$
