KIK.pdb
     RDKit          3D

 27 26  0  0  1  0  0  0  0  0999 V2000
   28.0406  -19.2274  -14.6325 N   0  0  0  0  0  0  0  0  0  0  0  0
   27.6426  -20.4370  -15.2233 C   0  0  1  0  0  0  0  0  0  0  0  0
   28.6335  -21.4190  -15.6774 C   0  0  0  0  0  0  0  0  0  0  0  0
   29.5659  -21.1810  -16.7623 C   0  0  0  0  0  0  0  0  0  0  0  0
   29.2530  -20.7760  -18.1168 C   0  0  0  0  0  0  0  0  0  0  0  0
   30.2867  -20.4855  -19.1201 C   0  0  0  0  0  0  0  0  0  0  0  0
   29.5855  -20.1274  -20.4091 N   0  0  0  0  0  0  0  0  0  0  0  0
   26.7504  -21.1587  -14.2284 C   0  0  0  0  0  0  0  0  0  0  0  0
   27.2009  -22.0421  -13.4685 O   0  0  0  0  0  0  0  0  0  0  0  0
   26.6374  -21.2061   -9.8615 C   0  0  0  0  0  0  0  0  0  0  0  0
   26.1495  -21.5942  -11.2139 C   0  0  0  0  0  0  0  0  0  0  0  0
   25.0350  -20.7653  -11.7574 C   0  0  2  0  0  0  0  0  0  0  0  0
   23.9216  -20.7838  -10.6913 C   0  0  0  0  0  0  0  0  0  0  0  0
   24.4957  -21.1966  -13.0797 C   0  0  2  0  0  0  0  0  0  0  0  0
   25.3935  -20.8247  -14.1633 N   0  0  0  0  0  0  0  0  0  0  0  0
   23.1002  -20.8113  -13.3558 C   0  0  0  0  0  0  0  0  0  0  0  0
   22.7628  -19.6033  -13.3480 O   0  0  0  0  0  0  0  0  0  0  0  0
   22.1384  -21.7922  -13.6280 N   0  0  0  0  0  0  0  0  0  0  0  0
   20.7579  -21.5060  -14.0015 C   0  0  1  0  0  0  0  0  0  0  0  0
   20.1737  -22.7410  -14.5985 C   0  0  0  0  0  0  0  0  0  0  0  0
   18.7094  -22.6638  -14.8656 C   0  0  0  0  0  0  0  0  0  0  0  0
   18.1209  -23.9620  -15.3539 C   0  0  0  0  0  0  0  0  0  0  0  0
   16.6538  -23.8876  -15.6076 C   0  0  0  0  0  0  0  0  0  0  0  0
   16.0606  -25.1577  -15.9372 N   0  0  0  0  0  0  0  0  0  0  0  0
   20.0367  -21.0111  -12.8088 C   0  0  0  0  0  0  0  0  0  0  0  0
   20.3936  -21.3497  -11.6465 O   0  0  0  0  0  0  0  0  0  0  0  0
   18.9449  -20.1601  -12.9061 O   0  0  0  0  0  0  0  0  0  0  0  0
  2  1  1  1
  2  3  1  0
  3  4  1  0
  5  6  1  0
  5  4  1  0
  7  6  1  0
  8  2  1  0
  9  8  2  0
 11 10  1  0
 12 11  1  0
 12 13  1  1
 12 14  1  0
 14 15  1  6
 15  8  1  0
 16 17  2  0
 16 14  1  0
 18 16  1  0
 19 18  1  0
 20 21  1  0
 19 20  1  1
 21 22  1  0
 23 22  1  0
 23 24  1  0
 25 19  1  0
 26 25  2  0
 27 25  1  0
M  END
$$$$
