KIK.pdb
     RDKit          3D

 27 26  0  0  1  0  0  0  0  0999 V2000
   21.3394  -22.6032  -13.4050 N   0  0  0  0  0  0  0  0  0  0  0  0
   21.0488  -21.2344  -13.2932 C   0  0  1  0  0  0  0  0  0  0  0  0
   20.1442  -20.7360  -12.2511 C   0  0  0  0  0  0  0  0  0  0  0  0
   18.8844  -21.3668  -11.9078 C   0  0  0  0  0  0  0  0  0  0  0  0
   17.8398  -21.7942  -12.8148 C   0  0  0  0  0  0  0  0  0  0  0  0
   16.6095  -22.4553  -12.3579 C   0  0  0  0  0  0  0  0  0  0  0  0
   16.2564  -21.8812  -11.0062 N   0  0  0  0  0  0  0  0  0  0  0  0
   22.3658  -20.5026  -13.1018 C   0  0  0  0  0  0  0  0  0  0  0  0
   22.4018  -19.2853  -12.8230 O   0  0  0  0  0  0  0  0  0  0  0  0
   25.2818  -20.1550  -10.1665 C   0  0  0  0  0  0  0  0  0  0  0  0
   25.3733  -21.4468  -10.9017 C   0  0  0  0  0  0  0  0  0  0  0  0
   25.8136  -21.3475  -12.3232 C   0  0  2  0  0  0  0  0  0  0  0  0
   27.1994  -20.6726  -12.3014 C   0  0  0  0  0  0  0  0  0  0  0  0
   24.8908  -20.6102  -13.2344 C   0  0  2  0  0  0  0  0  0  0  0  0
   23.5645  -21.2099  -13.2416 N   0  0  0  0  0  0  0  0  0  0  0  0
   25.3989  -20.3665  -14.5961 C   0  0  0  0  0  0  0  0  0  0  0  0
   25.6788  -21.3290  -15.3500 O   0  0  0  0  0  0  0  0  0  0  0  0
   25.5750  -19.0566  -15.0593 N   0  0  0  0  0  0  0  0  0  0  0  0
   25.9597  -18.7136  -16.4237 C   0  0  1  0  0  0  0  0  0  0  0  0
   25.2813  -17.4376  -16.7897 C   0  0  0  0  0  0  0  0  0  0  0  0
   25.6118  -16.9321  -18.1524 C   0  0  0  0  0  0  0  0  0  0  0  0
   24.9927  -15.5935  -18.4606 C   0  0  0  0  0  0  0  0  0  0  0  0
   25.3153  -15.0936  -19.8274 C   0  0  0  0  0  0  0  0  0  0  0  0
   24.8181  -13.7676  -20.0886 N   0  0  0  0  0  0  0  0  0  0  0  0
   27.4358  -18.6577  -16.5004 C   0  0  0  0  0  0  0  0  0  0  0  0
   28.1298  -18.3881  -15.4813 O   0  0  0  0  0  0  0  0  0  0  0  0
   28.1236  -18.8958  -17.6819 O   0  0  0  0  0  0  0  0  0  0  0  0
  2  1  1  1
  2  3  1  0
  3  4  1  0
  5  6  1  0
  5  4  1  0
  7  6  1  0
  8  2  1  0
  9  8  2  0
 11 10  1  0
 12 11  1  0
 12 13  1  1
 12 14  1  0
 14 15  1  6
 15  8  1  0
 16 17  2  0
 16 14  1  0
 18 16  1  0
 19 18  1  0
 20 21  1  0
 19 20  1  1
 21 22  1  0
 23 22  1  0
 23 24  1  0
 25 19  1  0
 26 25  2  0
 27 25  1  0
M  END
$$$$
