KIK.pdb
     RDKit          3D

 27 26  0  0  1  0  0  0  0  0999 V2000
   22.0332  -14.9214  -17.6773 N   0  0  0  0  0  0  0  0  0  0  0  0
   22.5275  -13.7836  -18.3344 C   0  0  1  0  0  0  0  0  0  0  0  0
   21.7672  -13.1435  -19.4136 C   0  0  0  0  0  0  0  0  0  0  0  0
   21.0131  -13.8756  -20.4128 C   0  0  0  0  0  0  0  0  0  0  0  0
   20.2557  -13.3272  -21.5182 C   0  0  0  0  0  0  0  0  0  0  0  0
   19.5357  -14.1676  -22.4851 C   0  0  0  0  0  0  0  0  0  0  0  0
   18.9026  -13.2514  -23.5055 N   0  0  0  0  0  0  0  0  0  0  0  0
   22.7592  -12.7136  -17.2817 C   0  0  0  0  0  0  0  0  0  0  0  0
   22.0145  -12.6070  -16.2843 O   0  0  0  0  0  0  0  0  0  0  0  0
   27.6368  -11.7938  -15.3876 C   0  0  0  0  0  0  0  0  0  0  0  0
   26.1731  -11.8585  -15.6543 C   0  0  0  0  0  0  0  0  0  0  0  0
   25.5701  -10.6231  -16.2327 C   0  0  2  0  0  0  0  0  0  0  0  0
   25.8325   -9.4954  -15.2149 C   0  0  0  0  0  0  0  0  0  0  0  0
   24.1157  -10.7047  -16.5544 C   0  0  2  0  0  0  0  0  0  0  0  0
   23.8315  -11.8285  -17.4349 N   0  0  0  0  0  0  0  0  0  0  0  0
   23.4963   -9.4547  -17.0295 C   0  0  0  0  0  0  0  0  0  0  0  0
   23.8527   -8.9448  -18.1186 O   0  0  0  0  0  0  0  0  0  0  0  0
   22.5048   -8.8247  -16.2671 N   0  0  0  0  0  0  0  0  0  0  0  0
   21.7890   -7.6240  -16.6833 C   0  0  1  0  0  0  0  0  0  0  0  0
   20.3659   -7.9944  -16.9287 C   0  0  0  0  0  0  0  0  0  0  0  0
   19.4786   -6.8451  -17.2654 C   0  0  0  0  0  0  0  0  0  0  0  0
   18.0198   -7.2155  -17.3352 C   0  0  0  0  0  0  0  0  0  0  0  0
   17.1373   -6.0741  -17.7097 C   0  0  0  0  0  0  0  0  0  0  0  0
   15.7386   -6.4148  -17.7469 N   0  0  0  0  0  0  0  0  0  0  0  0
   21.9732   -6.5805  -15.6514 C   0  0  0  0  0  0  0  0  0  0  0  0
   22.1770   -6.8885  -14.4446 O   0  0  0  0  0  0  0  0  0  0  0  0
   21.9318   -5.2268  -15.9543 O   0  0  0  0  0  0  0  0  0  0  0  0
  2  1  1  1
  2  3  1  0
  3  4  1  0
  5  6  1  0
  5  4  1  0
  7  6  1  0
  8  2  1  0
  9  8  2  0
 11 10  1  0
 12 11  1  0
 12 13  1  1
 12 14  1  0
 14 15  1  6
 15  8  1  0
 16 17  2  0
 16 14  1  0
 18 16  1  0
 19 18  1  0
 20 21  1  0
 19 20  1  1
 21 22  1  0
 23 22  1  0
 23 24  1  0
 25 19  1  0
 26 25  2  0
 27 25  1  0
M  END
$$$$
