KIK.pdb
     RDKit          3D

 27 26  0  0  1  0  0  0  0  0999 V2000
   21.3466  -28.9405  -11.8093 N   0  0  0  0  0  0  0  0  0  0  0  0
   20.0055  -28.5525  -11.6632 C   0  0  1  0  0  0  0  0  0  0  0  0
   18.9574  -29.5422  -11.3902 C   0  0  0  0  0  0  0  0  0  0  0  0
   18.3350  -30.3606  -12.4129 C   0  0  0  0  0  0  0  0  0  0  0  0
   18.0606  -29.9927  -13.7862 C   0  0  0  0  0  0  0  0  0  0  0  0
   17.3282  -30.8662  -14.7136 C   0  0  0  0  0  0  0  0  0  0  0  0
   17.1632  -32.2095  -14.0432 N   0  0  0  0  0  0  0  0  0  0  0  0
   19.9438  -27.5413  -10.5318 C   0  0  0  0  0  0  0  0  0  0  0  0
   20.8085  -27.5167   -9.6303 O   0  0  0  0  0  0  0  0  0  0  0  0
   19.3424  -22.5283  -11.8577 C   0  0  0  0  0  0  0  0  0  0  0  0
   19.5899  -23.8170  -11.1537 C   0  0  0  0  0  0  0  0  0  0  0  0
   18.5364  -24.2317  -10.1829 C   0  0  2  0  0  0  0  0  0  0  0  0
   18.4515  -23.1092   -9.1297 C   0  0  0  0  0  0  0  0  0  0  0  0
   18.7526  -25.5506   -9.5204 C   0  0  2  0  0  0  0  0  0  0  0  0
   18.8939  -26.6175  -10.5005 N   0  0  0  0  0  0  0  0  0  0  0  0
   17.7924  -25.8953   -8.4568 C   0  0  0  0  0  0  0  0  0  0  0  0
   16.5986  -26.1549   -8.7404 O   0  0  0  0  0  0  0  0  0  0  0  0
   18.2055  -25.9345   -7.1192 N   0  0  0  0  0  0  0  0  0  0  0  0
   17.3133  -26.1803   -5.9920 C   0  0  1  0  0  0  0  0  0  0  0  0
   18.1446  -26.5862   -4.8228 C   0  0  0  0  0  0  0  0  0  0  0  0
   17.3723  -26.8276   -3.5711 C   0  0  0  0  0  0  0  0  0  0  0  0
   18.2448  -27.0836   -2.3696 C   0  0  0  0  0  0  0  0  0  0  0  0
   17.4821  -27.1620   -1.0912 C   0  0  0  0  0  0  0  0  0  0  0  0
   18.3205  -27.2726    0.0744 N   0  0  0  0  0  0  0  0  0  0  0  0
   16.4955  -24.9696   -5.7616 C   0  0  0  0  0  0  0  0  0  0  0  0
   16.9321  -23.8238   -6.0603 O   0  0  0  0  0  0  0  0  0  0  0  0
   15.2226  -25.0316   -5.2123 O   0  0  0  0  0  0  0  0  0  0  0  0
  2  1  1  1
  2  3  1  0
  3  4  1  0
  5  6  1  0
  5  4  1  0
  7  6  1  0
  8  2  1  0
  9  8  2  0
 11 10  1  0
 12 11  1  0
 12 13  1  1
 12 14  1  0
 14 15  1  6
 15  8  1  0
 16 17  2  0
 16 14  1  0
 18 16  1  0
 19 18  1  0
 20 21  1  0
 19 20  1  1
 21 22  1  0
 23 22  1  0
 23 24  1  0
 25 19  1  0
 26 25  2  0
 27 25  1  0
M  END
$$$$
