CEI.pdb
     RDKit          3D

 24 23  0  0  1  0  0  0  0  0999 V2000
   27.1282  -21.2369  -10.6875 N   0  0  0  0  0  0  0  0  0  0  0  0
   25.7206  -21.0776  -10.5067 C   0  0  1  0  0  0  0  0  0  0  0  0
   25.4067  -20.1708   -9.3390 C   0  0  0  0  0  0  0  0  0  0  0  0
   24.6614  -21.2075   -8.0428 S   0  0  0  0  0  0  0  0  0  0  0  0
   25.0450  -20.6844  -11.7423 C   0  0  0  0  0  0  0  0  0  0  0  0
   25.4520  -19.6302  -12.3331 O   0  0  0  0  0  0  0  0  0  0  0  0
   23.9772  -21.3647  -12.3487 N   0  0  0  0  0  0  0  0  0  0  0  0
   23.3652  -20.9249  -13.5603 C   0  0  1  0  0  0  0  0  0  0  0  0
   23.3685  -22.0269  -14.6238 C   0  0  0  0  0  0  0  0  0  0  0  0
   24.7833  -22.2212  -15.1406 C   0  0  0  0  0  0  0  0  0  0  0  0
   24.8758  -23.3186  -16.0997 C   0  0  0  0  0  0  0  0  0  0  0  0
   25.1460  -24.4842  -15.7317 O   0  0  0  0  0  0  0  0  0  0  0  0
   21.9477  -20.5136  -13.3825 C   0  0  0  0  0  0  0  0  0  0  0  0
   21.3111  -21.0596  -12.4442 O   0  0  0  0  0  0  0  0  0  0  0  0
   24.6636  -23.0830  -17.4447 O   0  0  0  0  0  0  0  0  0  0  0  0
   19.0183  -15.3217  -13.1190 C   0  0  0  0  0  0  0  0  0  0  0  0
   18.8396  -16.7930  -13.3240 C   0  0  0  0  0  0  0  0  0  0  0  0
   20.1887  -17.4311  -13.6803 C   0  0  2  0  0  0  0  0  0  0  0  0
   20.5763  -16.8825  -15.0363 C   0  0  0  0  0  0  0  0  0  0  0  0
   20.0302  -18.9276  -13.8278 C   0  0  2  0  0  0  0  0  0  0  0  0
   21.2838  -19.5694  -14.1823 N   0  0  0  0  0  0  0  0  0  0  0  0
   19.0700  -19.1809  -14.9302 C   0  0  0  0  0  0  0  0  0  0  0  0
   19.5193  -19.6944  -16.1348 O   0  0  0  0  0  0  0  0  0  0  0  0
   17.8346  -18.9424  -14.8125 O   0  0  0  0  0  0  0  0  0  0  0  0
  2  3  1  0
  2  1  1  6
  4  3  1  0
  5  6  2  0
  5  2  1  0
  7  5  1  0
  8 13  1  0
  8  7  1  0
  8  9  1  6
 10  9  1  0
 10 11  1  0
 11 12  2  0
 13 21  1  0
 14 13  2  0
 15 11  1  0
 17 16  1  0
 18 17  1  0
 18 20  1  0
 18 19  1  6
 20 22  1  0
 20 21  1  6
 22 24  2  0
 22 23  1  0
M  END
$$$$
