CEI.pdb
     RDKit          3D

 24 23  0  0  1  0  0  0  0  0999 V2000
   27.2727  -19.7073  -15.7688 N   0  0  0  0  0  0  0  0  0  0  0  0
   27.4067  -20.6147  -14.6742 C   0  0  1  0  0  0  0  0  0  0  0  0
   28.8567  -20.9176  -14.3742 C   0  0  0  0  0  0  0  0  0  0  0  0
   29.3159  -22.3704  -15.3685 S   0  0  0  0  0  0  0  0  0  0  0  0
   26.6514  -20.1806  -13.4999 C   0  0  0  0  0  0  0  0  0  0  0  0
   26.5760  -18.9284  -13.2709 O   0  0  0  0  0  0  0  0  0  0  0  0
   25.9928  -21.0207  -12.5883 N   0  0  0  0  0  0  0  0  0  0  0  0
   25.3077  -20.5303  -11.4368 C   0  0  1  0  0  0  0  0  0  0  0  0
   23.8243  -20.9103  -11.4611 C   0  0  0  0  0  0  0  0  0  0  0  0
   23.0958  -20.0248  -12.4570 C   0  0  0  0  0  0  0  0  0  0  0  0
   21.6533  -20.2520  -12.4469 C   0  0  0  0  0  0  0  0  0  0  0  0
   21.1370  -21.1278  -11.7166 O   0  0  0  0  0  0  0  0  0  0  0  0
   25.8583  -21.0586  -10.1609 C   0  0  0  0  0  0  0  0  0  0  0  0
   26.0063  -22.3057  -10.0791 O   0  0  0  0  0  0  0  0  0  0  0  0
   20.8268  -19.4935  -13.2538 O   0  0  0  0  0  0  0  0  0  0  0  0
   28.9814  -19.3934   -5.0698 C   0  0  0  0  0  0  0  0  0  0  0  0
   28.0973  -20.3834   -5.7604 C   0  0  0  0  0  0  0  0  0  0  0  0
   27.5817  -19.7841   -7.0753 C   0  0  2  0  0  0  0  0  0  0  0  0
   26.6971  -18.6167   -6.6954 C   0  0  0  0  0  0  0  0  0  0  0  0
   26.7146  -20.7906   -7.7975 C   0  0  2  0  0  0  0  0  0  0  0  0
   26.2182  -20.2673   -9.0580 N   0  0  0  0  0  0  0  0  0  0  0  0
   25.5395  -21.0828   -6.9401 C   0  0  0  0  0  0  0  0  0  0  0  0
   25.6619  -21.9556   -5.8723 O   0  0  0  0  0  0  0  0  0  0  0  0
   24.4092  -20.5576   -7.1485 O   0  0  0  0  0  0  0  0  0  0  0  0
  2  3  1  0
  2  1  1  6
  4  3  1  0
  5  6  2  0
  5  2  1  0
  7  5  1  0
  8 13  1  0
  8  7  1  0
  8  9  1  6
 10  9  1  0
 10 11  1  0
 11 12  2  0
 13 21  1  0
 14 13  2  0
 15 11  1  0
 17 16  1  0
 18 17  1  0
 18 20  1  0
 18 19  1  1
 20 22  1  0
 20 21  1  6
 22 24  2  0
 22 23  1  0
M  END
$$$$
