CEI.pdb
     RDKit          3D

 24 23  0  0  1  0  0  0  0  0999 V2000
   17.0831  -12.7389  -17.0919 N   0  0  0  0  0  0  0  0  0  0  0  0
   17.0899  -11.9878  -15.8773 C   0  0  1  0  0  0  0  0  0  0  0  0
   17.7148  -12.7663  -14.7427 C   0  0  0  0  0  0  0  0  0  0  0  0
   16.4797  -13.9792  -14.1829 S   0  0  0  0  0  0  0  0  0  0  0  0
   17.6687  -10.6566  -16.0532 C   0  0  0  0  0  0  0  0  0  0  0  0
   18.7978  -10.5718  -16.6398 O   0  0  0  0  0  0  0  0  0  0  0  0
   17.0933   -9.4470  -15.6329 N   0  0  0  0  0  0  0  0  0  0  0  0
   17.6644   -8.1730  -15.9272 C   0  0  1  0  0  0  0  0  0  0  0  0
   16.6267   -7.0523  -15.8133 C   0  0  0  0  0  0  0  0  0  0  0  0
   16.3465   -6.4858  -17.1943 C   0  0  0  0  0  0  0  0  0  0  0  0
   15.6883   -5.1836  -17.1346 C   0  0  0  0  0  0  0  0  0  0  0  0
   15.5134   -4.4944  -18.1649 O   0  0  0  0  0  0  0  0  0  0  0  0
   18.7809   -7.8090  -15.0155 C   0  0  0  0  0  0  0  0  0  0  0  0
   18.6502   -8.1227  -13.8038 O   0  0  0  0  0  0  0  0  0  0  0  0
   15.2432   -4.6869  -15.9244 O   0  0  0  0  0  0  0  0  0  0  0  0
   23.4157   -9.7671  -14.8455 C   0  0  0  0  0  0  0  0  0  0  0  0
   22.1364   -9.0439  -14.5645 C   0  0  0  0  0  0  0  0  0  0  0  0
   22.3123   -7.5498  -14.8660 C   0  0  2  0  0  0  0  0  0  0  0  0
   23.3986   -7.0513  -13.9379 C   0  0  0  0  0  0  0  0  0  0  0  0
   21.0454   -6.7999  -14.5212 C   0  0  2  0  0  0  0  0  0  0  0  0
   19.9539   -7.1479  -15.4139 N   0  0  0  0  0  0  0  0  0  0  0  0
   21.3119   -5.3495  -14.6839 C   0  0  0  0  0  0  0  0  0  0  0  0
   20.8800   -4.6900  -15.8219 O   0  0  0  0  0  0  0  0  0  0  0  0
   21.9293   -4.6781  -13.8092 O   0  0  0  0  0  0  0  0  0  0  0  0
  2  3  1  0
  2  1  1  6
  4  3  1  0
  5  6  2  0
  5  2  1  0
  7  5  1  0
  8 13  1  0
  8  7  1  0
  8  9  1  1
 10  9  1  0
 10 11  1  0
 11 12  2  0
 13 21  1  0
 14 13  2  0
 15 11  1  0
 17 16  1  0
 18 17  1  0
 18 20  1  0
 18 19  1  1
 20 22  1  0
 20 21  1  6
 22 24  2  0
 22 23  1  0
M  END
$$$$
