CEI.pdb
     RDKit          3D

 24 23  0  0  1  0  0  0  0  0999 V2000
   15.5214  -13.8320  -13.5727 N   0  0  0  0  0  0  0  0  0  0  0  0
   15.0224  -12.5067  -13.7566 C   0  0  1  0  0  0  0  0  0  0  0  0
   13.5542  -12.4098  -13.4112 C   0  0  0  0  0  0  0  0  0  0  0  0
   12.6295  -13.1326  -14.8014 S   0  0  0  0  0  0  0  0  0  0  0  0
   15.8439  -11.5068  -13.0761 C   0  0  0  0  0  0  0  0  0  0  0  0
   16.3062  -11.8006  -11.9245 O   0  0  0  0  0  0  0  0  0  0  0  0
   16.1770  -10.2376  -13.5751 N   0  0  0  0  0  0  0  0  0  0  0  0
   16.9460   -9.2905  -12.8351 C   0  0  1  0  0  0  0  0  0  0  0  0
   18.0268   -8.6418  -13.7050 C   0  0  0  0  0  0  0  0  0  0  0  0
   18.7972   -7.6292  -12.8759 C   0  0  0  0  0  0  0  0  0  0  0  0
   19.8232   -6.9420  -13.6556 C   0  0  0  0  0  0  0  0  0  0  0  0
   20.2413   -5.8089  -13.3267 O   0  0  0  0  0  0  0  0  0  0  0  0
   16.1278   -8.1802  -12.2801 C   0  0  0  0  0  0  0  0  0  0  0  0
   15.3183   -7.6230  -13.0662 O   0  0  0  0  0  0  0  0  0  0  0  0
   20.3541   -7.5406  -14.7822 O   0  0  0  0  0  0  0  0  0  0  0  0
   12.8659   -6.7084   -7.4711 C   0  0  0  0  0  0  0  0  0  0  0  0
   13.6784   -6.1438   -8.5936 C   0  0  0  0  0  0  0  0  0  0  0  0
   14.6111   -7.2274   -9.1502 C   0  0  2  0  0  0  0  0  0  0  0  0
   15.6659   -7.4685   -8.0922 C   0  0  0  0  0  0  0  0  0  0  0  0
   15.3192   -6.7161  -10.3846 C   0  0  2  0  0  0  0  0  0  0  0  0
   16.1994   -7.7206  -10.9552 N   0  0  0  0  0  0  0  0  0  0  0  0
   16.1586   -5.5594   -9.9861 C   0  0  0  0  0  0  0  0  0  0  0  0
   15.5862   -4.3075   -9.8378 O   0  0  0  0  0  0  0  0  0  0  0  0
   17.3990   -5.6720   -9.7723 O   0  0  0  0  0  0  0  0  0  0  0  0
  2  3  1  0
  2  1  1  1
  4  3  1  0
  5  6  2  0
  5  2  1  0
  7  5  1  0
  8 13  1  0
  8  7  1  0
  8  9  1  6
 10  9  1  0
 10 11  1  0
 11 12  2  0
 13 21  1  0
 14 13  2  0
 15 11  1  0
 17 16  1  0
 18 17  1  0
 18 20  1  0
 18 19  1  1
 20 22  1  0
 20 21  1  1
 22 24  2  0
 22 23  1  0
M  END
$$$$
