CEI.pdb
     RDKit          3D

 24 23  0  0  1  0  0  0  0  0999 V2000
   27.5092  -19.2645  -15.4821 N   0  0  0  0  0  0  0  0  0  0  0  0
   27.4495  -20.4115  -14.6334 C   0  0  1  0  0  0  0  0  0  0  0  0
   28.8221  -20.9916  -14.3811 C   0  0  0  0  0  0  0  0  0  0  0  0
   29.3612  -21.7812  -15.9290 S   0  0  0  0  0  0  0  0  0  0  0  0
   26.6961  -20.1538  -13.4071 C   0  0  0  0  0  0  0  0  0  0  0  0
   26.8146  -19.0049  -12.8666 O   0  0  0  0  0  0  0  0  0  0  0  0
   25.8437  -21.0615  -12.7589 N   0  0  0  0  0  0  0  0  0  0  0  0
   25.0889  -20.7223  -11.5965 C   0  0  1  0  0  0  0  0  0  0  0  0
   23.7033  -21.3745  -11.6161 C   0  0  0  0  0  0  0  0  0  0  0  0
   22.6391  -20.2940  -11.5356 C   0  0  0  0  0  0  0  0  0  0  0  0
   22.1695  -19.8812  -12.8554 C   0  0  0  0  0  0  0  0  0  0  0  0
   21.9444  -20.7188  -13.7580 O   0  0  0  0  0  0  0  0  0  0  0  0
   25.7404  -21.1523  -10.3313 C   0  0  0  0  0  0  0  0  0  0  0  0
   26.2465  -22.3045  -10.3160 O   0  0  0  0  0  0  0  0  0  0  0  0
   21.9642  -18.5426  -13.1303 O   0  0  0  0  0  0  0  0  0  0  0  0
   28.8390  -19.0711   -5.4945 C   0  0  0  0  0  0  0  0  0  0  0  0
   27.9979  -20.1701   -6.0633 C   0  0  0  0  0  0  0  0  0  0  0  0
   27.2493  -19.6580   -7.3007 C   0  0  2  0  0  0  0  0  0  0  0  0
   26.2431  -18.6435   -6.8025 C   0  0  0  0  0  0  0  0  0  0  0  0
   26.4725  -20.7873   -7.9393 C   0  0  2  0  0  0  0  0  0  0  0  0
   25.8259  -20.3673   -9.1702 N   0  0  0  0  0  0  0  0  0  0  0  0
   25.4079  -21.2041   -6.9938 C   0  0  0  0  0  0  0  0  0  0  0  0
   25.7201  -22.0081   -5.9108 O   0  0  0  0  0  0  0  0  0  0  0  0
   24.2039  -20.8485   -7.1392 O   0  0  0  0  0  0  0  0  0  0  0  0
  2  3  1  0
  2  1  1  1
  4  3  1  0
  5  6  2  0
  5  2  1  0
  7  5  1  0
  8 13  1  0
  8  7  1  0
  8  9  1  6
 10  9  1  0
 10 11  1  0
 11 12  2  0
 13 21  1  0
 14 13  2  0
 15 11  1  0
 17 16  1  0
 18 17  1  0
 18 20  1  0
 18 19  1  1
 20 22  1  0
 20 21  1  6
 22 24  2  0
 22 23  1  0
M  END
$$$$
