CEI.pdb
     RDKit          3D

 24 23  0  0  1  0  0  0  0  0999 V2000
   16.9770  -13.6858  -18.0318 N   0  0  0  0  0  0  0  0  0  0  0  0
   16.4956  -12.5093  -17.3811 C   0  0  1  0  0  0  0  0  0  0  0  0
   15.9143  -12.8212  -16.0213 C   0  0  0  0  0  0  0  0  0  0  0  0
   14.2928  -13.5983  -16.2988 S   0  0  0  0  0  0  0  0  0  0  0  0
   17.4969  -11.4442  -17.3517 C   0  0  0  0  0  0  0  0  0  0  0  0
   18.7139  -11.7771  -17.1666 O   0  0  0  0  0  0  0  0  0  0  0  0
   17.2440  -10.0724  -17.5098 N   0  0  0  0  0  0  0  0  0  0  0  0
   18.2817   -9.0958  -17.5829 C   0  0  1  0  0  0  0  0  0  0  0  0
   17.7510   -7.7481  -18.0807 C   0  0  0  0  0  0  0  0  0  0  0  0
   18.9079   -6.7742  -18.2207 C   0  0  0  0  0  0  0  0  0  0  0  0
   18.4750   -5.4683  -18.7105 C   0  0  0  0  0  0  0  0  0  0  0  0
   19.1838   -4.4478  -18.5580 O   0  0  0  0  0  0  0  0  0  0  0  0
   18.9317   -8.8354  -16.2714 C   0  0  0  0  0  0  0  0  0  0  0  0
   18.1867   -8.8399  -15.2572 O   0  0  0  0  0  0  0  0  0  0  0  0
   17.2611   -5.3386  -19.3579 O   0  0  0  0  0  0  0  0  0  0  0  0
   22.4681  -10.5824  -12.3718 C   0  0  0  0  0  0  0  0  0  0  0  0
   22.6566   -9.3625  -13.2175 C   0  0  0  0  0  0  0  0  0  0  0  0
   21.9627   -9.5621  -14.5713 C   0  0  2  0  0  0  0  0  0  0  0  0
   23.0373   -9.4217  -15.6275 C   0  0  0  0  0  0  0  0  0  0  0  0
   20.9552   -8.4587  -14.8037 C   0  0  2  0  0  0  0  0  0  0  0  0
   20.3027   -8.5886  -16.0947 N   0  0  0  0  0  0  0  0  0  0  0  0
   21.6817   -7.1651  -14.7973 C   0  0  0  0  0  0  0  0  0  0  0  0
   21.9460   -6.5258  -13.5981 O   0  0  0  0  0  0  0  0  0  0  0  0
   22.0770   -6.6118  -15.8625 O   0  0  0  0  0  0  0  0  0  0  0  0
  2  3  1  0
  2  1  1  1
  4  3  1  0
  5  6  2  0
  5  2  1  0
  7  5  1  0
  8 13  1  0
  8  7  1  0
  8  9  1  1
 10  9  1  0
 10 11  1  0
 11 12  2  0
 13 21  1  0
 14 13  2  0
 15 11  1  0
 17 16  1  0
 18 17  1  0
 18 20  1  0
 18 19  1  6
 20 22  1  0
 20 21  1  6
 22 24  2  0
 22 23  1  0
M  END
$$$$
