CEI.pdb
     RDKit          3D

 24 23  0  0  1  0  0  0  0  0999 V2000
   23.8902  -13.4020  -18.1705 N   0  0  0  0  0  0  0  0  0  0  0  0
   23.7176  -12.8275  -16.8745 C   0  0  1  0  0  0  0  0  0  0  0  0
   25.0381  -12.6544  -16.1600 C   0  0  0  0  0  0  0  0  0  0  0  0
   25.6565  -14.3202  -15.7691 S   0  0  0  0  0  0  0  0  0  0  0  0
   22.9164  -11.6050  -16.9135 C   0  0  0  0  0  0  0  0  0  0  0  0
   23.1220  -10.7894  -17.8720 O   0  0  0  0  0  0  0  0  0  0  0  0
   21.9296  -11.2380  -15.9849 N   0  0  0  0  0  0  0  0  0  0  0  0
   21.1136  -10.0776  -16.1380 C   0  0  1  0  0  0  0  0  0  0  0  0
   19.7170  -10.2906  -15.5467 C   0  0  0  0  0  0  0  0  0  0  0  0
   18.8456   -9.0903  -15.8729 C   0  0  0  0  0  0  0  0  0  0  0  0
   17.5066   -9.2076  -15.3020 C   0  0  0  0  0  0  0  0  0  0  0  0
   17.2512   -8.7907  -14.1496 O   0  0  0  0  0  0  0  0  0  0  0  0
   21.6768   -8.8754  -15.4689 C   0  0  0  0  0  0  0  0  0  0  0  0
   22.2978   -9.0639  -14.3906 O   0  0  0  0  0  0  0  0  0  0  0  0
   16.4892   -9.7879  -16.0351 O   0  0  0  0  0  0  0  0  0  0  0  0
   24.8485   -5.7732  -18.0696 C   0  0  0  0  0  0  0  0  0  0  0  0
   24.1636   -6.4944  -16.9517 C   0  0  0  0  0  0  0  0  0  0  0  0
   23.0107   -5.6362  -16.4148 C   0  0  2  0  0  0  0  0  0  0  0  0
   23.6469   -4.4561  -15.7130 C   0  0  0  0  0  0  0  0  0  0  0  0
   22.2295   -6.4103  -15.3771 C   0  0  2  0  0  0  0  0  0  0  0  0
   21.5618   -7.5632  -15.9554 N   0  0  0  0  0  0  0  0  0  0  0  0
   21.1816   -5.5143  -14.8290 C   0  0  0  0  0  0  0  0  0  0  0  0
   21.3984   -4.8443  -13.6370 O   0  0  0  0  0  0  0  0  0  0  0  0
   20.0776   -5.3339  -15.4169 O   0  0  0  0  0  0  0  0  0  0  0  0
  2  3  1  0
  2  1  1  6
  4  3  1  0
  5  6  2  0
  5  2  1  0
  7  5  1  0
  8 13  1  0
  8  7  1  0
  8  9  1  1
 10  9  1  0
 10 11  1  0
 11 12  2  0
 13 21  1  0
 14 13  2  0
 15 11  1  0
 17 16  1  0
 18 17  1  0
 18 20  1  0
 18 19  1  1
 20 22  1  0
 20 21  1  6
 22 24  2  0
 22 23  1  0
M  END
$$$$
