CEI.pdb
     RDKit          3D

 24 23  0  0  1  0  0  0  0  0999 V2000
   28.3733  -20.1596  -17.2766 N   0  0  0  0  0  0  0  0  0  0  0  0
   28.3127  -20.8774  -16.0435 C   0  0  1  0  0  0  0  0  0  0  0  0
   29.6763  -21.0066  -15.4049 C   0  0  0  0  0  0  0  0  0  0  0  0
   29.6907  -22.5786  -14.4891 S   0  0  0  0  0  0  0  0  0  0  0  0
   27.2989  -20.3380  -15.1385 C   0  0  0  0  0  0  0  0  0  0  0  0
   27.2891  -19.0784  -14.9394 O   0  0  0  0  0  0  0  0  0  0  0  0
   26.3223  -21.0831  -14.4588 N   0  0  0  0  0  0  0  0  0  0  0  0
   25.3156  -20.4828  -13.6452 C   0  0  1  0  0  0  0  0  0  0  0  0
   23.9360  -20.5661  -14.3052 C   0  0  0  0  0  0  0  0  0  0  0  0
   22.9094  -19.8977  -13.4076 C   0  0  0  0  0  0  0  0  0  0  0  0
   21.5645  -19.9455  -13.9748 C   0  0  0  0  0  0  0  0  0  0  0  0
   20.8775  -20.9912  -13.9346 O   0  0  0  0  0  0  0  0  0  0  0  0
   25.1846  -21.1241  -12.3103 C   0  0  0  0  0  0  0  0  0  0  0  0
   25.0179  -22.3714  -12.2931 O   0  0  0  0  0  0  0  0  0  0  0  0
   21.0239  -18.8226  -14.5718 O   0  0  0  0  0  0  0  0  0  0  0  0
   27.7803  -19.1201   -7.9494 C   0  0  0  0  0  0  0  0  0  0  0  0
   27.2096  -20.1304   -8.8941 C   0  0  0  0  0  0  0  0  0  0  0  0
   25.6933  -20.2333   -8.6839 C   0  0  2  0  0  0  0  0  0  0  0  0
   25.4915  -20.9838   -7.3855 C   0  0  0  0  0  0  0  0  0  0  0  0
   25.0736  -21.0633   -9.7855 C   0  0  2  0  0  0  0  0  0  0  0  0
   25.2343  -20.4377  -11.0863 N   0  0  0  0  0  0  0  0  0  0  0  0
   23.6184  -21.1698   -9.5165 C   0  0  0  0  0  0  0  0  0  0  0  0
   22.7376  -20.2845  -10.1142 O   0  0  0  0  0  0  0  0  0  0  0  0
   23.1403  -22.0527   -8.7491 O   0  0  0  0  0  0  0  0  0  0  0  0
  2  3  1  0
  2  1  1  6
  4  3  1  0
  5  6  2  0
  5  2  1  0
  7  5  1  0
  8 13  1  0
  8  7  1  0
  8  9  1  6
 10  9  1  0
 10 11  1  0
 11 12  2  0
 13 21  1  0
 14 13  2  0
 15 11  1  0
 17 16  1  0
 18 17  1  0
 18 20  1  0
 18 19  1  1
 20 22  1  0
 20 21  1  6
 22 24  2  0
 22 23  1  0
M  END
$$$$
