CEI.pdb
     RDKit          3D

 24 23  0  0  1  0  0  0  0  0999 V2000
   17.3334  -13.0362  -18.5962 N   0  0  0  0  0  0  0  0  0  0  0  0
   18.7568  -12.9347  -18.6508 C   0  0  1  0  0  0  0  0  0  0  0  0
   19.3195  -13.6248  -19.8719 C   0  0  0  0  0  0  0  0  0  0  0  0
   18.9395  -15.3964  -19.7072 S   0  0  0  0  0  0  0  0  0  0  0  0
   19.2193  -11.5557  -18.5010 C   0  0  0  0  0  0  0  0  0  0  0  0
   20.4766  -11.3545  -18.4310 O   0  0  0  0  0  0  0  0  0  0  0  0
   18.4016  -10.4171  -18.4260 N   0  0  0  0  0  0  0  0  0  0  0  0
   18.9096   -9.1149  -18.1390 C   0  0  1  0  0  0  0  0  0  0  0  0
   17.8532   -8.0332  -18.3834 C   0  0  0  0  0  0  0  0  0  0  0  0
   17.6078   -7.8998  -19.8762 C   0  0  0  0  0  0  0  0  0  0  0  0
   16.5759   -6.9124  -20.1809 C   0  0  0  0  0  0  0  0  0  0  0  0
   16.0409   -6.2298  -19.2782 O   0  0  0  0  0  0  0  0  0  0  0  0
   19.3549   -8.9596  -16.7291 C   0  0  0  0  0  0  0  0  0  0  0  0
   18.5891   -9.4114  -15.8384 O   0  0  0  0  0  0  0  0  0  0  0  0
   16.1700   -6.7149  -21.4869 O   0  0  0  0  0  0  0  0  0  0  0  0
   23.2931  -10.6772  -12.9591 C   0  0  0  0  0  0  0  0  0  0  0  0
   22.4952   -9.4474  -13.2584 C   0  0  0  0  0  0  0  0  0  0  0  0
   21.9813   -9.5056  -14.7028 C   0  0  2  0  0  0  0  0  0  0  0  0
   23.1928   -9.3424  -15.5947 C   0  0  0  0  0  0  0  0  0  0  0  0
   21.0621   -8.3355  -14.9723 C   0  0  2  0  0  0  0  0  0  0  0  0
   20.5567   -8.3504  -16.3338 N   0  0  0  0  0  0  0  0  0  0  0  0
   21.8453   -7.0874  -14.7990 C   0  0  0  0  0  0  0  0  0  0  0  0
   22.2221   -6.3474  -15.9068 O   0  0  0  0  0  0  0  0  0  0  0  0
   22.1894   -6.6635  -13.6593 O   0  0  0  0  0  0  0  0  0  0  0  0
  2  3  1  0
  2  1  1  6
  4  3  1  0
  5  6  2  0
  5  2  1  0
  7  5  1  0
  8 13  1  0
  8  7  1  0
  8  9  1  1
 10  9  1  0
 10 11  1  0
 11 12  2  0
 13 21  1  0
 14 13  2  0
 15 11  1  0
 17 16  1  0
 18 17  1  0
 18 20  1  0
 18 19  1  6
 20 22  1  0
 20 21  1  6
 22 24  2  0
 22 23  1  0
M  END
$$$$
