CEI.pdb
     RDKit          3D

 24 23  0  0  1  0  0  0  0  0999 V2000
   25.8812  -20.2650   -8.8570 N   0  0  0  0  0  0  0  0  0  0  0  0
   25.5517  -20.9703  -10.0542 C   0  0  1  0  0  0  0  0  0  0  0  0
   24.0603  -21.1744  -10.1897 C   0  0  0  0  0  0  0  0  0  0  0  0
   23.2739  -19.5536   -9.9353 S   0  0  0  0  0  0  0  0  0  0  0  0
   26.1628  -20.3672  -11.2377 C   0  0  0  0  0  0  0  0  0  0  0  0
   26.7614  -19.2504  -11.0943 O   0  0  0  0  0  0  0  0  0  0  0  0
   26.1539  -20.9066  -12.5338 N   0  0  0  0  0  0  0  0  0  0  0  0
   26.6950  -20.2218  -13.6626 C   0  0  1  0  0  0  0  0  0  0  0  0
   27.2456  -21.2014  -14.7033 C   0  0  0  0  0  0  0  0  0  0  0  0
   27.8134  -20.4209  -15.8758 C   0  0  0  0  0  0  0  0  0  0  0  0
   28.3846  -21.2948  -16.8970 C   0  0  0  0  0  0  0  0  0  0  0  0
   28.3959  -22.5388  -16.7575 O   0  0  0  0  0  0  0  0  0  0  0  0
   25.6956  -19.3756  -14.3663 C   0  0  0  0  0  0  0  0  0  0  0  0
   24.5150  -19.8091  -14.4111 O   0  0  0  0  0  0  0  0  0  0  0  0
   28.9277  -20.7541  -18.0468 O   0  0  0  0  0  0  0  0  0  0  0  0
   27.3369  -14.4494  -15.3306 C   0  0  0  0  0  0  0  0  0  0  0  0
   26.0917  -15.1875  -14.9522 C   0  0  0  0  0  0  0  0  0  0  0  0
   25.6027  -16.0187  -16.1455 C   0  0  2  0  0  0  0  0  0  0  0  0
   24.4926  -15.2218  -16.7956 C   0  0  0  0  0  0  0  0  0  0  0  0
   25.0003  -17.3175  -15.6591 C   0  0  2  0  0  0  0  0  0  0  0  0
   25.9803  -18.1425  -14.9748 N   0  0  0  0  0  0  0  0  0  0  0  0
   24.5257  -18.0750  -16.8433 C   0  0  0  0  0  0  0  0  0  0  0  0
   25.4384  -18.6961  -17.6787 O   0  0  0  0  0  0  0  0  0  0  0  0
   23.2985  -18.1787  -17.1263 O   0  0  0  0  0  0  0  0  0  0  0  0
  2  3  1  0
  2  1  1  1
  4  3  1  0
  5  6  2  0
  5  2  1  0
  7  5  1  0
  8 13  1  0
  8  7  1  0
  8  9  1  6
 10  9  1  0
 10 11  1  0
 11 12  2  0
 13 21  1  0
 14 13  2  0
 15 11  1  0
 17 16  1  0
 18 17  1  0
 18 20  1  0
 18 19  1  1
 20 22  1  0
 20 21  1  6
 22 24  2  0
 22 23  1  0
M  END
$$$$
