CEI.pdb
     RDKit          3D

 24 23  0  0  1  0  0  0  0  0999 V2000
   19.4298  -16.1245  -18.2552 N   0  0  0  0  0  0  0  0  0  0  0  0
   19.5133  -15.4618  -16.9930 C   0  0  1  0  0  0  0  0  0  0  0  0
   20.4231  -16.1966  -16.0356 C   0  0  0  0  0  0  0  0  0  0  0  0
   19.4805  -17.6075  -15.3792 S   0  0  0  0  0  0  0  0  0  0  0  0
   19.8443  -14.0445  -17.1329 C   0  0  0  0  0  0  0  0  0  0  0  0
   20.7613  -13.7268  -17.9601 O   0  0  0  0  0  0  0  0  0  0  0  0
   19.2416  -12.9859  -16.4350 N   0  0  0  0  0  0  0  0  0  0  0  0
   19.6438  -11.6258  -16.5906 C   0  0  1  0  0  0  0  0  0  0  0  0
   18.4651  -10.6662  -16.4016 C   0  0  0  0  0  0  0  0  0  0  0  0
   18.9273   -9.2449  -16.6714 C   0  0  0  0  0  0  0  0  0  0  0  0
   17.8378   -8.2788  -16.5603 C   0  0  0  0  0  0  0  0  0  0  0  0
   18.0225   -7.0606  -16.7812 O   0  0  0  0  0  0  0  0  0  0  0  0
   20.6871  -11.2104  -15.6163 C   0  0  0  0  0  0  0  0  0  0  0  0
   20.5530  -11.6166  -14.4327 O   0  0  0  0  0  0  0  0  0  0  0  0
   16.5708   -8.7010  -16.2052 O   0  0  0  0  0  0  0  0  0  0  0  0
   25.7900  -12.0956  -16.0285 C   0  0  0  0  0  0  0  0  0  0  0  0
   24.4006  -11.8044  -15.5559 C   0  0  0  0  0  0  0  0  0  0  0  0
   24.1999  -10.2870  -15.4502 C   0  0  2  0  0  0  0  0  0  0  0  0
   25.1595   -9.8018  -14.3855 C   0  0  0  0  0  0  0  0  0  0  0  0
   22.7996   -9.9829  -14.9674 C   0  0  2  0  0  0  0  0  0  0  0  0
   21.7953  -10.4062  -15.9274 N   0  0  0  0  0  0  0  0  0  0  0  0
   22.6775   -8.5126  -14.8105 C   0  0  0  0  0  0  0  0  0  0  0  0
   22.7793   -7.9399  -13.5541 O   0  0  0  0  0  0  0  0  0  0  0  0
   22.4804   -7.7463  -15.7959 O   0  0  0  0  0  0  0  0  0  0  0  0
  2  3  1  0
  2  1  1  6
  4  3  1  0
  5  6  2  0
  5  2  1  0
  7  5  1  0
  8 13  1  0
  8  7  1  0
  8  9  1  1
 10  9  1  0
 10 11  1  0
 11 12  2  0
 13 21  1  0
 14 13  2  0
 15 11  1  0
 17 16  1  0
 18 17  1  0
 18 20  1  0
 18 19  1  1
 20 22  1  0
 20 21  1  6
 22 24  2  0
 22 23  1  0
M  END
$$$$
