CEI.pdb
     RDKit          3D

 24 23  0  0  1  0  0  0  0  0999 V2000
   15.8773  -13.7865  -14.1188 N   0  0  0  0  0  0  0  0  0  0  0  0
   15.2862  -12.5672  -14.5699 C   0  0  1  0  0  0  0  0  0  0  0  0
   13.7777  -12.6152  -14.4909 C   0  0  0  0  0  0  0  0  0  0  0  0
   13.3421  -12.8782  -12.7441 S   0  0  0  0  0  0  0  0  0  0  0  0
   15.8630  -11.3960  -13.9115 C   0  0  0  0  0  0  0  0  0  0  0  0
   16.2480  -11.5229  -12.7024 O   0  0  0  0  0  0  0  0  0  0  0  0
   16.0359  -10.1287  -14.4899 N   0  0  0  0  0  0  0  0  0  0  0  0
   16.5787   -9.0182  -13.7771 C   0  0  1  0  0  0  0  0  0  0  0  0
   17.0382   -7.9097  -14.7289 C   0  0  0  0  0  0  0  0  0  0  0  0
   17.7825   -6.8472  -13.9394 C   0  0  0  0  0  0  0  0  0  0  0  0
   19.1760   -7.2119  -13.6988 C   0  0  0  0  0  0  0  0  0  0  0  0
   19.5433   -7.6938  -12.6035 O   0  0  0  0  0  0  0  0  0  0  0  0
   15.6073   -8.3946  -12.8402 C   0  0  0  0  0  0  0  0  0  0  0  0
   14.4234   -8.2707  -13.2487 O   0  0  0  0  0  0  0  0  0  0  0  0
   20.1214   -7.0278  -14.6897 O   0  0  0  0  0  0  0  0  0  0  0  0
   12.8241   -7.9575   -8.2980 C   0  0  0  0  0  0  0  0  0  0  0  0
   14.1014   -7.1782   -8.3046 C   0  0  0  0  0  0  0  0  0  0  0  0
   15.1161   -7.8602   -9.2315 C   0  0  2  0  0  0  0  0  0  0  0  0
   16.4875   -7.4564   -8.7353 C   0  0  0  0  0  0  0  0  0  0  0  0
   14.9709   -7.3269  -10.6389 C   0  0  2  0  0  0  0  0  0  0  0  0
   15.9213   -7.9421  -11.5486 N   0  0  0  0  0  0  0  0  0  0  0  0
   15.2565   -5.8713  -10.6099 C   0  0  0  0  0  0  0  0  0  0  0  0
   16.4789   -5.3970  -11.0546 O   0  0  0  0  0  0  0  0  0  0  0  0
   14.4135   -5.0299  -10.1875 O   0  0  0  0  0  0  0  0  0  0  0  0
  2  3  1  0
  2  1  1  1
  4  3  1  0
  5  6  2  0
  5  2  1  0
  7  5  1  0
  8 13  1  0
  8  7  1  0
  8  9  1  6
 10  9  1  0
 10 11  1  0
 11 12  2  0
 13 21  1  0
 14 13  2  0
 15 11  1  0
 17 16  1  0
 18 17  1  0
 18 20  1  0
 18 19  1  1
 20 22  1  0
 20 21  1  6
 22 24  2  0
 22 23  1  0
M  END
$$$$
