NML.pdb
     RDKit          3D

 25 24  0  0  1  0  0  0  0  0999 V2000
    9.6179  -16.6806   16.6461 N   0  0  0  0  0  0  0  0  0  0  0  0
   10.5044  -16.9149   17.7322 C   0  0  0  0  0  0  0  0  0  0  0  0
   11.3618  -17.8200   17.5665 O   0  0  0  0  0  0  0  0  0  0  0  0
   10.4844  -16.1887   18.9987 C   0  0  0  0  0  0  0  0  0  0  0  0
   10.1358  -17.0052   20.1900 C   0  0  2  0  0  0  0  0  0  0  0  0
    8.9380  -17.7579   20.1052 N   0  0  0  0  0  0  0  0  0  0  0  0
   10.0433  -16.1080   21.3810 C   0  0  0  0  0  0  0  0  0  0  0  0
   11.0377  -15.3465   21.5606 O   0  0  0  0  0  0  0  0  0  0  0  0
    5.7220  -11.9618   26.1051 C   0  0  0  0  0  0  0  0  0  0  0  0
    5.7352  -13.6678   25.4629 S   0  0  0  0  0  0  0  0  0  0  0  0
    7.4482  -14.1117   25.0668 C   0  0  0  0  0  0  0  0  0  0  0  0
    7.4407  -14.9041   23.7745 C   0  0  0  0  0  0  0  0  0  0  0  0
    8.8621  -15.2755   23.3985 C   0  0  2  0  0  0  0  0  0  0  0  0
    8.9226  -16.1110   22.2461 N   0  0  0  0  0  0  0  0  0  0  0  0
    9.4532  -15.9430   24.5806 C   0  0  0  0  0  0  0  0  0  0  0  0
    9.5790  -17.1904   24.5530 O   0  0  0  0  0  0  0  0  0  0  0  0
   10.4942  -14.3929   30.3889 C   0  0  0  0  0  0  0  0  0  0  0  0
   11.0351  -15.3033   29.3035 C   0  0  2  0  0  0  0  0  0  0  0  0
   12.4528  -15.6159   29.5452 C   0  0  0  0  0  0  0  0  0  0  0  0
   10.5882  -14.9292   27.9521 C   0  0  0  0  0  0  0  0  0  0  0  0
   10.5575  -15.9348   26.8704 C   0  0  2  0  0  0  0  0  0  0  0  0
    9.8809  -15.2507   25.7331 N   0  0  0  0  0  0  0  0  0  0  0  0
    9.7512  -17.1112   27.2337 C   0  0  0  0  0  0  0  0  0  0  0  0
   10.2680  -18.1961   27.5321 O   0  0  0  0  0  0  0  0  0  0  0  0
    8.3399  -17.0575   27.2595 O   0  0  0  0  0  0  0  0  0  0  0  0
  1  2  1  0
  2  3  2  0
  4  2  1  0
  5  7  1  0
  5  4  1  0
  5  6  1  6
  7  8  2  0
  9 10  1  0
 10 11  1  0
 12 11  1  0
 13 12  1  1
 13 14  1  0
 14  7  1  0
 15 13  1  0
 16 15  2  0
 18 17  1  1
 18 20  1  0
 18 19  1  0
 21 20  1  1
 21 22  1  0
 21 23  1  0
 22 15  1  0
 23 25  1  0
 24 23  2  0
M  END
$$$$
