NML.pdb
     RDKit          3D

 25 24  0  0  1  0  0  0  0  0999 V2000
   10.7960  -17.0731   17.0838 N   0  0  0  0  0  0  0  0  0  0  0  0
   11.4295  -17.1266   18.3551 C   0  0  0  0  0  0  0  0  0  0  0  0
   12.4292  -17.8840   18.4482 O   0  0  0  0  0  0  0  0  0  0  0  0
   11.0042  -16.3756   19.5328 C   0  0  0  0  0  0  0  0  0  0  0  0
   10.5623  -17.2033   20.6847 C   0  0  2  0  0  0  0  0  0  0  0  0
    9.3383  -17.8992   20.5234 N   0  0  0  0  0  0  0  0  0  0  0  0
   10.4511  -16.3312   21.8926 C   0  0  0  0  0  0  0  0  0  0  0  0
   11.4969  -15.6828   22.1872 O   0  0  0  0  0  0  0  0  0  0  0  0
    6.2364  -12.2805   27.0627 C   0  0  0  0  0  0  0  0  0  0  0  0
    6.1750  -13.3957   25.6220 S   0  0  0  0  0  0  0  0  0  0  0  0
    7.8031  -14.1724   25.4359 C   0  0  0  0  0  0  0  0  0  0  0  0
    7.7916  -14.9852   24.1564 C   0  0  0  0  0  0  0  0  0  0  0  0
    9.1943  -15.4756   23.8539 C   0  0  2  0  0  0  0  0  0  0  0  0
    9.2600  -16.2381   22.6523 N   0  0  0  0  0  0  0  0  0  0  0  0
    9.6264  -16.2738   25.0238 C   0  0  0  0  0  0  0  0  0  0  0  0
    9.6079  -17.5237   24.9253 O   0  0  0  0  0  0  0  0  0  0  0  0
   11.2816  -13.4176   27.4711 C   0  0  0  0  0  0  0  0  0  0  0  0
   10.3681  -14.2144   28.3821 C   0  0  2  0  0  0  0  0  0  0  0  0
   10.0495  -13.4492   29.5982 C   0  0  0  0  0  0  0  0  0  0  0  0
   10.7430  -15.6337   28.4877 C   0  0  0  0  0  0  0  0  0  0  0  0
   10.7673  -16.4914   27.2852 C   0  0  2  0  0  0  0  0  0  0  0  0
   10.0565  -15.7028   26.2401 N   0  0  0  0  0  0  0  0  0  0  0  0
   10.0243  -17.7457   27.4874 C   0  0  0  0  0  0  0  0  0  0  0  0
   10.5149  -18.7113   28.0874 O   0  0  0  0  0  0  0  0  0  0  0  0
    8.7073  -17.9081   27.0032 O   0  0  0  0  0  0  0  0  0  0  0  0
  1  2  1  0
  2  3  2  0
  4  2  1  0
  5  7  1  0
  5  4  1  0
  5  6  1  6
  7  8  2  0
  9 10  1  0
 10 11  1  0
 12 11  1  0
 13 12  1  1
 13 14  1  0
 14  7  1  0
 15 13  1  0
 16 15  2  0
 18 17  1  1
 18 20  1  0
 18 19  1  0
 21 20  1  1
 21 22  1  0
 21 23  1  0
 22 15  1  0
 23 25  1  0
 24 23  2  0
M  END
$$$$
