NML.pdb
     RDKit          3D

 25 24  0  0  1  0  0  0  0  0999 V2000
    8.8818  -19.9041   19.4188 N   0  0  0  0  0  0  0  0  0  0  0  0
    8.9636  -18.5415   19.0228 C   0  0  0  0  0  0  0  0  0  0  0  0
    9.1354  -18.3271   17.7955 O   0  0  0  0  0  0  0  0  0  0  0  0
    8.8628  -17.4007   19.9285 C   0  0  0  0  0  0  0  0  0  0  0  0
    8.7763  -17.7448   21.3713 C   0  0  2  0  0  0  0  0  0  0  0  0
    7.5457  -18.2922   21.8123 N   0  0  0  0  0  0  0  0  0  0  0  0
    9.0617  -16.5205   22.1785 C   0  0  0  0  0  0  0  0  0  0  0  0
   10.1399  -15.9242   21.8902 O   0  0  0  0  0  0  0  0  0  0  0  0
    5.5658  -11.3325   25.5647 C   0  0  0  0  0  0  0  0  0  0  0  0
    6.2812  -12.6761   26.5677 S   0  0  0  0  0  0  0  0  0  0  0  0
    7.7502  -13.3042   25.7099 C   0  0  0  0  0  0  0  0  0  0  0  0
    7.3137  -14.4331   24.7971 C   0  0  0  0  0  0  0  0  0  0  0  0
    8.5048  -14.9333   24.0030 C   0  0  2  0  0  0  0  0  0  0  0  0
    8.1875  -16.0615   23.1931 N   0  0  0  0  0  0  0  0  0  0  0  0
    9.5649  -15.2552   24.9854 C   0  0  0  0  0  0  0  0  0  0  0  0
   10.4008  -14.3635   25.2656 O   0  0  0  0  0  0  0  0  0  0  0  0
   10.2262  -14.4802   29.7580 C   0  0  0  0  0  0  0  0  0  0  0  0
   10.7740  -14.8993   28.4076 C   0  0  2  0  0  0  0  0  0  0  0  0
   10.9248  -13.7332   27.5225 C   0  0  0  0  0  0  0  0  0  0  0  0
   10.1679  -16.1369   27.8908 C   0  0  0  0  0  0  0  0  0  0  0  0
   10.7030  -16.7786   26.6726 C   0  0  2  0  0  0  0  0  0  0  0  0
    9.6831  -16.5094   25.6206 N   0  0  0  0  0  0  0  0  0  0  0  0
   10.8207  -18.2378   26.8242 C   0  0  0  0  0  0  0  0  0  0  0  0
   11.6855  -18.7568   27.5424 O   0  0  0  0  0  0  0  0  0  0  0  0
    9.9463  -19.1211   26.1530 O   0  0  0  0  0  0  0  0  0  0  0  0
  1  2  1  0
  2  3  2  0
  4  2  1  0
  5  7  1  0
  5  4  1  0
  5  6  1  6
  7  8  2  0
  9 10  1  0
 10 11  1  0
 12 11  1  0
 13 12  1  1
 13 14  1  0
 14  7  1  0
 15 13  1  0
 16 15  2  0
 18 17  1  1
 18 20  1  0
 18 19  1  0
 21 20  1  1
 21 22  1  0
 21 23  1  0
 22 15  1  0
 23 25  1  0
 24 23  2  0
M  END
$$$$
