NML.pdb
     RDKit          3D

 25 24  0  0  1  0  0  0  0  0999 V2000
    7.5893  -21.3537   19.4074 N   0  0  0  0  0  0  0  0  0  0  0  0
    7.8232  -20.2185   18.5846 C   0  0  0  0  0  0  0  0  0  0  0  0
    7.4844  -20.3253   17.3782 O   0  0  0  0  0  0  0  0  0  0  0  0
    8.4176  -18.9650   19.0397 C   0  0  0  0  0  0  0  0  0  0  0  0
    8.6847  -18.8852   20.4991 C   0  0  2  0  0  0  0  0  0  0  0  0
    7.5545  -18.9789   21.3490 N   0  0  0  0  0  0  0  0  0  0  0  0
    9.3878  -17.6002   20.7926 C   0  0  0  0  0  0  0  0  0  0  0  0
   10.5742  -17.5239   20.3594 O   0  0  0  0  0  0  0  0  0  0  0  0
    8.0493  -11.5733   19.9642 C   0  0  0  0  0  0  0  0  0  0  0  0
    7.0970  -13.0317   19.4263 S   0  0  0  0  0  0  0  0  0  0  0  0
    7.9334  -14.5161   20.0472 C   0  0  0  0  0  0  0  0  0  0  0  0
    8.7866  -14.1123   21.2335 C   0  0  0  0  0  0  0  0  0  0  0  0
    9.4644  -15.3391   21.8124 C   0  0  2  0  0  0  0  0  0  0  0  0
    8.7697  -16.5442   21.5048 N   0  0  0  0  0  0  0  0  0  0  0  0
    9.5522  -15.1250   23.2750 C   0  0  0  0  0  0  0  0  0  0  0  0
   10.5787  -14.5662   23.7294 O   0  0  0  0  0  0  0  0  0  0  0  0
    6.0157  -12.6342   26.7975 C   0  0  0  0  0  0  0  0  0  0  0  0
    7.3982  -13.2169   26.5778 C   0  0  2  0  0  0  0  0  0  0  0  0
    8.3138  -12.1969   26.0417 C   0  0  0  0  0  0  0  0  0  0  0  0
    7.3761  -14.5642   25.9859 C   0  0  0  0  0  0  0  0  0  0  0  0
    8.6386  -15.2507   25.6439 C   0  0  2  0  0  0  0  0  0  0  0  0
    8.5441  -15.5161   24.1811 N   0  0  0  0  0  0  0  0  0  0  0  0
    8.7654  -16.5464   26.3305 C   0  0  0  0  0  0  0  0  0  0  0  0
    8.5172  -17.6185   25.7630 O   0  0  0  0  0  0  0  0  0  0  0  0
    9.1792  -16.6283   27.6786 O   0  0  0  0  0  0  0  0  0  0  0  0
  1  2  1  0
  2  3  2  0
  4  2  1  0
  5  7  1  0
  5  4  1  0
  5  6  1  1
  7  8  2  0
  9 10  1  0
 10 11  1  0
 12 11  1  0
 13 12  1  6
 13 14  1  0
 14  7  1  0
 15 13  1  0
 16 15  2  0
 18 17  1  6
 18 20  1  0
 18 19  1  0
 21 20  1  1
 21 22  1  0
 21 23  1  0
 22 15  1  0
 23 25  1  0
 24 23  2  0
M  END
$$$$
