NML.pdb
     RDKit          3D

 25 24  0  0  1  0  0  0  0  0999 V2000
   10.9631  -21.6652   19.7381 N   0  0  0  0  0  0  0  0  0  0  0  0
   10.0814  -21.0379   20.6598 C   0  0  0  0  0  0  0  0  0  0  0  0
    9.0456  -21.6818   20.9667 O   0  0  0  0  0  0  0  0  0  0  0  0
   10.2963  -19.7243   21.2599 C   0  0  0  0  0  0  0  0  0  0  0  0
    9.0622  -18.9392   21.5210 C   0  0  2  0  0  0  0  0  0  0  0  0
    8.0416  -19.0320   20.5421 N   0  0  0  0  0  0  0  0  0  0  0  0
    9.4295  -17.5000   21.6814 C   0  0  0  0  0  0  0  0  0  0  0  0
   10.6581  -17.2373   21.5314 O   0  0  0  0  0  0  0  0  0  0  0  0
    7.8192  -12.5034   17.8804 C   0  0  0  0  0  0  0  0  0  0  0  0
    8.1111  -12.5564   19.6790 S   0  0  0  0  0  0  0  0  0  0  0  0
    7.5460  -14.1643   20.2984 C   0  0  0  0  0  0  0  0  0  0  0  0
    7.7274  -14.1775   21.8034 C   0  0  0  0  0  0  0  0  0  0  0  0
    8.8396  -15.1400   22.1723 C   0  0  2  0  0  0  0  0  0  0  0  0
    8.4703  -16.5024   21.9802 N   0  0  0  0  0  0  0  0  0  0  0  0
    9.1842  -14.8685   23.5865 C   0  0  0  0  0  0  0  0  0  0  0  0
   10.0623  -14.0057   23.8252 O   0  0  0  0  0  0  0  0  0  0  0  0
    7.9615  -12.1232   26.3546 C   0  0  0  0  0  0  0  0  0  0  0  0
    7.0782  -13.3141   26.0371 C   0  0  2  0  0  0  0  0  0  0  0  0
    5.6573  -12.9656   26.1970 C   0  0  0  0  0  0  0  0  0  0  0  0
    7.5874  -14.5809   26.5866 C   0  0  0  0  0  0  0  0  0  0  0  0
    8.8556  -15.1540   26.0911 C   0  0  2  0  0  0  0  0  0  0  0  0
    8.5778  -15.5282   24.6762 N   0  0  0  0  0  0  0  0  0  0  0  0
    9.2282  -16.3788   26.8172 C   0  0  0  0  0  0  0  0  0  0  0  0
    9.4748  -16.3748   28.0305 O   0  0  0  0  0  0  0  0  0  0  0  0
    9.3225  -17.6253   26.1594 O   0  0  0  0  0  0  0  0  0  0  0  0
  1  2  1  0
  2  3  2  0
  4  2  1  0
  5  7  1  0
  5  4  1  0
  5  6  1  6
  7  8  2  0
  9 10  1  0
 10 11  1  0
 12 11  1  0
 13 12  1  1
 13 14  1  0
 14  7  1  0
 15 13  1  0
 16 15  2  0
 18 17  1  1
 18 20  1  0
 18 19  1  0
 21 20  1  1
 21 22  1  0
 21 23  1  0
 22 15  1  0
 23 25  1  0
 24 23  2  0
M  END
$$$$
