NML.pdb
     RDKit          3D

 25 24  0  0  1  0  0  0  0  0999 V2000
    9.4419  -18.5927   17.5422 N   0  0  0  0  0  0  0  0  0  0  0  0
    9.0380  -18.5274   18.9034 C   0  0  0  0  0  0  0  0  0  0  0  0
    8.3449  -19.4880   19.3258 O   0  0  0  0  0  0  0  0  0  0  0  0
    9.3687  -17.4416   19.8219 C   0  0  0  0  0  0  0  0  0  0  0  0
    9.1494  -17.7417   21.2604 C   0  0  2  0  0  0  0  0  0  0  0  0
    7.8924  -18.3017   21.5992 N   0  0  0  0  0  0  0  0  0  0  0  0
    9.3326  -16.4866   22.0497 C   0  0  0  0  0  0  0  0  0  0  0  0
   10.4247  -15.8794   21.8507 O   0  0  0  0  0  0  0  0  0  0  0  0
    6.3488  -10.9908   26.8516 C   0  0  0  0  0  0  0  0  0  0  0  0
    6.0113  -12.5230   25.9234 S   0  0  0  0  0  0  0  0  0  0  0  0
    7.5220  -12.9945   25.0380 C   0  0  0  0  0  0  0  0  0  0  0  0
    7.2548  -14.3008   24.3168 C   0  0  0  0  0  0  0  0  0  0  0  0
    8.5441  -14.8179   23.7086 C   0  0  2  0  0  0  0  0  0  0  0  0
    8.3534  -16.0120   22.9554 N   0  0  0  0  0  0  0  0  0  0  0  0
    9.4866  -15.0322   24.8304 C   0  0  0  0  0  0  0  0  0  0  0  0
    9.9405  -14.0235   25.4212 O   0  0  0  0  0  0  0  0  0  0  0  0
   10.7278  -14.0031   28.1227 C   0  0  0  0  0  0  0  0  0  0  0  0
    9.5123  -14.9074   28.0587 C   0  0  2  0  0  0  0  0  0  0  0  0
    8.6445  -14.6965   29.2285 C   0  0  0  0  0  0  0  0  0  0  0  0
    9.8260  -16.2759   27.6174 C   0  0  0  0  0  0  0  0  0  0  0  0
   10.7419  -16.5028   26.4808 C   0  0  2  0  0  0  0  0  0  0  0  0
    9.8993  -16.3084   25.2677 N   0  0  0  0  0  0  0  0  0  0  0  0
   11.2585  -17.8807   26.4554 C   0  0  0  0  0  0  0  0  0  0  0  0
   10.7346  -18.7671   25.7677 O   0  0  0  0  0  0  0  0  0  0  0  0
   12.3846  -18.2594   27.2195 O   0  0  0  0  0  0  0  0  0  0  0  0
  1  2  1  0
  2  3  2  0
  4  2  1  0
  5  7  1  0
  5  4  1  0
  5  6  1  6
  7  8  2  0
  9 10  1  0
 10 11  1  0
 12 11  1  0
 13 12  1  1
 13 14  1  0
 14  7  1  0
 15 13  1  0
 16 15  2  0
 18 17  1  1
 18 20  1  0
 18 19  1  0
 21 20  1  1
 21 22  1  0
 21 23  1  0
 22 15  1  0
 23 25  1  0
 24 23  2  0
M  END
$$$$
