NML.pdb
     RDKit          3D

 25 24  0  0  1  0  0  0  0  0999 V2000
    8.8151  -19.6106   19.0217 N   0  0  0  0  0  0  0  0  0  0  0  0
    8.8643  -18.2083   18.7945 C   0  0  0  0  0  0  0  0  0  0  0  0
    8.7946  -17.8351   17.5955 O   0  0  0  0  0  0  0  0  0  0  0  0
    8.9875  -17.1964   19.8398 C   0  0  0  0  0  0  0  0  0  0  0  0
    9.0876  -17.7265   21.2241 C   0  0  2  0  0  0  0  0  0  0  0  0
    7.9332  -18.3723   21.7329 N   0  0  0  0  0  0  0  0  0  0  0  0
    9.4440  -16.6066   22.1464 C   0  0  0  0  0  0  0  0  0  0  0  0
   10.5928  -16.1070   21.9686 O   0  0  0  0  0  0  0  0  0  0  0  0
    5.5402  -11.1779   25.4370 C   0  0  0  0  0  0  0  0  0  0  0  0
    6.1170  -12.8489   25.8821 S   0  0  0  0  0  0  0  0  0  0  0  0
    7.2969  -13.3971   24.6188 C   0  0  0  0  0  0  0  0  0  0  0  0
    7.8256  -14.7573   25.0293 C   0  0  0  0  0  0  0  0  0  0  0  0
    8.9573  -15.1622   24.1048 C   0  0  2  0  0  0  0  0  0  0  0  0
    8.5587  -16.1389   23.1473 N   0  0  0  0  0  0  0  0  0  0  0  0
   10.0501  -15.6667   24.9673 C   0  0  0  0  0  0  0  0  0  0  0  0
   11.1741  -15.1179   24.8778 O   0  0  0  0  0  0  0  0  0  0  0  0
   11.3820  -14.1759   27.8759 C   0  0  0  0  0  0  0  0  0  0  0  0
   10.1894  -15.0437   28.2280 C   0  0  2  0  0  0  0  0  0  0  0  0
    9.4788  -14.5022   29.3975 C   0  0  0  0  0  0  0  0  0  0  0  0
   10.4730  -16.4856   28.1470 C   0  0  0  0  0  0  0  0  0  0  0  0
   10.9398  -17.0851   26.8801 C   0  0  2  0  0  0  0  0  0  0  0  0
    9.8930  -16.7295   25.8817 N   0  0  0  0  0  0  0  0  0  0  0  0
   11.0097  -18.5532   26.9575 C   0  0  0  0  0  0  0  0  0  0  0  0
   11.8199  -19.1353   27.6908 O   0  0  0  0  0  0  0  0  0  0  0  0
   10.1495  -19.3729   26.1936 O   0  0  0  0  0  0  0  0  0  0  0  0
  1  2  1  0
  2  3  2  0
  4  2  1  0
  5  7  1  0
  5  4  1  0
  5  6  1  1
  7  8  2  0
  9 10  1  0
 10 11  1  0
 12 11  1  0
 13 12  1  1
 13 14  1  0
 14  7  1  0
 15 13  1  0
 16 15  2  0
 18 17  1  1
 18 20  1  0
 18 19  1  0
 21 20  1  1
 21 22  1  0
 21 23  1  0
 22 15  1  0
 23 25  1  0
 24 23  2  0
M  END
$$$$
