NML.pdb
     RDKit          3D

 25 24  0  0  1  0  0  0  0  0999 V2000
    7.3112  -12.9028   18.4121 N   0  0  0  0  0  0  0  0  0  0  0  0
    8.0598  -14.0717   18.7177 C   0  0  0  0  0  0  0  0  0  0  0  0
    7.9406  -15.0349   17.9179 O   0  0  0  0  0  0  0  0  0  0  0  0
    8.9387  -14.2225   19.8739 C   0  0  0  0  0  0  0  0  0  0  0  0
    8.5793  -15.3263   20.8013 C   0  0  2  0  0  0  0  0  0  0  0  0
    7.2464  -15.8015   20.7232 N   0  0  0  0  0  0  0  0  0  0  0  0
    8.8384  -14.8830   22.2042 C   0  0  0  0  0  0  0  0  0  0  0  0
   10.0311  -14.5385   22.4489 O   0  0  0  0  0  0  0  0  0  0  0  0
    6.5966  -10.5316   27.4524 C   0  0  0  0  0  0  0  0  0  0  0  0
    5.8555  -12.1546   27.0787 S   0  0  0  0  0  0  0  0  0  0  0  0
    7.1783  -13.2717   26.5396 C   0  0  0  0  0  0  0  0  0  0  0  0
    6.8354  -13.7683   25.1489 C   0  0  0  0  0  0  0  0  0  0  0  0
    8.0687  -14.3748   24.5081 C   0  0  2  0  0  0  0  0  0  0  0  0
    7.8213  -14.8513   23.1885 N   0  0  0  0  0  0  0  0  0  0  0  0
    8.5174  -15.4674   25.4011 C   0  0  0  0  0  0  0  0  0  0  0  0
    8.6118  -15.2260   26.6280 O   0  0  0  0  0  0  0  0  0  0  0  0
    6.5734  -19.2247   26.4732 C   0  0  0  0  0  0  0  0  0  0  0  0
    7.3152  -19.2677   25.1513 C   0  0  2  0  0  0  0  0  0  0  0  0
    6.7916  -20.3445   24.2956 C   0  0  0  0  0  0  0  0  0  0  0  0
    8.7688  -19.0861   25.2920 C   0  0  0  0  0  0  0  0  0  0  0  0
    9.3139  -17.8371   25.8623 C   0  0  2  0  0  0  0  0  0  0  0  0
    8.8433  -16.7620   24.9447 N   0  0  0  0  0  0  0  0  0  0  0  0
   10.7856  -17.8240   25.8557 C   0  0  0  0  0  0  0  0  0  0  0  0
   11.4340  -17.1984   25.0065 O   0  0  0  0  0  0  0  0  0  0  0  0
   11.5329  -18.5293   26.8249 O   0  0  0  0  0  0  0  0  0  0  0  0
  1  2  1  0
  2  3  2  0
  4  2  1  0
  5  7  1  0
  5  4  1  0
  5  6  1  1
  7  8  2  0
  9 10  1  0
 10 11  1  0
 12 11  1  0
 13 12  1  1
 13 14  1  0
 14  7  1  0
 15 13  1  0
 16 15  2  0
 18 17  1  1
 18 20  1  0
 18 19  1  0
 21 20  1  6
 21 22  1  0
 21 23  1  0
 22 15  1  0
 23 25  1  0
 24 23  2  0
M  END
$$$$
