NML.pdb
     RDKit          3D

 25 24  0  0  1  0  0  0  0  0999 V2000
    8.3578  -15.5662   17.5562 N   0  0  0  0  0  0  0  0  0  0  0  0
    9.1520  -16.5178   18.2520 C   0  0  0  0  0  0  0  0  0  0  0  0
    9.1157  -17.6977   17.8183 O   0  0  0  0  0  0  0  0  0  0  0  0
    9.9884  -16.2201   19.4112 C   0  0  0  0  0  0  0  0  0  0  0  0
    9.7997  -17.1235   20.5755 C   0  0  2  0  0  0  0  0  0  0  0  0
    8.5958  -17.8708   20.6002 N   0  0  0  0  0  0  0  0  0  0  0  0
    9.8779  -16.3173   21.8309 C   0  0  0  0  0  0  0  0  0  0  0  0
   10.9447  -15.6534   21.9794 O   0  0  0  0  0  0  0  0  0  0  0  0
    6.4591  -12.4262   26.6584 C   0  0  0  0  0  0  0  0  0  0  0  0
    5.7715  -13.4229   25.2958 S   0  0  0  0  0  0  0  0  0  0  0  0
    7.1371  -13.9205   24.2115 C   0  0  0  0  0  0  0  0  0  0  0  0
    7.6089  -15.2926   24.6506 C   0  0  0  0  0  0  0  0  0  0  0  0
    8.9534  -15.5938   24.0173 C   0  0  2  0  0  0  0  0  0  0  0  0
    8.8322  -16.2986   22.7851 N   0  0  0  0  0  0  0  0  0  0  0  0
    9.7257  -16.3736   25.0113 C   0  0  0  0  0  0  0  0  0  0  0  0
   10.1894  -17.4843   24.6594 O   0  0  0  0  0  0  0  0  0  0  0  0
   11.7244  -13.7751   27.4556 C   0  0  0  0  0  0  0  0  0  0  0  0
   10.7089  -14.4130   28.3836 C   0  0  2  0  0  0  0  0  0  0  0  0
   10.5239  -13.5957   29.5935 C   0  0  0  0  0  0  0  0  0  0  0  0
   10.8628  -15.8719   28.5024 C   0  0  0  0  0  0  0  0  0  0  0  0
   10.7543  -16.7342   27.3079 C   0  0  2  0  0  0  0  0  0  0  0  0
    9.9660  -15.9334   26.3300 N   0  0  0  0  0  0  0  0  0  0  0  0
   10.0057  -17.9705   27.5864 C   0  0  0  0  0  0  0  0  0  0  0  0
    8.8059  -18.0903   27.3054 O   0  0  0  0  0  0  0  0  0  0  0  0
   10.6254  -19.0864   28.1915 O   0  0  0  0  0  0  0  0  0  0  0  0
  1  2  1  0
  2  3  2  0
  4  2  1  0
  5  7  1  0
  5  4  1  0
  5  6  1  6
  7  8  2  0
  9 10  1  0
 10 11  1  0
 12 11  1  0
 13 12  1  1
 13 14  1  0
 14  7  1  0
 15 13  1  0
 16 15  2  0
 18 17  1  1
 18 20  1  0
 18 19  1  0
 21 20  1  1
 21 22  1  0
 21 23  1  0
 22 15  1  0
 23 25  1  0
 24 23  2  0
M  END
$$$$
