NML.pdb
     RDKit          3D

 25 24  0  0  1  0  0  0  0  0999 V2000
    9.7147  -21.6882   21.8708 N   0  0  0  0  0  0  0  0  0  0  0  0
    9.0039  -20.5093   21.5167 C   0  0  0  0  0  0  0  0  0  0  0  0
    7.9642  -20.6711   20.8280 O   0  0  0  0  0  0  0  0  0  0  0  0
    9.3942  -19.1536   21.8931 C   0  0  0  0  0  0  0  0  0  0  0  0
    8.4201  -18.0919   21.5308 C   0  0  2  0  0  0  0  0  0  0  0  0
    8.3149  -17.7820   20.1519 N   0  0  0  0  0  0  0  0  0  0  0  0
    8.7718  -16.8408   22.2677 C   0  0  0  0  0  0  0  0  0  0  0  0
    9.8875  -16.3295   21.9597 O   0  0  0  0  0  0  0  0  0  0  0  0
    5.6495  -11.1105   25.7816 C   0  0  0  0  0  0  0  0  0  0  0  0
    6.1893  -12.6920   26.5099 S   0  0  0  0  0  0  0  0  0  0  0  0
    7.5911  -13.3133   25.5418 C   0  0  0  0  0  0  0  0  0  0  0  0
    7.1497  -14.5811   24.8375 C   0  0  0  0  0  0  0  0  0  0  0  0
    8.2660  -15.0778   23.9394 C   0  0  2  0  0  0  0  0  0  0  0  0
    7.9170  -16.2695   23.2410 N   0  0  0  0  0  0  0  0  0  0  0  0
    9.4476  -15.2871   24.8070 C   0  0  0  0  0  0  0  0  0  0  0  0
   10.4127  -14.4949   24.6914 O   0  0  0  0  0  0  0  0  0  0  0  0
   11.0285  -13.8307   27.8227 C   0  0  0  0  0  0  0  0  0  0  0  0
   10.0384  -14.8769   28.2965 C   0  0  2  0  0  0  0  0  0  0  0  0
    9.5842  -14.5816   29.6649 C   0  0  0  0  0  0  0  0  0  0  0  0
   10.4225  -16.2504   27.9333 C   0  0  0  0  0  0  0  0  0  0  0  0
   10.7838  -16.5812   26.5396 C   0  0  2  0  0  0  0  0  0  0  0  0
    9.5437  -16.3284   25.7540 N   0  0  0  0  0  0  0  0  0  0  0  0
   11.1354  -18.0019   26.3834 C   0  0  0  0  0  0  0  0  0  0  0  0
   12.1766  -18.4774   26.8553 O   0  0  0  0  0  0  0  0  0  0  0  0
   10.2954  -18.8959   25.6831 O   0  0  0  0  0  0  0  0  0  0  0  0
  1  2  1  0
  2  3  2  0
  4  2  1  0
  5  7  1  0
  5  4  1  0
  5  6  1  6
  7  8  2  0
  9 10  1  0
 10 11  1  0
 12 11  1  0
 13 12  1  1
 13 14  1  0
 14  7  1  0
 15 13  1  0
 16 15  2  0
 18 17  1  1
 18 20  1  0
 18 19  1  0
 21 20  1  1
 21 22  1  0
 21 23  1  0
 22 15  1  0
 23 25  1  0
 24 23  2  0
M  END
$$$$
