NML.pdb
     RDKit          3D

 25 24  0  0  1  0  0  0  0  0999 V2000
    8.3347  -22.1256   26.0338 N   0  0  0  0  0  0  0  0  0  0  0  0
    7.3025  -21.1531   25.9394 C   0  0  0  0  0  0  0  0  0  0  0  0
    6.1295  -21.5650   26.1297 O   0  0  0  0  0  0  0  0  0  0  0  0
    7.5116  -19.7388   25.6428 C   0  0  0  0  0  0  0  0  0  0  0  0
    6.7767  -19.2261   24.4577 C   0  0  2  0  0  0  0  0  0  0  0  0
    6.8948  -19.9886   23.2690 N   0  0  0  0  0  0  0  0  0  0  0  0
    7.2347  -17.8335   24.1698 C   0  0  0  0  0  0  0  0  0  0  0  0
    8.0702  -17.7253   23.2257 O   0  0  0  0  0  0  0  0  0  0  0  0
    7.1960  -10.7417   27.0114 C   0  0  0  0  0  0  0  0  0  0  0  0
    6.0595  -11.7361   25.9903 S   0  0  0  0  0  0  0  0  0  0  0  0
    7.0374  -12.9701   25.0907 C   0  0  0  0  0  0  0  0  0  0  0  0
    6.4696  -14.3398   25.4067 C   0  0  0  0  0  0  0  0  0  0  0  0
    7.2474  -15.3987   24.6495 C   0  0  2  0  0  0  0  0  0  0  0  0
    6.7665  -16.7158   24.9019 N   0  0  0  0  0  0  0  0  0  0  0  0
    8.6645  -15.2548   25.0539 C   0  0  0  0  0  0  0  0  0  0  0  0
    9.2910  -14.2423   24.6605 O   0  0  0  0  0  0  0  0  0  0  0  0
   10.7719  -13.4222   27.5222 C   0  0  0  0  0  0  0  0  0  0  0  0
   10.3657  -14.6873   28.2529 C   0  0  2  0  0  0  0  0  0  0  0  0
   10.4882  -14.5095   29.7087 C   0  0  0  0  0  0  0  0  0  0  0  0
   10.8737  -15.9151   27.6201 C   0  0  0  0  0  0  0  0  0  0  0  0
   10.8001  -16.0857   26.1546 C   0  0  2  0  0  0  0  0  0  0  0  0
    9.3447  -16.1951   25.8562 N   0  0  0  0  0  0  0  0  0  0  0  0
   11.4467  -17.3313   25.7112 C   0  0  0  0  0  0  0  0  0  0  0  0
   12.6747  -17.4848   25.7501 O   0  0  0  0  0  0  0  0  0  0  0  0
   10.6914  -18.4179   25.2171 O   0  0  0  0  0  0  0  0  0  0  0  0
  1  2  1  0
  2  3  2  0
  4  2  1  0
  5  7  1  0
  5  4  1  0
  5  6  1  6
  7  8  2  0
  9 10  1  0
 10 11  1  0
 12 11  1  0
 13 12  1  1
 13 14  1  0
 14  7  1  0
 15 13  1  0
 16 15  2  0
 18 17  1  6
 18 20  1  0
 18 19  1  0
 21 20  1  1
 21 22  1  0
 21 23  1  0
 22 15  1  0
 23 25  1  0
 24 23  2  0
M  END
$$$$
