NML.pdb
     RDKit          3D

 25 24  0  0  1  0  0  0  0  0999 V2000
    8.7660  -20.9886   19.9945 N   0  0  0  0  0  0  0  0  0  0  0  0
    9.6499  -19.9712   19.5430 C   0  0  0  0  0  0  0  0  0  0  0  0
   10.2683  -20.2045   18.4730 O   0  0  0  0  0  0  0  0  0  0  0  0
    9.8806  -18.7013   20.2258 C   0  0  0  0  0  0  0  0  0  0  0  0
    9.2541  -18.5823   21.5677 C   0  0  2  0  0  0  0  0  0  0  0  0
    7.8392  -18.6536   21.6073 N   0  0  0  0  0  0  0  0  0  0  0  0
    9.6766  -17.2895   22.1858 C   0  0  0  0  0  0  0  0  0  0  0  0
   10.9160  -17.0425   22.1243 O   0  0  0  0  0  0  0  0  0  0  0  0
    6.4396  -12.7105   27.2466 C   0  0  0  0  0  0  0  0  0  0  0  0
    6.7357  -12.7325   25.4480 S   0  0  0  0  0  0  0  0  0  0  0  0
    7.6534  -14.2431   25.0426 C   0  0  0  0  0  0  0  0  0  0  0  0
    7.9674  -14.2176   23.5598 C   0  0  0  0  0  0  0  0  0  0  0  0
    9.1502  -15.1231   23.2757 C   0  0  2  0  0  0  0  0  0  0  0  0
    8.7550  -16.4052   22.7965 N   0  0  0  0  0  0  0  0  0  0  0  0
    9.9150  -15.2313   24.5390 C   0  0  0  0  0  0  0  0  0  0  0  0
   10.6709  -14.2819   24.8548 O   0  0  0  0  0  0  0  0  0  0  0  0
   11.5352  -13.8475   27.7718 C   0  0  0  0  0  0  0  0  0  0  0  0
   10.1304  -14.4122   27.8569 C   0  0  2  0  0  0  0  0  0  0  0  0
    9.3763  -13.7696   28.9452 C   0  0  0  0  0  0  0  0  0  0  0  0
   10.0786  -15.8740   27.6943 C   0  0  0  0  0  0  0  0  0  0  0  0
   10.7622  -16.5239   26.5574 C   0  0  2  0  0  0  0  0  0  0  0  0
    9.8377  -16.3437   25.4032 N   0  0  0  0  0  0  0  0  0  0  0  0
   10.9388  -17.9690   26.7730 C   0  0  0  0  0  0  0  0  0  0  0  0
   10.2544  -18.8114   26.1770 O   0  0  0  0  0  0  0  0  0  0  0  0
   11.9042  -18.4665   27.6762 O   0  0  0  0  0  0  0  0  0  0  0  0
  1  2  1  0
  2  3  2  0
  4  2  1  0
  5  7  1  0
  5  4  1  0
  5  6  1  6
  7  8  2  0
  9 10  1  0
 10 11  1  0
 12 11  1  0
 13 12  1  1
 13 14  1  0
 14  7  1  0
 15 13  1  0
 16 15  2  0
 18 17  1  1
 18 20  1  0
 18 19  1  0
 21 20  1  1
 21 22  1  0
 21 23  1  0
 22 15  1  0
 23 25  1  0
 24 23  2  0
M  END
$$$$
