TFF.pdb
     RDKit          3D

 30 31  0  0  1  0  0  0  0  0999 V2000
   27.6052  -19.4721  -17.7980 C   0  0  0  0  0  0  0  0  0  0  0  0
   27.1360  -19.8927  -16.4265 C   0  0  1  0  0  0  0  0  0  0  0  0
   25.7935  -20.2657  -16.4286 O   0  0  0  0  0  0  0  0  0  0  0  0
   28.0172  -20.9032  -15.7639 C   0  0  2  0  0  0  0  0  0  0  0  0
   28.0348  -22.1004  -16.5700 N   0  0  0  0  0  0  0  0  0  0  0  0
   27.7277  -21.1547  -14.3502 C   0  0  0  0  0  0  0  0  0  0  0  0
   26.9967  -22.1698  -14.0834 O   0  0  0  0  0  0  0  0  0  0  0  0
   28.1671  -20.3974  -13.2467 N   0  0  0  0  0  0  0  0  0  0  0  0
   27.7378  -20.6855  -11.8678 C   0  0  1  0  0  0  0  0  0  0  0  0
   28.6862  -19.9672  -10.9752 C   0  0  0  0  0  0  0  0  0  0  0  0
   28.3709  -19.9776   -9.5487 C   0  0  0  0  0  0  0  0  0  0  0  0
   28.9213  -21.0148   -8.7858 C   0  0  0  0  0  0  0  0  0  0  0  0
   28.7007  -21.1383   -7.4488 C   0  0  0  0  0  0  0  0  0  0  0  0
   27.9027  -20.2027   -6.8225 C   0  0  0  0  0  0  0  0  0  0  0  0
   27.3471  -19.1727   -7.5408 C   0  0  0  0  0  0  0  0  0  0  0  0
   27.5883  -19.0771   -8.8832 C   0  0  0  0  0  0  0  0  0  0  0  0
   26.3218  -20.3316  -11.6681 C   0  0  0  0  0  0  0  0  0  0  0  0
   25.9441  -19.2009  -12.0674 O   0  0  0  0  0  0  0  0  0  0  0  0
   25.3554  -21.1660  -11.0625 N   0  0  0  0  0  0  0  0  0  0  0  0
   23.9921  -20.7095  -10.8320 C   0  0  1  0  0  0  0  0  0  0  0  0
   23.0347  -21.3155  -11.8190 C   0  0  0  0  0  0  0  0  0  0  0  0
   22.9441  -20.6057  -13.0964 C   0  0  0  0  0  0  0  0  0  0  0  0
   22.1326  -19.4988  -13.2085 C   0  0  0  0  0  0  0  0  0  0  0  0
   22.0366  -18.8186  -14.4120 C   0  0  0  0  0  0  0  0  0  0  0  0
   22.7542  -19.2477  -15.5050 C   0  0  0  0  0  0  0  0  0  0  0  0
   23.5602  -20.3596  -15.3669 C   0  0  0  0  0  0  0  0  0  0  0  0
   23.6732  -21.0543  -14.1790 C   0  0  0  0  0  0  0  0  0  0  0  0
   23.6020  -20.8976   -9.4186 C   0  0  0  0  0  0  0  0  0  0  0  0
   24.4017  -21.4676   -8.4588 O   0  0  0  0  0  0  0  0  0  0  0  0
   22.4596  -20.5114   -9.0632 O   0  0  0  0  0  0  0  0  0  0  0  0
  2  1  1  6
  3  2  1  0
  4  5  1  6
  4  2  1  0
  6  4  1  0
  7  6  2  0
  8  6  1  0
  9  8  1  0
  9 10  1  1
 10 11  1  0
 11 16  1  0
 12 11  2  0
 12 13  1  0
 13 14  2  0
 14 15  1  0
 16 15  2  0
 17 18  2  0
 17  9  1  0
 19 17  1  0
 20 19  1  0
 20 21  1  6
 21 22  1  0
 22 27  1  0
 22 23  2  0
 23 24  1  0
 24 25  2  0
 26 25  1  0
 27 26  2  0
 28 20  1  0
 29 28  1  0
 30 28  2  0
M  END
$$$$
