TFF.pdb
     RDKit          3D

 30 31  0  0  1  0  0  0  0  0999 V2000
   28.2758  -20.0696  -18.5815 C   0  0  0  0  0  0  0  0  0  0  0  0
   27.3597  -20.3041  -17.4050 C   0  0  1  0  0  0  0  0  0  0  0  0
   26.0172  -20.2605  -17.7754 O   0  0  0  0  0  0  0  0  0  0  0  0
   27.6997  -21.5178  -16.5999 C   0  0  2  0  0  0  0  0  0  0  0  0
   27.5941  -22.6801  -17.4491 N   0  0  0  0  0  0  0  0  0  0  0  0
   26.9758  -21.6514  -15.3335 C   0  0  0  0  0  0  0  0  0  0  0  0
   26.0939  -22.5755  -15.2687 O   0  0  0  0  0  0  0  0  0  0  0  0
   27.1441  -20.8698  -14.1737 N   0  0  0  0  0  0  0  0  0  0  0  0
   26.3249  -21.0606  -12.9651 C   0  0  1  0  0  0  0  0  0  0  0  0
   27.1417  -20.5688  -11.8235 C   0  0  0  0  0  0  0  0  0  0  0  0
   26.4594  -20.4569  -10.5365 C   0  0  0  0  0  0  0  0  0  0  0  0
   26.0196  -21.6485   -9.9469 C   0  0  0  0  0  0  0  0  0  0  0  0
   25.3686  -21.6788   -8.7525 C   0  0  0  0  0  0  0  0  0  0  0  0
   25.1341  -20.4864   -8.0984 C   0  0  0  0  0  0  0  0  0  0  0  0
   25.5519  -19.2997   -8.6484 C   0  0  0  0  0  0  0  0  0  0  0  0
   26.2034  -19.3037   -9.8505 C   0  0  0  0  0  0  0  0  0  0  0  0
   25.0122  -20.4067  -13.1051 C   0  0  0  0  0  0  0  0  0  0  0  0
   24.9836  -19.2723  -13.6463 O   0  0  0  0  0  0  0  0  0  0  0  0
   23.7827  -20.9571  -12.6781 N   0  0  0  0  0  0  0  0  0  0  0  0
   22.5091  -20.3644  -13.0611 C   0  0  1  0  0  0  0  0  0  0  0  0
   22.3810  -20.2525  -14.5541 C   0  0  0  0  0  0  0  0  0  0  0  0
   21.0961  -19.7264  -15.0188 C   0  0  0  0  0  0  0  0  0  0  0  0
   20.0996  -20.5952  -15.4042 C   0  0  0  0  0  0  0  0  0  0  0  0
   18.8794  -20.1106  -15.8474 C   0  0  0  0  0  0  0  0  0  0  0  0
   18.6567  -18.7537  -15.9049 C   0  0  0  0  0  0  0  0  0  0  0  0
   19.6714  -17.9040  -15.5132 C   0  0  0  0  0  0  0  0  0  0  0  0
   20.8956  -18.3618  -15.0679 C   0  0  0  0  0  0  0  0  0  0  0  0
   21.3817  -21.0637  -12.4089 C   0  0  0  0  0  0  0  0  0  0  0  0
   21.2783  -22.4273  -12.2835 O   0  0  0  0  0  0  0  0  0  0  0  0
   20.4486  -20.3680  -11.9338 O   0  0  0  0  0  0  0  0  0  0  0  0
  2  1  1  6
  3  2  1  0
  4  5  1  6
  4  2  1  0
  6  4  1  0
  7  6  2  0
  8  6  1  0
  9  8  1  0
  9 10  1  1
 10 11  1  0
 11 16  1  0
 12 11  2  0
 12 13  1  0
 13 14  2  0
 14 15  1  0
 16 15  2  0
 17 18  2  0
 17  9  1  0
 19 17  1  0
 20 19  1  0
 20 21  1  6
 21 22  1  0
 22 27  1  0
 22 23  2  0
 23 24  1  0
 24 25  2  0
 26 25  1  0
 27 26  2  0
 28 20  1  0
 29 28  1  0
 30 28  2  0
M  END
$$$$
