TFF.pdb
     RDKit          3D

 30 31  0  0  1  0  0  0  0  0999 V2000
   21.2404  -13.5551  -20.2246 C   0  0  0  0  0  0  0  0  0  0  0  0
   21.2819  -15.0242  -19.8805 C   0  0  1  0  0  0  0  0  0  0  0  0
   20.9848  -15.8242  -20.9819 O   0  0  0  0  0  0  0  0  0  0  0  0
   22.5296  -15.4501  -19.1744 C   0  0  2  0  0  0  0  0  0  0  0  0
   22.4161  -16.8494  -18.8391 N   0  0  0  0  0  0  0  0  0  0  0  0
   22.9269  -14.6084  -18.0435 C   0  0  0  0  0  0  0  0  0  0  0  0
   22.4123  -14.8900  -16.9068 O   0  0  0  0  0  0  0  0  0  0  0  0
   23.8169  -13.5168  -18.0699 N   0  0  0  0  0  0  0  0  0  0  0  0
   24.0910  -12.6902  -16.8825 C   0  0  1  0  0  0  0  0  0  0  0  0
   25.5564  -12.7748  -16.6425 C   0  0  0  0  0  0  0  0  0  0  0  0
   26.0705  -14.0719  -16.2094 C   0  0  0  0  0  0  0  0  0  0  0  0
   26.7300  -14.8457  -17.1723 C   0  0  0  0  0  0  0  0  0  0  0  0
   27.2506  -16.0722  -16.8963 C   0  0  0  0  0  0  0  0  0  0  0  0
   27.1222  -16.5707  -15.6159 C   0  0  0  0  0  0  0  0  0  0  0  0
   26.4812  -15.8381  -14.6474 C   0  0  0  0  0  0  0  0  0  0  0  0
   25.9690  -14.6088  -14.9573 C   0  0  0  0  0  0  0  0  0  0  0  0
   23.5777  -11.3208  -17.0593 C   0  0  0  0  0  0  0  0  0  0  0  0
   23.7111  -10.7925  -18.1923 O   0  0  0  0  0  0  0  0  0  0  0  0
   22.9464  -10.5555  -16.0529 N   0  0  0  0  0  0  0  0  0  0  0  0
   22.3525   -9.2580  -16.3427 C   0  0  1  0  0  0  0  0  0  0  0  0
   21.3913   -9.3379  -17.4949 C   0  0  0  0  0  0  0  0  0  0  0  0
   20.7153   -8.0791  -17.8144 C   0  0  0  0  0  0  0  0  0  0  0  0
   21.4542   -6.9860  -18.2086 C   0  0  0  0  0  0  0  0  0  0  0  0
   20.8272   -5.7882  -18.5124 C   0  0  0  0  0  0  0  0  0  0  0  0
   19.4579   -5.6847  -18.4210 C   0  0  0  0  0  0  0  0  0  0  0  0
   18.7400   -6.7945  -18.0236 C   0  0  0  0  0  0  0  0  0  0  0  0
   19.3409   -7.9989  -17.7156 C   0  0  0  0  0  0  0  0  0  0  0  0
   21.7820   -8.6516  -15.1212 C   0  0  0  0  0  0  0  0  0  0  0  0
   21.2468   -9.3624  -14.0752 O   0  0  0  0  0  0  0  0  0  0  0  0
   21.7831   -7.3980  -15.0265 O   0  0  0  0  0  0  0  0  0  0  0  0
  2  1  1  6
  3  2  1  0
  4  5  1  1
  4  2  1  0
  6  4  1  0
  7  6  2  0
  8  6  1  0
  9  8  1  0
  9 10  1  6
 10 11  1  0
 11 16  1  0
 12 11  2  0
 12 13  1  0
 13 14  2  0
 14 15  1  0
 16 15  2  0
 17 18  2  0
 17  9  1  0
 19 17  1  0
 20 19  1  0
 20 21  1  6
 21 22  1  0
 22 27  1  0
 22 23  2  0
 23 24  1  0
 24 25  2  0
 26 25  1  0
 27 26  2  0
 28 20  1  0
 29 28  1  0
 30 28  2  0
M  END
$$$$
