TFF.pdb
     RDKit          3D

 30 31  0  0  1  0  0  0  0  0999 V2000
   25.7380  -19.1912  -18.7821 C   0  0  0  0  0  0  0  0  0  0  0  0
   26.9642  -19.9895  -19.1526 C   0  0  1  0  0  0  0  0  0  0  0  0
   27.5810  -19.4922  -20.2987 O   0  0  0  0  0  0  0  0  0  0  0  0
   27.9217  -20.1962  -18.0224 C   0  0  2  0  0  0  0  0  0  0  0  0
   29.0293  -20.9920  -18.4949 N   0  0  0  0  0  0  0  0  0  0  0  0
   27.3267  -20.7002  -16.7825 C   0  0  0  0  0  0  0  0  0  0  0  0
   26.9135  -21.9107  -16.7922 O   0  0  0  0  0  0  0  0  0  0  0  0
   27.1576  -19.9949  -15.5749 N   0  0  0  0  0  0  0  0  0  0  0  0
   26.4946  -20.5851  -14.3999 C   0  0  1  0  0  0  0  0  0  0  0  0
   27.0243  -19.8620  -13.2130 C   0  0  0  0  0  0  0  0  0  0  0  0
   26.3545  -20.1221  -11.9410 C   0  0  0  0  0  0  0  0  0  0  0  0
   26.7843  -21.2402  -11.2157 C   0  0  0  0  0  0  0  0  0  0  0  0
   26.2392  -21.5922  -10.0197 C   0  0  0  0  0  0  0  0  0  0  0  0
   25.2228  -20.8145   -9.5034 C   0  0  0  0  0  0  0  0  0  0  0  0
   24.7772  -19.7111  -10.1886 C   0  0  0  0  0  0  0  0  0  0  0  0
   25.3461  -19.3847  -11.3883 C   0  0  0  0  0  0  0  0  0  0  0  0
   25.0288  -20.5409  -14.5398 C   0  0  0  0  0  0  0  0  0  0  0  0
   24.5072  -19.4369  -14.8392 O   0  0  0  0  0  0  0  0  0  0  0  0
   24.1640  -21.6446  -14.3635 N   0  0  0  0  0  0  0  0  0  0  0  0
   22.7174  -21.4817  -14.3352 C   0  0  1  0  0  0  0  0  0  0  0  0
   22.0182  -22.6697  -14.9332 C   0  0  0  0  0  0  0  0  0  0  0  0
   20.5562  -22.6000  -14.8960 C   0  0  0  0  0  0  0  0  0  0  0  0
   19.8830  -21.8400  -15.8264 C   0  0  0  0  0  0  0  0  0  0  0  0
   18.4996  -21.7642  -15.8017 C   0  0  0  0  0  0  0  0  0  0  0  0
   17.7891  -22.4503  -14.8434 C   0  0  0  0  0  0  0  0  0  0  0  0
   18.4870  -23.2048  -13.9222 C   0  0  0  0  0  0  0  0  0  0  0  0
   19.8647  -23.2967  -13.9258 C   0  0  0  0  0  0  0  0  0  0  0  0
   22.2506  -21.1259  -12.9785 C   0  0  0  0  0  0  0  0  0  0  0  0
   21.3631  -20.1158  -12.6997 O   0  0  0  0  0  0  0  0  0  0  0  0
   22.6929  -21.7901  -12.0070 O   0  0  0  0  0  0  0  0  0  0  0  0
  2  1  1  1
  3  2  1  0
  4  5  1  6
  4  2  1  0
  6  4  1  0
  7  6  2  0
  8  6  1  0
  9  8  1  0
  9 10  1  1
 10 11  1  0
 11 16  1  0
 12 11  2  0
 12 13  1  0
 13 14  2  0
 14 15  1  0
 16 15  2  0
 17 18  2  0
 17  9  1  0
 19 17  1  0
 20 19  1  0
 20 21  1  1
 21 22  1  0
 22 27  1  0
 22 23  2  0
 23 24  1  0
 24 25  2  0
 26 25  1  0
 27 26  2  0
 28 20  1  0
 29 28  1  0
 30 28  2  0
M  END
$$$$
