TFF.pdb
     RDKit          3D

 30 31  0  0  1  0  0  0  0  0999 V2000
   29.5162  -19.3538  -16.0678 C   0  0  0  0  0  0  0  0  0  0  0  0
   28.6839  -19.0900  -14.8365 C   0  0  1  0  0  0  0  0  0  0  0  0
   28.6964  -17.7431  -14.4801 O   0  0  0  0  0  0  0  0  0  0  0  0
   27.3026  -19.6598  -14.9005 C   0  0  2  0  0  0  0  0  0  0  0  0
   26.6056  -19.0579  -16.0119 N   0  0  0  0  0  0  0  0  0  0  0  0
   26.5491  -19.6163  -13.6453 C   0  0  0  0  0  0  0  0  0  0  0  0
   26.0669  -18.4825  -13.3016 O   0  0  0  0  0  0  0  0  0  0  0  0
   26.2965  -20.6907  -12.7699 N   0  0  0  0  0  0  0  0  0  0  0  0
   25.4725  -20.5472  -11.5580 C   0  0  1  0  0  0  0  0  0  0  0  0
   24.3140  -21.4643  -11.7281 C   0  0  0  0  0  0  0  0  0  0  0  0
   23.2491  -21.0083  -12.6184 C   0  0  0  0  0  0  0  0  0  0  0  0
   23.2377  -21.5367  -13.9151 C   0  0  0  0  0  0  0  0  0  0  0  0
   22.3016  -21.1901  -14.8398 C   0  0  0  0  0  0  0  0  0  0  0  0
   21.3260  -20.2817  -14.4827 C   0  0  0  0  0  0  0  0  0  0  0  0
   21.3079  -19.7440  -13.2193 C   0  0  0  0  0  0  0  0  0  0  0  0
   22.2632  -20.1132  -12.3134 C   0  0  0  0  0  0  0  0  0  0  0  0
   26.2698  -20.7871  -10.3427 C   0  0  0  0  0  0  0  0  0  0  0  0
   27.2661  -21.5474  -10.4428 O   0  0  0  0  0  0  0  0  0  0  0  0
   26.0008  -20.2278   -9.0731 N   0  0  0  0  0  0  0  0  0  0  0  0
   26.8230  -20.5415   -7.9131 C   0  0  1  0  0  0  0  0  0  0  0  0
   27.8211  -19.4531   -7.6356 C   0  0  0  0  0  0  0  0  0  0  0  0
   28.4747  -19.5430   -6.3285 C   0  0  0  0  0  0  0  0  0  0  0  0
   27.8827  -18.9683   -5.2260 C   0  0  0  0  0  0  0  0  0  0  0  0
   28.4912  -19.0448   -3.9834 C   0  0  0  0  0  0  0  0  0  0  0  0
   29.6947  -19.6976   -3.8446 C   0  0  0  0  0  0  0  0  0  0  0  0
   30.2676  -20.2651   -4.9648 C   0  0  0  0  0  0  0  0  0  0  0  0
   29.6815  -20.2029   -6.2135 C   0  0  0  0  0  0  0  0  0  0  0  0
   25.9839  -20.9022   -6.7507 C   0  0  0  0  0  0  0  0  0  0  0  0
   26.4210  -21.6260   -5.6687 O   0  0  0  0  0  0  0  0  0  0  0  0
   24.7851  -20.5234   -6.7455 O   0  0  0  0  0  0  0  0  0  0  0  0
  2  1  1  6
  3  2  1  0
  4  5  1  6
  4  2  1  0
  6  4  1  0
  7  6  2  0
  8  6  1  0
  9  8  1  0
  9 10  1  6
 10 11  1  0
 11 16  1  0
 12 11  2  0
 12 13  1  0
 13 14  2  0
 14 15  1  0
 16 15  2  0
 17 18  2  0
 17  9  1  0
 19 17  1  0
 20 19  1  0
 20 21  1  1
 21 22  1  0
 22 27  1  0
 22 23  2  0
 23 24  1  0
 24 25  2  0
 26 25  1  0
 27 26  2  0
 28 20  1  0
 29 28  1  0
 30 28  2  0
M  END
$$$$
