TFF.pdb
     RDKit          3D

 30 31  0  0  1  0  0  0  0  0999 V2000
   18.9786  -11.6336  -19.5207 C   0  0  0  0  0  0  0  0  0  0  0  0
   18.8099  -10.5019  -18.5363 C   0  0  1  0  0  0  0  0  0  0  0  0
   17.7199   -9.6945  -18.8550 O   0  0  0  0  0  0  0  0  0  0  0  0
   18.8123  -10.9337  -17.1044 C   0  0  2  0  0  0  0  0  0  0  0  0
   17.7374  -11.8758  -16.9041 N   0  0  0  0  0  0  0  0  0  0  0  0
   18.8271   -9.8464  -16.1231 C   0  0  0  0  0  0  0  0  0  0  0  0
   17.7105   -9.2695  -15.8854 O   0  0  0  0  0  0  0  0  0  0  0  0
   19.9412   -9.3629  -15.4095 N   0  0  0  0  0  0  0  0  0  0  0  0
   19.8530   -8.2225  -14.4821 C   0  0  1  0  0  0  0  0  0  0  0  0
   20.5883   -8.6241  -13.2532 C   0  0  0  0  0  0  0  0  0  0  0  0
   20.6834   -7.6208  -12.1954 C   0  0  0  0  0  0  0  0  0  0  0  0
   21.6573   -6.6268  -12.3507 C   0  0  0  0  0  0  0  0  0  0  0  0
   21.8487   -5.6385  -11.4353 C   0  0  0  0  0  0  0  0  0  0  0  0
   21.0499   -5.6174  -10.3102 C   0  0  0  0  0  0  0  0  0  0  0  0
   20.0851   -6.5771  -10.1265 C   0  0  0  0  0  0  0  0  0  0  0  0
   19.9183   -7.5569  -11.0655 C   0  0  0  0  0  0  0  0  0  0  0  0
   20.3454   -6.9859  -15.1134 C   0  0  0  0  0  0  0  0  0  0  0  0
   21.4125   -7.0566  -15.7743 O   0  0  0  0  0  0  0  0  0  0  0  0
   19.7098   -5.7262  -15.0334 N   0  0  0  0  0  0  0  0  0  0  0  0
   20.2925   -4.5392  -15.6428 C   0  0  1  0  0  0  0  0  0  0  0  0
   19.5872   -4.1728  -16.9181 C   0  0  0  0  0  0  0  0  0  0  0  0
   18.2113   -3.7041  -16.7418 C   0  0  0  0  0  0  0  0  0  0  0  0
   17.1651   -4.5915  -16.8618 C   0  0  0  0  0  0  0  0  0  0  0  0
   15.8581   -4.1608  -16.6987 C   0  0  0  0  0  0  0  0  0  0  0  0
   15.5984   -2.8394  -16.4155 C   0  0  0  0  0  0  0  0  0  0  0  0
   16.6642   -1.9701  -16.3004 C   0  0  0  0  0  0  0  0  0  0  0  0
   17.9751   -2.3743  -16.4580 C   0  0  0  0  0  0  0  0  0  0  0  0
   20.3868   -3.4338  -14.6658 C   0  0  0  0  0  0  0  0  0  0  0  0
   21.2094   -2.3426  -14.8008 O   0  0  0  0  0  0  0  0  0  0  0  0
   19.6668   -3.4901  -13.6367 O   0  0  0  0  0  0  0  0  0  0  0  0
  2  1  1  6
  3  2  1  0
  4  5  1  1
  4  2  1  0
  6  4  1  0
  7  6  2  0
  8  6  1  0
  9  8  1  0
  9 10  1  1
 10 11  1  0
 11 16  1  0
 12 11  2  0
 12 13  1  0
 13 14  2  0
 14 15  1  0
 16 15  2  0
 17 18  2  0
 17  9  1  0
 19 17  1  0
 20 19  1  0
 20 21  1  6
 21 22  1  0
 22 27  1  0
 22 23  2  0
 23 24  1  0
 24 25  2  0
 26 25  1  0
 27 26  2  0
 28 20  1  0
 29 28  1  0
 30 28  2  0
M  END
$$$$
