TFF.pdb
     RDKit          3D

 30 31  0  0  1  0  0  0  0  0999 V2000
   23.3812  -19.8547  -11.8027 C   0  0  0  0  0  0  0  0  0  0  0  0
   24.2444  -20.6748  -12.7305 C   0  0  1  0  0  0  0  0  0  0  0  0
   23.9525  -20.4231  -14.0694 O   0  0  0  0  0  0  0  0  0  0  0  0
   25.7076  -20.5954  -12.4314 C   0  0  2  0  0  0  0  0  0  0  0  0
   26.4233  -21.3702  -13.4167 N   0  0  0  0  0  0  0  0  0  0  0  0
   26.0824  -20.9144  -11.0519 C   0  0  0  0  0  0  0  0  0  0  0  0
   26.0963  -22.1523  -10.7302 O   0  0  0  0  0  0  0  0  0  0  0  0
   26.4301  -20.0037  -10.0351 N   0  0  0  0  0  0  0  0  0  0  0  0
   26.7638  -20.4344   -8.6671 C   0  0  1  0  0  0  0  0  0  0  0  0
   27.7114  -19.4222   -8.1287 C   0  0  0  0  0  0  0  0  0  0  0  0
   28.1618  -19.6202   -6.7531 C   0  0  0  0  0  0  0  0  0  0  0  0
   27.7971  -18.6419   -5.8200 C   0  0  0  0  0  0  0  0  0  0  0  0
   28.1568  -18.7085   -4.5094 C   0  0  0  0  0  0  0  0  0  0  0  0
   28.9109  -19.7839   -4.0859 C   0  0  0  0  0  0  0  0  0  0  0  0
   29.2857  -20.7612   -4.9747 C   0  0  0  0  0  0  0  0  0  0  0  0
   28.9079  -20.6645   -6.2852 C   0  0  0  0  0  0  0  0  0  0  0  0
   25.5469  -20.6244   -7.8589 C   0  0  0  0  0  0  0  0  0  0  0  0
   24.6590  -19.7371   -7.9290 O   0  0  0  0  0  0  0  0  0  0  0  0
   25.3009  -21.7280   -7.0112 N   0  0  0  0  0  0  0  0  0  0  0  0
   24.0908  -21.8151   -6.2062 C   0  0  1  0  0  0  0  0  0  0  0  0
   23.6105  -23.2339   -6.0864 C   0  0  0  0  0  0  0  0  0  0  0  0
   22.3450  -23.3913   -5.3671 C   0  0  0  0  0  0  0  0  0  0  0  0
   22.3540  -23.6680   -4.0181 C   0  0  0  0  0  0  0  0  0  0  0  0
   21.1635  -23.8207   -3.3256 C   0  0  0  0  0  0  0  0  0  0  0  0
   19.9620  -23.6966   -3.9850 C   0  0  0  0  0  0  0  0  0  0  0  0
   19.9799  -23.4191   -5.3369 C   0  0  0  0  0  0  0  0  0  0  0  0
   21.1522  -23.2622   -6.0494 C   0  0  0  0  0  0  0  0  0  0  0  0
   24.2653  -21.1251   -4.9105 C   0  0  0  0  0  0  0  0  0  0  0  0
   23.3491  -20.2656   -4.3558 O   0  0  0  0  0  0  0  0  0  0  0  0
   25.3242  -21.3346   -4.2660 O   0  0  0  0  0  0  0  0  0  0  0  0
  2  1  1  1
  3  2  1  0
  4  5  1  6
  4  2  1  0
  6  4  1  0
  7  6  2  0
  8  6  1  0
  9  8  1  0
  9 10  1  1
 10 11  1  0
 11 16  1  0
 12 11  2  0
 12 13  1  0
 13 14  2  0
 14 15  1  0
 16 15  2  0
 17 18  2  0
 17  9  1  0
 19 17  1  0
 20 19  1  0
 20 21  1  1
 21 22  1  0
 22 27  1  0
 22 23  2  0
 23 24  1  0
 24 25  2  0
 26 25  1  0
 27 26  2  0
 28 20  1  0
 29 28  1  0
 30 28  2  0
M  END
$$$$
