TFF.pdb
     RDKit          3D

 30 31  0  0  1  0  0  0  0  0999 V2000
   14.2623  -19.9935    4.4462 C   0  0  0  0  0  0  0  0  0  0  0  0
   14.9286  -20.5109    3.1945 C   0  0  1  0  0  0  0  0  0  0  0  0
   14.0181  -21.1261    2.3379 O   0  0  0  0  0  0  0  0  0  0  0  0
   15.7878  -19.5028    2.4999 C   0  0  2  0  0  0  0  0  0  0  0  0
   16.2754  -20.0802    1.2703 N   0  0  0  0  0  0  0  0  0  0  0  0
   16.8415  -18.9054    3.3234 C   0  0  0  0  0  0  0  0  0  0  0  0
   18.0044  -19.4319    3.2423 O   0  0  0  0  0  0  0  0  0  0  0  0
   16.7146  -17.8100    4.1999 N   0  0  0  0  0  0  0  0  0  0  0  0
   17.8404  -17.3048    5.0035 C   0  0  1  0  0  0  0  0  0  0  0  0
   17.4738  -15.9237    5.4163 C   0  0  0  0  0  0  0  0  0  0  0  0
   17.8719  -14.8476    4.5120 C   0  0  0  0  0  0  0  0  0  0  0  0
   18.6007  -15.2137    3.3737 C   0  0  0  0  0  0  0  0  0  0  0  0
   19.0329  -14.3062    2.4566 C   0  0  0  0  0  0  0  0  0  0  0  0
   18.7398  -12.9729    2.6588 C   0  0  0  0  0  0  0  0  0  0  0  0
   18.0270  -12.5793    3.7644 C   0  0  0  0  0  0  0  0  0  0  0  0
   17.6073  -13.5164    4.6674 C   0  0  0  0  0  0  0  0  0  0  0  0
   18.1469  -18.2163    6.1195 C   0  0  0  0  0  0  0  0  0  0  0  0
   17.2544  -19.0316    6.4650 O   0  0  0  0  0  0  0  0  0  0  0  0
   19.3674  -18.2446    6.8313 N   0  0  0  0  0  0  0  0  0  0  0  0
   19.6817  -19.3198    7.7614 C   0  0  1  0  0  0  0  0  0  0  0  0
   19.5867  -20.6654    7.0994 C   0  0  0  0  0  0  0  0  0  0  0  0
   19.9059  -21.7981    7.9705 C   0  0  0  0  0  0  0  0  0  0  0  0
   21.1816  -22.3166    7.9797 C   0  0  0  0  0  0  0  0  0  0  0  0
   21.4967  -23.3894    8.7982 C   0  0  0  0  0  0  0  0  0  0  0  0
   20.5328  -23.9441    9.6087 C   0  0  0  0  0  0  0  0  0  0  0  0
   19.2619  -23.4064    9.5812 C   0  0  0  0  0  0  0  0  0  0  0  0
   18.9228  -22.3380    8.7749 C   0  0  0  0  0  0  0  0  0  0  0  0
   20.9700  -19.0715    8.4426 C   0  0  0  0  0  0  0  0  0  0  0  0
   22.0905  -18.5660    7.8303 O   0  0  0  0  0  0  0  0  0  0  0  0
   21.0532  -19.3396    9.6680 O   0  0  0  0  0  0  0  0  0  0  0  0
  2  1  1  1
  3  2  1  0
  4  5  1  6
  4  2  1  0
  6  4  1  0
  7  6  2  0
  8  6  1  0
  9  8  1  0
  9 10  1  1
 10 11  1  0
 11 16  1  0
 12 11  2  0
 12 13  1  0
 13 14  2  0
 14 15  1  0
 16 15  2  0
 17 18  2  0
 17  9  1  0
 19 17  1  0
 20 19  1  0
 20 21  1  6
 21 22  1  0
 22 27  1  0
 22 23  2  0
 23 24  1  0
 24 25  2  0
 26 25  1  0
 27 26  2  0
 28 20  1  0
 29 28  1  0
 30 28  2  0
M  END
$$$$
