TFF.pdb
     RDKit          3D

 30 31  0  0  1  0  0  0  0  0999 V2000
   17.4747  -11.7410  -19.8604 C   0  0  0  0  0  0  0  0  0  0  0  0
   18.4689  -11.2147  -18.8540 C   0  0  1  0  0  0  0  0  0  0  0  0
   17.8619  -10.3971  -17.9030 O   0  0  0  0  0  0  0  0  0  0  0  0
   19.3349  -12.2700  -18.2431 C   0  0  2  0  0  0  0  0  0  0  0  0
   18.4920  -13.2182  -17.5549 N   0  0  0  0  0  0  0  0  0  0  0  0
   20.4442  -11.7732  -17.4257 C   0  0  0  0  0  0  0  0  0  0  0  0
   20.2366  -11.6818  -16.1670 O   0  0  0  0  0  0  0  0  0  0  0  0
   21.7206  -11.3821  -17.8755 N   0  0  0  0  0  0  0  0  0  0  0  0
   22.7704  -10.9046  -16.9600 C   0  0  1  0  0  0  0  0  0  0  0  0
   24.0167  -11.6209  -17.3418 C   0  0  0  0  0  0  0  0  0  0  0  0
   25.2534  -11.1484  -16.7238 C   0  0  0  0  0  0  0  0  0  0  0  0
   25.5245  -11.5973  -15.4254 C   0  0  0  0  0  0  0  0  0  0  0  0
   26.6401  -11.2275  -14.7399 C   0  0  0  0  0  0  0  0  0  0  0  0
   27.5383  -10.3764  -15.3509 C   0  0  0  0  0  0  0  0  0  0  0  0
   27.3033   -9.9173  -16.6235 C   0  0  0  0  0  0  0  0  0  0  0  0
   26.1723  -10.3078  -17.2852 C   0  0  0  0  0  0  0  0  0  0  0  0
   22.8744   -9.4355  -16.9921 C   0  0  0  0  0  0  0  0  0  0  0  0
   23.1233   -8.8952  -18.0998 O   0  0  0  0  0  0  0  0  0  0  0  0
   22.7155   -8.5868  -15.8734 N   0  0  0  0  0  0  0  0  0  0  0  0
   22.7854   -7.1381  -16.0004 C   0  0  1  0  0  0  0  0  0  0  0  0
   21.7092   -6.6127  -16.9080 C   0  0  0  0  0  0  0  0  0  0  0  0
   20.3437   -6.8385  -16.4300 C   0  0  0  0  0  0  0  0  0  0  0  0
   19.6137   -5.7874  -15.9216 C   0  0  0  0  0  0  0  0  0  0  0  0
   18.3210   -5.9875  -15.4646 C   0  0  0  0  0  0  0  0  0  0  0  0
   17.7584   -7.2424  -15.5165 C   0  0  0  0  0  0  0  0  0  0  0  0
   18.5107   -8.2792  -16.0303 C   0  0  0  0  0  0  0  0  0  0  0  0
   19.8004   -8.1057  -16.4921 C   0  0  0  0  0  0  0  0  0  0  0  0
   22.8244   -6.4908  -14.6719 C   0  0  0  0  0  0  0  0  0  0  0  0
   22.9904   -5.1433  -14.4663 O   0  0  0  0  0  0  0  0  0  0  0  0
   22.6977   -7.2187  -13.6547 O   0  0  0  0  0  0  0  0  0  0  0  0
  2  1  1  1
  3  2  1  0
  4  5  1  1
  4  2  1  0
  6  4  1  0
  7  6  2  0
  8  6  1  0
  9  8  1  0
  9 10  1  6
 10 11  1  0
 11 16  1  0
 12 11  2  0
 12 13  1  0
 13 14  2  0
 14 15  1  0
 16 15  2  0
 17 18  2  0
 17  9  1  0
 19 17  1  0
 20 19  1  0
 20 21  1  1
 21 22  1  0
 22 27  1  0
 22 23  2  0
 23 24  1  0
 24 25  2  0
 26 25  1  0
 27 26  2  0
 28 20  1  0
 29 28  1  0
 30 28  2  0
M  END
$$$$
