TFF.pdb
     RDKit          3D

 30 31  0  0  1  0  0  0  0  0999 V2000
   28.1944  -22.7695  -15.6171 C   0  0  0  0  0  0  0  0  0  0  0  0
   28.2008  -21.9967  -16.9137 C   0  0  1  0  0  0  0  0  0  0  0  0
   28.7013  -22.7567  -17.9687 O   0  0  0  0  0  0  0  0  0  0  0  0
   26.8966  -21.3411  -17.2392 C   0  0  2  0  0  0  0  0  0  0  0  0
   27.0577  -20.5658  -18.4459 N   0  0  0  0  0  0  0  0  0  0  0  0
   26.2815  -20.5921  -16.1410 C   0  0  0  0  0  0  0  0  0  0  0  0
   26.7524  -19.4269  -15.9034 O   0  0  0  0  0  0  0  0  0  0  0  0
   25.2239  -21.0162  -15.3128 N   0  0  0  0  0  0  0  0  0  0  0  0
   24.7731  -20.2404  -14.1451 C   0  0  1  0  0  0  0  0  0  0  0  0
   23.3172  -20.0038  -14.3362 C   0  0  0  0  0  0  0  0  0  0  0  0
   22.9466  -19.0083  -15.3393 C   0  0  0  0  0  0  0  0  0  0  0  0
   22.7894  -17.6896  -14.8953 C   0  0  0  0  0  0  0  0  0  0  0  0
   22.4429  -16.6717  -15.7291 C   0  0  0  0  0  0  0  0  0  0  0  0
   22.2391  -16.9530  -17.0647 C   0  0  0  0  0  0  0  0  0  0  0  0
   22.3848  -18.2353  -17.5336 C   0  0  0  0  0  0  0  0  0  0  0  0
   22.7338  -19.2358  -16.6694 C   0  0  0  0  0  0  0  0  0  0  0  0
   25.1224  -20.9233  -12.8874 C   0  0  0  0  0  0  0  0  0  0  0  0
   24.7942  -22.1315  -12.7723 O   0  0  0  0  0  0  0  0  0  0  0  0
   25.7985  -20.3245  -11.8005 N   0  0  0  0  0  0  0  0  0  0  0  0
   26.1113  -21.0740  -10.5920 C   0  0  1  0  0  0  0  0  0  0  0  0
   27.5465  -20.8905  -10.1867 C   0  0  0  0  0  0  0  0  0  0  0  0
   27.7356  -20.2727   -8.8728 C   0  0  0  0  0  0  0  0  0  0  0  0
   27.3783  -18.9572   -8.6770 C   0  0  0  0  0  0  0  0  0  0  0  0
   27.5532  -18.3599   -7.4390 C   0  0  0  0  0  0  0  0  0  0  0  0
   28.0871  -19.0808   -6.3954 C   0  0  0  0  0  0  0  0  0  0  0  0
   28.4372  -20.3973   -6.6173 C   0  0  0  0  0  0  0  0  0  0  0  0
   28.2728  -21.0154   -7.8410 C   0  0  0  0  0  0  0  0  0  0  0  0
   25.1382  -20.7792   -9.5188 C   0  0  0  0  0  0  0  0  0  0  0  0
   24.2323  -19.7477   -9.5503 O   0  0  0  0  0  0  0  0  0  0  0  0
   25.1342  -21.5203   -8.5033 O   0  0  0  0  0  0  0  0  0  0  0  0
  2  1  1  1
  3  2  1  0
  4  5  1  6
  4  2  1  0
  6  4  1  0
  7  6  2  0
  8  6  1  0
  9  8  1  0
  9 10  1  6
 10 11  1  0
 11 16  1  0
 12 11  2  0
 12 13  1  0
 13 14  2  0
 14 15  1  0
 16 15  2  0
 17 18  2  0
 17  9  1  0
 19 17  1  0
 20 19  1  0
 20 21  1  1
 21 22  1  0
 22 27  1  0
 22 23  2  0
 23 24  1  0
 24 25  2  0
 26 25  1  0
 27 26  2  0
 28 20  1  0
 29 28  1  0
 30 28  2  0
M  END
$$$$
