TFF.pdb
     RDKit          3D

 30 31  0  0  1  0  0  0  0  0999 V2000
   28.7225  -20.2056  -18.9825 C   0  0  0  0  0  0  0  0  0  0  0  0
   27.7859  -20.4323  -17.8207 C   0  0  1  0  0  0  0  0  0  0  0  0
   26.4560  -20.4983  -18.2310 O   0  0  0  0  0  0  0  0  0  0  0  0
   28.1768  -21.5728  -16.9359 C   0  0  2  0  0  0  0  0  0  0  0  0
   28.2240  -22.7778  -17.7290 N   0  0  0  0  0  0  0  0  0  0  0  0
   27.3889  -21.7113  -15.7088 C   0  0  0  0  0  0  0  0  0  0  0  0
   26.4025  -22.5246  -15.7461 O   0  0  0  0  0  0  0  0  0  0  0  0
   27.5984  -21.0433  -14.4864 N   0  0  0  0  0  0  0  0  0  0  0  0
   26.6821  -21.1813  -13.3420 C   0  0  1  0  0  0  0  0  0  0  0  0
   27.4419  -20.7408  -12.1417 C   0  0  0  0  0  0  0  0  0  0  0  0
   26.7023  -20.7019  -10.8823 C   0  0  0  0  0  0  0  0  0  0  0  0
   26.3683  -19.4372  -10.3825 C   0  0  0  0  0  0  0  0  0  0  0  0
   25.6845  -19.2659   -9.2187 C   0  0  0  0  0  0  0  0  0  0  0  0
   25.3063  -20.3848   -8.5048 C   0  0  0  0  0  0  0  0  0  0  0  0
   25.6176  -21.6400   -8.9663 C   0  0  0  0  0  0  0  0  0  0  0  0
   26.3060  -21.7778  -10.1396 C   0  0  0  0  0  0  0  0  0  0  0  0
   25.4269  -20.4465  -13.5757 C   0  0  0  0  0  0  0  0  0  0  0  0
   25.5065  -19.3265  -14.1413 O   0  0  0  0  0  0  0  0  0  0  0  0
   24.1400  -20.9043  -13.2132 N   0  0  0  0  0  0  0  0  0  0  0  0
   22.9407  -20.1506  -13.5502 C   0  0  1  0  0  0  0  0  0  0  0  0
   22.7736  -20.0186  -15.0376 C   0  0  0  0  0  0  0  0  0  0  0  0
   21.5243  -19.3807  -15.4573 C   0  0  0  0  0  0  0  0  0  0  0  0
   20.4331  -20.1571  -15.7779 C   0  0  0  0  0  0  0  0  0  0  0  0
   19.2453  -19.5663  -16.1779 C   0  0  0  0  0  0  0  0  0  0  0  0
   19.1500  -18.1957  -16.2575 C   0  0  0  0  0  0  0  0  0  0  0  0
   20.2577  -17.4399  -15.9310 C   0  0  0  0  0  0  0  0  0  0  0  0
   21.4522  -18.0043  -15.5296 C   0  0  0  0  0  0  0  0  0  0  0  0
   21.7569  -20.7002  -12.8559 C   0  0  0  0  0  0  0  0  0  0  0  0
   20.7484  -19.9409  -12.3153 O   0  0  0  0  0  0  0  0  0  0  0  0
   21.6600  -21.9490  -12.7488 O   0  0  0  0  0  0  0  0  0  0  0  0
  2  1  1  6
  3  2  1  0
  4  5  1  6
  4  2  1  0
  6  4  1  0
  7  6  2  0
  8  6  1  0
  9  8  1  0
  9 10  1  1
 10 11  1  0
 11 16  1  0
 12 11  2  0
 12 13  1  0
 13 14  2  0
 14 15  1  0
 16 15  2  0
 17 18  2  0
 17  9  1  0
 19 17  1  0
 20 19  1  0
 20 21  1  6
 21 22  1  0
 22 27  1  0
 22 23  2  0
 23 24  1  0
 24 25  2  0
 26 25  1  0
 27 26  2  0
 28 20  1  0
 29 28  1  0
 30 28  2  0
M  END
$$$$
