TFF.pdb
     RDKit          3D

 30 31  0  0  1  0  0  0  0  0999 V2000
   27.3433  -20.6494  -19.7354 C   0  0  0  0  0  0  0  0  0  0  0  0
   26.7205  -21.1159  -18.4420 C   0  0  1  0  0  0  0  0  0  0  0  0
   25.7049  -22.0445  -18.6598 O   0  0  0  0  0  0  0  0  0  0  0  0
   27.7108  -21.5698  -17.4173 C   0  0  2  0  0  0  0  0  0  0  0  0
   28.4723  -22.6669  -17.9648 N   0  0  0  0  0  0  0  0  0  0  0  0
   27.1555  -21.8482  -16.0908 C   0  0  0  0  0  0  0  0  0  0  0  0
   26.8841  -23.0695  -15.8245 O   0  0  0  0  0  0  0  0  0  0  0  0
   26.8852  -20.9145  -15.0713 N   0  0  0  0  0  0  0  0  0  0  0  0
   26.1775  -21.2782  -13.8323 C   0  0  1  0  0  0  0  0  0  0  0  0
   26.7544  -20.4295  -12.7558 C   0  0  0  0  0  0  0  0  0  0  0  0
   26.0755  -20.4687  -11.4628 C   0  0  0  0  0  0  0  0  0  0  0  0
   26.6142  -21.3195  -10.4898 C   0  0  0  0  0  0  0  0  0  0  0  0
   26.0732  -21.4487   -9.2480 C   0  0  0  0  0  0  0  0  0  0  0  0
   24.9490  -20.7107   -8.9380 C   0  0  0  0  0  0  0  0  0  0  0  0
   24.3949  -19.8667   -9.8686 C   0  0  0  0  0  0  0  0  0  0  0  0
   24.9629  -19.7598  -11.1078 C   0  0  0  0  0  0  0  0  0  0  0  0
   24.7191  -21.1506  -13.9971 C   0  0  0  0  0  0  0  0  0  0  0  0
   24.2784  -20.0599  -14.4408 O   0  0  0  0  0  0  0  0  0  0  0  0
   23.7777  -22.1602  -13.6950 N   0  0  0  0  0  0  0  0  0  0  0  0
   22.3449  -21.9152  -13.7787 C   0  0  1  0  0  0  0  0  0  0  0  0
   21.5687  -23.2008  -13.8281 C   0  0  0  0  0  0  0  0  0  0  0  0
   20.1201  -23.0346  -13.9615 C   0  0  0  0  0  0  0  0  0  0  0  0
   19.5624  -22.8649  -15.2091 C   0  0  0  0  0  0  0  0  0  0  0  0
   18.1931  -22.7050  -15.3493 C   0  0  0  0  0  0  0  0  0  0  0  0
   17.3810  -22.7149  -14.2384 C   0  0  0  0  0  0  0  0  0  0  0  0
   17.9642  -22.8866  -12.9994 C   0  0  0  0  0  0  0  0  0  0  0  0
   19.3255  -23.0481  -12.8331 C   0  0  0  0  0  0  0  0  0  0  0  0
   21.9038  -20.9837  -12.7190 C   0  0  0  0  0  0  0  0  0  0  0  0
   21.0009  -19.9654  -12.9029 O   0  0  0  0  0  0  0  0  0  0  0  0
   22.3848  -21.1275  -11.5664 O   0  0  0  0  0  0  0  0  0  0  0  0
  2  1  1  6
  3  2  1  0
  4  5  1  6
  4  2  1  0
  6  4  1  0
  7  6  2  0
  8  6  1  0
  9  8  1  0
  9 10  1  1
 10 11  1  0
 11 16  1  0
 12 11  2  0
 12 13  1  0
 13 14  2  0
 14 15  1  0
 16 15  2  0
 17 18  2  0
 17  9  1  0
 19 17  1  0
 20 19  1  0
 20 21  1  1
 21 22  1  0
 22 27  1  0
 22 23  2  0
 23 24  1  0
 24 25  2  0
 26 25  1  0
 27 26  2  0
 28 20  1  0
 29 28  1  0
 30 28  2  0
M  END
$$$$
