RNS.pdb
     RDKit          3D

 26 25  0  0  1  0  0  0  0  0999 V2000
   29.0524  -22.2101  -16.6206 N   0  0  0  0  0  0  0  0  0  0  0  0
   28.4579  -21.1055  -17.2838 C   0  0  0  0  0  0  0  0  0  0  0  0
   28.8420  -20.7342  -18.4747 N   0  0  0  0  0  0  0  0  0  0  0  0
   27.4224  -20.4030  -16.6122 N   0  0  0  0  0  0  0  0  0  0  0  0
   27.3970  -20.3322  -15.1633 C   0  0  0  0  0  0  0  0  0  0  0  0
   26.7668  -21.5465  -14.5487 C   0  0  0  0  0  0  0  0  0  0  0  0
   25.3143  -21.3766  -14.2443 C   0  0  0  0  0  0  0  0  0  0  0  0
   25.0109  -21.2529  -12.7731 C   0  0  2  0  0  0  0  0  0  0  0  0
   25.7112  -22.1887  -11.9594 N   0  0  0  0  0  0  0  0  0  0  0  0
   23.5671  -21.1809  -12.5033 C   0  0  0  0  0  0  0  0  0  0  0  0
   22.9940  -22.1755  -11.9454 O   0  0  0  0  0  0  0  0  0  0  0  0
   28.3959  -19.8999  -18.8990 N   0  0  0  0  0  0  0  0  0  0  0  0
   19.8964  -19.7720   -9.3770 C   0  0  0  0  0  0  0  0  0  0  0  0
   19.8654  -19.1203  -10.6797 O   0  0  0  0  0  0  0  0  0  0  0  0
   18.7648  -18.6607  -11.0739 C   0  0  0  0  0  0  0  0  0  0  0  0
   21.1286  -19.0700  -11.3965 C   0  0  1  0  0  0  0  0  0  0  0  0
   21.3008  -20.0317  -12.5174 N   0  0  0  0  0  0  0  0  0  0  0  0
   22.7722  -20.0628  -12.8301 C   0  0  0  0  0  0  0  0  0  0  0  0
   20.6792  -19.5628  -13.7883 O   0  0  0  0  0  0  0  0  0  0  0  0
   21.4483  -19.0022  -14.6691 O   0  0  0  0  0  0  0  0  0  0  0  0
   19.6753  -22.7516  -16.0513 C   0  0  0  0  0  0  0  0  0  0  0  0
   19.9695  -21.7144  -15.1722 C   0  0  1  0  0  0  0  0  0  0  0  0
   18.8787  -20.6602  -15.1634 N   0  0  0  0  0  0  0  0  0  0  0  0
   19.3300  -19.6560  -14.1715 C   0  0  0  0  0  0  0  0  0  0  0  0
   17.6480  -21.3213  -14.7040 O   0  0  0  0  0  0  0  0  0  0  0  0
   16.9597  -22.1551  -15.5541 O   0  0  0  0  0  0  0  0  0  0  0  0
  2  3  2  0
  2  1  1  0
  4  2  1  0
  5  4  1  0
  6  5  1  0
  7  6  1  0
  8 10  1  0
  8  7  1  0
  8  9  1  1
 10 17  1  0
 11 10  2  0
 13 12  1  0
 14 13  2  0
 15 13  1  0
 16 17  1  0
 16 15  1  1
 18 16  1  0
 19 18  2  0
 21 20  1  0
 22 21  1  6
 22 23  1  0
 22 24  1  0
 23 18  1  0
 24 25  1  0
 26 24  2  0
M  END
$$$$
