RNS.pdb
     RDKit          3D

 26 25  0  0  1  0  0  0  0  0999 V2000
   26.4946  -20.1031   -8.5709 N   0  0  0  0  0  0  0  0  0  0  0  0
   25.2445  -20.6916   -8.2474 C   0  0  0  0  0  0  0  0  0  0  0  0
   24.8247  -20.7729   -7.0143 N   0  0  0  0  0  0  0  0  0  0  0  0
   24.4509  -21.1979   -9.3106 N   0  0  0  0  0  0  0  0  0  0  0  0
   24.8500  -20.9972  -10.6910 C   0  0  0  0  0  0  0  0  0  0  0  0
   23.8215  -20.2343  -11.4718 C   0  0  0  0  0  0  0  0  0  0  0  0
   22.9692  -21.0992  -12.3417 C   0  0  0  0  0  0  0  0  0  0  0  0
   21.9476  -20.3360  -13.1452 C   0  0  2  0  0  0  0  0  0  0  0  0
   20.6507  -20.3142  -12.5570 N   0  0  0  0  0  0  0  0  0  0  0  0
   21.9588  -20.7119  -14.5669 C   0  0  0  0  0  0  0  0  0  0  0  0
   21.9442  -21.9497  -14.8772 O   0  0  0  0  0  0  0  0  0  0  0  0
   23.9310  -21.2647   -6.8290 N   0  0  0  0  0  0  0  0  0  0  0  0
   19.2882  -21.5719  -17.7493 C   0  0  0  0  0  0  0  0  0  0  0  0
   19.4593  -20.1860  -17.3337 O   0  0  0  0  0  0  0  0  0  0  0  0
   18.5000  -19.6346  -16.7391 C   0  0  0  0  0  0  0  0  0  0  0  0
   20.7397  -19.5785  -17.6554 C   0  0  2  0  0  0  0  0  0  0  0  0
   21.9475  -20.2063  -17.0571 N   0  0  0  0  0  0  0  0  0  0  0  0
   21.9851  -19.7712  -15.6173 C   0  0  0  0  0  0  0  0  0  0  0  0
   23.2207  -19.6740  -17.6204 O   0  0  0  0  0  0  0  0  0  0  0  0
   23.5157  -18.4332  -17.3864 O   0  0  0  0  0  0  0  0  0  0  0  0
   27.3395  -20.2711  -20.1819 C   0  0  0  0  0  0  0  0  0  0  0  0
   26.1706  -20.7678  -19.6146 C   0  0  1  0  0  0  0  0  0  0  0  0
   25.3882  -19.6818  -18.9006 N   0  0  0  0  0  0  0  0  0  0  0  0
   24.1747  -20.3621  -18.3901 C   0  0  0  0  0  0  0  0  0  0  0  0
   25.0286  -18.6774  -19.9128 O   0  0  0  0  0  0  0  0  0  0  0  0
   25.8290  -17.5745  -20.0984 O   0  0  0  0  0  0  0  0  0  0  0  0
  2  3  2  0
  2  1  1  0
  4  2  1  0
  5  4  1  0
  6  5  1  0
  7  6  1  0
  8 10  1  0
  8  7  1  0
  8  9  1  1
 10 17  1  0
 11 10  2  0
 13 12  1  0
 14 13  2  0
 15 13  1  0
 16 17  1  0
 16 15  1  1
 18 16  1  0
 19 18  2  0
 21 20  1  0
 22 21  1  1
 22 23  1  0
 22 24  1  0
 23 18  1  0
 24 25  1  0
 26 24  2  0
M  END
$$$$
