RNS.pdb
     RDKit          3D

 26 25  0  0  1  0  0  0  0  0999 V2000
   20.2858  -21.7032  -12.9339 N   0  0  0  0  0  0  0  0  0  0  0  0
   19.1122  -22.2051  -13.5538 C   0  0  0  0  0  0  0  0  0  0  0  0
   18.6139  -21.6517  -14.6258 N   0  0  0  0  0  0  0  0  0  0  0  0
   18.4830  -23.3375  -12.9723 N   0  0  0  0  0  0  0  0  0  0  0  0
   19.0922  -24.0260  -11.8498 C   0  0  0  0  0  0  0  0  0  0  0  0
   18.1195  -24.2551  -10.7314 C   0  0  0  0  0  0  0  0  0  0  0  0
   18.6909  -23.9851   -9.3779 C   0  0  0  0  0  0  0  0  0  0  0  0
   18.7235  -25.1942   -8.4785 C   0  0  2  0  0  0  0  0  0  0  0  0
   18.1304  -26.3553   -9.0517 N   0  0  0  0  0  0  0  0  0  0  0  0
   18.2610  -24.8910   -7.1159 C   0  0  0  0  0  0  0  0  0  0  0  0
   18.7848  -23.9089   -6.4915 O   0  0  0  0  0  0  0  0  0  0  0  0
   17.8039  -22.1076  -15.0852 N   0  0  0  0  0  0  0  0  0  0  0  0
   13.9607  -23.3717   -6.0252 C   0  0  0  0  0  0  0  0  0  0  0  0
   14.9125  -23.7546   -4.9908 O   0  0  0  0  0  0  0  0  0  0  0  0
   15.2387  -22.8813   -4.1488 C   0  0  0  0  0  0  0  0  0  0  0  0
   15.3916  -25.1256   -5.0426 C   0  0  2  0  0  0  0  0  0  0  0  0
   16.8658  -25.3201   -5.0359 N   0  0  0  0  0  0  0  0  0  0  0  0
   17.2608  -25.6327   -6.4537 C   0  0  0  0  0  0  0  0  0  0  0  0
   17.2906  -26.5298   -4.2759 O   0  0  0  0  0  0  0  0  0  0  0  0
   17.1520  -27.6853   -4.8478 O   0  0  0  0  0  0  0  0  0  0  0  0
   19.8148  -28.5492   -0.6453 C   0  0  0  0  0  0  0  0  0  0  0  0
   19.1900  -27.4522   -1.2295 C   0  0  2  0  0  0  0  0  0  0  0  0
   18.3228  -27.8609   -2.4051 N   0  0  0  0  0  0  0  0  0  0  0  0
   17.8433  -26.5841   -2.9845 C   0  0  0  0  0  0  0  0  0  0  0  0
   17.1972  -28.6336   -1.8585 O   0  0  0  0  0  0  0  0  0  0  0  0
   17.3132  -29.9949   -1.7001 O   0  0  0  0  0  0  0  0  0  0  0  0
  2  3  2  0
  2  1  1  0
  4  2  1  0
  5  4  1  0
  6  5  1  0
  7  6  1  0
  8 10  1  0
  8  7  1  0
  8  9  1  6
 10 17  1  0
 11 10  2  0
 13 12  1  0
 14 13  2  0
 15 13  1  0
 16 17  1  0
 16 15  1  6
 18 16  1  0
 19 18  2  0
 21 20  1  0
 22 21  1  6
 22 23  1  0
 22 24  1  0
 23 18  1  0
 24 25  1  0
 26 24  2  0
M  END
$$$$
