RNS.pdb
     RDKit          3D

 26 25  0  0  1  0  0  0  0  0999 V2000
   21.9380  -25.9923  -16.2763 N   0  0  0  0  0  0  0  0  0  0  0  0
   21.6924  -26.9507  -15.2591 C   0  0  0  0  0  0  0  0  0  0  0  0
   22.2832  -28.1145  -15.2579 N   0  0  0  0  0  0  0  0  0  0  0  0
   20.7755  -26.6103  -14.2295 N   0  0  0  0  0  0  0  0  0  0  0  0
   20.0179  -25.3745  -14.2938 C   0  0  0  0  0  0  0  0  0  0  0  0
   20.5031  -24.3615  -13.3000 C   0  0  0  0  0  0  0  0  0  0  0  0
   20.0422  -24.6257  -11.9039 C   0  0  0  0  0  0  0  0  0  0  0  0
   19.2032  -23.5182  -11.3197 C   0  0  2  0  0  0  0  0  0  0  0  0
   19.9641  -22.4630  -10.7400 N   0  0  0  0  0  0  0  0  0  0  0  0
   18.1246  -24.0271  -10.4594 C   0  0  0  0  0  0  0  0  0  0  0  0
   17.2912  -24.8627  -10.9450 O   0  0  0  0  0  0  0  0  0  0  0  0
   22.0328  -28.7940  -14.5158 N   0  0  0  0  0  0  0  0  0  0  0  0
   18.4993  -26.2769   -7.4713 C   0  0  0  0  0  0  0  0  0  0  0  0
   18.2718  -25.2317   -6.4821 O   0  0  0  0  0  0  0  0  0  0  0  0
   18.8918  -25.3171   -5.3930 C   0  0  0  0  0  0  0  0  0  0  0  0
   17.3382  -24.1857   -6.8644 C   0  0  2  0  0  0  0  0  0  0  0  0
   16.8495  -24.2054   -8.2686 N   0  0  0  0  0  0  0  0  0  0  0  0
   17.9580  -23.6391   -9.1137 C   0  0  0  0  0  0  0  0  0  0  0  0
   15.7131  -23.2700   -8.5033 O   0  0  0  0  0  0  0  0  0  0  0  0
   15.9570  -21.9971   -8.4639 O   0  0  0  0  0  0  0  0  0  0  0  0
   13.3331  -23.0263  -11.4453 C   0  0  0  0  0  0  0  0  0  0  0  0
   12.5942  -23.0915  -10.2685 C   0  0  2  0  0  0  0  0  0  0  0  0
   13.3732  -22.5471   -9.0862 N   0  0  0  0  0  0  0  0  0  0  0  0
   14.3730  -23.5958   -8.7755 C   0  0  0  0  0  0  0  0  0  0  0  0
   12.4195  -22.3994   -7.9765 O   0  0  0  0  0  0  0  0  0  0  0  0
   11.5661  -21.3213   -7.9453 O   0  0  0  0  0  0  0  0  0  0  0  0
  2  3  2  0
  2  1  1  0
  4  2  1  0
  5  4  1  0
  6  5  1  0
  7  6  1  0
  8 10  1  0
  8  7  1  0
  8  9  1  1
 10 17  1  0
 11 10  2  0
 13 12  1  0
 14 13  2  0
 15 13  1  0
 16 17  1  0
 16 15  1  6
 18 16  1  0
 19 18  2  0
 21 20  1  0
 22 21  1  6
 22 23  1  0
 22 24  1  0
 23 18  1  0
 24 25  1  0
 26 24  2  0
M  END
$$$$
