RNS.pdb
     RDKit          3D

 26 25  0  0  1  0  0  0  0  0999 V2000
   10.9094  -13.4225   -9.7013 N   0  0  0  0  0  0  0  0  0  0  0  0
   11.1738  -14.3567  -10.7361 C   0  0  0  0  0  0  0  0  0  0  0  0
   10.4932  -15.4647  -10.8487 N   0  0  0  0  0  0  0  0  0  0  0  0
   12.2109  -14.0548  -11.6580 N   0  0  0  0  0  0  0  0  0  0  0  0
   12.4927  -12.6807  -12.0289 C   0  0  0  0  0  0  0  0  0  0  0  0
   13.6444  -12.1110  -11.2553 C   0  0  0  0  0  0  0  0  0  0  0  0
   14.0190  -10.7269  -11.6739 C   0  0  0  0  0  0  0  0  0  0  0  0
   13.6285   -9.6634  -10.6797 C   0  0  2  0  0  0  0  0  0  0  0  0
   12.2271   -9.4171  -10.6195 N   0  0  0  0  0  0  0  0  0  0  0  0
   14.4492   -8.4498  -10.8068 C   0  0  0  0  0  0  0  0  0  0  0  0
   14.1374   -7.5848  -11.6919 O   0  0  0  0  0  0  0  0  0  0  0  0
   10.6726  -16.0726  -11.6693 N   0  0  0  0  0  0  0  0  0  0  0  0
   14.7145   -5.9805   -7.0753 C   0  0  0  0  0  0  0  0  0  0  0  0
   15.3541   -5.5292   -8.3042 O   0  0  0  0  0  0  0  0  0  0  0  0
   14.8950   -4.4969   -8.8533 C   0  0  0  0  0  0  0  0  0  0  0  0
   16.4713   -6.3321   -8.7723 C   0  0  2  0  0  0  0  0  0  0  0  0
   16.3554   -6.9082  -10.1382 N   0  0  0  0  0  0  0  0  0  0  0  0
   15.5732   -8.1857   -9.9969 C   0  0  0  0  0  0  0  0  0  0  0  0
   17.6638   -7.3548  -10.6952 O   0  0  0  0  0  0  0  0  0  0  0  0
   18.1662   -8.4640  -10.2494 O   0  0  0  0  0  0  0  0  0  0  0  0
   18.5522   -8.3978  -13.8931 C   0  0  0  0  0  0  0  0  0  0  0  0
   19.3758   -8.5958  -12.7897 C   0  0  1  0  0  0  0  0  0  0  0  0
   19.7391   -7.2848  -12.1185 N   0  0  0  0  0  0  0  0  0  0  0  0
   18.4453   -6.7156  -11.6734 C   0  0  0  0  0  0  0  0  0  0  0  0
   20.3504   -6.4315  -13.1484 O   0  0  0  0  0  0  0  0  0  0  0  0
   21.6559   -6.6420  -13.5264 O   0  0  0  0  0  0  0  0  0  0  0  0
  2  3  2  0
  2  1  1  0
  4  2  1  0
  5  4  1  0
  6  5  1  0
  7  6  1  0
  8 10  1  0
  8  7  1  0
  8  9  1  6
 10 17  1  0
 11 10  2  0
 13 12  1  0
 14 13  2  0
 15 13  1  0
 16 17  1  0
 16 15  1  6
 18 16  1  0
 19 18  2  0
 21 20  1  0
 22 21  1  1
 22 23  1  0
 22 24  1  0
 23 18  1  0
 24 25  1  0
 26 24  2  0
M  END
$$$$
