RNS.pdb
     RDKit          3D

 26 25  0  0  1  0  0  0  0  0999 V2000
   30.1259  -21.0230   -9.1482 N   0  0  0  0  0  0  0  0  0  0  0  0
   30.6564  -21.4351  -10.3982 C   0  0  0  0  0  0  0  0  0  0  0  0
   31.9424  -21.4699  -10.6182 N   0  0  0  0  0  0  0  0  0  0  0  0
   29.7433  -21.8125  -11.4182 N   0  0  0  0  0  0  0  0  0  0  0  0
   28.3120  -21.7521  -11.1880 C   0  0  0  0  0  0  0  0  0  0  0  0
   27.5859  -21.0800  -12.3151 C   0  0  0  0  0  0  0  0  0  0  0  0
   26.1175  -20.9391  -12.0801 C   0  0  0  0  0  0  0  0  0  0  0  0
   25.3037  -22.0959  -12.6011 C   0  0  2  0  0  0  0  0  0  0  0  0
   26.0859  -23.1406  -13.1712 N   0  0  0  0  0  0  0  0  0  0  0  0
   24.1801  -21.6562  -13.4418 C   0  0  0  0  0  0  0  0  0  0  0  0
   24.3186  -21.6663  -14.7105 O   0  0  0  0  0  0  0  0  0  0  0  0
   32.2739  -21.7329  -11.5648 N   0  0  0  0  0  0  0  0  0  0  0  0
   19.3546  -20.4093  -15.0448 C   0  0  0  0  0  0  0  0  0  0  0  0
   19.2930  -20.7017  -13.6188 O   0  0  0  0  0  0  0  0  0  0  0  0
   18.1575  -20.7517  -13.0840 C   0  0  0  0  0  0  0  0  0  0  0  0
   20.5696  -20.9073  -12.9555 C   0  0  2  0  0  0  0  0  0  0  0  0
   21.7796  -20.9134  -13.8198 N   0  0  0  0  0  0  0  0  0  0  0  0
   22.9452  -21.2194  -12.9190 C   0  0  0  0  0  0  0  0  0  0  0  0
   22.1056  -19.5694  -14.3754 O   0  0  0  0  0  0  0  0  0  0  0  0
   22.4900  -18.6478  -13.5480 O   0  0  0  0  0  0  0  0  0  0  0  0
   22.8490  -18.6778  -18.3263 C   0  0  0  0  0  0  0  0  0  0  0  0
   23.4360  -17.9967  -17.2650 C   0  0  1  0  0  0  0  0  0  0  0  0
   22.4602  -17.7914  -16.1219 N   0  0  0  0  0  0  0  0  0  0  0  0
   22.0552  -19.1587  -15.7188 C   0  0  0  0  0  0  0  0  0  0  0  0
   21.3110  -17.0534  -16.6673 O   0  0  0  0  0  0  0  0  0  0  0  0
   21.4734  -15.7608  -17.1082 O   0  0  0  0  0  0  0  0  0  0  0  0
  2  3  2  0
  2  1  1  0
  4  2  1  0
  5  4  1  0
  6  5  1  0
  7  6  1  0
  8 10  1  0
  8  7  1  0
  8  9  1  6
 10 17  1  0
 11 10  2  0
 13 12  1  0
 14 13  2  0
 15 13  1  0
 16 17  1  0
 16 15  1  6
 18 16  1  0
 19 18  2  0
 21 20  1  0
 22 21  1  1
 22 23  1  0
 22 24  1  0
 23 18  1  0
 24 25  1  0
 26 24  2  0
M  END
$$$$
