RNS.pdb
     RDKit          3D

 26 25  0  0  1  0  0  0  0  0999 V2000
   13.5217  -13.8532  -10.8271 N   0  0  0  0  0  0  0  0  0  0  0  0
   12.1952  -14.1486  -10.4189 C   0  0  0  0  0  0  0  0  0  0  0  0
   11.6968  -15.3500  -10.5277 N   0  0  0  0  0  0  0  0  0  0  0  0
   11.4115  -13.0924   -9.8834 N   0  0  0  0  0  0  0  0  0  0  0  0
   12.0159  -11.8127   -9.5636 C   0  0  0  0  0  0  0  0  0  0  0  0
   12.7784  -11.2421  -10.7223 C   0  0  0  0  0  0  0  0  0  0  0  0
   13.4133   -9.9225  -10.4279 C   0  0  0  0  0  0  0  0  0  0  0  0
   14.8751   -9.8559  -10.7892 C   0  0  2  0  0  0  0  0  0  0  0  0
   15.6876  -10.7844  -10.0778 N   0  0  0  0  0  0  0  0  0  0  0  0
   15.3902   -8.4785  -10.7872 C   0  0  0  0  0  0  0  0  0  0  0  0
   14.8159   -7.6046  -11.5188 O   0  0  0  0  0  0  0  0  0  0  0  0
   10.7576  -15.5324  -10.1283 N   0  0  0  0  0  0  0  0  0  0  0  0
   15.5761   -4.0695   -8.2090 C   0  0  0  0  0  0  0  0  0  0  0  0
   15.6057   -5.5213   -8.3286 O   0  0  0  0  0  0  0  0  0  0  0  0
   14.5375   -6.1446   -8.1091 C   0  0  0  0  0  0  0  0  0  0  0  0
   16.8859   -6.1039   -8.6940 C   0  0  2  0  0  0  0  0  0  0  0  0
   17.0036   -6.6504  -10.0719 N   0  0  0  0  0  0  0  0  0  0  0  0
   16.4950   -8.0652  -10.0141 C   0  0  0  0  0  0  0  0  0  0  0  0
   18.4170   -6.8010  -10.5203 O   0  0  0  0  0  0  0  0  0  0  0  0
   19.2388   -7.4270   -9.7365 O   0  0  0  0  0  0  0  0  0  0  0  0
   21.7115   -7.9858  -13.4911 C   0  0  0  0  0  0  0  0  0  0  0  0
   20.4282   -7.7128  -13.0289 C   0  0  1  0  0  0  0  0  0  0  0  0
   20.4240   -6.5770  -12.0234 N   0  0  0  0  0  0  0  0  0  0  0  0
   18.9923   -6.3452  -11.7192 C   0  0  0  0  0  0  0  0  0  0  0  0
   21.0036   -5.4058  -12.6979 O   0  0  0  0  0  0  0  0  0  0  0  0
   22.3637   -5.2032  -12.6715 O   0  0  0  0  0  0  0  0  0  0  0  0
  2  3  2  0
  2  1  1  0
  4  2  1  0
  5  4  1  0
  6  5  1  0
  7  6  1  0
  8 10  1  0
  8  7  1  0
  8  9  1  1
 10 17  1  0
 11 10  2  0
 13 12  1  0
 14 13  2  0
 15 13  1  0
 16 17  1  0
 16 15  1  6
 18 16  1  0
 19 18  2  0
 21 20  1  0
 22 21  1  1
 22 23  1  0
 22 24  1  0
 23 18  1  0
 24 25  1  0
 26 24  2  0
M  END
$$$$
