RNS.pdb
     RDKit          3D

 26 25  0  0  1  0  0  0  0  0999 V2000
   22.8283  -20.3430  -10.2588 N   0  0  0  0  0  0  0  0  0  0  0  0
   23.6234  -20.9480   -9.2511 C   0  0  0  0  0  0  0  0  0  0  0  0
   23.0869  -21.5348   -8.2160 N   0  0  0  0  0  0  0  0  0  0  0  0
   25.0351  -20.8983   -9.3961 N   0  0  0  0  0  0  0  0  0  0  0  0
   25.6419  -20.1119  -10.4537 C   0  0  0  0  0  0  0  0  0  0  0  0
   26.4871  -20.9491  -11.3671 C   0  0  0  0  0  0  0  0  0  0  0  0
   25.7677  -22.1306  -11.9307 C   0  0  0  0  0  0  0  0  0  0  0  0
   25.4873  -22.0251  -13.4079 C   0  0  2  0  0  0  0  0  0  0  0  0
   26.5458  -21.4336  -14.1548 N   0  0  0  0  0  0  0  0  0  0  0  0
   24.1607  -21.4550  -13.6866 C   0  0  0  0  0  0  0  0  0  0  0  0
   23.1299  -22.0218  -13.1918 O   0  0  0  0  0  0  0  0  0  0  0  0
   23.7155  -21.9543   -7.5061 N   0  0  0  0  0  0  0  0  0  0  0  0
   20.3038  -17.9850  -12.8792 C   0  0  0  0  0  0  0  0  0  0  0  0
   21.2591  -17.7514  -13.9542 O   0  0  0  0  0  0  0  0  0  0  0  0
   20.9382  -16.9301  -14.8488 C   0  0  0  0  0  0  0  0  0  0  0  0
   22.5001  -18.5038  -13.8776 C   0  0  1  0  0  0  0  0  0  0  0  0
   22.5862  -19.7383  -14.7020 N   0  0  0  0  0  0  0  0  0  0  0  0
   23.9620  -20.3049  -14.4783 C   0  0  0  0  0  0  0  0  0  0  0  0
   22.5506  -19.4646  -16.1666 O   0  0  0  0  0  0  0  0  0  0  0  0
   23.6518  -19.0923  -16.7413 O   0  0  0  0  0  0  0  0  0  0  0  0
   22.7997  -17.8078  -19.9176 C   0  0  0  0  0  0  0  0  0  0  0  0
   22.5056  -18.1167  -18.5936 C   0  0  1  0  0  0  0  0  0  0  0  0
   21.5891  -19.3210  -18.4888 N   0  0  0  0  0  0  0  0  0  0  0  0
   21.4489  -19.5652  -17.0339 C   0  0  0  0  0  0  0  0  0  0  0  0
   22.2833  -20.4447  -19.1353 O   0  0  0  0  0  0  0  0  0  0  0  0
   22.4237  -20.4677  -20.5033 O   0  0  0  0  0  0  0  0  0  0  0  0
  2  3  2  0
  2  1  1  0
  4  2  1  0
  5  4  1  0
  6  5  1  0
  7  6  1  0
  8 10  1  0
  8  7  1  0
  8  9  1  6
 10 17  1  0
 11 10  2  0
 13 12  1  0
 14 13  2  0
 15 13  1  0
 16 17  1  0
 16 15  1  1
 18 16  1  0
 19 18  2  0
 21 20  1  0
 22 21  1  1
 22 23  1  0
 22 24  1  0
 23 18  1  0
 24 25  1  0
 26 24  2  0
M  END
$$$$
