RNS.pdb
     RDKit          3D

 26 25  0  0  1  0  0  0  0  0999 V2000
   29.1490  -23.5300  -18.2366 N   0  0  0  0  0  0  0  0  0  0  0  0
   28.4034  -22.8369  -19.2252 C   0  0  0  0  0  0  0  0  0  0  0  0
   28.0211  -23.4201  -20.3285 N   0  0  0  0  0  0  0  0  0  0  0  0
   28.0797  -21.4755  -18.9836 N   0  0  0  0  0  0  0  0  0  0  0  0
   28.1619  -20.9229  -17.6446 C   0  0  0  0  0  0  0  0  0  0  0  0
   26.8413  -20.9616  -16.9348 C   0  0  0  0  0  0  0  0  0  0  0  0
   26.8675  -20.3152  -15.5884 C   0  0  0  0  0  0  0  0  0  0  0  0
   26.8410  -21.2939  -14.4424 C   0  0  2  0  0  0  0  0  0  0  0  0
   27.4578  -22.5433  -14.7369 N   0  0  0  0  0  0  0  0  0  0  0  0
   25.5068  -21.4084  -13.8347 C   0  0  0  0  0  0  0  0  0  0  0  0
   24.6686  -22.2287  -14.3379 O   0  0  0  0  0  0  0  0  0  0  0  0
   27.4282  -22.8847  -20.9894 N   0  0  0  0  0  0  0  0  0  0  0  0
   25.6649  -20.7234   -9.1573 C   0  0  0  0  0  0  0  0  0  0  0  0
   24.3582  -21.1073   -9.6749 O   0  0  0  0  0  0  0  0  0  0  0  0
   23.8111  -22.1227   -9.1773 C   0  0  0  0  0  0  0  0  0  0  0  0
   23.8176  -20.2637  -10.7275 C   0  0  2  0  0  0  0  0  0  0  0  0
   23.7445  -20.8566  -12.0891 N   0  0  0  0  0  0  0  0  0  0  0  0
   25.0975  -20.6543  -12.7153 C   0  0  0  0  0  0  0  0  0  0  0  0
   22.8210  -20.1189  -12.9972 O   0  0  0  0  0  0  0  0  0  0  0  0
   23.2870  -19.0863  -13.6280 O   0  0  0  0  0  0  0  0  0  0  0  0
   20.6772  -21.5540  -15.6468 C   0  0  0  0  0  0  0  0  0  0  0  0
   21.0128  -20.2050  -15.5949 C   0  0  1  0  0  0  0  0  0  0  0  0
   20.6948  -19.5996  -14.2408 N   0  0  0  0  0  0  0  0  0  0  0  0
   21.4729  -20.4072  -13.2722 C   0  0  0  0  0  0  0  0  0  0  0  0
   19.2520  -19.7792  -14.0198 O   0  0  0  0  0  0  0  0  0  0  0  0
   18.3490  -19.0810  -14.7871 O   0  0  0  0  0  0  0  0  0  0  0  0
  2  3  2  0
  2  1  1  0
  4  2  1  0
  5  4  1  0
  6  5  1  0
  7  6  1  0
  8 10  1  0
  8  7  1  0
  8  9  1  6
 10 17  1  0
 11 10  2  0
 13 12  1  0
 14 13  2  0
 15 13  1  0
 16 17  1  0
 16 15  1  1
 18 16  1  0
 19 18  2  0
 21 20  1  0
 22 21  1  6
 22 23  1  0
 22 24  1  0
 23 18  1  0
 24 25  1  0
 26 24  2  0
M  END
$$$$
