RNS.pdb
     RDKit          3D

 26 25  0  0  1  0  0  0  0  0999 V2000
   31.1476  -20.4255  -10.7136 N   0  0  0  0  0  0  0  0  0  0  0  0
   31.0988  -21.6580  -11.4152 C   0  0  0  0  0  0  0  0  0  0  0  0
   32.0924  -22.5037  -11.3834 N   0  0  0  0  0  0  0  0  0  0  0  0
   29.9288  -21.9532  -12.1639 N   0  0  0  0  0  0  0  0  0  0  0  0
   28.8300  -21.0074  -12.2211 C   0  0  0  0  0  0  0  0  0  0  0  0
   27.9802  -21.0525  -10.9862 C   0  0  0  0  0  0  0  0  0  0  0  0
   26.8141  -20.1200  -11.0290 C   0  0  0  0  0  0  0  0  0  0  0  0
   25.5517  -20.6961  -10.4407 C   0  0  2  0  0  0  0  0  0  0  0  0
   25.7802  -21.6645   -9.4217 N   0  0  0  0  0  0  0  0  0  0  0  0
   24.5960  -21.1221  -11.4741 C   0  0  0  0  0  0  0  0  0  0  0  0
   24.6905  -22.3014  -11.9525 O   0  0  0  0  0  0  0  0  0  0  0  0
   31.9935  -23.4004  -11.8946 N   0  0  0  0  0  0  0  0  0  0  0  0
   20.3415  -21.4965  -14.4521 C   0  0  0  0  0  0  0  0  0  0  0  0
   20.1717  -20.3532  -13.5652 O   0  0  0  0  0  0  0  0  0  0  0  0
   19.0540  -19.7800  -13.5629 C   0  0  0  0  0  0  0  0  0  0  0  0
   21.3296  -19.9906  -12.7653 C   0  0  2  0  0  0  0  0  0  0  0  0
   22.5585  -20.8051  -12.9590 N   0  0  0  0  0  0  0  0  0  0  0  0
   23.5704  -20.2914  -11.9712 C   0  0  0  0  0  0  0  0  0  0  0  0
   23.2072  -20.5757  -14.2811 O   0  0  0  0  0  0  0  0  0  0  0  0
   23.8382  -19.4573  -14.4614 O   0  0  0  0  0  0  0  0  0  0  0  0
   25.4860  -22.1401  -18.1561 C   0  0  0  0  0  0  0  0  0  0  0  0
   24.7024  -22.3393  -17.0242 C   0  0  2  0  0  0  0  0  0  0  0  0
   23.9530  -21.0801  -16.6320 N   0  0  0  0  0  0  0  0  0  0  0  0
   23.2306  -21.4403  -15.3893 C   0  0  0  0  0  0  0  0  0  0  0  0
   23.0017  -20.7928  -17.7161 O   0  0  0  0  0  0  0  0  0  0  0  0
   23.4442  -20.2052  -18.8783 O   0  0  0  0  0  0  0  0  0  0  0  0
  2  3  2  0
  2  1  1  0
  4  2  1  0
  5  4  1  0
  6  5  1  0
  7  6  1  0
  8 10  1  0
  8  7  1  0
  8  9  1  6
 10 17  1  0
 11 10  2  0
 13 12  1  0
 14 13  2  0
 15 13  1  0
 16 17  1  0
 16 15  1  1
 18 16  1  0
 19 18  2  0
 21 20  1  0
 22 21  1  1
 22 23  1  0
 22 24  1  0
 23 18  1  0
 24 25  1  0
 26 24  2  0
M  END
$$$$
