RNS.pdb
     RDKit          3D

 26 25  0  0  1  0  0  0  0  0999 V2000
   29.4989  -17.7500  -18.0983 N   0  0  0  0  0  0  0  0  0  0  0  0
   28.4990  -16.8706  -18.5888 C   0  0  0  0  0  0  0  0  0  0  0  0
   28.7999  -15.8293  -19.3159 N   0  0  0  0  0  0  0  0  0  0  0  0
   27.1456  -17.1527  -18.2647 N   0  0  0  0  0  0  0  0  0  0  0  0
   26.4370  -18.2323  -18.9262 C   0  0  0  0  0  0  0  0  0  0  0  0
   26.5301  -19.5205  -18.1639 C   0  0  0  0  0  0  0  0  0  0  0  0
   26.1007  -19.4033  -16.7380 C   0  0  0  0  0  0  0  0  0  0  0  0
   27.1387  -19.8692  -15.7493 C   0  0  2  0  0  0  0  0  0  0  0  0
   28.2327  -20.5600  -16.3444 N   0  0  0  0  0  0  0  0  0  0  0  0
   26.5431  -20.5619  -14.5969 C   0  0  0  0  0  0  0  0  0  0  0  0
   26.2609  -21.8021  -14.7017 O   0  0  0  0  0  0  0  0  0  0  0  0
   28.0448  -15.1604  -19.5558 N   0  0  0  0  0  0  0  0  0  0  0  0
   25.1065  -21.7416   -9.7072 C   0  0  0  0  0  0  0  0  0  0  0  0
   25.8514  -20.4898   -9.6804 O   0  0  0  0  0  0  0  0  0  0  0  0
   26.0986  -19.9843   -8.5573 C   0  0  0  0  0  0  0  0  0  0  0  0
   26.2354  -19.9497  -10.9737 C   0  0  1  0  0  0  0  0  0  0  0  0
   25.7917  -20.7073  -12.1738 N   0  0  0  0  0  0  0  0  0  0  0  0
   26.2633  -19.9256  -13.3697 C   0  0  0  0  0  0  0  0  0  0  0  0
   24.3099  -20.7341  -12.3311 O   0  0  0  0  0  0  0  0  0  0  0  0
   23.7252  -19.6573  -12.7553 O   0  0  0  0  0  0  0  0  0  0  0  0
   20.3688  -20.3004  -10.8418 C   0  0  0  0  0  0  0  0  0  0  0  0
   21.7261  -20.5004  -11.0716 C   0  0  2  0  0  0  0  0  0  0  0  0
   21.9675  -21.6182  -12.0683 N   0  0  0  0  0  0  0  0  0  0  0  0
   23.4373  -21.8068  -12.0778 C   0  0  0  0  0  0  0  0  0  0  0  0
   21.5017  -21.1335  -13.3763 O   0  0  0  0  0  0  0  0  0  0  0  0
   20.1561  -21.1139  -13.6604 O   0  0  0  0  0  0  0  0  0  0  0  0
  2  3  2  0
  2  1  1  0
  4  2  1  0
  5  4  1  0
  6  5  1  0
  7  6  1  0
  8 10  1  0
  8  7  1  0
  8  9  1  6
 10 17  1  0
 11 10  2  0
 13 12  1  0
 14 13  2  0
 15 13  1  0
 16 17  1  0
 16 15  1  1
 18 16  1  0
 19 18  2  0
 21 20  1  0
 22 21  1  1
 22 23  1  0
 22 24  1  0
 23 18  1  0
 24 25  1  0
 26 24  2  0
M  END
$$$$
