RNS.pdb
     RDKit          3D

 26 25  0  0  1  0  0  0  0  0999 V2000
   31.7998  -21.1717  -10.4737 N   0  0  0  0  0  0  0  0  0  0  0  0
   31.8391  -22.3916  -11.1975 C   0  0  0  0  0  0  0  0  0  0  0  0
   32.6794  -23.3423  -10.8918 N   0  0  0  0  0  0  0  0  0  0  0  0
   30.9317  -22.5557  -12.2774 N   0  0  0  0  0  0  0  0  0  0  0  0
   30.1110  -21.4473  -12.7279 C   0  0  0  0  0  0  0  0  0  0  0  0
   28.7307  -21.4912  -12.1429 C   0  0  0  0  0  0  0  0  0  0  0  0
   27.8386  -20.3983  -12.6339 C   0  0  0  0  0  0  0  0  0  0  0  0
   26.4265  -20.4853  -12.1142 C   0  0  2  0  0  0  0  0  0  0  0  0
   26.0083  -21.8100  -11.8002 N   0  0  0  0  0  0  0  0  0  0  0  0
   25.4758  -19.7345  -12.9480 C   0  0  0  0  0  0  0  0  0  0  0  0
   25.7581  -18.5339  -13.2758 O   0  0  0  0  0  0  0  0  0  0  0  0
   32.6792  -24.2047  -11.4674 N   0  0  0  0  0  0  0  0  0  0  0  0
   22.1083  -18.5599  -16.6545 C   0  0  0  0  0  0  0  0  0  0  0  0
   22.9291  -19.7420  -16.8818 O   0  0  0  0  0  0  0  0  0  0  0  0
   22.9212  -20.2426  -18.0339 C   0  0  0  0  0  0  0  0  0  0  0  0
   23.6809  -20.2248  -15.7357 C   0  0  1  0  0  0  0  0  0  0  0  0
   23.4231  -19.5525  -14.4347 N   0  0  0  0  0  0  0  0  0  0  0  0
   24.2569  -20.2728  -13.4101 C   0  0  0  0  0  0  0  0  0  0  0  0
   22.0266  -19.7395  -13.9487 O   0  0  0  0  0  0  0  0  0  0  0  0
   21.6812  -20.9188  -13.5346 O   0  0  0  0  0  0  0  0  0  0  0  0
   19.2903  -16.7675  -13.7394 C   0  0  0  0  0  0  0  0  0  0  0  0
   19.1428  -17.7737  -12.7903 C   0  0  1  0  0  0  0  0  0  0  0  0
   19.6824  -19.1002  -13.2906 N   0  0  0  0  0  0  0  0  0  0  0  0
   21.0060  -18.7759  -13.8726 C   0  0  0  0  0  0  0  0  0  0  0  0
   18.7611  -19.5703  -14.3360 O   0  0  0  0  0  0  0  0  0  0  0  0
   17.4873  -19.9654  -13.9998 O   0  0  0  0  0  0  0  0  0  0  0  0
  2  3  2  0
  2  1  1  0
  4  2  1  0
  5  4  1  0
  6  5  1  0
  7  6  1  0
  8 10  1  0
  8  7  1  0
  8  9  1  6
 10 17  1  0
 11 10  2  0
 13 12  1  0
 14 13  2  0
 15 13  1  0
 16 17  1  0
 16 15  1  6
 18 16  1  0
 19 18  2  0
 21 20  1  0
 22 21  1  1
 22 23  1  0
 22 24  1  0
 23 18  1  0
 24 25  1  0
 26 24  2  0
M  END
$$$$
