RWA.pdb
     RDKit          3D

 31 32  0  0  1  0  0  0  0  0999 V2000
   25.5634  -20.4120  -17.6368 N   0  0  0  0  0  0  0  0  0  0  0  0
   25.6298  -19.0183  -17.3302 C   0  0  0  0  0  0  0  0  0  0  0  0
   25.0502  -18.1933  -18.1329 N   0  0  0  0  0  0  0  0  0  0  0  0
   26.3197  -18.5884  -16.1749 N   0  0  0  0  0  0  0  0  0  0  0  0
   26.1661  -19.2837  -14.9453 C   0  0  0  0  0  0  0  0  0  0  0  0
   24.8057  -19.4072  -14.3766 C   0  0  0  0  0  0  0  0  0  0  0  0
   24.6299  -20.1591  -13.1193 C   0  0  0  0  0  0  0  0  0  0  0  0
   25.8410  -20.2089  -12.2518 C   0  0  2  0  0  0  0  0  0  0  0  0
   26.8555  -20.9722  -12.9489 N   0  0  0  0  0  0  0  0  0  0  0  0
   25.5232  -20.9543  -10.9840 C   0  0  0  0  0  0  0  0  0  0  0  0
   25.3988  -22.1961  -11.0119 O   0  0  0  0  0  0  0  0  0  0  0  0
   25.1023  -17.1633  -18.0088 N   0  0  0  0  0  0  0  0  0  0  0  0
   25.3714  -20.2419   -9.7855 C   0  0  2  0  0  0  0  0  0  0  0  0
   24.7918  -20.8752   -8.6407 C   0  0  0  0  0  0  0  0  0  0  0  0
   25.4023  -20.2835   -7.3614 C   0  0  0  0  0  0  0  0  0  0  0  0
   26.8799  -20.4460   -7.3952 C   0  0  0  0  0  0  0  0  0  0  0  0
   27.6318  -21.0909   -8.3468 N   0  0  0  0  0  0  0  0  0  0  0  0
   28.9115  -20.9970   -7.9797 C   0  0  0  0  0  0  0  0  0  0  0  0
   29.0014  -20.3088   -6.8170 C   0  0  0  0  0  0  0  0  0  0  0  0
   30.0854  -19.9430   -6.0282 C   0  0  0  0  0  0  0  0  0  0  0  0
   29.8754  -19.2332   -4.8791 C   0  0  0  0  0  0  0  0  0  0  0  0
   28.5894  -18.8692   -4.4841 C   0  0  0  0  0  0  0  0  0  0  0  0
   27.5181  -19.2337   -5.2687 C   0  0  0  0  0  0  0  0  0  0  0  0
   27.7264  -19.9548   -6.4368 C   0  0  0  0  0  0  0  0  0  0  0  0
   23.3091  -20.7438   -8.6094 O   0  0  0  0  0  0  0  0  0  0  0  0
   22.6841  -20.0071   -9.4141 C   0  0  0  0  0  0  0  0  0  0  0  0
   21.0550  -22.1783   -9.3963 C   0  0  2  0  0  0  0  0  0  0  0  0
   21.1136  -21.7507   -7.9253 N   0  0  0  0  0  0  0  0  0  0  0  0
   22.5052  -21.4486   -7.6609 C   0  0  0  0  0  0  0  0  0  0  0  0
   20.6056  -22.8648   -7.1237 O   0  0  0  0  0  0  0  0  0  0  0  0
   19.2467  -23.1204   -7.0702 O   0  0  0  0  0  0  0  0  0  0  0  0
  2  1  1  0
  3  2  2  0
  4  2  1  0
  5  4  1  0
  6  5  1  0
  7  6  1  0
  8 10  1  0
  8  7  1  0
  8  9  1  6
 10 11  2  0
 12 13  1  0
 12 10  1  0
 13 14  1  6
 15 16  2  0
 15 14  1  0
 17 16  1  0
 18 23  2  0
 18 17  1  0
 19 18  1  0
 20 21  1  0
 20 19  2  0
 21 22  2  0
 22 23  1  0
 23 15  1  0
 24 28  1  0
 24 13  1  0
 25 24  2  0
 27 26  1  6
 27 29  1  0
 27 28  1  0
 29 30  1  0
 31 29  2  0
M  END
$$$$
