RWA.pdb
     RDKit          3D

 31 32  0  0  1  0  0  0  0  0999 V2000
   31.1295  -24.0150  -17.4837 N   0  0  0  0  0  0  0  0  0  0  0  0
   30.2946  -23.2181  -18.3254 C   0  0  0  0  0  0  0  0  0  0  0  0
   30.0651  -23.6370  -19.5224 N   0  0  0  0  0  0  0  0  0  0  0  0
   29.7531  -22.0104  -17.8317 N   0  0  0  0  0  0  0  0  0  0  0  0
   28.9964  -22.0002  -16.6291 C   0  0  0  0  0  0  0  0  0  0  0  0
   28.4077  -23.2748  -16.1620 C   0  0  0  0  0  0  0  0  0  0  0  0
   27.4302  -23.2400  -15.0574 C   0  0  0  0  0  0  0  0  0  0  0  0
   26.7698  -21.9191  -14.8548 C   0  0  2  0  0  0  0  0  0  0  0  0
   27.8045  -20.9421  -14.5851 N   0  0  0  0  0  0  0  0  0  0  0  0
   25.8903  -21.9764  -13.6354 C   0  0  0  0  0  0  0  0  0  0  0  0
   25.1714  -22.9778  -13.4386 O   0  0  0  0  0  0  0  0  0  0  0  0
   29.4518  -23.1243  -20.1856 N   0  0  0  0  0  0  0  0  0  0  0  0
   25.8907  -20.9017  -12.7343 C   0  0  1  0  0  0  0  0  0  0  0  0
   25.0249  -20.9176  -11.5953 C   0  0  0  0  0  0  0  0  0  0  0  0
   25.5797  -19.9780  -10.5142 C   0  0  0  0  0  0  0  0  0  0  0  0
   26.8753  -20.5083  -10.0130 C   0  0  0  0  0  0  0  0  0  0  0  0
   27.7834  -21.2843  -10.6912 N   0  0  0  0  0  0  0  0  0  0  0  0
   28.7990  -21.5325   -9.8618 C   0  0  0  0  0  0  0  0  0  0  0  0
   28.5672  -20.9363   -8.6683 C   0  0  0  0  0  0  0  0  0  0  0  0
   29.3002  -20.8888   -7.4886 C   0  0  0  0  0  0  0  0  0  0  0  0
   28.8110  -20.1952   -6.4172 C   0  0  0  0  0  0  0  0  0  0  0  0
   27.5867  -19.5331   -6.4879 C   0  0  0  0  0  0  0  0  0  0  0  0
   26.8637  -19.5828   -7.6588 C   0  0  0  0  0  0  0  0  0  0  0  0
   27.3564  -20.2861   -8.7498 C   0  0  0  0  0  0  0  0  0  0  0  0
   23.6278  -20.5348  -11.9392 O   0  0  0  0  0  0  0  0  0  0  0  0
   23.2831  -19.3376  -12.1095 C   0  0  0  0  0  0  0  0  0  0  0  0
   20.6421  -22.3124  -13.1902 C   0  0  2  0  0  0  0  0  0  0  0  0
   21.2368  -21.1207  -12.4311 N   0  0  0  0  0  0  0  0  0  0  0  0
   22.5920  -21.5069  -12.0966 C   0  0  0  0  0  0  0  0  0  0  0  0
   20.3990  -20.8877  -11.2540 O   0  0  0  0  0  0  0  0  0  0  0  0
   19.1717  -20.2625  -11.3864 O   0  0  0  0  0  0  0  0  0  0  0  0
  2  1  1  0
  3  2  2  0
  4  2  1  0
  5  4  1  0
  6  5  1  0
  7  6  1  0
  8 10  1  0
  8  7  1  0
  8  9  1  1
 10 11  2  0
 12 13  1  0
 12 10  1  0
 13 14  1  1
 15 16  2  0
 15 14  1  0
 17 16  1  0
 18 23  2  0
 18 17  1  0
 19 18  1  0
 20 21  1  0
 20 19  2  0
 21 22  2  0
 22 23  1  0
 23 15  1  0
 24 28  1  0
 24 13  1  0
 25 24  2  0
 27 26  1  6
 27 29  1  0
 27 28  1  0
 29 30  1  0
 31 29  2  0
M  END
$$$$
