RWA.pdb
     RDKit          3D

 31 32  0  0  1  0  0  0  0  0999 V2000
   25.1985  -21.4329  -17.2944 N   0  0  0  0  0  0  0  0  0  0  0  0
   24.5586  -20.1615  -17.4152 C   0  0  0  0  0  0  0  0  0  0  0  0
   23.7463  -19.9834  -18.3998 N   0  0  0  0  0  0  0  0  0  0  0  0
   24.8303  -19.1489  -16.4685 N   0  0  0  0  0  0  0  0  0  0  0  0
   25.1824  -19.4877  -15.1342 C   0  0  0  0  0  0  0  0  0  0  0  0
   24.1268  -20.0237  -14.2467 C   0  0  0  0  0  0  0  0  0  0  0  0
   24.5070  -20.9897  -13.1982 C   0  0  0  0  0  0  0  0  0  0  0  0
   25.7882  -20.6782  -12.5029 C   0  0  2  0  0  0  0  0  0  0  0  0
   26.8338  -21.4629  -13.1263 N   0  0  0  0  0  0  0  0  0  0  0  0
   25.7034  -21.1200  -11.0670 C   0  0  0  0  0  0  0  0  0  0  0  0
   25.8251  -22.3298  -10.7845 O   0  0  0  0  0  0  0  0  0  0  0  0
   23.2922  -19.0690  -18.5910 N   0  0  0  0  0  0  0  0  0  0  0  0
   25.4887  -20.1640  -10.0636 C   0  0  1  0  0  0  0  0  0  0  0  0
   25.3986  -20.5669   -8.6936 C   0  0  0  0  0  0  0  0  0  0  0  0
   26.1188  -19.5400   -7.8069 C   0  0  0  0  0  0  0  0  0  0  0  0
   27.5008  -20.0103   -7.5249 C   0  0  0  0  0  0  0  0  0  0  0  0
   28.3231  -20.7410   -8.3475 N   0  0  0  0  0  0  0  0  0  0  0  0
   29.4688  -20.9437   -7.6937 C   0  0  0  0  0  0  0  0  0  0  0  0
   29.4041  -20.3624   -6.4724 C   0  0  0  0  0  0  0  0  0  0  0  0
   30.3136  -20.2840   -5.4247 C   0  0  0  0  0  0  0  0  0  0  0  0
   29.9711  -19.6171   -4.2818 C   0  0  0  0  0  0  0  0  0  0  0  0
   28.7223  -19.0130   -4.1490 C   0  0  0  0  0  0  0  0  0  0  0  0
   27.8241  -19.0931   -5.1897 C   0  0  0  0  0  0  0  0  0  0  0  0
   28.1674  -19.7695   -6.3526 C   0  0  0  0  0  0  0  0  0  0  0  0
   23.9895  -20.7345   -8.2430 O   0  0  0  0  0  0  0  0  0  0  0  0
   23.1351  -19.8192   -8.3586 C   0  0  0  0  0  0  0  0  0  0  0  0
   21.9840  -23.5769   -6.8574 C   0  0  2  0  0  0  0  0  0  0  0  0
   22.1518  -22.0931   -7.2040 N   0  0  0  0  0  0  0  0  0  0  0  0
   23.5220  -21.9482   -7.6505 C   0  0  0  0  0  0  0  0  0  0  0  0
   21.8577  -21.3236   -5.9943 O   0  0  0  0  0  0  0  0  0  0  0  0
   20.5580  -21.2292   -5.5289 O   0  0  0  0  0  0  0  0  0  0  0  0
  2  1  1  0
  3  2  2  0
  4  2  1  0
  5  4  1  0
  6  5  1  0
  7  6  1  0
  8 10  1  0
  8  7  1  0
  8  9  1  6
 10 11  2  0
 12 13  1  0
 12 10  1  0
 13 14  1  6
 15 16  2  0
 15 14  1  0
 17 16  1  0
 18 23  2  0
 18 17  1  0
 19 18  1  0
 20 21  1  0
 20 19  2  0
 21 22  2  0
 22 23  1  0
 23 15  1  0
 24 28  1  0
 24 13  1  0
 25 24  2  0
 27 26  1  6
 27 29  1  0
 27 28  1  0
 29 30  1  0
 31 29  2  0
M  END
$$$$
