RWA.pdb
     RDKit          3D

 31 32  0  0  1  0  0  0  0  0999 V2000
   28.1964  -22.1380  -16.6877 N   0  0  0  0  0  0  0  0  0  0  0  0
   28.5238  -21.0785  -17.5882 C   0  0  0  0  0  0  0  0  0  0  0  0
   28.6649  -21.3664  -18.8364 N   0  0  0  0  0  0  0  0  0  0  0  0
   28.6837  -19.7648  -17.0941 N   0  0  0  0  0  0  0  0  0  0  0  0
   28.5902  -19.5045  -15.7004 C   0  0  0  0  0  0  0  0  0  0  0  0
   28.5307  -20.6580  -14.7756 C   0  0  0  0  0  0  0  0  0  0  0  0
   27.4499  -20.7056  -13.7723 C   0  0  0  0  0  0  0  0  0  0  0  0
   27.8888  -20.4322  -12.3743 C   0  0  2  0  0  0  0  0  0  0  0  0
   29.1177  -21.1633  -12.1437 N   0  0  0  0  0  0  0  0  0  0  0  0
   26.8680  -20.9726  -11.4101 C   0  0  0  0  0  0  0  0  0  0  0  0
   26.5824  -22.1877  -11.4291 O   0  0  0  0  0  0  0  0  0  0  0  0
   28.8889  -20.6490  -19.5534 N   0  0  0  0  0  0  0  0  0  0  0  0
   26.2503  -20.1017  -10.5008 C   0  0  1  0  0  0  0  0  0  0  0  0
   25.1608  -20.5587   -9.6936 C   0  0  0  0  0  0  0  0  0  0  0  0
   25.0091  -19.6443   -8.4687 C   0  0  0  0  0  0  0  0  0  0  0  0
   26.3345  -19.4580   -7.8211 C   0  0  0  0  0  0  0  0  0  0  0  0
   27.3164  -18.5599   -8.1616 N   0  0  0  0  0  0  0  0  0  0  0  0
   28.3360  -18.7402   -7.3196 C   0  0  0  0  0  0  0  0  0  0  0  0
   28.0349  -19.7309   -6.4469 C   0  0  0  0  0  0  0  0  0  0  0  0
   28.7421  -20.2947   -5.3919 C   0  0  0  0  0  0  0  0  0  0  0  0
   28.1782  -21.3053   -4.6647 C   0  0  0  0  0  0  0  0  0  0  0  0
   26.9030  -21.7812   -4.9640 C   0  0  0  0  0  0  0  0  0  0  0  0
   26.2058  -21.2197   -6.0103 C   0  0  0  0  0  0  0  0  0  0  0  0
   26.7744  -20.1929   -6.7519 C   0  0  0  0  0  0  0  0  0  0  0  0
   23.8800  -20.6187  -10.4503 O   0  0  0  0  0  0  0  0  0  0  0  0
   23.4721  -19.6606  -11.1551 C   0  0  0  0  0  0  0  0  0  0  0  0
   21.3732  -23.2789  -11.2028 C   0  0  2  0  0  0  0  0  0  0  0  0
   21.7715  -21.8005  -11.1281 N   0  0  0  0  0  0  0  0  0  0  0  0
   23.0351  -21.7710  -10.4211 C   0  0  0  0  0  0  0  0  0  0  0  0
   20.7022  -21.0928  -10.4227 O   0  0  0  0  0  0  0  0  0  0  0  0
   19.4376  -21.0111  -10.9785 O   0  0  0  0  0  0  0  0  0  0  0  0
  2  1  1  0
  3  2  2  0
  4  2  1  0
  5  4  1  0
  6  5  1  0
  7  6  1  0
  8 10  1  0
  8  7  1  0
  8  9  1  1
 10 11  2  0
 12 13  1  0
 12 10  1  0
 13 14  1  1
 15 16  2  0
 15 14  1  0
 17 16  1  0
 18 23  2  0
 18 17  1  0
 19 18  1  0
 20 21  1  0
 20 19  2  0
 21 22  2  0
 22 23  1  0
 23 15  1  0
 24 28  1  0
 24 13  1  0
 25 24  2  0
 27 26  1  6
 27 29  1  0
 27 28  1  0
 29 30  1  0
 31 29  2  0
M  END
$$$$
