RWA.pdb
     RDKit          3D

 31 32  0  0  1  0  0  0  0  0999 V2000
   27.9265  -24.5404  -19.6820 N   0  0  0  0  0  0  0  0  0  0  0  0
   26.5777  -24.9117  -19.3931 C   0  0  0  0  0  0  0  0  0  0  0  0
   26.1173  -25.9884  -19.9314 N   0  0  0  0  0  0  0  0  0  0  0  0
   25.7963  -24.1008  -18.5402 N   0  0  0  0  0  0  0  0  0  0  0  0
   26.3699  -22.9701  -17.8988 C   0  0  0  0  0  0  0  0  0  0  0  0
   27.5357  -23.1846  -17.0133 C   0  0  0  0  0  0  0  0  0  0  0  0
   27.3405  -23.0994  -15.5533 C   0  0  0  0  0  0  0  0  0  0  0  0
   27.2041  -21.7120  -15.0256 C   0  0  2  0  0  0  0  0  0  0  0  0
   28.5354  -21.1646  -14.8662 N   0  0  0  0  0  0  0  0  0  0  0  0
   26.5779  -21.7515  -13.6580 C   0  0  0  0  0  0  0  0  0  0  0  0
   25.4751  -22.3144  -13.4994 O   0  0  0  0  0  0  0  0  0  0  0  0
   25.1168  -26.2603  -19.8693 N   0  0  0  0  0  0  0  0  0  0  0  0
   27.2440  -21.1545  -12.5778 C   0  0  1  0  0  0  0  0  0  0  0  0
   26.6044  -21.0609  -11.3013 C   0  0  0  0  0  0  0  0  0  0  0  0
   27.5469  -20.3720  -10.3030 C   0  0  0  0  0  0  0  0  0  0  0  0
   26.8705  -20.2507   -8.9844 C   0  0  0  0  0  0  0  0  0  0  0  0
   25.5245  -20.3266   -8.7213 N   0  0  0  0  0  0  0  0  0  0  0  0
   25.3616  -20.1600   -7.4072 C   0  0  0  0  0  0  0  0  0  0  0  0
   26.5679  -19.9790   -6.8191 C   0  0  0  0  0  0  0  0  0  0  0  0
   26.9415  -19.7665   -5.4975 C   0  0  0  0  0  0  0  0  0  0  0  0
   28.2635  -19.6138   -5.1859 C   0  0  0  0  0  0  0  0  0  0  0  0
   29.2456  -19.6677   -6.1732 C   0  0  0  0  0  0  0  0  0  0  0  0
   28.8709  -19.8784   -7.4814 C   0  0  0  0  0  0  0  0  0  0  0  0
   27.5292  -20.0340   -7.8030 C   0  0  0  0  0  0  0  0  0  0  0  0
   25.3076  -20.3325  -11.3683 O   0  0  0  0  0  0  0  0  0  0  0  0
   25.2436  -19.0768  -11.3775 C   0  0  0  0  0  0  0  0  0  0  0  0
   21.9984  -21.2114  -12.6012 C   0  0  2  0  0  0  0  0  0  0  0  0
   22.8154  -20.3092  -11.6694 N   0  0  0  0  0  0  0  0  0  0  0  0
   24.0549  -21.0180  -11.4264 C   0  0  0  0  0  0  0  0  0  0  0  0
   22.0251  -20.1016  -10.4552 O   0  0  0  0  0  0  0  0  0  0  0  0
   22.2295  -20.9039   -9.3465 O   0  0  0  0  0  0  0  0  0  0  0  0
  2  1  1  0
  3  2  2  0
  4  2  1  0
  5  4  1  0
  6  5  1  0
  7  6  1  0
  8 10  1  0
  8  7  1  0
  8  9  1  1
 10 11  2  0
 12 13  1  0
 12 10  1  0
 13 14  1  6
 15 16  2  0
 15 14  1  0
 17 16  1  0
 18 23  2  0
 18 17  1  0
 19 18  1  0
 20 21  1  0
 20 19  2  0
 21 22  2  0
 22 23  1  0
 23 15  1  0
 24 28  1  0
 24 13  1  0
 25 24  2  0
 27 26  1  6
 27 29  1  0
 27 28  1  0
 29 30  1  0
 31 29  2  0
M  END
$$$$
