RWA.pdb
     RDKit          3D

 31 32  0  0  1  0  0  0  0  0999 V2000
   23.8353  -19.7285  -17.6988 N   0  0  0  0  0  0  0  0  0  0  0  0
   24.4902  -19.5884  -18.9605 C   0  0  0  0  0  0  0  0  0  0  0  0
   24.0813  -18.6602  -19.7555 N   0  0  0  0  0  0  0  0  0  0  0  0
   25.5504  -20.4586  -19.2987 N   0  0  0  0  0  0  0  0  0  0  0  0
   26.1160  -21.3178  -18.3184 C   0  0  0  0  0  0  0  0  0  0  0  0
   26.0426  -22.7786  -18.5423 C   0  0  0  0  0  0  0  0  0  0  0  0
   26.3931  -23.6833  -17.4308 C   0  0  0  0  0  0  0  0  0  0  0  0
   27.2794  -23.0796  -16.3954 C   0  0  2  0  0  0  0  0  0  0  0  0
   28.2420  -24.0846  -15.9941 N   0  0  0  0  0  0  0  0  0  0  0  0
   26.4685  -22.7352  -15.1757 C   0  0  0  0  0  0  0  0  0  0  0  0
   25.8934  -23.6424  -14.5397 O   0  0  0  0  0  0  0  0  0  0  0  0
   24.5079  -18.4954  -20.6881 N   0  0  0  0  0  0  0  0  0  0  0  0
   26.3703  -21.3967  -14.7690 C   0  0  2  0  0  0  0  0  0  0  0  0
   25.6840  -21.0609  -13.5592 C   0  0  0  0  0  0  0  0  0  0  0  0
   26.3321  -19.8197  -12.9275 C   0  0  0  0  0  0  0  0  0  0  0  0
   27.4495  -20.2400  -12.0411 C   0  0  0  0  0  0  0  0  0  0  0  0
   28.7141  -20.6280  -12.4111 N   0  0  0  0  0  0  0  0  0  0  0  0
   29.3869  -20.9216  -11.2966 C   0  0  0  0  0  0  0  0  0  0  0  0
   28.5875  -20.7324  -10.2201 C   0  0  0  0  0  0  0  0  0  0  0  0
   28.8018  -20.8932   -8.8564 C   0  0  0  0  0  0  0  0  0  0  0  0
   27.7908  -20.6217   -7.9776 C   0  0  0  0  0  0  0  0  0  0  0  0
   26.5458  -20.1854   -8.4267 C   0  0  0  0  0  0  0  0  0  0  0  0
   26.3378  -20.0275   -9.7788 C   0  0  0  0  0  0  0  0  0  0  0  0
   27.3617  -20.3021  -10.6755 C   0  0  0  0  0  0  0  0  0  0  0  0
   24.2304  -20.8248  -13.7782 O   0  0  0  0  0  0  0  0  0  0  0  0
   23.8048  -20.0264  -14.6514 C   0  0  0  0  0  0  0  0  0  0  0  0
   21.0843  -22.3337  -12.4248 C   0  0  2  0  0  0  0  0  0  0  0  0
   21.8180  -21.2609  -13.2376 N   0  0  0  0  0  0  0  0  0  0  0  0
   23.2291  -21.4925  -13.0075 C   0  0  0  0  0  0  0  0  0  0  0  0
   21.3639  -19.9564  -12.7537 O   0  0  0  0  0  0  0  0  0  0  0  0
   20.1200  -19.4733  -13.1196 O   0  0  0  0  0  0  0  0  0  0  0  0
  2  1  1  0
  3  2  2  0
  4  2  1  0
  5  4  1  0
  6  5  1  0
  7  6  1  0
  8 10  1  0
  8  7  1  0
  8  9  1  1
 10 11  2  0
 12 13  1  0
 12 10  1  0
 13 14  1  6
 15 16  2  0
 15 14  1  0
 17 16  1  0
 18 23  2  0
 18 17  1  0
 19 18  1  0
 20 21  1  0
 20 19  2  0
 21 22  2  0
 22 23  1  0
 23 15  1  0
 24 28  1  0
 24 13  1  0
 25 24  2  0
 27 26  1  6
 27 29  1  0
 27 28  1  0
 29 30  1  0
 31 29  2  0
M  END
$$$$
