RWA.pdb
     RDKit          3D

 31 32  0  0  1  0  0  0  0  0999 V2000
   29.8812  -25.7592  -15.6336 N   0  0  0  0  0  0  0  0  0  0  0  0
   29.0695  -26.0674  -16.7680 C   0  0  0  0  0  0  0  0  0  0  0  0
   28.9372  -27.3057  -17.0996 N   0  0  0  0  0  0  0  0  0  0  0  0
   28.4451  -25.0232  -17.4857 N   0  0  0  0  0  0  0  0  0  0  0  0
   28.1189  -23.8009  -16.8388 C   0  0  0  0  0  0  0  0  0  0  0  0
   27.0549  -23.8157  -15.8107 C   0  0  0  0  0  0  0  0  0  0  0  0
   26.6330  -22.5356  -15.2105 C   0  0  0  0  0  0  0  0  0  0  0  0
   25.8307  -21.6617  -16.1131 C   0  0  2  0  0  0  0  0  0  0  0  0
   26.7405  -20.7422  -16.7647 N   0  0  0  0  0  0  0  0  0  0  0  0
   24.8772  -20.8326  -15.2963 C   0  0  0  0  0  0  0  0  0  0  0  0
   25.2971  -19.8253  -14.6904 O   0  0  0  0  0  0  0  0  0  0  0  0
   28.4889  -27.6011  -17.9888 N   0  0  0  0  0  0  0  0  0  0  0  0
   23.5265  -21.2037  -15.2273 C   0  0  2  0  0  0  0  0  0  0  0  0
   22.5778  -20.3491  -14.5816 C   0  0  0  0  0  0  0  0  0  0  0  0
   21.4744  -19.9605  -15.5771 C   0  0  0  0  0  0  0  0  0  0  0  0
   21.8458  -18.6929  -16.2598 C   0  0  0  0  0  0  0  0  0  0  0  0
   22.6001  -18.5421  -17.3979 N   0  0  0  0  0  0  0  0  0  0  0  0
   22.6857  -17.2350  -17.6533 C   0  0  0  0  0  0  0  0  0  0  0  0
   22.0063  -16.5420  -16.7090 C   0  0  0  0  0  0  0  0  0  0  0  0
   21.7910  -15.1820  -16.5211 C   0  0  0  0  0  0  0  0  0  0  0  0
   21.0477  -14.7570  -15.4557 C   0  0  0  0  0  0  0  0  0  0  0  0
   20.5007  -15.6665  -14.5524 C   0  0  0  0  0  0  0  0  0  0  0  0
   20.7165  -17.0131  -14.7425 C   0  0  0  0  0  0  0  0  0  0  0  0
   21.4710  -17.4497  -15.8232 C   0  0  0  0  0  0  0  0  0  0  0  0
   21.9787  -20.9777  -13.3722 O   0  0  0  0  0  0  0  0  0  0  0  0
   21.5832  -22.1713  -13.3630 C   0  0  0  0  0  0  0  0  0  0  0  0
   21.1853  -19.7902   -9.9043 C   0  0  2  0  0  0  0  0  0  0  0  0
   21.1032  -20.8342  -11.0238 N   0  0  0  0  0  0  0  0  0  0  0  0
   21.8167  -20.2610  -12.1463 C   0  0  0  0  0  0  0  0  0  0  0  0
   19.6858  -21.0679  -11.3031 O   0  0  0  0  0  0  0  0  0  0  0  0
   18.9244  -21.8370  -10.4408 O   0  0  0  0  0  0  0  0  0  0  0  0
  2  1  1  0
  3  2  2  0
  4  2  1  0
  5  4  1  0
  6  5  1  0
  7  6  1  0
  8 10  1  0
  8  7  1  0
  8  9  1  1
 10 11  2  0
 12 13  1  0
 12 10  1  0
 13 14  1  1
 15 16  2  0
 15 14  1  0
 17 16  1  0
 18 23  2  0
 18 17  1  0
 19 18  1  0
 20 21  1  0
 20 19  2  0
 21 22  2  0
 22 23  1  0
 23 15  1  0
 24 28  1  0
 24 13  1  0
 25 24  2  0
 27 26  1  1
 27 29  1  0
 27 28  1  0
 29 30  1  0
 31 29  2  0
M  END
$$$$
