RWA.pdb
     RDKit          3D

 31 32  0  0  1  0  0  0  0  0999 V2000
   30.4159  -25.5913  -15.9384 N   0  0  0  0  0  0  0  0  0  0  0  0
   31.0846  -25.4362  -17.1912 C   0  0  0  0  0  0  0  0  0  0  0  0
   32.0484  -26.2458  -17.4677 N   0  0  0  0  0  0  0  0  0  0  0  0
   30.6794  -24.4144  -18.0784 N   0  0  0  0  0  0  0  0  0  0  0  0
   29.5694  -23.5856  -17.7620 C   0  0  0  0  0  0  0  0  0  0  0  0
   29.6173  -22.8007  -16.5086 C   0  0  0  0  0  0  0  0  0  0  0  0
   28.5508  -22.9988  -15.5084 C   0  0  0  0  0  0  0  0  0  0  0  0
   27.3795  -22.0898  -15.6622 C   0  0  2  0  0  0  0  0  0  0  0  0
   27.8828  -20.7446  -15.8481 N   0  0  0  0  0  0  0  0  0  0  0  0
   26.5732  -22.0864  -14.3919 C   0  0  0  0  0  0  0  0  0  0  0  0
   26.0744  -23.1516  -13.9737 O   0  0  0  0  0  0  0  0  0  0  0  0
   32.5452  -26.2321  -18.3797 N   0  0  0  0  0  0  0  0  0  0  0  0
   26.3934  -20.8838  -13.6932 C   0  0  1  0  0  0  0  0  0  0  0  0
   25.6304  -20.8620  -12.4829 C   0  0  0  0  0  0  0  0  0  0  0  0
   26.2234  -19.8230  -11.5195 C   0  0  0  0  0  0  0  0  0  0  0  0
   27.3621  -20.4265  -10.7780 C   0  0  0  0  0  0  0  0  0  0  0  0
   28.4210  -21.1322  -11.2953 N   0  0  0  0  0  0  0  0  0  0  0  0
   29.2031  -21.4895  -10.2747 C   0  0  0  0  0  0  0  0  0  0  0  0
   28.6744  -21.0319   -9.1151 C   0  0  0  0  0  0  0  0  0  0  0  0
   29.0917  -21.1320   -7.7933 C   0  0  0  0  0  0  0  0  0  0  0  0
   28.3424  -20.5598   -6.8036 C   0  0  0  0  0  0  0  0  0  0  0  0
   27.1643  -19.8761   -7.0982 C   0  0  0  0  0  0  0  0  0  0  0  0
   26.7545  -19.7794   -8.4092 C   0  0  0  0  0  0  0  0  0  0  0  0
   27.5122  -20.3591   -9.4181 C   0  0  0  0  0  0  0  0  0  0  0  0
   24.1901  -20.5731  -12.7252 O   0  0  0  0  0  0  0  0  0  0  0  0
   23.7789  -19.4253  -13.0327 C   0  0  0  0  0  0  0  0  0  0  0  0
   21.1255  -22.6228  -13.1922 C   0  0  2  0  0  0  0  0  0  0  0  0
   21.7855  -21.2853  -12.8383 N   0  0  0  0  0  0  0  0  0  0  0  0
   23.1860  -21.5850  -12.6227 C   0  0  0  0  0  0  0  0  0  0  0  0
   21.1180  -20.7692  -11.6424 O   0  0  0  0  0  0  0  0  0  0  0  0
   19.8818  -20.1563  -11.7456 O   0  0  0  0  0  0  0  0  0  0  0  0
  2  1  1  0
  3  2  2  0
  4  2  1  0
  5  4  1  0
  6  5  1  0
  7  6  1  0
  8 10  1  0
  8  7  1  0
  8  9  1  1
 10 11  2  0
 12 13  1  0
 12 10  1  0
 13 14  1  1
 15 16  2  0
 15 14  1  0
 17 16  1  0
 18 23  2  0
 18 17  1  0
 19 18  1  0
 20 21  1  0
 20 19  2  0
 21 22  2  0
 22 23  1  0
 23 15  1  0
 24 28  1  0
 24 13  1  0
 25 24  2  0
 27 26  1  6
 27 29  1  0
 27 28  1  0
 29 30  1  0
 31 29  2  0
M  END
$$$$
