RWA.pdb
     RDKit          3D

 31 32  0  0  1  0  0  0  0  0999 V2000
   24.8798  -21.7705  -21.8707 N   0  0  0  0  0  0  0  0  0  0  0  0
   24.9445  -20.3473  -21.9744 C   0  0  0  0  0  0  0  0  0  0  0  0
   24.6303  -19.8071  -23.1015 N   0  0  0  0  0  0  0  0  0  0  0  0
   25.3469  -19.5822  -20.8571 N   0  0  0  0  0  0  0  0  0  0  0  0
   26.3382  -20.0759  -19.9668 C   0  0  0  0  0  0  0  0  0  0  0  0
   25.8989  -20.8931  -18.8143 C   0  0  0  0  0  0  0  0  0  0  0  0
   25.7360  -20.2371  -17.5027 C   0  0  0  0  0  0  0  0  0  0  0  0
   26.5597  -20.8253  -16.4084 C   0  0  2  0  0  0  0  0  0  0  0  0
   27.1891  -22.0244  -16.9219 N   0  0  0  0  0  0  0  0  0  0  0  0
   25.6649  -21.2488  -15.2753 C   0  0  0  0  0  0  0  0  0  0  0  0
   25.2366  -22.4204  -15.2308 O   0  0  0  0  0  0  0  0  0  0  0  0
   24.6857  -18.7829  -23.2649 N   0  0  0  0  0  0  0  0  0  0  0  0
   25.3242  -20.3191  -14.2820 C   0  0  2  0  0  0  0  0  0  0  0  0
   24.4442  -20.6936  -13.2177 C   0  0  0  0  0  0  0  0  0  0  0  0
   24.6528  -19.7517  -12.0223 C   0  0  0  0  0  0  0  0  0  0  0  0
   23.9609  -20.3047  -10.8280 C   0  0  0  0  0  0  0  0  0  0  0  0
   24.4421  -21.2271   -9.9312 N   0  0  0  0  0  0  0  0  0  0  0  0
   23.4894  -21.4378   -9.0207 C   0  0  0  0  0  0  0  0  0  0  0  0
   22.4085  -20.6749   -9.3091 C   0  0  0  0  0  0  0  0  0  0  0  0
   21.1752  -20.5267   -8.6860 C   0  0  0  0  0  0  0  0  0  0  0  0
   20.2530  -19.6649   -9.2103 C   0  0  0  0  0  0  0  0  0  0  0  0
   20.5291  -18.9303  -10.3620 C   0  0  0  0  0  0  0  0  0  0  0  0
   21.7523  -19.0802  -10.9763 C   0  0  0  0  0  0  0  0  0  0  0  0
   22.6924  -19.9545  -10.4475 C   0  0  0  0  0  0  0  0  0  0  0  0
   23.0147  -20.6850  -13.6337 O   0  0  0  0  0  0  0  0  0  0  0  0
   22.4956  -19.7070  -14.2297 C   0  0  0  0  0  0  0  0  0  0  0  0
   20.4586  -23.1467  -14.3619 C   0  0  2  0  0  0  0  0  0  0  0  0
   20.7511  -21.7613  -13.7744 N   0  0  0  0  0  0  0  0  0  0  0  0
   22.1445  -21.7900  -13.3801 C   0  0  0  0  0  0  0  0  0  0  0  0
   19.8393  -21.5609  -12.6473 O   0  0  0  0  0  0  0  0  0  0  0  0
   20.2976  -21.6986  -11.3490 O   0  0  0  0  0  0  0  0  0  0  0  0
  2  1  1  0
  3  2  2  0
  4  2  1  0
  5  4  1  0
  6  5  1  0
  7  6  1  0
  8 10  1  0
  8  7  1  0
  8  9  1  6
 10 11  2  0
 12 13  1  0
 12 10  1  0
 13 14  1  1
 15 16  2  0
 15 14  1  0
 17 16  1  0
 18 23  2  0
 18 17  1  0
 19 18  1  0
 20 21  1  0
 20 19  2  0
 21 22  2  0
 22 23  1  0
 23 15  1  0
 24 28  1  0
 24 13  1  0
 25 24  2  0
 27 26  1  6
 27 29  1  0
 27 28  1  0
 29 30  1  0
 31 29  2  0
M  END
$$$$
