NYT.pdb
     RDKit          3D

 28 28  0  0  1  0  0  0  0  0999 V2000
   23.5645  -10.2233  -21.5234 N   0  0  0  0  0  0  0  0  0  0  0  0
   22.6536  -10.9089  -20.6812 C   0  0  0  0  0  0  0  0  0  0  0  0
   22.1932  -12.0018  -21.1324 O   0  0  0  0  0  0  0  0  0  0  0  0
   22.2839  -10.3541  -19.3609 C   0  0  0  0  0  0  0  0  0  0  0  0
   22.9508   -9.0469  -19.0698 C   0  0  2  0  0  0  0  0  0  0  0  0
   24.2957   -9.2212  -18.6153 N   0  0  0  0  0  0  0  0  0  0  0  0
   22.1485   -8.1865  -18.1615 C   0  0  0  0  0  0  0  0  0  0  0  0
   20.9838   -7.8786  -18.4845 O   0  0  0  0  0  0  0  0  0  0  0  0
   18.4833  -12.3028  -14.7107 O   0  0  0  0  0  0  0  0  0  0  0  0
   19.3136  -11.1844  -14.6918 C   0  0  0  0  0  0  0  0  0  0  0  0
   18.7541   -9.9609  -14.9086 C   0  0  0  0  0  0  0  0  0  0  0  0
   19.5604   -8.8380  -14.8940 C   0  0  0  0  0  0  0  0  0  0  0  0
   20.9179   -8.9057  -14.6675 C   0  0  0  0  0  0  0  0  0  0  0  0
   21.7032   -7.6837  -14.6632 C   0  0  0  0  0  0  0  0  0  0  0  0
   21.7863   -6.9516  -15.9809 C   0  0  2  0  0  0  0  0  0  0  0  0
   22.6379   -7.6841  -16.9239 N   0  0  0  0  0  0  0  0  0  0  0  0
   22.1967   -5.5446  -15.8746 C   0  0  0  0  0  0  0  0  0  0  0  0
   23.3566   -5.2049  -15.4477 O   0  0  0  0  0  0  0  0  0  0  0  0
   21.4854  -10.1348  -14.4487 C   0  0  0  0  0  0  0  0  0  0  0  0
   20.6713  -11.2731  -14.4630 C   0  0  0  0  0  0  0  0  0  0  0  0
   19.4401   -2.4540  -16.5287 C   0  0  0  0  0  0  0  0  0  0  0  0
   20.8359   -2.2840  -17.0591 C   0  0  1  0  0  0  0  0  0  0  0  0
   21.2178   -0.9425  -17.0010 O   0  0  0  0  0  0  0  0  0  0  0  0
   21.8477   -3.0722  -16.1979 C   0  0  2  0  0  0  0  0  0  0  0  0
   21.3688   -4.4358  -16.2297 N   0  0  0  0  0  0  0  0  0  0  0  0
   21.6708   -2.5360  -14.8332 C   0  0  0  0  0  0  0  0  0  0  0  0
   22.2167   -1.3235  -14.4247 O   0  0  0  0  0  0  0  0  0  0  0  0
   21.0044   -3.1815  -13.9876 O   0  0  0  0  0  0  0  0  0  0  0  0
  1  2  1  0
  2  3  2  0
  4  5  1  0
  4  2  1  0
  5  6  1  1
  5  7  1  0
  7  8  2  0
  9 10  1  0
 10 11  2  0
 10 20  1  0
 11 12  1  0
 12 13  2  0
 13 14  1  0
 15 14  1  1
 15 17  1  0
 16  7  1  0
 16 15  1  0
 17 18  2  0
 19 13  1  0
 20 19  2  0
 22 21  1  1
 22 23  1  0
 22 24  1  0
 24 26  1  0
 24 25  1  1
 25 17  1  0
 26 28  2  0
 26 27  1  0
M  END
$$$$
