NYT.pdb
     RDKit          3D

 28 28  0  0  1  0  0  0  0  0999 V2000
   16.2080  -14.8712  -17.0605 N   0  0  0  0  0  0  0  0  0  0  0  0
   17.0049  -15.3317  -15.9825 C   0  0  0  0  0  0  0  0  0  0  0  0
   16.4767  -16.2117  -15.2364 O   0  0  0  0  0  0  0  0  0  0  0  0
   18.3672  -14.7963  -15.7697 C   0  0  0  0  0  0  0  0  0  0  0  0
   18.7161  -13.6947  -16.7198 C   0  0  2  0  0  0  0  0  0  0  0  0
   18.7067  -14.1373  -18.0798 N   0  0  0  0  0  0  0  0  0  0  0  0
   19.9799  -13.0037  -16.3533 C   0  0  0  0  0  0  0  0  0  0  0  0
   20.1278  -12.5804  -15.1895 O   0  0  0  0  0  0  0  0  0  0  0  0
   28.2887   -9.8784  -16.5395 O   0  0  0  0  0  0  0  0  0  0  0  0
   27.0853  -10.5020  -16.8611 C   0  0  0  0  0  0  0  0  0  0  0  0
   26.6275  -11.4863  -16.0373 C   0  0  0  0  0  0  0  0  0  0  0  0
   25.4352  -12.1180  -16.3384 C   0  0  0  0  0  0  0  0  0  0  0  0
   24.6845  -11.7906  -17.4465 C   0  0  0  0  0  0  0  0  0  0  0  0
   23.4393  -12.4945  -17.6990 C   0  0  0  0  0  0  0  0  0  0  0  0
   22.2425  -12.0148  -16.9137 C   0  0  2  0  0  0  0  0  0  0  0  0
   21.0500  -12.7923  -17.2665 N   0  0  0  0  0  0  0  0  0  0  0  0
   21.9853  -10.5713  -17.0109 C   0  0  0  0  0  0  0  0  0  0  0  0
   21.6499  -10.0130  -18.1149 O   0  0  0  0  0  0  0  0  0  0  0  0
   25.1411  -10.8007  -18.2784 C   0  0  0  0  0  0  0  0  0  0  0  0
   26.3479  -10.1596  -17.9758 C   0  0  0  0  0  0  0  0  0  0  0  0
   21.9601   -8.2365  -13.5570 C   0  0  0  0  0  0  0  0  0  0  0  0
   21.1404   -7.8263  -14.7480 C   0  0  1  0  0  0  0  0  0  0  0  0
   21.0042   -6.4375  -14.7892 O   0  0  0  0  0  0  0  0  0  0  0  0
   21.8378   -8.2439  -16.0617 C   0  0  2  0  0  0  0  0  0  0  0  0
   22.0762   -9.6619  -15.9128 N   0  0  0  0  0  0  0  0  0  0  0  0
   23.1340   -7.5367  -16.0350 C   0  0  0  0  0  0  0  0  0  0  0  0
   23.3048   -6.2591  -16.5583 O   0  0  0  0  0  0  0  0  0  0  0  0
   24.1392   -8.0890  -15.5248 O   0  0  0  0  0  0  0  0  0  0  0  0
  1  2  1  0
  2  3  2  0
  4  5  1  0
  4  2  1  0
  5  6  1  6
  5  7  1  0
  7  8  2  0
  9 10  1  0
 10 11  2  0
 10 20  1  0
 11 12  1  0
 12 13  2  0
 13 14  1  0
 15 14  1  6
 15 17  1  0
 16  7  1  0
 16 15  1  0
 17 18  2  0
 19 13  1  0
 20 19  2  0
 22 21  1  1
 22 23  1  0
 22 24  1  0
 24 26  1  0
 24 25  1  1
 25 17  1  0
 26 28  2  0
 26 27  1  0
M  END
$$$$
