NYT.pdb
     RDKit          3D

 28 28  0  0  1  0  0  0  0  0999 V2000
   18.3142  -16.3938  -17.7045 N   0  0  0  0  0  0  0  0  0  0  0  0
   18.1192  -15.1236  -18.3027 C   0  0  0  0  0  0  0  0  0  0  0  0
   17.8107  -15.1297  -19.5335 O   0  0  0  0  0  0  0  0  0  0  0  0
   18.2744  -13.8851  -17.5092 C   0  0  0  0  0  0  0  0  0  0  0  0
   18.9474  -12.7860  -18.2690 C   0  0  2  0  0  0  0  0  0  0  0  0
   20.1941  -13.2074  -18.8290 N   0  0  0  0  0  0  0  0  0  0  0  0
   19.0723  -11.5362  -17.4743 C   0  0  0  0  0  0  0  0  0  0  0  0
   18.0760  -11.0997  -16.8641 O   0  0  0  0  0  0  0  0  0  0  0  0
   22.5048   -4.9034  -12.6935 O   0  0  0  0  0  0  0  0  0  0  0  0
   22.2536   -6.0786  -13.3981 C   0  0  0  0  0  0  0  0  0  0  0  0
   22.7057   -6.1720  -14.6803 C   0  0  0  0  0  0  0  0  0  0  0  0
   22.4670   -7.3298  -15.3972 C   0  0  0  0  0  0  0  0  0  0  0  0
   21.7852   -8.4019  -14.8642 C   0  0  0  0  0  0  0  0  0  0  0  0
   21.5737   -9.5885  -15.6750 C   0  0  0  0  0  0  0  0  0  0  0  0
   20.3752   -9.5523  -16.5922 C   0  0  2  0  0  0  0  0  0  0  0  0
   20.2815  -10.7947  -17.3660 N   0  0  0  0  0  0  0  0  0  0  0  0
   20.3094   -8.3735  -17.4671 C   0  0  0  0  0  0  0  0  0  0  0  0
   21.0774   -8.2378  -18.4843 O   0  0  0  0  0  0  0  0  0  0  0  0
   21.3285   -8.3126  -13.5742 C   0  0  0  0  0  0  0  0  0  0  0  0
   21.5688   -7.1416  -12.8463 C   0  0  0  0  0  0  0  0  0  0  0  0
   17.7366   -7.2079  -19.6662 C   0  0  0  0  0  0  0  0  0  0  0  0
   17.9762   -6.0628  -18.7228 C   0  0  1  0  0  0  0  0  0  0  0  0
   17.0999   -6.1350  -17.6385 O   0  0  0  0  0  0  0  0  0  0  0  0
   19.4069   -6.1223  -18.1431 C   0  0  2  0  0  0  0  0  0  0  0  0
   19.4035   -7.2843  -17.2831 N   0  0  0  0  0  0  0  0  0  0  0  0
   19.5195   -4.9101  -17.3071 C   0  0  0  0  0  0  0  0  0  0  0  0
   19.3703   -4.9335  -15.9242 O   0  0  0  0  0  0  0  0  0  0  0  0
   19.7592   -3.7999  -17.8417 O   0  0  0  0  0  0  0  0  0  0  0  0
  1  2  1  0
  2  3  2  0
  4  5  1  0
  4  2  1  0
  5  6  1  1
  5  7  1  0
  7  8  2  0
  9 10  1  0
 10 11  2  0
 10 20  1  0
 11 12  1  0
 12 13  2  0
 13 14  1  0
 15 14  1  6
 15 17  1  0
 16  7  1  0
 16 15  1  0
 17 18  2  0
 19 13  1  0
 20 19  2  0
 22 21  1  6
 22 23  1  0
 22 24  1  0
 24 26  1  0
 24 25  1  1
 25 17  1  0
 26 28  2  0
 26 27  1  0
M  END
$$$$
