NYT.pdb
     RDKit          3D

 28 28  0  0  1  0  0  0  0  0999 V2000
   18.9788  -21.5807  -11.8810 N   0  0  0  0  0  0  0  0  0  0  0  0
   19.3337  -20.2456  -12.1986 C   0  0  0  0  0  0  0  0  0  0  0  0
   18.3879  -19.3999  -12.1837 O   0  0  0  0  0  0  0  0  0  0  0  0
   20.7335  -19.8947  -12.5231 C   0  0  0  0  0  0  0  0  0  0  0  0
   21.6455  -21.0806  -12.5308 C   0  0  2  0  0  0  0  0  0  0  0  0
   21.5696  -21.8226  -11.3104 N   0  0  0  0  0  0  0  0  0  0  0  0
   23.0415  -20.7247  -12.8962 C   0  0  0  0  0  0  0  0  0  0  0  0
   23.2982  -19.5596  -13.2599 O   0  0  0  0  0  0  0  0  0  0  0  0
   25.6907  -19.4459   -7.0090 O   0  0  0  0  0  0  0  0  0  0  0  0
   25.9062  -19.9830   -8.2762 C   0  0  0  0  0  0  0  0  0  0  0  0
   25.2110  -21.1002   -8.6308 C   0  0  0  0  0  0  0  0  0  0  0  0
   25.4100  -21.6494   -9.8839 C   0  0  0  0  0  0  0  0  0  0  0  0
   26.2896  -21.1090  -10.7965 C   0  0  0  0  0  0  0  0  0  0  0  0
   26.4457  -21.7375  -12.0968 C   0  0  0  0  0  0  0  0  0  0  0  0
   25.5002  -21.2627  -13.1737 C   0  0  2  0  0  0  0  0  0  0  0  0
   24.1217  -21.6495  -12.8555 N   0  0  0  0  0  0  0  0  0  0  0  0
   25.8678  -21.6737  -14.5357 C   0  0  0  0  0  0  0  0  0  0  0  0
   25.9842  -22.9067  -14.8661 O   0  0  0  0  0  0  0  0  0  0  0  0
   26.9913  -19.9847  -10.4441 C   0  0  0  0  0  0  0  0  0  0  0  0
   26.7917  -19.4269   -9.1762 C   0  0  0  0  0  0  0  0  0  0  0  0
   24.2172  -20.4317  -17.8891 C   0  0  0  0  0  0  0  0  0  0  0  0
   25.7004  -20.1902  -17.8648 C   0  0  1  0  0  0  0  0  0  0  0  0
   25.9785  -18.9273  -17.3388 O   0  0  0  0  0  0  0  0  0  0  0  0
   26.4067  -21.2174  -16.9525 C   0  0  2  0  0  0  0  0  0  0  0  0
   26.1244  -20.7658  -15.6086 N   0  0  0  0  0  0  0  0  0  0  0  0
   27.8457  -21.0299  -17.2266 C   0  0  0  0  0  0  0  0  0  0  0  0
   28.4603  -21.5072  -18.3797 O   0  0  0  0  0  0  0  0  0  0  0  0
   28.5666  -20.4178  -16.4011 O   0  0  0  0  0  0  0  0  0  0  0  0
  1  2  1  0
  2  3  2  0
  4  5  1  0
  4  2  1  0
  5  6  1  1
  5  7  1  0
  7  8  2  0
  9 10  1  0
 10 11  2  0
 10 20  1  0
 11 12  1  0
 12 13  2  0
 13 14  1  0
 15 14  1  1
 15 17  1  0
 16  7  1  0
 16 15  1  0
 17 18  2  0
 19 13  1  0
 20 19  2  0
 22 21  1  1
 22 23  1  0
 22 24  1  0
 24 26  1  0
 24 25  1  1
 25 17  1  0
 26 28  2  0
 26 27  1  0
M  END
$$$$
