NYT.pdb
     RDKit          3D

 28 28  0  0  1  0  0  0  0  0999 V2000
   14.4312  -14.0928  -18.3693 N   0  0  0  0  0  0  0  0  0  0  0  0
   15.7250  -13.5163  -18.3147 C   0  0  0  0  0  0  0  0  0  0  0  0
   16.5755  -13.9794  -19.1345 O   0  0  0  0  0  0  0  0  0  0  0  0
   16.0305  -12.4404  -17.3467 C   0  0  0  0  0  0  0  0  0  0  0  0
   17.1738  -12.7766  -16.4423 C   0  0  2  0  0  0  0  0  0  0  0  0
   16.8859  -13.9048  -15.6117 N   0  0  0  0  0  0  0  0  0  0  0  0
   17.6512  -11.6030  -15.6653 C   0  0  0  0  0  0  0  0  0  0  0  0
   16.9969  -11.2210  -14.6745 O   0  0  0  0  0  0  0  0  0  0  0  0
   22.7783   -4.5793  -13.5322 O   0  0  0  0  0  0  0  0  0  0  0  0
   22.2414   -5.8219  -13.8611 C   0  0  0  0  0  0  0  0  0  0  0  0
   22.3762   -6.2649  -15.1428 C   0  0  0  0  0  0  0  0  0  0  0  0
   21.8505   -7.4955  -15.4901 C   0  0  0  0  0  0  0  0  0  0  0  0
   21.1905   -8.2991  -14.5862 C   0  0  0  0  0  0  0  0  0  0  0  0
   20.6665   -9.5823  -15.0208 C   0  0  0  0  0  0  0  0  0  0  0  0
   19.1878   -9.6199  -15.3226 C   0  0  2  0  0  0  0  0  0  0  0  0
   18.8303  -10.8762  -15.9895 N   0  0  0  0  0  0  0  0  0  0  0  0
   18.6859   -8.4585  -16.0700 C   0  0  0  0  0  0  0  0  0  0  0  0
   18.9491   -8.2836  -17.3123 O   0  0  0  0  0  0  0  0  0  0  0  0
   21.0525   -7.8576  -13.2953 C   0  0  0  0  0  0  0  0  0  0  0  0
   21.5837   -6.6121  -12.9411 C   0  0  0  0  0  0  0  0  0  0  0  0
   15.2043   -7.2378  -16.8369 C   0  0  0  0  0  0  0  0  0  0  0  0
   15.9233   -6.1911  -16.0329 C   0  0  1  0  0  0  0  0  0  0  0  0
   15.7133   -6.3973  -14.6683 O   0  0  0  0  0  0  0  0  0  0  0  0
   17.4481   -6.2747  -16.2659 C   0  0  2  0  0  0  0  0  0  0  0  0
   17.8700   -7.4301  -15.5064 N   0  0  0  0  0  0  0  0  0  0  0  0
   17.9889   -5.0589  -15.6250 C   0  0  0  0  0  0  0  0  0  0  0  0
   17.9988   -3.8181  -16.2537 O   0  0  0  0  0  0  0  0  0  0  0  0
   18.4651   -5.1206  -14.4651 O   0  0  0  0  0  0  0  0  0  0  0  0
  1  2  1  0
  2  3  2  0
  4  5  1  0
  4  2  1  0
  5  6  1  1
  5  7  1  0
  7  8  2  0
  9 10  1  0
 10 11  2  0
 10 20  1  0
 11 12  1  0
 12 13  2  0
 13 14  1  0
 15 14  1  6
 15 17  1  0
 16  7  1  0
 16 15  1  0
 17 18  2  0
 19 13  1  0
 20 19  2  0
 22 21  1  6
 22 23  1  0
 22 24  1  0
 24 26  1  0
 24 25  1  1
 25 17  1  0
 26 28  2  0
 26 27  1  0
M  END
$$$$
