NYT.pdb
     RDKit          3D

 28 28  0  0  1  0  0  0  0  0999 V2000
   18.4541  -22.7526  -11.3606 N   0  0  0  0  0  0  0  0  0  0  0  0
   19.0762  -21.7259  -12.1144 C   0  0  0  0  0  0  0  0  0  0  0  0
   18.4650  -21.3578  -13.1637 O   0  0  0  0  0  0  0  0  0  0  0  0
   20.3615  -21.1410  -11.6744 C   0  0  0  0  0  0  0  0  0  0  0  0
   21.4375  -21.2527  -12.7078 C   0  0  2  0  0  0  0  0  0  0  0  0
   21.5539  -22.5838  -13.2182 N   0  0  0  0  0  0  0  0  0  0  0  0
   22.7377  -20.7055  -12.2396 C   0  0  0  0  0  0  0  0  0  0  0  0
   22.7969  -19.5209  -11.8539 O   0  0  0  0  0  0  0  0  0  0  0  0
   27.6602  -19.2914   -6.0713 O   0  0  0  0  0  0  0  0  0  0  0  0
   27.2667  -19.9264   -7.2472 C   0  0  0  0  0  0  0  0  0  0  0  0
   25.9475  -19.8955   -7.5876 C   0  0  0  0  0  0  0  0  0  0  0  0
   25.5360  -20.5196   -8.7506 C   0  0  0  0  0  0  0  0  0  0  0  0
   26.4121  -21.1770   -9.5865 C   0  0  0  0  0  0  0  0  0  0  0  0
   25.9094  -21.8079  -10.7945 C   0  0  0  0  0  0  0  0  0  0  0  0
   25.2200  -20.8915  -11.7763 C   0  0  2  0  0  0  0  0  0  0  0  0
   23.9399  -21.4651  -12.2044 N   0  0  0  0  0  0  0  0  0  0  0  0
   26.0417  -20.5016  -12.9305 C   0  0  0  0  0  0  0  0  0  0  0  0
   27.1736  -19.9161  -12.7929 O   0  0  0  0  0  0  0  0  0  0  0  0
   27.7406  -21.2107   -9.2481 C   0  0  0  0  0  0  0  0  0  0  0  0
   28.1598  -20.5797   -8.0713 C   0  0  0  0  0  0  0  0  0  0  0  0
   27.9856  -21.5355  -17.0929 C   0  0  0  0  0  0  0  0  0  0  0  0
   27.0966  -21.7354  -15.8978 C   0  0  1  0  0  0  0  0  0  0  0  0
   27.8201  -22.2922  -14.8417 O   0  0  0  0  0  0  0  0  0  0  0  0
   26.5448  -20.3831  -15.3947 C   0  0  2  0  0  0  0  0  0  0  0  0
   25.6766  -20.7311  -14.2925 N   0  0  0  0  0  0  0  0  0  0  0  0
   25.7197  -19.8800  -16.5116 C   0  0  0  0  0  0  0  0  0  0  0  0
   26.2665  -19.2656  -17.6335 O   0  0  0  0  0  0  0  0  0  0  0  0
   24.4707  -19.9995  -16.4717 O   0  0  0  0  0  0  0  0  0  0  0  0
  1  2  1  0
  2  3  2  0
  4  5  1  0
  4  2  1  0
  5  6  1  1
  5  7  1  0
  7  8  2  0
  9 10  1  0
 10 11  2  0
 10 20  1  0
 11 12  1  0
 12 13  2  0
 13 14  1  0
 15 14  1  6
 15 17  1  0
 16  7  1  0
 16 15  1  0
 17 18  2  0
 19 13  1  0
 20 19  2  0
 22 21  1  6
 22 23  1  0
 22 24  1  0
 24 26  1  0
 24 25  1  1
 25 17  1  0
 26 28  2  0
 26 27  1  0
M  END
$$$$
