NYT.pdb
     RDKit          3D

 28 28  0  0  1  0  0  0  0  0999 V2000
   18.6867  -22.0727  -11.7212 N   0  0  0  0  0  0  0  0  0  0  0  0
   19.8558  -22.1921  -12.5139 C   0  0  0  0  0  0  0  0  0  0  0  0
   20.0076  -23.2973  -13.1184 O   0  0  0  0  0  0  0  0  0  0  0  0
   20.8201  -21.0745  -12.6078 C   0  0  0  0  0  0  0  0  0  0  0  0
   21.6981  -20.9585  -11.4021 C   0  0  2  0  0  0  0  0  0  0  0  0
   21.1287  -20.1057  -10.4050 N   0  0  0  0  0  0  0  0  0  0  0  0
   23.0937  -20.5809  -11.7465 C   0  0  0  0  0  0  0  0  0  0  0  0
   23.3620  -19.3851  -11.9785 O   0  0  0  0  0  0  0  0  0  0  0  0
   27.1174  -19.2344   -6.0724 O   0  0  0  0  0  0  0  0  0  0  0  0
   26.9924  -19.8890   -7.2957 C   0  0  0  0  0  0  0  0  0  0  0  0
   25.7560  -19.9658   -7.8637 C   0  0  0  0  0  0  0  0  0  0  0  0
   25.6100  -20.6111   -9.0776 C   0  0  0  0  0  0  0  0  0  0  0  0
   26.6720  -21.1846   -9.7423 C   0  0  0  0  0  0  0  0  0  0  0  0
   26.4451  -21.8440  -11.0165 C   0  0  0  0  0  0  0  0  0  0  0  0
   25.5589  -21.1050  -11.9900 C   0  0  2  0  0  0  0  0  0  0  0  0
   24.1608  -21.5179  -11.8289 N   0  0  0  0  0  0  0  0  0  0  0  0
   25.9828  -21.1959  -13.3941 C   0  0  0  0  0  0  0  0  0  0  0  0
   26.1204  -22.3216  -13.9915 O   0  0  0  0  0  0  0  0  0  0  0  0
   27.9181  -21.1098   -9.1746 C   0  0  0  0  0  0  0  0  0  0  0  0
   28.0685  -20.4571   -7.9458 C   0  0  0  0  0  0  0  0  0  0  0  0
   24.6164  -18.7993  -16.3492 C   0  0  0  0  0  0  0  0  0  0  0  0
   26.1148  -18.8579  -16.2485 C   0  0  1  0  0  0  0  0  0  0  0  0
   26.5852  -17.8476  -15.4076 O   0  0  0  0  0  0  0  0  0  0  0  0
   26.5692  -20.1986  -15.6303 C   0  0  2  0  0  0  0  0  0  0  0  0
   26.2753  -20.0682  -14.2210 N   0  0  0  0  0  0  0  0  0  0  0  0
   28.0347  -20.2139  -15.8128 C   0  0  0  0  0  0  0  0  0  0  0  0
   28.6362  -20.3601  -17.0586 O   0  0  0  0  0  0  0  0  0  0  0  0
   28.7915  -20.0917  -14.8188 O   0  0  0  0  0  0  0  0  0  0  0  0
  1  2  1  0
  2  3  2  0
  4  5  1  0
  4  2  1  0
  5  6  1  1
  5  7  1  0
  7  8  2  0
  9 10  1  0
 10 11  2  0
 10 20  1  0
 11 12  1  0
 12 13  2  0
 13 14  1  0
 15 14  1  1
 15 17  1  0
 16  7  1  0
 16 15  1  0
 17 18  2  0
 19 13  1  0
 20 19  2  0
 22 21  1  1
 22 23  1  0
 22 24  1  0
 24 26  1  0
 24 25  1  1
 25 17  1  0
 26 28  2  0
 26 27  1  0
M  END
$$$$
