NYT.pdb
     RDKit          3D

 28 28  0  0  1  0  0  0  0  0999 V2000
   27.9559  -21.1120  -19.4241 N   0  0  0  0  0  0  0  0  0  0  0  0
   27.1579  -22.2725  -19.2638 C   0  0  0  0  0  0  0  0  0  0  0  0
   26.9564  -22.9584  -20.3121 O   0  0  0  0  0  0  0  0  0  0  0  0
   26.6088  -22.6325  -17.9384 C   0  0  0  0  0  0  0  0  0  0  0  0
   27.0226  -21.6838  -16.8582 C   0  0  2  0  0  0  0  0  0  0  0  0
   28.4104  -21.8110  -16.5364 N   0  0  0  0  0  0  0  0  0  0  0  0
   26.1488  -21.7680  -15.6589 C   0  0  0  0  0  0  0  0  0  0  0  0
   25.7659  -22.8864  -15.2610 O   0  0  0  0  0  0  0  0  0  0  0  0
   30.3423  -21.5707  -10.2754 O   0  0  0  0  0  0  0  0  0  0  0  0
   29.1716  -21.1260  -10.8857 C   0  0  0  0  0  0  0  0  0  0  0  0
   27.9805  -21.4356  -10.3006 C   0  0  0  0  0  0  0  0  0  0  0  0
   26.8067  -21.0039  -10.8900 C   0  0  0  0  0  0  0  0  0  0  0  0
   26.7918  -20.2673  -12.0544 C   0  0  0  0  0  0  0  0  0  0  0  0
   25.5206  -19.8444  -12.6158 C   0  0  0  0  0  0  0  0  0  0  0  0
   24.9425  -20.7423  -13.6829 C   0  0  2  0  0  0  0  0  0  0  0  0
   25.7150  -20.6295  -14.9245 N   0  0  0  0  0  0  0  0  0  0  0  0
   23.5064  -20.5533  -13.9300 C   0  0  0  0  0  0  0  0  0  0  0  0
   23.0414  -19.4776  -14.4494 O   0  0  0  0  0  0  0  0  0  0  0  0
   27.9880  -19.9532  -12.6467 C   0  0  0  0  0  0  0  0  0  0  0  0
   29.1776  -20.3891  -12.0520 C   0  0  0  0  0  0  0  0  0  0  0  0
   20.8286  -23.7792  -13.6699 C   0  0  0  0  0  0  0  0  0  0  0  0
   20.6178  -22.5978  -14.5747 C   0  0  1  0  0  0  0  0  0  0  0  0
   19.2586  -22.4293  -14.8451 O   0  0  0  0  0  0  0  0  0  0  0  0
   21.1011  -21.2967  -13.8964 C   0  0  2  0  0  0  0  0  0  0  0  0
   22.5032  -21.5247  -13.6283 N   0  0  0  0  0  0  0  0  0  0  0  0
   20.3707  -21.2534  -12.6135 C   0  0  0  0  0  0  0  0  0  0  0  0
   19.0262  -20.9076  -12.5245 O   0  0  0  0  0  0  0  0  0  0  0  0
   20.9646  -21.5358  -11.5442 O   0  0  0  0  0  0  0  0  0  0  0  0
  1  2  1  0
  2  3  2  0
  4  5  1  0
  4  2  1  0
  5  6  1  1
  5  7  1  0
  7  8  2  0
  9 10  1  0
 10 11  2  0
 10 20  1  0
 11 12  1  0
 12 13  2  0
 13 14  1  0
 15 14  1  1
 15 17  1  0
 16  7  1  0
 16 15  1  0
 17 18  2  0
 19 13  1  0
 20 19  2  0
 22 21  1  1
 22 23  1  0
 22 24  1  0
 24 26  1  0
 24 25  1  1
 25 17  1  0
 26 28  2  0
 26 27  1  0
M  END
$$$$
