NYT.pdb
     RDKit          3D

 28 28  0  0  1  0  0  0  0  0999 V2000
   33.3014   -7.4745  -16.6834 N   0  0  0  0  0  0  0  0  0  0  0  0
   34.3241   -6.6872  -16.0974 C   0  0  0  0  0  0  0  0  0  0  0  0
   34.7977   -5.7604  -16.8233 O   0  0  0  0  0  0  0  0  0  0  0  0
   34.7875   -6.9579  -14.7191 C   0  0  0  0  0  0  0  0  0  0  0  0
   36.2763   -7.0593  -14.6134 C   0  0  2  0  0  0  0  0  0  0  0  0
   36.8145   -8.0156  -15.5307 N   0  0  0  0  0  0  0  0  0  0  0  0
   36.7354   -7.2860  -13.2181 C   0  0  0  0  0  0  0  0  0  0  0  0
   36.4268   -6.4627  -12.3335 O   0  0  0  0  0  0  0  0  0  0  0  0
   38.8940  -11.3302   -5.6585 O   0  0  0  0  0  0  0  0  0  0  0  0
   38.5983  -10.9824   -6.9746 C   0  0  0  0  0  0  0  0  0  0  0  0
   39.2295  -11.6550   -7.9777 C   0  0  0  0  0  0  0  0  0  0  0  0
   38.9505  -11.3254   -9.2911 C   0  0  0  0  0  0  0  0  0  0  0  0
   38.0528  -10.3366   -9.6302 C   0  0  0  0  0  0  0  0  0  0  0  0
   37.8062  -10.0459  -11.0319 C   0  0  0  0  0  0  0  0  0  0  0  0
   37.9702   -8.6023  -11.4421 C   0  0  2  0  0  0  0  0  0  0  0  0
   37.5197   -8.4055  -12.8239 N   0  0  0  0  0  0  0  0  0  0  0  0
   39.3199   -8.0578  -11.2393 C   0  0  0  0  0  0  0  0  0  0  0  0
   40.2621   -8.2413  -12.0888 O   0  0  0  0  0  0  0  0  0  0  0  0
   37.4151   -9.6571   -8.6242 C   0  0  0  0  0  0  0  0  0  0  0  0
   37.6959   -9.9888   -7.2938 C   0  0  0  0  0  0  0  0  0  0  0  0
   40.3496   -4.4239   -9.7138 C   0  0  0  0  0  0  0  0  0  0  0  0
   40.9364   -5.5975   -8.9811 C   0  0  1  0  0  0  0  0  0  0  0  0
   40.0982   -5.9853   -7.9342 O   0  0  0  0  0  0  0  0  0  0  0  0
   41.0690   -6.8172   -9.9198 C   0  0  2  0  0  0  0  0  0  0  0  0
   39.7133   -7.2838  -10.1048 N   0  0  0  0  0  0  0  0  0  0  0  0
   41.8136   -7.8165   -9.1273 C   0  0  0  0  0  0  0  0  0  0  0  0
   43.1898   -7.7502   -8.9348 O   0  0  0  0  0  0  0  0  0  0  0  0
   41.2032   -8.7754   -8.5946 O   0  0  0  0  0  0  0  0  0  0  0  0
  1  2  1  0
  2  3  2  0
  4  5  1  0
  4  2  1  0
  5  6  1  6
  5  7  1  0
  7  8  2  0
  9 10  1  0
 10 11  2  0
 10 20  1  0
 11 12  1  0
 12 13  2  0
 13 14  1  0
 15 14  1  6
 15 17  1  0
 16  7  1  0
 16 15  1  0
 17 18  2  0
 19 13  1  0
 20 19  2  0
 22 21  1  6
 22 23  1  0
 22 24  1  0
 24 26  1  0
 24 25  1  1
 25 17  1  0
 26 28  2  0
 26 27  1  0
M  END
$$$$
