NYT.pdb
     RDKit          3D

 28 28  0  0  1  0  0  0  0  0999 V2000
   29.5480  -21.5350  -19.7652 N   0  0  0  0  0  0  0  0  0  0  0  0
   28.2422  -22.0829  -19.8268 C   0  0  0  0  0  0  0  0  0  0  0  0
   27.9270  -22.6486  -20.9181 O   0  0  0  0  0  0  0  0  0  0  0  0
   27.3275  -21.9831  -18.6688 C   0  0  0  0  0  0  0  0  0  0  0  0
   27.8907  -21.1660  -17.5493 C   0  0  2  0  0  0  0  0  0  0  0  0
   29.1410  -21.6827  -17.0853 N   0  0  0  0  0  0  0  0  0  0  0  0
   26.9151  -20.9581  -16.4474 C   0  0  0  0  0  0  0  0  0  0  0  0
   26.3114  -21.9415  -15.9742 O   0  0  0  0  0  0  0  0  0  0  0  0
   29.7699  -21.6261  -10.1800 O   0  0  0  0  0  0  0  0  0  0  0  0
   28.9083  -20.9209  -11.0172 C   0  0  0  0  0  0  0  0  0  0  0  0
   29.4505  -20.1635  -12.0119 C   0  0  0  0  0  0  0  0  0  0  0  0
   28.6130  -19.4557  -12.8539 C   0  0  0  0  0  0  0  0  0  0  0  0
   27.2412  -19.4850  -12.7277 C   0  0  0  0  0  0  0  0  0  0  0  0
   26.4225  -18.7184  -13.6508 C   0  0  0  0  0  0  0  0  0  0  0  0
   25.7355  -19.5131  -14.7351 C   0  0  2  0  0  0  0  0  0  0  0  0
   26.6232  -19.6821  -15.8903 N   0  0  0  0  0  0  0  0  0  0  0  0
   24.4253  -18.9872  -15.1426 C   0  0  0  0  0  0  0  0  0  0  0  0
   24.3077  -17.9086  -15.8252 O   0  0  0  0  0  0  0  0  0  0  0  0
   26.6910  -20.2459  -11.7283 C   0  0  0  0  0  0  0  0  0  0  0  0
   27.5367  -20.9633  -10.8745 C   0  0  0  0  0  0  0  0  0  0  0  0
   21.0879  -21.3170  -15.6230 C   0  0  0  0  0  0  0  0  0  0  0  0
   21.2698  -19.9388  -16.1943 C   0  0  1  0  0  0  0  0  0  0  0  0
   20.0334  -19.3865  -16.5337 O   0  0  0  0  0  0  0  0  0  0  0  0
   21.9075  -18.9946  -15.1512 C   0  0  2  0  0  0  0  0  0  0  0  0
   23.1768  -19.6083  -14.8320 N   0  0  0  0  0  0  0  0  0  0  0  0
   21.0217  -19.0899  -13.9733 C   0  0  0  0  0  0  0  0  0  0  0  0
   19.7528  -18.5209  -13.9383 O   0  0  0  0  0  0  0  0  0  0  0  0
   21.4057  -19.7043  -12.9482 O   0  0  0  0  0  0  0  0  0  0  0  0
  1  2  1  0
  2  3  2  0
  4  5  1  0
  4  2  1  0
  5  6  1  1
  5  7  1  0
  7  8  2  0
  9 10  1  0
 10 11  2  0
 10 20  1  0
 11 12  1  0
 12 13  2  0
 13 14  1  0
 15 14  1  1
 15 17  1  0
 16  7  1  0
 16 15  1  0
 17 18  2  0
 19 13  1  0
 20 19  2  0
 22 21  1  1
 22 23  1  0
 22 24  1  0
 24 26  1  0
 24 25  1  1
 25 17  1  0
 26 28  2  0
 26 27  1  0
M  END
$$$$
