NYT.pdb
     RDKit          3D

 28 28  0  0  1  0  0  0  0  0999 V2000
   19.2306  -12.8710  -18.1534 N   0  0  0  0  0  0  0  0  0  0  0  0
   18.7506  -11.5826  -17.8084 C   0  0  0  0  0  0  0  0  0  0  0  0
   17.6017  -11.2794  -18.2535 O   0  0  0  0  0  0  0  0  0  0  0  0
   19.5673  -10.6717  -16.9771 C   0  0  0  0  0  0  0  0  0  0  0  0
   20.9260  -11.2194  -16.6738 C   0  0  2  0  0  0  0  0  0  0  0  0
   20.8576  -12.4587  -15.9632 N   0  0  0  0  0  0  0  0  0  0  0  0
   21.8056  -10.2257  -16.0044 C   0  0  0  0  0  0  0  0  0  0  0  0
   21.9216  -10.2531  -14.7629 O   0  0  0  0  0  0  0  0  0  0  0  0
   27.3932  -13.3093  -16.3582 O   0  0  0  0  0  0  0  0  0  0  0  0
   26.7362  -12.0848  -16.4561 C   0  0  0  0  0  0  0  0  0  0  0  0
   26.8669  -11.1979  -15.4298 C   0  0  0  0  0  0  0  0  0  0  0  0
   26.2231   -9.9768  -15.5070 C   0  0  0  0  0  0  0  0  0  0  0  0
   25.4482   -9.6169  -16.5880 C   0  0  0  0  0  0  0  0  0  0  0  0
   24.8034   -8.3154  -16.6028 C   0  0  0  0  0  0  0  0  0  0  0  0
   23.4093   -8.2664  -16.0256 C   0  0  2  0  0  0  0  0  0  0  0  0
   22.5359   -9.2275  -16.7071 N   0  0  0  0  0  0  0  0  0  0  0  0
   22.8060   -6.9268  -15.9954 C   0  0  0  0  0  0  0  0  0  0  0  0
   22.7441   -6.1850  -17.0390 O   0  0  0  0  0  0  0  0  0  0  0  0
   25.3138  -10.5061  -17.6232 C   0  0  0  0  0  0  0  0  0  0  0  0
   25.9645  -11.7429  -17.5474 C   0  0  0  0  0  0  0  0  0  0  0  0
   19.3394   -6.2046  -15.3069 C   0  0  0  0  0  0  0  0  0  0  0  0
   20.1255   -5.3848  -14.3228 C   0  0  1  0  0  0  0  0  0  0  0  0
   20.3131   -6.0974  -13.1370 O   0  0  0  0  0  0  0  0  0  0  0  0
   21.5316   -5.0655  -14.8770 C   0  0  2  0  0  0  0  0  0  0  0  0
   22.2366   -6.3267  -14.8307 N   0  0  0  0  0  0  0  0  0  0  0  0
   22.1245   -4.1505  -13.8808 C   0  0  0  0  0  0  0  0  0  0  0  0
   21.8036   -2.7984  -13.8165 O   0  0  0  0  0  0  0  0  0  0  0  0
   22.9550   -4.5856  -13.0461 O   0  0  0  0  0  0  0  0  0  0  0  0
  1  2  1  0
  2  3  2  0
  4  5  1  0
  4  2  1  0
  5  6  1  1
  5  7  1  0
  7  8  2  0
  9 10  1  0
 10 11  2  0
 10 20  1  0
 11 12  1  0
 12 13  2  0
 13 14  1  0
 15 14  1  6
 15 17  1  0
 16  7  1  0
 16 15  1  0
 17 18  2  0
 19 13  1  0
 20 19  2  0
 22 21  1  6
 22 23  1  0
 22 24  1  0
 24 26  1  0
 24 25  1  1
 25 17  1  0
 26 28  2  0
 26 27  1  0
M  END
$$$$
