DGY.pdb
     RDKit          3D

 25 25  0  0  1  0  0  0  0  0999 V2000
   19.4362  -18.6418  -15.3753 N   0  0  0  0  0  0  0  0  0  0  0  0
   19.3314  -20.0758  -15.5708 C   0  0  1  0  0  0  0  0  0  0  0  0
   19.2284  -20.3202  -17.0629 C   0  0  0  0  0  0  0  0  0  0  0  0
   17.8200  -20.2072  -17.5208 C   0  0  0  0  0  0  0  0  0  0  0  0
   16.9397  -21.0107  -17.1276 O   0  0  0  0  0  0  0  0  0  0  0  0
   20.5148  -20.7052  -14.9771 C   0  0  0  0  0  0  0  0  0  0  0  0
   20.8154  -21.9185  -15.1732 O   0  0  0  0  0  0  0  0  0  0  0  0
   17.4418  -19.2059  -18.3983 O   0  0  0  0  0  0  0  0  0  0  0  0
   21.4267  -19.9824  -14.1217 N   0  0  0  0  0  0  0  0  0  0  0  0
   22.5890  -20.6093  -13.5785 C   0  0  0  0  0  0  0  0  0  0  0  0
   23.8610  -20.2754  -14.2073 C   0  0  0  0  0  0  0  0  0  0  0  0
   23.8650  -19.5348  -15.2486 O   0  0  0  0  0  0  0  0  0  0  0  0
   25.6422  -21.2055   -8.1077 O   0  0  0  0  0  0  0  0  0  0  0  0
   25.9615  -20.7329   -9.3817 C   0  0  0  0  0  0  0  0  0  0  0  0
   25.1316  -19.8472  -10.0536 C   0  0  0  0  0  0  0  0  0  0  0  0
   25.4998  -19.4149  -11.3100 C   0  0  0  0  0  0  0  0  0  0  0  0
   26.6895  -19.8616  -11.8972 C   0  0  0  0  0  0  0  0  0  0  0  0
   27.0939  -19.4178  -13.2396 C   0  0  0  0  0  0  0  0  0  0  0  0
   26.3657  -20.1246  -14.3491 C   0  0  2  0  0  0  0  0  0  0  0  0
   25.1384  -20.7020  -13.7682 N   0  0  0  0  0  0  0  0  0  0  0  0
   27.1603  -21.2140  -14.9389 C   0  0  0  0  0  0  0  0  0  0  0  0
   28.2997  -20.9433  -15.6799 O   0  0  0  0  0  0  0  0  0  0  0  0
   27.5057  -20.7429  -11.2178 C   0  0  0  0  0  0  0  0  0  0  0  0
   27.1314  -21.1702   -9.9632 C   0  0  0  0  0  0  0  0  0  0  0  0
   26.8354  -22.4186  -14.7920 O   0  0  0  0  0  0  0  0  0  0  0  0
  2  1  1  6
  2  3  1  0
  3  4  1  0
  4  5  2  0
  6  2  1  0
  7  6  2  0
  8  4  1  0
  9  6  1  0
 10 11  1  0
 10  9  1  0
 11 12  2  0
 14 13  1  0
 14 24  2  0
 15 14  1  0
 16 15  2  0
 16 17  1  0
 17 23  2  0
 18 17  1  0
 19 18  1  1
 20 19  1  0
 20 11  1  0
 21 19  1  0
 22 21  1  0
 23 24  1  0
 25 21  2  0
M  END
$$$$
