DGY.pdb
     RDKit          3D

 25 25  0  0  1  0  0  0  0  0999 V2000
   25.0858  -24.0123  -14.8670 N   0  0  0  0  0  0  0  0  0  0  0  0
   25.3334  -23.2566  -16.0808 C   0  0  1  0  0  0  0  0  0  0  0  0
   24.0026  -23.0894  -16.7862 C   0  0  0  0  0  0  0  0  0  0  0  0
   23.0411  -24.1363  -16.3553 C   0  0  0  0  0  0  0  0  0  0  0  0
   21.8041  -23.9878  -16.5061 O   0  0  0  0  0  0  0  0  0  0  0  0
   25.9371  -21.9746  -15.7052 C   0  0  0  0  0  0  0  0  0  0  0  0
   26.2105  -21.0735  -16.5503 O   0  0  0  0  0  0  0  0  0  0  0  0
   23.4895  -25.3091  -15.7730 O   0  0  0  0  0  0  0  0  0  0  0  0
   26.2647  -21.6465  -14.3375 N   0  0  0  0  0  0  0  0  0  0  0  0
   26.8426  -20.3866  -13.9948 C   0  0  0  0  0  0  0  0  0  0  0  0
   26.6402  -19.9301  -12.6253 C   0  0  0  0  0  0  0  0  0  0  0  0
   26.3926  -18.6950  -12.4111 O   0  0  0  0  0  0  0  0  0  0  0  0
   20.5425  -19.5722  -13.1758 O   0  0  0  0  0  0  0  0  0  0  0  0
   21.5986  -19.9209  -12.3322 C   0  0  0  0  0  0  0  0  0  0  0  0
   21.6672  -19.4530  -11.0280 C   0  0  0  0  0  0  0  0  0  0  0  0
   22.7348  -19.8318  -10.2418 C   0  0  0  0  0  0  0  0  0  0  0  0
   23.7314  -20.6730  -10.7503 C   0  0  0  0  0  0  0  0  0  0  0  0
   24.8813  -21.0804   -9.9292 C   0  0  0  0  0  0  0  0  0  0  0  0
   26.1208  -20.2703  -10.1900 C   0  0  2  0  0  0  0  0  0  0  0  0
   26.6912  -20.7427  -11.4661 N   0  0  0  0  0  0  0  0  0  0  0  0
   27.1340  -20.4373   -9.1356 C   0  0  0  0  0  0  0  0  0  0  0  0
   26.8996  -19.9878   -7.8457 O   0  0  0  0  0  0  0  0  0  0  0  0
   23.6509  -21.1310  -12.0497 C   0  0  0  0  0  0  0  0  0  0  0  0
   22.5816  -20.7486  -12.8289 C   0  0  0  0  0  0  0  0  0  0  0  0
   28.2386  -20.9891   -9.3667 O   0  0  0  0  0  0  0  0  0  0  0  0
  2  1  1  1
  2  3  1  0
  3  4  1  0
  4  5  2  0
  6  2  1  0
  7  6  2  0
  8  4  1  0
  9  6  1  0
 10 11  1  0
 10  9  1  0
 11 12  2  0
 14 13  1  0
 14 24  2  0
 15 14  1  0
 16 15  2  0
 16 17  1  0
 17 23  2  0
 18 17  1  0
 19 18  1  1
 20 19  1  0
 20 11  1  0
 21 19  1  0
 22 21  1  0
 23 24  1  0
 25 21  2  0
M  END
$$$$
