DGY.pdb
     RDKit          3D

 25 25  0  0  1  0  0  0  0  0999 V2000
   21.9335  -23.3212  -17.3901 N   0  0  0  0  0  0  0  0  0  0  0  0
   23.3550  -23.5895  -17.5032 C   0  0  1  0  0  0  0  0  0  0  0  0
   24.0824  -22.2921  -17.2124 C   0  0  0  0  0  0  0  0  0  0  0  0
   24.1423  -21.4368  -18.4252 C   0  0  0  0  0  0  0  0  0  0  0  0
   23.1946  -21.4030  -19.2472 O   0  0  0  0  0  0  0  0  0  0  0  0
   23.6962  -24.6521  -16.5526 C   0  0  0  0  0  0  0  0  0  0  0  0
   24.8740  -25.0928  -16.4129 O   0  0  0  0  0  0  0  0  0  0  0  0
   25.2527  -20.6507  -18.6797 O   0  0  0  0  0  0  0  0  0  0  0  0
   22.7080  -25.2750  -15.7035 N   0  0  0  0  0  0  0  0  0  0  0  0
   23.0717  -26.2780  -14.7544 C   0  0  0  0  0  0  0  0  0  0  0  0
   22.2732  -26.3395  -13.5363 C   0  0  0  0  0  0  0  0  0  0  0  0
   22.5093  -27.2612  -12.6834 O   0  0  0  0  0  0  0  0  0  0  0  0
   16.6350  -24.4708   -6.9714 O   0  0  0  0  0  0  0  0  0  0  0  0
   17.5327  -24.4474   -8.0401 C   0  0  0  0  0  0  0  0  0  0  0  0
   18.8778  -24.7362   -7.8612 C   0  0  0  0  0  0  0  0  0  0  0  0
   19.7165  -24.6972   -8.9548 C   0  0  0  0  0  0  0  0  0  0  0  0
   19.2201  -24.3722  -10.2227 C   0  0  0  0  0  0  0  0  0  0  0  0
   20.1014  -24.3176  -11.3986 C   0  0  0  0  0  0  0  0  0  0  0  0
   20.4286  -25.6712  -11.9657 C   0  0  2  0  0  0  0  0  0  0  0  0
   21.2256  -25.4520  -13.1878 N   0  0  0  0  0  0  0  0  0  0  0  0
   19.2240  -26.4366  -12.3249 C   0  0  0  0  0  0  0  0  0  0  0  0
   18.6626  -27.3391  -11.4355 O   0  0  0  0  0  0  0  0  0  0  0  0
   17.8798  -24.0869  -10.3865 C   0  0  0  0  0  0  0  0  0  0  0  0
   17.0481  -24.1280   -9.2895 C   0  0  0  0  0  0  0  0  0  0  0  0
   18.6668  -26.2994  -13.4424 O   0  0  0  0  0  0  0  0  0  0  0  0
  2  1  1  1
  2  3  1  0
  3  4  1  0
  4  5  2  0
  6  2  1  0
  7  6  2  0
  8  4  1  0
  9  6  1  0
 10 11  1  0
 10  9  1  0
 11 12  2  0
 14 13  1  0
 14 24  2  0
 15 14  1  0
 16 15  2  0
 16 17  1  0
 17 23  2  0
 18 17  1  0
 19 18  1  6
 20 19  1  0
 20 11  1  0
 21 19  1  0
 22 21  1  0
 23 24  1  0
 25 21  2  0
M  END
$$$$
