DGY.pdb
     RDKit          3D

 25 25  0  0  1  0  0  0  0  0999 V2000
   26.4897  -16.1636  -19.1985 N   0  0  0  0  0  0  0  0  0  0  0  0
   26.4697  -17.2668  -18.2560 C   0  0  1  0  0  0  0  0  0  0  0  0
   27.8565  -17.3689  -17.6534 C   0  0  0  0  0  0  0  0  0  0  0  0
   28.7836  -18.0709  -18.5774 C   0  0  0  0  0  0  0  0  0  0  0  0
   28.4057  -18.4613  -19.7087 O   0  0  0  0  0  0  0  0  0  0  0  0
   25.4379  -16.9907  -17.2518 C   0  0  0  0  0  0  0  0  0  0  0  0
   25.1825  -17.7819  -16.2980 O   0  0  0  0  0  0  0  0  0  0  0  0
   30.0960  -18.3131  -18.2103 O   0  0  0  0  0  0  0  0  0  0  0  0
   24.6352  -15.7905  -17.2793 N   0  0  0  0  0  0  0  0  0  0  0  0
   23.5567  -15.5983  -16.3635 C   0  0  0  0  0  0  0  0  0  0  0  0
   22.2918  -16.2366  -16.7064 C   0  0  0  0  0  0  0  0  0  0  0  0
   21.9478  -16.3166  -17.9344 O   0  0  0  0  0  0  0  0  0  0  0  0
   20.5567  -20.0337  -10.4168 O   0  0  0  0  0  0  0  0  0  0  0  0
   20.4521  -19.7638  -11.7823 C   0  0  0  0  0  0  0  0  0  0  0  0
   19.2177  -19.6163  -12.3980 C   0  0  0  0  0  0  0  0  0  0  0  0
   19.1775  -19.3502  -13.7503 C   0  0  0  0  0  0  0  0  0  0  0  0
   20.3607  -19.2309  -14.4887 C   0  0  0  0  0  0  0  0  0  0  0  0
   20.3368  -18.9558  -15.9331 C   0  0  0  0  0  0  0  0  0  0  0  0
   20.1644  -17.4990  -16.2629 C   0  0  2  0  0  0  0  0  0  0  0  0
   21.3717  -16.7972  -15.7867 N   0  0  0  0  0  0  0  0  0  0  0  0
   18.9896  -16.9080  -15.6020 C   0  0  0  0  0  0  0  0  0  0  0  0
   17.7051  -17.2622  -15.9834 O   0  0  0  0  0  0  0  0  0  0  0  0
   21.5821  -19.3802  -13.8637 C   0  0  0  0  0  0  0  0  0  0  0  0
   21.6143  -19.6457  -12.5127 C   0  0  0  0  0  0  0  0  0  0  0  0
   19.1097  -16.0678  -14.6759 O   0  0  0  0  0  0  0  0  0  0  0  0
  2  1  1  6
  2  3  1  0
  3  4  1  0
  4  5  2  0
  6  2  1  0
  7  6  2  0
  8  4  1  0
  9  6  1  0
 10 11  1  0
 10  9  1  0
 11 12  2  0
 14 13  1  0
 14 24  2  0
 15 14  1  0
 16 15  2  0
 16 17  1  0
 17 23  2  0
 18 17  1  0
 19 18  1  1
 20 19  1  0
 20 11  1  0
 21 19  1  0
 22 21  1  0
 23 24  1  0
 25 21  2  0
M  END
$$$$
