DGY.pdb
     RDKit          3D

 25 25  0  0  1  0  0  0  0  0999 V2000
   26.5085  -17.2596  -17.8641 N   0  0  0  0  0  0  0  0  0  0  0  0
   27.7315  -18.0267  -17.7185 C   0  0  1  0  0  0  0  0  0  0  0  0
   28.8820  -17.1153  -18.0960 C   0  0  0  0  0  0  0  0  0  0  0  0
   28.9150  -16.8861  -19.5631 C   0  0  0  0  0  0  0  0  0  0  0  0
   28.9881  -15.7280  -20.0411 O   0  0  0  0  0  0  0  0  0  0  0  0
   27.8148  -18.4944  -16.3316 C   0  0  0  0  0  0  0  0  0  0  0  0
   28.4974  -19.5034  -15.9897 O   0  0  0  0  0  0  0  0  0  0  0  0
   28.8654  -17.9520  -20.4448 O   0  0  0  0  0  0  0  0  0  0  0  0
   27.1207  -17.8340  -15.2510 N   0  0  0  0  0  0  0  0  0  0  0  0
   27.2465  -18.2861  -13.9024 C   0  0  0  0  0  0  0  0  0  0  0  0
   26.3911  -19.3986  -13.5078 C   0  0  0  0  0  0  0  0  0  0  0  0
   25.4824  -19.8003  -14.3112 O   0  0  0  0  0  0  0  0  0  0  0  0
   27.3626  -18.9336   -6.3618 O   0  0  0  0  0  0  0  0  0  0  0  0
   27.1173  -19.7061   -7.4983 C   0  0  0  0  0  0  0  0  0  0  0  0
   28.1433  -20.0801   -8.3539 C   0  0  0  0  0  0  0  0  0  0  0  0
   27.8398  -20.8438   -9.4610 C   0  0  0  0  0  0  0  0  0  0  0  0
   26.5203  -21.2348   -9.7172 C   0  0  0  0  0  0  0  0  0  0  0  0
   26.1768  -22.0421  -10.8974 C   0  0  0  0  0  0  0  0  0  0  0  0
   25.5639  -21.2419  -12.0131 C   0  0  2  0  0  0  0  0  0  0  0  0
   26.4656  -20.1055  -12.2825 N   0  0  0  0  0  0  0  0  0  0  0  0
   24.2368  -20.7116  -11.6617 C   0  0  0  0  0  0  0  0  0  0  0  0
   23.1159  -21.5264  -11.6843 O   0  0  0  0  0  0  0  0  0  0  0  0
   25.5091  -20.8556   -8.8579 C   0  0  0  0  0  0  0  0  0  0  0  0
   25.8200  -20.0929   -7.7541 C   0  0  0  0  0  0  0  0  0  0  0  0
   24.0751  -19.5104  -11.3313 O   0  0  0  0  0  0  0  0  0  0  0  0
  2  1  1  1
  2  3  1  0
  3  4  1  0
  4  5  2  0
  6  2  1  0
  7  6  2  0
  8  4  1  0
  9  6  1  0
 10 11  1  0
 10  9  1  0
 11 12  2  0
 14 13  1  0
 14 24  2  0
 15 14  1  0
 16 15  2  0
 16 17  1  0
 17 23  2  0
 18 17  1  0
 19 18  1  1
 20 19  1  0
 20 11  1  0
 21 19  1  0
 22 21  1  0
 23 24  1  0
 25 21  2  0
M  END
$$$$
