DGY.pdb
     RDKit          3D

 25 25  0  0  1  0  0  0  0  0999 V2000
   17.5819  -11.9758  -16.5458 N   0  0  0  0  0  0  0  0  0  0  0  0
   18.9909  -11.9977  -16.1996 C   0  0  1  0  0  0  0  0  0  0  0  0
   19.6740  -12.9561  -17.1543 C   0  0  0  0  0  0  0  0  0  0  0  0
   19.3185  -14.3625  -16.8354 C   0  0  0  0  0  0  0  0  0  0  0  0
   18.5894  -15.0404  -17.5994 O   0  0  0  0  0  0  0  0  0  0  0  0
   19.5088  -10.6304  -16.3071 C   0  0  0  0  0  0  0  0  0  0  0  0
   20.6683  -10.3055  -15.9185 O   0  0  0  0  0  0  0  0  0  0  0  0
   19.7862  -14.9634  -15.6796 O   0  0  0  0  0  0  0  0  0  0  0  0
   18.7292   -9.5512  -16.8667 N   0  0  0  0  0  0  0  0  0  0  0  0
   19.2763   -8.2407  -17.0160 C   0  0  0  0  0  0  0  0  0  0  0  0
   19.4309   -7.4585  -15.7956 C   0  0  0  0  0  0  0  0  0  0  0  0
   18.6416   -7.6740  -14.8141 O   0  0  0  0  0  0  0  0  0  0  0  0
   26.1174   -4.7007  -17.0853 O   0  0  0  0  0  0  0  0  0  0  0  0
   25.0664   -5.1075  -16.2618 C   0  0  0  0  0  0  0  0  0  0  0  0
   24.6121   -6.4183  -16.2630 C   0  0  0  0  0  0  0  0  0  0  0  0
   23.5703   -6.7610  -15.4274 C   0  0  0  0  0  0  0  0  0  0  0  0
   22.9814   -5.8037  -14.5929 C   0  0  0  0  0  0  0  0  0  0  0  0
   21.8640   -6.1491  -13.7016 C   0  0  0  0  0  0  0  0  0  0  0  0
   20.5164   -5.7888  -14.2627 C   0  0  2  0  0  0  0  0  0  0  0  0
   20.3997   -6.4483  -15.5773 N   0  0  0  0  0  0  0  0  0  0  0  0
   20.3557   -4.3382  -14.4522 C   0  0  0  0  0  0  0  0  0  0  0  0
   20.2951   -3.4806  -13.3651 O   0  0  0  0  0  0  0  0  0  0  0  0
   23.4429   -4.5031  -14.6018 C   0  0  0  0  0  0  0  0  0  0  0  0
   24.4840   -4.1684  -15.4390 C   0  0  0  0  0  0  0  0  0  0  0  0
   20.2685   -3.8305  -15.5980 O   0  0  0  0  0  0  0  0  0  0  0  0
  2  1  1  6
  2  3  1  0
  3  4  1  0
  4  5  2  0
  6  2  1  0
  7  6  2  0
  8  4  1  0
  9  6  1  0
 10 11  1  0
 10  9  1  0
 11 12  2  0
 14 13  1  0
 14 24  2  0
 15 14  1  0
 16 15  2  0
 16 17  1  0
 17 23  2  0
 18 17  1  0
 19 18  1  6
 20 19  1  0
 20 11  1  0
 21 19  1  0
 22 21  1  0
 23 24  1  0
 25 21  2  0
M  END
$$$$
