DGY.pdb
     RDKit          3D

 25 25  0  0  1  0  0  0  0  0999 V2000
   36.7172    2.6723   -3.3415 N   0  0  0  0  0  0  0  0  0  0  0  0
   37.8503    1.8754   -3.7733 C   0  0  1  0  0  0  0  0  0  0  0  0
   38.5990    2.6841   -4.8136 C   0  0  0  0  0  0  0  0  0  0  0  0
   37.8788    2.6700   -6.1125 C   0  0  0  0  0  0  0  0  0  0  0  0
   37.3731    1.6151   -6.5666 O   0  0  0  0  0  0  0  0  0  0  0  0
   38.6710    1.5732   -2.5967 C   0  0  0  0  0  0  0  0  0  0  0  0
   39.2480    0.4591   -2.4328 O   0  0  0  0  0  0  0  0  0  0  0  0
   37.7472    3.8284   -6.8586 O   0  0  0  0  0  0  0  0  0  0  0  0
   38.8807    2.5298   -1.5353 N   0  0  0  0  0  0  0  0  0  0  0  0
   39.7185    2.2276   -0.4191 C   0  0  0  0  0  0  0  0  0  0  0  0
   39.1533    1.3501    0.5985 C   0  0  0  0  0  0  0  0  0  0  0  0
   39.8991    0.9420    1.5524 O   0  0  0  0  0  0  0  0  0  0  0  0
   33.9049   -3.2465    5.9424 O   0  0  0  0  0  0  0  0  0  0  0  0
   34.4093   -2.3672    4.9828 C   0  0  0  0  0  0  0  0  0  0  0  0
   33.8623   -2.2944    3.7099 C   0  0  0  0  0  0  0  0  0  0  0  0
   34.4031   -1.4063    2.8044 C   0  0  0  0  0  0  0  0  0  0  0  0
   35.4845   -0.5928    3.1628 C   0  0  0  0  0  0  0  0  0  0  0  0
   36.0794    0.3539    2.2077 C   0  0  0  0  0  0  0  0  0  0  0  0
   37.3952   -0.1087    1.6460 C   0  0  2  0  0  0  0  0  0  0  0  0
   37.8154    0.8864    0.6409 N   0  0  0  0  0  0  0  0  0  0  0  0
   37.2959   -1.4221    0.9895 C   0  0  0  0  0  0  0  0  0  0  0  0
   37.4250   -2.5938    1.7184 O   0  0  0  0  0  0  0  0  0  0  0  0
   36.0192   -0.6756    4.4324 C   0  0  0  0  0  0  0  0  0  0  0  0
   35.4736   -1.5649    5.3314 C   0  0  0  0  0  0  0  0  0  0  0  0
   37.0921   -1.5259   -0.2457 O   0  0  0  0  0  0  0  0  0  0  0  0
  2  1  1  1
  2  3  1  0
  3  4  1  0
  4  5  2  0
  6  2  1  0
  7  6  2  0
  8  4  1  0
  9  6  1  0
 10 11  1  0
 10  9  1  0
 11 12  2  0
 14 13  1  0
 14 24  2  0
 15 14  1  0
 16 15  2  0
 16 17  1  0
 17 23  2  0
 18 17  1  0
 19 18  1  6
 20 19  1  0
 20 11  1  0
 21 19  1  0
 22 21  1  0
 23 24  1  0
 25 21  2  0
M  END
$$$$
