DGY.pdb
     RDKit          3D

 25 25  0  0  1  0  0  0  0  0999 V2000
   20.3195  -13.3002  -19.6528 N   0  0  0  0  0  0  0  0  0  0  0  0
   21.7023  -12.9347  -19.4079 C   0  0  1  0  0  0  0  0  0  0  0  0
   22.4703  -13.1962  -20.6879 C   0  0  0  0  0  0  0  0  0  0  0  0
   22.6906  -14.6520  -20.8837 C   0  0  0  0  0  0  0  0  0  0  0  0
   21.7771  -15.4849  -20.6677 O   0  0  0  0  0  0  0  0  0  0  0  0
   21.7378  -11.5249  -19.0074 C   0  0  0  0  0  0  0  0  0  0  0  0
   22.8044  -10.9387  -18.6613 O   0  0  0  0  0  0  0  0  0  0  0  0
   23.9175  -15.1283  -21.3121 O   0  0  0  0  0  0  0  0  0  0  0  0
   20.5527  -10.7001  -18.9792 N   0  0  0  0  0  0  0  0  0  0  0  0
   20.6168   -9.3217  -18.6116 C   0  0  0  0  0  0  0  0  0  0  0  0
   20.6192   -9.0298  -17.1834 C   0  0  0  0  0  0  0  0  0  0  0  0
   20.1927   -9.9150  -16.3665 O   0  0  0  0  0  0  0  0  0  0  0  0
   26.0750  -11.4676  -15.6937 O   0  0  0  0  0  0  0  0  0  0  0  0
   25.1469  -10.4682  -15.3968 C   0  0  0  0  0  0  0  0  0  0  0  0
   24.2611  -10.5957  -14.3366 C   0  0  0  0  0  0  0  0  0  0  0  0
   23.3670   -9.5750  -14.0919 C   0  0  0  0  0  0  0  0  0  0  0  0
   23.3530   -8.4310  -14.8984 C   0  0  0  0  0  0  0  0  0  0  0  0
   22.4009   -7.3365  -14.6575 C   0  0  0  0  0  0  0  0  0  0  0  0
   21.0045   -7.6436  -15.1228 C   0  0  2  0  0  0  0  0  0  0  0  0
   21.0610   -7.8237  -16.5861 N   0  0  0  0  0  0  0  0  0  0  0  0
   20.0596   -6.5559  -14.8224 C   0  0  0  0  0  0  0  0  0  0  0  0
   19.5810   -6.3638  -13.5361 O   0  0  0  0  0  0  0  0  0  0  0  0
   24.2395   -8.3172  -15.9500 C   0  0  0  0  0  0  0  0  0  0  0  0
   25.1297   -9.3407  -16.1882 C   0  0  0  0  0  0  0  0  0  0  0  0
   19.6570   -5.7695  -15.7155 O   0  0  0  0  0  0  0  0  0  0  0  0
  2  1  1  6
  2  3  1  0
  3  4  1  0
  4  5  2  0
  6  2  1  0
  7  6  2  0
  8  4  1  0
  9  6  1  0
 10 11  1  0
 10  9  1  0
 11 12  2  0
 14 13  1  0
 14 24  2  0
 15 14  1  0
 16 15  2  0
 16 17  1  0
 17 23  2  0
 18 17  1  0
 19 18  1  6
 20 19  1  0
 20 11  1  0
 21 19  1  0
 22 21  1  0
 23 24  1  0
 25 21  2  0
M  END
$$$$
