DGY.pdb
     RDKit          3D

 25 25  0  0  1  0  0  0  0  0999 V2000
   18.5100   -9.3907  -17.9478 N   0  0  0  0  0  0  0  0  0  0  0  0
   18.1317   -9.3879  -16.5469 C   0  0  1  0  0  0  0  0  0  0  0  0
   19.2827   -9.9934  -15.7688 C   0  0  0  0  0  0  0  0  0  0  0  0
   19.2945  -11.4721  -15.9080 C   0  0  0  0  0  0  0  0  0  0  0  0
   18.4886  -12.1937  -15.2718 O   0  0  0  0  0  0  0  0  0  0  0  0
   17.8510   -8.0042  -16.1525 C   0  0  0  0  0  0  0  0  0  0  0  0
   17.2890   -7.7050  -15.0591 O   0  0  0  0  0  0  0  0  0  0  0  0
   20.2012  -12.0941  -16.7487 O   0  0  0  0  0  0  0  0  0  0  0  0
   18.1973   -6.8779  -16.9874 N   0  0  0  0  0  0  0  0  0  0  0  0
   17.8859   -5.5405  -16.5958 C   0  0  0  0  0  0  0  0  0  0  0  0
   18.6659   -4.9876  -15.4954 C   0  0  0  0  0  0  0  0  0  0  0  0
   18.0851   -4.2469  -14.6314 O   0  0  0  0  0  0  0  0  0  0  0  0
   24.3955   -9.4411  -16.1146 O   0  0  0  0  0  0  0  0  0  0  0  0
   23.6422   -8.4876  -15.4278 C   0  0  0  0  0  0  0  0  0  0  0  0
   23.9631   -7.1388  -15.4784 C   0  0  0  0  0  0  0  0  0  0  0  0
   23.1817   -6.2435  -14.7791 C   0  0  0  0  0  0  0  0  0  0  0  0
   22.0845   -6.6873  -14.0315 C   0  0  0  0  0  0  0  0  0  0  0  0
   21.2453   -5.7479  -13.2728 C   0  0  0  0  0  0  0  0  0  0  0  0
   20.7224   -4.6075  -14.1016 C   0  0  2  0  0  0  0  0  0  0  0  0
   20.0503   -5.1937  -15.2770 N   0  0  0  0  0  0  0  0  0  0  0  0
   21.7949   -3.7168  -14.5730 C   0  0  0  0  0  0  0  0  0  0  0  0
   22.0394   -3.5518  -15.9272 O   0  0  0  0  0  0  0  0  0  0  0  0
   21.7766   -8.0319  -13.9896 C   0  0  0  0  0  0  0  0  0  0  0  0
   22.5616   -8.9202  -14.6908 C   0  0  0  0  0  0  0  0  0  0  0  0
   22.5208   -3.0795  -13.7698 O   0  0  0  0  0  0  0  0  0  0  0  0
  2  1  1  6
  2  3  1  0
  3  4  1  0
  4  5  2  0
  6  2  1  0
  7  6  2  0
  8  4  1  0
  9  6  1  0
 10 11  1  0
 10  9  1  0
 11 12  2  0
 14 13  1  0
 14 24  2  0
 15 14  1  0
 16 15  2  0
 16 17  1  0
 17 23  2  0
 18 17  1  0
 19 18  1  1
 20 19  1  0
 20 11  1  0
 21 19  1  0
 22 21  1  0
 23 24  1  0
 25 21  2  0
M  END
$$$$
