DGY.pdb
     RDKit          3D

 25 25  0  0  1  0  0  0  0  0999 V2000
   17.0460   -6.0503  -21.1413 N   0  0  0  0  0  0  0  0  0  0  0  0
   18.1864   -5.8198  -22.0084 C   0  0  1  0  0  0  0  0  0  0  0  0
   17.8440   -4.6422  -22.8987 C   0  0  0  0  0  0  0  0  0  0  0  0
   16.8819   -5.0423  -23.9571 C   0  0  0  0  0  0  0  0  0  0  0  0
   16.9920   -6.1383  -24.5584 O   0  0  0  0  0  0  0  0  0  0  0  0
   19.3579   -5.5663  -21.1644 C   0  0  0  0  0  0  0  0  0  0  0  0
   20.5113   -5.3562  -21.6402 O   0  0  0  0  0  0  0  0  0  0  0  0
   15.8332   -4.2099  -24.3083 O   0  0  0  0  0  0  0  0  0  0  0  0
   19.2793   -5.5380  -19.7227 N   0  0  0  0  0  0  0  0  0  0  0  0
   20.4306   -5.2684  -18.9221 C   0  0  0  0  0  0  0  0  0  0  0  0
   21.0995   -6.4236  -18.3364 C   0  0  0  0  0  0  0  0  0  0  0  0
   20.6268   -7.5913  -18.5506 O   0  0  0  0  0  0  0  0  0  0  0  0
   26.8025  -12.2398  -15.1179 O   0  0  0  0  0  0  0  0  0  0  0  0
   26.1044  -11.1964  -15.7281 C   0  0  0  0  0  0  0  0  0  0  0  0
   25.0436  -11.4414  -16.5880 C   0  0  0  0  0  0  0  0  0  0  0  0
   24.3920  -10.3698  -17.1610 C   0  0  0  0  0  0  0  0  0  0  0  0
   24.7934   -9.0585  -16.8803 C   0  0  0  0  0  0  0  0  0  0  0  0
   24.1156   -7.9040  -17.4888 C   0  0  0  0  0  0  0  0  0  0  0  0
   22.7712   -7.6105  -16.8829 C   0  0  2  0  0  0  0  0  0  0  0  0
   22.2604   -6.3846  -17.5255 N   0  0  0  0  0  0  0  0  0  0  0  0
   22.8469   -7.3799  -15.4313 C   0  0  0  0  0  0  0  0  0  0  0  0
   22.6559   -8.4192  -14.5345 O   0  0  0  0  0  0  0  0  0  0  0  0
   25.8505   -8.8290  -16.0233 C   0  0  0  0  0  0  0  0  0  0  0  0
   26.4964   -9.9042  -15.4547 C   0  0  0  0  0  0  0  0  0  0  0  0
   23.0855   -6.2409  -14.9581 O   0  0  0  0  0  0  0  0  0  0  0  0
  2  1  1  1
  2  3  1  0
  3  4  1  0
  4  5  2  0
  6  2  1  0
  7  6  2  0
  8  4  1  0
  9  6  1  0
 10 11  1  0
 10  9  1  0
 11 12  2  0
 14 13  1  0
 14 24  2  0
 15 14  1  0
 16 15  2  0
 16 17  1  0
 17 23  2  0
 18 17  1  0
 19 18  1  6
 20 19  1  0
 20 11  1  0
 21 19  1  0
 22 21  1  0
 23 24  1  0
 25 21  2  0
M  END
$$$$
