DGY.pdb
     RDKit          3D

 25 25  0  0  1  0  0  0  0  0999 V2000
   28.6844  -27.5734  -16.5112 N   0  0  0  0  0  0  0  0  0  0  0  0
   28.8331  -28.4452  -17.6616 C   0  0  1  0  0  0  0  0  0  0  0  0
   28.0348  -29.7022  -17.3798 C   0  0  0  0  0  0  0  0  0  0  0  0
   28.7922  -30.9122  -17.7901 C   0  0  0  0  0  0  0  0  0  0  0  0
   29.9433  -30.8255  -18.2826 O   0  0  0  0  0  0  0  0  0  0  0  0
   28.3524  -27.7257  -18.8449 C   0  0  0  0  0  0  0  0  0  0  0  0
   28.9584  -27.7530  -19.9553 O   0  0  0  0  0  0  0  0  0  0  0  0
   28.2428  -32.1734  -17.6381 O   0  0  0  0  0  0  0  0  0  0  0  0
   27.1470  -26.9305  -18.8283 N   0  0  0  0  0  0  0  0  0  0  0  0
   26.7177  -26.2098  -19.9838 C   0  0  0  0  0  0  0  0  0  0  0  0
   25.4761  -25.4568  -19.8555 C   0  0  0  0  0  0  0  0  0  0  0  0
   25.0625  -24.7650  -20.8469 O   0  0  0  0  0  0  0  0  0  0  0  0
   24.7686  -23.1932  -12.6890 O   0  0  0  0  0  0  0  0  0  0  0  0
   24.1940  -23.6322  -13.8830 C   0  0  0  0  0  0  0  0  0  0  0  0
   23.0544  -23.0335  -14.4003 C   0  0  0  0  0  0  0  0  0  0  0  0
   22.5325  -23.5108  -15.5839 C   0  0  0  0  0  0  0  0  0  0  0  0
   23.1412  -24.5799  -16.2516 C   0  0  0  0  0  0  0  0  0  0  0  0
   22.5937  -25.1074  -17.5104 C   0  0  0  0  0  0  0  0  0  0  0  0
   23.3690  -24.6814  -18.7262 C   0  0  2  0  0  0  0  0  0  0  0  0
   24.6513  -25.4109  -18.7047 N   0  0  0  0  0  0  0  0  0  0  0  0
   23.6534  -23.2375  -18.7345 C   0  0  0  0  0  0  0  0  0  0  0  0
   24.9376  -22.7637  -18.5173 O   0  0  0  0  0  0  0  0  0  0  0  0
   24.2744  -25.1665  -15.7257 C   0  0  0  0  0  0  0  0  0  0  0  0
   24.7900  -24.6843  -14.5432 C   0  0  0  0  0  0  0  0  0  0  0  0
   22.7483  -22.3903  -18.9373 O   0  0  0  0  0  0  0  0  0  0  0  0
  2  1  1  1
  2  3  1  0
  3  4  1  0
  4  5  2  0
  6  2  1  0
  7  6  2  0
  8  4  1  0
  9  6  1  0
 10 11  1  0
 10  9  1  0
 11 12  2  0
 14 13  1  0
 14 24  2  0
 15 14  1  0
 16 15  2  0
 16 17  1  0
 17 23  2  0
 18 17  1  0
 19 18  1  1
 20 19  1  0
 20 11  1  0
 21 19  1  0
 22 21  1  0
 23 24  1  0
 25 21  2  0
M  END
$$$$
