DGY.pdb
     RDKit          3D

 25 25  0  0  1  0  0  0  0  0999 V2000
   17.8539  -16.0964  -15.0304 N   0  0  0  0  0  0  0  0  0  0  0  0
   17.5647  -16.2843  -16.4398 C   0  0  1  0  0  0  0  0  0  0  0  0
   16.0782  -16.5528  -16.5623 C   0  0  0  0  0  0  0  0  0  0  0  0
   15.7137  -17.8246  -15.8872 C   0  0  0  0  0  0  0  0  0  0  0  0
   15.2043  -17.8318  -14.7403 O   0  0  0  0  0  0  0  0  0  0  0  0
   17.9797  -15.0746  -17.1563 C   0  0  0  0  0  0  0  0  0  0  0  0
   18.0955  -15.0310  -18.4156 O   0  0  0  0  0  0  0  0  0  0  0  0
   15.9287  -19.0412  -16.5113 O   0  0  0  0  0  0  0  0  0  0  0  0
   18.2875  -13.8400  -16.4733 N   0  0  0  0  0  0  0  0  0  0  0  0
   18.7373  -12.6887  -17.1884 C   0  0  0  0  0  0  0  0  0  0  0  0
   18.9392  -11.4757  -16.4056 C   0  0  0  0  0  0  0  0  0  0  0  0
   17.9612  -10.9961  -15.7377 O   0  0  0  0  0  0  0  0  0  0  0  0
   22.3608   -4.0208  -13.0888 O   0  0  0  0  0  0  0  0  0  0  0  0
   22.1918   -5.2494  -13.7296 C   0  0  0  0  0  0  0  0  0  0  0  0
   22.2768   -5.3631  -15.1096 C   0  0  0  0  0  0  0  0  0  0  0  0
   22.1009   -6.6033  -15.6859 C   0  0  0  0  0  0  0  0  0  0  0  0
   21.8414   -7.7274  -14.8930 C   0  0  0  0  0  0  0  0  0  0  0  0
   21.6428   -9.0561  -15.4909 C   0  0  0  0  0  0  0  0  0  0  0  0
   20.1980   -9.4624  -15.5822 C   0  0  2  0  0  0  0  0  0  0  0  0
   20.1503  -10.7477  -16.3050 N   0  0  0  0  0  0  0  0  0  0  0  0
   19.3836   -8.4822  -16.3183 C   0  0  0  0  0  0  0  0  0  0  0  0
   19.3694   -8.4661  -17.7041 O   0  0  0  0  0  0  0  0  0  0  0  0
   21.7592   -7.6001  -13.5213 C   0  0  0  0  0  0  0  0  0  0  0  0
   21.9361   -6.3581  -12.9529 C   0  0  0  0  0  0  0  0  0  0  0  0
   18.6781   -7.6321  -15.7203 O   0  0  0  0  0  0  0  0  0  0  0  0
  2  1  1  1
  2  3  1  0
  3  4  1  0
  4  5  2  0
  6  2  1  0
  7  6  2  0
  8  4  1  0
  9  6  1  0
 10 11  1  0
 10  9  1  0
 11 12  2  0
 14 13  1  0
 14 24  2  0
 15 14  1  0
 16 15  2  0
 16 17  1  0
 17 23  2  0
 18 17  1  0
 19 18  1  6
 20 19  1  0
 20 11  1  0
 21 19  1  0
 22 21  1  0
 23 24  1  0
 25 21  2  0
M  END
$$$$
