QYD.pdb
     RDKit          3D

 30 30  0  0  1  0  0  0  0  0999 V2000
    6.9208  -12.5377   17.8988 N   0  0  0  0  0  0  0  0  0  0  0  0
    7.8193  -13.5515   17.4216 C   0  0  0  0  0  0  0  0  0  0  0  0
    8.5825  -13.2247   16.5001 O   0  0  0  0  0  0  0  0  0  0  0  0
    7.7310  -14.8641   18.0835 C   0  0  0  0  0  0  0  0  0  0  0  0
    8.7964  -15.1253   19.1102 C   0  0  0  0  0  0  0  0  0  0  0  0
    8.2305  -15.9788   20.2118 C   0  0  2  0  0  0  0  0  0  0  0  0
    6.7860  -15.8108   20.2292 N   0  0  0  0  0  0  0  0  0  0  0  0
    8.7552  -15.6349   21.5383 C   0  0  0  0  0  0  0  0  0  0  0  0
    9.9951  -15.6701   21.7298 O   0  0  0  0  0  0  0  0  0  0  0  0
   10.0947  -13.9766   29.9504 O   0  0  0  0  0  0  0  0  0  0  0  0
    9.4763  -14.0574   28.7009 C   0  0  0  0  0  0  0  0  0  0  0  0
    9.5456  -13.0078   27.8084 C   0  0  0  0  0  0  0  0  0  0  0  0
    8.9292  -13.1021   26.5766 C   0  0  0  0  0  0  0  0  0  0  0  0
    8.2360  -14.2355   26.2105 C   0  0  0  0  0  0  0  0  0  0  0  0
    7.5590  -14.3808   24.8980 C   0  0  0  0  0  0  0  0  0  0  0  0
    8.4846  -15.0947   23.9375 C   0  0  2  0  0  0  0  0  0  0  0  0
    7.9228  -15.2574   22.6377 N   0  0  0  0  0  0  0  0  0  0  0  0
    8.8491  -16.3932   24.5728 C   0  0  0  0  0  0  0  0  0  0  0  0
    8.0734  -17.3821   24.5936 O   0  0  0  0  0  0  0  0  0  0  0  0
    8.1652  -15.2844   27.0990 C   0  0  0  0  0  0  0  0  0  0  0  0
    8.7824  -15.1908   28.3335 C   0  0  0  0  0  0  0  0  0  0  0  0
   10.1153  -16.5376   25.1823 N   0  0  0  0  0  0  0  0  0  0  0  0
   10.7200  -17.8497   25.4249 C   0  0  1  0  0  0  0  0  0  0  0  0
   11.3461  -18.4025   24.1944 C   0  0  0  0  0  0  0  0  0  0  0  0
   11.9575  -19.7230   24.4499 C   0  0  0  0  0  0  0  0  0  0  0  0
   13.2121  -19.8311   24.7033 O   0  0  0  0  0  0  0  0  0  0  0  0
   11.7789  -17.7014   26.4777 C   0  0  0  0  0  0  0  0  0  0  0  0
   12.0429  -18.5845   27.4784 O   0  0  0  0  0  0  0  0  0  0  0  0
   11.2667  -20.9163   24.4378 O   0  0  0  0  0  0  0  0  0  0  0  0
   12.5105  -16.6549   26.4478 O   0  0  0  0  0  0  0  0  0  0  0  0
  1  2  1  0
  2  3  2  0
  4  5  1  0
  4  2  1  0
  6  7  1  1
  6  5  1  0
  8  6  1  0
  9  8  2  0
 10 11  1  0
 11 12  2  0
 11 21  1  0
 12 13  1  0
 13 14  2  0
 14 15  1  0
 16 15  1  1
 16 17  1  0
 17  8  1  0
 18 22  1  0
 18 16  1  0
 19 18  2  0
 20 14  1  0
 21 20  2  0
 23 27  1  0
 23 22  1  0
 23 24  1  6
 25 24  1  0
 25 26  2  0
 27 28  1  0
 29 25  1  0
 30 27  2  0
M  END
$$$$
