QYD.pdb
     RDKit          3D

 30 30  0  0  1  0  0  0  0  0999 V2000
   10.2699  -16.7479   15.5185 N   0  0  0  0  0  0  0  0  0  0  0  0
    9.2966  -17.7801   15.7422 C   0  0  0  0  0  0  0  0  0  0  0  0
    8.9579  -18.4450   14.7515 O   0  0  0  0  0  0  0  0  0  0  0  0
    8.8130  -17.9307   17.1251 C   0  0  0  0  0  0  0  0  0  0  0  0
    9.3884  -16.9475   18.1047 C   0  0  0  0  0  0  0  0  0  0  0  0
   10.0438  -17.6931   19.2347 C   0  0  2  0  0  0  0  0  0  0  0  0
    9.1261  -18.7194   19.7033 N   0  0  0  0  0  0  0  0  0  0  0  0
   10.3972  -16.8315   20.3687 C   0  0  0  0  0  0  0  0  0  0  0  0
   11.4730  -16.1861   20.3302 O   0  0  0  0  0  0  0  0  0  0  0  0
    6.4553  -12.1873   18.6277 O   0  0  0  0  0  0  0  0  0  0  0  0
    7.0038  -12.8775   19.7108 C   0  0  0  0  0  0  0  0  0  0  0  0
    6.4115  -14.0277   20.1895 C   0  0  0  0  0  0  0  0  0  0  0  0
    6.9653  -14.6993   21.2611 C   0  0  0  0  0  0  0  0  0  0  0  0
    8.1121  -14.2429   21.8739 C   0  0  0  0  0  0  0  0  0  0  0  0
    8.7421  -14.9322   23.0273 C   0  0  0  0  0  0  0  0  0  0  0  0
    9.9235  -15.7409   22.5384 C   0  0  2  0  0  0  0  0  0  0  0  0
    9.5747  -16.6847   21.5288 N   0  0  0  0  0  0  0  0  0  0  0  0
   10.5349  -16.3817   23.7377 C   0  0  0  0  0  0  0  0  0  0  0  0
   10.9061  -15.7267   24.7443 O   0  0  0  0  0  0  0  0  0  0  0  0
    8.7054  -13.0955   21.3983 C   0  0  0  0  0  0  0  0  0  0  0  0
    8.1512  -12.4218   20.3247 C   0  0  0  0  0  0  0  0  0  0  0  0
   10.7127  -17.7828   23.7624 N   0  0  0  0  0  0  0  0  0  0  0  0
   11.4336  -18.4594   24.8436 C   0  0  1  0  0  0  0  0  0  0  0  0
   12.8540  -18.0243   24.9138 C   0  0  0  0  0  0  0  0  0  0  0  0
   13.5895  -18.7602   25.9628 C   0  0  0  0  0  0  0  0  0  0  0  0
   14.6076  -18.2367   26.5452 O   0  0  0  0  0  0  0  0  0  0  0  0
   10.7647  -18.1284   26.1453 C   0  0  0  0  0  0  0  0  0  0  0  0
   10.4705  -19.0074   27.1411 O   0  0  0  0  0  0  0  0  0  0  0  0
   13.2667  -20.0290   26.3954 O   0  0  0  0  0  0  0  0  0  0  0  0
   10.4331  -16.9131   26.3560 O   0  0  0  0  0  0  0  0  0  0  0  0
  1  2  1  0
  2  3  2  0
  4  5  1  0
  4  2  1  0
  6  7  1  1
  6  5  1  0
  8  6  1  0
  9  8  2  0
 10 11  1  0
 11 12  2  0
 11 21  1  0
 12 13  1  0
 13 14  2  0
 14 15  1  0
 16 15  1  1
 16 17  1  0
 17  8  1  0
 18 22  1  0
 18 16  1  0
 19 18  2  0
 20 14  1  0
 21 20  2  0
 23 27  1  0
 23 22  1  0
 23 24  1  1
 25 24  1  0
 25 26  2  0
 27 28  1  0
 29 25  1  0
 30 27  2  0
M  END
$$$$
