QYD.pdb
     RDKit          3D

 30 30  0  0  1  0  0  0  0  0999 V2000
    8.2917  -12.7872   15.1026 N   0  0  0  0  0  0  0  0  0  0  0  0
    8.3886  -14.2124   15.2516 C   0  0  0  0  0  0  0  0  0  0  0  0
    9.0944  -14.8083   14.4239 O   0  0  0  0  0  0  0  0  0  0  0  0
    7.6379  -14.8026   16.3728 C   0  0  0  0  0  0  0  0  0  0  0  0
    7.9104  -14.1783   17.7119 C   0  0  0  0  0  0  0  0  0  0  0  0
    8.5089  -15.2077   18.6309 C   0  0  2  0  0  0  0  0  0  0  0  0
    7.6579  -16.3869   18.6186 N   0  0  0  0  0  0  0  0  0  0  0  0
    8.6385  -14.7415   20.0162 C   0  0  0  0  0  0  0  0  0  0  0  0
    9.3845  -13.7624   20.2613 O   0  0  0  0  0  0  0  0  0  0  0  0
    7.5228  -12.5082   28.2955 O   0  0  0  0  0  0  0  0  0  0  0  0
    7.3509  -12.9035   26.9672 C   0  0  0  0  0  0  0  0  0  0  0  0
    6.7332  -14.0979   26.6592 C   0  0  0  0  0  0  0  0  0  0  0  0
    6.5703  -14.4755   25.3412 C   0  0  0  0  0  0  0  0  0  0  0  0
    7.0158  -13.6774   24.3100 C   0  0  0  0  0  0  0  0  0  0  0  0
    6.8618  -14.0427   22.8799 C   0  0  0  0  0  0  0  0  0  0  0  0
    8.0869  -14.8063   22.4272 C   0  0  2  0  0  0  0  0  0  0  0  0
    7.9542  -15.3477   21.1154 N   0  0  0  0  0  0  0  0  0  0  0  0
    8.3495  -15.8521   23.4568 C   0  0  0  0  0  0  0  0  0  0  0  0
    7.5995  -16.8471   23.6228 O   0  0  0  0  0  0  0  0  0  0  0  0
    7.6325  -12.4850   24.6143 C   0  0  0  0  0  0  0  0  0  0  0  0
    7.7962  -12.1058   25.9345 C   0  0  0  0  0  0  0  0  0  0  0  0
    9.4841  -15.7373   24.2904 N   0  0  0  0  0  0  0  0  0  0  0  0
   10.2878  -16.8987   24.6796 C   0  0  1  0  0  0  0  0  0  0  0  0
   11.6934  -16.7772   24.2092 C   0  0  0  0  0  0  0  0  0  0  0  0
   12.5034  -17.9381   24.6326 C   0  0  0  0  0  0  0  0  0  0  0  0
   13.3125  -17.8506   25.6263 O   0  0  0  0  0  0  0  0  0  0  0  0
   10.2892  -16.9998   26.1767 C   0  0  0  0  0  0  0  0  0  0  0  0
   10.5954  -18.1077   26.9046 O   0  0  0  0  0  0  0  0  0  0  0  0
   12.4703  -19.1743   24.0228 O   0  0  0  0  0  0  0  0  0  0  0  0
    9.9762  -15.9589   26.8474 O   0  0  0  0  0  0  0  0  0  0  0  0
  1  2  1  0
  2  3  2  0
  4  5  1  0
  4  2  1  0
  6  7  1  1
  6  5  1  0
  8  6  1  0
  9  8  2  0
 10 11  1  0
 11 12  2  0
 11 21  1  0
 12 13  1  0
 13 14  2  0
 14 15  1  0
 16 15  1  1
 16 17  1  0
 17  8  1  0
 18 22  1  0
 18 16  1  0
 19 18  2  0
 20 14  1  0
 21 20  2  0
 23 27  1  0
 23 22  1  0
 23 24  1  1
 25 24  1  0
 25 26  2  0
 27 28  1  0
 29 25  1  0
 30 27  2  0
M  END
$$$$
