QYD.pdb
     RDKit          3D

 30 30  0  0  1  0  0  0  0  0999 V2000
    9.0521  -21.3629   19.9804 N   0  0  0  0  0  0  0  0  0  0  0  0
    9.7634  -20.7866   18.8737 C   0  0  0  0  0  0  0  0  0  0  0  0
   10.3866  -21.5744   18.1463 O   0  0  0  0  0  0  0  0  0  0  0  0
    9.6696  -19.3238   18.7300 C   0  0  0  0  0  0  0  0  0  0  0  0
    9.7104  -18.5594   20.0227 C   0  0  0  0  0  0  0  0  0  0  0  0
    9.5326  -17.0925   19.7419 C   0  0  2  0  0  0  0  0  0  0  0  0
   10.6245  -16.6508   18.8888 N   0  0  0  0  0  0  0  0  0  0  0  0
    9.5266  -16.2673   20.9552 C   0  0  0  0  0  0  0  0  0  0  0  0
   10.6044  -16.0839   21.5715 O   0  0  0  0  0  0  0  0  0  0  0  0
    7.6572  -11.7176   28.1208 O   0  0  0  0  0  0  0  0  0  0  0  0
    7.5447  -12.3253   26.8685 C   0  0  0  0  0  0  0  0  0  0  0  0
    8.4017  -11.9908   25.8405 C   0  0  0  0  0  0  0  0  0  0  0  0
    8.2782  -12.6000   24.6078 C   0  0  0  0  0  0  0  0  0  0  0  0
    7.3059  -13.5483   24.3747 C   0  0  0  0  0  0  0  0  0  0  0  0
    7.1369  -14.2288   23.0668 C   0  0  0  0  0  0  0  0  0  0  0  0
    8.3650  -15.0638   22.7783 C   0  0  2  0  0  0  0  0  0  0  0  0
    8.3472  -15.6534   21.4808 N   0  0  0  0  0  0  0  0  0  0  0  0
    8.4655  -16.0760   23.8683 C   0  0  0  0  0  0  0  0  0  0  0  0
    7.5366  -16.8784   24.1395 O   0  0  0  0  0  0  0  0  0  0  0  0
    6.4494  -13.8842   25.3984 C   0  0  0  0  0  0  0  0  0  0  0  0
    6.5722  -13.2742   26.6340 C   0  0  0  0  0  0  0  0  0  0  0  0
    9.6463  -16.1518   24.6398 N   0  0  0  0  0  0  0  0  0  0  0  0
    9.8092  -17.1227   25.7248 C   0  0  1  0  0  0  0  0  0  0  0  0
   11.1029  -17.8492   25.6228 C   0  0  0  0  0  0  0  0  0  0  0  0
   11.2072  -18.5828   24.3446 C   0  0  0  0  0  0  0  0  0  0  0  0
   10.1997  -19.2192   23.8652 O   0  0  0  0  0  0  0  0  0  0  0  0
    9.7720  -16.3890   27.0331 C   0  0  0  0  0  0  0  0  0  0  0  0
    9.7474  -15.0382   27.1937 O   0  0  0  0  0  0  0  0  0  0  0  0
   12.3515  -18.6530   23.5785 O   0  0  0  0  0  0  0  0  0  0  0  0
    9.7620  -17.0802   28.1071 O   0  0  0  0  0  0  0  0  0  0  0  0
  1  2  1  0
  2  3  2  0
  4  5  1  0
  4  2  1  0
  6  7  1  6
  6  5  1  0
  8  6  1  0
  9  8  2  0
 10 11  1  0
 11 12  2  0
 11 21  1  0
 12 13  1  0
 13 14  2  0
 14 15  1  0
 16 15  1  1
 16 17  1  0
 17  8  1  0
 18 22  1  0
 18 16  1  0
 19 18  2  0
 20 14  1  0
 21 20  2  0
 23 27  1  0
 23 22  1  0
 23 24  1  6
 25 24  1  0
 25 26  2  0
 27 28  1  0
 29 25  1  0
 30 27  2  0
M  END
$$$$
