QYD.pdb
     RDKit          3D

 30 30  0  0  1  0  0  0  0  0999 V2000
    7.4047  -17.3171   15.9943 N   0  0  0  0  0  0  0  0  0  0  0  0
    8.1291  -16.0853   15.8497 C   0  0  0  0  0  0  0  0  0  0  0  0
    9.0630  -16.0856   15.0335 O   0  0  0  0  0  0  0  0  0  0  0  0
    7.6776  -14.9619   16.6883 C   0  0  0  0  0  0  0  0  0  0  0  0
    8.4032  -14.8202   17.9962 C   0  0  0  0  0  0  0  0  0  0  0  0
    7.6957  -13.8066   18.8531 C   0  0  2  0  0  0  0  0  0  0  0  0
    7.9472  -12.4834   18.3046 N   0  0  0  0  0  0  0  0  0  0  0  0
    8.1372  -13.8223   20.2524 C   0  0  0  0  0  0  0  0  0  0  0  0
    9.3588  -13.6857   20.5063 O   0  0  0  0  0  0  0  0  0  0  0  0
    9.0611  -14.1233   28.8790 O   0  0  0  0  0  0  0  0  0  0  0  0
    8.4771  -14.0639   27.6118 C   0  0  0  0  0  0  0  0  0  0  0  0
    8.4089  -12.8725   26.9198 C   0  0  0  0  0  0  0  0  0  0  0  0
    7.8285  -12.8292   25.6678 C   0  0  0  0  0  0  0  0  0  0  0  0
    7.3078  -13.9633   25.0831 C   0  0  0  0  0  0  0  0  0  0  0  0
    6.6757  -13.9636   23.7405 C   0  0  0  0  0  0  0  0  0  0  0  0
    7.7531  -14.0710   22.6838 C   0  0  2  0  0  0  0  0  0  0  0  0
    7.2429  -13.9864   21.3556 N   0  0  0  0  0  0  0  0  0  0  0  0
    8.4834  -15.3455   22.9389 C   0  0  0  0  0  0  0  0  0  0  0  0
    7.9819  -16.4749   22.7090 O   0  0  0  0  0  0  0  0  0  0  0  0
    7.3745  -15.1535   25.7713 C   0  0  0  0  0  0  0  0  0  0  0  0
    7.9558  -15.1978   27.0258 C   0  0  0  0  0  0  0  0  0  0  0  0
    9.7953  -15.3023   23.4609 N   0  0  0  0  0  0  0  0  0  0  0  0
   10.5836  -16.5151   23.6933 C   0  0  1  0  0  0  0  0  0  0  0  0
   12.0176  -16.3118   23.3558 C   0  0  0  0  0  0  0  0  0  0  0  0
   12.7981  -17.5494   23.5612 C   0  0  0  0  0  0  0  0  0  0  0  0
   12.2289  -18.6296   23.9603 O   0  0  0  0  0  0  0  0  0  0  0  0
   10.4789  -16.8834   25.1441 C   0  0  0  0  0  0  0  0  0  0  0  0
   10.2986  -18.1368   25.6415 O   0  0  0  0  0  0  0  0  0  0  0  0
   14.1573  -17.6559   23.3550 O   0  0  0  0  0  0  0  0  0  0  0  0
   10.5646  -15.9461   26.0074 O   0  0  0  0  0  0  0  0  0  0  0  0
  1  2  1  0
  2  3  2  0
  4  5  1  0
  4  2  1  0
  6  7  1  6
  6  5  1  0
  8  6  1  0
  9  8  2  0
 10 11  1  0
 11 12  2  0
 11 21  1  0
 12 13  1  0
 13 14  2  0
 14 15  1  0
 16 15  1  1
 16 17  1  0
 17  8  1  0
 18 22  1  0
 18 16  1  0
 19 18  2  0
 20 14  1  0
 21 20  2  0
 23 27  1  0
 23 22  1  0
 23 24  1  1
 25 24  1  0
 25 26  2  0
 27 28  1  0
 29 25  1  0
 30 27  2  0
M  END
$$$$
