QYD.pdb
     RDKit          3D

 30 30  0  0  1  0  0  0  0  0999 V2000
    7.0526  -12.7770   19.2672 N   0  0  0  0  0  0  0  0  0  0  0  0
    8.1864  -13.4348   18.6803 C   0  0  0  0  0  0  0  0  0  0  0  0
    8.3749  -13.2378   17.4703 O   0  0  0  0  0  0  0  0  0  0  0  0
    8.9962  -14.2683   19.5850 C   0  0  0  0  0  0  0  0  0  0  0  0
    8.4281  -14.4352   20.9658 C   0  0  0  0  0  0  0  0  0  0  0  0
    9.0382  -15.6476   21.6142 C   0  0  2  0  0  0  0  0  0  0  0  0
    8.0565  -16.7206   21.6007 N   0  0  0  0  0  0  0  0  0  0  0  0
    9.4542  -15.4144   23.0019 C   0  0  0  0  0  0  0  0  0  0  0  0
   10.3324  -14.5490   23.2364 O   0  0  0  0  0  0  0  0  0  0  0  0
    6.2065  -10.3827   26.3098 O   0  0  0  0  0  0  0  0  0  0  0  0
    6.7149  -11.6830   26.3450 C   0  0  0  0  0  0  0  0  0  0  0  0
    7.9784  -11.9350   26.8382 C   0  0  0  0  0  0  0  0  0  0  0  0
    8.4676  -13.2257   26.8668 C   0  0  0  0  0  0  0  0  0  0  0  0
    7.7144  -14.2847   26.4082 C   0  0  0  0  0  0  0  0  0  0  0  0
    8.1992  -15.6872   26.4201 C   0  0  0  0  0  0  0  0  0  0  0  0
    9.3423  -15.8264   25.4389 C   0  0  2  0  0  0  0  0  0  0  0  0
    8.9083  -16.1266   24.1149 N   0  0  0  0  0  0  0  0  0  0  0  0
   10.2623  -16.8617   25.9909 C   0  0  0  0  0  0  0  0  0  0  0  0
   10.6996  -16.8251   27.1688 O   0  0  0  0  0  0  0  0  0  0  0  0
    6.4534  -14.0362   25.9155 C   0  0  0  0  0  0  0  0  0  0  0  0
    5.9623  -12.7432   25.8865 C   0  0  0  0  0  0  0  0  0  0  0  0
   10.6709  -17.9367   25.1707 N   0  0  0  0  0  0  0  0  0  0  0  0
   11.6217  -18.9521   25.6305 C   0  0  1  0  0  0  0  0  0  0  0  0
   11.0335  -20.3172   25.5841 C   0  0  0  0  0  0  0  0  0  0  0  0
   10.4675  -20.7025   26.8933 C   0  0  0  0  0  0  0  0  0  0  0  0
    9.2207  -20.9860   27.0153 O   0  0  0  0  0  0  0  0  0  0  0  0
   12.8274  -18.9178   24.7379 C   0  0  0  0  0  0  0  0  0  0  0  0
   12.9773  -18.1526   23.6230 O   0  0  0  0  0  0  0  0  0  0  0  0
   11.1953  -20.7875   28.0614 O   0  0  0  0  0  0  0  0  0  0  0  0
   13.8151  -19.6705   25.0366 O   0  0  0  0  0  0  0  0  0  0  0  0
  1  2  1  0
  2  3  2  0
  4  5  1  0
  4  2  1  0
  6  7  1  1
  6  5  1  0
  8  6  1  0
  9  8  2  0
 10 11  1  0
 11 12  2  0
 11 21  1  0
 12 13  1  0
 13 14  2  0
 14 15  1  0
 16 15  1  1
 16 17  1  0
 17  8  1  0
 18 22  1  0
 18 16  1  0
 19 18  2  0
 20 14  1  0
 21 20  2  0
 23 27  1  0
 23 22  1  0
 23 24  1  6
 25 24  1  0
 25 26  2  0
 27 28  1  0
 29 25  1  0
 30 27  2  0
M  END
$$$$
