QYD.pdb
     RDKit          3D

 30 30  0  0  1  0  0  0  0  0999 V2000
    8.2114  -13.0250   16.7067 N   0  0  0  0  0  0  0  0  0  0  0  0
    8.2751  -14.4450   16.5009 C   0  0  0  0  0  0  0  0  0  0  0  0
    8.2455  -14.8351   15.3239 O   0  0  0  0  0  0  0  0  0  0  0  0
    8.3693  -15.2754   17.7136 C   0  0  0  0  0  0  0  0  0  0  0  0
    9.6236  -15.0781   18.5168 C   0  0  0  0  0  0  0  0  0  0  0  0
    9.5941  -15.9808   19.7196 C   0  0  2  0  0  0  0  0  0  0  0  0
    8.4497  -16.8704   19.6003 N   0  0  0  0  0  0  0  0  0  0  0  0
    9.4866  -15.2515   20.9883 C   0  0  0  0  0  0  0  0  0  0  0  0
   10.3935  -14.4433   21.3041 O   0  0  0  0  0  0  0  0  0  0  0  0
    7.3838  -11.3077   28.4085 O   0  0  0  0  0  0  0  0  0  0  0  0
    7.3158  -12.0493   27.2270 C   0  0  0  0  0  0  0  0  0  0  0  0
    8.2777  -12.9915   26.9271 C   0  0  0  0  0  0  0  0  0  0  0  0
    8.1971  -13.7170   25.7552 C   0  0  0  0  0  0  0  0  0  0  0  0
    7.1644  -13.5207   24.8641 C   0  0  0  0  0  0  0  0  0  0  0  0
    7.0376  -14.2773   23.5938 C   0  0  0  0  0  0  0  0  0  0  0  0
    8.4072  -14.7489   23.1571 C   0  0  2  0  0  0  0  0  0  0  0  0
    8.3934  -15.4121   21.8956 N   0  0  0  0  0  0  0  0  0  0  0  0
    8.9381  -15.6091   24.2530 C   0  0  0  0  0  0  0  0  0  0  0  0
    8.3151  -15.8045   25.3271 O   0  0  0  0  0  0  0  0  0  0  0  0
    6.2032  -12.5813   25.1607 C   0  0  0  0  0  0  0  0  0  0  0  0
    6.2831  -11.8538   26.3347 C   0  0  0  0  0  0  0  0  0  0  0  0
   10.1924  -16.2395   24.0960 N   0  0  0  0  0  0  0  0  0  0  0  0
   10.7169  -17.1904   25.0794 C   0  0  1  0  0  0  0  0  0  0  0  0
   10.0383  -18.5103   24.9841 C   0  0  0  0  0  0  0  0  0  0  0  0
   10.5041  -19.4309   26.0416 C   0  0  0  0  0  0  0  0  0  0  0  0
   10.4279  -20.7040   25.8884 O   0  0  0  0  0  0  0  0  0  0  0  0
   12.1826  -17.3841   24.8234 C   0  0  0  0  0  0  0  0  0  0  0  0
   12.8980  -16.8323   23.8062 O   0  0  0  0  0  0  0  0  0  0  0  0
   11.0401  -19.0259   27.2457 O   0  0  0  0  0  0  0  0  0  0  0  0
   12.8365  -18.1338   25.6245 O   0  0  0  0  0  0  0  0  0  0  0  0
  1  2  1  0
  2  3  2  0
  4  5  1  0
  4  2  1  0
  6  7  1  6
  6  5  1  0
  8  6  1  0
  9  8  2  0
 10 11  1  0
 11 12  2  0
 11 21  1  0
 12 13  1  0
 13 14  2  0
 14 15  1  0
 16 15  1  1
 16 17  1  0
 17  8  1  0
 18 22  1  0
 18 16  1  0
 19 18  2  0
 20 14  1  0
 21 20  2  0
 23 27  1  0
 23 22  1  0
 23 24  1  6
 25 24  1  0
 25 26  2  0
 27 28  1  0
 29 25  1  0
 30 27  2  0
M  END
$$$$
