QYD.pdb
     RDKit          3D

 30 30  0  0  1  0  0  0  0  0999 V2000
    8.8174  -13.4147   17.1804 N   0  0  0  0  0  0  0  0  0  0  0  0
    7.8218  -14.0093   18.0278 C   0  0  0  0  0  0  0  0  0  0  0  0
    6.6681  -13.5670   17.9199 O   0  0  0  0  0  0  0  0  0  0  0  0
    8.2867  -15.0782   18.9279 C   0  0  0  0  0  0  0  0  0  0  0  0
    8.6616  -14.6207   20.3090 C   0  0  0  0  0  0  0  0  0  0  0  0
    9.0602  -15.8103   21.1387 C   0  0  2  0  0  0  0  0  0  0  0  0
    7.9335  -16.7277   21.2002 N   0  0  0  0  0  0  0  0  0  0  0  0
    9.4481  -15.4567   22.5089 C   0  0  0  0  0  0  0  0  0  0  0  0
   10.1800  -14.4541   22.6944 O   0  0  0  0  0  0  0  0  0  0  0  0
    5.9612  -10.6352   26.3548 O   0  0  0  0  0  0  0  0  0  0  0  0
    6.5000  -11.9193   26.2495 C   0  0  0  0  0  0  0  0  0  0  0  0
    5.6879  -13.0102   26.0183 C   0  0  0  0  0  0  0  0  0  0  0  0
    6.2350  -14.2737   25.9167 C   0  0  0  0  0  0  0  0  0  0  0  0
    7.5924  -14.4758   26.0421 C   0  0  0  0  0  0  0  0  0  0  0  0
    8.2235  -15.8149   25.9397 C   0  0  0  0  0  0  0  0  0  0  0  0
    9.3786  -15.7469   24.9650 C   0  0  2  0  0  0  0  0  0  0  0  0
    9.0338  -16.1994   23.6582 N   0  0  0  0  0  0  0  0  0  0  0  0
   10.4983  -16.5263   25.5663 C   0  0  0  0  0  0  0  0  0  0  0  0
   11.4451  -15.9854   26.1917 O   0  0  0  0  0  0  0  0  0  0  0  0
    8.4052  -13.3892   26.2728 C   0  0  0  0  0  0  0  0  0  0  0  0
    7.8579  -12.1228   26.3749 C   0  0  0  0  0  0  0  0  0  0  0  0
   10.5133  -17.9330   25.4383 N   0  0  0  0  0  0  0  0  0  0  0  0
   11.6172  -18.7515   25.9461 C   0  0  1  0  0  0  0  0  0  0  0  0
   11.1437  -20.0782   26.4230 C   0  0  0  0  0  0  0  0  0  0  0  0
   10.1329  -19.9353   27.4911 C   0  0  0  0  0  0  0  0  0  0  0  0
   10.3380  -19.1590   28.4937 O   0  0  0  0  0  0  0  0  0  0  0  0
   12.6050  -18.9641   24.8369 C   0  0  0  0  0  0  0  0  0  0  0  0
   13.7765  -19.6498   24.9279 O   0  0  0  0  0  0  0  0  0  0  0  0
    8.9240  -20.5981   27.5125 O   0  0  0  0  0  0  0  0  0  0  0  0
   12.3384  -18.4618   23.6932 O   0  0  0  0  0  0  0  0  0  0  0  0
  1  2  1  0
  2  3  2  0
  4  5  1  0
  4  2  1  0
  6  7  1  1
  6  5  1  0
  8  6  1  0
  9  8  2  0
 10 11  1  0
 11 12  2  0
 11 21  1  0
 12 13  1  0
 13 14  2  0
 14 15  1  0
 16 15  1  1
 16 17  1  0
 17  8  1  0
 18 22  1  0
 18 16  1  0
 19 18  2  0
 20 14  1  0
 21 20  2  0
 23 27  1  0
 23 22  1  0
 23 24  1  6
 25 24  1  0
 25 26  2  0
 27 28  1  0
 29 25  1  0
 30 27  2  0
M  END
$$$$
