QYD.pdb
     RDKit          3D

 30 30  0  0  1  0  0  0  0  0999 V2000
    8.6011  -12.5246   17.8266 N   0  0  0  0  0  0  0  0  0  0  0  0
    7.5411  -13.4542   17.5524 C   0  0  0  0  0  0  0  0  0  0  0  0
    7.2375  -13.6107   16.3600 O   0  0  0  0  0  0  0  0  0  0  0  0
    6.9366  -14.1159   18.7210 C   0  0  0  0  0  0  0  0  0  0  0  0
    7.5856  -13.7894   20.0361 C   0  0  0  0  0  0  0  0  0  0  0  0
    8.1804  -15.0396   20.6241 C   0  0  2  0  0  0  0  0  0  0  0  0
    7.1245  -16.0293   20.7669 N   0  0  0  0  0  0  0  0  0  0  0  0
    8.7978  -14.8245   21.9377 C   0  0  0  0  0  0  0  0  0  0  0  0
    9.9972  -14.4592   21.9937 O   0  0  0  0  0  0  0  0  0  0  0  0
   10.9561  -15.2032   30.3494 O   0  0  0  0  0  0  0  0  0  0  0  0
   10.2384  -15.0002   29.1687 C   0  0  0  0  0  0  0  0  0  0  0  0
   10.2273  -13.7668   28.5511 C   0  0  0  0  0  0  0  0  0  0  0  0
    9.5133  -13.5812   27.3841 C   0  0  0  0  0  0  0  0  0  0  0  0
    8.8005  -14.6126   26.8120 C   0  0  0  0  0  0  0  0  0  0  0  0
    8.0198  -14.4588   25.5594 C   0  0  0  0  0  0  0  0  0  0  0  0
    8.8178  -15.0216   24.4039 C   0  0  2  0  0  0  0  0  0  0  0  0
    8.1008  -15.0101   23.1721 N   0  0  0  0  0  0  0  0  0  0  0  0
    9.2513  -16.3908   24.8040 C   0  0  0  0  0  0  0  0  0  0  0  0
    8.4389  -17.3238   25.0267 O   0  0  0  0  0  0  0  0  0  0  0  0
    8.8097  -15.8444   27.4261 C   0  0  0  0  0  0  0  0  0  0  0  0
    9.5249  -16.0313   28.5954 C   0  0  0  0  0  0  0  0  0  0  0  0
   10.6288  -16.6706   24.9439 N   0  0  0  0  0  0  0  0  0  0  0  0
   11.1650  -18.0293   24.8306 C   0  0  1  0  0  0  0  0  0  0  0  0
   11.6761  -18.3063   23.4617 C   0  0  0  0  0  0  0  0  0  0  0  0
   13.0756  -18.7787   23.4967 C   0  0  0  0  0  0  0  0  0  0  0  0
   13.4216  -19.7611   24.2485 O   0  0  0  0  0  0  0  0  0  0  0  0
   12.2957  -18.1804   25.8054 C   0  0  0  0  0  0  0  0  0  0  0  0
   12.9007  -19.3474   26.1559 O   0  0  0  0  0  0  0  0  0  0  0  0
   14.1014  -18.2291   22.7573 O   0  0  0  0  0  0  0  0  0  0  0  0
   12.7455  -17.1261   26.3688 O   0  0  0  0  0  0  0  0  0  0  0  0
  1  2  1  0
  2  3  2  0
  4  5  1  0
  4  2  1  0
  6  7  1  1
  6  5  1  0
  8  6  1  0
  9  8  2  0
 10 11  1  0
 11 12  2  0
 11 21  1  0
 12 13  1  0
 13 14  2  0
 14 15  1  0
 16 15  1  1
 16 17  1  0
 17  8  1  0
 18 22  1  0
 18 16  1  0
 19 18  2  0
 20 14  1  0
 21 20  2  0
 23 27  1  0
 23 22  1  0
 23 24  1  6
 25 24  1  0
 25 26  2  0
 27 28  1  0
 29 25  1  0
 30 27  2  0
M  END
$$$$
