QYD.pdb
     RDKit          3D

 30 30  0  0  1  0  0  0  0  0999 V2000
    6.7766  -19.7521   18.1847 N   0  0  0  0  0  0  0  0  0  0  0  0
    8.0216  -19.0361   18.1737 C   0  0  0  0  0  0  0  0  0  0  0  0
    9.0232  -19.6741   17.8157 O   0  0  0  0  0  0  0  0  0  0  0  0
    7.9646  -17.6242   18.5887 C   0  0  0  0  0  0  0  0  0  0  0  0
    8.6737  -17.3167   19.8771 C   0  0  0  0  0  0  0  0  0  0  0  0
    8.4172  -15.8848   20.2595 C   0  0  2  0  0  0  0  0  0  0  0  0
    9.0055  -15.0245   19.2452 N   0  0  0  0  0  0  0  0  0  0  0  0
    8.9850  -15.5232   21.5633 C   0  0  0  0  0  0  0  0  0  0  0  0
   10.2020  -15.2248   21.6351 O   0  0  0  0  0  0  0  0  0  0  0  0
   10.7696  -14.2925   29.9772 O   0  0  0  0  0  0  0  0  0  0  0  0
   10.0760  -14.3886   28.7689 C   0  0  0  0  0  0  0  0  0  0  0  0
   10.0429  -13.3289   27.8863 C   0  0  0  0  0  0  0  0  0  0  0  0
    9.3530  -13.4387   26.6955 C   0  0  0  0  0  0  0  0  0  0  0  0
    8.6866  -14.5975   26.3611 C   0  0  0  0  0  0  0  0  0  0  0  0
    7.9332  -14.7601   25.0929 C   0  0  0  0  0  0  0  0  0  0  0  0
    8.8677  -15.2797   24.0226 C   0  0  2  0  0  0  0  0  0  0  0  0
    8.2200  -15.4914   22.7707 N   0  0  0  0  0  0  0  0  0  0  0  0
    9.4957  -16.5198   24.5618 C   0  0  0  0  0  0  0  0  0  0  0  0
    8.8482  -17.5782   24.7632 O   0  0  0  0  0  0  0  0  0  0  0  0
    8.7178  -15.6565   27.2398 C   0  0  0  0  0  0  0  0  0  0  0  0
    9.4087  -15.5475   28.4333 C   0  0  0  0  0  0  0  0  0  0  0  0
   10.8753  -16.5249   24.8651 N   0  0  0  0  0  0  0  0  0  0  0  0
   11.5640  -17.7241   25.3488 C   0  0  1  0  0  0  0  0  0  0  0  0
   13.0045  -17.7175   24.9790 C   0  0  0  0  0  0  0  0  0  0  0  0
   13.1845  -17.8542   23.5190 C   0  0  0  0  0  0  0  0  0  0  0  0
   12.2909  -18.4261   22.7948 O   0  0  0  0  0  0  0  0  0  0  0  0
   11.4520  -17.7699   26.8443 C   0  0  0  0  0  0  0  0  0  0  0  0
   11.2779  -16.7010   27.6678 O   0  0  0  0  0  0  0  0  0  0  0  0
   14.2865  -17.4016   22.8247 O   0  0  0  0  0  0  0  0  0  0  0  0
   11.5246  -18.9100   27.4156 O   0  0  0  0  0  0  0  0  0  0  0  0
  1  2  1  0
  2  3  2  0
  4  5  1  0
  4  2  1  0
  6  7  1  6
  6  5  1  0
  8  6  1  0
  9  8  2  0
 10 11  1  0
 11 12  2  0
 11 21  1  0
 12 13  1  0
 13 14  2  0
 14 15  1  0
 16 15  1  1
 16 17  1  0
 17  8  1  0
 18 22  1  0
 18 16  1  0
 19 18  2  0
 20 14  1  0
 21 20  2  0
 23 27  1  0
 23 22  1  0
 23 24  1  1
 25 24  1  0
 25 26  2  0
 27 28  1  0
 29 25  1  0
 30 27  2  0
M  END
$$$$
