QYD.pdb
     RDKit          3D

 30 30  0  0  1  0  0  0  0  0999 V2000
    8.2879  -12.7721   16.5714 N   0  0  0  0  0  0  0  0  0  0  0  0
    8.2668  -14.0881   15.9966 C   0  0  0  0  0  0  0  0  0  0  0  0
    7.7435  -14.1943   14.8771 O   0  0  0  0  0  0  0  0  0  0  0  0
    8.8711  -15.1613   16.8041 C   0  0  0  0  0  0  0  0  0  0  0  0
    9.4515  -14.7130   18.1153 C   0  0  0  0  0  0  0  0  0  0  0  0
    9.3190  -15.8198   19.1252 C   0  0  2  0  0  0  0  0  0  0  0  0
    8.1088  -16.5704   18.8302 N   0  0  0  0  0  0  0  0  0  0  0  0
    9.2409  -15.3354   20.5081 C   0  0  0  0  0  0  0  0  0  0  0  0
   10.2104  -14.6962   20.9844 O   0  0  0  0  0  0  0  0  0  0  0  0
    7.2905  -12.2851   28.3062 O   0  0  0  0  0  0  0  0  0  0  0  0
    7.1505  -12.8765   27.0488 C   0  0  0  0  0  0  0  0  0  0  0  0
    6.6337  -14.1489   26.9194 C   0  0  0  0  0  0  0  0  0  0  0  0
    6.5013  -14.7206   25.6697 C   0  0  0  0  0  0  0  0  0  0  0  0
    6.8780  -14.0419   24.5310 C   0  0  0  0  0  0  0  0  0  0  0  0
    6.7533  -14.6166   23.1685 C   0  0  0  0  0  0  0  0  0  0  0  0
    8.1153  -15.0756   22.6960 C   0  0  2  0  0  0  0  0  0  0  0  0
    8.1086  -15.5536   21.3532 N   0  0  0  0  0  0  0  0  0  0  0  0
    8.5873  -16.1018   23.6690 C   0  0  0  0  0  0  0  0  0  0  0  0
    7.9571  -17.1656   23.8955 O   0  0  0  0  0  0  0  0  0  0  0  0
    7.3940  -12.7721   24.6570 C   0  0  0  0  0  0  0  0  0  0  0  0
    7.5270  -12.1985   25.9088 C   0  0  0  0  0  0  0  0  0  0  0  0
    9.7913  -15.8874   24.3760 N   0  0  0  0  0  0  0  0  0  0  0  0
   10.3802  -16.9106   25.2436 C   0  0  1  0  0  0  0  0  0  0  0  0
   11.8635  -16.8112   25.2825 C   0  0  0  0  0  0  0  0  0  0  0  0
   12.4438  -16.9115   23.9275 C   0  0  0  0  0  0  0  0  0  0  0  0
   13.2557  -16.0175   23.4897 O   0  0  0  0  0  0  0  0  0  0  0  0
    9.8494  -16.7220   26.6344 C   0  0  0  0  0  0  0  0  0  0  0  0
    9.7466  -17.6848   27.5901 O   0  0  0  0  0  0  0  0  0  0  0  0
   12.1764  -17.9321   23.0397 O   0  0  0  0  0  0  0  0  0  0  0  0
    9.4521  -15.5556   26.9706 O   0  0  0  0  0  0  0  0  0  0  0  0
  1  2  1  0
  2  3  2  0
  4  5  1  0
  4  2  1  0
  6  7  1  6
  6  5  1  0
  8  6  1  0
  9  8  2  0
 10 11  1  0
 11 12  2  0
 11 21  1  0
 12 13  1  0
 13 14  2  0
 14 15  1  0
 16 15  1  1
 16 17  1  0
 17  8  1  0
 18 22  1  0
 18 16  1  0
 19 18  2  0
 20 14  1  0
 21 20  2  0
 23 27  1  0
 23 22  1  0
 23 24  1  1
 25 24  1  0
 25 26  2  0
 27 28  1  0
 29 25  1  0
 30 27  2  0
M  END
$$$$
