QYD.pdb
     RDKit          3D

 30 30  0  0  1  0  0  0  0  0999 V2000
    8.6846  -12.7486   16.0926 N   0  0  0  0  0  0  0  0  0  0  0  0
    8.1962  -14.0817   15.8751 C   0  0  0  0  0  0  0  0  0  0  0  0
    7.5669  -14.2755   14.8241 O   0  0  0  0  0  0  0  0  0  0  0  0
    8.5006  -15.0665   16.9270 C   0  0  0  0  0  0  0  0  0  0  0  0
    9.2253  -14.5110   18.1201 C   0  0  0  0  0  0  0  0  0  0  0  0
    9.4518  -15.6088   19.1231 C   0  0  2  0  0  0  0  0  0  0  0  0
    8.4032  -16.6036   18.9623 N   0  0  0  0  0  0  0  0  0  0  0  0
    9.4362  -15.1361   20.5121 C   0  0  0  0  0  0  0  0  0  0  0  0
   10.3464  -14.3651   20.9025 O   0  0  0  0  0  0  0  0  0  0  0  0
    7.1509  -11.7568   28.1168 O   0  0  0  0  0  0  0  0  0  0  0  0
    7.1202  -12.4330   26.8953 C   0  0  0  0  0  0  0  0  0  0  0  0
    7.7085  -11.8904   25.7717 C   0  0  0  0  0  0  0  0  0  0  0  0
    7.6701  -12.5706   24.5709 C   0  0  0  0  0  0  0  0  0  0  0  0
    7.0496  -13.7965   24.4647 C   0  0  0  0  0  0  0  0  0  0  0  0
    6.9844  -14.5627   23.1955 C   0  0  0  0  0  0  0  0  0  0  0  0
    8.3893  -14.8912   22.7404 C   0  0  2  0  0  0  0  0  0  0  0  0
    8.4301  -15.5094   21.4568 N   0  0  0  0  0  0  0  0  0  0  0  0
    9.0023  -15.7360   23.8050 C   0  0  0  0  0  0  0  0  0  0  0  0
    8.9132  -15.4602   25.0281 O   0  0  0  0  0  0  0  0  0  0  0  0
    6.4617  -14.3403   25.5841 C   0  0  0  0  0  0  0  0  0  0  0  0
    6.4996  -13.6595   26.7878 C   0  0  0  0  0  0  0  0  0  0  0  0
    9.7174  -16.8993   23.4434 N   0  0  0  0  0  0  0  0  0  0  0  0
   10.3485  -17.7690   24.4393 C   0  0  1  0  0  0  0  0  0  0  0  0
   10.7430  -19.0783   23.8546 C   0  0  0  0  0  0  0  0  0  0  0  0
    9.6099  -19.7162   23.1532 C   0  0  0  0  0  0  0  0  0  0  0  0
    8.4467  -19.1714   23.1473 O   0  0  0  0  0  0  0  0  0  0  0  0
   11.5782  -17.0855   24.9609 C   0  0  0  0  0  0  0  0  0  0  0  0
   12.3570  -17.5140   25.9909 O   0  0  0  0  0  0  0  0  0  0  0  0
    9.6909  -20.9105   22.4689 O   0  0  0  0  0  0  0  0  0  0  0  0
   11.9435  -15.9988   24.3981 O   0  0  0  0  0  0  0  0  0  0  0  0
  1  2  1  0
  2  3  2  0
  4  5  1  0
  4  2  1  0
  6  7  1  1
  6  5  1  0
  8  6  1  0
  9  8  2  0
 10 11  1  0
 11 12  2  0
 11 21  1  0
 12 13  1  0
 13 14  2  0
 14 15  1  0
 16 15  1  1
 16 17  1  0
 17  8  1  0
 18 22  1  0
 18 16  1  0
 19 18  2  0
 20 14  1  0
 21 20  2  0
 23 27  1  0
 23 22  1  0
 23 24  1  6
 25 24  1  0
 25 26  2  0
 27 28  1  0
 29 25  1  0
 30 27  2  0
M  END
$$$$
