QYD.pdb
     RDKit          3D

 30 30  0  0  1  0  0  0  0  0999 V2000
    8.7420  -12.5061   18.0054 N   0  0  0  0  0  0  0  0  0  0  0  0
    7.9325  -13.6612   17.7345 C   0  0  0  0  0  0  0  0  0  0  0  0
    7.5406  -13.8001   16.5660 O   0  0  0  0  0  0  0  0  0  0  0  0
    7.6616  -14.5493   18.8777 C   0  0  0  0  0  0  0  0  0  0  0  0
    8.2835  -14.1151   20.1746 C   0  0  0  0  0  0  0  0  0  0  0  0
    8.8342  -15.3169   20.8920 C   0  0  2  0  0  0  0  0  0  0  0  0
    7.8358  -16.3736   20.8544 N   0  0  0  0  0  0  0  0  0  0  0  0
    9.1753  -15.0483   22.2937 C   0  0  0  0  0  0  0  0  0  0  0  0
    9.9578  -14.1035   22.5591 O   0  0  0  0  0  0  0  0  0  0  0  0
    5.7094  -10.1956   26.2572 O   0  0  0  0  0  0  0  0  0  0  0  0
    6.2272  -11.4844   26.1114 C   0  0  0  0  0  0  0  0  0  0  0  0
    7.4994  -11.7891   26.5491 C   0  0  0  0  0  0  0  0  0  0  0  0
    7.9978  -13.0677   26.3981 C   0  0  0  0  0  0  0  0  0  0  0  0
    7.2451  -14.0624   25.8124 C   0  0  0  0  0  0  0  0  0  0  0  0
    7.7396  -15.4496   25.6300 C   0  0  0  0  0  0  0  0  0  0  0  0
    8.9542  -15.4300   24.7282 C   0  0  2  0  0  0  0  0  0  0  0  0
    8.6600  -15.8120   23.3869 N   0  0  0  0  0  0  0  0  0  0  0  0
    9.9790  -16.3066   25.3639 C   0  0  0  0  0  0  0  0  0  0  0  0
   10.0288  -16.5063   26.6040 O   0  0  0  0  0  0  0  0  0  0  0  0
    5.9753  -13.7613   25.3746 C   0  0  0  0  0  0  0  0  0  0  0  0
    5.4751  -12.4804   25.5255 C   0  0  0  0  0  0  0  0  0  0  0  0
   10.9430  -16.9483   24.5551 N   0  0  0  0  0  0  0  0  0  0  0  0
   11.8334  -17.9879   25.0773 C   0  0  1  0  0  0  0  0  0  0  0  0
   11.1264  -19.2860   25.2407 C   0  0  0  0  0  0  0  0  0  0  0  0
   11.2648  -19.8030   26.6178 C   0  0  0  0  0  0  0  0  0  0  0  0
   11.0195  -19.0534   27.6316 O   0  0  0  0  0  0  0  0  0  0  0  0
   12.9670  -18.1762   24.1125 C   0  0  0  0  0  0  0  0  0  0  0  0
   13.0276  -17.6905   22.8431 O   0  0  0  0  0  0  0  0  0  0  0  0
   11.6578  -21.0869   26.9315 O   0  0  0  0  0  0  0  0  0  0  0  0
   13.9780  -18.8528   24.5013 O   0  0  0  0  0  0  0  0  0  0  0  0
  1  2  1  0
  2  3  2  0
  4  5  1  0
  4  2  1  0
  6  7  1  1
  6  5  1  0
  8  6  1  0
  9  8  2  0
 10 11  1  0
 11 12  2  0
 11 21  1  0
 12 13  1  0
 13 14  2  0
 14 15  1  0
 16 15  1  1
 16 17  1  0
 17  8  1  0
 18 22  1  0
 18 16  1  0
 19 18  2  0
 20 14  1  0
 21 20  2  0
 23 27  1  0
 23 22  1  0
 23 24  1  6
 25 24  1  0
 25 26  2  0
 27 28  1  0
 29 25  1  0
 30 27  2  0
M  END
$$$$
