QYD.pdb
     RDKit          3D

 30 30  0  0  1  0  0  0  0  0999 V2000
   11.2023  -19.2046   17.0167 N   0  0  0  0  0  0  0  0  0  0  0  0
   11.9848  -18.8820   18.1772 C   0  0  0  0  0  0  0  0  0  0  0  0
   13.0024  -18.1993   17.9856 O   0  0  0  0  0  0  0  0  0  0  0  0
   11.4868  -19.3995   19.4629 C   0  0  0  0  0  0  0  0  0  0  0  0
   11.3346  -18.3655   20.5422 C   0  0  0  0  0  0  0  0  0  0  0  0
   10.0904  -17.5589   20.2900 C   0  0  2  0  0  0  0  0  0  0  0  0
   10.2200  -16.9035   18.9982 N   0  0  0  0  0  0  0  0  0  0  0  0
    9.8488  -16.5327   21.3106 C   0  0  0  0  0  0  0  0  0  0  0  0
   10.6934  -15.6171   21.4645 O   0  0  0  0  0  0  0  0  0  0  0  0
    6.8274  -11.6163   27.8459 O   0  0  0  0  0  0  0  0  0  0  0  0
    6.9018  -12.4777   26.7491 C   0  0  0  0  0  0  0  0  0  0  0  0
    7.3640  -12.0304   25.5288 C   0  0  0  0  0  0  0  0  0  0  0  0
    7.4319  -12.8936   24.4534 C   0  0  0  0  0  0  0  0  0  0  0  0
    7.0438  -14.2107   24.5701 C   0  0  0  0  0  0  0  0  0  0  0  0
    7.1000  -15.1734   23.4422 C   0  0  0  0  0  0  0  0  0  0  0  0
    8.5451  -15.5119   23.1489 C   0  0  2  0  0  0  0  0  0  0  0  0
    8.6912  -16.5176   22.1495 N   0  0  0  0  0  0  0  0  0  0  0  0
    9.1711  -15.8957   24.4464 C   0  0  0  0  0  0  0  0  0  0  0  0
    9.2404  -15.1119   25.4268 O   0  0  0  0  0  0  0  0  0  0  0  0
    6.5822  -14.6599   25.7866 C   0  0  0  0  0  0  0  0  0  0  0  0
    6.5138  -13.7957   26.8646 C   0  0  0  0  0  0  0  0  0  0  0  0
    9.7150  -17.1903   24.5997 N   0  0  0  0  0  0  0  0  0  0  0  0
   10.3671  -17.6217   25.8387 C   0  0  1  0  0  0  0  0  0  0  0  0
    9.7104  -18.8249   26.4155 C   0  0  0  0  0  0  0  0  0  0  0  0
    9.1037  -18.5273   27.7294 C   0  0  0  0  0  0  0  0  0  0  0  0
    9.2756  -17.3854   28.2919 O   0  0  0  0  0  0  0  0  0  0  0  0
   11.7984  -17.9543   25.5354 C   0  0  0  0  0  0  0  0  0  0  0  0
   12.7401  -17.0905   25.0684 O   0  0  0  0  0  0  0  0  0  0  0  0
    8.3295  -19.4136   28.4480 O   0  0  0  0  0  0  0  0  0  0  0  0
   12.1876  -19.1556   25.7273 O   0  0  0  0  0  0  0  0  0  0  0  0
  1  2  1  0
  2  3  2  0
  4  5  1  0
  4  2  1  0
  6  7  1  6
  6  5  1  0
  8  6  1  0
  9  8  2  0
 10 11  1  0
 11 12  2  0
 11 21  1  0
 12 13  1  0
 13 14  2  0
 14 15  1  0
 16 15  1  1
 16 17  1  0
 17  8  1  0
 18 22  1  0
 18 16  1  0
 19 18  2  0
 20 14  1  0
 21 20  2  0
 23 27  1  0
 23 22  1  0
 23 24  1  6
 25 24  1  0
 25 26  2  0
 27 28  1  0
 29 25  1  0
 30 27  2  0
M  END
$$$$
