YFQ.pdb
     RDKit          3D

 33 34  0  0  1  0  0  0  0  0999 V2000
    8.1098  -14.8777   13.7738 O   0  0  0  0  0  0  0  0  0  0  0  0
    8.3636  -14.6204   15.1089 C   0  0  0  0  0  0  0  0  0  0  0  0
    7.6111  -13.7216   15.8033 C   0  0  0  0  0  0  0  0  0  0  0  0
    7.9008  -13.4959   17.1364 C   0  0  0  0  0  0  0  0  0  0  0  0
    8.9319  -14.1621   17.7681 C   0  0  0  0  0  0  0  0  0  0  0  0
    9.1873  -13.8709   19.2006 C   0  0  0  0  0  0  0  0  0  0  0  0
    9.2635  -15.1948   19.9335 C   0  0  2  0  0  0  0  0  0  0  0  0
    8.0033  -15.8797   19.7484 N   0  0  0  0  0  0  0  0  0  0  0  0
    9.4700  -14.8651   21.3797 C   0  0  0  0  0  0  0  0  0  0  0  0
   10.5102  -14.3427   21.8114 O   0  0  0  0  0  0  0  0  0  0  0  0
    9.6828  -15.0679   17.0502 C   0  0  0  0  0  0  0  0  0  0  0  0
    9.4027  -15.2976   15.7288 C   0  0  0  0  0  0  0  0  0  0  0  0
    8.4396  -15.1603   22.2895 N   0  0  0  0  0  0  0  0  0  0  0  0
    8.4977  -14.7552   23.7045 C   0  0  1  0  0  0  0  0  0  0  0  0
    7.1525  -14.1192   23.9712 C   0  0  0  0  0  0  0  0  0  0  0  0
    7.0255  -13.5723   25.3214 C   0  0  0  0  0  0  0  0  0  0  0  0
    7.6750  -12.4316   25.7568 C   0  0  0  0  0  0  0  0  0  0  0  0
    7.5259  -11.9453   27.0321 C   0  0  0  0  0  0  0  0  0  0  0  0
    6.7139  -12.5826   27.9388 C   0  0  0  0  0  0  0  0  0  0  0  0
    6.0538  -13.7218   27.5343 C   0  0  0  0  0  0  0  0  0  0  0  0
    6.2067  -14.2020   26.2600 C   0  0  0  0  0  0  0  0  0  0  0  0
    8.7057  -15.9413   24.5680 C   0  0  0  0  0  0  0  0  0  0  0  0
    7.8659  -16.8792   24.4554 O   0  0  0  0  0  0  0  0  0  0  0  0
   10.7097  -20.6268   24.6522 N   0  0  0  0  0  0  0  0  0  0  0  0
   11.2056  -19.5249   23.9212 C   0  0  0  0  0  0  0  0  0  0  0  0
   11.5658  -19.6782   22.6984 O   0  0  0  0  0  0  0  0  0  0  0  0
   11.3385  -18.1632   24.4770 C   0  0  0  0  0  0  0  0  0  0  0  0
   11.0948  -18.0107   25.9208 C   0  0  0  0  0  0  0  0  0  0  0  0
    9.8431  -17.2972   26.3343 C   0  0  2  0  0  0  0  0  0  0  0  0
    9.7548  -16.0805   25.4810 N   0  0  0  0  0  0  0  0  0  0  0  0
    9.6709  -16.9783   27.7245 C   0  0  0  0  0  0  0  0  0  0  0  0
    9.4037  -17.9717   28.6758 O   0  0  0  0  0  0  0  0  0  0  0  0
    9.7496  -15.8087   28.1566 O   0  0  0  0  0  0  0  0  0  0  0  0
  2  1  1  0
  3  2  2  0
  4  3  1  0
  5  4  2  0
  5 11  1  0
  6  7  1  0
  6  5  1  0
  7  8  1  1
  9  7  1  0
  9 13  1  0
 10  9  2  0
 11 12  2  0
 12  2  1  0
 13 14  1  0
 15 16  1  0
 14 15  1  1
 16 17  2  0
 17 18  1  0
 19 18  2  0
 20 21  2  0
 20 19  1  0
 21 16  1  0
 22 23  2  0
 22 14  1  0
 24 25  1  0
 25 27  1  0
 26 25  2  0
 27 28  1  0
 29 28  1  1
 29 30  1  0
 29 31  1  0
 30 22  1  0
 31 32  1  0
 33 31  2  0
M  END
$$$$
