YFQ.pdb
     RDKit          3D

 33 34  0  0  1  0  0  0  0  0999 V2000
    8.0000  -13.8730   15.1678 O   0  0  0  0  0  0  0  0  0  0  0  0
    8.6250  -13.9973   16.3955 C   0  0  0  0  0  0  0  0  0  0  0  0
    8.5830  -12.9859   17.3074 C   0  0  0  0  0  0  0  0  0  0  0  0
    9.2220  -13.1541   18.5220 C   0  0  0  0  0  0  0  0  0  0  0  0
    9.8958  -14.3214   18.8213 C   0  0  0  0  0  0  0  0  0  0  0  0
   10.5596  -14.4338   20.1437 C   0  0  0  0  0  0  0  0  0  0  0  0
    9.9233  -15.5941   20.8815 C   0  0  2  0  0  0  0  0  0  0  0  0
    8.5823  -15.7668   20.3684 N   0  0  0  0  0  0  0  0  0  0  0  0
    9.8821  -15.2035   22.3267 C   0  0  0  0  0  0  0  0  0  0  0  0
   10.9020  -14.9460   22.9860 O   0  0  0  0  0  0  0  0  0  0  0  0
    9.9281  -15.3341   17.8869 C   0  0  0  0  0  0  0  0  0  0  0  0
    9.2975  -15.1758   16.6808 C   0  0  0  0  0  0  0  0  0  0  0  0
    8.6323  -15.1246   22.9656 N   0  0  0  0  0  0  0  0  0  0  0  0
    8.4693  -14.5431   24.3091 C   0  0  1  0  0  0  0  0  0  0  0  0
    7.1597  -13.7911   24.2391 C   0  0  0  0  0  0  0  0  0  0  0  0
    6.8839  -12.9918   25.4322 C   0  0  0  0  0  0  0  0  0  0  0  0
    5.9065  -13.3015   26.3603 C   0  0  0  0  0  0  0  0  0  0  0  0
    5.6810  -12.5286   27.4724 C   0  0  0  0  0  0  0  0  0  0  0  0
    6.4285  -11.4006   27.7099 C   0  0  0  0  0  0  0  0  0  0  0  0
    7.4098  -11.0661   26.8029 C   0  0  0  0  0  0  0  0  0  0  0  0
    7.6299  -11.8419   25.6949 C   0  0  0  0  0  0  0  0  0  0  0  0
    8.4118  -15.6175   25.3279 C   0  0  0  0  0  0  0  0  0  0  0  0
    8.1491  -15.2626   26.5123 O   0  0  0  0  0  0  0  0  0  0  0  0
    5.5923  -20.4352   26.7699 N   0  0  0  0  0  0  0  0  0  0  0  0
    6.8695  -20.9258   27.1204 C   0  0  0  0  0  0  0  0  0  0  0  0
    6.9746  -21.9083   27.9402 O   0  0  0  0  0  0  0  0  0  0  0  0
    8.1339  -20.3772   26.5903 C   0  0  0  0  0  0  0  0  0  0  0  0
    8.0299  -19.1895   25.7268 C   0  0  0  0  0  0  0  0  0  0  0  0
    8.7301  -17.9452   26.1833 C   0  0  2  0  0  0  0  0  0  0  0  0
    8.6269  -16.9725   25.0612 N   0  0  0  0  0  0  0  0  0  0  0  0
   10.0818  -18.0614   26.6562 C   0  0  0  0  0  0  0  0  0  0  0  0
   11.1731  -17.7296   25.8424 O   0  0  0  0  0  0  0  0  0  0  0  0
   10.3549  -18.4608   27.8080 O   0  0  0  0  0  0  0  0  0  0  0  0
  2  1  1  0
  3  2  2  0
  4  3  1  0
  5  4  2  0
  5 11  1  0
  6  7  1  0
  6  5  1  0
  7  8  1  6
  9  7  1  0
  9 13  1  0
 10  9  2  0
 11 12  2  0
 12  2  1  0
 13 14  1  0
 15 16  1  0
 14 15  1  6
 16 17  2  0
 17 18  1  0
 19 18  2  0
 20 21  2  0
 20 19  1  0
 21 16  1  0
 22 23  2  0
 22 14  1  0
 24 25  1  0
 25 27  1  0
 26 25  2  0
 27 28  1  0
 29 28  1  6
 29 30  1  0
 29 31  1  0
 30 22  1  0
 31 32  1  0
 33 31  2  0
M  END
$$$$
