YFQ.pdb
     RDKit          3D

 33 34  0  0  1  0  0  0  0  0999 V2000
   10.6364  -13.8320   30.4784 O   0  0  0  0  0  0  0  0  0  0  0  0
   10.3361  -14.8013   29.5384 C   0  0  0  0  0  0  0  0  0  0  0  0
   10.4571  -16.1254   29.8358 C   0  0  0  0  0  0  0  0  0  0  0  0
   10.1460  -17.0596   28.8651 C   0  0  0  0  0  0  0  0  0  0  0  0
    9.7186  -16.6736   27.6103 C   0  0  0  0  0  0  0  0  0  0  0  0
    9.4021  -17.7296   26.6169 C   0  0  0  0  0  0  0  0  0  0  0  0
    7.9068  -17.7010   26.3745 C   0  0  2  0  0  0  0  0  0  0  0  0
    7.3828  -19.0168   26.6671 N   0  0  0  0  0  0  0  0  0  0  0  0
    7.7207  -17.3766   24.9243 C   0  0  0  0  0  0  0  0  0  0  0  0
    7.5000  -18.2417   24.0617 O   0  0  0  0  0  0  0  0  0  0  0  0
    9.6020  -15.3299   27.3269 C   0  0  0  0  0  0  0  0  0  0  0  0
    9.9082  -14.3974   28.2829 C   0  0  0  0  0  0  0  0  0  0  0  0
    7.7993  -16.0319   24.5215 N   0  0  0  0  0  0  0  0  0  0  0  0
    7.7045  -15.6256   23.1088 C   0  0  1  0  0  0  0  0  0  0  0  0
    7.8121  -14.1181   23.1411 C   0  0  0  0  0  0  0  0  0  0  0  0
    7.6436  -13.4950   21.8289 C   0  0  0  0  0  0  0  0  0  0  0  0
    6.6818  -13.8760   20.9111 C   0  0  0  0  0  0  0  0  0  0  0  0
    6.5509  -13.2623   19.6898 C   0  0  0  0  0  0  0  0  0  0  0  0
    7.3827  -12.2309   19.3267 C   0  0  0  0  0  0  0  0  0  0  0  0
    8.3510  -11.8292   20.2202 C   0  0  0  0  0  0  0  0  0  0  0  0
    8.4764  -12.4457   21.4376 C   0  0  0  0  0  0  0  0  0  0  0  0
    8.8149  -16.2215   22.3295 C   0  0  0  0  0  0  0  0  0  0  0  0
    8.5010  -16.8204   21.2616 O   0  0  0  0  0  0  0  0  0  0  0  0
   12.0872  -14.0258   17.9686 N   0  0  0  0  0  0  0  0  0  0  0  0
   12.8049  -14.4737   19.0995 C   0  0  0  0  0  0  0  0  0  0  0  0
   14.0489  -14.7723   18.9908 O   0  0  0  0  0  0  0  0  0  0  0  0
   12.2108  -14.6225   20.4432 C   0  0  0  0  0  0  0  0  0  0  0  0
   11.1285  -15.6104   20.5832 C   0  0  0  0  0  0  0  0  0  0  0  0
   11.2179  -16.5687   21.7323 C   0  0  2  0  0  0  0  0  0  0  0  0
   10.1615  -16.1612   22.6989 N   0  0  0  0  0  0  0  0  0  0  0  0
   12.4891  -16.7341   22.3811 C   0  0  0  0  0  0  0  0  0  0  0  0
   13.1762  -15.6451   22.9335 O   0  0  0  0  0  0  0  0  0  0  0  0
   13.0455  -17.8476   22.4870 O   0  0  0  0  0  0  0  0  0  0  0  0
  2  1  1  0
  3  2  2  0
  4  3  1  0
  5  4  2  0
  5 11  1  0
  6  7  1  0
  6  5  1  0
  7  8  1  6
  9  7  1  0
  9 13  1  0
 10  9  2  0
 11 12  2  0
 12  2  1  0
 13 14  1  0
 15 16  1  0
 14 15  1  1
 16 17  2  0
 17 18  1  0
 19 18  2  0
 20 21  2  0
 20 19  1  0
 21 16  1  0
 22 23  2  0
 22 14  1  0
 24 25  1  0
 25 27  1  0
 26 25  2  0
 27 28  1  0
 29 28  1  6
 29 30  1  0
 29 31  1  0
 30 22  1  0
 31 32  1  0
 33 31  2  0
M  END
$$$$
