YFQ.pdb
     RDKit          3D

 33 34  0  0  1  0  0  0  0  0999 V2000
    7.1857  -21.2291   15.8283 O   0  0  0  0  0  0  0  0  0  0  0  0
    7.6466  -20.5341   16.9319 C   0  0  0  0  0  0  0  0  0  0  0  0
    8.9817  -20.4186   17.1781 C   0  0  0  0  0  0  0  0  0  0  0  0
    9.3971  -19.7146   18.2933 C   0  0  0  0  0  0  0  0  0  0  0  0
    8.4870  -19.1324   19.1529 C   0  0  0  0  0  0  0  0  0  0  0  0
    9.0029  -18.3917   20.3308 C   0  0  0  0  0  0  0  0  0  0  0  0
    9.1010  -16.9289   19.9485 C   0  0  2  0  0  0  0  0  0  0  0  0
   10.1881  -16.7868   19.0054 N   0  0  0  0  0  0  0  0  0  0  0  0
    9.4051  -16.1825   21.2107 C   0  0  0  0  0  0  0  0  0  0  0  0
   10.5568  -16.0462   21.6539 O   0  0  0  0  0  0  0  0  0  0  0  0
    7.1403  -19.2593   18.8883 C   0  0  0  0  0  0  0  0  0  0  0  0
    6.7199  -19.9552   17.7855 C   0  0  0  0  0  0  0  0  0  0  0  0
    8.3387  -15.6103   21.9261 N   0  0  0  0  0  0  0  0  0  0  0  0
    8.5343  -14.9126   23.2086 C   0  0  1  0  0  0  0  0  0  0  0  0
    7.2672  -14.1106   23.3997 C   0  0  0  0  0  0  0  0  0  0  0  0
    7.1858  -13.4546   24.7041 C   0  0  0  0  0  0  0  0  0  0  0  0
    6.2656  -13.7892   25.6807 C   0  0  0  0  0  0  0  0  0  0  0  0
    6.2240  -13.1531   26.8968 C   0  0  0  0  0  0  0  0  0  0  0  0
    7.1079  -12.1445   27.1951 C   0  0  0  0  0  0  0  0  0  0  0  0
    8.0364  -11.7886   26.2419 C   0  0  0  0  0  0  0  0  0  0  0  0
    8.0728  -12.4274   25.0301 C   0  0  0  0  0  0  0  0  0  0  0  0
    8.7122  -15.8951   24.3034 C   0  0  0  0  0  0  0  0  0  0  0  0
    7.7382  -16.6660   24.5375 O   0  0  0  0  0  0  0  0  0  0  0  0
   14.3795  -17.5482   24.0009 N   0  0  0  0  0  0  0  0  0  0  0  0
   13.0622  -17.9756   24.2778 C   0  0  0  0  0  0  0  0  0  0  0  0
   12.4168  -18.6644   23.4075 O   0  0  0  0  0  0  0  0  0  0  0  0
   12.3522  -17.6839   25.5394 C   0  0  0  0  0  0  0  0  0  0  0  0
   10.9383  -18.0871   25.6121 C   0  0  0  0  0  0  0  0  0  0  0  0
    9.9602  -17.0722   26.1223 C   0  0  2  0  0  0  0  0  0  0  0  0
    9.8702  -16.0166   25.0764 N   0  0  0  0  0  0  0  0  0  0  0  0
   10.1860  -16.5059   27.4233 C   0  0  0  0  0  0  0  0  0  0  0  0
   11.4388  -15.9998   27.7940 O   0  0  0  0  0  0  0  0  0  0  0  0
    9.2857  -16.4345   28.2865 O   0  0  0  0  0  0  0  0  0  0  0  0
  2  1  1  0
  3  2  2  0
  4  3  1  0
  5  4  2  0
  5 11  1  0
  6  7  1  0
  6  5  1  0
  7  8  1  6
  9  7  1  0
  9 13  1  0
 10  9  2  0
 11 12  2  0
 12  2  1  0
 13 14  1  0
 15 16  1  0
 14 15  1  1
 16 17  2  0
 17 18  1  0
 19 18  2  0
 20 21  2  0
 20 19  1  0
 21 16  1  0
 22 23  2  0
 22 14  1  0
 24 25  1  0
 25 27  1  0
 26 25  2  0
 27 28  1  0
 29 28  1  6
 29 30  1  0
 29 31  1  0
 30 22  1  0
 31 32  1  0
 33 31  2  0
M  END
$$$$
