YFQ.pdb
     RDKit          3D

 33 34  0  0  1  0  0  0  0  0999 V2000
    6.0472  -12.3707   18.1277 O   0  0  0  0  0  0  0  0  0  0  0  0
    7.1253  -13.1276   18.5497 C   0  0  0  0  0  0  0  0  0  0  0  0
    7.4117  -14.3241   17.9643 C   0  0  0  0  0  0  0  0  0  0  0  0
    8.4994  -15.0470   18.4186 C   0  0  0  0  0  0  0  0  0  0  0  0
    9.2920  -14.5781   19.4472 C   0  0  0  0  0  0  0  0  0  0  0  0
   10.4433  -15.4060   19.8845 C   0  0  0  0  0  0  0  0  0  0  0  0
    9.9096  -16.4938   20.7940 C   0  0  2  0  0  0  0  0  0  0  0  0
    8.4694  -16.3695   20.8398 N   0  0  0  0  0  0  0  0  0  0  0  0
   10.4979  -16.2384   22.1474 C   0  0  0  0  0  0  0  0  0  0  0  0
   11.7205  -16.2361   22.3628 O   0  0  0  0  0  0  0  0  0  0  0  0
    8.9875  -13.3657   20.0277 C   0  0  0  0  0  0  0  0  0  0  0  0
    7.9116  -12.6429   19.5838 C   0  0  0  0  0  0  0  0  0  0  0  0
    9.6266  -15.9900   23.2224 N   0  0  0  0  0  0  0  0  0  0  0  0
   10.1126  -15.7585   24.5935 C   0  0  1  0  0  0  0  0  0  0  0  0
    8.9550  -15.0869   25.2965 C   0  0  0  0  0  0  0  0  0  0  0  0
    9.2594  -14.6934   26.6717 C   0  0  0  0  0  0  0  0  0  0  0  0
    9.6837  -13.4289   27.0371 C   0  0  0  0  0  0  0  0  0  0  0  0
    9.9545  -13.0955   28.3412 C   0  0  0  0  0  0  0  0  0  0  0  0
    9.8126  -14.0188   29.3486 C   0  0  0  0  0  0  0  0  0  0  0  0
    9.3916  -15.2873   29.0154 C   0  0  0  0  0  0  0  0  0  0  0  0
    9.1228  -15.6137   27.7119 C   0  0  0  0  0  0  0  0  0  0  0  0
   10.4521  -17.0476   25.2403 C   0  0  0  0  0  0  0  0  0  0  0  0
    9.5112  -17.8812   25.3723 O   0  0  0  0  0  0  0  0  0  0  0  0
   15.8254  -20.1531   24.5444 N   0  0  0  0  0  0  0  0  0  0  0  0
   15.0653  -20.9545   25.4247 C   0  0  0  0  0  0  0  0  0  0  0  0
   15.4981  -22.1127   25.7705 O   0  0  0  0  0  0  0  0  0  0  0  0
   13.7698  -20.5409   26.0002 C   0  0  0  0  0  0  0  0  0  0  0  0
   13.2568  -19.2214   25.5965 C   0  0  0  0  0  0  0  0  0  0  0  0
   11.9839  -18.7547   26.2359 C   0  0  2  0  0  0  0  0  0  0  0  0
   11.7259  -17.3885   25.7037 N   0  0  0  0  0  0  0  0  0  0  0  0
   11.8926  -18.7868   27.6694 C   0  0  0  0  0  0  0  0  0  0  0  0
   11.4752  -19.9377   28.3507 O   0  0  0  0  0  0  0  0  0  0  0  0
   12.1779  -17.7993   28.3794 O   0  0  0  0  0  0  0  0  0  0  0  0
  2  1  1  0
  3  2  2  0
  4  3  1  0
  5  4  2  0
  5 11  1  0
  6  7  1  0
  6  5  1  0
  7  8  1  1
  9  7  1  0
  9 13  1  0
 10  9  2  0
 11 12  2  0
 12  2  1  0
 13 14  1  0
 15 16  1  0
 14 15  1  1
 16 17  2  0
 17 18  1  0
 19 18  2  0
 20 21  2  0
 20 19  1  0
 21 16  1  0
 22 23  2  0
 22 14  1  0
 24 25  1  0
 25 27  1  0
 26 25  2  0
 27 28  1  0
 29 28  1  1
 29 30  1  0
 29 31  1  0
 30 22  1  0
 31 32  1  0
 33 31  2  0
M  END
$$$$
