YFQ.pdb
     RDKit          3D

 33 34  0  0  1  0  0  0  0  0999 V2000
    7.7251  -14.3665   14.9630 O   0  0  0  0  0  0  0  0  0  0  0  0
    8.3046  -14.3387   16.2186 C   0  0  0  0  0  0  0  0  0  0  0  0
    7.9186  -13.4191   17.1469 C   0  0  0  0  0  0  0  0  0  0  0  0
    8.5254  -13.4283   18.3893 C   0  0  0  0  0  0  0  0  0  0  0  0
    9.5077  -14.3475   18.6999 C   0  0  0  0  0  0  0  0  0  0  0  0
   10.1164  -14.2998   20.0525 C   0  0  0  0  0  0  0  0  0  0  0  0
    9.7113  -15.5628   20.7848 C   0  0  2  0  0  0  0  0  0  0  0  0
    8.3565  -15.8877   20.3968 N   0  0  0  0  0  0  0  0  0  0  0  0
    9.7719  -15.2408   22.2462 C   0  0  0  0  0  0  0  0  0  0  0  0
   10.8399  -15.0892   22.8606 O   0  0  0  0  0  0  0  0  0  0  0  0
    9.8857  -15.2704   17.7487 C   0  0  0  0  0  0  0  0  0  0  0  0
    9.2897  -15.2684   16.5150 C   0  0  0  0  0  0  0  0  0  0  0  0
    8.5650  -15.1039   22.9542 N   0  0  0  0  0  0  0  0  0  0  0  0
    8.5081  -14.5368   24.3125 C   0  0  1  0  0  0  0  0  0  0  0  0
    7.2190  -13.7476   24.3388 C   0  0  0  0  0  0  0  0  0  0  0  0
    7.0244  -12.9934   25.5765 C   0  0  0  0  0  0  0  0  0  0  0  0
    6.0360  -13.2716   26.5029 C   0  0  0  0  0  0  0  0  0  0  0  0
    5.8884  -12.5433   27.6575 C   0  0  0  0  0  0  0  0  0  0  0  0
    6.7290  -11.4944   27.9415 C   0  0  0  0  0  0  0  0  0  0  0  0
    7.7234  -11.1930   27.0371 C   0  0  0  0  0  0  0  0  0  0  0  0
    7.8656  -11.9238   25.8866 C   0  0  0  0  0  0  0  0  0  0  0  0
    8.4873  -15.6231   25.3199 C   0  0  0  0  0  0  0  0  0  0  0  0
    8.6496  -15.2815   26.5260 O   0  0  0  0  0  0  0  0  0  0  0  0
    5.2211  -18.7556   23.1265 N   0  0  0  0  0  0  0  0  0  0  0  0
    6.1553  -19.7058   23.5947 C   0  0  0  0  0  0  0  0  0  0  0  0
    5.8737  -20.9575   23.5463 O   0  0  0  0  0  0  0  0  0  0  0  0
    7.4783  -19.3531   24.1480 C   0  0  0  0  0  0  0  0  0  0  0  0
    7.5588  -19.1708   25.6065 C   0  0  0  0  0  0  0  0  0  0  0  0
    8.3346  -17.9907   26.1091 C   0  0  2  0  0  0  0  0  0  0  0  0
    8.3026  -16.9758   25.0205 N   0  0  0  0  0  0  0  0  0  0  0  0
    9.6725  -18.2102   26.5845 C   0  0  0  0  0  0  0  0  0  0  0  0
   10.7593  -18.2858   25.7034 O   0  0  0  0  0  0  0  0  0  0  0  0
    9.9369  -18.3443   27.7981 O   0  0  0  0  0  0  0  0  0  0  0  0
  2  1  1  0
  3  2  2  0
  4  3  1  0
  5  4  2  0
  5 11  1  0
  6  7  1  0
  6  5  1  0
  7  8  1  6
  9  7  1  0
  9 13  1  0
 10  9  2  0
 11 12  2  0
 12  2  1  0
 13 14  1  0
 15 16  1  0
 14 15  1  6
 16 17  2  0
 17 18  1  0
 19 18  2  0
 20 21  2  0
 20 19  1  0
 21 16  1  0
 22 23  2  0
 22 14  1  0
 24 25  1  0
 25 27  1  0
 26 25  2  0
 27 28  1  0
 29 28  1  6
 29 30  1  0
 29 31  1  0
 30 22  1  0
 31 32  1  0
 33 31  2  0
M  END
$$$$
