YFQ.pdb
     RDKit          3D

 33 34  0  0  1  0  0  0  0  0999 V2000
    7.6312  -14.9039   14.6307 O   0  0  0  0  0  0  0  0  0  0  0  0
    7.8936  -15.1549   15.9654 C   0  0  0  0  0  0  0  0  0  0  0  0
    8.5152  -14.2247   16.7430 C   0  0  0  0  0  0  0  0  0  0  0  0
    8.7574  -14.5188   18.0722 C   0  0  0  0  0  0  0  0  0  0  0  0
    8.3819  -15.7302   18.6177 C   0  0  0  0  0  0  0  0  0  0  0  0
    8.6732  -15.9791   20.0514 C   0  0  0  0  0  0  0  0  0  0  0  0
    9.2393  -14.7008   20.6353 C   0  0  2  0  0  0  0  0  0  0  0  0
   10.5487  -14.4892   20.0588 N   0  0  0  0  0  0  0  0  0  0  0  0
    9.3499  -14.9243   22.1120 C   0  0  0  0  0  0  0  0  0  0  0  0
   10.4231  -15.1914   22.6760 O   0  0  0  0  0  0  0  0  0  0  0  0
    7.7542  -16.6594   17.8164 C   0  0  0  0  0  0  0  0  0  0  0  0
    7.5103  -16.3763   16.4982 C   0  0  0  0  0  0  0  0  0  0  0  0
    8.1862  -14.8274   22.8949 N   0  0  0  0  0  0  0  0  0  0  0  0
    8.2123  -14.9429   24.3631 C   0  0  1  0  0  0  0  0  0  0  0  0
    6.8424  -14.4790   24.8031 C   0  0  0  0  0  0  0  0  0  0  0  0
    6.8832  -13.4331   25.8243 C   0  0  0  0  0  0  0  0  0  0  0  0
    8.0397  -13.0185   26.4593 C   0  0  0  0  0  0  0  0  0  0  0  0
    8.0385  -12.0281   27.4103 C   0  0  0  0  0  0  0  0  0  0  0  0
    6.8711  -11.4013   27.7734 C   0  0  0  0  0  0  0  0  0  0  0  0
    5.7025  -11.7929   27.1583 C   0  0  0  0  0  0  0  0  0  0  0  0
    5.7105  -12.7820   26.2098 C   0  0  0  0  0  0  0  0  0  0  0  0
    8.4505  -16.3501   24.7613 C   0  0  0  0  0  0  0  0  0  0  0  0
    7.8975  -17.2408   24.0553 O   0  0  0  0  0  0  0  0  0  0  0  0
   13.0918  -20.0081   23.5952 N   0  0  0  0  0  0  0  0  0  0  0  0
   12.2021  -18.9316   23.3841 C   0  0  0  0  0  0  0  0  0  0  0  0
   11.9620  -18.5248   22.1903 O   0  0  0  0  0  0  0  0  0  0  0  0
   11.5001  -18.2210   24.4717 C   0  0  0  0  0  0  0  0  0  0  0  0
   10.1432  -18.6880   24.8002 C   0  0  0  0  0  0  0  0  0  0  0  0
    9.5327  -18.1833   26.0727 C   0  0  2  0  0  0  0  0  0  0  0  0
    9.2348  -16.7419   25.8498 N   0  0  0  0  0  0  0  0  0  0  0  0
   10.2525  -18.3882   27.2991 C   0  0  0  0  0  0  0  0  0  0  0  0
   10.6579  -17.3114   28.0986 O   0  0  0  0  0  0  0  0  0  0  0  0
   10.5530  -19.5272   27.7154 O   0  0  0  0  0  0  0  0  0  0  0  0
  2  1  1  0
  3  2  2  0
  4  3  1  0
  5  4  2  0
  5 11  1  0
  6  7  1  0
  6  5  1  0
  7  8  1  6
  9  7  1  0
  9 13  1  0
 10  9  2  0
 11 12  2  0
 12  2  1  0
 13 14  1  0
 15 16  1  0
 14 15  1  1
 16 17  2  0
 17 18  1  0
 19 18  2  0
 20 21  2  0
 20 19  1  0
 21 16  1  0
 22 23  2  0
 22 14  1  0
 24 25  1  0
 25 27  1  0
 26 25  2  0
 27 28  1  0
 29 28  1  6
 29 30  1  0
 29 31  1  0
 30 22  1  0
 31 32  1  0
 33 31  2  0
M  END
$$$$
