YFQ.pdb
     RDKit          3D

 33 34  0  0  1  0  0  0  0  0999 V2000
    6.2639  -19.4439   15.6955 O   0  0  0  0  0  0  0  0  0  0  0  0
    6.8644  -18.9680   16.8471 C   0  0  0  0  0  0  0  0  0  0  0  0
    6.8592  -19.7036   17.9939 C   0  0  0  0  0  0  0  0  0  0  0  0
    7.4719  -19.1882   19.1212 C   0  0  0  0  0  0  0  0  0  0  0  0
    8.0831  -17.9504   19.1017 C   0  0  0  0  0  0  0  0  0  0  0  0
    8.7211  -17.4587   20.3481 C   0  0  0  0  0  0  0  0  0  0  0  0
    9.2833  -16.0805   20.0652 C   0  0  2  0  0  0  0  0  0  0  0  0
   10.5411  -16.2462   19.3709 N   0  0  0  0  0  0  0  0  0  0  0  0
    9.5048  -15.4337   21.3977 C   0  0  0  0  0  0  0  0  0  0  0  0
   10.6222  -15.3554   21.9329 O   0  0  0  0  0  0  0  0  0  0  0  0
    8.0788  -17.2201   17.9329 C   0  0  0  0  0  0  0  0  0  0  0  0
    7.4741  -17.7232   16.8111 C   0  0  0  0  0  0  0  0  0  0  0  0
    8.3977  -14.8907   22.0729 N   0  0  0  0  0  0  0  0  0  0  0  0
    8.5187  -14.2396   23.3887 C   0  0  1  0  0  0  0  0  0  0  0  0
    7.2025  -13.5204   23.5770 C   0  0  0  0  0  0  0  0  0  0  0  0
    7.0616  -12.9015   24.8944 C   0  0  0  0  0  0  0  0  0  0  0  0
    6.1124  -13.2782   25.8270 C   0  0  0  0  0  0  0  0  0  0  0  0
    6.0149  -12.6762   27.0571 C   0  0  0  0  0  0  0  0  0  0  0  0
    6.8689  -11.6611   27.4146 C   0  0  0  0  0  0  0  0  0  0  0  0
    7.8250  -11.2636   26.5062 C   0  0  0  0  0  0  0  0  0  0  0  0
    7.9172  -11.8686   25.2801 C   0  0  0  0  0  0  0  0  0  0  0  0
    8.7247  -15.2572   24.4459 C   0  0  0  0  0  0  0  0  0  0  0  0
    8.8938  -14.8268   25.6223 O   0  0  0  0  0  0  0  0  0  0  0  0
   12.0530  -20.0630   23.3185 N   0  0  0  0  0  0  0  0  0  0  0  0
   12.5997  -19.4378   24.4609 C   0  0  0  0  0  0  0  0  0  0  0  0
   13.6200  -19.9531   25.0455 O   0  0  0  0  0  0  0  0  0  0  0  0
   12.0699  -18.1903   25.0471 C   0  0  0  0  0  0  0  0  0  0  0  0
   10.9490  -17.5499   24.3394 C   0  0  0  0  0  0  0  0  0  0  0  0
    9.6253  -17.5123   25.0418 C   0  0  2  0  0  0  0  0  0  0  0  0
    8.7428  -16.6368   24.2227 N   0  0  0  0  0  0  0  0  0  0  0  0
    9.6025  -17.1333   26.4275 C   0  0  0  0  0  0  0  0  0  0  0  0
    8.3994  -17.0291   27.1381 O   0  0  0  0  0  0  0  0  0  0  0  0
   10.6444  -16.8786   27.0679 O   0  0  0  0  0  0  0  0  0  0  0  0
  2  1  1  0
  3  2  2  0
  4  3  1  0
  5  4  2  0
  5 11  1  0
  6  7  1  0
  6  5  1  0
  7  8  1  1
  9  7  1  0
  9 13  1  0
 10  9  2  0
 11 12  2  0
 12  2  1  0
 13 14  1  0
 15 16  1  0
 14 15  1  1
 16 17  2  0
 17 18  1  0
 19 18  2  0
 20 21  2  0
 20 19  1  0
 21 16  1  0
 22 23  2  0
 22 14  1  0
 24 25  1  0
 25 27  1  0
 26 25  2  0
 27 28  1  0
 29 28  1  6
 29 30  1  0
 29 31  1  0
 30 22  1  0
 31 32  1  0
 33 31  2  0
M  END
$$$$
