YFQ.pdb
     RDKit          3D

 33 34  0  0  1  0  0  0  0  0999 V2000
    8.2638  -11.6861   17.6768 O   0  0  0  0  0  0  0  0  0  0  0  0
    7.7251  -12.7420   18.3897 C   0  0  0  0  0  0  0  0  0  0  0  0
    7.7346  -14.0061   17.8816 C   0  0  0  0  0  0  0  0  0  0  0  0
    7.1849  -15.0311   18.6294 C   0  0  0  0  0  0  0  0  0  0  0  0
    6.6316  -14.7942   19.8719 C   0  0  0  0  0  0  0  0  0  0  0  0
    6.0589  -15.9409   20.6197 C   0  0  0  0  0  0  0  0  0  0  0  0
    7.1917  -16.6172   21.3645 C   0  0  2  0  0  0  0  0  0  0  0  0
    6.6815  -17.8462   21.9309 N   0  0  0  0  0  0  0  0  0  0  0  0
    7.6039  -15.6739   22.4522 C   0  0  0  0  0  0  0  0  0  0  0  0
    7.9101  -14.4898   22.2391 O   0  0  0  0  0  0  0  0  0  0  0  0
    6.6306  -13.5091   20.3702 C   0  0  0  0  0  0  0  0  0  0  0  0
    7.1732  -12.4875   19.6360 C   0  0  0  0  0  0  0  0  0  0  0  0
    7.6459  -16.1504   23.7742 N   0  0  0  0  0  0  0  0  0  0  0  0
    8.6318  -15.6660   24.7556 C   0  0  1  0  0  0  0  0  0  0  0  0
    7.8260  -15.4195   26.0107 C   0  0  0  0  0  0  0  0  0  0  0  0
    8.6058  -14.8228   27.0943 C   0  0  0  0  0  0  0  0  0  0  0  0
    8.7417  -13.4602   27.2883 C   0  0  0  0  0  0  0  0  0  0  0  0
    9.4787  -12.9374   28.3221 C   0  0  0  0  0  0  0  0  0  0  0  0
   10.1195  -13.7596   29.2170 C   0  0  0  0  0  0  0  0  0  0  0  0
   10.0029  -15.1218   29.0494 C   0  0  0  0  0  0  0  0  0  0  0  0
    9.2657  -15.6374   28.0156 C   0  0  0  0  0  0  0  0  0  0  0  0
    9.6728  -16.6951   24.9856 C   0  0  0  0  0  0  0  0  0  0  0  0
    9.2702  -17.8812   25.1549 O   0  0  0  0  0  0  0  0  0  0  0  0
   15.8254  -16.4802   23.0236 N   0  0  0  0  0  0  0  0  0  0  0  0
   15.4197  -17.8030   23.3067 C   0  0  0  0  0  0  0  0  0  0  0  0
   16.0377  -18.7909   22.7676 O   0  0  0  0  0  0  0  0  0  0  0  0
   14.3042  -18.1440   24.2122 C   0  0  0  0  0  0  0  0  0  0  0  0
   13.1547  -17.2244   24.2224 C   0  0  0  0  0  0  0  0  0  0  0  0
   12.0133  -17.5620   25.1335 C   0  0  2  0  0  0  0  0  0  0  0  0
   11.0456  -16.4359   25.0254 N   0  0  0  0  0  0  0  0  0  0  0  0
   12.3082  -17.8724   26.5050 C   0  0  0  0  0  0  0  0  0  0  0  0
   11.9605  -16.9993   27.5442 O   0  0  0  0  0  0  0  0  0  0  0  0
   12.8852  -18.9279   26.8421 O   0  0  0  0  0  0  0  0  0  0  0  0
  2  1  1  0
  3  2  2  0
  4  3  1  0
  5  4  2  0
  5 11  1  0
  6  7  1  0
  6  5  1  0
  7  8  1  1
  9  7  1  0
  9 13  1  0
 10  9  2  0
 11 12  2  0
 12  2  1  0
 13 14  1  0
 15 16  1  0
 14 15  1  1
 16 17  2  0
 17 18  1  0
 19 18  2  0
 20 21  2  0
 20 19  1  0
 21 16  1  0
 22 23  2  0
 22 14  1  0
 24 25  1  0
 25 27  1  0
 26 25  2  0
 27 28  1  0
 29 28  1  6
 29 30  1  0
 29 31  1  0
 30 22  1  0
 31 32  1  0
 33 31  2  0
M  END
$$$$
