IRW.pdb
     RDKit          3D

 34 35  0  0  1  0  0  0  0  0999 V2000
   29.4521  -17.8212  -17.2353 C   0  0  0  0  0  0  0  0  0  0  0  0
   28.0802  -18.4488  -17.2141 C   0  0  0  0  0  0  0  0  0  0  0  0
   27.3731  -18.2115  -15.9077 C   0  0  2  0  0  0  0  0  0  0  0  0
   28.1507  -18.9343  -14.8214 C   0  0  0  0  0  0  0  0  0  0  0  0
   25.9884  -18.7676  -15.9447 C   0  0  2  0  0  0  0  0  0  0  0  0
   25.2317  -18.1781  -17.0127 N   0  0  0  0  0  0  0  0  0  0  0  0
   25.2572  -18.6384  -14.6722 C   0  0  0  0  0  0  0  0  0  0  0  0
   24.8109  -17.5266  -14.2507 O   0  0  0  0  0  0  0  0  0  0  0  0
   18.8402  -20.3434  -12.5856 N   0  0  0  0  0  0  0  0  0  0  0  0
   19.5575  -21.3867  -13.1876 C   0  0  0  0  0  0  0  0  0  0  0  0
   19.1742  -21.8535  -14.3336 N   0  0  0  0  0  0  0  0  0  0  0  0
   20.6972  -21.9284  -12.5516 N   0  0  0  0  0  0  0  0  0  0  0  0
   21.1534  -21.4575  -11.2843 C   0  0  0  0  0  0  0  0  0  0  0  0
   22.4092  -20.6337  -11.3151 C   0  0  0  0  0  0  0  0  0  0  0  0
   23.0795  -20.5812  -12.6403 C   0  0  0  0  0  0  0  0  0  0  0  0
   24.3824  -19.8085  -12.6066 C   0  0  2  0  0  0  0  0  0  0  0  0
   25.0404  -19.7956  -13.8819 N   0  0  0  0  0  0  0  0  0  0  0  0
   25.2508  -20.4601  -11.5604 C   0  0  0  0  0  0  0  0  0  0  0  0
   25.5851  -21.6649  -11.6877 O   0  0  0  0  0  0  0  0  0  0  0  0
   19.6557  -22.6351  -14.7866 N   0  0  0  0  0  0  0  0  0  0  0  0
   25.7134  -19.7579  -10.4190 C   0  0  2  0  0  0  0  0  0  0  0  0
   26.4591  -20.5007   -9.4249 C   0  0  0  0  0  0  0  0  0  0  0  0
   27.4735  -19.5526   -8.8129 C   0  0  0  0  0  0  0  0  0  0  0  0
   28.2349  -20.2762   -7.7592 C   0  0  0  0  0  0  0  0  0  0  0  0
   28.9754  -21.4298   -7.8103 N   0  0  0  0  0  0  0  0  0  0  0  0
   29.4856  -21.6958   -6.5794 C   0  0  0  0  0  0  0  0  0  0  0  0
   29.0982  -20.7456   -5.7234 C   0  0  0  0  0  0  0  0  0  0  0  0
   29.3436  -20.5591   -4.3883 C   0  0  0  0  0  0  0  0  0  0  0  0
   28.7973  -19.4466   -3.7350 C   0  0  0  0  0  0  0  0  0  0  0  0
   28.0178  -18.5379   -4.4137 C   0  0  0  0  0  0  0  0  0  0  0  0
   27.7936  -18.7616   -5.7593 C   0  0  0  0  0  0  0  0  0  0  0  0
   28.3239  -19.8579   -6.4329 C   0  0  0  0  0  0  0  0  0  0  0  0
   25.5200  -20.8895   -8.3141 O   0  0  0  0  0  0  0  0  0  0  0  0
   24.4330  -20.2834   -8.1377 O   0  0  0  0  0  0  0  0  0  0  0  0
  2  1  1  0
  3  2  1  0
  3  4  1  1
  5  3  1  0
  5  6  1  6
  7  5  1  0
  7  8  2  0
  9 10  1  0
 10 12  1  0
 11 10  2  0
 12 13  1  0
 13 14  1  0
 14 15  1  0
 16 15  1  6
 16 17  1  0
 17  7  1  0
 18 16  1  0
 19 18  2  0
 20 18  1  0
 21 20  1  0
 21 22  1  1
 22 23  1  0
 23 31  1  0
 23 24  2  0
 24 25  1  0
 26 27  2  0
 26 25  1  0
 28 27  1  0
 29 28  2  0
 30 29  1  0
 30 31  2  0
 31 26  1  0
 32 21  1  0
 33 32  2  0
 34 32  1  0
M  END
$$$$
