IRW.pdb
     RDKit          3D

 34 35  0  0  1  0  0  0  0  0999 V2000
   29.4068  -18.5066  -17.8074 C   0  0  0  0  0  0  0  0  0  0  0  0
   28.8717  -19.3208  -16.6553 C   0  0  0  0  0  0  0  0  0  0  0  0
   27.5084  -19.8842  -16.9500 C   0  0  2  0  0  0  0  0  0  0  0  0
   26.5788  -18.7197  -17.2444 C   0  0  0  0  0  0  0  0  0  0  0  0
   26.9742  -20.6263  -15.7702 C   0  0  2  0  0  0  0  0  0  0  0  0
   27.9166  -21.6107  -15.3188 N   0  0  0  0  0  0  0  0  0  0  0  0
   25.6592  -21.2496  -16.0003 C   0  0  0  0  0  0  0  0  0  0  0  0
   24.6742  -20.6084  -16.4818 O   0  0  0  0  0  0  0  0  0  0  0  0
   28.6791  -26.4201  -16.6382 N   0  0  0  0  0  0  0  0  0  0  0  0
   28.2677  -26.7525  -17.9365 C   0  0  0  0  0  0  0  0  0  0  0  0
   29.1529  -27.0319  -18.8402 N   0  0  0  0  0  0  0  0  0  0  0  0
   26.8931  -26.7866  -18.2623 N   0  0  0  0  0  0  0  0  0  0  0  0
   25.8783  -26.5219  -17.2949 C   0  0  0  0  0  0  0  0  0  0  0  0
   25.5693  -25.0702  -17.0633 C   0  0  0  0  0  0  0  0  0  0  0  0
   24.4850  -24.8203  -16.0784 C   0  0  0  0  0  0  0  0  0  0  0  0
   24.2510  -23.3445  -15.8279 C   0  0  2  0  0  0  0  0  0  0  0  0
   25.4787  -22.6174  -15.6733 N   0  0  0  0  0  0  0  0  0  0  0  0
   23.4046  -23.2404  -14.5844 C   0  0  0  0  0  0  0  0  0  0  0  0
   23.9379  -23.3656  -13.4533 O   0  0  0  0  0  0  0  0  0  0  0  0
   28.8875  -27.2821  -19.7967 N   0  0  0  0  0  0  0  0  0  0  0  0
   22.0080  -23.0036  -14.6394 C   0  0  1  0  0  0  0  0  0  0  0  0
   21.3920  -22.3299  -13.5157 C   0  0  0  0  0  0  0  0  0  0  0  0
   22.2143  -21.0892  -13.2209 C   0  0  0  0  0  0  0  0  0  0  0  0
   21.4279  -20.1893  -12.3346 C   0  0  0  0  0  0  0  0  0  0  0  0
   21.0294  -20.3286  -11.0294 N   0  0  0  0  0  0  0  0  0  0  0  0
   20.3235  -19.2309  -10.6514 C   0  0  0  0  0  0  0  0  0  0  0  0
   20.2496  -18.3761  -11.6758 C   0  0  0  0  0  0  0  0  0  0  0  0
   19.6595  -17.1459  -11.8025 C   0  0  0  0  0  0  0  0  0  0  0  0
   19.7467  -16.4610  -13.0215 C   0  0  0  0  0  0  0  0  0  0  0  0
   20.4159  -17.0048  -14.0941 C   0  0  0  0  0  0  0  0  0  0  0  0
   20.9974  -18.2476  -13.9261 C   0  0  0  0  0  0  0  0  0  0  0  0
   20.9263  -18.9497  -12.7265 C   0  0  0  0  0  0  0  0  0  0  0  0
   20.0303  -21.8445  -13.9366 O   0  0  0  0  0  0  0  0  0  0  0  0
   19.8229  -21.4131  -15.0989 O   0  0  0  0  0  0  0  0  0  0  0  0
  2  1  1  0
  3  2  1  0
  3  4  1  1
  5  3  1  0
  5  6  1  6
  7  5  1  0
  7  8  2  0
  9 10  1  0
 10 12  1  0
 11 10  2  0
 12 13  1  0
 13 14  1  0
 14 15  1  0
 16 15  1  1
 16 17  1  0
 17  7  1  0
 18 16  1  0
 19 18  2  0
 20 18  1  0
 21 20  1  0
 21 22  1  1
 22 23  1  0
 23 31  1  0
 23 24  2  0
 24 25  1  0
 26 27  2  0
 26 25  1  0
 28 27  1  0
 29 28  2  0
 30 29  1  0
 30 31  2  0
 31 26  1  0
 32 21  1  0
 33 32  2  0
 34 32  1  0
M  END
$$$$
