IRW.pdb
     RDKit          3D

 34 35  0  0  1  0  0  0  0  0999 V2000
   21.6363  -15.5649  -17.8782 C   0  0  0  0  0  0  0  0  0  0  0  0
   22.8688  -16.1636  -17.2466 C   0  0  0  0  0  0  0  0  0  0  0  0
   22.5301  -17.0356  -16.0685 C   0  0  2  0  0  0  0  0  0  0  0  0
   21.8048  -16.1756  -15.0480 C   0  0  0  0  0  0  0  0  0  0  0  0
   23.7687  -17.5753  -15.4339 C   0  0  2  0  0  0  0  0  0  0  0  0
   24.5580  -18.2972  -16.3914 N   0  0  0  0  0  0  0  0  0  0  0  0
   23.5176  -18.4123  -14.2477 C   0  0  0  0  0  0  0  0  0  0  0  0
   22.8137  -18.0150  -13.2680 O   0  0  0  0  0  0  0  0  0  0  0  0
   25.1911  -24.8331  -15.4118 N   0  0  0  0  0  0  0  0  0  0  0  0
   24.5798  -25.3408  -14.2569 C   0  0  0  0  0  0  0  0  0  0  0  0
   25.1811  -26.2509  -13.5578 N   0  0  0  0  0  0  0  0  0  0  0  0
   23.3136  -24.8626  -13.8510 N   0  0  0  0  0  0  0  0  0  0  0  0
   22.6013  -23.8767  -14.5969 C   0  0  0  0  0  0  0  0  0  0  0  0
   22.6265  -22.4889  -14.0224 C   0  0  0  0  0  0  0  0  0  0  0  0
   23.9514  -22.0607  -13.5033 C   0  0  0  0  0  0  0  0  0  0  0  0
   23.9698  -20.6077  -13.0743 C   0  0  2  0  0  0  0  0  0  0  0  0
   24.0809  -19.7122  -14.1903 N   0  0  0  0  0  0  0  0  0  0  0  0
   25.1378  -20.4434  -12.1351 C   0  0  0  0  0  0  0  0  0  0  0  0
   26.3075  -20.4053  -12.5933 O   0  0  0  0  0  0  0  0  0  0  0  0
   24.7836  -26.6128  -12.6866 N   0  0  0  0  0  0  0  0  0  0  0  0
   24.9683  -20.3287  -10.7323 C   0  0  2  0  0  0  0  0  0  0  0  0
   26.1461  -20.0826   -9.9271 C   0  0  0  0  0  0  0  0  0  0  0  0
   25.6774  -19.7498   -8.5229 C   0  0  0  0  0  0  0  0  0  0  0  0
   26.8470  -19.3068   -7.7168 C   0  0  0  0  0  0  0  0  0  0  0  0
   27.6908  -18.2351   -7.8618 N   0  0  0  0  0  0  0  0  0  0  0  0
   28.6181  -18.2508   -6.8688 C   0  0  0  0  0  0  0  0  0  0  0  0
   28.4029  -19.3055   -6.0771 C   0  0  0  0  0  0  0  0  0  0  0  0
   29.0488  -19.7572   -4.9562 C   0  0  0  0  0  0  0  0  0  0  0  0
   28.5910  -20.9162   -4.3158 C   0  0  0  0  0  0  0  0  0  0  0  0
   27.5024  -21.6082   -4.7953 C   0  0  0  0  0  0  0  0  0  0  0  0
   26.8785  -21.1203   -5.9284 C   0  0  0  0  0  0  0  0  0  0  0  0
   27.3121  -19.9718   -6.5840 C   0  0  0  0  0  0  0  0  0  0  0  0
   26.9283  -21.3646   -9.8191 O   0  0  0  0  0  0  0  0  0  0  0  0
   26.3574  -22.4831   -9.8762 O   0  0  0  0  0  0  0  0  0  0  0  0
  2  1  1  0
  3  2  1  0
  3  4  1  1
  5  3  1  0
  5  6  1  6
  7  5  1  0
  7  8  2  0
  9 10  1  0
 10 12  1  0
 11 10  2  0
 12 13  1  0
 13 14  1  0
 14 15  1  0
 16 15  1  6
 16 17  1  0
 17  7  1  0
 18 16  1  0
 19 18  2  0
 20 18  1  0
 21 20  1  0
 21 22  1  1
 22 23  1  0
 23 31  1  0
 23 24  2  0
 24 25  1  0
 26 27  2  0
 26 25  1  0
 28 27  1  0
 29 28  2  0
 30 29  1  0
 30 31  2  0
 31 26  1  0
 32 21  1  0
 33 32  2  0
 34 32  1  0
M  END
$$$$
