IRW.pdb
     RDKit          3D

 34 35  0  0  1  0  0  0  0  0999 V2000
   18.5231  -20.0018  -13.0943 C   0  0  0  0  0  0  0  0  0  0  0  0
   19.2583  -20.8282  -14.1206 C   0  0  0  0  0  0  0  0  0  0  0  0
   20.4895  -21.4737  -13.5459 C   0  0  2  0  0  0  0  0  0  0  0  0
   20.0870  -22.1808  -12.2633 C   0  0  0  0  0  0  0  0  0  0  0  0
   21.5213  -20.4475  -13.2137 C   0  0  2  0  0  0  0  0  0  0  0  0
   21.7674  -19.5906  -14.3389 N   0  0  0  0  0  0  0  0  0  0  0  0
   22.7886  -21.0116  -12.7175 C   0  0  0  0  0  0  0  0  0  0  0  0
   22.9010  -21.5266  -11.5620 O   0  0  0  0  0  0  0  0  0  0  0  0
   30.2515  -23.7301  -14.8948 N   0  0  0  0  0  0  0  0  0  0  0  0
   29.3949  -23.4245  -15.9616 C   0  0  0  0  0  0  0  0  0  0  0  0
   29.2057  -24.2932  -16.9039 N   0  0  0  0  0  0  0  0  0  0  0  0
   28.7358  -22.1756  -16.0120 N   0  0  0  0  0  0  0  0  0  0  0  0
   28.6975  -21.2933  -14.8912 C   0  0  0  0  0  0  0  0  0  0  0  0
   27.6382  -21.5930  -13.8690 C   0  0  0  0  0  0  0  0  0  0  0  0
   26.2614  -21.2124  -14.2784 C   0  0  0  0  0  0  0  0  0  0  0  0
   25.2488  -21.3953  -13.1663 C   0  0  2  0  0  0  0  0  0  0  0  0
   23.9313  -20.9811  -13.5565 N   0  0  0  0  0  0  0  0  0  0  0  0
   25.7395  -20.5889  -11.9905 C   0  0  0  0  0  0  0  0  0  0  0  0
   25.7529  -19.3339  -12.0556 O   0  0  0  0  0  0  0  0  0  0  0  0
   28.6070  -24.0937  -17.7099 N   0  0  0  0  0  0  0  0  0  0  0  0
   26.1947  -21.1984  -10.7943 C   0  0  2  0  0  0  0  0  0  0  0  0
   26.8590  -20.3597   -9.8189 C   0  0  0  0  0  0  0  0  0  0  0  0
   26.3658  -20.7778   -8.4462 C   0  0  0  0  0  0  0  0  0  0  0  0
   26.9621  -19.8754   -7.4245 C   0  0  0  0  0  0  0  0  0  0  0  0
   26.9110  -18.5120   -7.2826 N   0  0  0  0  0  0  0  0  0  0  0  0
   27.6186  -18.1439   -6.1826 C   0  0  0  0  0  0  0  0  0  0  0  0
   28.1316  -19.2317   -5.6002 C   0  0  0  0  0  0  0  0  0  0  0  0
   28.9063  -19.3936   -4.4817 C   0  0  0  0  0  0  0  0  0  0  0  0
   29.3034  -20.6811   -4.0976 C   0  0  0  0  0  0  0  0  0  0  0  0
   28.9274  -21.7860   -4.8267 C   0  0  0  0  0  0  0  0  0  0  0  0
   28.1461  -21.5808   -5.9485 C   0  0  0  0  0  0  0  0  0  0  0  0
   27.7374  -20.3132   -6.3525 C   0  0  0  0  0  0  0  0  0  0  0  0
   28.3330  -20.6654   -9.8497 O   0  0  0  0  0  0  0  0  0  0  0  0
   28.7543  -21.8150  -10.1347 O   0  0  0  0  0  0  0  0  0  0  0  0
  2  1  1  0
  3  2  1  0
  3  4  1  1
  5  3  1  0
  5  6  1  6
  7  5  1  0
  7  8  2  0
  9 10  1  0
 10 12  1  0
 11 10  2  0
 12 13  1  0
 13 14  1  0
 14 15  1  0
 16 15  1  6
 16 17  1  0
 17  7  1  0
 18 16  1  0
 19 18  2  0
 20 18  1  0
 21 20  1  0
 21 22  1  1
 22 23  1  0
 23 31  1  0
 23 24  2  0
 24 25  1  0
 26 27  2  0
 26 25  1  0
 28 27  1  0
 29 28  2  0
 30 29  1  0
 30 31  2  0
 31 26  1  0
 32 21  1  0
 33 32  2  0
 34 32  1  0
M  END
$$$$
