IRW.pdb
     RDKit          3D

 34 35  0  0  1  0  0  0  0  0999 V2000
   24.5203  -24.5624  -19.8143 C   0  0  0  0  0  0  0  0  0  0  0  0
   24.1047  -24.0481  -18.4581 C   0  0  0  0  0  0  0  0  0  0  0  0
   25.2874  -23.6251  -17.6303 C   0  0  2  0  0  0  0  0  0  0  0  0
   26.1577  -24.8493  -17.4049 C   0  0  0  0  0  0  0  0  0  0  0  0
   24.8475  -23.1090  -16.3005 C   0  0  2  0  0  0  0  0  0  0  0  0
   24.0533  -21.9228  -16.4524 N   0  0  0  0  0  0  0  0  0  0  0  0
   25.9530  -22.8633  -15.3582 C   0  0  0  0  0  0  0  0  0  0  0  0
   26.7901  -23.7632  -15.0376 O   0  0  0  0  0  0  0  0  0  0  0  0
   27.7205  -18.4362  -17.3333 N   0  0  0  0  0  0  0  0  0  0  0  0
   26.9226  -17.3160  -17.0615 C   0  0  0  0  0  0  0  0  0  0  0  0
   26.2295  -16.7739  -18.0122 N   0  0  0  0  0  0  0  0  0  0  0  0
   26.8692  -16.7783  -15.7558 N   0  0  0  0  0  0  0  0  0  0  0  0
   27.4063  -17.4696  -14.6291 C   0  0  0  0  0  0  0  0  0  0  0  0
   26.7757  -18.7990  -14.3260 C   0  0  0  0  0  0  0  0  0  0  0  0
   27.7442  -19.9012  -14.0910 C   0  0  0  0  0  0  0  0  0  0  0  0
   27.0655  -21.2214  -13.7873 C   0  0  2  0  0  0  0  0  0  0  0  0
   26.0938  -21.5752  -14.7824 N   0  0  0  0  0  0  0  0  0  0  0  0
   26.4200  -21.0802  -12.4321 C   0  0  0  0  0  0  0  0  0  0  0  0
   25.2976  -20.5241  -12.3295 O   0  0  0  0  0  0  0  0  0  0  0  0
   25.6093  -15.9775  -17.8416 N   0  0  0  0  0  0  0  0  0  0  0  0
   27.0376  -21.5565  -11.2483 C   0  0  2  0  0  0  0  0  0  0  0  0
   26.3516  -21.3364   -9.9925 C   0  0  0  0  0  0  0  0  0  0  0  0
   27.3277  -21.6595   -8.8766 C   0  0  0  0  0  0  0  0  0  0  0  0
   27.0239  -20.7940   -7.7051 C   0  0  0  0  0  0  0  0  0  0  0  0
   25.8524  -20.2142   -7.2893 N   0  0  0  0  0  0  0  0  0  0  0  0
   26.0759  -19.5062   -6.1514 C   0  0  0  0  0  0  0  0  0  0  0  0
   27.3642  -19.6077   -5.8112 C   0  0  0  0  0  0  0  0  0  0  0  0
   28.0793  -19.0891   -4.7638 C   0  0  0  0  0  0  0  0  0  0  0  0
   29.4476  -19.3701   -4.6560 C   0  0  0  0  0  0  0  0  0  0  0  0
   30.0848  -20.1592   -5.5862 C   0  0  0  0  0  0  0  0  0  0  0  0
   29.3285  -20.6631   -6.6279 C   0  0  0  0  0  0  0  0  0  0  0  0
   27.9682  -20.3999   -6.7591 C   0  0  0  0  0  0  0  0  0  0  0  0
   26.0389  -19.8688   -9.8689 O   0  0  0  0  0  0  0  0  0  0  0  0
   26.8500  -18.9940  -10.2652 O   0  0  0  0  0  0  0  0  0  0  0  0
  2  1  1  0
  3  2  1  0
  3  4  1  1
  5  3  1  0
  5  6  1  6
  7  5  1  0
  7  8  2  0
  9 10  1  0
 10 12  1  0
 11 10  2  0
 12 13  1  0
 13 14  1  0
 14 15  1  0
 16 15  1  6
 16 17  1  0
 17  7  1  0
 18 16  1  0
 19 18  2  0
 20 18  1  0
 21 20  1  0
 21 22  1  6
 22 23  1  0
 23 31  1  0
 23 24  2  0
 24 25  1  0
 26 27  2  0
 26 25  1  0
 28 27  1  0
 29 28  2  0
 30 29  1  0
 30 31  2  0
 31 26  1  0
 32 21  1  0
 33 32  2  0
 34 32  1  0
M  END
$$$$
