IRW.pdb
     RDKit          3D

 34 35  0  0  1  0  0  0  0  0999 V2000
   20.7720  -18.8223  -14.0685 C   0  0  0  0  0  0  0  0  0  0  0  0
   21.8841  -19.2473  -14.9955 C   0  0  0  0  0  0  0  0  0  0  0  0
   23.1156  -18.4011  -14.8216 C   0  0  2  0  0  0  0  0  0  0  0  0
   22.7575  -16.9760  -15.2060 C   0  0  0  0  0  0  0  0  0  0  0  0
   24.2126  -18.8692  -15.7191 C   0  0  2  0  0  0  0  0  0  0  0  0
   23.8407  -18.7204  -17.0977 N   0  0  0  0  0  0  0  0  0  0  0  0
   24.6516  -20.2510  -15.4574 C   0  0  0  0  0  0  0  0  0  0  0  0
   24.1744  -21.2491  -16.0814 O   0  0  0  0  0  0  0  0  0  0  0  0
   30.0298  -25.0521  -16.3123 N   0  0  0  0  0  0  0  0  0  0  0  0
   30.6847  -24.0133  -15.6359 C   0  0  0  0  0  0  0  0  0  0  0  0
   31.7664  -24.2621  -14.9679 N   0  0  0  0  0  0  0  0  0  0  0  0
   30.1719  -22.6974  -15.6820 N   0  0  0  0  0  0  0  0  0  0  0  0
   28.9185  -22.3935  -16.2924 C   0  0  0  0  0  0  0  0  0  0  0  0
   28.0296  -21.4649  -15.5151 C   0  0  0  0  0  0  0  0  0  0  0  0
   27.5395  -22.0167  -14.2253 C   0  0  0  0  0  0  0  0  0  0  0  0
   26.0586  -21.7781  -14.0119 C   0  0  2  0  0  0  0  0  0  0  0  0
   25.6443  -20.4834  -14.4720 N   0  0  0  0  0  0  0  0  0  0  0  0
   25.7989  -21.9319  -12.5346 C   0  0  0  0  0  0  0  0  0  0  0  0
   25.9071  -23.0621  -11.9956 O   0  0  0  0  0  0  0  0  0  0  0  0
   32.2612  -23.5308  -14.4498 N   0  0  0  0  0  0  0  0  0  0  0  0
   25.4308  -20.8358  -11.7145 C   0  0  1  0  0  0  0  0  0  0  0  0
   25.0670  -21.1118  -10.3407 C   0  0  0  0  0  0  0  0  0  0  0  0
   25.6962  -20.0346   -9.4768 C   0  0  0  0  0  0  0  0  0  0  0  0
   27.0930  -20.4317   -9.1527 C   0  0  0  0  0  0  0  0  0  0  0  0
   27.9991  -21.1951   -9.8440 N   0  0  0  0  0  0  0  0  0  0  0  0
   29.1559  -21.2776   -9.1360 C   0  0  0  0  0  0  0  0  0  0  0  0
   29.0305  -20.5874   -7.9987 C   0  0  0  0  0  0  0  0  0  0  0  0
   29.8982  -20.3630   -6.9622 C   0  0  0  0  0  0  0  0  0  0  0  0
   29.4873  -19.5800   -5.8754 C   0  0  0  0  0  0  0  0  0  0  0  0
   28.2253  -19.0327   -5.8328 C   0  0  0  0  0  0  0  0  0  0  0  0
   27.3799  -19.2825   -6.8977 C   0  0  0  0  0  0  0  0  0  0  0  0
   27.7622  -20.0563   -7.9895 C   0  0  0  0  0  0  0  0  0  0  0  0
   23.5768  -20.9507  -10.1987 O   0  0  0  0  0  0  0  0  0  0  0  0
   22.8776  -20.4978  -11.1401 O   0  0  0  0  0  0  0  0  0  0  0  0
  2  1  1  0
  3  2  1  0
  3  4  1  6
  5  3  1  0
  5  6  1  6
  7  5  1  0
  7  8  2  0
  9 10  1  0
 10 12  1  0
 11 10  2  0
 12 13  1  0
 13 14  1  0
 14 15  1  0
 16 15  1  1
 16 17  1  0
 17  7  1  0
 18 16  1  0
 19 18  2  0
 20 18  1  0
 21 20  1  0
 21 22  1  1
 22 23  1  0
 23 31  1  0
 23 24  2  0
 24 25  1  0
 26 27  2  0
 26 25  1  0
 28 27  1  0
 29 28  2  0
 30 29  1  0
 30 31  2  0
 31 26  1  0
 32 21  1  0
 33 32  2  0
 34 32  1  0
M  END
$$$$
