IRW.pdb
     RDKit          3D

 34 35  0  0  1  0  0  0  0  0999 V2000
   22.3952  -22.6488  -15.8715 C   0  0  0  0  0  0  0  0  0  0  0  0
   23.8826  -22.7626  -15.6449 C   0  0  0  0  0  0  0  0  0  0  0  0
   24.4999  -23.8411  -16.4927 C   0  0  2  0  0  0  0  0  0  0  0  0
   23.8846  -25.1665  -16.0779 C   0  0  0  0  0  0  0  0  0  0  0  0
   25.9736  -23.9153  -16.2675 C   0  0  2  0  0  0  0  0  0  0  0  0
   26.5769  -22.6212  -16.4163 N   0  0  0  0  0  0  0  0  0  0  0  0
   26.6612  -24.8981  -17.1230 C   0  0  0  0  0  0  0  0  0  0  0  0
   26.6801  -24.8061  -18.3897 O   0  0  0  0  0  0  0  0  0  0  0  0
   33.4971  -24.0904  -16.6012 N   0  0  0  0  0  0  0  0  0  0  0  0
   33.2212  -25.3891  -16.1512 C   0  0  0  0  0  0  0  0  0  0  0  0
   33.8716  -25.8713  -15.1399 N   0  0  0  0  0  0  0  0  0  0  0  0
   32.2358  -26.1723  -16.7935 N   0  0  0  0  0  0  0  0  0  0  0  0
   31.5416  -25.7149  -17.9531 C   0  0  0  0  0  0  0  0  0  0  0  0
   30.0424  -25.7639  -17.8698 C   0  0  0  0  0  0  0  0  0  0  0  0
   29.5041  -26.9365  -17.1327 C   0  0  0  0  0  0  0  0  0  0  0  0
   27.9959  -27.0449  -17.2272 C   0  0  2  0  0  0  0  0  0  0  0  0
   27.3290  -25.9917  -16.5161 N   0  0  0  0  0  0  0  0  0  0  0  0
   27.6181  -28.3935  -16.6689 C   0  0  0  0  0  0  0  0  0  0  0  0
   27.5877  -28.5684  -15.4247 O   0  0  0  0  0  0  0  0  0  0  0  0
   33.7196  -26.8271  -14.8062 N   0  0  0  0  0  0  0  0  0  0  0  0
   27.2905  -29.4915  -17.5036 C   0  0  1  0  0  0  0  0  0  0  0  0
   26.7414  -30.6760  -16.8779 C   0  0  0  0  0  0  0  0  0  0  0  0
   25.4300  -30.2808  -16.2249 C   0  0  0  0  0  0  0  0  0  0  0  0
   24.7894  -31.4971  -15.6556 C   0  0  0  0  0  0  0  0  0  0  0  0
   25.1976  -32.3543  -14.6655 N   0  0  0  0  0  0  0  0  0  0  0  0
   24.2656  -33.3286  -14.4968 C   0  0  0  0  0  0  0  0  0  0  0  0
   23.2574  -33.1312  -15.3513 C   0  0  0  0  0  0  0  0  0  0  0  0
   22.0948  -33.8218  -15.5726 C   0  0  0  0  0  0  0  0  0  0  0  0
   21.2013  -33.3726  -16.5537 C   0  0  0  0  0  0  0  0  0  0  0  0
   21.4733  -32.2481  -17.2990 C   0  0  0  0  0  0  0  0  0  0  0  0
   22.6565  -31.5795  -17.0456 C   0  0  0  0  0  0  0  0  0  0  0  0
   23.5616  -32.0036  -16.0772 C   0  0  0  0  0  0  0  0  0  0  0  0
   26.3949  -31.6693  -17.9551 O   0  0  0  0  0  0  0  0  0  0  0  0
   26.0466  -31.2914  -19.1023 O   0  0  0  0  0  0  0  0  0  0  0  0
  2  1  1  0
  3  2  1  0
  3  4  1  1
  5  3  1  0
  5  6  1  6
  7  5  1  0
  7  8  2  0
  9 10  1  0
 10 12  1  0
 11 10  2  0
 12 13  1  0
 13 14  1  0
 14 15  1  0
 16 15  1  1
 16 17  1  0
 17  7  1  0
 18 16  1  0
 19 18  2  0
 20 18  1  0
 21 20  1  0
 21 22  1  6
 22 23  1  0
 23 31  1  0
 23 24  2  0
 24 25  1  0
 26 27  2  0
 26 25  1  0
 28 27  1  0
 29 28  2  0
 30 29  1  0
 30 31  2  0
 31 26  1  0
 32 21  1  0
 33 32  2  0
 34 32  1  0
M  END
$$$$
