IRW.pdb
     RDKit          3D

 34 35  0  0  1  0  0  0  0  0999 V2000
   17.1301  -18.8772  -12.5418 C   0  0  0  0  0  0  0  0  0  0  0  0
   18.1325  -19.3778  -13.5523 C   0  0  0  0  0  0  0  0  0  0  0  0
   19.4266  -19.7891  -12.9048 C   0  0  2  0  0  0  0  0  0  0  0  0
   19.9700  -18.5881  -12.1501 C   0  0  0  0  0  0  0  0  0  0  0  0
   20.4304  -20.1923  -13.9333 C   0  0  2  0  0  0  0  0  0  0  0  0
   19.9864  -21.3546  -14.6494 N   0  0  0  0  0  0  0  0  0  0  0  0
   21.7838  -20.4134  -13.3946 C   0  0  0  0  0  0  0  0  0  0  0  0
   22.4429  -19.5001  -12.8075 O   0  0  0  0  0  0  0  0  0  0  0  0
   25.0889  -23.9131  -17.0065 N   0  0  0  0  0  0  0  0  0  0  0  0
   25.7401  -25.0510  -16.5101 C   0  0  0  0  0  0  0  0  0  0  0  0
   26.9410  -25.3299  -16.9079 N   0  0  0  0  0  0  0  0  0  0  0  0
   25.0938  -25.8923  -15.5766 N   0  0  0  0  0  0  0  0  0  0  0  0
   23.9395  -25.4726  -14.8504 C   0  0  0  0  0  0  0  0  0  0  0  0
   23.7876  -23.9877  -14.6808 C   0  0  0  0  0  0  0  0  0  0  0  0
   24.0185  -23.4986  -13.2967 C   0  0  0  0  0  0  0  0  0  0  0  0
   23.7205  -22.0213  -13.1410 C   0  0  2  0  0  0  0  0  0  0  0  0
   22.3801  -21.6922  -13.5340 N   0  0  0  0  0  0  0  0  0  0  0  0
   24.7257  -21.2806  -13.9862 C   0  0  0  0  0  0  0  0  0  0  0  0
   24.4940  -21.0864  -15.2060 O   0  0  0  0  0  0  0  0  0  0  0  0
   27.4685  -26.1176  -16.5214 N   0  0  0  0  0  0  0  0  0  0  0  0
   25.9424  -20.7860  -13.4527 C   0  0  2  0  0  0  0  0  0  0  0  0
   26.7685  -19.9594  -14.3072 C   0  0  0  0  0  0  0  0  0  0  0  0
   27.8059  -19.2872  -13.4272 C   0  0  0  0  0  0  0  0  0  0  0  0
   28.3328  -20.2839  -12.4562 C   0  0  0  0  0  0  0  0  0  0  0  0
   29.4229  -21.1143  -12.5153 N   0  0  0  0  0  0  0  0  0  0  0  0
   29.4944  -21.8503  -11.3754 C   0  0  0  0  0  0  0  0  0  0  0  0
   28.4787  -21.5228  -10.5711 C   0  0  0  0  0  0  0  0  0  0  0  0
   28.1126  -21.9695   -9.3285 C   0  0  0  0  0  0  0  0  0  0  0  0
   26.9762  -21.4327   -8.7094 C   0  0  0  0  0  0  0  0  0  0  0  0
   26.2217  -20.4635   -9.3301 C   0  0  0  0  0  0  0  0  0  0  0  0
   26.6240  -20.0397  -10.5830 C   0  0  0  0  0  0  0  0  0  0  0  0
   27.7483  -20.5557  -11.2207 C   0  0  0  0  0  0  0  0  0  0  0  0
   27.5291  -20.8548  -15.2488 O   0  0  0  0  0  0  0  0  0  0  0  0
   28.1804  -20.3819  -16.2145 O   0  0  0  0  0  0  0  0  0  0  0  0
  2  1  1  0
  3  2  1  0
  3  4  1  6
  5  3  1  0
  5  6  1  1
  7  5  1  0
  7  8  2  0
  9 10  1  0
 10 12  1  0
 11 10  2  0
 12 13  1  0
 13 14  1  0
 14 15  1  0
 16 15  1  6
 16 17  1  0
 17  7  1  0
 18 16  1  0
 19 18  2  0
 20 18  1  0
 21 20  1  0
 21 22  1  1
 22 23  1  0
 23 31  1  0
 23 24  2  0
 24 25  1  0
 26 27  2  0
 26 25  1  0
 28 27  1  0
 29 28  2  0
 30 29  1  0
 30 31  2  0
 31 26  1  0
 32 21  1  0
 33 32  2  0
 34 32  1  0
M  END
$$$$
