IRW.pdb
     RDKit          3D

 34 35  0  0  1  0  0  0  0  0999 V2000
   27.1682  -14.7243  -18.9485 C   0  0  0  0  0  0  0  0  0  0  0  0
   27.7811  -15.4965  -17.8063 C   0  0  0  0  0  0  0  0  0  0  0  0
   27.0677  -16.7979  -17.5602 C   0  0  2  0  0  0  0  0  0  0  0  0
   25.6131  -16.4801  -17.2600 C   0  0  0  0  0  0  0  0  0  0  0  0
   27.6476  -17.5067  -16.3815 C   0  0  2  0  0  0  0  0  0  0  0  0
   29.0686  -17.6533  -16.5243 N   0  0  0  0  0  0  0  0  0  0  0  0
   27.0271  -18.8138  -16.1042 C   0  0  0  0  0  0  0  0  0  0  0  0
   25.7691  -18.9695  -16.0239 O   0  0  0  0  0  0  0  0  0  0  0  0
   27.6506  -25.8587  -17.8059 N   0  0  0  0  0  0  0  0  0  0  0  0
   28.7458  -25.7839  -16.9341 C   0  0  0  0  0  0  0  0  0  0  0  0
   28.9701  -26.7484  -16.0988 N   0  0  0  0  0  0  0  0  0  0  0  0
   29.6066  -24.6637  -16.9646 N   0  0  0  0  0  0  0  0  0  0  0  0
   29.4044  -23.5771  -17.8669 C   0  0  0  0  0  0  0  0  0  0  0  0
   28.4242  -22.5335  -17.4121 C   0  0  0  0  0  0  0  0  0  0  0  0
   28.3651  -22.3436  -15.9395 C   0  0  0  0  0  0  0  0  0  0  0  0
   27.4013  -21.2490  -15.5290 C   0  0  2  0  0  0  0  0  0  0  0  0
   27.8601  -19.9460  -15.9179 N   0  0  0  0  0  0  0  0  0  0  0  0
   27.2475  -21.3400  -14.0319 C   0  0  0  0  0  0  0  0  0  0  0  0
   28.2632  -21.4918  -13.3075 O   0  0  0  0  0  0  0  0  0  0  0  0
   29.7624  -26.7281  -15.4507 N   0  0  0  0  0  0  0  0  0  0  0  0
   25.9826  -21.2607  -13.3967 C   0  0  1  0  0  0  0  0  0  0  0  0
   25.9459  -21.3407  -11.9516 C   0  0  0  0  0  0  0  0  0  0  0  0
   26.7416  -20.1680  -11.4093 C   0  0  0  0  0  0  0  0  0  0  0  0
   26.5554  -20.1001   -9.9347 C   0  0  0  0  0  0  0  0  0  0  0  0
   25.4539  -19.7961   -9.1758 N   0  0  0  0  0  0  0  0  0  0  0  0
   25.7779  -19.8664   -7.8581 C   0  0  0  0  0  0  0  0  0  0  0  0
   27.0636  -20.2089   -7.7347 C   0  0  0  0  0  0  0  0  0  0  0  0
   27.8574  -20.4097   -6.6360 C   0  0  0  0  0  0  0  0  0  0  0  0
   29.1990  -20.7732   -6.8111 C   0  0  0  0  0  0  0  0  0  0  0  0
   29.7323  -20.9316   -8.0698 C   0  0  0  0  0  0  0  0  0  0  0  0
   28.8990  -20.7197   -9.1524 C   0  0  0  0  0  0  0  0  0  0  0  0
   27.5629  -20.3582   -9.0072 C   0  0  0  0  0  0  0  0  0  0  0  0
   24.5255  -21.1342  -11.4968 O   0  0  0  0  0  0  0  0  0  0  0  0
   23.6873  -20.5449  -12.2250 O   0  0  0  0  0  0  0  0  0  0  0  0
  2  1  1  0
  3  2  1  0
  3  4  1  1
  5  3  1  0
  5  6  1  6
  7  5  1  0
  7  8  2  0
  9 10  1  0
 10 12  1  0
 11 10  2  0
 12 13  1  0
 13 14  1  0
 14 15  1  0
 16 15  1  1
 16 17  1  0
 17  7  1  0
 18 16  1  0
 19 18  2  0
 20 18  1  0
 21 20  1  0
 21 22  1  1
 22 23  1  0
 23 31  1  0
 23 24  2  0
 24 25  1  0
 26 27  2  0
 26 25  1  0
 28 27  1  0
 29 28  2  0
 30 29  1  0
 30 31  2  0
 31 26  1  0
 32 21  1  0
 33 32  2  0
 34 32  1  0
M  END
$$$$
