IRW.pdb
     RDKit          3D

 34 35  0  0  1  0  0  0  0  0999 V2000
   29.7568  -20.5652  -19.2930 C   0  0  0  0  0  0  0  0  0  0  0  0
   29.3357  -21.3664  -18.0858 C   0  0  0  0  0  0  0  0  0  0  0  0
   28.3648  -20.6110  -17.2200 C   0  0  2  0  0  0  0  0  0  0  0  0
   29.0540  -19.3425  -16.7477 C   0  0  0  0  0  0  0  0  0  0  0  0
   27.9858  -21.4151  -16.0209 C   0  0  2  0  0  0  0  0  0  0  0  0
   27.2947  -22.6122  -16.4086 N   0  0  0  0  0  0  0  0  0  0  0  0
   27.1937  -20.6704  -15.0267 C   0  0  0  0  0  0  0  0  0  0  0  0
   27.6033  -19.5914  -14.4964 O   0  0  0  0  0  0  0  0  0  0  0  0
   20.5444  -21.6274  -15.6268 N   0  0  0  0  0  0  0  0  0  0  0  0
   20.3350  -20.2508  -15.4637 C   0  0  0  0  0  0  0  0  0  0  0  0
   19.8089  -19.5617  -16.4264 N   0  0  0  0  0  0  0  0  0  0  0  0
   20.6923  -19.6133  -14.2543 N   0  0  0  0  0  0  0  0  0  0  0  0
   21.2638  -20.3293  -13.1604 C   0  0  0  0  0  0  0  0  0  0  0  0
   22.7331  -20.1074  -12.9400 C   0  0  0  0  0  0  0  0  0  0  0  0
   23.6115  -20.7411  -13.9573 C   0  0  0  0  0  0  0  0  0  0  0  0
   25.0840  -20.5935  -13.6323 C   0  0  2  0  0  0  0  0  0  0  0  0
   25.9246  -21.1718  -14.6415 N   0  0  0  0  0  0  0  0  0  0  0  0
   25.3071  -21.2618  -12.2993 C   0  0  0  0  0  0  0  0  0  0  0  0
   25.2071  -22.5108  -12.2019 O   0  0  0  0  0  0  0  0  0  0  0  0
   19.5830  -18.5690  -16.3188 N   0  0  0  0  0  0  0  0  0  0  0  0
   25.6302  -20.5268  -11.1309 C   0  0  2  0  0  0  0  0  0  0  0  0
   25.7770  -21.2592   -9.8907 C   0  0  0  0  0  0  0  0  0  0  0  0
   27.1477  -20.9329   -9.3277 C   0  0  0  0  0  0  0  0  0  0  0  0
   27.0084  -20.5965   -7.8850 C   0  0  0  0  0  0  0  0  0  0  0  0
   26.0067  -20.8648   -6.9870 N   0  0  0  0  0  0  0  0  0  0  0  0
   26.3354  -20.3489   -5.7738 C   0  0  0  0  0  0  0  0  0  0  0  0
   27.5271  -19.7495   -5.8543 C   0  0  0  0  0  0  0  0  0  0  0  0
   28.2868  -19.0910   -4.9233 C   0  0  0  0  0  0  0  0  0  0  0  0
   29.5250  -18.5535   -5.2983 C   0  0  0  0  0  0  0  0  0  0  0  0
   29.9902  -18.6765   -6.5876 C   0  0  0  0  0  0  0  0  0  0  0  0
   29.1943  -19.3476   -7.4970 C   0  0  0  0  0  0  0  0  0  0  0  0
   27.9606  -19.8913   -7.1516 C   0  0  0  0  0  0  0  0  0  0  0  0
   24.7755  -20.7281   -8.8999 O   0  0  0  0  0  0  0  0  0  0  0  0
   24.1783  -19.6396   -9.0967 O   0  0  0  0  0  0  0  0  0  0  0  0
  2  1  1  0
  3  2  1  0
  3  4  1  1
  5  3  1  0
  5  6  1  6
  7  5  1  0
  7  8  2  0
  9 10  1  0
 10 12  1  0
 11 10  2  0
 12 13  1  0
 13 14  1  0
 14 15  1  0
 16 15  1  6
 16 17  1  0
 17  7  1  0
 18 16  1  0
 19 18  2  0
 20 18  1  0
 21 20  1  0
 21 22  1  6
 22 23  1  0
 23 31  1  0
 23 24  2  0
 24 25  1  0
 26 27  2  0
 26 25  1  0
 28 27  1  0
 29 28  2  0
 30 29  1  0
 30 31  2  0
 31 26  1  0
 32 21  1  0
 33 32  2  0
 34 32  1  0
M  END
$$$$
