IRW.pdb
     RDKit          3D

 34 35  0  0  1  0  0  0  0  0999 V2000
   23.1631  -15.3890  -16.7948 C   0  0  0  0  0  0  0  0  0  0  0  0
   23.8994  -16.4336  -17.5969 C   0  0  0  0  0  0  0  0  0  0  0  0
   24.3567  -17.5821  -16.7397 C   0  0  2  0  0  0  0  0  0  0  0  0
   25.3092  -17.0298  -15.6935 C   0  0  0  0  0  0  0  0  0  0  0  0
   25.0893  -18.5948  -17.5556 C   0  0  2  0  0  0  0  0  0  0  0  0
   24.3012  -19.0074  -18.6823 N   0  0  0  0  0  0  0  0  0  0  0  0
   25.5358  -19.7714  -16.7894 C   0  0  0  0  0  0  0  0  0  0  0  0
   24.7226  -20.6043  -16.2812 O   0  0  0  0  0  0  0  0  0  0  0  0
   33.0459  -24.5379  -16.9651 N   0  0  0  0  0  0  0  0  0  0  0  0
   32.0432  -25.1127  -16.1716 C   0  0  0  0  0  0  0  0  0  0  0  0
   32.0054  -26.3980  -16.0138 N   0  0  0  0  0  0  0  0  0  0  0  0
   31.0766  -24.2967  -15.5419 N   0  0  0  0  0  0  0  0  0  0  0  0
   30.5365  -23.1368  -16.1735 C   0  0  0  0  0  0  0  0  0  0  0  0
   29.5976  -22.3207  -15.3315 C   0  0  0  0  0  0  0  0  0  0  0  0
   29.0029  -21.1509  -16.0288 C   0  0  0  0  0  0  0  0  0  0  0  0
   27.4974  -21.0806  -15.8735 C   0  0  2  0  0  0  0  0  0  0  0  0
   26.9251  -19.9883  -16.6077 N   0  0  0  0  0  0  0  0  0  0  0  0
   27.2155  -20.9432  -14.3987 C   0  0  0  0  0  0  0  0  0  0  0  0
   27.4994  -19.8722  -13.8055 O   0  0  0  0  0  0  0  0  0  0  0  0
   31.2981  -26.8493  -15.4273 N   0  0  0  0  0  0  0  0  0  0  0  0
   26.6338  -21.9902  -13.6405 C   0  0  1  0  0  0  0  0  0  0  0  0
   26.1360  -21.6716  -12.3188 C   0  0  0  0  0  0  0  0  0  0  0  0
   26.9675  -20.5210  -11.7832 C   0  0  0  0  0  0  0  0  0  0  0  0
   26.7666  -20.4252  -10.3120 C   0  0  0  0  0  0  0  0  0  0  0  0
   25.6617  -20.0919   -9.5706 N   0  0  0  0  0  0  0  0  0  0  0  0
   25.9703  -20.1445   -8.2484 C   0  0  0  0  0  0  0  0  0  0  0  0
   27.2494  -20.5040   -8.1051 C   0  0  0  0  0  0  0  0  0  0  0  0
   28.0282  -20.6979   -6.9945 C   0  0  0  0  0  0  0  0  0  0  0  0
   29.3660  -21.0842   -7.1486 C   0  0  0  0  0  0  0  0  0  0  0  0
   29.9103  -21.2719   -8.3986 C   0  0  0  0  0  0  0  0  0  0  0  0
   29.0920  -21.0662   -9.4936 C   0  0  0  0  0  0  0  0  0  0  0  0
   27.7600  -20.6824   -9.3693 C   0  0  0  0  0  0  0  0  0  0  0  0
   24.7292  -21.1514  -12.4499 O   0  0  0  0  0  0  0  0  0  0  0  0
   23.7892  -21.9002  -12.8188 O   0  0  0  0  0  0  0  0  0  0  0  0
  2  1  1  0
  3  2  1  0
  3  4  1  1
  5  3  1  0
  5  6  1  6
  7  5  1  0
  7  8  2  0
  9 10  1  0
 10 12  1  0
 11 10  2  0
 12 13  1  0
 13 14  1  0
 14 15  1  0
 16 15  1  1
 16 17  1  0
 17  7  1  0
 18 16  1  0
 19 18  2  0
 20 18  1  0
 21 20  1  0
 21 22  1  1
 22 23  1  0
 23 31  1  0
 23 24  2  0
 24 25  1  0
 26 27  2  0
 26 25  1  0
 28 27  1  0
 29 28  2  0
 30 29  1  0
 30 31  2  0
 31 26  1  0
 32 21  1  0
 33 32  2  0
 34 32  1  0
M  END
$$$$
