LCN.pdb
     RDKit          3D

 23 22  0  0  1  0  0  0  0  0999 V2000
   27.6829  -14.4690  -15.9050 C   0  0  0  0  0  0  0  0  0  0  0  0
   26.5726  -14.6126  -16.8880 C   0  0  2  0  0  0  0  0  0  0  0  0
   27.0313  -15.4910  -18.0400 C   0  0  0  0  0  0  0  0  0  0  0  0
   25.9369  -13.3494  -17.3470 C   0  0  0  0  0  0  0  0  0  0  0  0
   25.3189  -12.4913  -16.2998 C   0  0  2  0  0  0  0  0  0  0  0  0
   24.7850  -13.1952  -15.1854 N   0  0  0  0  0  0  0  0  0  0  0  0
   24.3648  -11.5667  -16.9686 C   0  0  0  0  0  0  0  0  0  0  0  0
   24.6891  -10.9754  -18.0555 O   0  0  0  0  0  0  0  0  0  0  0  0
   23.0677  -11.2594  -16.5004 N   0  0  0  0  0  0  0  0  0  0  0  0
   22.1303  -10.4390  -17.2422 C   0  0  1  0  0  0  0  0  0  0  0  0
   20.7897  -11.0790  -17.3997 C   0  0  0  0  0  0  0  0  0  0  0  0
   19.6009   -9.8082  -17.8956 S   0  0  0  0  0  0  0  0  0  0  0  0
   22.0500   -9.0699  -16.6497 C   0  0  0  0  0  0  0  0  0  0  0  0
   21.4100   -8.1802  -17.2786 O   0  0  0  0  0  0  0  0  0  0  0  0
   22.4147   -4.8523  -13.8249 N   0  0  0  0  0  0  0  0  0  0  0  0
   22.9600   -4.9815  -15.1280 C   0  0  0  0  0  0  0  0  0  0  0  0
   23.3872   -3.9480  -15.6965 O   0  0  0  0  0  0  0  0  0  0  0  0
   23.0111   -6.3153  -15.7772 C   0  0  0  0  0  0  0  0  0  0  0  0
   22.5306   -7.4060  -14.8436 C   0  0  2  0  0  0  0  0  0  0  0  0
   22.6442   -8.7116  -15.4337 N   0  0  0  0  0  0  0  0  0  0  0  0
   21.1578   -7.0639  -14.4329 C   0  0  0  0  0  0  0  0  0  0  0  0
   20.2137   -7.6679  -15.0062 O   0  0  0  0  0  0  0  0  0  0  0  0
   20.8217   -6.1373  -13.4731 O   0  0  0  0  0  0  0  0  0  0  0  0
  2  3  1  6
  2  1  1  0
  4  2  1  0
  5  7  1  0
  5  4  1  0
  5  6  1  1
  7  9  1  0
  8  7  2  0
  9 10  1  0
 10 13  1  0
 10 11  1  1
 11 12  1  0
 13 14  2  0
 13 20  1  0
 16 18  1  0
 16 15  1  0
 17 16  2  0
 19 21  1  0
 19 18  1  6
 20 19  1  0
 21 23  1  0
 22 21  2  0
M  END
$$$$
