LCN.pdb
     RDKit          3D

 23 22  0  0  1  0  0  0  0  0999 V2000
   27.3821  -16.4867  -17.1895 C   0  0  0  0  0  0  0  0  0  0  0  0
   28.2051  -17.6421  -16.7342 C   0  0  2  0  0  0  0  0  0  0  0  0
   29.0317  -18.1610  -17.8989 C   0  0  0  0  0  0  0  0  0  0  0  0
   27.4767  -18.7239  -16.0201 C   0  0  0  0  0  0  0  0  0  0  0  0
   26.6181  -18.3118  -14.8765 C   0  0  2  0  0  0  0  0  0  0  0  0
   27.2638  -17.5003  -13.9034 N   0  0  0  0  0  0  0  0  0  0  0  0
   25.9598  -19.5306  -14.3346 C   0  0  0  0  0  0  0  0  0  0  0  0
   25.2786  -20.2948  -15.1015 O   0  0  0  0  0  0  0  0  0  0  0  0
   26.0141  -19.9524  -12.9873 N   0  0  0  0  0  0  0  0  0  0  0  0
   25.1790  -21.0104  -12.4530 C   0  0  1  0  0  0  0  0  0  0  0  0
   25.5706  -21.4241  -11.0721 C   0  0  0  0  0  0  0  0  0  0  0  0
   25.6864  -19.9427  -10.0395 S   0  0  0  0  0  0  0  0  0  0  0  0
   23.7352  -20.6406  -12.5570 C   0  0  0  0  0  0  0  0  0  0  0  0
   23.4298  -19.4147  -12.5825 O   0  0  0  0  0  0  0  0  0  0  0  0
   18.7088  -20.4445  -13.2231 N   0  0  0  0  0  0  0  0  0  0  0  0
   19.6519  -20.0310  -14.1986 C   0  0  0  0  0  0  0  0  0  0  0  0
   19.2428  -19.3402  -15.1626 O   0  0  0  0  0  0  0  0  0  0  0  0
   21.0775  -20.4195  -14.0575 C   0  0  0  0  0  0  0  0  0  0  0  0
   21.3124  -21.2199  -12.7940 C   0  0  2  0  0  0  0  0  0  0  0  0
   22.6951  -21.5752  -12.6283 N   0  0  0  0  0  0  0  0  0  0  0  0
   20.4073  -22.3816  -12.8315 C   0  0  0  0  0  0  0  0  0  0  0  0
   20.9055  -23.4949  -13.1434 O   0  0  0  0  0  0  0  0  0  0  0  0
   19.0603  -22.3505  -12.5533 O   0  0  0  0  0  0  0  0  0  0  0  0
  2  3  1  6
  2  1  1  0
  4  2  1  0
  5  7  1  0
  5  4  1  0
  5  6  1  1
  7  9  1  0
  8  7  2  0
  9 10  1  0
 10 13  1  0
 10 11  1  1
 11 12  1  0
 13 14  2  0
 13 20  1  0
 16 18  1  0
 16 15  1  0
 17 16  2  0
 19 21  1  0
 19 18  1  6
 20 19  1  0
 21 23  1  0
 22 21  2  0
M  END
$$$$
