LCN.pdb
     RDKit          3D

 23 22  0  0  1  0  0  0  0  0999 V2000
   27.4619  -14.9579  -15.6545 C   0  0  0  0  0  0  0  0  0  0  0  0
   26.0242  -15.1400  -16.0000 C   0  0  2  0  0  0  0  0  0  0  0  0
   25.1787  -14.2195  -15.1356 C   0  0  0  0  0  0  0  0  0  0  0  0
   25.5246  -16.5403  -16.0068 C   0  0  0  0  0  0  0  0  0  0  0  0
   26.3923  -17.5581  -16.6593 C   0  0  2  0  0  0  0  0  0  0  0  0
   26.4668  -17.4634  -18.0763 N   0  0  0  0  0  0  0  0  0  0  0  0
   25.9972  -18.8963  -16.1438 C   0  0  0  0  0  0  0  0  0  0  0  0
   24.7628  -19.2224  -16.0662 O   0  0  0  0  0  0  0  0  0  0  0  0
   26.8948  -19.8967  -15.7086 N   0  0  0  0  0  0  0  0  0  0  0  0
   26.4653  -21.2061  -15.2576 C   0  0  1  0  0  0  0  0  0  0  0  0
   27.3352  -22.3121  -15.7590 C   0  0  0  0  0  0  0  0  0  0  0  0
   29.0560  -21.9121  -15.3680 S   0  0  0  0  0  0  0  0  0  0  0  0
   26.3094  -21.2228  -13.7719 C   0  0  0  0  0  0  0  0  0  0  0  0
   27.3430  -21.3772  -13.0616 O   0  0  0  0  0  0  0  0  0  0  0  0
   24.8905  -21.2626   -8.9391 N   0  0  0  0  0  0  0  0  0  0  0  0
   25.6842  -20.2326   -9.5060 C   0  0  0  0  0  0  0  0  0  0  0  0
   26.2609  -19.4339   -8.7293 O   0  0  0  0  0  0  0  0  0  0  0  0
   25.8111  -20.1264  -10.9810 C   0  0  0  0  0  0  0  0  0  0  0  0
   24.9269  -21.1316  -11.6881 C   0  0  2  0  0  0  0  0  0  0  0  0
   25.0811  -21.0770  -13.1161 N   0  0  0  0  0  0  0  0  0  0  0  0
   23.5440  -20.8989  -11.2369 C   0  0  0  0  0  0  0  0  0  0  0  0
   22.7217  -20.4673  -12.0868 O   0  0  0  0  0  0  0  0  0  0  0  0
   23.0760  -21.1147   -9.9612 O   0  0  0  0  0  0  0  0  0  0  0  0
  2  3  1  1
  2  1  1  0
  4  2  1  0
  5  7  1  0
  5  4  1  0
  5  6  1  6
  7  9  1  0
  8  7  2  0
  9 10  1  0
 10 13  1  0
 10 11  1  1
 11 12  1  0
 13 14  2  0
 13 20  1  0
 16 18  1  0
 16 15  1  0
 17 16  2  0
 19 21  1  0
 19 18  1  1
 20 19  1  0
 21 23  1  0
 22 21  2  0
M  END
$$$$
