LCN.pdb
     RDKit          3D

 23 22  0  0  1  0  0  0  0  0999 V2000
   19.5969  -12.2325  -20.0748 C   0  0  0  0  0  0  0  0  0  0  0  0
   19.9390  -12.9508  -18.8153 C   0  0  2  0  0  0  0  0  0  0  0  0
   18.7410  -13.7678  -18.3608 C   0  0  0  0  0  0  0  0  0  0  0  0
   20.5155  -12.1214  -17.7243 C   0  0  0  0  0  0  0  0  0  0  0  0
   21.7011  -11.2906  -18.0693 C   0  0  2  0  0  0  0  0  0  0  0  0
   22.7655  -11.9952  -18.6962 N   0  0  0  0  0  0  0  0  0  0  0  0
   22.0910  -10.5218  -16.8571 C   0  0  0  0  0  0  0  0  0  0  0  0
   21.2119   -9.8774  -16.1876 O   0  0  0  0  0  0  0  0  0  0  0  0
   23.4033  -10.4267  -16.3425 N   0  0  0  0  0  0  0  0  0  0  0  0
   23.7561   -9.5780  -15.2211 C   0  0  1  0  0  0  0  0  0  0  0  0
   25.0797   -9.9224  -14.6203 C   0  0  0  0  0  0  0  0  0  0  0  0
   26.3680   -9.6133  -15.8527 S   0  0  0  0  0  0  0  0  0  0  0  0
   23.6527   -8.1372  -15.6022 C   0  0  0  0  0  0  0  0  0  0  0  0
   24.2066   -7.7582  -16.6729 O   0  0  0  0  0  0  0  0  0  0  0  0
   24.4276   -4.9863  -17.3369 N   0  0  0  0  0  0  0  0  0  0  0  0
   23.0402   -5.1468  -17.5848 C   0  0  0  0  0  0  0  0  0  0  0  0
   22.6162   -4.9255  -18.7446 O   0  0  0  0  0  0  0  0  0  0  0  0
   22.1379   -5.5661  -16.4835 C   0  0  0  0  0  0  0  0  0  0  0  0
   22.9004   -5.7857  -15.1941 C   0  0  2  0  0  0  0  0  0  0  0  0
   22.9758   -7.1768  -14.8407 N   0  0  0  0  0  0  0  0  0  0  0  0
   22.2687   -4.9496  -14.1586 C   0  0  0  0  0  0  0  0  0  0  0  0
   22.3550   -3.7005  -14.2898 O   0  0  0  0  0  0  0  0  0  0  0  0
   21.5910   -5.4218  -13.0583 O   0  0  0  0  0  0  0  0  0  0  0  0
  2  3  1  1
  2  1  1  0
  4  2  1  0
  5  7  1  0
  5  4  1  0
  5  6  1  1
  7  9  1  0
  8  7  2  0
  9 10  1  0
 10 13  1  0
 10 11  1  6
 11 12  1  0
 13 14  2  0
 13 20  1  0
 16 18  1  0
 16 15  1  0
 17 16  2  0
 19 21  1  0
 19 18  1  6
 20 19  1  0
 21 23  1  0
 22 21  2  0
M  END
$$$$
