LCN.pdb
     RDKit          3D

 23 22  0  0  1  0  0  0  0  0999 V2000
   21.7552  -14.2957  -21.1976 C   0  0  0  0  0  0  0  0  0  0  0  0
   20.4453  -14.2095  -20.4931 C   0  0  2  0  0  0  0  0  0  0  0  0
   19.4154  -13.5862  -21.4204 C   0  0  0  0  0  0  0  0  0  0  0  0
   20.4655  -13.5754  -19.1484 C   0  0  0  0  0  0  0  0  0  0  0  0
   21.5093  -14.0498  -18.1996 C   0  0  2  0  0  0  0  0  0  0  0  0
   21.4001  -15.4164  -17.8217 N   0  0  0  0  0  0  0  0  0  0  0  0
   21.5660  -13.0914  -17.0634 C   0  0  0  0  0  0  0  0  0  0  0  0
   20.5334  -12.8849  -16.3374 O   0  0  0  0  0  0  0  0  0  0  0  0
   22.7055  -12.3470  -16.6845 N   0  0  0  0  0  0  0  0  0  0  0  0
   22.7341  -11.4744  -15.5270 C   0  0  1  0  0  0  0  0  0  0  0  0
   23.9619  -11.6476  -14.6938 C   0  0  0  0  0  0  0  0  0  0  0  0
   24.2610  -13.4184  -14.4724 S   0  0  0  0  0  0  0  0  0  0  0  0
   22.5096  -10.0551  -15.9357 C   0  0  0  0  0  0  0  0  0  0  0  0
   23.2544   -9.5630  -16.8301 O   0  0  0  0  0  0  0  0  0  0  0  0
   19.7262   -5.8488  -18.2312 N   0  0  0  0  0  0  0  0  0  0  0  0
   19.8095   -6.2358  -16.8691 C   0  0  0  0  0  0  0  0  0  0  0  0
   19.6988   -5.3451  -15.9925 O   0  0  0  0  0  0  0  0  0  0  0  0
   20.0223   -7.6624  -16.5194 C   0  0  0  0  0  0  0  0  0  0  0  0
   21.3185   -7.8613  -15.7626 C   0  0  2  0  0  0  0  0  0  0  0  0
   21.5189   -9.2334  -15.3848 N   0  0  0  0  0  0  0  0  0  0  0  0
   21.3104   -6.9319  -14.6196 C   0  0  0  0  0  0  0  0  0  0  0  0
   21.4589   -5.7066  -14.8676 O   0  0  0  0  0  0  0  0  0  0  0  0
   21.1538   -7.2930  -13.3012 O   0  0  0  0  0  0  0  0  0  0  0  0
  2  3  1  6
  2  1  1  0
  4  2  1  0
  5  7  1  0
  5  4  1  0
  5  6  1  1
  7  9  1  0
  8  7  2  0
  9 10  1  0
 10 13  1  0
 10 11  1  6
 11 12  1  0
 13 14  2  0
 13 20  1  0
 16 18  1  0
 16 15  1  0
 17 16  2  0
 19 21  1  0
 19 18  1  1
 20 19  1  0
 21 23  1  0
 22 21  2  0
M  END
$$$$
