LCN.pdb
     RDKit          3D

 23 22  0  0  1  0  0  0  0  0999 V2000
   17.0075  -12.8447  -17.1009 C   0  0  0  0  0  0  0  0  0  0  0  0
   17.6782  -13.4911  -15.9382 C   0  0  2  0  0  0  0  0  0  0  0  0
   16.6845  -13.6284  -14.7968 C   0  0  0  0  0  0  0  0  0  0  0  0
   18.9674  -12.8883  -15.5078 C   0  0  0  0  0  0  0  0  0  0  0  0
   19.9866  -12.6587  -16.5677 C   0  0  2  0  0  0  0  0  0  0  0  0
   20.5201  -13.8398  -17.1531 N   0  0  0  0  0  0  0  0  0  0  0  0
   21.0032  -11.7155  -16.0298 C   0  0  0  0  0  0  0  0  0  0  0  0
   21.7537  -12.0594  -15.0527 O   0  0  0  0  0  0  0  0  0  0  0  0
   21.2367  -10.4093  -16.5148 N   0  0  0  0  0  0  0  0  0  0  0  0
   22.2878   -9.5501  -16.0057 C   0  0  1  0  0  0  0  0  0  0  0  0
   23.5392   -9.6113  -16.8192 C   0  0  0  0  0  0  0  0  0  0  0  0
   23.0834   -9.7490  -18.5650 S   0  0  0  0  0  0  0  0  0  0  0  0
   21.7833   -8.1553  -15.8272 C   0  0  0  0  0  0  0  0  0  0  0  0
   21.0271   -7.6721  -16.7168 O   0  0  0  0  0  0  0  0  0  0  0  0
   21.3238   -3.5856  -13.2800 N   0  0  0  0  0  0  0  0  0  0  0  0
   22.4939   -3.7315  -14.0684 C   0  0  0  0  0  0  0  0  0  0  0  0
   23.3184   -2.7861  -14.0852 O   0  0  0  0  0  0  0  0  0  0  0  0
   22.7112   -4.9794  -14.8420 C   0  0  0  0  0  0  0  0  0  0  0  0
   21.6272   -5.9997  -14.5659 C   0  0  2  0  0  0  0  0  0  0  0  0
   22.0993   -7.3475  -14.7282 N   0  0  0  0  0  0  0  0  0  0  0  0
   20.4798   -5.6708  -15.4293 C   0  0  0  0  0  0  0  0  0  0  0  0
   20.7092   -5.4867  -16.6533 O   0  0  0  0  0  0  0  0  0  0  0  0
   19.1759   -5.5479  -15.0078 O   0  0  0  0  0  0  0  0  0  0  0  0
  2  3  1  1
  2  1  1  0
  4  2  1  0
  5  7  1  0
  5  4  1  0
  5  6  1  1
  7  9  1  0
  8  7  2  0
  9 10  1  0
 10 13  1  0
 10 11  1  6
 11 12  1  0
 13 14  2  0
 13 20  1  0
 16 18  1  0
 16 15  1  0
 17 16  2  0
 19 21  1  0
 19 18  1  6
 20 19  1  0
 21 23  1  0
 22 21  2  0
M  END
$$$$
