LCN.pdb
     RDKit          3D

 23 22  0  0  1  0  0  0  0  0999 V2000
   12.9574  -12.6021  -11.6176 C   0  0  0  0  0  0  0  0  0  0  0  0
   12.8787  -11.9614  -10.2749 C   0  0  2  0  0  0  0  0  0  0  0  0
   11.4856  -12.1629   -9.7022 C   0  0  0  0  0  0  0  0  0  0  0  0
   13.3330  -10.5479  -10.1962 C   0  0  0  0  0  0  0  0  0  0  0  0
   14.7210  -10.2639  -10.6516 C   0  0  2  0  0  0  0  0  0  0  0  0
   15.7310  -11.0383  -10.0171 N   0  0  0  0  0  0  0  0  0  0  0  0
   14.9321   -8.7928  -10.5896 C   0  0  0  0  0  0  0  0  0  0  0  0
   14.0859   -7.9936  -11.1200 O   0  0  0  0  0  0  0  0  0  0  0  0
   16.0305   -8.1550   -9.9710 N   0  0  0  0  0  0  0  0  0  0  0  0
   16.1769   -6.7140   -9.9049 C   0  0  1  0  0  0  0  0  0  0  0  0
   15.5344   -6.1153   -8.6965 C   0  0  0  0  0  0  0  0  0  0  0  0
   15.8889   -4.3410   -8.6766 S   0  0  0  0  0  0  0  0  0  0  0  0
   17.6128   -6.3267  -10.0465 C   0  0  0  0  0  0  0  0  0  0  0  0
   18.4438   -6.7875   -9.2135 O   0  0  0  0  0  0  0  0  0  0  0  0
   21.9942   -5.7788  -12.5463 N   0  0  0  0  0  0  0  0  0  0  0  0
   21.2151   -6.9641  -12.5273 C   0  0  0  0  0  0  0  0  0  0  0  0
   21.7406   -8.0250  -12.9423 O   0  0  0  0  0  0  0  0  0  0  0  0
   19.8191   -6.9211  -12.0250 C   0  0  0  0  0  0  0  0  0  0  0  0
   19.4382   -5.5309  -11.5619 C   0  0  2  0  0  0  0  0  0  0  0  0
   18.0956   -5.4799  -11.0516 N   0  0  0  0  0  0  0  0  0  0  0  0
   19.6749   -4.6096  -12.6868 C   0  0  0  0  0  0  0  0  0  0  0  0
   20.8708   -4.3765  -13.0035 O   0  0  0  0  0  0  0  0  0  0  0  0
   18.6954   -3.9817  -13.4212 O   0  0  0  0  0  0  0  0  0  0  0  0
  2  3  1  6
  2  1  1  0
  4  2  1  0
  5  7  1  0
  5  4  1  0
  5  6  1  1
  7  9  1  0
  8  7  2  0
  9 10  1  0
 10 13  1  0
 10 11  1  1
 11 12  1  0
 13 14  2  0
 13 20  1  0
 16 18  1  0
 16 15  1  0
 17 16  2  0
 19 21  1  0
 19 18  1  6
 20 19  1  0
 21 23  1  0
 22 21  2  0
M  END
$$$$
