LCN.pdb
     RDKit          3D

 23 22  0  0  1  0  0  0  0  0999 V2000
   20.5774  -18.8489  -15.4159 C   0  0  0  0  0  0  0  0  0  0  0  0
   21.4407  -20.0112  -15.0645 C   0  0  2  0  0  0  0  0  0  0  0  0
   21.5604  -20.9309  -16.2682 C   0  0  0  0  0  0  0  0  0  0  0  0
   21.0831  -20.7396  -13.8187 C   0  0  0  0  0  0  0  0  0  0  0  0
   21.1173  -19.9583  -12.5525 C   0  0  2  0  0  0  0  0  0  0  0  0
   22.0684  -18.9014  -12.5251 N   0  0  0  0  0  0  0  0  0  0  0  0
   21.2215  -20.9202  -11.4227 C   0  0  0  0  0  0  0  0  0  0  0  0
   20.5374  -22.0010  -11.4264 O   0  0  0  0  0  0  0  0  0  0  0  0
   22.0435  -20.7524  -10.2860 N   0  0  0  0  0  0  0  0  0  0  0  0
   22.0035  -21.6399   -9.1401 C   0  0  1  0  0  0  0  0  0  0  0  0
   23.2191  -21.5375   -8.2779 C   0  0  0  0  0  0  0  0  0  0  0  0
   24.4635  -20.5578   -9.1531 S   0  0  0  0  0  0  0  0  0  0  0  0
   20.7351  -21.4491   -8.3742 C   0  0  0  0  0  0  0  0  0  0  0  0
   20.1395  -20.3385   -8.4664 O   0  0  0  0  0  0  0  0  0  0  0  0
   16.4282  -24.1089  -10.3412 N   0  0  0  0  0  0  0  0  0  0  0  0
   16.9713  -23.6546   -9.1121 C   0  0  0  0  0  0  0  0  0  0  0  0
   16.2043  -23.5624   -8.1236 O   0  0  0  0  0  0  0  0  0  0  0  0
   18.4112  -23.3048   -9.0264 C   0  0  0  0  0  0  0  0  0  0  0  0
   18.7870  -22.8357   -7.6368 C   0  0  2  0  0  0  0  0  0  0  0  0
   20.1639  -22.4316   -7.5565 N   0  0  0  0  0  0  0  0  0  0  0  0
   18.4347  -23.9131   -6.6958 C   0  0  0  0  0  0  0  0  0  0  0  0
   19.2660  -24.8465   -6.5457 O   0  0  0  0  0  0  0  0  0  0  0  0
   17.2703  -23.9836   -5.9664 O   0  0  0  0  0  0  0  0  0  0  0  0
  2  3  1  6
  2  1  1  0
  4  2  1  0
  5  7  1  0
  5  4  1  0
  5  6  1  6
  7  9  1  0
  8  7  2  0
  9 10  1  0
 10 13  1  0
 10 11  1  1
 11 12  1  0
 13 14  2  0
 13 20  1  0
 16 18  1  0
 16 15  1  0
 17 16  2  0
 19 21  1  0
 19 18  1  6
 20 19  1  0
 21 23  1  0
 22 21  2  0
M  END
$$$$
