LCN.pdb
     RDKit          3D

 23 22  0  0  1  0  0  0  0  0999 V2000
   22.4092  -11.5093  -16.3831 C   0  0  0  0  0  0  0  0  0  0  0  0
   23.0879  -10.5712  -15.4457 C   0  0  2  0  0  0  0  0  0  0  0  0
   24.4290  -11.1547  -15.0333 C   0  0  0  0  0  0  0  0  0  0  0  0
   22.2821  -10.1078  -14.2853 C   0  0  0  0  0  0  0  0  0  0  0  0
   20.9957   -9.4255  -14.5926 C   0  0  2  0  0  0  0  0  0  0  0  0
   20.9232   -8.8353  -15.8844 N   0  0  0  0  0  0  0  0  0  0  0  0
   20.6853   -8.5034  -13.4675 C   0  0  0  0  0  0  0  0  0  0  0  0
   20.7543   -8.9114  -12.2571 O   0  0  0  0  0  0  0  0  0  0  0  0
   20.3023   -7.1508  -13.6076 N   0  0  0  0  0  0  0  0  0  0  0  0
   19.9479   -6.3061  -12.4837 C   0  0  1  0  0  0  0  0  0  0  0  0
   20.2040   -4.8565  -12.7375 C   0  0  0  0  0  0  0  0  0  0  0  0
   21.9812   -4.6213  -12.9831 S   0  0  0  0  0  0  0  0  0  0  0  0
   18.5447   -6.5765  -12.0478 C   0  0  0  0  0  0  0  0  0  0  0  0
   17.6957   -6.9021  -12.9252 O   0  0  0  0  0  0  0  0  0  0  0  0
   14.4771   -9.2183   -8.9235 N   0  0  0  0  0  0  0  0  0  0  0  0
   14.9000   -8.2324   -9.8515 C   0  0  0  0  0  0  0  0  0  0  0  0
   14.0269   -7.5011  -10.3777 O   0  0  0  0  0  0  0  0  0  0  0  0
   16.3422   -8.0920  -10.1725 C   0  0  0  0  0  0  0  0  0  0  0  0
   16.7404   -6.6383  -10.3150 C   0  0  2  0  0  0  0  0  0  0  0  0
   18.1118   -6.4904  -10.7191 N   0  0  0  0  0  0  0  0  0  0  0  0
   16.4271   -5.9669   -9.0417 C   0  0  0  0  0  0  0  0  0  0  0  0
   15.2123   -5.8394   -8.7371 O   0  0  0  0  0  0  0  0  0  0  0  0
   17.3540   -5.4669   -8.1563 O   0  0  0  0  0  0  0  0  0  0  0  0
  2  3  1  1
  2  1  1  0
  4  2  1  0
  5  7  1  0
  5  4  1  0
  5  6  1  6
  7  9  1  0
  8  7  2  0
  9 10  1  0
 10 13  1  0
 10 11  1  6
 11 12  1  0
 13 14  2  0
 13 20  1  0
 16 18  1  0
 16 15  1  0
 17 16  2  0
 19 21  1  0
 19 18  1  1
 20 19  1  0
 21 23  1  0
 22 21  2  0
M  END
$$$$
