LCN.pdb
     RDKit          3D

 23 22  0  0  1  0  0  0  0  0999 V2000
   27.2870  -13.7709  -14.9466 C   0  0  0  0  0  0  0  0  0  0  0  0
   27.4712  -13.4196  -16.3827 C   0  0  2  0  0  0  0  0  0  0  0  0
   28.8844  -12.9038  -16.5971 C   0  0  0  0  0  0  0  0  0  0  0  0
   26.4389  -12.5296  -16.9767 C   0  0  0  0  0  0  0  0  0  0  0  0
   25.0269  -12.9924  -16.8932 C   0  0  2  0  0  0  0  0  0  0  0  0
   24.7759  -14.2622  -17.4823 N   0  0  0  0  0  0  0  0  0  0  0  0
   24.1540  -11.8932  -17.3856 C   0  0  0  0  0  0  0  0  0  0  0  0
   23.8091  -11.8413  -18.6162 O   0  0  0  0  0  0  0  0  0  0  0  0
   23.6397  -10.8457  -16.5894 N   0  0  0  0  0  0  0  0  0  0  0  0
   22.6014   -9.9409  -17.0430 C   0  0  1  0  0  0  0  0  0  0  0  0
   21.3803  -10.6492  -17.5313 C   0  0  0  0  0  0  0  0  0  0  0  0
   20.1076   -9.4157  -17.8960 S   0  0  0  0  0  0  0  0  0  0  0  0
   22.2971   -8.9242  -15.9915 C   0  0  0  0  0  0  0  0  0  0  0  0
   21.9291   -9.3299  -14.8528 O   0  0  0  0  0  0  0  0  0  0  0  0
   21.9393   -4.6191  -13.2347 N   0  0  0  0  0  0  0  0  0  0  0  0
   22.3315   -4.1781  -14.5246 C   0  0  0  0  0  0  0  0  0  0  0  0
   22.5328   -2.9517  -14.6954 O   0  0  0  0  0  0  0  0  0  0  0  0
   22.4918   -5.1627  -15.6235 C   0  0  0  0  0  0  0  0  0  0  0  0
   22.1596   -6.5666  -15.1641 C   0  0  2  0  0  0  0  0  0  0  0  0
   22.3954   -7.5422  -16.1929 N   0  0  0  0  0  0  0  0  0  0  0  0
   20.7708   -6.5543  -14.6728 C   0  0  0  0  0  0  0  0  0  0  0  0
   19.8516   -6.5529  -15.5330 O   0  0  0  0  0  0  0  0  0  0  0  0
   20.3947   -6.5441  -13.3495 O   0  0  0  0  0  0  0  0  0  0  0  0
  2  3  1  1
  2  1  1  0
  4  2  1  0
  5  7  1  0
  5  4  1  0
  5  6  1  6
  7  9  1  0
  8  7  2  0
  9 10  1  0
 10 13  1  0
 10 11  1  1
 11 12  1  0
 13 14  2  0
 13 20  1  0
 16 18  1  0
 16 15  1  0
 17 16  2  0
 19 21  1  0
 19 18  1  6
 20 19  1  0
 21 23  1  0
 22 21  2  0
M  END
$$$$
