FQV.pdb
     RDKit          3D

 28 28  0  0  1  0  0  0  0  0999 V2000
   25.5648  -22.3172  -12.0396 N   0  0  0  0  0  0  0  0  0  0  0  0
   24.8422  -21.0415  -12.1974 C   0  0  1  0  0  0  0  0  0  0  0  0
   25.3091  -20.0802  -11.1554 C   0  0  0  0  0  0  0  0  0  0  0  0
   24.9005  -20.5029   -9.8124 C   0  0  0  0  0  0  0  0  0  0  0  0
   25.7919  -20.7848   -8.7970 C   0  0  0  0  0  0  0  0  0  0  0  0
   25.3845  -21.1504   -7.5435 C   0  0  0  0  0  0  0  0  0  0  0  0
   24.0463  -21.2471   -7.2607 C   0  0  0  0  0  0  0  0  0  0  0  0
   23.1282  -20.9707   -8.2576 C   0  0  0  0  0  0  0  0  0  0  0  0
   23.5454  -20.6049   -9.5122 C   0  0  0  0  0  0  0  0  0  0  0  0
   25.0716  -20.5862  -13.5850 C   0  0  0  0  0  0  0  0  0  0  0  0
   26.1758  -20.8290  -14.1285 O   0  0  0  0  0  0  0  0  0  0  0  0
   23.1022  -21.6591  -18.4648 N   0  0  0  0  0  0  0  0  0  0  0  0
   23.1081  -20.3028  -18.8627 C   0  0  0  0  0  0  0  0  0  0  0  0
   23.1911  -20.0353  -20.0823 O   0  0  0  0  0  0  0  0  0  0  0  0
   23.0188  -19.1850  -17.8801 C   0  0  0  0  0  0  0  0  0  0  0  0
   22.8882  -19.6865  -16.4793 C   0  0  0  0  0  0  0  0  0  0  0  0
   24.0893  -19.3556  -15.5912 C   0  0  2  0  0  0  0  0  0  0  0  0
   24.0534  -19.8913  -14.2818 N   0  0  0  0  0  0  0  0  0  0  0  0
   24.4436  -17.9556  -15.7354 C   0  0  0  0  0  0  0  0  0  0  0  0
   23.7883  -17.0396  -15.1563 O   0  0  0  0  0  0  0  0  0  0  0  0
   28.1055  -16.4237  -17.6448 C   0  0  0  0  0  0  0  0  0  0  0  0
   27.3956  -15.8508  -16.4324 C   0  0  1  0  0  0  0  0  0  0  0  0
   27.6487  -14.3585  -16.4299 C   0  0  0  0  0  0  0  0  0  0  0  0
   25.9349  -16.1153  -16.5842 C   0  0  2  0  0  0  0  0  0  0  0  0
   25.5358  -17.4743  -16.5220 N   0  0  0  0  0  0  0  0  0  0  0  0
   25.4847  -15.5435  -17.8790 C   0  0  0  0  0  0  0  0  0  0  0  0
   25.2504  -14.1898  -18.0559 O   0  0  0  0  0  0  0  0  0  0  0  0
   25.3028  -16.2986  -18.8657 O   0  0  0  0  0  0  0  0  0  0  0  0
  2  1  1  1
  2  3  1  0
  3  4  1  0
  4  9  2  0
  5  4  1  0
  5  6  2  0
  6  7  1  0
  7  8  2  0
  9  8  1  0
 10  2  1  0
 10 18  1  0
 11 10  2  0
 13 15  1  0
 13 12  1  0
 14 13  2  0
 17 16  1  1
 16 15  1  0
 17 18  1  0
 19 17  1  0
 20 19  2  0
 22 21  1  6
 23 22  1  0
 24 25  1  6
 24 22  1  0
 25 19  1  0
 26 24  1  0
 27 26  1  0
 28 26  2  0
M  END
$$$$
