FQV.pdb
     RDKit          3D

 28 28  0  0  1  0  0  0  0  0999 V2000
   27.1626  -19.3802  -18.5174 N   0  0  0  0  0  0  0  0  0  0  0  0
   27.1132  -19.1314  -17.0647 C   0  0  1  0  0  0  0  0  0  0  0  0
   27.3188  -17.6754  -16.8083 C   0  0  0  0  0  0  0  0  0  0  0  0
   28.6457  -17.2342  -17.2486 C   0  0  0  0  0  0  0  0  0  0  0  0
   29.8251  -17.7141  -16.7160 C   0  0  0  0  0  0  0  0  0  0  0  0
   31.0518  -17.3070  -17.1639 C   0  0  0  0  0  0  0  0  0  0  0  0
   31.1388  -16.3891  -18.1787 C   0  0  0  0  0  0  0  0  0  0  0  0
   29.9743  -15.8895  -18.7333 C   0  0  0  0  0  0  0  0  0  0  0  0
   28.7481  -16.3032  -18.2780 C   0  0  0  0  0  0  0  0  0  0  0  0
   25.8161  -19.6519  -16.5831 C   0  0  0  0  0  0  0  0  0  0  0  0
   24.8208  -19.5995  -17.3450 O   0  0  0  0  0  0  0  0  0  0  0  0
   24.8155  -24.2119  -13.5677 N   0  0  0  0  0  0  0  0  0  0  0  0
   23.7251  -23.5993  -12.9093 C   0  0  0  0  0  0  0  0  0  0  0  0
   22.8109  -24.3253  -12.4590 O   0  0  0  0  0  0  0  0  0  0  0  0
   23.6294  -22.1217  -12.7346 C   0  0  0  0  0  0  0  0  0  0  0  0
   24.8233  -21.4184  -13.2921 C   0  0  0  0  0  0  0  0  0  0  0  0
   24.5754  -20.7677  -14.6545 C   0  0  2  0  0  0  0  0  0  0  0  0
   25.7104  -20.2022  -15.2827 N   0  0  0  0  0  0  0  0  0  0  0  0
   23.3635  -19.9703  -14.6115 C   0  0  0  0  0  0  0  0  0  0  0  0
   23.3045  -18.8825  -13.9656 O   0  0  0  0  0  0  0  0  0  0  0  0
   19.3166  -18.1869  -16.5137 C   0  0  0  0  0  0  0  0  0  0  0  0
   20.5274  -19.0861  -16.6788 C   0  0  1  0  0  0  0  0  0  0  0  0
   21.5965  -18.2730  -17.3764 C   0  0  0  0  0  0  0  0  0  0  0  0
   20.9992  -19.4805  -15.3192 C   0  0  2  0  0  0  0  0  0  0  0  0
   22.1440  -20.3155  -15.2724 N   0  0  0  0  0  0  0  0  0  0  0  0
   19.8832  -20.1592  -14.6119 C   0  0  0  0  0  0  0  0  0  0  0  0
   19.0562  -19.5002  -13.7171 O   0  0  0  0  0  0  0  0  0  0  0  0
   19.6625  -21.3780  -14.8180 O   0  0  0  0  0  0  0  0  0  0  0  0
  2  1  1  6
  2  3  1  0
  3  4  1  0
  4  9  2  0
  5  4  1  0
  5  6  2  0
  6  7  1  0
  7  8  2  0
  9  8  1  0
 10  2  1  0
 10 18  1  0
 11 10  2  0
 13 15  1  0
 13 12  1  0
 14 13  2  0
 17 16  1  1
 16 15  1  0
 17 18  1  0
 19 17  1  0
 20 19  2  0
 22 21  1  1
 23 22  1  0
 24 25  1  6
 24 22  1  0
 25 19  1  0
 26 24  1  0
 27 26  1  0
 28 26  2  0
M  END
$$$$
