FQV.pdb
     RDKit          3D

 28 28  0  0  1  0  0  0  0  0999 V2000
   25.8519  -19.4210  -14.2263 N   0  0  0  0  0  0  0  0  0  0  0  0
   26.8957  -19.0201  -13.2648 C   0  0  1  0  0  0  0  0  0  0  0  0
   27.4683  -17.7061  -13.6809 C   0  0  0  0  0  0  0  0  0  0  0  0
   28.0304  -17.7687  -15.0334 C   0  0  0  0  0  0  0  0  0  0  0  0
   29.0907  -18.5806  -15.3823 C   0  0  0  0  0  0  0  0  0  0  0  0
   29.5789  -18.6420  -16.6586 C   0  0  0  0  0  0  0  0  0  0  0  0
   29.0106  -17.8783  -17.6453 C   0  0  0  0  0  0  0  0  0  0  0  0
   27.9461  -17.0544  -17.3269 C   0  0  0  0  0  0  0  0  0  0  0  0
   27.4627  -16.9988  -16.0443 C   0  0  0  0  0  0  0  0  0  0  0  0
   26.2664  -19.0081  -11.9272 C   0  0  0  0  0  0  0  0  0  0  0  0
   25.4635  -18.0871  -11.6426 O   0  0  0  0  0  0  0  0  0  0  0  0
   23.6876  -22.5786  -11.7437 N   0  0  0  0  0  0  0  0  0  0  0  0
   23.0662  -21.3535  -11.4110 C   0  0  0  0  0  0  0  0  0  0  0  0
   22.0418  -21.0091  -12.0417 O   0  0  0  0  0  0  0  0  0  0  0  0
   23.5897  -20.4617  -10.3369 C   0  0  0  0  0  0  0  0  0  0  0  0
   24.7561  -21.0702   -9.6298 C   0  0  0  0  0  0  0  0  0  0  0  0
   26.0288  -20.2237   -9.6979 C   0  0  2  0  0  0  0  0  0  0  0  0
   26.5690  -20.0265  -10.9910 N   0  0  0  0  0  0  0  0  0  0  0  0
   26.9425  -20.6136   -8.6398 C   0  0  0  0  0  0  0  0  0  0  0  0
   27.4759  -21.7618   -8.6099 O   0  0  0  0  0  0  0  0  0  0  0  0
   29.1271  -19.9020   -4.2644 C   0  0  0  0  0  0  0  0  0  0  0  0
   28.4906  -19.1987   -5.4485 C   0  0  1  0  0  0  0  0  0  0  0  0
   29.5915  -18.4501   -6.1686 C   0  0  0  0  0  0  0  0  0  0  0  0
   27.9144  -20.2396   -6.3493 C   0  0  2  0  0  0  0  0  0  0  0  0
   27.3268  -19.7706   -7.5513 N   0  0  0  0  0  0  0  0  0  0  0  0
   26.8974  -21.0101   -5.5888 C   0  0  0  0  0  0  0  0  0  0  0  0
   27.2360  -22.0043   -4.6857 O   0  0  0  0  0  0  0  0  0  0  0  0
   25.6768  -20.7673   -5.7554 O   0  0  0  0  0  0  0  0  0  0  0  0
  2  1  1  6
  2  3  1  0
  3  4  1  0
  4  9  2  0
  5  4  1  0
  5  6  2  0
  6  7  1  0
  7  8  2  0
  9  8  1  0
 10  2  1  0
 10 18  1  0
 11 10  2  0
 13 15  1  0
 13 12  1  0
 14 13  2  0
 17 16  1  6
 16 15  1  0
 17 18  1  0
 19 17  1  0
 20 19  2  0
 22 21  1  1
 23 22  1  0
 24 25  1  6
 24 22  1  0
 25 19  1  0
 26 24  1  0
 27 26  1  0
 28 26  2  0
M  END
$$$$
