FQV.pdb
     RDKit          3D

 28 28  0  0  1  0  0  0  0  0999 V2000
   21.0009  -13.8754  -17.6156 N   0  0  0  0  0  0  0  0  0  0  0  0
   21.8427  -12.8190  -17.0239 C   0  0  1  0  0  0  0  0  0  0  0  0
   23.2716  -13.0791  -17.3678 C   0  0  0  0  0  0  0  0  0  0  0  0
   23.7413  -14.3434  -16.7932 C   0  0  0  0  0  0  0  0  0  0  0  0
   24.0910  -15.4427  -17.5509 C   0  0  0  0  0  0  0  0  0  0  0  0
   24.5535  -16.6023  -16.9917 C   0  0  0  0  0  0  0  0  0  0  0  0
   24.6834  -16.7003  -15.6303 C   0  0  0  0  0  0  0  0  0  0  0  0
   24.3410  -15.6152  -14.8437 C   0  0  0  0  0  0  0  0  0  0  0  0
   23.8779  -14.4561  -15.4127 C   0  0  0  0  0  0  0  0  0  0  0  0
   21.3268  -11.5272  -17.5244 C   0  0  0  0  0  0  0  0  0  0  0  0
   21.4366  -11.2622  -18.7456 O   0  0  0  0  0  0  0  0  0  0  0  0
   18.5258  -11.7461  -19.5196 N   0  0  0  0  0  0  0  0  0  0  0  0
   17.7003  -11.6398  -18.3773 C   0  0  0  0  0  0  0  0  0  0  0  0
   16.8261  -12.5143  -18.1849 O   0  0  0  0  0  0  0  0  0  0  0  0
   17.8368  -10.5240  -17.3979 C   0  0  0  0  0  0  0  0  0  0  0  0
   18.8368   -9.5099  -17.8478 C   0  0  0  0  0  0  0  0  0  0  0  0
   20.0563   -9.3971  -16.9308 C   0  0  2  0  0  0  0  0  0  0  0  0
   20.7168  -10.6125  -16.6320 N   0  0  0  0  0  0  0  0  0  0  0  0
   19.7673   -8.5000  -15.8271 C   0  0  0  0  0  0  0  0  0  0  0  0
   19.2586   -8.9174  -14.7451 O   0  0  0  0  0  0  0  0  0  0  0  0
   22.3915   -6.4113  -14.2767 C   0  0  0  0  0  0  0  0  0  0  0  0
   21.2227   -5.4572  -14.4364 C   0  0  1  0  0  0  0  0  0  0  0  0
   21.5178   -4.5859  -15.6383 C   0  0  0  0  0  0  0  0  0  0  0  0
   19.9955   -6.2676  -14.6889 C   0  0  2  0  0  0  0  0  0  0  0  0
   20.0172   -7.0927  -15.8417 N   0  0  0  0  0  0  0  0  0  0  0  0
   18.8338   -5.3467  -14.7819 C   0  0  0  0  0  0  0  0  0  0  0  0
   18.3979   -4.5848  -13.7104 O   0  0  0  0  0  0  0  0  0  0  0  0
   18.2074   -5.2389  -15.8648 O   0  0  0  0  0  0  0  0  0  0  0  0
  2  1  1  6
  2  3  1  0
  3  4  1  0
  4  9  2  0
  5  4  1  0
  5  6  2  0
  6  7  1  0
  7  8  2  0
  9  8  1  0
 10  2  1  0
 10 18  1  0
 11 10  2  0
 13 15  1  0
 13 12  1  0
 14 13  2  0
 17 16  1  1
 16 15  1  0
 17 18  1  0
 19 17  1  0
 20 19  2  0
 22 21  1  6
 23 22  1  0
 24 25  1  6
 24 22  1  0
 25 19  1  0
 26 24  1  0
 27 26  1  0
 28 26  2  0
M  END
$$$$
