FQV.pdb
     RDKit          3D

 28 28  0  0  1  0  0  0  0  0999 V2000
   28.5094  -21.6709  -11.0877 N   0  0  0  0  0  0  0  0  0  0  0  0
   27.2175  -21.0163  -10.8099 C   0  0  1  0  0  0  0  0  0  0  0  0
   27.4668  -19.6586  -10.2422 C   0  0  0  0  0  0  0  0  0  0  0  0
   27.6369  -19.7074   -8.7869 C   0  0  0  0  0  0  0  0  0  0  0  0
   28.8523  -19.5398   -8.1547 C   0  0  0  0  0  0  0  0  0  0  0  0
   28.9803  -19.5617   -6.7930 C   0  0  0  0  0  0  0  0  0  0  0  0
   27.8748  -19.7555   -6.0055 C   0  0  0  0  0  0  0  0  0  0  0  0
   26.6422  -19.9265   -6.6097 C   0  0  0  0  0  0  0  0  0  0  0  0
   26.5228  -19.9033   -7.9761 C   0  0  0  0  0  0  0  0  0  0  0  0
   26.4571  -21.0104  -12.0776 C   0  0  0  0  0  0  0  0  0  0  0  0
   27.0721  -20.8135  -13.1531 O   0  0  0  0  0  0  0  0  0  0  0  0
   24.7304  -25.3363  -14.6280 N   0  0  0  0  0  0  0  0  0  0  0  0
   23.5929  -24.6485  -15.1083 C   0  0  0  0  0  0  0  0  0  0  0  0
   23.0302  -25.0687  -16.1439 O   0  0  0  0  0  0  0  0  0  0  0  0
   23.0439  -23.4433  -14.4235 C   0  0  0  0  0  0  0  0  0  0  0  0
   23.8408  -23.0813  -13.2133 C   0  0  0  0  0  0  0  0  0  0  0  0
   24.2159  -21.5996  -13.1423 C   0  0  2  0  0  0  0  0  0  0  0  0
   25.0580  -21.2282  -12.0673 N   0  0  0  0  0  0  0  0  0  0  0  0
   23.0465  -20.7781  -13.3953 C   0  0  0  0  0  0  0  0  0  0  0  0
   22.1885  -20.5449  -12.4936 O   0  0  0  0  0  0  0  0  0  0  0  0
   21.2555  -19.7783  -17.2370 C   0  0  0  0  0  0  0  0  0  0  0  0
   21.5468  -18.6856  -16.2256 C   0  0  1  0  0  0  0  0  0  0  0  0
   20.3845  -17.7169  -16.2667 C   0  0  0  0  0  0  0  0  0  0  0  0
   21.6318  -19.3159  -14.8757 C   0  0  2  0  0  0  0  0  0  0  0  0
   22.7462  -20.1629  -14.6501 N   0  0  0  0  0  0  0  0  0  0  0  0
   20.3868  -20.0903  -14.6382 C   0  0  0  0  0  0  0  0  0  0  0  0
   20.2943  -21.4496  -14.8881 O   0  0  0  0  0  0  0  0  0  0  0  0
   19.3657  -19.5103  -14.1938 O   0  0  0  0  0  0  0  0  0  0  0  0
  2  1  1  6
  2  3  1  0
  3  4  1  0
  4  9  2  0
  5  4  1  0
  5  6  2  0
  6  7  1  0
  7  8  2  0
  9  8  1  0
 10  2  1  0
 10 18  1  0
 11 10  2  0
 13 15  1  0
 13 12  1  0
 14 13  2  0
 17 16  1  1
 16 15  1  0
 17 18  1  0
 19 17  1  0
 20 19  2  0
 22 21  1  6
 23 22  1  0
 24 25  1  6
 24 22  1  0
 25 19  1  0
 26 24  1  0
 27 26  1  0
 28 26  2  0
M  END
$$$$
