FQV.pdb
     RDKit          3D

 28 28  0  0  1  0  0  0  0  0999 V2000
   28.5012  -20.9651   -9.3327 N   0  0  0  0  0  0  0  0  0  0  0  0
   27.0885  -20.5516   -9.2428 C   0  0  1  0  0  0  0  0  0  0  0  0
   27.0069  -19.2263   -8.5610 C   0  0  0  0  0  0  0  0  0  0  0  0
   27.4770  -19.3052   -7.1747 C   0  0  0  0  0  0  0  0  0  0  0  0
   26.9008  -20.1168   -6.2185 C   0  0  0  0  0  0  0  0  0  0  0  0
   27.3759  -20.1936   -4.9381 C   0  0  0  0  0  0  0  0  0  0  0  0
   28.4639  -19.4464   -4.5668 C   0  0  0  0  0  0  0  0  0  0  0  0
   29.0636  -18.6232   -5.5028 C   0  0  0  0  0  0  0  0  0  0  0  0
   28.5805  -18.5520   -6.7848 C   0  0  0  0  0  0  0  0  0  0  0  0
   26.5507  -20.5563  -10.6198 C   0  0  0  0  0  0  0  0  0  0  0  0
   27.0450  -19.7742  -11.4668 O   0  0  0  0  0  0  0  0  0  0  0  0
   26.7568  -22.8627  -14.7552 N   0  0  0  0  0  0  0  0  0  0  0  0
   25.4009  -22.8106  -15.1508 C   0  0  0  0  0  0  0  0  0  0  0  0
   25.1337  -22.5600  -16.3473 O   0  0  0  0  0  0  0  0  0  0  0  0
   24.2828  -23.0438  -14.1923 C   0  0  0  0  0  0  0  0  0  0  0  0
   24.7469  -22.9863  -12.7738 C   0  0  0  0  0  0  0  0  0  0  0  0
   24.8315  -21.5666  -12.2095 C   0  0  2  0  0  0  0  0  0  0  0  0
   25.4970  -21.4361  -10.9675 N   0  0  0  0  0  0  0  0  0  0  0  0
   23.5544  -20.8941  -12.3621 C   0  0  0  0  0  0  0  0  0  0  0  0
   22.7168  -20.8321  -11.4143 O   0  0  0  0  0  0  0  0  0  0  0  0
   22.9015  -17.6006  -14.7251 C   0  0  0  0  0  0  0  0  0  0  0  0
   21.7797  -18.6153  -14.8423 C   0  0  1  0  0  0  0  0  0  0  0  0
   21.9892  -19.3657  -16.1399 C   0  0  0  0  0  0  0  0  0  0  0  0
   21.8868  -19.5579  -13.6905 C   0  0  2  0  0  0  0  0  0  0  0  0
   23.1177  -20.2495  -13.5608 N   0  0  0  0  0  0  0  0  0  0  0  0
   20.7881  -20.5524  -13.7919 C   0  0  0  0  0  0  0  0  0  0  0  0
   19.4737  -20.2468  -13.4792 O   0  0  0  0  0  0  0  0  0  0  0  0
   21.0378  -21.7221  -14.1740 O   0  0  0  0  0  0  0  0  0  0  0  0
  2  1  1  6
  2  3  1  0
  3  4  1  0
  4  9  2  0
  5  4  1  0
  5  6  2  0
  6  7  1  0
  7  8  2  0
  9  8  1  0
 10  2  1  0
 10 18  1  0
 11 10  2  0
 13 15  1  0
 13 12  1  0
 14 13  2  0
 17 16  1  1
 16 15  1  0
 17 18  1  0
 19 17  1  0
 20 19  2  0
 22 21  1  1
 23 22  1  0
 24 25  1  6
 24 22  1  0
 25 19  1  0
 26 24  1  0
 27 26  1  0
 28 26  2  0
M  END
$$$$
