FQV.pdb
     RDKit          3D

 28 28  0  0  1  0  0  0  0  0999 V2000
   26.5412  -18.9821  -17.2868 N   0  0  0  0  0  0  0  0  0  0  0  0
   25.9260  -18.3690  -16.0950 C   0  0  1  0  0  0  0  0  0  0  0  0
   25.2704  -17.0863  -16.4854 C   0  0  0  0  0  0  0  0  0  0  0  0
   26.2591  -16.0630  -16.8386 C   0  0  0  0  0  0  0  0  0  0  0  0
   26.5856  -15.7339  -18.1386 C   0  0  0  0  0  0  0  0  0  0  0  0
   27.4915  -14.7550  -18.4423 C   0  0  0  0  0  0  0  0  0  0  0  0
   28.1112  -14.0609  -17.4353 C   0  0  0  0  0  0  0  0  0  0  0  0
   27.8050  -14.3677  -16.1218 C   0  0  0  0  0  0  0  0  0  0  0  0
   26.8952  -15.3510  -15.8260 C   0  0  0  0  0  0  0  0  0  0  0  0
   25.0005  -19.3711  -15.5252 C   0  0  0  0  0  0  0  0  0  0  0  0
   24.3908  -20.1447  -16.3020 O   0  0  0  0  0  0  0  0  0  0  0  0
   24.5801  -20.8396   -9.1890 N   0  0  0  0  0  0  0  0  0  0  0  0
   23.4455  -21.4335   -9.7871 C   0  0  0  0  0  0  0  0  0  0  0  0
   22.7160  -22.1722   -9.0886 O   0  0  0  0  0  0  0  0  0  0  0  0
   23.0911  -21.2092  -11.2179 C   0  0  0  0  0  0  0  0  0  0  0  0
   24.0888  -20.3368  -11.9066 C   0  0  0  0  0  0  0  0  0  0  0  0
   23.8275  -20.1643  -13.4042 C   0  0  2  0  0  0  0  0  0  0  0  0
   24.8153  -19.4505  -14.1236 N   0  0  0  0  0  0  0  0  0  0  0  0
   22.4398  -19.8030  -13.6284 C   0  0  0  0  0  0  0  0  0  0  0  0
   21.9996  -18.6477  -13.3540 O   0  0  0  0  0  0  0  0  0  0  0  0
   19.9076  -21.9298  -16.3311 C   0  0  0  0  0  0  0  0  0  0  0  0
   19.8137  -20.4519  -16.0010 C   0  0  1  0  0  0  0  0  0  0  0  0
   18.3815  -20.0288  -16.2477 C   0  0  0  0  0  0  0  0  0  0  0  0
   20.1504  -20.2783  -14.5577 C   0  0  2  0  0  0  0  0  0  0  0  0
   21.4511  -20.6843  -14.1659 N   0  0  0  0  0  0  0  0  0  0  0  0
   19.1527  -21.0237  -13.7483 C   0  0  0  0  0  0  0  0  0  0  0  0
   17.8592  -20.5680  -13.5535 O   0  0  0  0  0  0  0  0  0  0  0  0
   19.4727  -22.1121  -13.2101 O   0  0  0  0  0  0  0  0  0  0  0  0
  2  1  1  6
  2  3  1  0
  3  4  1  0
  4  9  2  0
  5  4  1  0
  5  6  2  0
  6  7  1  0
  7  8  2  0
  9  8  1  0
 10  2  1  0
 10 18  1  0
 11 10  2  0
 13 15  1  0
 13 12  1  0
 14 13  2  0
 17 16  1  1
 16 15  1  0
 17 18  1  0
 19 17  1  0
 20 19  2  0
 22 21  1  1
 23 22  1  0
 24 25  1  6
 24 22  1  0
 25 19  1  0
 26 24  1  0
 27 26  1  0
 28 26  2  0
M  END
$$$$
