FQV.pdb
     RDKit          3D

 28 28  0  0  1  0  0  0  0  0999 V2000
   26.3320   -8.6850  -19.6575 N   0  0  0  0  0  0  0  0  0  0  0  0
   26.0121   -9.0528  -18.2657 C   0  0  1  0  0  0  0  0  0  0  0  0
   27.1028   -8.5721  -17.3674 C   0  0  0  0  0  0  0  0  0  0  0  0
   28.3483   -9.3127  -17.5902 C   0  0  0  0  0  0  0  0  0  0  0  0
   29.4485   -8.7801  -18.2312 C   0  0  0  0  0  0  0  0  0  0  0  0
   30.6097   -9.4827  -18.4019 C   0  0  0  0  0  0  0  0  0  0  0  0
   30.7086  -10.7652  -17.9271 C   0  0  0  0  0  0  0  0  0  0  0  0
   29.6228  -11.3269  -17.2800 C   0  0  0  0  0  0  0  0  0  0  0  0
   28.4619  -10.6152  -17.1132 C   0  0  0  0  0  0  0  0  0  0  0  0
   24.6839   -8.4782  -17.9636 C   0  0  0  0  0  0  0  0  0  0  0  0
   24.3516   -7.3985  -18.5091 O   0  0  0  0  0  0  0  0  0  0  0  0
   19.9427  -12.2191  -16.1908 N   0  0  0  0  0  0  0  0  0  0  0  0
   19.9359  -11.5272  -17.4233 C   0  0  0  0  0  0  0  0  0  0  0  0
   19.2324  -11.9720  -18.3577 O   0  0  0  0  0  0  0  0  0  0  0  0
   20.7365  -10.2891  -17.6451 C   0  0  0  0  0  0  0  0  0  0  0  0
   21.5199   -9.9098  -16.4314 C   0  0  0  0  0  0  0  0  0  0  0  0
   22.5065   -8.7645  -16.6671 C   0  0  2  0  0  0  0  0  0  0  0  0
   23.8071   -9.1458  -17.0744 N   0  0  0  0  0  0  0  0  0  0  0  0
   22.3956   -7.7854  -15.6015 C   0  0  0  0  0  0  0  0  0  0  0  0
   22.9876   -7.9381  -14.4924 O   0  0  0  0  0  0  0  0  0  0  0  0
   23.6003   -4.4188  -15.4758 C   0  0  0  0  0  0  0  0  0  0  0  0
   22.1466   -4.2428  -15.0789 C   0  0  1  0  0  0  0  0  0  0  0  0
   21.4085   -3.7343  -16.2985 C   0  0  0  0  0  0  0  0  0  0  0  0
   21.6103   -5.5781  -14.6839 C   0  0  2  0  0  0  0  0  0  0  0  0
   21.6302   -6.5812  -15.6857 N   0  0  0  0  0  0  0  0  0  0  0  0
   20.2134   -5.4033  -14.2101 C   0  0  0  0  0  0  0  0  0  0  0  0
   19.9016   -4.7413  -13.0340 O   0  0  0  0  0  0  0  0  0  0  0  0
   19.2620   -5.8658  -14.8865 O   0  0  0  0  0  0  0  0  0  0  0  0
  2  1  1  6
  2  3  1  0
  3  4  1  0
  4  9  2  0
  5  4  1  0
  5  6  2  0
  6  7  1  0
  7  8  2  0
  9  8  1  0
 10  2  1  0
 10 18  1  0
 11 10  2  0
 13 15  1  0
 13 12  1  0
 14 13  2  0
 17 16  1  1
 16 15  1  0
 17 18  1  0
 19 17  1  0
 20 19  2  0
 22 21  1  6
 23 22  1  0
 24 25  1  6
 24 22  1  0
 25 19  1  0
 26 24  1  0
 27 26  1  0
 28 26  2  0
M  END
$$$$
