FQV.pdb
     RDKit          3D

 28 28  0  0  1  0  0  0  0  0999 V2000
   23.0563  -12.9682  -17.0044 N   0  0  0  0  0  0  0  0  0  0  0  0
   22.3408  -12.0347  -16.1148 C   0  0  1  0  0  0  0  0  0  0  0  0
   23.2025  -11.7202  -14.9374 C   0  0  0  0  0  0  0  0  0  0  0  0
   24.5356  -11.2722  -15.3513 C   0  0  0  0  0  0  0  0  0  0  0  0
   25.6162  -12.1194  -15.4906 C   0  0  0  0  0  0  0  0  0  0  0  0
   26.8437  -11.6810  -15.9056 C   0  0  0  0  0  0  0  0  0  0  0  0
   27.0322  -10.3553  -16.2005 C   0  0  0  0  0  0  0  0  0  0  0  0
   25.9681   -9.4811  -16.0709 C   0  0  0  0  0  0  0  0  0  0  0  0
   24.7404   -9.9292  -15.6538 C   0  0  0  0  0  0  0  0  0  0  0  0
   21.9787  -10.8559  -16.9301 C   0  0  0  0  0  0  0  0  0  0  0  0
   22.2300  -10.8679  -18.1590 O   0  0  0  0  0  0  0  0  0  0  0  0
   20.9488   -6.0783  -20.3446 N   0  0  0  0  0  0  0  0  0  0  0  0
   20.3603   -7.3399  -20.1001 C   0  0  0  0  0  0  0  0  0  0  0  0
   20.5505   -8.2612  -20.9253 O   0  0  0  0  0  0  0  0  0  0  0  0
   19.5236   -7.6076  -18.8954 C   0  0  0  0  0  0  0  0  0  0  0  0
   19.9516   -8.8513  -18.1876 C   0  0  0  0  0  0  0  0  0  0  0  0
   20.8064   -8.5911  -16.9456 C   0  0  2  0  0  0  0  0  0  0  0  0
   21.3553   -9.7381  -16.3244 N   0  0  0  0  0  0  0  0  0  0  0  0
   20.1602   -7.6095  -16.0941 C   0  0  0  0  0  0  0  0  0  0  0  0
   19.0871   -7.8692  -15.4736 O   0  0  0  0  0  0  0  0  0  0  0  0
   21.8844   -6.3974  -13.2144 C   0  0  0  0  0  0  0  0  0  0  0  0
   21.3447   -5.1113  -13.8113 C   0  0  1  0  0  0  0  0  0  0  0  0
   22.4887   -4.4436  -14.5436 C   0  0  0  0  0  0  0  0  0  0  0  0
   20.2653   -5.4675  -14.7780 C   0  0  2  0  0  0  0  0  0  0  0  0
   20.6494   -6.2851  -15.8708 N   0  0  0  0  0  0  0  0  0  0  0  0
   19.6722   -4.2120  -15.3055 C   0  0  0  0  0  0  0  0  0  0  0  0
   18.9880   -3.3147  -14.5020 O   0  0  0  0  0  0  0  0  0  0  0  0
   19.7831   -3.9329  -16.5247 O   0  0  0  0  0  0  0  0  0  0  0  0
  2  1  1  6
  2  3  1  0
  3  4  1  0
  4  9  2  0
  5  4  1  0
  5  6  2  0
  6  7  1  0
  7  8  2  0
  9  8  1  0
 10  2  1  0
 10 18  1  0
 11 10  2  0
 13 15  1  0
 13 12  1  0
 14 13  2  0
 17 16  1  6
 16 15  1  0
 17 18  1  0
 19 17  1  0
 20 19  2  0
 22 21  1  6
 23 22  1  0
 24 25  1  6
 24 22  1  0
 25 19  1  0
 26 24  1  0
 27 26  1  0
 28 26  2  0
M  END
$$$$
