FQV.pdb
     RDKit          3D

 28 28  0  0  1  0  0  0  0  0999 V2000
   26.3240  -22.0551  -11.5929 N   0  0  0  0  0  0  0  0  0  0  0  0
   25.4701  -20.8532  -11.6231 C   0  0  1  0  0  0  0  0  0  0  0  0
   26.0080  -19.8441  -10.6638 C   0  0  0  0  0  0  0  0  0  0  0  0
   25.8093  -20.2648   -9.2736 C   0  0  0  0  0  0  0  0  0  0  0  0
   26.7746  -20.1441   -8.2945 C   0  0  0  0  0  0  0  0  0  0  0  0
   26.5548  -20.5183   -6.9973 C   0  0  0  0  0  0  0  0  0  0  0  0
   25.3386  -21.0350   -6.6316 C   0  0  0  0  0  0  0  0  0  0  0  0
   24.3505  -21.1683   -7.5904 C   0  0  0  0  0  0  0  0  0  0  0  0
   24.5794  -20.7906   -8.8892 C   0  0  0  0  0  0  0  0  0  0  0  0
   25.4289  -20.3901  -13.0265 C   0  0  0  0  0  0  0  0  0  0  0  0
   26.4458  -20.5414  -13.7453 O   0  0  0  0  0  0  0  0  0  0  0  0
   20.1036  -21.0616  -15.1432 N   0  0  0  0  0  0  0  0  0  0  0  0
   21.1985  -21.9525  -15.2165 C   0  0  0  0  0  0  0  0  0  0  0  0
   20.9812  -23.1805  -15.1131 O   0  0  0  0  0  0  0  0  0  0  0  0
   22.5984  -21.4783  -15.4125 C   0  0  0  0  0  0  0  0  0  0  0  0
   22.6771  -19.9878  -15.4660 C   0  0  0  0  0  0  0  0  0  0  0  0
   23.9685  -19.4168  -14.8767 C   0  0  2  0  0  0  0  0  0  0  0  0
   24.2544  -19.7903  -13.5420 N   0  0  0  0  0  0  0  0  0  0  0  0
   24.0955  -18.0134  -15.2242 C   0  0  0  0  0  0  0  0  0  0  0  0
   23.4440  -17.1146  -14.6146 O   0  0  0  0  0  0  0  0  0  0  0  0
   27.3367  -16.0473  -15.4629 C   0  0  0  0  0  0  0  0  0  0  0  0
   26.5606  -15.7003  -16.7196 C   0  0  1  0  0  0  0  0  0  0  0  0
   27.1808  -16.4812  -17.8581 C   0  0  0  0  0  0  0  0  0  0  0  0
   25.1456  -16.1315  -16.5229 C   0  0  2  0  0  0  0  0  0  0  0  0
   24.9428  -17.5097  -16.2594 N   0  0  0  0  0  0  0  0  0  0  0  0
   24.3666  -15.7559  -17.7305 C   0  0  0  0  0  0  0  0  0  0  0  0
   24.1197  -14.4383  -18.0794 O   0  0  0  0  0  0  0  0  0  0  0  0
   23.9041  -16.6517  -18.4790 O   0  0  0  0  0  0  0  0  0  0  0  0
  2  1  1  6
  2  3  1  0
  3  4  1  0
  4  9  2  0
  5  4  1  0
  5  6  2  0
  6  7  1  0
  7  8  2  0
  9  8  1  0
 10  2  1  0
 10 18  1  0
 11 10  2  0
 13 15  1  0
 13 12  1  0
 14 13  2  0
 17 16  1  1
 16 15  1  0
 17 18  1  0
 19 17  1  0
 20 19  2  0
 22 21  1  1
 23 22  1  0
 24 25  1  6
 24 22  1  0
 25 19  1  0
 26 24  1  0
 27 26  1  0
 28 26  2  0
M  END
$$$$
