FQV.pdb
     RDKit          3D

 28 28  0  0  1  0  0  0  0  0999 V2000
   25.4172  -21.2138   -6.9914 N   0  0  0  0  0  0  0  0  0  0  0  0
   26.1917  -20.4336   -7.9743 C   0  0  1  0  0  0  0  0  0  0  0  0
   27.6478  -20.5821   -7.6818 C   0  0  0  0  0  0  0  0  0  0  0  0
   27.9890  -20.0408   -6.3627 C   0  0  0  0  0  0  0  0  0  0  0  0
   27.9762  -18.6933   -6.0642 C   0  0  0  0  0  0  0  0  0  0  0  0
   28.2715  -18.2152   -4.8171 C   0  0  0  0  0  0  0  0  0  0  0  0
   28.5950  -19.0872   -3.8096 C   0  0  0  0  0  0  0  0  0  0  0  0
   28.6163  -20.4440   -4.0777 C   0  0  0  0  0  0  0  0  0  0  0  0
   28.3190  -20.9151   -5.3313 C   0  0  0  0  0  0  0  0  0  0  0  0
   25.7931  -20.9137   -9.3145 C   0  0  0  0  0  0  0  0  0  0  0  0
   25.4270  -22.1061   -9.4477 O   0  0  0  0  0  0  0  0  0  0  0  0
   20.9700  -21.1544  -11.6826 N   0  0  0  0  0  0  0  0  0  0  0  0
   21.6478  -21.0337  -12.9170 C   0  0  0  0  0  0  0  0  0  0  0  0
   21.0156  -21.2575  -13.9735 O   0  0  0  0  0  0  0  0  0  0  0  0
   23.0860  -20.6496  -13.0009 C   0  0  0  0  0  0  0  0  0  0  0  0
   23.7044  -20.5153  -11.6479 C   0  0  0  0  0  0  0  0  0  0  0  0
   25.1964  -20.1784  -11.6824 C   0  0  2  0  0  0  0  0  0  0  0  0
   25.8243  -20.0326  -10.4225 N   0  0  0  0  0  0  0  0  0  0  0  0
   25.4531  -19.1595  -12.6835 C   0  0  0  0  0  0  0  0  0  0  0  0
   25.1688  -17.9418  -12.4827 O   0  0  0  0  0  0  0  0  0  0  0  0
   28.3419  -17.4818  -16.2000 C   0  0  0  0  0  0  0  0  0  0  0  0
   27.8650  -18.7272  -15.4767 C   0  0  1  0  0  0  0  0  0  0  0  0
   28.9088  -19.0663  -14.4344 C   0  0  0  0  0  0  0  0  0  0  0  0
   26.5696  -18.4064  -14.8089 C   0  0  2  0  0  0  0  0  0  0  0  0
   26.0357  -19.4121  -13.9641 N   0  0  0  0  0  0  0  0  0  0  0  0
   25.5680  -18.0802  -15.8560 C   0  0  0  0  0  0  0  0  0  0  0  0
   25.5938  -16.8931  -16.5695 O   0  0  0  0  0  0  0  0  0  0  0  0
   24.6529  -18.8980  -16.1214 O   0  0  0  0  0  0  0  0  0  0  0  0
  2  1  1  1
  2  3  1  0
  3  4  1  0
  4  9  2  0
  5  4  1  0
  5  6  2  0
  6  7  1  0
  7  8  2  0
  9  8  1  0
 10  2  1  0
 10 18  1  0
 11 10  2  0
 13 15  1  0
 13 12  1  0
 14 13  2  0
 17 16  1  1
 16 15  1  0
 17 18  1  0
 19 17  1  0
 20 19  2  0
 22 21  1  1
 23 22  1  0
 24 25  1  6
 24 22  1  0
 25 19  1  0
 26 24  1  0
 27 26  1  0
 28 26  2  0
M  END
$$$$
