FQV.pdb
     RDKit          3D

 28 28  0  0  1  0  0  0  0  0999 V2000
   25.5193  -21.0980   -7.3359 N   0  0  0  0  0  0  0  0  0  0  0  0
   26.4773  -20.4236   -8.2315 C   0  0  1  0  0  0  0  0  0  0  0  0
   27.8575  -20.5876   -7.6876 C   0  0  0  0  0  0  0  0  0  0  0  0
   27.9813  -20.0012   -6.3497 C   0  0  0  0  0  0  0  0  0  0  0  0
   28.2779  -20.7353   -5.2192 C   0  0  0  0  0  0  0  0  0  0  0  0
   28.4157  -20.1600   -3.9858 C   0  0  0  0  0  0  0  0  0  0  0  0
   28.2584  -18.8055   -3.8420 C   0  0  0  0  0  0  0  0  0  0  0  0
   27.9609  -18.0424   -4.9566 C   0  0  0  0  0  0  0  0  0  0  0  0
   27.8242  -18.6276   -6.1899 C   0  0  0  0  0  0  0  0  0  0  0  0
   26.2866  -21.0016   -9.5787 C   0  0  0  0  0  0  0  0  0  0  0  0
   26.8037  -22.1142   -9.8403 O   0  0  0  0  0  0  0  0  0  0  0  0
   24.6652  -23.9820  -12.6437 N   0  0  0  0  0  0  0  0  0  0  0  0
   24.1478  -23.2060  -13.7056 C   0  0  0  0  0  0  0  0  0  0  0  0
   24.1009  -23.7099  -14.8501 O   0  0  0  0  0  0  0  0  0  0  0  0
   23.6577  -21.8119  -13.5071 C   0  0  0  0  0  0  0  0  0  0  0  0
   23.8757  -21.3411  -12.1065 C   0  0  0  0  0  0  0  0  0  0  0  0
   25.2389  -20.6838  -11.8820 C   0  0  2  0  0  0  0  0  0  0  0  0
   25.5277  -20.3041  -10.5496 N   0  0  0  0  0  0  0  0  0  0  0  0
   25.5019  -19.7143  -12.9294 C   0  0  0  0  0  0  0  0  0  0  0  0
   25.0302  -18.5399  -12.8839 O   0  0  0  0  0  0  0  0  0  0  0  0
   28.3240  -17.9682  -16.5209 C   0  0  0  0  0  0  0  0  0  0  0  0
   27.9942  -19.2103  -15.7145 C   0  0  1  0  0  0  0  0  0  0  0  0
   29.0972  -19.3863  -14.6931 C   0  0  0  0  0  0  0  0  0  0  0  0
   26.6942  -18.9785  -15.0194 C   0  0  2  0  0  0  0  0  0  0  0  0
   26.2966  -19.9719  -14.0893 N   0  0  0  0  0  0  0  0  0  0  0  0
   25.6308  -18.8317  -16.0461 C   0  0  0  0  0  0  0  0  0  0  0  0
   25.3303  -17.6174  -16.6409 O   0  0  0  0  0  0  0  0  0  0  0  0
   24.9655  -19.8347  -16.4039 O   0  0  0  0  0  0  0  0  0  0  0  0
  2  1  1  1
  2  3  1  0
  3  4  1  0
  4  9  2  0
  5  4  1  0
  5  6  2  0
  6  7  1  0
  7  8  2  0
  9  8  1  0
 10  2  1  0
 10 18  1  0
 11 10  2  0
 13 15  1  0
 13 12  1  0
 14 13  2  0
 17 16  1  1
 16 15  1  0
 17 18  1  0
 19 17  1  0
 20 19  2  0
 22 21  1  6
 23 22  1  0
 24 25  1  1
 24 22  1  0
 25 19  1  0
 26 24  1  0
 27 26  1  0
 28 26  2  0
M  END
$$$$
