FQV.pdb
     RDKit          3D

 28 28  0  0  1  0  0  0  0  0999 V2000
   27.7157  -20.2788  -16.5057 N   0  0  0  0  0  0  0  0  0  0  0  0
   27.0428  -19.4041  -15.5276 C   0  0  1  0  0  0  0  0  0  0  0  0
   26.2939  -18.3379  -16.2556 C   0  0  0  0  0  0  0  0  0  0  0  0
   27.2040  -17.3891  -16.9042 C   0  0  0  0  0  0  0  0  0  0  0  0
   27.3794  -17.3127  -18.2711 C   0  0  0  0  0  0  0  0  0  0  0  0
   28.2141  -16.3990  -18.8539 C   0  0  0  0  0  0  0  0  0  0  0  0
   28.9130  -15.5155  -18.0722 C   0  0  0  0  0  0  0  0  0  0  0  0
   28.7583  -15.5671  -16.6986 C   0  0  0  0  0  0  0  0  0  0  0  0
   27.9192  -16.4868  -16.1224 C   0  0  0  0  0  0  0  0  0  0  0  0
   26.1918  -20.2733  -14.6875 C   0  0  0  0  0  0  0  0  0  0  0  0
   25.5672  -21.2170  -15.2289 O   0  0  0  0  0  0  0  0  0  0  0  0
   26.0033  -20.0341   -8.1473 N   0  0  0  0  0  0  0  0  0  0  0  0
   25.0559  -21.0069   -8.5395 C   0  0  0  0  0  0  0  0  0  0  0  0
   24.5137  -21.7074   -7.6557 O   0  0  0  0  0  0  0  0  0  0  0  0
   24.6831  -21.2245   -9.9666 C   0  0  0  0  0  0  0  0  0  0  0  0
   25.5371  -20.4213  -10.8920 C   0  0  0  0  0  0  0  0  0  0  0  0
   25.1790  -20.5956  -12.3693 C   0  0  2  0  0  0  0  0  0  0  0  0
   26.0932  -20.0382  -13.2946 N   0  0  0  0  0  0  0  0  0  0  0  0
   23.7674  -20.3270  -12.5737 C   0  0  0  0  0  0  0  0  0  0  0  0
   23.2886  -19.1598  -12.4633 O   0  0  0  0  0  0  0  0  0  0  0  0
   21.8555  -20.8213  -15.6255 C   0  0  0  0  0  0  0  0  0  0  0  0
   20.9809  -21.4859  -14.5789 C   0  0  1  0  0  0  0  0  0  0  0  0
   21.1789  -22.9804  -14.7144 C   0  0  0  0  0  0  0  0  0  0  0  0
   21.4450  -21.0346  -13.2344 C   0  0  2  0  0  0  0  0  0  0  0  0
   22.7956  -21.3195  -12.9109 N   0  0  0  0  0  0  0  0  0  0  0  0
   20.5673  -21.6455  -12.2036 C   0  0  0  0  0  0  0  0  0  0  0  0
   21.0056  -22.6394  -11.3440 O   0  0  0  0  0  0  0  0  0  0  0  0
   19.3773  -21.2613  -12.0891 O   0  0  0  0  0  0  0  0  0  0  0  0
  2  1  1  6
  2  3  1  0
  3  4  1  0
  4  9  2  0
  5  4  1  0
  5  6  2  0
  6  7  1  0
  7  8  2  0
  9  8  1  0
 10  2  1  0
 10 18  1  0
 11 10  2  0
 13 15  1  0
 13 12  1  0
 14 13  2  0
 17 16  1  1
 16 15  1  0
 17 18  1  0
 19 17  1  0
 20 19  2  0
 22 21  1  6
 23 22  1  0
 24 25  1  1
 24 22  1  0
 25 19  1  0
 26 24  1  0
 27 26  1  0
 28 26  2  0
M  END
$$$$
