FQV.pdb
     RDKit          3D

 28 28  0  0  1  0  0  0  0  0999 V2000
   29.3238  -21.2547  -14.0230 N   0  0  0  0  0  0  0  0  0  0  0  0
   28.3390  -21.0543  -12.9438 C   0  0  1  0  0  0  0  0  0  0  0  0
   28.9787  -20.2943  -11.8298 C   0  0  0  0  0  0  0  0  0  0  0  0
   30.0378  -21.0760  -11.1845 C   0  0  0  0  0  0  0  0  0  0  0  0
   31.3388  -21.1231  -11.6432 C   0  0  0  0  0  0  0  0  0  0  0  0
   32.3158  -21.8381  -11.0066 C   0  0  0  0  0  0  0  0  0  0  0  0
   32.0163  -22.5421   -9.8688 C   0  0  0  0  0  0  0  0  0  0  0  0
   30.7210  -22.5145   -9.3841 C   0  0  0  0  0  0  0  0  0  0  0  0
   29.7471  -21.7949  -10.0288 C   0  0  0  0  0  0  0  0  0  0  0  0
   27.1728  -20.3746  -13.5467 C   0  0  0  0  0  0  0  0  0  0  0  0
   27.3674  -19.3977  -14.3093 O   0  0  0  0  0  0  0  0  0  0  0  0
   24.3616  -20.0810  -18.1213 N   0  0  0  0  0  0  0  0  0  0  0  0
   23.2939  -19.5978  -17.3312 C   0  0  0  0  0  0  0  0  0  0  0  0
   22.3146  -19.0695  -17.9038 O   0  0  0  0  0  0  0  0  0  0  0  0
   23.2964  -19.6968  -15.8436 C   0  0  0  0  0  0  0  0  0  0  0  0
   24.5687  -20.2859  -15.3288 C   0  0  0  0  0  0  0  0  0  0  0  0
   24.6355  -20.3719  -13.8026 C   0  0  2  0  0  0  0  0  0  0  0  0
   25.8618  -20.8292  -13.2645 N   0  0  0  0  0  0  0  0  0  0  0  0
   23.4133  -20.9581  -13.2838 C   0  0  0  0  0  0  0  0  0  0  0  0
   23.1475  -22.1870  -13.4350 O   0  0  0  0  0  0  0  0  0  0  0  0
   21.9962  -20.1186   -9.6933 C   0  0  0  0  0  0  0  0  0  0  0  0
   20.8338  -20.1702  -10.6670 C   0  0  1  0  0  0  0  0  0  0  0  0
   20.4394  -18.7404  -10.9686 C   0  0  0  0  0  0  0  0  0  0  0  0
   21.3054  -20.8384  -11.9151 C   0  0  2  0  0  0  0  0  0  0  0  0
   22.4091  -20.2345  -12.5689 N   0  0  0  0  0  0  0  0  0  0  0  0
   20.1682  -20.9137  -12.8676 C   0  0  0  0  0  0  0  0  0  0  0  0
   19.0577  -21.7105  -12.6424 O   0  0  0  0  0  0  0  0  0  0  0  0
   20.1933  -20.2371  -13.9250 O   0  0  0  0  0  0  0  0  0  0  0  0
  2  1  1  6
  2  3  1  0
  3  4  1  0
  4  9  2  0
  5  4  1  0
  5  6  2  0
  6  7  1  0
  7  8  2  0
  9  8  1  0
 10  2  1  0
 10 18  1  0
 11 10  2  0
 13 15  1  0
 13 12  1  0
 14 13  2  0
 17 16  1  6
 16 15  1  0
 17 18  1  0
 19 17  1  0
 20 19  2  0
 22 21  1  1
 23 22  1  0
 24 25  1  6
 24 22  1  0
 25 19  1  0
 26 24  1  0
 27 26  1  0
 28 26  2  0
M  END
$$$$
