FQV.pdb
     RDKit          3D

 28 28  0  0  1  0  0  0  0  0999 V2000
   27.0986  -22.6393  -11.5788 N   0  0  0  0  0  0  0  0  0  0  0  0
   26.2879  -21.6434  -10.8538 C   0  0  1  0  0  0  0  0  0  0  0  0
   27.0442  -20.3593  -10.7726 C   0  0  0  0  0  0  0  0  0  0  0  0
   27.7831  -20.2495   -9.5112 C   0  0  0  0  0  0  0  0  0  0  0  0
   27.2521  -19.7019   -8.3609 C   0  0  0  0  0  0  0  0  0  0  0  0
   27.9529  -19.6365   -7.1880 C   0  0  0  0  0  0  0  0  0  0  0  0
   29.2319  -20.1269   -7.1277 C   0  0  0  0  0  0  0  0  0  0  0  0
   29.7919  -20.6821   -8.2641 C   0  0  0  0  0  0  0  0  0  0  0  0
   29.0821  -20.7435   -9.4364 C   0  0  0  0  0  0  0  0  0  0  0  0
   24.9965  -21.5395  -11.5660 C   0  0  0  0  0  0  0  0  0  0  0  0
   24.9856  -21.6230  -12.8177 O   0  0  0  0  0  0  0  0  0  0  0  0
   19.5754  -22.9595   -8.4025 N   0  0  0  0  0  0  0  0  0  0  0  0
   19.1851  -22.8159   -9.7533 C   0  0  0  0  0  0  0  0  0  0  0  0
   18.0040  -23.0833  -10.0686 O   0  0  0  0  0  0  0  0  0  0  0  0
   20.1312  -22.3577  -10.8106 C   0  0  0  0  0  0  0  0  0  0  0  0
   21.4497  -21.9523  -10.2377 C   0  0  0  0  0  0  0  0  0  0  0  0
   22.4621  -21.4893  -11.2873 C   0  0  2  0  0  0  0  0  0  0  0  0
   23.7969  -21.3526  -10.8374 N   0  0  0  0  0  0  0  0  0  0  0  0
   21.9029  -20.4047  -12.0729 C   0  0  0  0  0  0  0  0  0  0  0  0
   21.6885  -19.2613  -11.5723 O   0  0  0  0  0  0  0  0  0  0  0  0
   23.2141  -19.0454  -15.4051 C   0  0  0  0  0  0  0  0  0  0  0  0
   21.7285  -19.2884  -15.5944 C   0  0  1  0  0  0  0  0  0  0  0  0
   21.5813  -20.5907  -16.3515 C   0  0  0  0  0  0  0  0  0  0  0  0
   21.1052  -19.4154  -14.2445 C   0  0  2  0  0  0  0  0  0  0  0  0
   21.5447  -20.5064  -13.4530 N   0  0  0  0  0  0  0  0  0  0  0  0
   19.6324  -19.5096  -14.4128 C   0  0  0  0  0  0  0  0  0  0  0  0
   18.8665  -18.4570  -14.8863 O   0  0  0  0  0  0  0  0  0  0  0  0
   19.0373  -20.5759  -14.1204 O   0  0  0  0  0  0  0  0  0  0  0  0
  2  1  1  6
  2  3  1  0
  3  4  1  0
  4  9  2  0
  5  4  1  0
  5  6  2  0
  6  7  1  0
  7  8  2  0
  9  8  1  0
 10  2  1  0
 10 18  1  0
 11 10  2  0
 13 15  1  0
 13 12  1  0
 14 13  2  0
 17 16  1  1
 16 15  1  0
 17 18  1  0
 19 17  1  0
 20 19  2  0
 22 21  1  1
 23 22  1  0
 24 25  1  6
 24 22  1  0
 25 19  1  0
 26 24  1  0
 27 26  1  0
 28 26  2  0
M  END
$$$$
