APG.pdb
     RDKit          3D

 17 17  0  0  1  0  0  0  0  0999 V2000
   23.9591  -13.0817  -18.4431 C   0  0  0  0  0  0  0  0  0  0  0  0
   24.9660  -13.0127  -17.2960 C   0  0  2  0  0  0  0  0  0  0  0  0
   24.7663  -14.1898  -16.4559 N   0  0  0  0  0  0  0  0  0  0  0  0
   24.7657  -11.7796  -16.5129 C   0  0  0  0  0  0  0  0  0  0  0  0
   24.0098  -11.8459  -15.4920 O   0  0  0  0  0  0  0  0  0  0  0  0
   25.3827  -10.5877  -16.8784 N   0  0  0  0  0  0  0  0  0  0  0  0
   26.2694  -10.4196  -17.9960 C   0  0  0  0  0  0  0  0  0  0  0  0
   27.2039   -9.3001  -17.6706 C   0  0  0  0  0  0  0  0  0  0  0  0
   26.4079   -8.4695  -16.7170 C   0  0  0  0  0  0  0  0  0  0  0  0
   25.2480   -9.3194  -16.2342 C   0  0  1  0  0  0  0  0  0  0  0  0
   23.9549   -8.6531  -16.5633 C   0  0  0  0  0  0  0  0  0  0  0  0
   23.3968   -8.9317  -17.6502 O   0  0  0  0  0  0  0  0  0  0  0  0
   23.3716   -7.7257  -15.6655 N   0  0  0  0  0  0  0  0  0  0  0  0
   22.0271   -7.2439  -15.8692 C   0  0  0  0  0  0  0  0  0  0  0  0
   21.6251   -6.3600  -14.7472 C   0  0  0  0  0  0  0  0  0  0  0  0
   21.6229   -5.1100  -14.8715 O   0  0  0  0  0  0  0  0  0  0  0  0
   21.2336   -6.8958  -13.5076 O   0  0  0  0  0  0  0  0  0  0  0  0
  2  1  1  6
  2  3  1  0
  4  5  2  0
  4  2  1  0
  6  4  1  0
  7  6  1  0
  8  7  1  0
  9  8  1  0
  9 10  1  0
 10 11  1  6
 10  6  1  0
 11 12  2  0
 13 14  1  0
 13 11  1  0
 14 15  1  0
 15 16  2  0
 15 17  1  0
M  END
$$$$
