APG.pdb
     RDKit          3D

 17 17  0  0  1  0  0  0  0  0999 V2000
   22.6584  -22.1358  -14.4959 C   0  0  0  0  0  0  0  0  0  0  0  0
   22.6914  -20.9037  -13.5930 C   0  0  2  0  0  0  0  0  0  0  0  0
   21.6554  -19.9846  -14.0548 N   0  0  0  0  0  0  0  0  0  0  0  0
   24.0167  -20.2603  -13.6537 C   0  0  0  0  0  0  0  0  0  0  0  0
   24.1868  -19.3412  -14.5164 O   0  0  0  0  0  0  0  0  0  0  0  0
   25.0425  -20.6453  -12.7968 N   0  0  0  0  0  0  0  0  0  0  0  0
   24.9146  -21.5822  -11.7154 C   0  0  0  0  0  0  0  0  0  0  0  0
   25.9317  -21.2243  -10.6810 C   0  0  0  0  0  0  0  0  0  0  0  0
   26.9995  -20.5542  -11.4831 C   0  0  0  0  0  0  0  0  0  0  0  0
   26.4008  -20.2028  -12.8319 C   0  0  1  0  0  0  0  0  0  0  0  0
   27.1800  -20.8566  -13.9226 C   0  0  0  0  0  0  0  0  0  0  0  0
   27.1738  -22.1076  -13.9966 O   0  0  0  0  0  0  0  0  0  0  0  0
   27.9108  -20.0787  -14.8538 N   0  0  0  0  0  0  0  0  0  0  0  0
   27.7622  -18.6443  -14.8977 C   0  0  0  0  0  0  0  0  0  0  0  0
   27.7164  -18.1779  -16.3056 C   0  0  0  0  0  0  0  0  0  0  0  0
   26.8582  -17.3440  -16.6877 O   0  0  0  0  0  0  0  0  0  0  0  0
   28.6342  -18.6561  -17.2573 O   0  0  0  0  0  0  0  0  0  0  0  0
  2  1  1  6
  2  3  1  0
  4  5  2  0
  4  2  1  0
  6  4  1  0
  7  6  1  0
  8  7  1  0
  9  8  1  0
  9 10  1  0
 10 11  1  6
 10  6  1  0
 11 12  2  0
 13 14  1  0
 13 11  1  0
 14 15  1  0
 15 16  2  0
 15 17  1  0
M  END
$$$$
