APG.pdb
     RDKit          3D

 17 17  0  0  1  0  0  0  0  0999 V2000
   26.5762  -17.2870  -14.9635 C   0  0  0  0  0  0  0  0  0  0  0  0
   27.0965  -18.6915  -15.2653 C   0  0  2  0  0  0  0  0  0  0  0  0
   27.4169  -18.7522  -16.6883 N   0  0  0  0  0  0  0  0  0  0  0  0
   26.0764  -19.6995  -14.9225 C   0  0  0  0  0  0  0  0  0  0  0  0
   25.2273  -20.0072  -15.8181 O   0  0  0  0  0  0  0  0  0  0  0  0
   26.0460  -20.2922  -13.6644 N   0  0  0  0  0  0  0  0  0  0  0  0
   26.9306  -19.9794  -12.5767 C   0  0  0  0  0  0  0  0  0  0  0  0
   27.0532  -21.2007  -11.7247 C   0  0  0  0  0  0  0  0  0  0  0  0
   25.7600  -21.9079  -11.9698 C   0  0  0  0  0  0  0  0  0  0  0  0
   25.1385  -21.2993  -13.2125 C   0  0  1  0  0  0  0  0  0  0  0  0
   23.7925  -20.7435  -12.8907 C   0  0  0  0  0  0  0  0  0  0  0  0
   23.6856  -19.5115  -12.6878 O   0  0  0  0  0  0  0  0  0  0  0  0
   22.6603  -21.5915  -12.8163 N   0  0  0  0  0  0  0  0  0  0  0  0
   21.6429  -21.5589  -13.8386 C   0  0  0  0  0  0  0  0  0  0  0  0
   20.7168  -20.4238  -13.6023 C   0  0  0  0  0  0  0  0  0  0  0  0
   19.6168  -20.5914  -13.0194 O   0  0  0  0  0  0  0  0  0  0  0  0
   21.0430  -19.1229  -14.0244 O   0  0  0  0  0  0  0  0  0  0  0  0
  2  1  1  6
  2  3  1  0
  4  5  2  0
  4  2  1  0
  6  4  1  0
  7  6  1  0
  8  7  1  0
  9  8  1  0
  9 10  1  0
 10 11  1  1
 10  6  1  0
 11 12  2  0
 13 14  1  0
 13 11  1  0
 14 15  1  0
 15 16  2  0
 15 17  1  0
M  END
$$$$
