APG.pdb
     RDKit          3D

 17 17  0  0  1  0  0  0  0  0999 V2000
   23.4994  -22.7300  -13.7858 C   0  0  0  0  0  0  0  0  0  0  0  0
   23.4307  -21.3326  -13.1716 C   0  0  2  0  0  0  0  0  0  0  0  0
   22.0549  -20.8595  -13.2927 N   0  0  0  0  0  0  0  0  0  0  0  0
   24.3538  -20.4203  -13.8714 C   0  0  0  0  0  0  0  0  0  0  0  0
   23.8524  -19.5959  -14.7001 O   0  0  0  0  0  0  0  0  0  0  0  0
   25.7234  -20.4607  -13.6318 N   0  0  0  0  0  0  0  0  0  0  0  0
   26.3836  -21.3666  -12.7334 C   0  0  0  0  0  0  0  0  0  0  0  0
   27.6261  -20.6965  -12.2437 C   0  0  0  0  0  0  0  0  0  0  0  0
   27.9583  -19.7578  -13.3578 C   0  0  0  0  0  0  0  0  0  0  0  0
   26.7235  -19.6339  -14.2301 C   0  0  1  0  0  0  0  0  0  0  0  0
   27.0405  -20.0514  -15.6263 C   0  0  0  0  0  0  0  0  0  0  0  0
   26.9575  -21.2664  -15.9220 O   0  0  0  0  0  0  0  0  0  0  0  0
   27.4270  -19.0940  -16.5960 N   0  0  0  0  0  0  0  0  0  0  0  0
   27.2322  -19.3458  -18.0032 C   0  0  0  0  0  0  0  0  0  0  0  0
   26.1094  -18.5241  -18.5190 C   0  0  0  0  0  0  0  0  0  0  0  0
   26.2814  -17.3277  -18.8608 O   0  0  0  0  0  0  0  0  0  0  0  0
   24.8156  -19.0608  -18.6411 O   0  0  0  0  0  0  0  0  0  0  0  0
  2  1  1  6
  2  3  1  0
  4  5  2  0
  4  2  1  0
  6  4  1  0
  7  6  1  0
  8  7  1  0
  9  8  1  0
  9 10  1  0
 10 11  1  6
 10  6  1  0
 11 12  2  0
 13 14  1  0
 13 11  1  0
 14 15  1  0
 15 16  2  0
 15 17  1  0
M  END
$$$$
