APG.pdb
     RDKit          3D

 17 17  0  0  1  0  0  0  0  0999 V2000
   21.8238  -21.8143  -13.5130 C   0  0  0  0  0  0  0  0  0  0  0  0
   22.1384  -20.3842  -13.0769 C   0  0  2  0  0  0  0  0  0  0  0  0
   21.4786  -19.4775  -14.0116 N   0  0  0  0  0  0  0  0  0  0  0  0
   23.5954  -20.1575  -13.0792 C   0  0  0  0  0  0  0  0  0  0  0  0
   24.1072  -19.6235  -14.1139 O   0  0  0  0  0  0  0  0  0  0  0  0
   24.3801  -20.5145  -11.9876 N   0  0  0  0  0  0  0  0  0  0  0  0
   23.8885  -21.0648  -10.7551 C   0  0  0  0  0  0  0  0  0  0  0  0
   24.8416  -20.6768   -9.6718 C   0  0  0  0  0  0  0  0  0  0  0  0
   26.1316  -20.5120  -10.4077 C   0  0  0  0  0  0  0  0  0  0  0  0
   25.8022  -20.4179  -11.8853 C   0  0  1  0  0  0  0  0  0  0  0  0
   26.4975  -21.5044  -12.6339 C   0  0  0  0  0  0  0  0  0  0  0  0
   25.9491  -22.6290  -12.7050 O   0  0  0  0  0  0  0  0  0  0  0  0
   27.7506  -21.2684  -13.2506 N   0  0  0  0  0  0  0  0  0  0  0  0
   27.8794  -20.3110  -14.3222 C   0  0  0  0  0  0  0  0  0  0  0  0
   27.6911  -20.9817  -15.6324 C   0  0  0  0  0  0  0  0  0  0  0  0
   28.6648  -21.4627  -16.2636 O   0  0  0  0  0  0  0  0  0  0  0  0
   26.4141  -21.0997  -16.2088 O   0  0  0  0  0  0  0  0  0  0  0  0
  2  1  1  6
  2  3  1  0
  4  5  2  0
  4  2  1  0
  6  4  1  0
  7  6  1  0
  8  7  1  0
  9  8  1  0
  9 10  1  0
 10 11  1  6
 10  6  1  0
 11 12  2  0
 13 14  1  0
 13 11  1  0
 14 15  1  0
 15 16  2  0
 15 17  1  0
M  END
$$$$
