APG.pdb
     RDKit          3D

 17 17  0  0  1  0  0  0  0  0999 V2000
   20.4584  -11.2675  -18.5756 C   0  0  0  0  0  0  0  0  0  0  0  0
   20.2198  -12.0149  -17.2645 C   0  0  2  0  0  0  0  0  0  0  0  0
   18.9108  -12.6558  -17.3484 N   0  0  0  0  0  0  0  0  0  0  0  0
   20.2640  -11.0783  -16.1265 C   0  0  0  0  0  0  0  0  0  0  0  0
   19.1687  -10.5475  -15.7571 O   0  0  0  0  0  0  0  0  0  0  0  0
   21.4613  -10.7877  -15.4808 N   0  0  0  0  0  0  0  0  0  0  0  0
   22.7406  -11.3531  -15.8083 C   0  0  0  0  0  0  0  0  0  0  0  0
   23.5674  -11.3583  -14.5637 C   0  0  0  0  0  0  0  0  0  0  0  0
   22.9943  -10.2228  -13.7795 C   0  0  0  0  0  0  0  0  0  0  0  0
   21.6515   -9.8782  -14.3952 C   0  0  1  0  0  0  0  0  0  0  0  0
   21.6447   -8.4555  -14.8424 C   0  0  0  0  0  0  0  0  0  0  0  0
   22.0366   -8.1901  -16.0028 O   0  0  0  0  0  0  0  0  0  0  0  0
   21.2044   -7.4276  -13.9729 N   0  0  0  0  0  0  0  0  0  0  0  0
   21.0940   -6.0650  -14.4341 C   0  0  0  0  0  0  0  0  0  0  0  0
   22.3933   -5.3656  -14.2780 C   0  0  0  0  0  0  0  0  0  0  0  0
   22.7375   -4.8693  -13.1766 O   0  0  0  0  0  0  0  0  0  0  0  0
   23.2810   -5.2365  -15.3607 O   0  0  0  0  0  0  0  0  0  0  0  0
  2  1  1  6
  2  3  1  0
  4  5  2  0
  4  2  1  0
  6  4  1  0
  7  6  1  0
  8  7  1  0
  9  8  1  0
  9 10  1  0
 10 11  1  6
 10  6  1  0
 11 12  2  0
 13 14  1  0
 13 11  1  0
 14 15  1  0
 15 16  2  0
 15 17  1  0
M  END
$$$$
