APG.pdb
     RDKit          3D

 17 17  0  0  1  0  0  0  0  0999 V2000
   13.8394  -10.0166  -15.0542 C   0  0  0  0  0  0  0  0  0  0  0  0
   14.6475  -11.1912  -14.5048 C   0  0  2  0  0  0  0  0  0  0  0  0
   13.7466  -12.3333  -14.3813 N   0  0  0  0  0  0  0  0  0  0  0  0
   15.2254  -10.8454  -13.1931 C   0  0  0  0  0  0  0  0  0  0  0  0
   14.6033  -11.2338  -12.1539 O   0  0  0  0  0  0  0  0  0  0  0  0
   16.4091  -10.1211  -13.0976 N   0  0  0  0  0  0  0  0  0  0  0  0
   17.1489   -9.5877  -14.2074 C   0  0  0  0  0  0  0  0  0  0  0  0
   18.5855   -9.5147  -13.8033 C   0  0  0  0  0  0  0  0  0  0  0  0
   18.5059   -9.3731  -12.3179 C   0  0  0  0  0  0  0  0  0  0  0  0
   17.1006   -9.7619  -11.8998 C   0  0  1  0  0  0  0  0  0  0  0  0
   16.4464   -8.6256  -11.1890 C   0  0  0  0  0  0  0  0  0  0  0  0
   15.8722   -7.7438  -11.8696 O   0  0  0  0  0  0  0  0  0  0  0  0
   16.4745   -8.5465   -9.7750 N   0  0  0  0  0  0  0  0  0  0  0  0
   15.7370   -7.5219   -9.0764 C   0  0  0  0  0  0  0  0  0  0  0  0
   16.5663   -6.2992   -8.9383 C   0  0  0  0  0  0  0  0  0  0  0  0
   16.6502   -5.6896   -7.8432 O   0  0  0  0  0  0  0  0  0  0  0  0
   17.2853   -5.7844  -10.0313 O   0  0  0  0  0  0  0  0  0  0  0  0
  2  1  1  1
  2  3  1  0
  4  5  2  0
  4  2  1  0
  6  4  1  0
  7  6  1  0
  8  7  1  0
  9  8  1  0
  9 10  1  0
 10 11  1  6
 10  6  1  0
 11 12  2  0
 13 14  1  0
 13 11  1  0
 14 15  1  0
 15 16  2  0
 15 17  1  0
M  END
$$$$
