APG.pdb
     RDKit          3D

 17 17  0  0  1  0  0  0  0  0999 V2000
   27.6841  -18.4785  -14.3702 C   0  0  0  0  0  0  0  0  0  0  0  0
   27.8515  -19.9804  -14.1441 C   0  0  2  0  0  0  0  0  0  0  0  0
   28.4923  -20.5411  -15.3300 N   0  0  0  0  0  0  0  0  0  0  0  0
   26.5390  -20.6132  -13.9186 C   0  0  0  0  0  0  0  0  0  0  0  0
   26.0010  -21.2201  -14.8984 O   0  0  0  0  0  0  0  0  0  0  0  0
   25.9136  -20.5485  -12.6778 N   0  0  0  0  0  0  0  0  0  0  0  0
   26.4017  -19.8235  -11.5378 C   0  0  0  0  0  0  0  0  0  0  0  0
   25.8988  -20.5127  -10.3112 C   0  0  0  0  0  0  0  0  0  0  0  0
   24.6432  -21.1668  -10.7889 C   0  0  0  0  0  0  0  0  0  0  0  0
   24.6808  -21.1679  -12.3054 C   0  0  1  0  0  0  0  0  0  0  0  0
   23.4969  -20.4399  -12.8462 C   0  0  0  0  0  0  0  0  0  0  0  0
   23.5011  -19.1869  -12.8218 O   0  0  0  0  0  0  0  0  0  0  0  0
   22.3922  -21.1510  -13.3758 N   0  0  0  0  0  0  0  0  0  0  0  0
   21.3107  -20.4568  -14.0313 C   0  0  0  0  0  0  0  0  0  0  0  0
   20.0067  -20.9184  -13.4943 C   0  0  0  0  0  0  0  0  0  0  0  0
   19.0917  -20.1039  -13.2164 O   0  0  0  0  0  0  0  0  0  0  0  0
   19.7548  -22.2849  -13.2794 O   0  0  0  0  0  0  0  0  0  0  0  0
  2  1  1  6
  2  3  1  0
  4  5  2  0
  4  2  1  0
  6  4  1  0
  7  6  1  0
  8  7  1  0
  9  8  1  0
  9 10  1  0
 10 11  1  6
 10  6  1  0
 11 12  2  0
 13 14  1  0
 13 11  1  0
 14 15  1  0
 15 16  2  0
 15 17  1  0
M  END
$$$$
