APG.pdb
     RDKit          3D

 17 17  0  0  1  0  0  0  0  0999 V2000
   25.4301  -22.1319  -11.1130 C   0  0  0  0  0  0  0  0  0  0  0  0
   25.6924  -20.6646  -10.7771 C   0  0  2  0  0  0  0  0  0  0  0  0
   24.6847  -20.2416   -9.8093 N   0  0  0  0  0  0  0  0  0  0  0  0
   25.6158  -19.8391  -11.9964 C   0  0  0  0  0  0  0  0  0  0  0  0
   24.5737  -19.1291  -12.1631 O   0  0  0  0  0  0  0  0  0  0  0  0
   26.6476  -19.8374  -12.9293 N   0  0  0  0  0  0  0  0  0  0  0  0
   27.8642  -20.5939  -12.8243 C   0  0  0  0  0  0  0  0  0  0  0  0
   28.9264  -19.8525  -13.5691 C   0  0  0  0  0  0  0  0  0  0  0  0
   28.1459  -19.0925  -14.5918 C   0  0  0  0  0  0  0  0  0  0  0  0
   26.6928  -19.1072  -14.1568 C   0  0  1  0  0  0  0  0  0  0  0  0
   25.8486  -19.7307  -15.2164 C   0  0  0  0  0  0  0  0  0  0  0  0
   25.5240  -20.9348  -15.0929 O   0  0  0  0  0  0  0  0  0  0  0  0
   25.4238  -18.9765  -16.3377 N   0  0  0  0  0  0  0  0  0  0  0  0
   24.0270  -18.6801  -16.5438 C   0  0  0  0  0  0  0  0  0  0  0  0
   23.4035  -19.7225  -17.3961 C   0  0  0  0  0  0  0  0  0  0  0  0
   23.6280  -19.7741  -18.6310 O   0  0  0  0  0  0  0  0  0  0  0  0
   22.5403  -20.6866  -16.8464 O   0  0  0  0  0  0  0  0  0  0  0  0
  2  1  1  6
  2  3  1  0
  4  5  2  0
  4  2  1  0
  6  4  1  0
  7  6  1  0
  8  7  1  0
  9  8  1  0
  9 10  1  0
 10 11  1  6
 10  6  1  0
 11 12  2  0
 13 14  1  0
 13 11  1  0
 14 15  1  0
 15 16  2  0
 15 17  1  0
M  END
$$$$
