APG.pdb
     RDKit          3D

 17 17  0  0  1  0  0  0  0  0999 V2000
   24.0703  -12.2683  -19.8193 C   0  0  0  0  0  0  0  0  0  0  0  0
   24.2253  -12.9753  -18.4736 C   0  0  2  0  0  0  0  0  0  0  0  0
   23.2873  -14.0936  -18.4468 N   0  0  0  0  0  0  0  0  0  0  0  0
   23.9450  -12.0397  -17.3690 C   0  0  0  0  0  0  0  0  0  0  0  0
   22.7497  -11.9770  -16.9386 O   0  0  0  0  0  0  0  0  0  0  0  0
   24.9530  -11.2554  -16.8179 N   0  0  0  0  0  0  0  0  0  0  0  0
   26.3292  -11.2609  -17.2298 C   0  0  0  0  0  0  0  0  0  0  0  0
   27.1585  -10.8712  -16.0495 C   0  0  0  0  0  0  0  0  0  0  0  0
   26.2173  -10.0364  -15.2433 C   0  0  0  0  0  0  0  0  0  0  0  0
   24.8171  -10.3003  -15.7638 C   0  0  1  0  0  0  0  0  0  0  0  0
   24.1977   -9.0269  -16.2317 C   0  0  0  0  0  0  0  0  0  0  0  0
   24.4664   -8.6182  -17.3856 O   0  0  0  0  0  0  0  0  0  0  0  0
   23.3247   -8.2964  -15.3888 N   0  0  0  0  0  0  0  0  0  0  0  0
   22.6353   -7.1256  -15.8740 C   0  0  0  0  0  0  0  0  0  0  0  0
   21.7641   -6.5677  -14.8102 C   0  0  0  0  0  0  0  0  0  0  0  0
   21.2126   -5.4467  -14.9414 O   0  0  0  0  0  0  0  0  0  0  0  0
   21.5286   -7.2783  -13.6201 O   0  0  0  0  0  0  0  0  0  0  0  0
  2  1  1  6
  2  3  1  0
  4  5  2  0
  4  2  1  0
  6  4  1  0
  7  6  1  0
  8  7  1  0
  9  8  1  0
  9 10  1  0
 10 11  1  6
 10  6  1  0
 11 12  2  0
 13 14  1  0
 13 11  1  0
 14 15  1  0
 15 16  2  0
 15 17  1  0
M  END
$$$$
