APG.pdb
     RDKit          3D

 17 17  0  0  1  0  0  0  0  0999 V2000
   20.2410  -10.5001  -18.7313 C   0  0  0  0  0  0  0  0  0  0  0  0
   20.0156  -11.3256  -17.4654 C   0  0  2  0  0  0  0  0  0  0  0  0
   18.7039  -11.9573  -17.5726 N   0  0  0  0  0  0  0  0  0  0  0  0
   20.0759  -10.4603  -16.2731 C   0  0  0  0  0  0  0  0  0  0  0  0
   18.9834   -9.9693  -15.8451 O   0  0  0  0  0  0  0  0  0  0  0  0
   21.2851  -10.1924  -15.6398 N   0  0  0  0  0  0  0  0  0  0  0  0
   22.5695  -10.6785  -16.0611 C   0  0  0  0  0  0  0  0  0  0  0  0
   23.4385  -10.7760  -14.8495 C   0  0  0  0  0  0  0  0  0  0  0  0
   22.8575   -9.7426  -13.9400 C   0  0  0  0  0  0  0  0  0  0  0  0
   21.4840   -9.3867  -14.4765 C   0  0  1  0  0  0  0  0  0  0  0  0
   21.4169   -7.9283  -14.7813 C   0  0  0  0  0  0  0  0  0  0  0  0
   21.8130   -7.5314  -15.9021 O   0  0  0  0  0  0  0  0  0  0  0  0
   20.9160   -7.0130  -13.8234 N   0  0  0  0  0  0  0  0  0  0  0  0
   20.6868   -5.6312  -14.1694 C   0  0  0  0  0  0  0  0  0  0  0  0
   21.9054   -4.8281  -13.9015 C   0  0  0  0  0  0  0  0  0  0  0  0
   21.9323   -3.5919  -14.1227 O   0  0  0  0  0  0  0  0  0  0  0  0
   23.0701   -5.4277  -13.3907 O   0  0  0  0  0  0  0  0  0  0  0  0
  2  1  1  6
  2  3  1  0
  4  5  2  0
  4  2  1  0
  6  4  1  0
  7  6  1  0
  8  7  1  0
  9  8  1  0
  9 10  1  0
 10 11  1  6
 10  6  1  0
 11 12  2  0
 13 14  1  0
 13 11  1  0
 14 15  1  0
 15 16  2  0
 15 17  1  0
M  END
$$$$
