YIM.pdb
     RDKit          3D

 29 29  0  0  1  0  0  0  0  0999 V2000
    8.9834  -22.6820   17.1317 O   0  0  0  0  0  0  0  0  0  0  0  0
    9.3596  -21.7422   18.0943 C   0  0  0  0  0  0  0  0  0  0  0  0
   10.5217  -21.0091   17.9816 C   0  0  0  0  0  0  0  0  0  0  0  0
   10.8707  -20.0887   18.9437 C   0  0  0  0  0  0  0  0  0  0  0  0
   10.0772  -19.8572   20.0620 C   0  0  0  0  0  0  0  0  0  0  0  0
   10.4870  -18.8533   21.0770 C   0  0  0  0  0  0  0  0  0  0  0  0
    9.8201  -17.5452   20.7142 C   0  0  2  0  0  0  0  0  0  0  0  0
   10.3472  -17.1028   19.4602 N   0  0  0  0  0  0  0  0  0  0  0  0
    9.9113  -16.5488   21.7978 C   0  0  0  0  0  0  0  0  0  0  0  0
   10.9505  -15.8441   21.8784 O   0  0  0  0  0  0  0  0  0  0  0  0
    8.9214  -20.6062   20.1461 C   0  0  0  0  0  0  0  0  0  0  0  0
    8.5637  -21.5244   19.1957 C   0  0  0  0  0  0  0  0  0  0  0  0
    6.4629  -13.0652   25.5182 C   0  0  0  0  0  0  0  0  0  0  0  0
    7.8394  -13.6759   25.2116 C   0  0  0  0  0  0  0  0  0  0  0  0
    7.7094  -14.8071   24.2353 C   0  0  2  0  0  0  0  0  0  0  0  0
    6.6891  -15.7715   24.7887 C   0  0  0  0  0  0  0  0  0  0  0  0
    9.0136  -15.3665   23.8666 C   0  0  2  0  0  0  0  0  0  0  0  0
    8.9218  -16.3180   22.7592 N   0  0  0  0  0  0  0  0  0  0  0  0
    9.7212  -16.0836   24.9432 C   0  0  0  0  0  0  0  0  0  0  0  0
    9.5935  -17.3607   25.0841 O   0  0  0  0  0  0  0  0  0  0  0  0
   10.4015  -12.4543   29.1454 C   0  0  0  0  0  0  0  0  0  0  0  0
   11.1310  -13.7822   30.1570 S   0  0  0  0  0  0  0  0  0  0  0  0
   10.9149  -15.3390   29.2443 C   0  0  0  0  0  0  0  0  0  0  0  0
   11.6940  -15.2532   27.9842 C   0  0  0  0  0  0  0  0  0  0  0  0
   11.1968  -16.2754   26.9859 C   0  0  2  0  0  0  0  0  0  0  0  0
   10.5870  -15.4992   25.9001 N   0  0  0  0  0  0  0  0  0  0  0  0
   10.1679  -17.1472   27.5789 C   0  0  0  0  0  0  0  0  0  0  0  0
    8.9520  -16.8442   27.4957 O   0  0  0  0  0  0  0  0  0  0  0  0
   10.4621  -18.3201   28.2433 O   0  0  0  0  0  0  0  0  0  0  0  0
  2  1  1  0
  3  2  2  0
  4  3  1  0
  5 11  1  0
  5  4  2  0
  6  5  1  0
  7  9  1  0
  7  6  1  0
  7  8  1  6
  9 10  2  0
 11 12  2  0
 12  2  1  0
 14 13  1  0
 15 16  1  1
 15 14  1  0
 15 17  1  0
 17 18  1  6
 18  9  1  0
 19 26  1  0
 19 17  1  0
 20 19  2  0
 22 23  1  0
 22 21  1  0
 23 24  1  0
 25 24  1  1
 25 26  1  0
 25 27  1  0
 27 29  1  0
 28 27  2  0
M  END
$$$$
