YIM.pdb
     RDKit          3D

 29 29  0  0  1  0  0  0  0  0999 V2000
    6.1578  -23.4942   28.9338 O   0  0  0  0  0  0  0  0  0  0  0  0
    6.5749  -22.3673   28.2213 C   0  0  0  0  0  0  0  0  0  0  0  0
    7.7017  -22.3833   27.4271 C   0  0  0  0  0  0  0  0  0  0  0  0
    8.0921  -21.2596   26.7346 C   0  0  0  0  0  0  0  0  0  0  0  0
    7.3773  -20.0688   26.8024 C   0  0  0  0  0  0  0  0  0  0  0  0
    7.8296  -18.8785   26.0378 C   0  0  0  0  0  0  0  0  0  0  0  0
    6.8010  -18.6150   24.9608 C   0  0  2  0  0  0  0  0  0  0  0  0
    6.7982  -19.7251   24.0586 N   0  0  0  0  0  0  0  0  0  0  0  0
    6.9905  -17.3043   24.3116 C   0  0  0  0  0  0  0  0  0  0  0  0
    7.1598  -17.2714   23.0654 O   0  0  0  0  0  0  0  0  0  0  0  0
    6.2551  -20.0846   27.6051 C   0  0  0  0  0  0  0  0  0  0  0  0
    5.8567  -21.1958   28.2986 C   0  0  0  0  0  0  0  0  0  0  0  0
    5.6312  -12.6502   26.8905 C   0  0  0  0  0  0  0  0  0  0  0  0
    5.8354  -13.4777   25.6118 C   0  0  0  0  0  0  0  0  0  0  0  0
    7.2968  -13.6852   25.3450 C   0  0  2  0  0  0  0  0  0  0  0  0
    7.8766  -12.3564   24.9262 C   0  0  0  0  0  0  0  0  0  0  0  0
    7.5352  -14.8207   24.4486 C   0  0  2  0  0  0  0  0  0  0  0  0
    6.9976  -16.0742   24.9776 N   0  0  0  0  0  0  0  0  0  0  0  0
    8.9506  -15.0984   24.1425 C   0  0  0  0  0  0  0  0  0  0  0  0
    9.6371  -14.2976   23.3979 O   0  0  0  0  0  0  0  0  0  0  0  0
    9.9671  -13.5945   29.0585 C   0  0  0  0  0  0  0  0  0  0  0  0
   11.0091  -15.0622   29.3389 S   0  0  0  0  0  0  0  0  0  0  0  0
   11.6125  -15.6159   27.7164 C   0  0  0  0  0  0  0  0  0  0  0  0
   10.4676  -15.6286   26.7722 C   0  0  0  0  0  0  0  0  0  0  0  0
   10.9240  -16.0589   25.3955 C   0  0  2  0  0  0  0  0  0  0  0  0
    9.6971  -16.2101   24.6049 N   0  0  0  0  0  0  0  0  0  0  0  0
   11.6186  -17.3571   25.4426 C   0  0  0  0  0  0  0  0  0  0  0  0
   12.8359  -17.4388   25.1448 O   0  0  0  0  0  0  0  0  0  0  0  0
   10.9978  -18.5340   25.8078 O   0  0  0  0  0  0  0  0  0  0  0  0
  2  1  1  0
  3  2  2  0
  4  3  1  0
  5 11  1  0
  5  4  2  0
  6  5  1  0
  7  9  1  0
  7  6  1  0
  7  8  1  6
  9 10  2  0
 11 12  2  0
 12  2  1  0
 14 13  1  0
 15 16  1  6
 15 14  1  0
 15 17  1  0
 17 18  1  1
 18  9  1  0
 19 26  1  0
 19 17  1  0
 20 19  2  0
 22 23  1  0
 22 21  1  0
 23 24  1  0
 25 24  1  1
 25 26  1  0
 25 27  1  0
 27 29  1  0
 28 27  2  0
M  END
$$$$
