YIM.pdb
     RDKit          3D

 29 29  0  0  1  0  0  0  0  0999 V2000
   10.2429  -24.1974   18.0368 O   0  0  0  0  0  0  0  0  0  0  0  0
   10.3917  -22.9975   18.7364 C   0  0  0  0  0  0  0  0  0  0  0  0
    9.3119  -22.3267   19.2700 C   0  0  0  0  0  0  0  0  0  0  0  0
    9.4845  -21.1456   19.9555 C   0  0  0  0  0  0  0  0  0  0  0  0
   10.7410  -20.5794   20.1402 C   0  0  0  0  0  0  0  0  0  0  0  0
   10.8861  -19.3046   20.8883 C   0  0  0  0  0  0  0  0  0  0  0  0
   10.4530  -18.1870   19.9659 C   0  0  2  0  0  0  0  0  0  0  0  0
   11.3490  -18.1494   18.8514 N   0  0  0  0  0  0  0  0  0  0  0  0
   10.3066  -16.9005   20.6721 C   0  0  0  0  0  0  0  0  0  0  0  0
   11.3016  -16.1328   20.7321 O   0  0  0  0  0  0  0  0  0  0  0  0
   11.8010  -21.2742   19.5946 C   0  0  0  0  0  0  0  0  0  0  0  0
   11.6421  -22.4496   18.9109 C   0  0  0  0  0  0  0  0  0  0  0  0
    6.8120  -13.3859   19.2980 C   0  0  0  0  0  0  0  0  0  0  0  0
    8.0629  -14.0349   19.9107 C   0  0  0  0  0  0  0  0  0  0  0  0
    7.8168  -14.4074   21.3427 C   0  0  2  0  0  0  0  0  0  0  0  0
    7.3824  -13.1586   22.0700 C   0  0  0  0  0  0  0  0  0  0  0  0
    8.9437  -15.1477   21.9187 C   0  0  2  0  0  0  0  0  0  0  0  0
    9.1338  -16.4554   21.2911 N   0  0  0  0  0  0  0  0  0  0  0  0
    8.8506  -15.4161   23.3656 C   0  0  0  0  0  0  0  0  0  0  0  0
    7.9606  -16.2260   23.8334 O   0  0  0  0  0  0  0  0  0  0  0  0
    6.3301  -10.7448   25.9020 C   0  0  0  0  0  0  0  0  0  0  0  0
    7.1601  -11.9645   26.9705 S   0  0  0  0  0  0  0  0  0  0  0  0
    8.3811  -12.8391   25.9469 C   0  0  0  0  0  0  0  0  0  0  0  0
    8.1575  -14.2983   26.0983 C   0  0  0  0  0  0  0  0  0  0  0  0
    9.4297  -15.0606   25.7997 C   0  0  2  0  0  0  0  0  0  0  0  0
    9.6815  -14.8585   24.3683 N   0  0  0  0  0  0  0  0  0  0  0  0
    9.2619  -16.5025   26.0508 C   0  0  0  0  0  0  0  0  0  0  0  0
    8.3068  -16.9196   26.7515 O   0  0  0  0  0  0  0  0  0  0  0  0
   10.1156  -17.4621   25.5466 O   0  0  0  0  0  0  0  0  0  0  0  0
  2  1  1  0
  3  2  2  0
  4  3  1  0
  5 11  1  0
  5  4  2  0
  6  5  1  0
  7  9  1  0
  7  6  1  0
  7  8  1  6
  9 10  2  0
 11 12  2  0
 12  2  1  0
 14 13  1  0
 15 16  1  1
 15 14  1  0
 15 17  1  0
 17 18  1  6
 18  9  1  0
 19 26  1  0
 19 17  1  0
 20 19  2  0
 22 23  1  0
 22 21  1  0
 23 24  1  0
 25 24  1  6
 25 26  1  0
 25 27  1  0
 27 29  1  0
 28 27  2  0
M  END
$$$$
