YIM.pdb
     RDKit          3D

 29 29  0  0  1  0  0  0  0  0999 V2000
    7.4149  -22.6491   30.0526 O   0  0  0  0  0  0  0  0  0  0  0  0
    7.2344  -21.5575   29.1998 C   0  0  0  0  0  0  0  0  0  0  0  0
    6.0641  -21.3687   28.4959 C   0  0  0  0  0  0  0  0  0  0  0  0
    5.9104  -20.2848   27.6616 C   0  0  0  0  0  0  0  0  0  0  0  0
    6.9162  -19.3399   27.4908 C   0  0  0  0  0  0  0  0  0  0  0  0
    6.7108  -18.1823   26.5831 C   0  0  0  0  0  0  0  0  0  0  0  0
    6.4854  -18.7324   25.1925 C   0  0  2  0  0  0  0  0  0  0  0  0
    6.6199  -20.1557   25.2431 N   0  0  0  0  0  0  0  0  0  0  0  0
    7.3384  -18.0765   24.1838 C   0  0  0  0  0  0  0  0  0  0  0  0
    8.2202  -18.7633   23.6062 O   0  0  0  0  0  0  0  0  0  0  0  0
    8.0746  -19.5567   28.2084 C   0  0  0  0  0  0  0  0  0  0  0  0
    8.2393  -20.6307   29.0412 C   0  0  0  0  0  0  0  0  0  0  0  0
    6.4579  -12.7957   21.9212 C   0  0  0  0  0  0  0  0  0  0  0  0
    7.0580  -13.8406   22.8749 C   0  0  0  0  0  0  0  0  0  0  0  0
    7.5740  -15.0214   22.1070 C   0  0  2  0  0  0  0  0  0  0  0  0
    6.4525  -15.5185   21.2281 C   0  0  0  0  0  0  0  0  0  0  0  0
    8.2129  -16.0087   22.9825 C   0  0  2  0  0  0  0  0  0  0  0  0
    7.2470  -16.7317   23.8097 N   0  0  0  0  0  0  0  0  0  0  0  0
    9.2096  -15.4673   23.9247 C   0  0  0  0  0  0  0  0  0  0  0  0
    8.8461  -14.7439   24.9306 O   0  0  0  0  0  0  0  0  0  0  0  0
   10.1113  -14.1313   28.4300 C   0  0  0  0  0  0  0  0  0  0  0  0
   10.8729  -15.7578   28.7346 S   0  0  0  0  0  0  0  0  0  0  0  0
   11.9078  -16.1497   27.2927 C   0  0  0  0  0  0  0  0  0  0  0  0
   11.0248  -16.2867   26.1079 C   0  0  0  0  0  0  0  0  0  0  0  0
   11.5005  -15.3868   24.9887 C   0  0  2  0  0  0  0  0  0  0  0  0
   10.6105  -15.6658   23.8558 N   0  0  0  0  0  0  0  0  0  0  0  0
   12.8828  -15.7078   24.5937 C   0  0  0  0  0  0  0  0  0  0  0  0
   13.1088  -16.5841   23.7229 O   0  0  0  0  0  0  0  0  0  0  0  0
   13.9882  -15.0848   25.1360 O   0  0  0  0  0  0  0  0  0  0  0  0
  2  1  1  0
  3  2  2  0
  4  3  1  0
  5 11  1  0
  5  4  2  0
  6  5  1  0
  7  9  1  0
  7  6  1  0
  7  8  1  1
  9 10  2  0
 11 12  2  0
 12  2  1  0
 14 13  1  0
 15 16  1  1
 15 14  1  0
 15 17  1  0
 17 18  1  1
 18  9  1  0
 19 26  1  0
 19 17  1  0
 20 19  2  0
 22 23  1  0
 22 21  1  0
 23 24  1  0
 25 24  1  1
 25 26  1  0
 25 27  1  0
 27 29  1  0
 28 27  2  0
M  END
$$$$
