YIM.pdb
     RDKit          3D

 29 29  0  0  1  0  0  0  0  0999 V2000
    8.0363  -24.3659   17.8091 O   0  0  0  0  0  0  0  0  0  0  0  0
    8.4358  -23.2193   18.5000 C   0  0  0  0  0  0  0  0  0  0  0  0
    9.7312  -23.0478   18.9395 C   0  0  0  0  0  0  0  0  0  0  0  0
   10.1003  -21.9086   19.6182 C   0  0  0  0  0  0  0  0  0  0  0  0
    9.1950  -20.8886   19.8899 C   0  0  0  0  0  0  0  0  0  0  0  0
    9.6329  -19.6734   20.6228 C   0  0  0  0  0  0  0  0  0  0  0  0
    9.3863  -18.4864   19.7185 C   0  0  2  0  0  0  0  0  0  0  0  0
   10.1767  -18.6476   18.5372 N   0  0  0  0  0  0  0  0  0  0  0  0
    9.5855  -17.2004   20.4127 C   0  0  0  0  0  0  0  0  0  0  0  0
   10.7456  -16.7154   20.4552 O   0  0  0  0  0  0  0  0  0  0  0  0
    7.9071  -21.0899   19.4373 C   0  0  0  0  0  0  0  0  0  0  0  0
    7.5280  -22.2184   18.7612 C   0  0  0  0  0  0  0  0  0  0  0  0
    6.8317  -12.9484   19.1938 C   0  0  0  0  0  0  0  0  0  0  0  0
    7.9435  -13.8787   19.7038 C   0  0  0  0  0  0  0  0  0  0  0  0
    7.7585  -14.1715   21.1633 C   0  0  2  0  0  0  0  0  0  0  0  0
    7.6937  -12.8497   21.8885 C   0  0  0  0  0  0  0  0  0  0  0  0
    8.7367  -15.1465   21.6556 C   0  0  2  0  0  0  0  0  0  0  0  0
    8.5747  -16.4628   21.0380 N   0  0  0  0  0  0  0  0  0  0  0  0
    8.7109  -15.3890   23.1098 C   0  0  0  0  0  0  0  0  0  0  0  0
    7.8130  -16.1512   23.6388 O   0  0  0  0  0  0  0  0  0  0  0  0
    6.3150  -11.0498   26.3150 C   0  0  0  0  0  0  0  0  0  0  0  0
    5.9192  -12.7659   26.7808 S   0  0  0  0  0  0  0  0  0  0  0  0
    7.4869  -13.6827   26.8527 C   0  0  0  0  0  0  0  0  0  0  0  0
    7.9568  -13.9131   25.4641 C   0  0  0  0  0  0  0  0  0  0  0  0
    9.2652  -14.6727   25.4691 C   0  0  2  0  0  0  0  0  0  0  0  0
    9.6190  -14.8544   24.0566 N   0  0  0  0  0  0  0  0  0  0  0  0
    9.1126  -15.9988   26.0922 C   0  0  0  0  0  0  0  0  0  0  0  0
    8.7472  -16.9857   25.4070 O   0  0  0  0  0  0  0  0  0  0  0  0
    9.3555  -16.2384   27.4292 O   0  0  0  0  0  0  0  0  0  0  0  0
  2  1  1  0
  3  2  2  0
  4  3  1  0
  5 11  1  0
  5  4  2  0
  6  5  1  0
  7  9  1  0
  7  6  1  0
  7  8  1  6
  9 10  2  0
 11 12  2  0
 12  2  1  0
 14 13  1  0
 15 16  1  1
 15 14  1  0
 15 17  1  0
 17 18  1  6
 18  9  1  0
 19 26  1  0
 19 17  1  0
 20 19  2  0
 22 23  1  0
 22 21  1  0
 23 24  1  0
 25 24  1  6
 25 26  1  0
 25 27  1  0
 27 29  1  0
 28 27  2  0
M  END
$$$$
