YIM.pdb
     RDKit          3D

 29 29  0  0  1  0  0  0  0  0999 V2000
    6.1681  -10.4478   27.6367 O   0  0  0  0  0  0  0  0  0  0  0  0
    6.4027  -11.7860   27.3118 C   0  0  0  0  0  0  0  0  0  0  0  0
    5.3766  -12.6470   26.9852 C   0  0  0  0  0  0  0  0  0  0  0  0
    5.6334  -13.9617   26.6687 C   0  0  0  0  0  0  0  0  0  0  0  0
    6.9246  -14.4781   26.6633 C   0  0  0  0  0  0  0  0  0  0  0  0
    7.1609  -15.9020   26.3134 C   0  0  0  0  0  0  0  0  0  0  0  0
    6.4427  -16.1728   25.0102 C   0  0  2  0  0  0  0  0  0  0  0  0
    5.5107  -17.2371   25.2215 N   0  0  0  0  0  0  0  0  0  0  0  0
    7.3761  -16.3952   23.8901 C   0  0  0  0  0  0  0  0  0  0  0  0
    7.6561  -17.5790   23.5690 O   0  0  0  0  0  0  0  0  0  0  0  0
    7.9291  -13.5920   26.9944 C   0  0  0  0  0  0  0  0  0  0  0  0
    7.6863  -12.2824   27.3110 C   0  0  0  0  0  0  0  0  0  0  0  0
    7.4029  -12.8422   19.9919 C   0  0  0  0  0  0  0  0  0  0  0  0
    7.4835  -14.2209   20.6658 C   0  0  0  0  0  0  0  0  0  0  0  0
    8.8986  -14.5400   21.0475 C   0  0  2  0  0  0  0  0  0  0  0  0
    9.6682  -14.7915   19.7740 C   0  0  0  0  0  0  0  0  0  0  0  0
    8.9679  -15.5821   22.0766 C   0  0  2  0  0  0  0  0  0  0  0  0
    7.9861  -15.3823   23.1426 N   0  0  0  0  0  0  0  0  0  0  0  0
   10.2684  -15.7111   22.7594 C   0  0  0  0  0  0  0  0  0  0  0  0
   11.1335  -14.7533   22.7238 O   0  0  0  0  0  0  0  0  0  0  0  0
    9.8919  -13.6760   27.3994 C   0  0  0  0  0  0  0  0  0  0  0  0
   11.0289  -15.0512   27.7658 S   0  0  0  0  0  0  0  0  0  0  0  0
   10.9180  -16.2280   26.3851 C   0  0  0  0  0  0  0  0  0  0  0  0
   11.8249  -15.7667   25.3048 C   0  0  0  0  0  0  0  0  0  0  0  0
   11.9726  -16.8380   24.2468 C   0  0  2  0  0  0  0  0  0  0  0  0
   10.7069  -16.8334   23.5044 N   0  0  0  0  0  0  0  0  0  0  0  0
   12.1600  -18.1675   24.8529 C   0  0  0  0  0  0  0  0  0  0  0  0
   11.2538  -19.0338   24.7796 O   0  0  0  0  0  0  0  0  0  0  0  0
   13.3094  -18.5393   25.5195 O   0  0  0  0  0  0  0  0  0  0  0  0
  2  1  1  0
  3  2  2  0
  4  3  1  0
  5 11  1  0
  5  4  2  0
  6  5  1  0
  7  9  1  0
  7  6  1  0
  7  8  1  1
  9 10  2  0
 11 12  2  0
 12  2  1  0
 14 13  1  0
 15 16  1  6
 15 14  1  0
 15 17  1  0
 17 18  1  1
 18  9  1  0
 19 26  1  0
 19 17  1  0
 20 19  2  0
 22 23  1  0
 22 21  1  0
 23 24  1  0
 25 24  1  1
 25 26  1  0
 25 27  1  0
 27 29  1  0
 28 27  2  0
M  END
$$$$
