YIM.pdb
     RDKit          3D

 29 29  0  0  1  0  0  0  0  0999 V2000
    3.0819  -23.6659   24.1479 O   0  0  0  0  0  0  0  0  0  0  0  0
    3.9037  -22.5429   24.0248 C   0  0  0  0  0  0  0  0  0  0  0  0
    5.1975  -22.5313   24.5009 C   0  0  0  0  0  0  0  0  0  0  0  0
    5.9877  -21.4122   24.3674 C   0  0  0  0  0  0  0  0  0  0  0  0
    5.5242  -20.2538   23.7534 C   0  0  0  0  0  0  0  0  0  0  0  0
    6.4088  -19.0675   23.6263 C   0  0  0  0  0  0  0  0  0  0  0  0
    6.5975  -18.8001   22.1497 C   0  0  2  0  0  0  0  0  0  0  0  0
    6.9251  -20.0349   21.5060 N   0  0  0  0  0  0  0  0  0  0  0  0
    7.5557  -17.7083   21.8944 C   0  0  0  0  0  0  0  0  0  0  0  0
    8.7250  -18.0076   21.5394 O   0  0  0  0  0  0  0  0  0  0  0  0
    4.2261  -20.2968   23.2877 C   0  0  0  0  0  0  0  0  0  0  0  0
    3.4306  -21.4038   23.4145 C   0  0  0  0  0  0  0  0  0  0  0  0
    6.2506  -13.2542   19.2698 C   0  0  0  0  0  0  0  0  0  0  0  0
    7.1965  -14.3525   19.7802 C   0  0  0  0  0  0  0  0  0  0  0  0
    7.6097  -14.0775   21.1957 C   0  0  2  0  0  0  0  0  0  0  0  0
    8.4239  -12.8069   21.1939 C   0  0  0  0  0  0  0  0  0  0  0  0
    8.2206  -15.2513   21.8270 C   0  0  2  0  0  0  0  0  0  0  0  0
    7.2675  -16.3449   22.0161 N   0  0  0  0  0  0  0  0  0  0  0  0
    8.8176  -15.0164   23.1546 C   0  0  0  0  0  0  0  0  0  0  0  0
    9.9010  -14.3256   23.2812 O   0  0  0  0  0  0  0  0  0  0  0  0
    6.7930  -11.7596   27.6891 C   0  0  0  0  0  0  0  0  0  0  0  0
    5.7796  -12.7376   26.5338 S   0  0  0  0  0  0  0  0  0  0  0  0
    6.9158  -13.7521   25.5421 C   0  0  0  0  0  0  0  0  0  0  0  0
    7.8764  -14.4110   26.4615 C   0  0  0  0  0  0  0  0  0  0  0  0
    8.9321  -15.1568   25.6753 C   0  0  2  0  0  0  0  0  0  0  0  0
    8.3054  -15.4847   24.3896 N   0  0  0  0  0  0  0  0  0  0  0  0
    9.3150  -16.4104   26.3475 C   0  0  0  0  0  0  0  0  0  0  0  0
    9.8862  -16.3843   27.4656 O   0  0  0  0  0  0  0  0  0  0  0  0
    9.0772  -17.6592   25.8109 O   0  0  0  0  0  0  0  0  0  0  0  0
  2  1  1  0
  3  2  2  0
  4  3  1  0
  5 11  1  0
  5  4  2  0
  6  5  1  0
  7  9  1  0
  7  6  1  0
  7  8  1  6
  9 10  2  0
 11 12  2  0
 12  2  1  0
 14 13  1  0
 15 16  1  6
 15 14  1  0
 15 17  1  0
 17 18  1  1
 18  9  1  0
 19 26  1  0
 19 17  1  0
 20 19  2  0
 22 23  1  0
 22 21  1  0
 23 24  1  0
 25 24  1  1
 25 26  1  0
 25 27  1  0
 27 29  1  0
 28 27  2  0
M  END
$$$$
