YIM.pdb
     RDKit          3D

 29 29  0  0  1  0  0  0  0  0999 V2000
    8.3620  -23.8149   17.0795 O   0  0  0  0  0  0  0  0  0  0  0  0
    8.7058  -22.7116   17.8643 C   0  0  0  0  0  0  0  0  0  0  0  0
   10.0116  -22.4496   18.2207 C   0  0  0  0  0  0  0  0  0  0  0  0
   10.3250  -21.3557   18.9950 C   0  0  0  0  0  0  0  0  0  0  0  0
    9.3512  -20.4730   19.4493 C   0  0  0  0  0  0  0  0  0  0  0  0
    9.7300  -19.3021   20.2808 C   0  0  0  0  0  0  0  0  0  0  0  0
    9.5858  -18.0687   19.4175 C   0  0  2  0  0  0  0  0  0  0  0  0
   10.4870  -18.1837   18.3126 N   0  0  0  0  0  0  0  0  0  0  0  0
    9.7286  -16.8214   20.1916 C   0  0  0  0  0  0  0  0  0  0  0  0
   10.8831  -16.3526   20.3655 O   0  0  0  0  0  0  0  0  0  0  0  0
    8.0547  -20.7622   19.0760 C   0  0  0  0  0  0  0  0  0  0  0  0
    7.7305  -21.8470   18.3063 C   0  0  0  0  0  0  0  0  0  0  0  0
    7.0838  -12.4752   19.1982 C   0  0  0  0  0  0  0  0  0  0  0  0
    8.1910  -13.4037   19.7211 C   0  0  0  0  0  0  0  0  0  0  0  0
    7.9058  -13.8223   21.1330 C   0  0  2  0  0  0  0  0  0  0  0  0
    7.8746  -12.5742   21.9807 C   0  0  0  0  0  0  0  0  0  0  0  0
    8.7966  -14.8989   21.5769 C   0  0  2  0  0  0  0  0  0  0  0  0
    8.6694  -16.1043   20.7578 N   0  0  0  0  0  0  0  0  0  0  0  0
    8.6027  -15.3470   22.9682 C   0  0  0  0  0  0  0  0  0  0  0  0
    7.6188  -16.1211   23.2840 O   0  0  0  0  0  0  0  0  0  0  0  0
    6.7362  -11.3482   27.2891 C   0  0  0  0  0  0  0  0  0  0  0  0
    7.6487  -12.8478   27.7762 S   0  0  0  0  0  0  0  0  0  0  0  0
    7.0140  -14.2196   26.7668 C   0  0  0  0  0  0  0  0  0  0  0  0
    7.6822  -14.1726   25.4426 C   0  0  0  0  0  0  0  0  0  0  0  0
    8.9333  -15.0231   25.4526 C   0  0  2  0  0  0  0  0  0  0  0  0
    9.4267  -15.0117   24.0707 N   0  0  0  0  0  0  0  0  0  0  0  0
    8.6331  -16.4135   25.8355 C   0  0  0  0  0  0  0  0  0  0  0  0
    7.6567  -17.0173   25.3264 O   0  0  0  0  0  0  0  0  0  0  0  0
    9.3830  -17.1247   26.7498 O   0  0  0  0  0  0  0  0  0  0  0  0
  2  1  1  0
  3  2  2  0
  4  3  1  0
  5 11  1  0
  5  4  2  0
  6  5  1  0
  7  9  1  0
  7  6  1  0
  7  8  1  6
  9 10  2  0
 11 12  2  0
 12  2  1  0
 14 13  1  0
 15 16  1  1
 15 14  1  0
 15 17  1  0
 17 18  1  6
 18  9  1  0
 19 26  1  0
 19 17  1  0
 20 19  2  0
 22 23  1  0
 22 21  1  0
 23 24  1  0
 25 24  1  6
 25 26  1  0
 25 27  1  0
 27 29  1  0
 28 27  2  0
M  END
$$$$
