YIM.pdb
     RDKit          3D

 29 29  0  0  1  0  0  0  0  0999 V2000
    6.0209  -23.3582   29.2681 O   0  0  0  0  0  0  0  0  0  0  0  0
    6.4840  -22.3394   28.4319 C   0  0  0  0  0  0  0  0  0  0  0  0
    6.5935  -21.0351   28.8647 C   0  0  0  0  0  0  0  0  0  0  0  0
    7.0527  -20.0488   28.0215 C   0  0  0  0  0  0  0  0  0  0  0  0
    7.4236  -20.3177   26.7086 C   0  0  0  0  0  0  0  0  0  0  0  0
    7.9170  -19.2262   25.8305 C   0  0  0  0  0  0  0  0  0  0  0  0
    6.7109  -18.5987   25.1678 C   0  0  2  0  0  0  0  0  0  0  0  0
    6.1043  -19.5758   24.3172 N   0  0  0  0  0  0  0  0  0  0  0  0
    7.0372  -17.3266   24.4965 C   0  0  0  0  0  0  0  0  0  0  0  0
    7.1211  -17.3154   23.2412 O   0  0  0  0  0  0  0  0  0  0  0  0
    7.3026  -21.6319   26.3056 C   0  0  0  0  0  0  0  0  0  0  0  0
    6.8473  -22.6215   27.1348 C   0  0  0  0  0  0  0  0  0  0  0  0
    5.3701  -12.6901   26.8460 C   0  0  0  0  0  0  0  0  0  0  0  0
    5.6509  -13.5992   25.6393 C   0  0  0  0  0  0  0  0  0  0  0  0
    7.1252  -13.6904   25.3788 C   0  0  2  0  0  0  0  0  0  0  0  0
    7.5960  -12.3249   24.9418 C   0  0  0  0  0  0  0  0  0  0  0  0
    7.4586  -14.8154   24.4996 C   0  0  2  0  0  0  0  0  0  0  0  0
    7.2647  -16.1111   25.1505 N   0  0  0  0  0  0  0  0  0  0  0  0
    8.8433  -14.8335   23.9932 C   0  0  0  0  0  0  0  0  0  0  0  0
    9.3097  -13.8464   23.3038 O   0  0  0  0  0  0  0  0  0  0  0  0
   10.8707  -14.4052   30.1316 C   0  0  0  0  0  0  0  0  0  0  0  0
   11.2491  -13.9018   28.4223 S   0  0  0  0  0  0  0  0  0  0  0  0
   11.4907  -15.4194   27.4518 C   0  0  0  0  0  0  0  0  0  0  0  0
   10.3918  -15.5185   26.4593 C   0  0  0  0  0  0  0  0  0  0  0  0
   10.9535  -15.7155   25.0684 C   0  0  2  0  0  0  0  0  0  0  0  0
    9.7865  -15.8715   24.1925 N   0  0  0  0  0  0  0  0  0  0  0  0
   11.7708  -16.9385   24.9887 C   0  0  0  0  0  0  0  0  0  0  0  0
   12.8862  -16.9971   25.5627 O   0  0  0  0  0  0  0  0  0  0  0  0
   11.3766  -18.0677   24.3007 O   0  0  0  0  0  0  0  0  0  0  0  0
  2  1  1  0
  3  2  2  0
  4  3  1  0
  5 11  1  0
  5  4  2  0
  6  5  1  0
  7  9  1  0
  7  6  1  0
  7  8  1  6
  9 10  2  0
 11 12  2  0
 12  2  1  0
 14 13  1  0
 15 16  1  6
 15 14  1  0
 15 17  1  0
 17 18  1  1
 18  9  1  0
 19 26  1  0
 19 17  1  0
 20 19  2  0
 22 23  1  0
 22 21  1  0
 23 24  1  0
 25 24  1  1
 25 26  1  0
 25 27  1  0
 27 29  1  0
 28 27  2  0
M  END
$$$$
