YIM.pdb
     RDKit          3D

 29 29  0  0  1  0  0  0  0  0999 V2000
    7.2441  -22.7689   30.0056 O   0  0  0  0  0  0  0  0  0  0  0  0
    7.2620  -21.6828   29.1272 C   0  0  0  0  0  0  0  0  0  0  0  0
    6.1097  -21.1944   28.5491 C   0  0  0  0  0  0  0  0  0  0  0  0
    6.1534  -20.1227   27.6865 C   0  0  0  0  0  0  0  0  0  0  0  0
    7.3476  -19.4891   27.3608 C   0  0  0  0  0  0  0  0  0  0  0  0
    7.3528  -18.3336   26.4277 C   0  0  0  0  0  0  0  0  0  0  0  0
    6.8818  -18.8372   25.0816 C   0  0  2  0  0  0  0  0  0  0  0  0
    7.0891  -20.2517   25.0315 N   0  0  0  0  0  0  0  0  0  0  0  0
    7.4869  -18.0938   23.9606 C   0  0  0  0  0  0  0  0  0  0  0  0
    8.2264  -18.7182   23.1568 O   0  0  0  0  0  0  0  0  0  0  0  0
    8.4827  -20.0010   27.9552 C   0  0  0  0  0  0  0  0  0  0  0  0
    8.4521  -21.0662   28.8147 C   0  0  0  0  0  0  0  0  0  0  0  0
    5.6133  -13.8972   21.0384 C   0  0  0  0  0  0  0  0  0  0  0  0
    6.4137  -15.1251   21.5001 C   0  0  0  0  0  0  0  0  0  0  0  0
    7.5591  -14.7100   22.3752 C   0  0  2  0  0  0  0  0  0  0  0  0
    8.4235  -13.7654   21.5766 C   0  0  0  0  0  0  0  0  0  0  0  0
    8.2302  -15.8626   22.9843 C   0  0  2  0  0  0  0  0  0  0  0  0
    7.3036  -16.7293   23.7126 N   0  0  0  0  0  0  0  0  0  0  0  0
    9.3004  -15.5364   23.9447 C   0  0  0  0  0  0  0  0  0  0  0  0
    9.1943  -14.5214   24.7356 O   0  0  0  0  0  0  0  0  0  0  0  0
   10.2586  -13.5338   29.0738 C   0  0  0  0  0  0  0  0  0  0  0  0
    9.3619  -14.9239   28.3110 S   0  0  0  0  0  0  0  0  0  0  0  0
    9.8358  -14.9768   26.5571 C   0  0  0  0  0  0  0  0  0  0  0  0
   10.9904  -15.8980   26.4133 C   0  0  0  0  0  0  0  0  0  0  0  0
   11.5720  -15.8012   25.0200 C   0  0  2  0  0  0  0  0  0  0  0  0
   10.5079  -16.2566   24.1181 N   0  0  0  0  0  0  0  0  0  0  0  0
   12.7368  -16.6893   24.8627 C   0  0  0  0  0  0  0  0  0  0  0  0
   13.8233  -16.4209   25.4324 O   0  0  0  0  0  0  0  0  0  0  0  0
   12.7122  -17.8413   24.1036 O   0  0  0  0  0  0  0  0  0  0  0  0
  2  1  1  0
  3  2  2  0
  4  3  1  0
  5 11  1  0
  5  4  2  0
  6  5  1  0
  7  9  1  0
  7  6  1  0
  7  8  1  6
  9 10  2  0
 11 12  2  0
 12  2  1  0
 14 13  1  0
 15 16  1  6
 15 14  1  0
 15 17  1  0
 17 18  1  1
 18  9  1  0
 19 26  1  0
 19 17  1  0
 20 19  2  0
 22 23  1  0
 22 21  1  0
 23 24  1  0
 25 24  1  1
 25 26  1  0
 25 27  1  0
 27 29  1  0
 28 27  2  0
M  END
$$$$
