YIM.pdb
     RDKit          3D

 29 29  0  0  1  0  0  0  0  0999 V2000
    7.7011  -14.4165   14.7381 O   0  0  0  0  0  0  0  0  0  0  0  0
    7.9286  -14.2375   16.1048 C   0  0  0  0  0  0  0  0  0  0  0  0
    7.3008  -13.2426   16.8236 C   0  0  0  0  0  0  0  0  0  0  0  0
    7.5416  -13.0865   18.1698 C   0  0  0  0  0  0  0  0  0  0  0  0
    8.4190  -13.9150   18.8608 C   0  0  0  0  0  0  0  0  0  0  0  0
    8.6501  -13.7160   20.3143 C   0  0  0  0  0  0  0  0  0  0  0  0
    8.6623  -15.0828   20.9616 C   0  0  2  0  0  0  0  0  0  0  0  0
    7.4093  -15.7193   20.6950 N   0  0  0  0  0  0  0  0  0  0  0  0
    9.0229  -15.0245   22.3906 C   0  0  0  0  0  0  0  0  0  0  0  0
   10.1885  -14.6666   22.7006 O   0  0  0  0  0  0  0  0  0  0  0  0
    9.0313  -14.9005   18.1139 C   0  0  0  0  0  0  0  0  0  0  0  0
    8.8000  -15.0657   16.7747 C   0  0  0  0  0  0  0  0  0  0  0  0
    5.1843  -13.0402   25.5604 C   0  0  0  0  0  0  0  0  0  0  0  0
    6.5254  -13.3805   24.8916 C   0  0  0  0  0  0  0  0  0  0  0  0
    7.1404  -14.5916   25.5279 C   0  0  2  0  0  0  0  0  0  0  0  0
    7.2304  -14.3305   27.0115 C   0  0  0  0  0  0  0  0  0  0  0  0
    8.3773  -14.9976   24.8535 C   0  0  2  0  0  0  0  0  0  0  0  0
    8.1622  -15.3391   23.4474 N   0  0  0  0  0  0  0  0  0  0  0  0
    9.0643  -16.1629   25.4402 C   0  0  0  0  0  0  0  0  0  0  0  0
    8.6831  -17.3652   25.1641 O   0  0  0  0  0  0  0  0  0  0  0  0
   11.5073  -13.5097   28.2704 C   0  0  0  0  0  0  0  0  0  0  0  0
   12.1229  -14.7053   29.4992 S   0  0  0  0  0  0  0  0  0  0  0  0
   11.3053  -16.2940   29.1657 C   0  0  0  0  0  0  0  0  0  0  0  0
   11.8191  -16.8219   27.8775 C   0  0  0  0  0  0  0  0  0  0  0  0
   10.6766  -17.3085   27.0135 C   0  0  2  0  0  0  0  0  0  0  0  0
   10.1703  -16.1160   26.3243 N   0  0  0  0  0  0  0  0  0  0  0  0
    9.5914  -17.8780   27.8309 C   0  0  0  0  0  0  0  0  0  0  0  0
    8.6592  -17.1477   28.2493 O   0  0  0  0  0  0  0  0  0  0  0  0
    9.5273  -19.2115   28.1794 O   0  0  0  0  0  0  0  0  0  0  0  0
  2  1  1  0
  3  2  2  0
  4  3  1  0
  5 11  1  0
  5  4  2  0
  6  5  1  0
  7  9  1  0
  7  6  1  0
  7  8  1  1
  9 10  2  0
 11 12  2  0
 12  2  1  0
 14 13  1  0
 15 16  1  1
 15 14  1  0
 15 17  1  0
 17 18  1  6
 18  9  1  0
 19 26  1  0
 19 17  1  0
 20 19  2  0
 22 23  1  0
 22 21  1  0
 23 24  1  0
 25 24  1  1
 25 26  1  0
 25 27  1  0
 27 29  1  0
 28 27  2  0
M  END
$$$$
