FAI.pdb
     RDKit          3D

 25 25  0  0  1  0  0  0  0  0999 V2000
   26.4829  -19.5930   -9.2322 N   0  0  0  0  0  0  0  0  0  0  0  0
   26.9002  -20.2644  -10.4728 C   0  0  1  0  0  0  0  0  0  0  0  0
   27.3374  -21.6466  -10.1780 C   0  0  0  0  0  0  0  0  0  0  0  0
   28.7247  -21.7341   -9.6696 C   0  0  0  0  0  0  0  0  0  0  0  0
   29.8075  -21.9745  -10.5136 C   0  0  0  0  0  0  0  0  0  0  0  0
   31.1018  -22.0705  -10.0425 C   0  0  0  0  0  0  0  0  0  0  0  0
   31.3787  -21.9306   -8.6908 C   0  0  0  0  0  0  0  0  0  0  0  0
   30.3260  -21.6938   -7.8480 C   0  0  0  0  0  0  0  0  0  0  0  0
   29.0191  -21.5980   -8.3361 C   0  0  0  0  0  0  0  0  0  0  0  0
   25.9054  -20.0430  -11.4925 C   0  0  0  0  0  0  0  0  0  0  0  0
   24.6739  -20.0967  -11.1676 O   0  0  0  0  0  0  0  0  0  0  0  0
   25.6014  -19.2348  -15.2077 C   0  0  0  0  0  0  0  0  0  0  0  0
   25.0661  -19.4969  -13.8036 C   0  0  2  0  0  0  0  0  0  0  0  0
   26.1141  -19.7540  -12.8760 N   0  0  0  0  0  0  0  0  0  0  0  0
   24.0088  -20.4842  -13.9354 C   0  0  0  0  0  0  0  0  0  0  0  0
   24.4063  -21.6958  -14.0685 O   0  0  0  0  0  0  0  0  0  0  0  0
   20.4004  -21.4272  -10.4172 C   0  0  0  0  0  0  0  0  0  0  0  0
   21.3157  -21.4568  -11.5840 C   0  0  0  0  0  0  0  0  0  0  0  0
   20.7136  -21.4484  -12.9334 C   0  0  2  0  0  0  0  0  0  0  0  0
   19.5369  -22.3857  -13.0290 C   0  0  0  0  0  0  0  0  0  0  0  0
   21.6398  -21.3865  -14.0697 C   0  0  2  0  0  0  0  0  0  0  0  0
   22.6140  -20.2946  -13.9376 N   0  0  0  0  0  0  0  0  0  0  0  0
   21.1068  -21.4662  -15.4332 C   0  0  0  0  0  0  0  0  0  0  0  0
   20.8232  -20.2773  -16.1707 O   0  0  0  0  0  0  0  0  0  0  0  0
   20.8460  -22.4948  -16.0896 O   0  0  0  0  0  0  0  0  0  0  0  0
  2 10  1  0
  2  1  1  1
  3  2  1  0
  4  3  1  0
  5  4  2  0
  6  5  1  0
  7  6  2  0
  7  8  1  0
  8  9  2  0
  9  4  1  0
 10 11  2  0
 13 12  1  6
 14 13  1  0
 14 10  1  0
 15 22  1  0
 15 13  1  0
 16 15  2  0
 18 17  1  0
 19 18  1  0
 19 20  1  6
 21 19  1  0
 21 22  1  6
 23 21  1  0
 23 24  1  0
 25 23  2  0
M  END
$$$$
