FAI.pdb
     RDKit          3D

 25 25  0  0  1  0  0  0  0  0999 V2000
   30.4896  -22.0818   -9.6199 N   0  0  0  0  0  0  0  0  0  0  0  0
   29.5974  -21.5837   -8.5617 C   0  0  1  0  0  0  0  0  0  0  0  0
   30.3112  -20.5988   -7.7197 C   0  0  0  0  0  0  0  0  0  0  0  0
   29.6230  -20.2999   -6.4438 C   0  0  0  0  0  0  0  0  0  0  0  0
   29.8515  -21.0451   -5.2884 C   0  0  0  0  0  0  0  0  0  0  0  0
   29.2020  -20.7788   -4.0995 C   0  0  0  0  0  0  0  0  0  0  0  0
   28.2824  -19.7449   -4.0077 C   0  0  0  0  0  0  0  0  0  0  0  0
   28.0464  -19.0029   -5.1339 C   0  0  0  0  0  0  0  0  0  0  0  0
   28.7103  -19.2811   -6.3328 C   0  0  0  0  0  0  0  0  0  0  0  0
   28.3260  -21.2257   -9.1396 C   0  0  0  0  0  0  0  0  0  0  0  0
   28.2723  -20.9653  -10.3863 O   0  0  0  0  0  0  0  0  0  0  0  0
   24.6382  -20.9865   -8.1982 C   0  0  0  0  0  0  0  0  0  0  0  0
   25.8074  -21.2060   -9.1528 C   0  0  2  0  0  0  0  0  0  0  0  0
   27.0608  -21.1219   -8.4843 N   0  0  0  0  0  0  0  0  0  0  0  0
   25.5815  -20.3420  -10.2985 C   0  0  0  0  0  0  0  0  0  0  0  0
   25.6972  -19.0864  -10.0670 O   0  0  0  0  0  0  0  0  0  0  0  0
   27.1832  -20.9397  -15.6627 C   0  0  0  0  0  0  0  0  0  0  0  0
   26.1187  -20.8926  -14.6309 C   0  0  0  0  0  0  0  0  0  0  0  0
   26.1104  -19.7448  -13.7003 C   0  0  2  0  0  0  0  0  0  0  0  0
   27.5023  -19.3680  -13.2611 C   0  0  0  0  0  0  0  0  0  0  0  0
   25.0394  -19.7148  -12.6979 C   0  0  2  0  0  0  0  0  0  0  0  0
   25.2537  -20.6921  -11.6219 N   0  0  0  0  0  0  0  0  0  0  0  0
   23.6423  -19.7060  -13.1425 C   0  0  0  0  0  0  0  0  0  0  0  0
   23.1776  -18.7079  -14.0512 O   0  0  0  0  0  0  0  0  0  0  0  0
   22.7357  -20.5000  -12.8192 O   0  0  0  0  0  0  0  0  0  0  0  0
  2 10  1  0
  2  1  1  6
  3  2  1  0
  4  3  1  0
  5  4  2  0
  6  5  1  0
  7  6  2  0
  7  8  1  0
  8  9  2  0
  9  4  1  0
 10 11  2  0
 13 12  1  1
 14 13  1  0
 14 10  1  0
 15 22  1  0
 15 13  1  0
 16 15  2  0
 18 17  1  0
 19 18  1  0
 19 20  1  1
 21 19  1  0
 21 22  1  1
 23 21  1  0
 23 24  1  0
 25 23  2  0
M  END
$$$$
