FAI.pdb
     RDKit          3D

 25 25  0  0  1  0  0  0  0  0999 V2000
   14.1466   -8.8946  -11.1187 N   0  0  0  0  0  0  0  0  0  0  0  0
   14.7162   -7.5788  -10.7898 C   0  0  1  0  0  0  0  0  0  0  0  0
   15.1982   -7.5712   -9.3913 C   0  0  0  0  0  0  0  0  0  0  0  0
   14.1102   -7.5162   -8.3892 C   0  0  0  0  0  0  0  0  0  0  0  0
   13.5724   -6.3088   -7.9474 C   0  0  0  0  0  0  0  0  0  0  0  0
   12.5668   -6.2518   -7.0030 C   0  0  0  0  0  0  0  0  0  0  0  0
   12.0461   -7.4111   -6.4481 C   0  0  0  0  0  0  0  0  0  0  0  0
   12.5634   -8.6060   -6.8715 C   0  0  0  0  0  0  0  0  0  0  0  0
   13.5815   -8.6520   -7.8290 C   0  0  0  0  0  0  0  0  0  0  0  0
   15.6094   -7.1690  -11.8447 C   0  0  0  0  0  0  0  0  0  0  0  0
   16.5545   -7.9536  -12.1855 O   0  0  0  0  0  0  0  0  0  0  0  0
   15.9054   -4.5671  -14.5826 C   0  0  0  0  0  0  0  0  0  0  0  0
   16.4544   -5.6718  -13.6855 C   0  0  2  0  0  0  0  0  0  0  0  0
   15.5805   -5.9560  -12.5989 N   0  0  0  0  0  0  0  0  0  0  0  0
   17.8319   -5.3222  -13.3848 C   0  0  0  0  0  0  0  0  0  0  0  0
   18.0046   -4.6711  -12.2939 O   0  0  0  0  0  0  0  0  0  0  0  0
   21.8378   -8.7426  -13.3419 C   0  0  0  0  0  0  0  0  0  0  0  0
   20.9089   -7.5949  -13.2012 C   0  0  0  0  0  0  0  0  0  0  0  0
   21.3103   -6.3051  -13.8001 C   0  0  2  0  0  0  0  0  0  0  0  0
   22.7657   -6.0001  -13.5529 C   0  0  0  0  0  0  0  0  0  0  0  0
   20.3480   -5.2020  -13.6995 C   0  0  2  0  0  0  0  0  0  0  0  0
   18.9980   -5.5980  -14.1233 N   0  0  0  0  0  0  0  0  0  0  0  0
   20.7108   -3.8844  -14.2306 C   0  0  0  0  0  0  0  0  0  0  0  0
   21.5636   -3.0137  -13.4874 O   0  0  0  0  0  0  0  0  0  0  0  0
   20.3574   -3.3770  -15.3143 O   0  0  0  0  0  0  0  0  0  0  0  0
  2 10  1  0
  2  1  1  6
  3  2  1  0
  4  3  1  0
  5  4  2  0
  6  5  1  0
  7  6  2  0
  7  8  1  0
  8  9  2  0
  9  4  1  0
 10 11  2  0
 13 12  1  1
 14 13  1  0
 14 10  1  0
 15 22  1  0
 15 13  1  0
 16 15  2  0
 18 17  1  0
 19 18  1  0
 19 20  1  1
 21 19  1  0
 21 22  1  6
 23 21  1  0
 23 24  1  0
 25 23  2  0
M  END
$$$$
