FAI.pdb
     RDKit          3D

 25 25  0  0  1  0  0  0  0  0999 V2000
   28.9451  -21.8546   -9.3537 N   0  0  0  0  0  0  0  0  0  0  0  0
   27.7374  -21.1186   -8.9491 C   0  0  1  0  0  0  0  0  0  0  0  0
   28.1111  -19.8010   -8.3898 C   0  0  0  0  0  0  0  0  0  0  0  0
   28.2437  -19.7986   -6.9156 C   0  0  0  0  0  0  0  0  0  0  0  0
   29.4127  -20.2100   -6.2778 C   0  0  0  0  0  0  0  0  0  0  0  0
   29.5366  -20.2223   -4.9027 C   0  0  0  0  0  0  0  0  0  0  0  0
   28.4866  -19.8211   -4.0906 C   0  0  0  0  0  0  0  0  0  0  0  0
   27.3310  -19.4137   -4.7014 C   0  0  0  0  0  0  0  0  0  0  0  0
   27.2166  -19.4047   -6.0951 C   0  0  0  0  0  0  0  0  0  0  0  0
   26.7627  -21.1825  -10.0095 C   0  0  0  0  0  0  0  0  0  0  0  0
   27.1718  -21.1929  -11.2167 O   0  0  0  0  0  0  0  0  0  0  0  0
   22.9954  -21.4146  -10.5582 C   0  0  0  0  0  0  0  0  0  0  0  0
   24.4525  -21.3316  -11.0017 C   0  0  2  0  0  0  0  0  0  0  0  0
   25.3401  -21.2436   -9.8930 N   0  0  0  0  0  0  0  0  0  0  0  0
   24.5226  -20.2985  -12.0205 C   0  0  0  0  0  0  0  0  0  0  0  0
   24.3717  -19.0991  -11.5935 O   0  0  0  0  0  0  0  0  0  0  0  0
   27.8944  -18.0696  -14.0395 C   0  0  0  0  0  0  0  0  0  0  0  0
   27.2428  -19.3413  -14.4371 C   0  0  0  0  0  0  0  0  0  0  0  0
   25.9567  -19.2607  -15.1604 C   0  0  2  0  0  0  0  0  0  0  0  0
   26.0140  -18.2749  -16.2992 C   0  0  0  0  0  0  0  0  0  0  0  0
   24.7370  -19.3032  -14.3460 C   0  0  2  0  0  0  0  0  0  0  0  0
   24.7318  -20.4325  -13.4060 N   0  0  0  0  0  0  0  0  0  0  0  0
   23.4339  -19.1445  -14.9990 C   0  0  0  0  0  0  0  0  0  0  0  0
   22.6430  -20.2873  -15.3247 O   0  0  0  0  0  0  0  0  0  0  0  0
   22.8760  -18.0805  -15.3360 O   0  0  0  0  0  0  0  0  0  0  0  0
  2 10  1  0
  2  1  1  6
  3  2  1  0
  4  3  1  0
  5  4  2  0
  6  5  1  0
  7  6  2  0
  7  8  1  0
  8  9  2  0
  9  4  1  0
 10 11  2  0
 13 12  1  1
 14 13  1  0
 14 10  1  0
 15 22  1  0
 15 13  1  0
 16 15  2  0
 18 17  1  0
 19 18  1  0
 19 20  1  1
 21 19  1  0
 21 22  1  6
 23 21  1  0
 23 24  1  0
 25 23  2  0
M  END
$$$$
