FAI.pdb
     RDKit          3D

 25 25  0  0  1  0  0  0  0  0999 V2000
   22.9080  -16.8025  -18.3877 N   0  0  0  0  0  0  0  0  0  0  0  0
   23.3035  -17.8607  -17.4455 C   0  0  1  0  0  0  0  0  0  0  0  0
   24.4131  -17.3873  -16.5892 C   0  0  0  0  0  0  0  0  0  0  0  0
   25.6538  -17.0870  -17.3384 C   0  0  0  0  0  0  0  0  0  0  0  0
   26.1567  -15.7917  -17.4469 C   0  0  0  0  0  0  0  0  0  0  0  0
   27.3062  -15.5047  -18.1559 C   0  0  0  0  0  0  0  0  0  0  0  0
   28.0149  -16.5088  -18.7982 C   0  0  0  0  0  0  0  0  0  0  0  0
   27.5343  -17.7872  -18.7013 C   0  0  0  0  0  0  0  0  0  0  0  0
   26.3693  -18.0667  -17.9801 C   0  0  0  0  0  0  0  0  0  0  0  0
   22.1242  -18.4140  -16.8278 C   0  0  0  0  0  0  0  0  0  0  0  0
   21.4610  -17.6885  -16.0161 O   0  0  0  0  0  0  0  0  0  0  0  0
   19.6142  -21.1806  -17.1351 C   0  0  0  0  0  0  0  0  0  0  0  0
   20.4350  -20.2054  -16.2972 C   0  0  2  0  0  0  0  0  0  0  0  0
   21.5662  -19.7167  -17.0088 N   0  0  0  0  0  0  0  0  0  0  0  0
   20.6563  -20.8413  -15.0101 C   0  0  0  0  0  0  0  0  0  0  0  0
   21.4117  -21.8769  -15.0351 O   0  0  0  0  0  0  0  0  0  0  0  0
   22.7573  -20.1721   -9.5153 C   0  0  0  0  0  0  0  0  0  0  0  0
   21.8130  -20.9435  -10.3597 C   0  0  0  0  0  0  0  0  0  0  0  0
   21.3994  -20.3520  -11.6491 C   0  0  2  0  0  0  0  0  0  0  0  0
   21.1001  -18.8802  -11.5213 C   0  0  0  0  0  0  0  0  0  0  0  0
   20.5179  -21.1638  -12.4959 C   0  0  2  0  0  0  0  0  0  0  0  0
   20.1571  -20.4791  -13.7448 N   0  0  0  0  0  0  0  0  0  0  0  0
   19.3566  -21.8256  -11.8935 C   0  0  0  0  0  0  0  0  0  0  0  0
   18.0428  -21.5820  -12.3960 O   0  0  0  0  0  0  0  0  0  0  0  0
   19.3484  -22.6273  -10.9374 O   0  0  0  0  0  0  0  0  0  0  0  0
  2 10  1  0
  2  1  1  1
  3  2  1  0
  4  3  1  0
  5  4  2  0
  6  5  1  0
  7  6  2  0
  7  8  1  0
  8  9  2  0
  9  4  1  0
 10 11  2  0
 13 12  1  6
 14 13  1  0
 14 10  1  0
 15 22  1  0
 15 13  1  0
 16 15  2  0
 18 17  1  0
 19 18  1  0
 19 20  1  1
 21 19  1  0
 21 22  1  6
 23 21  1  0
 23 24  1  0
 25 23  2  0
M  END
$$$$
