FAI.pdb
     RDKit          3D

 25 25  0  0  1  0  0  0  0  0999 V2000
   27.5650  -21.3115  -16.3557 N   0  0  0  0  0  0  0  0  0  0  0  0
   27.8046  -21.1253  -14.9163 C   0  0  1  0  0  0  0  0  0  0  0  0
   28.4738  -19.8276  -14.6783 C   0  0  0  0  0  0  0  0  0  0  0  0
   28.7152  -19.5385  -13.2469 C   0  0  0  0  0  0  0  0  0  0  0  0
   29.7202  -20.1775  -12.5230 C   0  0  0  0  0  0  0  0  0  0  0  0
   29.9406  -19.9213  -11.1842 C   0  0  0  0  0  0  0  0  0  0  0  0
   29.1580  -19.0054  -10.4974 C   0  0  0  0  0  0  0  0  0  0  0  0
   28.1662  -18.3686  -11.1941 C   0  0  0  0  0  0  0  0  0  0  0  0
   27.9521  -18.6354  -12.5500 C   0  0  0  0  0  0  0  0  0  0  0  0
   26.6012  -21.4410  -14.1880 C   0  0  0  0  0  0  0  0  0  0  0  0
   25.4879  -21.4225  -14.8086 O   0  0  0  0  0  0  0  0  0  0  0  0
   25.3886  -22.0820  -10.6399 C   0  0  0  0  0  0  0  0  0  0  0  0
   25.2325  -22.0261  -12.1562 C   0  0  2  0  0  0  0  0  0  0  0  0
   26.4751  -21.7921  -12.8089 N   0  0  0  0  0  0  0  0  0  0  0  0
   24.1315  -21.1193  -12.4313 C   0  0  0  0  0  0  0  0  0  0  0  0
   24.3184  -19.9056  -12.0631 O   0  0  0  0  0  0  0  0  0  0  0  0
   22.9330  -18.8217  -16.5040 C   0  0  0  0  0  0  0  0  0  0  0  0
   22.9649  -19.2826  -15.0946 C   0  0  0  0  0  0  0  0  0  0  0  0
   21.7225  -19.8429  -14.5238 C   0  0  2  0  0  0  0  0  0  0  0  0
   20.5188  -19.0021  -14.8650 C   0  0  0  0  0  0  0  0  0  0  0  0
   21.8110  -20.4027  -13.1704 C   0  0  2  0  0  0  0  0  0  0  0  0
   22.8929  -21.3888  -13.0433 N   0  0  0  0  0  0  0  0  0  0  0  0
   20.5883  -20.8608  -12.5034 C   0  0  0  0  0  0  0  0  0  0  0  0
   19.6403  -19.9186  -12.0020 O   0  0  0  0  0  0  0  0  0  0  0  0
   20.2303  -22.0378  -12.2949 O   0  0  0  0  0  0  0  0  0  0  0  0
  2 10  1  0
  2  1  1  6
  3  2  1  0
  4  3  1  0
  5  4  2  0
  6  5  1  0
  7  6  2  0
  7  8  1  0
  8  9  2  0
  9  4  1  0
 10 11  2  0
 13 12  1  1
 14 13  1  0
 14 10  1  0
 15 22  1  0
 15 13  1  0
 16 15  2  0
 18 17  1  0
 19 18  1  0
 19 20  1  1
 21 19  1  0
 21 22  1  6
 23 21  1  0
 23 24  1  0
 25 23  2  0
M  END
$$$$
