FAI.pdb
     RDKit          3D

 25 25  0  0  1  0  0  0  0  0999 V2000
   28.4449  -20.9179   -9.1636 N   0  0  0  0  0  0  0  0  0  0  0  0
   27.0020  -20.7445   -8.9357 C   0  0  1  0  0  0  0  0  0  0  0  0
   26.7705  -19.6555   -7.9616 C   0  0  0  0  0  0  0  0  0  0  0  0
   27.4560  -19.8629   -6.6662 C   0  0  0  0  0  0  0  0  0  0  0  0
   27.0651  -20.8601   -5.7744 C   0  0  0  0  0  0  0  0  0  0  0  0
   27.6926  -21.0488   -4.5590 C   0  0  0  0  0  0  0  0  0  0  0  0
   28.7510  -20.2406   -4.1722 C   0  0  0  0  0  0  0  0  0  0  0  0
   29.1476  -19.2561   -5.0370 C   0  0  0  0  0  0  0  0  0  0  0  0
   28.5052  -19.0742   -6.2658 C   0  0  0  0  0  0  0  0  0  0  0  0
   26.3197  -20.7103  -10.2053 C   0  0  0  0  0  0  0  0  0  0  0  0
   26.5079  -19.7112  -10.9743 O   0  0  0  0  0  0  0  0  0  0  0  0
   24.7682  -22.8013  -12.8200 C   0  0  0  0  0  0  0  0  0  0  0  0
   24.7320  -21.5275  -11.9816 C   0  0  2  0  0  0  0  0  0  0  0  0
   25.4267  -21.6837  -10.7496 N   0  0  0  0  0  0  0  0  0  0  0  0
   23.3465  -21.0934  -11.9379 C   0  0  0  0  0  0  0  0  0  0  0  0
   22.7312  -21.3397  -10.8404 O   0  0  0  0  0  0  0  0  0  0  0  0
   21.5163  -16.3187  -13.5123 C   0  0  0  0  0  0  0  0  0  0  0  0
   21.6903  -17.6344  -12.8499 C   0  0  0  0  0  0  0  0  0  0  0  0
   20.8664  -18.7630  -13.3306 C   0  0  2  0  0  0  0  0  0  0  0  0
   19.4174  -18.3759  -13.4815 C   0  0  0  0  0  0  0  0  0  0  0  0
   21.1722  -20.0870  -12.7772 C   0  0  2  0  0  0  0  0  0  0  0  0
   22.5895  -20.4428  -12.9305 N   0  0  0  0  0  0  0  0  0  0  0  0
   20.2982  -21.2184  -13.1021 C   0  0  0  0  0  0  0  0  0  0  0  0
   19.1717  -21.5230  -12.2798 O   0  0  0  0  0  0  0  0  0  0  0  0
   20.4030  -22.0105  -14.0605 O   0  0  0  0  0  0  0  0  0  0  0  0
  2 10  1  0
  2  1  1  6
  3  2  1  0
  4  3  1  0
  5  4  2  0
  6  5  1  0
  7  6  2  0
  7  8  1  0
  8  9  2  0
  9  4  1  0
 10 11  2  0
 13 12  1  1
 14 13  1  0
 14 10  1  0
 15 22  1  0
 15 13  1  0
 16 15  2  0
 18 17  1  0
 19 18  1  0
 19 20  1  1
 21 19  1  0
 21 22  1  6
 23 21  1  0
 23 24  1  0
 25 23  2  0
M  END
$$$$
