FAI.pdb
     RDKit          3D

 25 25  0  0  1  0  0  0  0  0999 V2000
   25.6516  -18.0235  -16.9278 N   0  0  0  0  0  0  0  0  0  0  0  0
   25.7696  -17.9455  -15.4635 C   0  0  1  0  0  0  0  0  0  0  0  0
   24.4687  -17.5657  -14.8703 C   0  0  0  0  0  0  0  0  0  0  0  0
   24.0059  -16.2176  -15.2694 C   0  0  0  0  0  0  0  0  0  0  0  0
   22.8065  -16.0195  -15.9511 C   0  0  0  0  0  0  0  0  0  0  0  0
   22.3770  -14.7655  -16.3374 C   0  0  0  0  0  0  0  0  0  0  0  0
   23.1343  -13.6376  -16.0591 C   0  0  0  0  0  0  0  0  0  0  0  0
   24.3154  -13.8148  -15.3897 C   0  0  0  0  0  0  0  0  0  0  0  0
   24.7405  -15.0895  -15.0027 C   0  0  0  0  0  0  0  0  0  0  0  0
   26.4492  -19.1201  -14.9769 C   0  0  0  0  0  0  0  0  0  0  0  0
   25.9661  -20.2662  -15.2562 O   0  0  0  0  0  0  0  0  0  0  0  0
   29.5209  -20.1797  -12.9900 C   0  0  0  0  0  0  0  0  0  0  0  0
   28.1188  -20.3658  -13.5610 C   0  0  2  0  0  0  0  0  0  0  0  0
   27.6435  -19.1841  -14.1955 N   0  0  0  0  0  0  0  0  0  0  0  0
   27.3102  -20.9504  -12.5053 C   0  0  0  0  0  0  0  0  0  0  0  0
   27.6641  -22.1250  -12.1330 O   0  0  0  0  0  0  0  0  0  0  0  0
   27.0416  -19.7351   -7.4849 C   0  0  0  0  0  0  0  0  0  0  0  0
   26.3668  -19.7633   -8.8054 C   0  0  0  0  0  0  0  0  0  0  0  0
   26.2450  -21.0671   -9.4901 C   0  0  2  0  0  0  0  0  0  0  0  0
   27.5275  -21.8566   -9.4265 C   0  0  0  0  0  0  0  0  0  0  0  0
   25.4856  -21.0857  -10.7454 C   0  0  2  0  0  0  0  0  0  0  0  0
   26.1959  -20.4074  -11.8382 N   0  0  0  0  0  0  0  0  0  0  0  0
   24.0639  -20.7279  -10.7278 C   0  0  0  0  0  0  0  0  0  0  0  0
   23.1800  -21.3190   -9.7754 O   0  0  0  0  0  0  0  0  0  0  0  0
   23.4717  -19.9252  -11.4774 O   0  0  0  0  0  0  0  0  0  0  0  0
  2 10  1  0
  2  1  1  6
  3  2  1  0
  4  3  1  0
  5  4  2  0
  6  5  1  0
  7  6  2  0
  7  8  1  0
  8  9  2  0
  9  4  1  0
 10 11  2  0
 13 12  1  1
 14 13  1  0
 14 10  1  0
 15 22  1  0
 15 13  1  0
 16 15  2  0
 18 17  1  0
 19 18  1  0
 19 20  1  6
 21 19  1  0
 21 22  1  6
 23 21  1  0
 23 24  1  0
 25 23  2  0
M  END
$$$$
