FAI.pdb
     RDKit          3D

 25 25  0  0  1  0  0  0  0  0999 V2000
   23.4787  -24.1056  -19.9866 N   0  0  0  0  0  0  0  0  0  0  0  0
   22.9348  -22.7397  -19.9375 C   0  0  1  0  0  0  0  0  0  0  0  0
   21.7920  -22.6160  -20.8686 C   0  0  0  0  0  0  0  0  0  0  0  0
   22.1733  -22.7305  -22.2942 C   0  0  0  0  0  0  0  0  0  0  0  0
   22.9461  -21.7622  -22.9327 C   0  0  0  0  0  0  0  0  0  0  0  0
   23.2930  -21.8577  -24.2657 C   0  0  0  0  0  0  0  0  0  0  0  0
   22.8788  -22.9362  -25.0327 C   0  0  0  0  0  0  0  0  0  0  0  0
   22.1189  -23.8965  -24.4205 C   0  0  0  0  0  0  0  0  0  0  0  0
   21.7738  -23.7900  -23.0695 C   0  0  0  0  0  0  0  0  0  0  0  0
   22.7684  -22.3422  -18.5617 C   0  0  0  0  0  0  0  0  0  0  0  0
   22.3850  -23.2145  -17.7149 O   0  0  0  0  0  0  0  0  0  0  0  0
   23.2771  -19.3470  -16.2618 C   0  0  0  0  0  0  0  0  0  0  0  0
   22.7882  -20.7490  -16.6109 C   0  0  2  0  0  0  0  0  0  0  0  0
   22.9870  -21.0526  -17.9869 N   0  0  0  0  0  0  0  0  0  0  0  0
   21.4466  -20.8727  -16.0679 C   0  0  0  0  0  0  0  0  0  0  0  0
   20.5016  -20.5270  -16.8624 O   0  0  0  0  0  0  0  0  0  0  0  0
   19.1476  -25.1655  -14.2103 C   0  0  0  0  0  0  0  0  0  0  0  0
   19.4948  -23.8165  -14.7198 C   0  0  0  0  0  0  0  0  0  0  0  0
   19.2468  -22.6599  -13.8342 C   0  0  2  0  0  0  0  0  0  0  0  0
   17.9245  -22.7732  -13.1196 C   0  0  0  0  0  0  0  0  0  0  0  0
   19.6457  -21.3421  -14.3414 C   0  0  2  0  0  0  0  0  0  0  0  0
   21.0430  -21.3174  -14.7948 N   0  0  0  0  0  0  0  0  0  0  0  0
   19.3144  -20.1447  -13.5628 C   0  0  0  0  0  0  0  0  0  0  0  0
   20.3428  -19.3895  -12.9226 O   0  0  0  0  0  0  0  0  0  0  0  0
   18.1842  -19.6550  -13.3635 O   0  0  0  0  0  0  0  0  0  0  0  0
  2 10  1  0
  2  1  1  1
  3  2  1  0
  4  3  1  0
  5  4  2  0
  6  5  1  0
  7  6  2  0
  7  8  1  0
  8  9  2  0
  9  4  1  0
 10 11  2  0
 13 12  1  6
 14 13  1  0
 14 10  1  0
 15 22  1  0
 15 13  1  0
 16 15  2  0
 18 17  1  0
 19 18  1  0
 19 20  1  6
 21 19  1  0
 21 22  1  1
 23 21  1  0
 23 24  1  0
 25 23  2  0
M  END
$$$$
