FAI.pdb
     RDKit          3D

 25 25  0  0  1  0  0  0  0  0999 V2000
   19.4172  -13.2885  -17.6594 N   0  0  0  0  0  0  0  0  0  0  0  0
   20.3940  -12.2506  -18.0234 C   0  0  1  0  0  0  0  0  0  0  0  0
   20.2910  -11.9423  -19.4666 C   0  0  0  0  0  0  0  0  0  0  0  0
   20.7046  -13.0610  -20.3431 C   0  0  0  0  0  0  0  0  0  0  0  0
   19.7815  -13.8120  -21.0685 C   0  0  0  0  0  0  0  0  0  0  0  0
   20.1610  -14.8651  -21.8769 C   0  0  0  0  0  0  0  0  0  0  0  0
   21.4953  -15.2225  -21.9991 C   0  0  0  0  0  0  0  0  0  0  0  0
   22.4152  -14.4946  -21.2931 C   0  0  0  0  0  0  0  0  0  0  0  0
   22.0197  -13.4296  -20.4777 C   0  0  0  0  0  0  0  0  0  0  0  0
   20.3246  -11.1742  -17.0668 C   0  0  0  0  0  0  0  0  0  0  0  0
   19.2009  -10.6078  -16.8636 O   0  0  0  0  0  0  0  0  0  0  0  0
   22.4391   -9.3517  -14.4824 C   0  0  0  0  0  0  0  0  0  0  0  0
   21.2386   -9.5123  -15.4095 C   0  0  2  0  0  0  0  0  0  0  0  0
   21.3834  -10.6320  -16.2755 N   0  0  0  0  0  0  0  0  0  0  0  0
   20.9922   -8.2109  -16.0060 C   0  0  0  0  0  0  0  0  0  0  0  0
   21.6767   -7.9543  -17.0593 O   0  0  0  0  0  0  0  0  0  0  0  0
   16.0483   -5.3860  -16.8486 C   0  0  0  0  0  0  0  0  0  0  0  0
   17.3780   -5.4758  -16.1977 C   0  0  0  0  0  0  0  0  0  0  0  0
   18.4996   -6.0187  -16.9920 C   0  0  2  0  0  0  0  0  0  0  0  0
   18.1030   -7.2617  -17.7468 C   0  0  0  0  0  0  0  0  0  0  0  0
   19.8276   -5.9846  -16.3691 C   0  0  2  0  0  0  0  0  0  0  0  0
   20.1098   -7.1969  -15.5883 N   0  0  0  0  0  0  0  0  0  0  0  0
   20.2529   -4.7769  -15.6547 C   0  0  0  0  0  0  0  0  0  0  0  0
   20.5608   -4.8299  -14.2618 O   0  0  0  0  0  0  0  0  0  0  0  0
   20.3945   -3.6277  -16.1197 O   0  0  0  0  0  0  0  0  0  0  0  0
  2 10  1  0
  2  1  1  1
  3  2  1  0
  4  3  1  0
  5  4  2  0
  6  5  1  0
  7  6  2  0
  7  8  1  0
  8  9  2  0
  9  4  1  0
 10 11  2  0
 13 12  1  6
 14 13  1  0
 14 10  1  0
 15 22  1  0
 15 13  1  0
 16 15  2  0
 18 17  1  0
 19 18  1  0
 19 20  1  1
 21 19  1  0
 21 22  1  1
 23 21  1  0
 23 24  1  0
 25 23  2  0
M  END
$$$$
