FAI.pdb
     RDKit          3D

 25 25  0  0  1  0  0  0  0  0999 V2000
   25.6086  -17.3197  -15.6432 N   0  0  0  0  0  0  0  0  0  0  0  0
   26.4050  -18.2165  -14.7915 C   0  0  1  0  0  0  0  0  0  0  0  0
   27.8156  -17.7711  -14.7672 C   0  0  0  0  0  0  0  0  0  0  0  0
   28.5211  -17.9654  -16.0538 C   0  0  0  0  0  0  0  0  0  0  0  0
   28.9447  -16.8911  -16.8342 C   0  0  0  0  0  0  0  0  0  0  0  0
   29.5911  -17.0671  -18.0415 C   0  0  0  0  0  0  0  0  0  0  0  0
   29.8466  -18.3387  -18.5324 C   0  0  0  0  0  0  0  0  0  0  0  0
   29.4370  -19.4051  -17.7778 C   0  0  0  0  0  0  0  0  0  0  0  0
   28.7836  -19.2153  -16.5562 C   0  0  0  0  0  0  0  0  0  0  0  0
   25.7125  -18.4296  -13.5452 C   0  0  0  0  0  0  0  0  0  0  0  0
   25.5205  -17.4332  -12.7737 O   0  0  0  0  0  0  0  0  0  0  0  0
   23.2083  -20.5653  -11.9191 C   0  0  0  0  0  0  0  0  0  0  0  0
   24.5019  -19.7678  -11.7879 C   0  0  2  0  0  0  0  0  0  0  0  0
   25.1829  -19.6533  -13.0321 N   0  0  0  0  0  0  0  0  0  0  0  0
   25.2256  -20.3252  -10.6584 C   0  0  0  0  0  0  0  0  0  0  0  0
   25.8590  -21.4136  -10.8988 O   0  0  0  0  0  0  0  0  0  0  0  0
   28.5263  -18.0473   -7.0634 C   0  0  0  0  0  0  0  0  0  0  0  0
   27.7842  -18.9943   -7.9308 C   0  0  0  0  0  0  0  0  0  0  0  0
   26.6894  -19.7764   -7.3197 C   0  0  2  0  0  0  0  0  0  0  0  0
   27.0915  -20.3608   -5.9896 C   0  0  0  0  0  0  0  0  0  0  0  0
   25.8872  -20.6082   -8.2239 C   0  0  2  0  0  0  0  0  0  0  0  0
   25.3261  -19.8373   -9.3418 N   0  0  0  0  0  0  0  0  0  0  0  0
   24.8970  -21.5303   -7.6593 C   0  0  0  0  0  0  0  0  0  0  0  0
   23.5071  -21.2060   -7.6865 O   0  0  0  0  0  0  0  0  0  0  0  0
   25.1070  -22.6356   -7.1198 O   0  0  0  0  0  0  0  0  0  0  0  0
  2 10  1  0
  2  1  1  6
  3  2  1  0
  4  3  1  0
  5  4  2  0
  6  5  1  0
  7  6  2  0
  7  8  1  0
  8  9  2  0
  9  4  1  0
 10 11  2  0
 13 12  1  6
 14 13  1  0
 14 10  1  0
 15 22  1  0
 15 13  1  0
 16 15  2  0
 18 17  1  0
 19 18  1  0
 19 20  1  1
 21 19  1  0
 21 22  1  6
 23 21  1  0
 23 24  1  0
 25 23  2  0
M  END
$$$$
