FAI.pdb
     RDKit          3D

 25 25  0  0  1  0  0  0  0  0999 V2000
   26.7922  -19.6452  -18.6458 N   0  0  0  0  0  0  0  0  0  0  0  0
   27.0765  -20.1359  -17.2884 C   0  0  1  0  0  0  0  0  0  0  0  0
   27.2564  -18.9943  -16.3648 C   0  0  0  0  0  0  0  0  0  0  0  0
   28.3074  -18.0444  -16.7936 C   0  0  0  0  0  0  0  0  0  0  0  0
   29.6367  -18.4335  -16.9489 C   0  0  0  0  0  0  0  0  0  0  0  0
   30.6232  -17.5481  -17.3355 C   0  0  0  0  0  0  0  0  0  0  0  0
   30.3254  -16.2173  -17.5868 C   0  0  0  0  0  0  0  0  0  0  0  0
   29.0239  -15.8187  -17.4391 C   0  0  0  0  0  0  0  0  0  0  0  0
   28.0327  -16.7240  -17.0475 C   0  0  0  0  0  0  0  0  0  0  0  0
   26.1351  -21.1739  -16.9498 C   0  0  0  0  0  0  0  0  0  0  0  0
   24.8930  -20.9590  -17.1399 O   0  0  0  0  0  0  0  0  0  0  0  0
   25.9035  -24.7707  -15.7695 C   0  0  0  0  0  0  0  0  0  0  0  0
   25.4219  -23.3258  -15.8522 C   0  0  2  0  0  0  0  0  0  0  0  0
   26.4101  -22.4687  -16.4123 N   0  0  0  0  0  0  0  0  0  0  0  0
   24.8812  -22.9885  -14.5468 C   0  0  0  0  0  0  0  0  0  0  0  0
   24.4838  -23.9857  -13.8458 O   0  0  0  0  0  0  0  0  0  0  0  0
   25.9481  -20.6051   -9.2636 C   0  0  0  0  0  0  0  0  0  0  0  0
   24.8814  -20.9288  -10.2421 C   0  0  0  0  0  0  0  0  0  0  0  0
   25.2919  -21.3055  -11.6107 C   0  0  2  0  0  0  0  0  0  0  0  0
   26.5179  -20.5504  -12.0569 C   0  0  0  0  0  0  0  0  0  0  0  0
   24.2181  -21.5159  -12.5882 C   0  0  2  0  0  0  0  0  0  0  0  0
   24.7335  -21.7229  -13.9484 N   0  0  0  0  0  0  0  0  0  0  0  0
   23.0608  -20.6157  -12.5856 C   0  0  0  0  0  0  0  0  0  0  0  0
   22.2173  -20.5237  -11.4376 O   0  0  0  0  0  0  0  0  0  0  0  0
   22.6781  -19.8653  -13.5061 O   0  0  0  0  0  0  0  0  0  0  0  0
  2 10  1  0
  2  1  1  6
  3  2  1  0
  4  3  1  0
  5  4  2  0
  6  5  1  0
  7  6  2  0
  7  8  1  0
  8  9  2  0
  9  4  1  0
 10 11  2  0
 13 12  1  1
 14 13  1  0
 14 10  1  0
 15 22  1  0
 15 13  1  0
 16 15  2  0
 18 17  1  0
 19 18  1  0
 19 20  1  6
 21 19  1  0
 21 22  1  6
 23 21  1  0
 23 24  1  0
 25 23  2  0
M  END
$$$$
