FAI.pdb
     RDKit          3D

 25 25  0  0  1  0  0  0  0  0999 V2000
   27.9912  -18.9674  -15.1280 N   0  0  0  0  0  0  0  0  0  0  0  0
   27.1587  -19.8069  -14.2528 C   0  0  1  0  0  0  0  0  0  0  0  0
   26.5189  -18.9736  -13.2113 C   0  0  0  0  0  0  0  0  0  0  0  0
   26.6063  -19.5525  -11.8519 C   0  0  0  0  0  0  0  0  0  0  0  0
   27.6207  -19.2017  -10.9628 C   0  0  0  0  0  0  0  0  0  0  0  0
   27.7144  -19.7490   -9.6987 C   0  0  0  0  0  0  0  0  0  0  0  0
   26.7896  -20.6839   -9.2584 C   0  0  0  0  0  0  0  0  0  0  0  0
   25.7864  -21.0394  -10.1196 C   0  0  0  0  0  0  0  0  0  0  0  0
   25.7008  -20.4783  -11.3976 C   0  0  0  0  0  0  0  0  0  0  0  0
   26.3394  -20.6739  -15.0625 C   0  0  0  0  0  0  0  0  0  0  0  0
   25.7641  -20.1873  -16.0907 O   0  0  0  0  0  0  0  0  0  0  0  0
   24.9321  -24.2180  -15.0366 C   0  0  0  0  0  0  0  0  0  0  0  0
   24.8884  -22.7178  -15.3090 C   0  0  2  0  0  0  0  0  0  0  0  0
   26.0736  -22.0643  -14.8696 N   0  0  0  0  0  0  0  0  0  0  0  0
   23.6131  -22.2372  -14.8062 C   0  0  0  0  0  0  0  0  0  0  0  0
   22.5792  -22.8116  -15.3011 O   0  0  0  0  0  0  0  0  0  0  0  0
   22.8042  -20.5505   -9.6208 C   0  0  0  0  0  0  0  0  0  0  0  0
   22.5937  -21.1638  -10.9548 C   0  0  0  0  0  0  0  0  0  0  0  0
   22.0321  -20.3129  -12.0244 C   0  0  2  0  0  0  0  0  0  0  0  0
   20.8169  -19.5530  -11.5574 C   0  0  0  0  0  0  0  0  0  0  0  0
   22.0130  -20.8794  -13.3778 C   0  0  2  0  0  0  0  0  0  0  0  0
   23.3573  -21.2317  -13.8550 N   0  0  0  0  0  0  0  0  0  0  0  0
   21.2322  -20.2107  -14.4231 C   0  0  0  0  0  0  0  0  0  0  0  0
   21.8618  -19.3073  -15.3315 O   0  0  0  0  0  0  0  0  0  0  0  0
   20.0105  -20.3238  -14.6504 O   0  0  0  0  0  0  0  0  0  0  0  0
  2 10  1  0
  2  1  1  6
  3  2  1  0
  4  3  1  0
  5  4  2  0
  6  5  1  0
  7  6  2  0
  7  8  1  0
  8  9  2  0
  9  4  1  0
 10 11  2  0
 13 12  1  1
 14 13  1  0
 14 10  1  0
 15 22  1  0
 15 13  1  0
 16 15  2  0
 18 17  1  0
 19 18  1  0
 19 20  1  1
 21 19  1  0
 21 22  1  6
 23 21  1  0
 23 24  1  0
 25 23  2  0
M  END
$$$$
