FAI.pdb
     RDKit          3D

 25 25  0  0  1  0  0  0  0  0999 V2000
   13.8694  -22.7882   -3.5632 N   0  0  0  0  0  0  0  0  0  0  0  0
   14.0656  -23.0870   -2.1362 C   0  0  1  0  0  0  0  0  0  0  0  0
   15.5103  -23.1853   -1.8336 C   0  0  0  0  0  0  0  0  0  0  0  0
   16.1354  -24.4342   -2.3238 C   0  0  0  0  0  0  0  0  0  0  0  0
   16.0182  -25.6396   -1.6341 C   0  0  0  0  0  0  0  0  0  0  0  0
   16.6107  -26.8043   -2.0801 C   0  0  0  0  0  0  0  0  0  0  0  0
   17.3575  -26.8198   -3.2485 C   0  0  0  0  0  0  0  0  0  0  0  0
   17.4823  -25.6438   -3.9383 C   0  0  0  0  0  0  0  0  0  0  0  0
   16.8776  -24.4701   -3.4776 C   0  0  0  0  0  0  0  0  0  0  0  0
   13.2392  -22.2079   -1.3472 C   0  0  0  0  0  0  0  0  0  0  0  0
   13.2139  -20.9671   -1.6382 O   0  0  0  0  0  0  0  0  0  0  0  0
   10.4549  -22.1412    1.1779 C   0  0  0  0  0  0  0  0  0  0  0  0
   11.7495  -21.5911    0.5880 C   0  0  2  0  0  0  0  0  0  0  0  0
   12.4035  -22.5468   -0.2391 N   0  0  0  0  0  0  0  0  0  0  0  0
   12.4982  -21.0097    1.6886 C   0  0  0  0  0  0  0  0  0  0  0  0
   11.8467  -20.1755    2.4121 O   0  0  0  0  0  0  0  0  0  0  0  0
   16.5292  -22.2094    6.1332 C   0  0  0  0  0  0  0  0  0  0  0  0
   15.9106  -21.1979    5.2421 C   0  0  0  0  0  0  0  0  0  0  0  0
   15.1083  -21.6833    4.1000 C   0  0  2  0  0  0  0  0  0  0  0  0
   15.7715  -22.8418    3.4000 C   0  0  0  0  0  0  0  0  0  0  0  0
   14.4502  -20.6643    3.2745 C   0  0  2  0  0  0  0  0  0  0  0  0
   13.8349  -21.2344    2.0682 N   0  0  0  0  0  0  0  0  0  0  0  0
   15.1605  -19.4172    2.9747 C   0  0  0  0  0  0  0  0  0  0  0  0
   15.5236  -18.5202    4.0242 O   0  0  0  0  0  0  0  0  0  0  0  0
   15.5189  -18.9953    1.8565 O   0  0  0  0  0  0  0  0  0  0  0  0
  2 10  1  0
  2  1  1  6
  3  2  1  0
  4  3  1  0
  5  4  2  0
  6  5  1  0
  7  6  2  0
  7  8  1  0
  8  9  2  0
  9  4  1  0
 10 11  2  0
 13 12  1  1
 14 13  1  0
 14 10  1  0
 15 22  1  0
 15 13  1  0
 16 15  2  0
 18 17  1  0
 19 18  1  0
 19 20  1  6
 21 19  1  0
 21 22  1  6
 23 21  1  0
 23 24  1  0
 25 23  2  0
M  END
$$$$
