FAI.pdb
     RDKit          3D

 25 25  0  0  1  0  0  0  0  0999 V2000
   27.5007  -20.1863  -11.6585 N   0  0  0  0  0  0  0  0  0  0  0  0
   26.4387  -21.0753  -11.1628 C   0  0  1  0  0  0  0  0  0  0  0  0
   26.0465  -20.6802   -9.7922 C   0  0  0  0  0  0  0  0  0  0  0  0
   27.1793  -20.6363   -8.8405 C   0  0  0  0  0  0  0  0  0  0  0  0
   27.1022  -19.9488   -7.6307 C   0  0  0  0  0  0  0  0  0  0  0  0
   28.1607  -19.8937   -6.7458 C   0  0  0  0  0  0  0  0  0  0  0  0
   29.3599  -20.5287   -7.0314 C   0  0  0  0  0  0  0  0  0  0  0  0
   29.4522  -21.2089   -8.2160 C   0  0  0  0  0  0  0  0  0  0  0  0
   28.3736  -21.2586   -9.1047 C   0  0  0  0  0  0  0  0  0  0  0  0
   25.4208  -21.2121  -12.1745 C   0  0  0  0  0  0  0  0  0  0  0  0
   24.9108  -20.1570  -12.6760 O   0  0  0  0  0  0  0  0  0  0  0  0
   23.6843  -23.8573  -14.2904 C   0  0  0  0  0  0  0  0  0  0  0  0
   23.8651  -22.4557  -13.7165 C   0  0  2  0  0  0  0  0  0  0  0  0
   24.8826  -22.4168  -12.7225 N   0  0  0  0  0  0  0  0  0  0  0  0
   22.5414  -21.9733  -13.3626 C   0  0  0  0  0  0  0  0  0  0  0  0
   22.1656  -22.2376  -12.1657 O   0  0  0  0  0  0  0  0  0  0  0  0
   20.7583  -17.1460  -13.0717 C   0  0  0  0  0  0  0  0  0  0  0  0
   20.9559  -18.6144  -13.0043 C   0  0  0  0  0  0  0  0  0  0  0  0
   20.0075  -19.4727  -13.7441 C   0  0  2  0  0  0  0  0  0  0  0  0
   18.5850  -18.9974  -13.5933 C   0  0  0  0  0  0  0  0  0  0  0  0
   20.2588  -20.9179  -13.7092 C   0  0  2  0  0  0  0  0  0  0  0  0
   21.6183  -21.2593  -14.1497 N   0  0  0  0  0  0  0  0  0  0  0  0
   19.2654  -21.8316  -14.2818 C   0  0  0  0  0  0  0  0  0  0  0  0
   18.1254  -22.2312  -13.5211 O   0  0  0  0  0  0  0  0  0  0  0  0
   19.2716  -22.3479  -15.4177 O   0  0  0  0  0  0  0  0  0  0  0  0
  2 10  1  0
  2  1  1  6
  3  2  1  0
  4  3  1  0
  5  4  2  0
  6  5  1  0
  7  6  2  0
  7  8  1  0
  8  9  2  0
  9  4  1  0
 10 11  2  0
 13 12  1  1
 14 13  1  0
 14 10  1  0
 15 22  1  0
 15 13  1  0
 16 15  2  0
 18 17  1  0
 19 18  1  0
 19 20  1  1
 21 19  1  0
 21 22  1  6
 23 21  1  0
 23 24  1  0
 25 23  2  0
M  END
$$$$
