HRM.pdb
     RDKit          3D

 30 30  0  0  1  0  0  0  0  0999 V2000
    6.4503  -16.4408   19.3495 N   0  0  0  0  0  0  0  0  0  0  0  0
    7.5567  -16.0217   20.1900 C   0  0  1  0  0  0  0  0  0  0  0  0
    7.7191  -14.5270   20.0320 C   0  0  0  0  0  0  0  0  0  0  0  0
    8.1867  -14.2436   18.6553 C   0  0  0  0  0  0  0  0  0  0  0  0
    7.7876  -13.2420   17.7892 C   0  0  0  0  0  0  0  0  0  0  0  0
    8.4593  -13.3339   16.6287 N   0  0  0  0  0  0  0  0  0  0  0  0
    9.2849  -14.3805   16.7358 C   0  0  0  0  0  0  0  0  0  0  0  0
    9.1292  -14.9333   17.9479 N   0  0  0  0  0  0  0  0  0  0  0  0
    7.3065  -16.4177   21.5858 C   0  0  0  0  0  0  0  0  0  0  0  0
    6.2317  -16.0962   22.1315 O   0  0  0  0  0  0  0  0  0  0  0  0
    6.7167  -21.3146   26.8138 N   0  0  0  0  0  0  0  0  0  0  0  0
    7.8586  -21.2766   27.6373 C   0  0  0  0  0  0  0  0  0  0  0  0
    7.8334  -21.5535   28.9133 N   0  0  0  0  0  0  0  0  0  0  0  0
    9.1544  -20.9245   27.1268 N   0  0  0  0  0  0  0  0  0  0  0  0
    9.2829  -20.5550   25.7318 C   0  0  0  0  0  0  0  0  0  0  0  0
    8.6386  -19.2133   25.4670 C   0  0  0  0  0  0  0  0  0  0  0  0
    8.7680  -18.8315   24.0172 C   0  0  0  0  0  0  0  0  0  0  0  0
    8.0515  -17.5514   23.6802 C   0  0  2  0  0  0  0  0  0  0  0  0
    8.2859  -17.1535   22.2831 N   0  0  0  0  0  0  0  0  0  0  0  0
    8.6588  -16.4981   24.5710 C   0  0  0  0  0  0  0  0  0  0  0  0
    9.8107  -16.0998   24.2153 O   0  0  0  0  0  0  0  0  0  0  0  0
    8.7242  -21.4404   29.4277 C   0  0  0  0  0  0  0  0  0  0  0  0
    5.6134  -10.8836   26.6073 S   0  0  0  0  0  0  0  0  0  0  0  0
    6.5055  -11.5837   27.9708 C   0  0  0  0  0  0  0  0  0  0  0  0
    7.8568  -12.6415   27.5069 C   0  0  0  0  0  0  0  0  0  0  0  0
    7.4765  -13.8719   26.7553 C   0  0  1  0  0  0  0  0  0  0  0  0
    8.5815  -14.7755   26.3272 N   0  0  0  0  0  0  0  0  0  0  0  0
    8.0162  -15.9939   25.6981 C   0  0  0  0  0  0  0  0  0  0  0  0
    9.4286  -15.2060   27.4755 O   0  0  0  0  0  0  0  0  0  0  0  0
    9.2628  -16.3886   27.9143 O   0  0  0  0  0  0  0  0  0  0  0  0
  2  1  1  6
  2  3  1  0
  2  9  1  0
  4  8  1  0
  4  3  1  0
  5  4  2  0
  6  5  1  0
  6  7  1  0
  7  8  2  0
  9 10  2  0
 12 14  1  0
 12 11  1  0
 13 12  2  0
 15 14  1  0
 15 16  1  0
 17 16  1  0
 18 17  1  1
 19 18  1  0
 19  9  1  0
 20 18  1  0
 20 21  2  0
 22 23  1  0
 23 24  1  0
 24 25  1  0
 26 25  1  6
 26 27  1  0
 26 28  1  0
 27 20  1  0
 28 29  2  0
 28 30  1  0
M  END
$$$$
