HRM.pdb
     RDKit          3D

 30 30  0  0  1  0  0  0  0  0999 V2000
    8.3684  -16.2401   20.3058 N   0  0  0  0  0  0  0  0  0  0  0  0
    8.0285  -15.1557   21.2085 C   0  0  1  0  0  0  0  0  0  0  0  0
    6.8636  -14.4012   20.6095 C   0  0  0  0  0  0  0  0  0  0  0  0
    7.2252  -13.9840   19.2349 C   0  0  0  0  0  0  0  0  0  0  0  0
    6.4373  -13.9536   18.0987 C   0  0  0  0  0  0  0  0  0  0  0  0
    7.1495  -13.5096   17.0490 N   0  0  0  0  0  0  0  0  0  0  0  0
    8.3845  -13.2539   17.4937 C   0  0  0  0  0  0  0  0  0  0  0  0
    8.4405  -13.5352   18.8040 N   0  0  0  0  0  0  0  0  0  0  0  0
    7.7262  -15.6907   22.5465 C   0  0  0  0  0  0  0  0  0  0  0  0
    7.2204  -14.9420   23.4067 O   0  0  0  0  0  0  0  0  0  0  0  0
    6.2926  -20.7189   20.4914 N   0  0  0  0  0  0  0  0  0  0  0  0
    5.2131  -21.2579   21.2180 C   0  0  0  0  0  0  0  0  0  0  0  0
    4.0570  -21.5425   20.6815 N   0  0  0  0  0  0  0  0  0  0  0  0
    5.3055  -21.5378   22.6240 N   0  0  0  0  0  0  0  0  0  0  0  0
    6.4614  -21.0665   23.3593 C   0  0  0  0  0  0  0  0  0  0  0  0
    6.5213  -19.5559   23.3610 C   0  0  0  0  0  0  0  0  0  0  0  0
    7.6756  -19.0644   24.1919 C   0  0  0  0  0  0  0  0  0  0  0  0
    7.8029  -17.5646   24.1925 C   0  0  2  0  0  0  0  0  0  0  0  0
    8.0135  -17.0404   22.8338 N   0  0  0  0  0  0  0  0  0  0  0  0
    9.0364  -17.2609   25.0036 C   0  0  0  0  0  0  0  0  0  0  0  0
    9.7895  -16.3648   24.5119 O   0  0  0  0  0  0  0  0  0  0  0  0
    3.3420  -21.9446   21.3123 C   0  0  0  0  0  0  0  0  0  0  0  0
   10.7942  -13.2283   29.6181 S   0  0  0  0  0  0  0  0  0  0  0  0
    9.4282  -13.6493   28.5684 C   0  0  0  0  0  0  0  0  0  0  0  0
    8.7280  -15.2549   28.8722 C   0  0  0  0  0  0  0  0  0  0  0  0
    8.5777  -16.1244   27.6703 C   0  0  1  0  0  0  0  0  0  0  0  0
    9.6944  -17.0637   27.3671 N   0  0  0  0  0  0  0  0  0  0  0  0
    9.3367  -17.9061   26.1999 C   0  0  0  0  0  0  0  0  0  0  0  0
    9.9880  -17.9716   28.5121 O   0  0  0  0  0  0  0  0  0  0  0  0
   10.5909  -17.4727   29.5151 O   0  0  0  0  0  0  0  0  0  0  0  0
  2  1  1  6
  2  3  1  0
  2  9  1  0
  4  8  1  0
  4  3  1  0
  5  4  2  0
  6  5  1  0
  6  7  1  0
  7  8  2  0
  9 10  2  0
 12 14  1  0
 12 11  1  0
 13 12  2  0
 15 14  1  0
 15 16  1  0
 17 16  1  0
 18 17  1  6
 19 18  1  0
 19  9  1  0
 20 18  1  0
 20 21  2  0
 22 23  1  0
 23 24  1  0
 24 25  1  0
 26 25  1  6
 26 27  1  0
 26 28  1  0
 27 20  1  0
 28 29  2  0
 28 30  1  0
M  END
$$$$
