HRM.pdb
     RDKit          3D

 30 30  0  0  1  0  0  0  0  0999 V2000
    7.5779  -16.4649   19.4400 N   0  0  0  0  0  0  0  0  0  0  0  0
    8.5033  -15.6589   20.2150 C   0  0  1  0  0  0  0  0  0  0  0  0
    8.0852  -14.2126   20.0791 C   0  0  0  0  0  0  0  0  0  0  0  0
    8.2269  -13.8092   18.6608 C   0  0  0  0  0  0  0  0  0  0  0  0
    7.2935  -13.2243   17.8246 C   0  0  0  0  0  0  0  0  0  0  0  0
    7.8230  -13.0178   16.6066 N   0  0  0  0  0  0  0  0  0  0  0  0
    9.0839  -13.4616   16.6474 C   0  0  0  0  0  0  0  0  0  0  0  0
    9.3363  -13.9384   17.8754 N   0  0  0  0  0  0  0  0  0  0  0  0
    8.5157  -16.1135   21.6154 C   0  0  0  0  0  0  0  0  0  0  0  0
    7.4413  -16.4194   22.1706 O   0  0  0  0  0  0  0  0  0  0  0  0
   15.6174  -18.5437   21.9213 N   0  0  0  0  0  0  0  0  0  0  0  0
   15.7530  -17.3728   22.6922 C   0  0  0  0  0  0  0  0  0  0  0  0
   16.7912  -16.5837   22.6232 N   0  0  0  0  0  0  0  0  0  0  0  0
   14.7444  -16.9545   23.6256 N   0  0  0  0  0  0  0  0  0  0  0  0
   13.5288  -17.7342   23.7423 C   0  0  0  0  0  0  0  0  0  0  0  0
   12.3074  -16.8508   23.6269 C   0  0  0  0  0  0  0  0  0  0  0  0
   11.0458  -17.6523   23.8000 C   0  0  0  0  0  0  0  0  0  0  0  0
    9.7978  -16.8275   23.6336 C   0  0  2  0  0  0  0  0  0  0  0  0
    9.7418  -16.1954   22.3060 N   0  0  0  0  0  0  0  0  0  0  0  0
    9.8925  -15.7328   24.6653 C   0  0  0  0  0  0  0  0  0  0  0  0
   10.7688  -14.8468   24.4223 O   0  0  0  0  0  0  0  0  0  0  0  0
   16.7815  -15.7532   23.2406 C   0  0  0  0  0  0  0  0  0  0  0  0
    6.0803  -11.1511   26.8886 S   0  0  0  0  0  0  0  0  0  0  0  0
    5.7561  -12.8363   26.4414 C   0  0  0  0  0  0  0  0  0  0  0  0
    7.2026  -13.7858   26.0335 C   0  0  0  0  0  0  0  0  0  0  0  0
    8.2925  -13.7590   27.0507 C   0  0  2  0  0  0  0  0  0  0  0  0
    9.4321  -14.6982   26.8505 N   0  0  0  0  0  0  0  0  0  0  0  0
    9.0873  -15.6866   25.7998 C   0  0  0  0  0  0  0  0  0  0  0  0
    9.7618  -15.4507   28.0942 O   0  0  0  0  0  0  0  0  0  0  0  0
    9.5826  -16.7101   28.0813 O   0  0  0  0  0  0  0  0  0  0  0  0
  2  1  1  6
  2  3  1  0
  2  9  1  0
  4  8  1  0
  4  3  1  0
  5  4  2  0
  6  5  1  0
  6  7  1  0
  7  8  2  0
  9 10  2  0
 12 14  1  0
 12 11  1  0
 13 12  2  0
 15 14  1  0
 15 16  1  0
 17 16  1  0
 18 17  1  6
 19 18  1  0
 19  9  1  0
 20 18  1  0
 20 21  2  0
 22 23  1  0
 23 24  1  0
 24 25  1  0
 26 25  1  6
 26 27  1  0
 26 28  1  0
 27 20  1  0
 28 29  2  0
 28 30  1  0
M  END
$$$$
