HRM.pdb
     RDKit          3D

 30 30  0  0  1  0  0  0  0  0999 V2000
    8.5737  -16.1742   20.6763 N   0  0  0  0  0  0  0  0  0  0  0  0
    8.0214  -15.2851   21.6817 C   0  0  1  0  0  0  0  0  0  0  0  0
    6.7950  -14.6250   21.0940 C   0  0  0  0  0  0  0  0  0  0  0  0
    7.1598  -14.0204   19.7918 C   0  0  0  0  0  0  0  0  0  0  0  0
    6.4322  -13.9797   18.6164 C   0  0  0  0  0  0  0  0  0  0  0  0
    7.1240  -13.3346   17.6616 N   0  0  0  0  0  0  0  0  0  0  0  0
    8.2865  -12.9597   18.2060 C   0  0  0  0  0  0  0  0  0  0  0  0
    8.3181  -13.3662   19.4838 N   0  0  0  0  0  0  0  0  0  0  0  0
    7.7222  -16.0390   22.9105 C   0  0  0  0  0  0  0  0  0  0  0  0
    6.8698  -15.5989   23.7080 O   0  0  0  0  0  0  0  0  0  0  0  0
    8.4616  -21.7531   21.6566 N   0  0  0  0  0  0  0  0  0  0  0  0
    7.1683  -21.5599   21.1334 C   0  0  0  0  0  0  0  0  0  0  0  0
    6.9033  -21.5606   19.8547 N   0  0  0  0  0  0  0  0  0  0  0  0
    6.0284  -21.3440   21.9806 N   0  0  0  0  0  0  0  0  0  0  0  0
    6.2401  -21.0861   23.3905 C   0  0  0  0  0  0  0  0  0  0  0  0
    6.5004  -19.6175   23.6376 C   0  0  0  0  0  0  0  0  0  0  0  0
    7.8717  -19.4049   24.2195 C   0  0  0  0  0  0  0  0  0  0  0  0
    8.1980  -17.9522   24.4402 C   0  0  2  0  0  0  0  0  0  0  0  0
    8.4041  -17.2459   23.1658 N   0  0  0  0  0  0  0  0  0  0  0  0
    9.5024  -17.9378   25.1951 C   0  0  0  0  0  0  0  0  0  0  0  0
   10.4955  -17.5040   24.5336 O   0  0  0  0  0  0  0  0  0  0  0  0
    5.9196  -21.3825   19.5871 C   0  0  0  0  0  0  0  0  0  0  0  0
   10.5765  -12.4478   29.6146 S   0  0  0  0  0  0  0  0  0  0  0  0
    9.7805  -13.5766   28.5022 C   0  0  0  0  0  0  0  0  0  0  0  0
   10.5033  -15.2000   28.4515 C   0  0  0  0  0  0  0  0  0  0  0  0
    9.8588  -16.1574   27.5074 C   0  0  1  0  0  0  0  0  0  0  0  0
   10.4297  -17.5322   27.4386 N   0  0  0  0  0  0  0  0  0  0  0  0
    9.6209  -18.3643   26.5148 C   0  0  0  0  0  0  0  0  0  0  0  0
   10.4356  -18.2027   28.7698 O   0  0  0  0  0  0  0  0  0  0  0  0
   11.4188  -17.9643   29.5411 O   0  0  0  0  0  0  0  0  0  0  0  0
  2  1  1  6
  2  3  1  0
  2  9  1  0
  4  8  1  0
  4  3  1  0
  5  4  2  0
  6  5  1  0
  6  7  1  0
  7  8  2  0
  9 10  2  0
 12 14  1  0
 12 11  1  0
 13 12  2  0
 15 14  1  0
 15 16  1  0
 17 16  1  0
 18 17  1  6
 19 18  1  0
 19  9  1  0
 20 18  1  0
 20 21  2  0
 22 23  1  0
 23 24  1  0
 24 25  1  0
 26 25  1  6
 26 27  1  0
 26 28  1  0
 27 20  1  0
 28 29  2  0
 28 30  1  0
M  END
$$$$
