HRM.pdb
     RDKit          3D

 30 30  0  0  1  0  0  0  0  0999 V2000
   11.5317  -15.5625   18.0154 N   0  0  0  0  0  0  0  0  0  0  0  0
   11.9426  -15.7068   19.3998 C   0  0  1  0  0  0  0  0  0  0  0  0
   12.6606  -14.4397   19.8052 C   0  0  0  0  0  0  0  0  0  0  0  0
   14.0489  -14.4963   19.2916 C   0  0  0  0  0  0  0  0  0  0  0  0
   14.6078  -13.8277   18.2176 C   0  0  0  0  0  0  0  0  0  0  0  0
   15.9037  -14.1584   18.0855 N   0  0  0  0  0  0  0  0  0  0  0  0
   16.1867  -15.0302   19.0593 C   0  0  0  0  0  0  0  0  0  0  0  0
   15.0806  -15.2398   19.7886 N   0  0  0  0  0  0  0  0  0  0  0  0
   10.7708  -15.9867   20.2462 C   0  0  0  0  0  0  0  0  0  0  0  0
    9.6667  -15.4872   19.9499 O   0  0  0  0  0  0  0  0  0  0  0  0
    9.7665  -23.8086   22.7825 N   0  0  0  0  0  0  0  0  0  0  0  0
    9.4051  -23.3628   21.4963 C   0  0  0  0  0  0  0  0  0  0  0  0
    9.1902  -24.1683   20.4910 N   0  0  0  0  0  0  0  0  0  0  0  0
    9.2443  -21.9684   21.1907 N   0  0  0  0  0  0  0  0  0  0  0  0
    9.5329  -20.9869   22.2166 C   0  0  0  0  0  0  0  0  0  0  0  0
    9.4189  -19.5828   21.6680 C   0  0  0  0  0  0  0  0  0  0  0  0
    9.8104  -18.5664   22.7062 C   0  0  0  0  0  0  0  0  0  0  0  0
    9.7416  -17.1511   22.1986 C   0  0  2  0  0  0  0  0  0  0  0  0
   10.9157  -16.8146   21.3777 N   0  0  0  0  0  0  0  0  0  0  0  0
    9.7672  -16.2765   23.4258 C   0  0  0  0  0  0  0  0  0  0  0  0
   10.9243  -15.8964   23.7846 O   0  0  0  0  0  0  0  0  0  0  0  0
    8.9815  -23.7239   19.5801 C   0  0  0  0  0  0  0  0  0  0  0  0
    6.1103  -10.7053   27.6098 S   0  0  0  0  0  0  0  0  0  0  0  0
    6.1100  -11.9530   26.3495 C   0  0  0  0  0  0  0  0  0  0  0  0
    7.5457  -13.0014   26.3448 C   0  0  0  0  0  0  0  0  0  0  0  0
    7.5705  -14.0464   25.2814 C   0  0  1  0  0  0  0  0  0  0  0  0
    8.7653  -14.9355   25.2302 N   0  0  0  0  0  0  0  0  0  0  0  0
    8.6183  -15.9078   24.1198 C   0  0  0  0  0  0  0  0  0  0  0  0
    8.9422  -15.7080   26.4925 O   0  0  0  0  0  0  0  0  0  0  0  0
    8.4877  -16.8959   26.5206 O   0  0  0  0  0  0  0  0  0  0  0  0
  2  1  1  6
  2  3  1  0
  2  9  1  0
  4  8  1  0
  4  3  1  0
  5  4  2  0
  6  5  1  0
  6  7  1  0
  7  8  2  0
  9 10  2  0
 12 14  1  0
 12 11  1  0
 13 12  2  0
 15 14  1  0
 15 16  1  0
 17 16  1  0
 18 17  1  1
 19 18  1  0
 19  9  1  0
 20 18  1  0
 20 21  2  0
 22 23  1  0
 23 24  1  0
 24 25  1  0
 26 25  1  6
 26 27  1  0
 26 28  1  0
 27 20  1  0
 28 29  2  0
 28 30  1  0
M  END
$$$$
