HRM.pdb
     RDKit          3D

 30 30  0  0  1  0  0  0  0  0999 V2000
    7.0532  -16.8288   18.8547 N   0  0  0  0  0  0  0  0  0  0  0  0
    8.0944  -16.2205   19.6624 C   0  0  1  0  0  0  0  0  0  0  0  0
    8.0294  -14.7248   19.4533 C   0  0  0  0  0  0  0  0  0  0  0  0
    8.3885  -14.4263   18.0475 C   0  0  0  0  0  0  0  0  0  0  0  0
    7.8996  -13.4356   17.2156 C   0  0  0  0  0  0  0  0  0  0  0  0
    8.4884  -13.5067   16.0095 N   0  0  0  0  0  0  0  0  0  0  0  0
    9.3492  -14.5292   16.0536 C   0  0  0  0  0  0  0  0  0  0  0  0
    9.2970  -15.0877   17.2719 N   0  0  0  0  0  0  0  0  0  0  0  0
    7.9228  -16.6008   21.0744 C   0  0  0  0  0  0  0  0  0  0  0  0
    6.7923  -16.5270   21.5966 O   0  0  0  0  0  0  0  0  0  0  0  0
   11.6133  -21.1926   28.8897 N   0  0  0  0  0  0  0  0  0  0  0  0
   11.7867  -20.5654   27.6406 C   0  0  0  0  0  0  0  0  0  0  0  0
   12.9219  -20.0558   27.2441 N   0  0  0  0  0  0  0  0  0  0  0  0
   10.7114  -20.4377   26.6967 N   0  0  0  0  0  0  0  0  0  0  0  0
   10.9697  -19.8049   25.4193 C   0  0  0  0  0  0  0  0  0  0  0  0
    9.8709  -18.8274   25.0688 C   0  0  0  0  0  0  0  0  0  0  0  0
    9.8786  -18.5149   23.5969 C   0  0  0  0  0  0  0  0  0  0  0  0
    8.8757  -17.4595   23.2148 C   0  0  2  0  0  0  0  0  0  0  0  0
    9.0391  -17.0421   21.8133 N   0  0  0  0  0  0  0  0  0  0  0  0
    9.1801  -16.2719   24.0914 C   0  0  0  0  0  0  0  0  0  0  0  0
   10.2907  -15.7048   23.8526 O   0  0  0  0  0  0  0  0  0  0  0  0
   12.9322  -19.6296   26.3012 C   0  0  0  0  0  0  0  0  0  0  0  0
    6.4322   -9.9983   26.3141 S   0  0  0  0  0  0  0  0  0  0  0  0
    6.3582  -11.5216   27.2191 C   0  0  0  0  0  0  0  0  0  0  0  0
    7.7731  -12.5772   27.0094 C   0  0  0  0  0  0  0  0  0  0  0  0
    7.5737  -13.7398   26.0973 C   0  0  1  0  0  0  0  0  0  0  0  0
    8.7390  -14.6437   25.8837 N   0  0  0  0  0  0  0  0  0  0  0  0
    8.3186  -15.8228   25.0882 C   0  0  0  0  0  0  0  0  0  0  0  0
    9.3053  -15.1398   27.1702 O   0  0  0  0  0  0  0  0  0  0  0  0
    9.0279  -16.3339   27.5102 O   0  0  0  0  0  0  0  0  0  0  0  0
  2  1  1  6
  2  3  1  0
  2  9  1  0
  4  8  1  0
  4  3  1  0
  5  4  2  0
  6  5  1  0
  6  7  1  0
  7  8  2  0
  9 10  2  0
 12 14  1  0
 12 11  1  0
 13 12  2  0
 15 14  1  0
 15 16  1  0
 17 16  1  0
 18 17  1  1
 19 18  1  0
 19  9  1  0
 20 18  1  0
 20 21  2  0
 22 23  1  0
 23 24  1  0
 24 25  1  0
 26 25  1  6
 26 27  1  0
 26 28  1  0
 27 20  1  0
 28 29  2  0
 28 30  1  0
M  END
$$$$
