HRM.pdb
     RDKit          3D

 30 30  0  0  1  0  0  0  0  0999 V2000
    8.4755  -16.8908   19.3952 N   0  0  0  0  0  0  0  0  0  0  0  0
    8.1717  -15.8638   20.3747 C   0  0  1  0  0  0  0  0  0  0  0  0
    7.1107  -14.9614   19.7871 C   0  0  0  0  0  0  0  0  0  0  0  0
    7.6844  -14.2526   18.6197 C   0  0  0  0  0  0  0  0  0  0  0  0
    8.4871  -13.1268   18.5930 C   0  0  0  0  0  0  0  0  0  0  0  0
    8.7926  -12.8018   17.3252 N   0  0  0  0  0  0  0  0  0  0  0  0
    8.1979  -13.7026   16.5357 C   0  0  0  0  0  0  0  0  0  0  0  0
    7.5304  -14.5775   17.3025 N   0  0  0  0  0  0  0  0  0  0  0  0
    7.7464  -16.4852   21.6400 C   0  0  0  0  0  0  0  0  0  0  0  0
    6.7059  -17.1729   21.6664 O   0  0  0  0  0  0  0  0  0  0  0  0
    7.3422  -21.5961   26.9279 N   0  0  0  0  0  0  0  0  0  0  0  0
    6.5175  -22.0826   25.8950 C   0  0  0  0  0  0  0  0  0  0  0  0
    5.4938  -22.8665   26.1022 N   0  0  0  0  0  0  0  0  0  0  0  0
    6.7456  -21.7477   24.5168 N   0  0  0  0  0  0  0  0  0  0  0  0
    7.8509  -20.8738   24.1801 C   0  0  0  0  0  0  0  0  0  0  0  0
    7.4706  -19.4233   24.3726 C   0  0  0  0  0  0  0  0  0  0  0  0
    8.5544  -18.5113   23.8647 C   0  0  0  0  0  0  0  0  0  0  0  0
    8.2178  -17.0529   24.0237 C   0  0  2  0  0  0  0  0  0  0  0  0
    8.5219  -16.2925   22.8011 N   0  0  0  0  0  0  0  0  0  0  0  0
    9.1165  -16.5448   25.1219 C   0  0  0  0  0  0  0  0  0  0  0  0
   10.3398  -16.4346   24.8004 O   0  0  0  0  0  0  0  0  0  0  0  0
    4.9499  -23.1457   25.2673 C   0  0  0  0  0  0  0  0  0  0  0  0
    6.3946  -11.4591   26.4798 S   0  0  0  0  0  0  0  0  0  0  0  0
    7.6742  -11.2948   27.6966 C   0  0  0  0  0  0  0  0  0  0  0  0
    8.7987  -12.6693   27.7792 C   0  0  0  0  0  0  0  0  0  0  0  0
    8.3592  -13.8987   27.0590 C   0  0  1  0  0  0  0  0  0  0  0  0
    9.2834  -15.0675   27.0834 N   0  0  0  0  0  0  0  0  0  0  0  0
    8.6525  -16.2188   26.3931 C   0  0  0  0  0  0  0  0  0  0  0  0
    9.6107  -15.4929   28.4739 O   0  0  0  0  0  0  0  0  0  0  0  0
    9.0274  -16.5312   28.9211 O   0  0  0  0  0  0  0  0  0  0  0  0
  2  1  1  6
  2  3  1  0
  2  9  1  0
  4  8  1  0
  4  3  1  0
  5  4  2  0
  6  5  1  0
  6  7  1  0
  7  8  2  0
  9 10  2  0
 12 14  1  0
 12 11  1  0
 13 12  2  0
 15 14  1  0
 15 16  1  0
 17 16  1  0
 18 17  1  6
 19 18  1  0
 19  9  1  0
 20 18  1  0
 20 21  2  0
 22 23  1  0
 23 24  1  0
 24 25  1  0
 26 25  1  6
 26 27  1  0
 26 28  1  0
 27 20  1  0
 28 29  2  0
 28 30  1  0
M  END
$$$$
