HRM.pdb
     RDKit          3D

 30 30  0  0  1  0  0  0  0  0999 V2000
    9.2846  -17.2832   20.1238 N   0  0  0  0  0  0  0  0  0  0  0  0
    8.2564  -16.2595   20.1562 C   0  0  1  0  0  0  0  0  0  0  0  0
    7.4249  -16.3971   18.9011 C   0  0  0  0  0  0  0  0  0  0  0  0
    7.7950  -15.3100   17.9654 C   0  0  0  0  0  0  0  0  0  0  0  0
    8.7908  -14.3580   18.0871 C   0  0  0  0  0  0  0  0  0  0  0  0
    8.7961  -13.5489   17.0140 N   0  0  0  0  0  0  0  0  0  0  0  0
    7.8179  -13.9668   16.2035 C   0  0  0  0  0  0  0  0  0  0  0  0
    7.2110  -15.0229   16.7651 N   0  0  0  0  0  0  0  0  0  0  0  0
    7.4527  -16.3918   21.3827 C   0  0  0  0  0  0  0  0  0  0  0  0
    6.5431  -15.5695   21.6119 O   0  0  0  0  0  0  0  0  0  0  0  0
    5.9014  -23.0411   25.3372 N   0  0  0  0  0  0  0  0  0  0  0  0
    6.1679  -22.8511   23.9673 C   0  0  0  0  0  0  0  0  0  0  0  0
    5.6186  -23.5665   23.0228 N   0  0  0  0  0  0  0  0  0  0  0  0
    7.0776  -21.8418   23.5012 N   0  0  0  0  0  0  0  0  0  0  0  0
    7.9186  -21.1568   24.4617 C   0  0  0  0  0  0  0  0  0  0  0  0
    8.1334  -19.7152   24.0601 C   0  0  0  0  0  0  0  0  0  0  0  0
    6.8238  -18.9785   23.9797 C   0  0  0  0  0  0  0  0  0  0  0  0
    6.9807  -17.5463   23.5440 C   0  0  2  0  0  0  0  0  0  0  0  0
    7.7245  -17.4458   22.2783 N   0  0  0  0  0  0  0  0  0  0  0  0
    7.8015  -16.8812   24.6189 C   0  0  0  0  0  0  0  0  0  0  0  0
    9.0572  -16.9328   24.4383 O   0  0  0  0  0  0  0  0  0  0  0  0
    5.9630  -23.4031   22.0607 C   0  0  0  0  0  0  0  0  0  0  0  0
    6.0588  -10.5327   26.7648 S   0  0  0  0  0  0  0  0  0  0  0  0
    6.3605  -11.7064   28.0595 C   0  0  0  0  0  0  0  0  0  0  0  0
    7.5335  -12.9775   27.6485 C   0  0  0  0  0  0  0  0  0  0  0  0
    6.9797  -14.1387   26.8948 C   0  0  1  0  0  0  0  0  0  0  0  0
    7.9585  -15.0957   26.3057 N   0  0  0  0  0  0  0  0  0  0  0  0
    7.2379  -16.2561   25.7275 C   0  0  0  0  0  0  0  0  0  0  0  0
    8.9157  -15.6144   27.3237 O   0  0  0  0  0  0  0  0  0  0  0  0
    8.7524  -16.8104   27.7251 O   0  0  0  0  0  0  0  0  0  0  0  0
  2  1  1  1
  2  3  1  0
  2  9  1  0
  4  8  1  0
  4  3  1  0
  5  4  2  0
  6  5  1  0
  6  7  1  0
  7  8  2  0
  9 10  2  0
 12 14  1  0
 12 11  1  0
 13 12  2  0
 15 14  1  0
 15 16  1  0
 17 16  1  0
 18 17  1  1
 19 18  1  0
 19  9  1  0
 20 18  1  0
 20 21  2  0
 22 23  1  0
 23 24  1  0
 24 25  1  0
 26 25  1  6
 26 27  1  0
 26 28  1  0
 27 20  1  0
 28 29  2  0
 28 30  1  0
M  END
$$$$
