HRM.pdb
     RDKit          3D

 30 30  0  0  1  0  0  0  0  0999 V2000
   11.6530  -16.7744   19.1370 N   0  0  0  0  0  0  0  0  0  0  0  0
   11.7689  -17.5418   20.3634 C   0  0  1  0  0  0  0  0  0  0  0  0
   13.1181  -17.2393   20.9744 C   0  0  0  0  0  0  0  0  0  0  0  0
   14.1533  -18.0037   20.2405 C   0  0  0  0  0  0  0  0  0  0  0  0
   14.7087  -17.7477   19.0001 C   0  0  0  0  0  0  0  0  0  0  0  0
   15.6189  -18.6880   18.6937 N   0  0  0  0  0  0  0  0  0  0  0  0
   15.6569  -19.5452   19.7194 C   0  0  0  0  0  0  0  0  0  0  0  0
   14.7813  -19.1438   20.6528 N   0  0  0  0  0  0  0  0  0  0  0  0
   10.6539  -17.2161   21.2682 C   0  0  0  0  0  0  0  0  0  0  0  0
   10.1599  -16.0708   21.2454 O   0  0  0  0  0  0  0  0  0  0  0  0
    3.8632  -19.8751   21.0166 N   0  0  0  0  0  0  0  0  0  0  0  0
    4.5813  -20.8443   21.7437 C   0  0  0  0  0  0  0  0  0  0  0  0
    4.2921  -22.1176   21.7232 N   0  0  0  0  0  0  0  0  0  0  0  0
    5.7011  -20.4983   22.5742 N   0  0  0  0  0  0  0  0  0  0  0  0
    5.6932  -19.2276   23.2702 C   0  0  0  0  0  0  0  0  0  0  0  0
    6.9720  -19.0324   24.0525 C   0  0  0  0  0  0  0  0  0  0  0  0
    8.1764  -19.2307   23.1724 C   0  0  0  0  0  0  0  0  0  0  0  0
    8.9366  -17.9563   22.9203 C   0  0  2  0  0  0  0  0  0  0  0  0
   10.1630  -18.2039   22.1458 N   0  0  0  0  0  0  0  0  0  0  0  0
    9.3412  -17.4476   24.2802 C   0  0  0  0  0  0  0  0  0  0  0  0
   10.4613  -17.8759   24.6971 O   0  0  0  0  0  0  0  0  0  0  0  0
    4.9210  -22.7424   22.2571 C   0  0  0  0  0  0  0  0  0  0  0  0
    5.9386  -11.8921   26.4954 S   0  0  0  0  0  0  0  0  0  0  0  0
    6.8761  -13.0001   25.4762 C   0  0  0  0  0  0  0  0  0  0  0  0
    8.3567  -13.6290   26.2329 C   0  0  0  0  0  0  0  0  0  0  0  0
    8.2373  -14.9853   26.8407 C   0  0  2  0  0  0  0  0  0  0  0  0
    9.1225  -16.0539   26.2970 N   0  0  0  0  0  0  0  0  0  0  0  0
    8.5561  -16.5760   25.0294 C   0  0  0  0  0  0  0  0  0  0  0  0
    9.2612  -17.1992   27.2406 O   0  0  0  0  0  0  0  0  0  0  0  0
    8.5954  -18.2526   26.9847 O   0  0  0  0  0  0  0  0  0  0  0  0
  2  1  1  6
  2  3  1  0
  2  9  1  0
  4  8  1  0
  4  3  1  0
  5  4  2  0
  6  5  1  0
  6  7  1  0
  7  8  2  0
  9 10  2  0
 12 14  1  0
 12 11  1  0
 13 12  2  0
 15 14  1  0
 15 16  1  0
 17 16  1  0
 18 17  1  1
 19 18  1  0
 19  9  1  0
 20 18  1  0
 20 21  2  0
 22 23  1  0
 23 24  1  0
 24 25  1  0
 26 25  1  6
 26 27  1  0
 26 28  1  0
 27 20  1  0
 28 29  2  0
 28 30  1  0
M  END
$$$$
