HRM.pdb
     RDKit          3D

 30 30  0  0  1  0  0  0  0  0999 V2000
    8.3572  -16.8678   19.8342 N   0  0  0  0  0  0  0  0  0  0  0  0
    8.4646  -15.8468   20.8601 C   0  0  1  0  0  0  0  0  0  0  0  0
    7.4625  -14.7610   20.5408 C   0  0  0  0  0  0  0  0  0  0  0  0
    7.8858  -14.0754   19.2978 C   0  0  0  0  0  0  0  0  0  0  0  0
    8.5578  -12.8756   19.1509 C   0  0  0  0  0  0  0  0  0  0  0  0
    8.7512  -12.6057   17.8485 N   0  0  0  0  0  0  0  0  0  0  0  0
    8.2132  -13.6149   17.1554 C   0  0  0  0  0  0  0  0  0  0  0  0
    7.6913  -14.5020   18.0154 N   0  0  0  0  0  0  0  0  0  0  0  0
    8.2464  -16.4431   22.1885 C   0  0  0  0  0  0  0  0  0  0  0  0
    7.4253  -17.3736   22.3158 O   0  0  0  0  0  0  0  0  0  0  0  0
   12.9649  -21.8543   24.3218 N   0  0  0  0  0  0  0  0  0  0  0  0
   13.6240  -20.6191   24.1680 C   0  0  0  0  0  0  0  0  0  0  0  0
   14.9180  -20.5075   24.0325 N   0  0  0  0  0  0  0  0  0  0  0  0
   12.9105  -19.3724   24.1491 N   0  0  0  0  0  0  0  0  0  0  0  0
   11.4746  -19.3821   24.3412 C   0  0  0  0  0  0  0  0  0  0  0  0
   10.9295  -17.9737   24.4105 C   0  0  0  0  0  0  0  0  0  0  0  0
    9.4372  -17.9835   24.6032 C   0  0  0  0  0  0  0  0  0  0  0  0
    8.8359  -16.6036   24.6079 C   0  0  2  0  0  0  0  0  0  0  0  0
    8.9690  -15.9526   23.2949 N   0  0  0  0  0  0  0  0  0  0  0  0
    9.6437  -15.8107   25.6031 C   0  0  0  0  0  0  0  0  0  0  0  0
   10.6808  -15.2557   25.1252 O   0  0  0  0  0  0  0  0  0  0  0  0
   15.2899  -19.5475   23.9270 C   0  0  0  0  0  0  0  0  0  0  0  0
    6.2281  -10.9175   26.4687 S   0  0  0  0  0  0  0  0  0  0  0  0
    7.1226  -11.7653   27.7439 C   0  0  0  0  0  0  0  0  0  0  0  0
    8.2874  -12.9722   27.1547 C   0  0  0  0  0  0  0  0  0  0  0  0
    9.1260  -13.6173   28.2054 C   0  0  2  0  0  0  0  0  0  0  0  0
   10.0393  -14.7111   27.7692 N   0  0  0  0  0  0  0  0  0  0  0  0
    9.2900  -15.6894   26.9438 C   0  0  0  0  0  0  0  0  0  0  0  0
   10.6258  -15.4449   28.9264 O   0  0  0  0  0  0  0  0  0  0  0  0
   10.2625  -16.6517   29.0993 O   0  0  0  0  0  0  0  0  0  0  0  0
  2  1  1  6
  2  3  1  0
  2  9  1  0
  4  8  1  0
  4  3  1  0
  5  4  2  0
  6  5  1  0
  6  7  1  0
  7  8  2  0
  9 10  2  0
 12 14  1  0
 12 11  1  0
 13 12  2  0
 15 14  1  0
 15 16  1  0
 17 16  1  0
 18 17  1  6
 19 18  1  0
 19  9  1  0
 20 18  1  0
 20 21  2  0
 22 23  1  0
 23 24  1  0
 24 25  1  0
 26 25  1  6
 26 27  1  0
 26 28  1  0
 27 20  1  0
 28 29  2  0
 28 30  1  0
M  END
$$$$
