HRM.pdb
     RDKit          3D

 30 30  0  0  1  0  0  0  0  0999 V2000
    8.5809  -16.3337   20.0985 N   0  0  0  0  0  0  0  0  0  0  0  0
    8.0352  -15.1839   20.7961 C   0  0  1  0  0  0  0  0  0  0  0  0
    6.9169  -14.6167   19.9518 C   0  0  0  0  0  0  0  0  0  0  0  0
    7.4514  -14.3013   18.6067 C   0  0  0  0  0  0  0  0  0  0  0  0
    8.2302  -13.2300   18.2086 C   0  0  0  0  0  0  0  0  0  0  0  0
    8.5024  -13.3139   16.8951 N   0  0  0  0  0  0  0  0  0  0  0  0
    7.9098  -14.4240   16.4425 C   0  0  0  0  0  0  0  0  0  0  0  0
    7.2765  -15.0238   17.4614 N   0  0  0  0  0  0  0  0  0  0  0  0
    7.5826  -15.5790   22.1403 C   0  0  0  0  0  0  0  0  0  0  0  0
    6.9701  -14.7545   22.8484 O   0  0  0  0  0  0  0  0  0  0  0  0
    8.4818  -20.4124   28.5642 N   0  0  0  0  0  0  0  0  0  0  0  0
    7.6973  -21.4315   27.9902 C   0  0  0  0  0  0  0  0  0  0  0  0
    7.7662  -22.6832   28.3561 N   0  0  0  0  0  0  0  0  0  0  0  0
    6.7498  -21.1653   26.9437 N   0  0  0  0  0  0  0  0  0  0  0  0
    7.2359  -20.7290   25.6505 C   0  0  0  0  0  0  0  0  0  0  0  0
    7.1805  -19.2229   25.5327 C   0  0  0  0  0  0  0  0  0  0  0  0
    7.4786  -18.7822   24.1252 C   0  0  0  0  0  0  0  0  0  0  0  0
    7.4083  -17.2890   23.9493 C   0  0  2  0  0  0  0  0  0  0  0  0
    7.8489  -16.8827   22.6053 N   0  0  0  0  0  0  0  0  0  0  0  0
    8.3787  -16.7149   24.9493 C   0  0  0  0  0  0  0  0  0  0  0  0
    9.6034  -16.8831   24.6597 O   0  0  0  0  0  0  0  0  0  0  0  0
    7.2065  -23.3567   27.8047 C   0  0  0  0  0  0  0  0  0  0  0  0
    5.6366  -10.9531   26.4516 S   0  0  0  0  0  0  0  0  0  0  0  0
    6.6649  -11.9540   27.4935 C   0  0  0  0  0  0  0  0  0  0  0  0
    7.5555  -13.2363   26.6433 C   0  0  0  0  0  0  0  0  0  0  0  0
    8.3980  -14.1110   27.5085 C   0  0  2  0  0  0  0  0  0  0  0  0
    9.0079  -15.3123   26.8715 N   0  0  0  0  0  0  0  0  0  0  0  0
    7.9753  -16.0501   26.1038 C   0  0  0  0  0  0  0  0  0  0  0  0
    9.5832  -16.2482   27.8787 O   0  0  0  0  0  0  0  0  0  0  0  0
    8.9255  -17.3059   28.1379 O   0  0  0  0  0  0  0  0  0  0  0  0
  2  1  1  6
  2  3  1  0
  2  9  1  0
  4  8  1  0
  4  3  1  0
  5  4  2  0
  6  5  1  0
  6  7  1  0
  7  8  2  0
  9 10  2  0
 12 14  1  0
 12 11  1  0
 13 12  2  0
 15 14  1  0
 15 16  1  0
 17 16  1  0
 18 17  1  6
 19 18  1  0
 19  9  1  0
 20 18  1  0
 20 21  2  0
 22 23  1  0
 23 24  1  0
 24 25  1  0
 26 25  1  6
 26 27  1  0
 26 28  1  0
 27 20  1  0
 28 29  2  0
 28 30  1  0
M  END
$$$$
