HRM.pdb
     RDKit          3D

 30 30  0  0  1  0  0  0  0  0999 V2000
    8.7304  -19.8695   20.6130 N   0  0  0  0  0  0  0  0  0  0  0  0
    8.3753  -19.0186   21.7338 C   0  0  1  0  0  0  0  0  0  0  0  0
    8.8661  -19.6871   22.9976 C   0  0  0  0  0  0  0  0  0  0  0  0
    7.7937  -20.5682   23.5154 C   0  0  0  0  0  0  0  0  0  0  0  0
    6.5815  -20.8966   22.9364 C   0  0  0  0  0  0  0  0  0  0  0  0
    5.8931  -21.7291   23.7360 N   0  0  0  0  0  0  0  0  0  0  0  0
    6.6452  -21.9410   24.8213 C   0  0  0  0  0  0  0  0  0  0  0  0
    7.7877  -21.2491   24.6989 N   0  0  0  0  0  0  0  0  0  0  0  0
    8.9481  -17.6752   21.5471 C   0  0  0  0  0  0  0  0  0  0  0  0
   10.1690  -17.5548   21.3212 O   0  0  0  0  0  0  0  0  0  0  0  0
    8.3975  -12.8012   16.4432 N   0  0  0  0  0  0  0  0  0  0  0  0
    8.5799  -14.1955   16.3630 C   0  0  0  0  0  0  0  0  0  0  0  0
    9.3835  -14.7666   15.5067 N   0  0  0  0  0  0  0  0  0  0  0  0
    7.8844  -15.1056   17.2299 N   0  0  0  0  0  0  0  0  0  0  0  0
    7.1486  -14.5756   18.3598 C   0  0  0  0  0  0  0  0  0  0  0  0
    8.0831  -13.9321   19.3588 C   0  0  0  0  0  0  0  0  0  0  0  0
    7.6857  -14.2795   20.7680 C   0  0  0  0  0  0  0  0  0  0  0  0
    8.6669  -15.1978   21.4460 C   0  0  2  0  0  0  0  0  0  0  0  0
    8.1072  -16.5467   21.6267 N   0  0  0  0  0  0  0  0  0  0  0  0
    8.9018  -14.6058   22.8120 C   0  0  0  0  0  0  0  0  0  0  0  0
    8.9946  -13.3397   22.8347 O   0  0  0  0  0  0  0  0  0  0  0  0
    9.4738  -15.7953   15.5736 C   0  0  0  0  0  0  0  0  0  0  0  0
    6.8939  -11.6443   28.3926 S   0  0  0  0  0  0  0  0  0  0  0  0
    6.7747  -12.0640   26.6737 C   0  0  0  0  0  0  0  0  0  0  0  0
    6.4948  -13.7896   26.3503 C   0  0  0  0  0  0  0  0  0  0  0  0
    7.1482  -14.3237   25.1210 C   0  0  1  0  0  0  0  0  0  0  0  0
    8.5640  -14.7724   25.2443 N   0  0  0  0  0  0  0  0  0  0  0  0
    9.0104  -15.3771   23.9656 C   0  0  0  0  0  0  0  0  0  0  0  0
    8.7358  -15.7935   26.3163 O   0  0  0  0  0  0  0  0  0  0  0  0
    8.4884  -17.0048   26.0162 O   0  0  0  0  0  0  0  0  0  0  0  0
  2  1  1  6
  2  3  1  0
  2  9  1  0
  4  8  1  0
  4  3  1  0
  5  4  2  0
  6  5  1  0
  6  7  1  0
  7  8  2  0
  9 10  2  0
 12 14  1  0
 12 11  1  0
 13 12  2  0
 15 14  1  0
 15 16  1  0
 17 16  1  0
 18 17  1  6
 19 18  1  0
 19  9  1  0
 20 18  1  0
 20 21  2  0
 22 23  1  0
 23 24  1  0
 24 25  1  0
 26 25  1  6
 26 27  1  0
 26 28  1  0
 27 20  1  0
 28 29  2  0
 28 30  1  0
M  END
$$$$
