HRM.pdb
     RDKit          3D

 30 30  0  0  1  0  0  0  0  0999 V2000
    9.6561  -16.2825   19.0457 N   0  0  0  0  0  0  0  0  0  0  0  0
    9.0729  -15.3480   19.9907 C   0  0  1  0  0  0  0  0  0  0  0  0
    7.7441  -14.8920   19.4323 C   0  0  0  0  0  0  0  0  0  0  0  0
    7.9687  -14.3112   18.0882 C   0  0  0  0  0  0  0  0  0  0  0  0
    8.4740  -13.0691   17.7498 C   0  0  0  0  0  0  0  0  0  0  0  0
    8.5165  -12.9311   16.4136 N   0  0  0  0  0  0  0  0  0  0  0  0
    8.0457  -14.0669   15.8874 C   0  0  0  0  0  0  0  0  0  0  0  0
    7.7142  -14.9016   16.8836 N   0  0  0  0  0  0  0  0  0  0  0  0
    8.9411  -15.9845   21.3118 C   0  0  0  0  0  0  0  0  0  0  0  0
    7.8070  -16.1392   21.8079 O   0  0  0  0  0  0  0  0  0  0  0  0
    9.7989  -21.6915   21.6300 N   0  0  0  0  0  0  0  0  0  0  0  0
   10.0359  -22.0562   22.9696 C   0  0  0  0  0  0  0  0  0  0  0  0
    9.3133  -22.9325   23.6141 N   0  0  0  0  0  0  0  0  0  0  0  0
   11.1057  -21.4820   23.7374 N   0  0  0  0  0  0  0  0  0  0  0  0
   11.9213  -20.4448   23.1392 C   0  0  0  0  0  0  0  0  0  0  0  0
   11.0598  -19.3356   22.5798 C   0  0  0  0  0  0  0  0  0  0  0  0
   11.1424  -18.1043   23.4408 C   0  0  0  0  0  0  0  0  0  0  0  0
    9.9768  -17.1720   23.2468 C   0  0  2  0  0  0  0  0  0  0  0  0
   10.0990  -16.4087   21.9946 N   0  0  0  0  0  0  0  0  0  0  0  0
   10.0406  -16.1960   24.3935 C   0  0  0  0  0  0  0  0  0  0  0  0
   11.1621  -15.6191   24.5397 O   0  0  0  0  0  0  0  0  0  0  0  0
    9.6211  -23.1687   24.5734 C   0  0  0  0  0  0  0  0  0  0  0  0
    5.8934  -11.4534   26.0052 S   0  0  0  0  0  0  0  0  0  0  0  0
    6.4071  -12.0878   27.5796 C   0  0  0  0  0  0  0  0  0  0  0  0
    7.8646  -13.1043   27.5287 C   0  0  0  0  0  0  0  0  0  0  0  0
    7.9434  -14.0515   26.3799 C   0  0  1  0  0  0  0  0  0  0  0  0
    9.1447  -14.9302   26.3048 N   0  0  0  0  0  0  0  0  0  0  0  0
    8.9606  -15.9390   25.2332 C   0  0  0  0  0  0  0  0  0  0  0  0
    9.3846  -15.6600   27.5820 O   0  0  0  0  0  0  0  0  0  0  0  0
    9.1499  -16.9103   27.5950 O   0  0  0  0  0  0  0  0  0  0  0  0
  2  1  1  6
  2  3  1  0
  2  9  1  0
  4  8  1  0
  4  3  1  0
  5  4  2  0
  6  5  1  0
  6  7  1  0
  7  8  2  0
  9 10  2  0
 12 14  1  0
 12 11  1  0
 13 12  2  0
 15 14  1  0
 15 16  1  0
 17 16  1  0
 18 17  1  1
 19 18  1  0
 19  9  1  0
 20 18  1  0
 20 21  2  0
 22 23  1  0
 23 24  1  0
 24 25  1  0
 26 25  1  6
 26 27  1  0
 26 28  1  0
 27 20  1  0
 28 29  2  0
 28 30  1  0
M  END
$$$$
