HRM.pdb
     RDKit          3D

 30 30  0  0  1  0  0  0  0  0999 V2000
   11.0316  -18.6745   20.2446 N   0  0  0  0  0  0  0  0  0  0  0  0
   11.8660  -17.4875   20.2764 C   0  0  1  0  0  0  0  0  0  0  0  0
   12.1254  -17.0643   18.8485 C   0  0  0  0  0  0  0  0  0  0  0  0
   13.1161  -17.9901   18.2519 C   0  0  0  0  0  0  0  0  0  0  0  0
   14.4020  -18.2776   18.6718 C   0  0  0  0  0  0  0  0  0  0  0  0
   14.9713  -19.1755   17.8496 N   0  0  0  0  0  0  0  0  0  0  0  0
   14.0698  -19.4698   16.9066 C   0  0  0  0  0  0  0  0  0  0  0  0
   12.9532  -18.7639   17.1388 N   0  0  0  0  0  0  0  0  0  0  0  0
   11.2107  -16.4326   21.0673 C   0  0  0  0  0  0  0  0  0  0  0  0
   11.7960  -15.3451   21.2440 O   0  0  0  0  0  0  0  0  0  0  0  0
    7.5944  -13.7667   17.7177 N   0  0  0  0  0  0  0  0  0  0  0  0
    7.6619  -13.1725   18.9929 C   0  0  0  0  0  0  0  0  0  0  0  0
    8.0961  -11.9580   19.1974 N   0  0  0  0  0  0  0  0  0  0  0  0
    7.2524  -13.8695   20.1804 N   0  0  0  0  0  0  0  0  0  0  0  0
    7.6929  -15.2351   20.3804 C   0  0  0  0  0  0  0  0  0  0  0  0
    6.9593  -15.8753   21.5369 C   0  0  0  0  0  0  0  0  0  0  0  0
    7.8531  -15.9931   22.7416 C   0  0  0  0  0  0  0  0  0  0  0  0
    9.2869  -15.6427   22.4464 C   0  0  2  0  0  0  0  0  0  0  0  0
    9.9324  -16.6688   21.6123 N   0  0  0  0  0  0  0  0  0  0  0  0
    9.9849  -15.6236   23.7821 C   0  0  0  0  0  0  0  0  0  0  0  0
   10.9788  -14.8365   23.8521 O   0  0  0  0  0  0  0  0  0  0  0  0
    8.2148  -11.6704   20.1843 C   0  0  0  0  0  0  0  0  0  0  0  0
    6.9678  -12.1226   26.3653 S   0  0  0  0  0  0  0  0  0  0  0  0
    7.8107  -12.5657   27.8615 C   0  0  0  0  0  0  0  0  0  0  0  0
    8.8531  -13.9996   27.7275 C   0  0  0  0  0  0  0  0  0  0  0  0
    8.9253  -14.6127   26.3702 C   0  0  1  0  0  0  0  0  0  0  0  0
    9.7557  -15.8414   26.2229 N   0  0  0  0  0  0  0  0  0  0  0  0
    9.5804  -16.4036   24.8616 C   0  0  0  0  0  0  0  0  0  0  0  0
    9.3736  -16.8958   27.2047 O   0  0  0  0  0  0  0  0  0  0  0  0
    8.5122  -17.7557   26.8347 O   0  0  0  0  0  0  0  0  0  0  0  0
  2  1  1  6
  2  3  1  0
  2  9  1  0
  4  8  1  0
  4  3  1  0
  5  4  2  0
  6  5  1  0
  6  7  1  0
  7  8  2  0
  9 10  2  0
 12 14  1  0
 12 11  1  0
 13 12  2  0
 15 14  1  0
 15 16  1  0
 17 16  1  0
 18 17  1  1
 19 18  1  0
 19  9  1  0
 20 18  1  0
 20 21  2  0
 22 23  1  0
 23 24  1  0
 24 25  1  0
 26 25  1  6
 26 27  1  0
 26 28  1  0
 27 20  1  0
 28 29  2  0
 28 30  1  0
M  END
$$$$
