HRM.pdb
     RDKit          3D

 30 30  0  0  1  0  0  0  0  0999 V2000
    6.0606  -19.8986   20.9569 N   0  0  0  0  0  0  0  0  0  0  0  0
    6.1771  -18.8145   21.9148 C   0  0  1  0  0  0  0  0  0  0  0  0
    5.7823  -19.3503   23.2721 C   0  0  0  0  0  0  0  0  0  0  0  0
    5.8149  -18.2373   24.2492 C   0  0  0  0  0  0  0  0  0  0  0  0
    6.0236  -16.8886   24.0258 C   0  0  0  0  0  0  0  0  0  0  0  0
    5.9763  -16.2109   25.1855 N   0  0  0  0  0  0  0  0  0  0  0  0
    5.7402  -17.1046   26.1519 C   0  0  0  0  0  0  0  0  0  0  0  0
    5.6416  -18.3234   25.6008 N   0  0  0  0  0  0  0  0  0  0  0  0
    7.5463  -18.2733   21.8984 C   0  0  0  0  0  0  0  0  0  0  0  0
    8.5044  -19.0195   22.1839 O   0  0  0  0  0  0  0  0  0  0  0  0
    8.2019  -14.5956   15.5003 N   0  0  0  0  0  0  0  0  0  0  0  0
    7.8258  -13.7047   16.5243 C   0  0  0  0  0  0  0  0  0  0  0  0
    6.8993  -12.7956   16.3810 N   0  0  0  0  0  0  0  0  0  0  0  0
    8.4434  -13.7304   17.8211 N   0  0  0  0  0  0  0  0  0  0  0  0
    9.4742  -14.7127   18.0886 C   0  0  0  0  0  0  0  0  0  0  0  0
    8.9953  -15.7392   19.0898 C   0  0  0  0  0  0  0  0  0  0  0  0
    9.2357  -15.2689   20.4988 C   0  0  0  0  0  0  0  0  0  0  0  0
    9.1172  -16.3727   21.5153 C   0  0  2  0  0  0  0  0  0  0  0  0
    7.7522  -16.9205   21.5603 N   0  0  0  0  0  0  0  0  0  0  0  0
    9.4041  -15.7312   22.8486 C   0  0  0  0  0  0  0  0  0  0  0  0
    9.0163  -14.5269   22.9543 O   0  0  0  0  0  0  0  0  0  0  0  0
    6.6942  -12.2110   17.2099 C   0  0  0  0  0  0  0  0  0  0  0  0
    6.7410  -12.7673   26.2551 S   0  0  0  0  0  0  0  0  0  0  0  0
    8.2105  -12.9217   27.2358 C   0  0  0  0  0  0  0  0  0  0  0  0
    9.0930  -14.4487   27.0125 C   0  0  0  0  0  0  0  0  0  0  0  0
    9.0712  -15.0030   25.6284 C   0  0  1  0  0  0  0  0  0  0  0  0
   10.3265  -15.6314   25.1283 N   0  0  0  0  0  0  0  0  0  0  0  0
   10.0437  -16.3974   23.8900 C   0  0  0  0  0  0  0  0  0  0  0  0
   10.9154  -16.5728   26.1226 O   0  0  0  0  0  0  0  0  0  0  0  0
   11.3323  -16.0807   27.2192 O   0  0  0  0  0  0  0  0  0  0  0  0
  2  1  1  6
  2  3  1  0
  2  9  1  0
  4  8  1  0
  4  3  1  0
  5  4  2  0
  6  5  1  0
  6  7  1  0
  7  8  2  0
  9 10  2  0
 12 14  1  0
 12 11  1  0
 13 12  2  0
 15 14  1  0
 15 16  1  0
 17 16  1  0
 18 17  1  6
 19 18  1  0
 19  9  1  0
 20 18  1  0
 20 21  2  0
 22 23  1  0
 23 24  1  0
 24 25  1  0
 26 25  1  6
 26 27  1  0
 26 28  1  0
 27 20  1  0
 28 29  2  0
 28 30  1  0
M  END
$$$$
