FGN.pdb
     RDKit          3D

 24 24  0  0  1  0  0  0  0  0999 V2000
   29.4548  -20.6939   -8.8249 N   0  0  0  0  0  0  0  0  0  0  0  0
   28.0355  -20.9875   -8.8629 C   0  0  1  0  0  0  0  0  0  0  0  0
   27.3462  -20.1003   -7.8327 C   0  0  0  0  0  0  0  0  0  0  0  0
   28.1047  -20.0403   -6.5720 C   0  0  0  0  0  0  0  0  0  0  0  0
   29.2114  -20.8555   -6.3121 C   0  0  0  0  0  0  0  0  0  0  0  0
   29.8681  -20.7470   -5.1169 C   0  0  0  0  0  0  0  0  0  0  0  0
   29.4411  -19.8441   -4.1835 C   0  0  0  0  0  0  0  0  0  0  0  0
   28.3484  -19.0262   -4.4175 C   0  0  0  0  0  0  0  0  0  0  0  0
   27.6817  -19.1297   -5.6191 C   0  0  0  0  0  0  0  0  0  0  0  0
   27.4581  -20.6707  -10.2027 C   0  0  0  0  0  0  0  0  0  0  0  0
   28.1375  -20.0365  -11.0483 O   0  0  0  0  0  0  0  0  0  0  0  0
   26.1355  -21.0732  -10.5599 N   0  0  0  0  0  0  0  0  0  0  0  0
   25.6833  -20.7786  -11.8774 C   0  0  0  0  0  0  0  0  0  0  0  0
   24.3160  -21.1687  -12.2016 C   0  0  0  0  0  0  0  0  0  0  0  0
   24.0989  -22.3438  -12.6626 O   0  0  0  0  0  0  0  0  0  0  0  0
   18.7667  -21.1612  -10.8662 N   0  0  0  0  0  0  0  0  0  0  0  0
   19.4387  -20.4460  -11.9112 C   0  0  0  0  0  0  0  0  0  0  0  0
   18.7966  -20.2759  -12.9670 O   0  0  0  0  0  0  0  0  0  0  0  0
   20.8126  -19.9835  -11.6416 C   0  0  0  0  0  0  0  0  0  0  0  0
   21.8063  -20.9129  -12.2525 C   0  0  2  0  0  0  0  0  0  0  0  0
   23.1647  -20.3619  -12.0570 N   0  0  0  0  0  0  0  0  0  0  0  0
   21.5709  -21.0829  -13.6944 C   0  0  0  0  0  0  0  0  0  0  0  0
   20.9192  -22.2073  -14.1540 O   0  0  0  0  0  0  0  0  0  0  0  0
   21.9519  -20.2245  -14.5134 O   0  0  0  0  0  0  0  0  0  0  0  0
  2  1  1  6
  3  2  1  0
  4  9  2  0
  4  3  1  0
  5  4  1  0
  6  7  1  0
  6  5  2  0
  7  8  2  0
  8  9  1  0
 10  2  1  0
 10 12  1  0
 11 10  2  0
 13 12  1  0
 14 13  1  0
 15 14  2  0
 17 16  1  0
 17 18  2  0
 20 19  1  6
 19 17  1  0
 20 21  1  0
 21 14  1  0
 22 23  1  0
 22 20  1  0
 24 22  2  0
M  END
$$$$
