FGN.pdb
     RDKit          3D

 24 24  0  0  1  0  0  0  0  0999 V2000
   25.9242  -17.4297  -18.0836 N   0  0  0  0  0  0  0  0  0  0  0  0
   26.0720  -17.8615  -16.7075 C   0  0  1  0  0  0  0  0  0  0  0  0
   26.8021  -16.7605  -15.9472 C   0  0  0  0  0  0  0  0  0  0  0  0
   28.1847  -16.5937  -16.4257 C   0  0  0  0  0  0  0  0  0  0  0  0
   29.1681  -17.5752  -16.2626 C   0  0  0  0  0  0  0  0  0  0  0  0
   30.4339  -17.3515  -16.7311 C   0  0  0  0  0  0  0  0  0  0  0  0
   30.7318  -16.1724  -17.3553 C   0  0  0  0  0  0  0  0  0  0  0  0
   29.7756  -15.1858  -17.5286 C   0  0  0  0  0  0  0  0  0  0  0  0
   28.4983  -15.4038  -17.0594 C   0  0  0  0  0  0  0  0  0  0  0  0
   24.7406  -18.0612  -16.0622 C   0  0  0  0  0  0  0  0  0  0  0  0
   23.7496  -17.3869  -16.4390 O   0  0  0  0  0  0  0  0  0  0  0  0
   24.5546  -19.0111  -15.0124 N   0  0  0  0  0  0  0  0  0  0  0  0
   23.2548  -19.1278  -14.4433 C   0  0  0  0  0  0  0  0  0  0  0  0
   23.0725  -20.1688  -13.4384 C   0  0  0  0  0  0  0  0  0  0  0  0
   23.1328  -21.3964  -13.7989 O   0  0  0  0  0  0  0  0  0  0  0  0
   25.5924  -19.7650   -9.7329 N   0  0  0  0  0  0  0  0  0  0  0  0
   24.8193  -20.8932  -10.1630 C   0  0  0  0  0  0  0  0  0  0  0  0
   25.4450  -21.8057  -10.7387 O   0  0  0  0  0  0  0  0  0  0  0  0
   23.3711  -20.8680   -9.8866 C   0  0  0  0  0  0  0  0  0  0  0  0
   22.5958  -21.0950  -11.1402 C   0  0  2  0  0  0  0  0  0  0  0  0
   22.8278  -19.9620  -12.0619 N   0  0  0  0  0  0  0  0  0  0  0  0
   21.1531  -21.1949  -10.8720 C   0  0  0  0  0  0  0  0  0  0  0  0
   20.2928  -20.2521  -11.3927 O   0  0  0  0  0  0  0  0  0  0  0  0
   20.6909  -22.1214  -10.1786 O   0  0  0  0  0  0  0  0  0  0  0  0
  2  1  1  6
  3  2  1  0
  4  9  2  0
  4  3  1  0
  5  4  1  0
  6  7  1  0
  6  5  2  0
  7  8  2  0
  8  9  1  0
 10  2  1  0
 10 12  1  0
 11 10  2  0
 13 12  1  0
 14 13  1  0
 15 14  2  0
 17 16  1  0
 17 18  2  0
 20 19  1  1
 19 17  1  0
 20 21  1  0
 21 14  1  0
 22 23  1  0
 22 20  1  0
 24 22  2  0
M  END
$$$$
