FGN.pdb
     RDKit          3D

 24 24  0  0  1  0  0  0  0  0999 V2000
   27.8057  -22.0095  -11.6686 N   0  0  0  0  0  0  0  0  0  0  0  0
   27.1487  -21.2625  -10.6139 C   0  0  1  0  0  0  0  0  0  0  0  0
   28.1157  -20.1888  -10.1285 C   0  0  0  0  0  0  0  0  0  0  0  0
   29.3898  -20.7699   -9.6731 C   0  0  0  0  0  0  0  0  0  0  0  0
   30.3975  -21.1752  -10.5547 C   0  0  0  0  0  0  0  0  0  0  0  0
   31.5562  -21.7092  -10.0610 C   0  0  0  0  0  0  0  0  0  0  0  0
   31.7242  -21.8443   -8.7110 C   0  0  0  0  0  0  0  0  0  0  0  0
   30.7414  -21.4504   -7.8185 C   0  0  0  0  0  0  0  0  0  0  0  0
   29.5714  -20.9116   -8.3082 C   0  0  0  0  0  0  0  0  0  0  0  0
   25.9223  -20.5805  -11.1237 C   0  0  0  0  0  0  0  0  0  0  0  0
   25.2690  -19.8135  -10.3730 O   0  0  0  0  0  0  0  0  0  0  0  0
   25.4606  -20.7756  -12.4608 N   0  0  0  0  0  0  0  0  0  0  0  0
   24.5039  -19.8552  -12.9753 C   0  0  0  0  0  0  0  0  0  0  0  0
   23.1692  -20.3797  -13.2403 C   0  0  0  0  0  0  0  0  0  0  0  0
   23.0519  -21.5528  -13.7409 O   0  0  0  0  0  0  0  0  0  0  0  0
   18.6810  -19.4077  -15.0688 N   0  0  0  0  0  0  0  0  0  0  0  0
   19.6848  -20.1869  -15.7325 C   0  0  0  0  0  0  0  0  0  0  0  0
   19.4987  -20.4121  -16.9451 O   0  0  0  0  0  0  0  0  0  0  0  0
   20.8316  -20.6441  -14.9263 C   0  0  0  0  0  0  0  0  0  0  0  0
   20.6634  -20.2385  -13.5010 C   0  0  2  0  0  0  0  0  0  0  0  0
   21.9490  -19.7101  -12.9957 N   0  0  0  0  0  0  0  0  0  0  0  0
   20.2595  -21.3756  -12.6602 C   0  0  0  0  0  0  0  0  0  0  0  0
   21.1690  -22.3702  -12.3705 O   0  0  0  0  0  0  0  0  0  0  0  0
   19.1037  -21.4575  -12.2018 O   0  0  0  0  0  0  0  0  0  0  0  0
  2  1  1  6
  3  2  1  0
  4  9  2  0
  4  3  1  0
  5  4  1  0
  6  7  1  0
  6  5  2  0
  7  8  2  0
  8  9  1  0
 10  2  1  0
 10 12  1  0
 11 10  2  0
 13 12  1  0
 14 13  1  0
 15 14  2  0
 17 16  1  0
 17 18  2  0
 20 19  1  6
 19 17  1  0
 20 21  1  0
 21 14  1  0
 22 23  1  0
 22 20  1  0
 24 22  2  0
M  END
$$$$
