FGN.pdb
     RDKit          3D

 24 24  0  0  1  0  0  0  0  0999 V2000
   25.3876  -20.8935   -7.6368 N   0  0  0  0  0  0  0  0  0  0  0  0
   26.3588  -20.3225   -8.5493 C   0  0  1  0  0  0  0  0  0  0  0  0
   27.7417  -20.7973   -8.1186 C   0  0  0  0  0  0  0  0  0  0  0  0
   28.1175  -20.2548   -6.8022 C   0  0  0  0  0  0  0  0  0  0  0  0
   27.9051  -18.9198   -6.4425 C   0  0  0  0  0  0  0  0  0  0  0  0
   28.2814  -18.4836   -5.2016 C   0  0  0  0  0  0  0  0  0  0  0  0
   28.8622  -19.3523   -4.3202 C   0  0  0  0  0  0  0  0  0  0  0  0
   29.0828  -20.6783   -4.6532 C   0  0  0  0  0  0  0  0  0  0  0  0
   28.7065  -21.1251   -5.9013 C   0  0  0  0  0  0  0  0  0  0  0  0
   26.1245  -20.7949   -9.9461 C   0  0  0  0  0  0  0  0  0  0  0  0
   25.3248  -21.7386  -10.1670 O   0  0  0  0  0  0  0  0  0  0  0  0
   26.7918  -20.1974  -11.0582 N   0  0  0  0  0  0  0  0  0  0  0  0
   26.0271  -19.3659  -11.9247 C   0  0  0  0  0  0  0  0  0  0  0  0
   24.9481  -20.0102  -12.6646 C   0  0  0  0  0  0  0  0  0  0  0  0
   25.2410  -20.8898  -13.5483 O   0  0  0  0  0  0  0  0  0  0  0  0
   20.5461  -23.1104  -12.6719 N   0  0  0  0  0  0  0  0  0  0  0  0
   20.3825  -21.6944  -12.5188 C   0  0  0  0  0  0  0  0  0  0  0  0
   19.2807  -21.2238  -12.8657 O   0  0  0  0  0  0  0  0  0  0  0  0
   21.5217  -20.9353  -11.9709 C   0  0  0  0  0  0  0  0  0  0  0  0
   22.5472  -20.6968  -13.0271 C   0  0  2  0  0  0  0  0  0  0  0  0
   23.5662  -19.7599  -12.5063 N   0  0  0  0  0  0  0  0  0  0  0  0
   21.9493  -20.1151  -14.2385 C   0  0  0  0  0  0  0  0  0  0  0  0
   22.1568  -18.7846  -14.5335 O   0  0  0  0  0  0  0  0  0  0  0  0
   21.2545  -20.8064  -15.0079 O   0  0  0  0  0  0  0  0  0  0  0  0
  2  1  1  1
  3  2  1  0
  4  9  2  0
  4  3  1  0
  5  4  1  0
  6  7  1  0
  6  5  2  0
  7  8  2  0
  8  9  1  0
 10  2  1  0
 10 12  1  0
 11 10  2  0
 13 12  1  0
 14 13  1  0
 15 14  2  0
 17 16  1  0
 17 18  2  0
 20 19  1  1
 19 17  1  0
 20 21  1  0
 21 14  1  0
 22 23  1  0
 22 20  1  0
 24 22  2  0
M  END
$$$$
