FGN.pdb
     RDKit          3D

 24 24  0  0  1  0  0  0  0  0999 V2000
   22.4976  -17.7919  -16.4690 N   0  0  0  0  0  0  0  0  0  0  0  0
   22.5898  -19.1760  -16.0474 C   0  0  1  0  0  0  0  0  0  0  0  0
   23.9207  -19.7290  -16.5437 C   0  0  0  0  0  0  0  0  0  0  0  0
   23.9334  -19.8834  -18.0081 C   0  0  0  0  0  0  0  0  0  0  0  0
   24.6114  -19.0036  -18.8584 C   0  0  0  0  0  0  0  0  0  0  0  0
   24.5788  -19.2072  -20.2109 C   0  0  0  0  0  0  0  0  0  0  0  0
   23.8852  -20.2673  -20.7246 C   0  0  0  0  0  0  0  0  0  0  0  0
   23.2063  -21.1518  -19.9033 C   0  0  0  0  0  0  0  0  0  0  0  0
   23.2345  -20.9533  -18.5399 C   0  0  0  0  0  0  0  0  0  0  0  0
   22.5728  -19.2852  -14.5585 C   0  0  0  0  0  0  0  0  0  0  0  0
   23.3262  -18.5577  -13.8641 O   0  0  0  0  0  0  0  0  0  0  0  0
   21.7122  -20.2058  -13.8870 N   0  0  0  0  0  0  0  0  0  0  0  0
   21.6718  -20.1626  -12.4645 C   0  0  0  0  0  0  0  0  0  0  0  0
   20.7034  -21.0357  -11.8114 C   0  0  0  0  0  0  0  0  0  0  0  0
   19.9043  -21.7269  -12.5354 O   0  0  0  0  0  0  0  0  0  0  0  0
   19.1846  -24.4590   -7.5480 N   0  0  0  0  0  0  0  0  0  0  0  0
   18.7168  -23.1259   -7.7917 C   0  0  0  0  0  0  0  0  0  0  0  0
   17.5311  -22.8906   -7.4843 O   0  0  0  0  0  0  0  0  0  0  0  0
   19.6729  -22.1681   -8.3773 C   0  0  0  0  0  0  0  0  0  0  0  0
   19.5455  -22.1447   -9.8630 C   0  0  2  0  0  0  0  0  0  0  0  0
   20.5460  -21.2073  -10.4175 N   0  0  0  0  0  0  0  0  0  0  0  0
   18.2062  -21.7054  -10.2831 C   0  0  0  0  0  0  0  0  0  0  0  0
   17.2891  -22.6337  -10.7275 O   0  0  0  0  0  0  0  0  0  0  0  0
   17.8828  -20.5026  -10.2448 O   0  0  0  0  0  0  0  0  0  0  0  0
  2  1  1  1
  3  2  1  0
  4  9  2  0
  4  3  1  0
  5  4  1  0
  6  7  1  0
  6  5  2  0
  7  8  2  0
  8  9  1  0
 10  2  1  0
 10 12  1  0
 11 10  2  0
 13 12  1  0
 14 13  1  0
 15 14  2  0
 17 16  1  0
 17 18  2  0
 20 19  1  1
 19 17  1  0
 20 21  1  0
 21 14  1  0
 22 23  1  0
 22 20  1  0
 24 22  2  0
M  END
$$$$
