FGN.pdb
     RDKit          3D

 24 24  0  0  1  0  0  0  0  0999 V2000
   20.3375   -9.7958  -17.6024 N   0  0  0  0  0  0  0  0  0  0  0  0
   21.7074   -9.9574  -18.0488 C   0  0  1  0  0  0  0  0  0  0  0  0
   21.6753  -10.4181  -19.5014 C   0  0  0  0  0  0  0  0  0  0  0  0
   20.9516  -11.6916  -19.6524 C   0  0  0  0  0  0  0  0  0  0  0  0
   21.5578  -12.9371  -19.4573 C   0  0  0  0  0  0  0  0  0  0  0  0
   20.8244  -14.0809  -19.6166 C   0  0  0  0  0  0  0  0  0  0  0  0
   19.5048  -14.0021  -19.9651 C   0  0  0  0  0  0  0  0  0  0  0  0
   18.8825  -12.7810  -20.1636 C   0  0  0  0  0  0  0  0  0  0  0  0
   19.6147  -11.6244  -20.0050 C   0  0  0  0  0  0  0  0  0  0  0  0
   22.4458   -8.6610  -17.9934 C   0  0  0  0  0  0  0  0  0  0  0  0
   21.8948   -7.6039  -18.3906 O   0  0  0  0  0  0  0  0  0  0  0  0
   23.7814   -8.5831  -17.4944 N   0  0  0  0  0  0  0  0  0  0  0  0
   24.4331   -7.3179  -17.5321 C   0  0  0  0  0  0  0  0  0  0  0  0
   23.9376   -6.2999  -16.6128 C   0  0  0  0  0  0  0  0  0  0  0  0
   24.7265   -5.3609  -16.2434 O   0  0  0  0  0  0  0  0  0  0  0  0
   21.2013   -3.2034  -13.6520 N   0  0  0  0  0  0  0  0  0  0  0  0
   20.3256   -3.6477  -14.6965 C   0  0  0  0  0  0  0  0  0  0  0  0
   19.2069   -3.0990  -14.7517 O   0  0  0  0  0  0  0  0  0  0  0  0
   20.8258   -4.7016  -15.5984 C   0  0  0  0  0  0  0  0  0  0  0  0
   22.2104   -5.1028  -15.2162 C   0  0  2  0  0  0  0  0  0  0  0  0
   22.6358   -6.2355  -16.0667 N   0  0  0  0  0  0  0  0  0  0  0  0
   22.2821   -5.5198  -13.8075 C   0  0  0  0  0  0  0  0  0  0  0  0
   22.3739   -6.8589  -13.4936 O   0  0  0  0  0  0  0  0  0  0  0  0
   22.2614   -4.6804  -12.8869 O   0  0  0  0  0  0  0  0  0  0  0  0
  2  1  1  6
  3  2  1  0
  4  9  2  0
  4  3  1  0
  5  4  1  0
  6  7  1  0
  6  5  2  0
  7  8  2  0
  8  9  1  0
 10  2  1  0
 10 12  1  0
 11 10  2  0
 13 12  1  0
 14 13  1  0
 15 14  2  0
 17 16  1  0
 17 18  2  0
 20 19  1  6
 19 17  1  0
 20 21  1  0
 21 14  1  0
 22 23  1  0
 22 20  1  0
 24 22  2  0
M  END
$$$$
