FGN.pdb
     RDKit          3D

 24 24  0  0  1  0  0  0  0  0999 V2000
   25.0314  -20.6014   -7.9447 N   0  0  0  0  0  0  0  0  0  0  0  0
   26.1832  -20.1712   -8.7129 C   0  0  1  0  0  0  0  0  0  0  0  0
   27.4328  -20.7027   -8.0205 C   0  0  0  0  0  0  0  0  0  0  0  0
   27.7484  -19.9357   -6.8037 C   0  0  0  0  0  0  0  0  0  0  0  0
   28.3221  -18.6603   -6.8376 C   0  0  0  0  0  0  0  0  0  0  0  0
   28.5903  -18.0059   -5.6666 C   0  0  0  0  0  0  0  0  0  0  0  0
   28.2971  -18.5997   -4.4706 C   0  0  0  0  0  0  0  0  0  0  0  0
   27.7291  -19.8612   -4.4113 C   0  0  0  0  0  0  0  0  0  0  0  0
   27.4560  -20.5268   -5.5867 C   0  0  0  0  0  0  0  0  0  0  0  0
   26.1475  -20.7356  -10.0946 C   0  0  0  0  0  0  0  0  0  0  0  0
   25.9068  -21.9562  -10.2712 O   0  0  0  0  0  0  0  0  0  0  0  0
   26.3819  -19.9180  -11.2415 N   0  0  0  0  0  0  0  0  0  0  0  0
   26.3852  -20.5479  -12.5183 C   0  0  0  0  0  0  0  0  0  0  0  0
   25.0844  -20.8911  -13.0811 C   0  0  0  0  0  0  0  0  0  0  0  0
   24.9845  -21.0765  -14.3445 O   0  0  0  0  0  0  0  0  0  0  0  0
   19.3024  -22.3020  -11.9272 N   0  0  0  0  0  0  0  0  0  0  0  0
   20.4544  -22.4651  -12.7649 C   0  0  0  0  0  0  0  0  0  0  0  0
   20.2368  -22.8034  -13.9455 O   0  0  0  0  0  0  0  0  0  0  0  0
   21.7751  -22.2197  -12.1569 C   0  0  0  0  0  0  0  0  0  0  0  0
   22.6033  -21.3486  -13.0398 C   0  0  2  0  0  0  0  0  0  0  0  0
   23.8803  -21.0466  -12.3578 N   0  0  0  0  0  0  0  0  0  0  0  0
   21.9205  -20.0813  -13.3418 C   0  0  0  0  0  0  0  0  0  0  0  0
   21.8293  -19.1048  -12.3732 O   0  0  0  0  0  0  0  0  0  0  0  0
   21.4197  -19.8725  -14.4636 O   0  0  0  0  0  0  0  0  0  0  0  0
  2  1  1  1
  3  2  1  0
  4  9  2  0
  4  3  1  0
  5  4  1  0
  6  7  1  0
  6  5  2  0
  7  8  2  0
  8  9  1  0
 10  2  1  0
 10 12  1  0
 11 10  2  0
 13 12  1  0
 14 13  1  0
 15 14  2  0
 17 16  1  0
 17 18  2  0
 20 19  1  1
 19 17  1  0
 20 21  1  0
 21 14  1  0
 22 23  1  0
 22 20  1  0
 24 22  2  0
M  END
$$$$
