FGN.pdb
     RDKit          3D

 24 24  0  0  1  0  0  0  0  0999 V2000
   15.9855  -14.5583    6.1693 N   0  0  0  0  0  0  0  0  0  0  0  0
   16.6100  -15.7183    5.5640 C   0  0  1  0  0  0  0  0  0  0  0  0
   18.1133  -15.4706    5.5187 C   0  0  0  0  0  0  0  0  0  0  0  0
   18.4597  -14.3989    4.5701 C   0  0  0  0  0  0  0  0  0  0  0  0
   18.6151  -13.0636    4.9568 C   0  0  0  0  0  0  0  0  0  0  0  0
   18.9361  -12.1192    4.0204 C   0  0  0  0  0  0  0  0  0  0  0  0
   19.1034  -12.4837    2.7135 C   0  0  0  0  0  0  0  0  0  0  0  0
   18.9549  -13.7990    2.3064 C   0  0  0  0  0  0  0  0  0  0  0  0
   18.6316  -14.7559    3.2438 C   0  0  0  0  0  0  0  0  0  0  0  0
   16.3701  -16.9442    6.3817 C   0  0  0  0  0  0  0  0  0  0  0  0
   15.8259  -16.8529    7.5105 O   0  0  0  0  0  0  0  0  0  0  0  0
   16.7457  -18.2397    5.9130 N   0  0  0  0  0  0  0  0  0  0  0  0
   16.4902  -19.3541    6.7614 C   0  0  0  0  0  0  0  0  0  0  0  0
   16.7385  -20.6757    6.1969 C   0  0  0  0  0  0  0  0  0  0  0  0
   17.0246  -20.7748    4.9524 O   0  0  0  0  0  0  0  0  0  0  0  0
   20.3239  -22.0559    5.3022 N   0  0  0  0  0  0  0  0  0  0  0  0
   19.5187  -23.2285    5.4812 C   0  0  0  0  0  0  0  0  0  0  0  0
   19.6115  -24.1038    4.5974 O   0  0  0  0  0  0  0  0  0  0  0  0
   18.6650  -23.2882    6.6819 C   0  0  0  0  0  0  0  0  0  0  0  0
   17.2278  -23.1485    6.3089 C   0  0  2  0  0  0  0  0  0  0  0  0
   16.6960  -21.9012    6.8994 N   0  0  0  0  0  0  0  0  0  0  0  0
   16.4293  -24.2804    6.8032 C   0  0  0  0  0  0  0  0  0  0  0  0
   15.4589  -24.0683    7.7590 O   0  0  0  0  0  0  0  0  0  0  0  0
   16.6144  -25.4347    6.3717 O   0  0  0  0  0  0  0  0  0  0  0  0
  2  1  1  1
  3  2  1  0
  4  9  2  0
  4  3  1  0
  5  4  1  0
  6  7  1  0
  6  5  2  0
  7  8  2  0
  8  9  1  0
 10  2  1  0
 10 12  1  0
 11 10  2  0
 13 12  1  0
 14 13  1  0
 15 14  2  0
 17 16  1  0
 17 18  2  0
 20 19  1  1
 19 17  1  0
 20 21  1  0
 21 14  1  0
 22 23  1  0
 22 20  1  0
 24 22  2  0
M  END
$$$$
