FGN.pdb
     RDKit          3D

 24 24  0  0  1  0  0  0  0  0999 V2000
   27.1056  -21.9156   -9.4849 N   0  0  0  0  0  0  0  0  0  0  0  0
   26.4522  -20.6213   -9.4788 C   0  0  1  0  0  0  0  0  0  0  0  0
   27.4694  -19.5855   -9.0142 C   0  0  0  0  0  0  0  0  0  0  0  0
   27.6281  -19.5974   -7.5503 C   0  0  0  0  0  0  0  0  0  0  0  0
   26.7147  -20.2195   -6.6926 C   0  0  0  0  0  0  0  0  0  0  0  0
   26.9245  -20.1895   -5.3411 C   0  0  0  0  0  0  0  0  0  0  0  0
   28.0236  -19.5530   -4.8353 C   0  0  0  0  0  0  0  0  0  0  0  0
   28.9418  -18.9301   -5.6639 C   0  0  0  0  0  0  0  0  0  0  0  0
   28.7373  -18.9560   -7.0264 C   0  0  0  0  0  0  0  0  0  0  0  0
   26.0024  -20.2413  -10.8507 C   0  0  0  0  0  0  0  0  0  0  0  0
   26.5055  -20.8008  -11.8570 O   0  0  0  0  0  0  0  0  0  0  0  0
   25.0008  -19.2451  -11.0589 N   0  0  0  0  0  0  0  0  0  0  0  0
   24.5871  -18.9868  -12.3965 C   0  0  0  0  0  0  0  0  0  0  0  0
   23.4523  -19.7583  -12.8902 C   0  0  0  0  0  0  0  0  0  0  0  0
   22.9657  -19.4785  -14.0415 O   0  0  0  0  0  0  0  0  0  0  0  0
   19.5872  -22.9734  -13.6547 N   0  0  0  0  0  0  0  0  0  0  0  0
   20.6073  -23.7287  -12.9881 C   0  0  0  0  0  0  0  0  0  0  0  0
   20.4349  -24.9627  -12.9320 O   0  0  0  0  0  0  0  0  0  0  0  0
   21.7530  -22.9820  -12.4367 C   0  0  0  0  0  0  0  0  0  0  0  0
   21.6688  -21.5417  -12.8145 C   0  0  2  0  0  0  0  0  0  0  0  0
   22.8091  -20.8182  -12.2117 N   0  0  0  0  0  0  0  0  0  0  0  0
   20.4191  -20.9306  -12.3371 C   0  0  0  0  0  0  0  0  0  0  0  0
   19.2325  -21.2045  -12.9830 O   0  0  0  0  0  0  0  0  0  0  0  0
   20.4125  -20.1652  -11.3538 O   0  0  0  0  0  0  0  0  0  0  0  0
  2  1  1  6
  3  2  1  0
  4  9  2  0
  4  3  1  0
  5  4  1  0
  6  7  1  0
  6  5  2  0
  7  8  2  0
  8  9  1  0
 10  2  1  0
 10 12  1  0
 11 10  2  0
 13 12  1  0
 14 13  1  0
 15 14  2  0
 17 16  1  0
 17 18  2  0
 20 19  1  1
 19 17  1  0
 20 21  1  0
 21 14  1  0
 22 23  1  0
 22 20  1  0
 24 22  2  0
M  END
$$$$
