FGN.pdb
     RDKit          3D

 24 24  0  0  1  0  0  0  0  0999 V2000
   27.5981   -9.5968  -20.3633 N   0  0  0  0  0  0  0  0  0  0  0  0
   26.7536   -9.0947  -19.2972 C   0  0  1  0  0  0  0  0  0  0  0  0
   27.4857   -7.9391  -18.6248 C   0  0  0  0  0  0  0  0  0  0  0  0
   28.8382   -8.3298  -18.1928 C   0  0  0  0  0  0  0  0  0  0  0  0
   29.0965   -9.5009  -17.4727 C   0  0  0  0  0  0  0  0  0  0  0  0
   30.3789   -9.8003  -17.1022 C   0  0  0  0  0  0  0  0  0  0  0  0
   31.4005   -8.9557  -17.4366 C   0  0  0  0  0  0  0  0  0  0  0  0
   31.1699   -7.7908  -18.1490 C   0  0  0  0  0  0  0  0  0  0  0  0
   29.8807   -7.4823  -18.5257 C   0  0  0  0  0  0  0  0  0  0  0  0
   25.4638   -8.5706  -19.8365 C   0  0  0  0  0  0  0  0  0  0  0  0
   24.6151   -8.0641  -19.0606 O   0  0  0  0  0  0  0  0  0  0  0  0
   25.1593   -8.6273  -21.2304 N   0  0  0  0  0  0  0  0  0  0  0  0
   23.9034   -8.1112  -21.6587 C   0  0  0  0  0  0  0  0  0  0  0  0
   22.7456   -8.9804  -21.4834 C   0  0  0  0  0  0  0  0  0  0  0  0
   21.6486   -8.6783  -22.0716 O   0  0  0  0  0  0  0  0  0  0  0  0
   19.4038  -12.6531  -20.6092 N   0  0  0  0  0  0  0  0  0  0  0  0
   20.6829  -13.2915  -20.5017 C   0  0  0  0  0  0  0  0  0  0  0  0
   20.6746  -14.5352  -20.4074 O   0  0  0  0  0  0  0  0  0  0  0  0
   21.8763  -12.4255  -20.5127 C   0  0  0  0  0  0  0  0  0  0  0  0
   21.4812  -10.9927  -20.6357 C   0  0  2  0  0  0  0  0  0  0  0  0
   22.7019  -10.1609  -20.7077 N   0  0  0  0  0  0  0  0  0  0  0  0
   20.6799  -10.5528  -19.4834 C   0  0  0  0  0  0  0  0  0  0  0  0
   21.1466   -9.5421  -18.6706 O   0  0  0  0  0  0  0  0  0  0  0  0
   19.5804  -11.0798  -19.2264 O   0  0  0  0  0  0  0  0  0  0  0  0
  2  1  1  6
  3  2  1  0
  4  9  2  0
  4  3  1  0
  5  4  1  0
  6  7  1  0
  6  5  2  0
  7  8  2  0
  8  9  1  0
 10  2  1  0
 10 12  1  0
 11 10  2  0
 13 12  1  0
 14 13  1  0
 15 14  2  0
 17 16  1  0
 17 18  2  0
 20 19  1  1
 19 17  1  0
 20 21  1  0
 21 14  1  0
 22 23  1  0
 22 20  1  0
 24 22  2  0
M  END
$$$$
