FGN.pdb
     RDKit          3D

 24 24  0  0  1  0  0  0  0  0999 V2000
   28.2514  -21.3486   -8.5634 N   0  0  0  0  0  0  0  0  0  0  0  0
   26.9230  -20.7801   -8.4442 C   0  0  1  0  0  0  0  0  0  0  0  0
   27.0425  -19.4668   -7.6797 C   0  0  0  0  0  0  0  0  0  0  0  0
   27.7217  -19.6503   -6.3861 C   0  0  0  0  0  0  0  0  0  0  0  0
   27.1786  -20.4096   -5.3444 C   0  0  0  0  0  0  0  0  0  0  0  0
   27.8649  -20.5358   -4.1677 C   0  0  0  0  0  0  0  0  0  0  0  0
   29.0761  -19.9206   -4.0150 C   0  0  0  0  0  0  0  0  0  0  0  0
   29.6344  -19.1638   -5.0316 C   0  0  0  0  0  0  0  0  0  0  0  0
   28.9490  -19.0320   -6.2199 C   0  0  0  0  0  0  0  0  0  0  0  0
   26.3459  -20.4794   -9.7879 C   0  0  0  0  0  0  0  0  0  0  0  0
   25.2725  -19.8331   -9.8830 O   0  0  0  0  0  0  0  0  0  0  0  0
   26.9865  -20.9102  -10.9891 N   0  0  0  0  0  0  0  0  0  0  0  0
   26.4066  -20.5197  -12.2294 C   0  0  0  0  0  0  0  0  0  0  0  0
   25.1789  -21.2028  -12.6206 C   0  0  0  0  0  0  0  0  0  0  0  0
   25.1161  -22.4773  -12.5106 O   0  0  0  0  0  0  0  0  0  0  0  0
   21.1471  -18.6832  -11.8277 N   0  0  0  0  0  0  0  0  0  0  0  0
   21.3100  -20.0854  -12.0784 C   0  0  0  0  0  0  0  0  0  0  0  0
   21.1763  -20.8424  -11.0962 O   0  0  0  0  0  0  0  0  0  0  0  0
   21.6174  -20.4959  -13.4609 C   0  0  0  0  0  0  0  0  0  0  0  0
   22.8164  -21.3823  -13.4886 C   0  0  2  0  0  0  0  0  0  0  0  0
   24.0105  -20.5887  -13.1256 N   0  0  0  0  0  0  0  0  0  0  0  0
   23.0267  -21.9645  -14.8228 C   0  0  0  0  0  0  0  0  0  0  0  0
   22.3739  -23.1268  -15.1734 O   0  0  0  0  0  0  0  0  0  0  0  0
   23.7885  -21.4235  -15.6473 O   0  0  0  0  0  0  0  0  0  0  0  0
  2  1  1  6
  3  2  1  0
  4  9  2  0
  4  3  1  0
  5  4  1  0
  6  7  1  0
  6  5  2  0
  7  8  2  0
  8  9  1  0
 10  2  1  0
 10 12  1  0
 11 10  2  0
 13 12  1  0
 14 13  1  0
 15 14  2  0
 17 16  1  0
 17 18  2  0
 20 19  1  6
 19 17  1  0
 20 21  1  0
 21 14  1  0
 22 23  1  0
 22 20  1  0
 24 22  2  0
M  END
$$$$
