FGN.pdb
     RDKit          3D

 24 24  0  0  1  0  0  0  0  0999 V2000
   28.3097  -21.4242   -8.4174 N   0  0  0  0  0  0  0  0  0  0  0  0
   27.0036  -20.7950   -8.4114 C   0  0  1  0  0  0  0  0  0  0  0  0
   27.1375  -19.4448   -7.7168 C   0  0  0  0  0  0  0  0  0  0  0  0
   27.7213  -19.5805   -6.3717 C   0  0  0  0  0  0  0  0  0  0  0  0
   27.2649  -20.5157   -5.4369 C   0  0  0  0  0  0  0  0  0  0  0  0
   27.8537  -20.5851   -4.2039 C   0  0  0  0  0  0  0  0  0  0  0  0
   28.8834  -19.7420   -3.8912 C   0  0  0  0  0  0  0  0  0  0  0  0
   29.3527  -18.8080   -4.7997 C   0  0  0  0  0  0  0  0  0  0  0  0
   28.7647  -18.7321   -6.0437 C   0  0  0  0  0  0  0  0  0  0  0  0
   26.5197  -20.5507   -9.8025 C   0  0  0  0  0  0  0  0  0  0  0  0
   25.4816  -19.8705   -9.9989 O   0  0  0  0  0  0  0  0  0  0  0  0
   27.2116  -21.0744  -10.9365 N   0  0  0  0  0  0  0  0  0  0  0  0
   26.6924  -20.7770  -12.2284 C   0  0  0  0  0  0  0  0  0  0  0  0
   25.3155  -21.1813  -12.4884 C   0  0  0  0  0  0  0  0  0  0  0  0
   24.9741  -22.3964  -12.2701 O   0  0  0  0  0  0  0  0  0  0  0  0
   22.4773  -21.2545   -9.9380 N   0  0  0  0  0  0  0  0  0  0  0  0
   21.6910  -21.2875  -11.1363 C   0  0  0  0  0  0  0  0  0  0  0  0
   20.8075  -22.1660  -11.1946 O   0  0  0  0  0  0  0  0  0  0  0  0
   21.9984  -20.2889  -12.1769 C   0  0  0  0  0  0  0  0  0  0  0  0
   22.9156  -20.8668  -13.2011 C   0  0  2  0  0  0  0  0  0  0  0  0
   24.2815  -20.3482  -12.9720 N   0  0  0  0  0  0  0  0  0  0  0  0
   22.4982  -20.5057  -14.5645 C   0  0  0  0  0  0  0  0  0  0  0  0
   22.1374  -21.4945  -15.4547 O   0  0  0  0  0  0  0  0  0  0  0  0
   22.4644  -19.3157  -14.9324 O   0  0  0  0  0  0  0  0  0  0  0  0
  2  1  1  6
  3  2  1  0
  4  9  2  0
  4  3  1  0
  5  4  1  0
  6  7  1  0
  6  5  2  0
  7  8  2  0
  8  9  1  0
 10  2  1  0
 10 12  1  0
 11 10  2  0
 13 12  1  0
 14 13  1  0
 15 14  2  0
 17 16  1  0
 17 18  2  0
 20 19  1  1
 19 17  1  0
 20 21  1  0
 21 14  1  0
 22 23  1  0
 22 20  1  0
 24 22  2  0
M  END
$$$$
