FGN.pdb
     RDKit          3D

 24 24  0  0  1  0  0  0  0  0999 V2000
   25.6619  -21.0670   -7.1846 N   0  0  0  0  0  0  0  0  0  0  0  0
   26.3603  -20.2801   -8.1820 C   0  0  1  0  0  0  0  0  0  0  0  0
   27.8570  -20.4644   -7.9599 C   0  0  0  0  0  0  0  0  0  0  0  0
   28.2912  -19.8902   -6.6753 C   0  0  0  0  0  0  0  0  0  0  0  0
   29.0345  -20.6104   -5.7342 C   0  0  0  0  0  0  0  0  0  0  0  0
   29.4024  -20.0133   -4.5596 C   0  0  0  0  0  0  0  0  0  0  0  0
   29.0429  -18.7180   -4.3109 C   0  0  0  0  0  0  0  0  0  0  0  0
   28.3074  -17.9846   -5.2268 C   0  0  0  0  0  0  0  0  0  0  0  0
   27.9331  -18.5792   -6.4123 C   0  0  0  0  0  0  0  0  0  0  0  0
   26.0381  -20.7536   -9.5607 C   0  0  0  0  0  0  0  0  0  0  0  0
   25.9308  -21.9832   -9.7963 O   0  0  0  0  0  0  0  0  0  0  0  0
   25.8441  -19.8374  -10.6386 N   0  0  0  0  0  0  0  0  0  0  0  0
   25.4065  -20.3625  -11.8876 C   0  0  0  0  0  0  0  0  0  0  0  0
   24.0202  -20.1010  -12.2568 C   0  0  0  0  0  0  0  0  0  0  0  0
   23.2017  -19.7063  -11.3541 O   0  0  0  0  0  0  0  0  0  0  0  0
   20.6105  -17.7411  -16.3848 N   0  0  0  0  0  0  0  0  0  0  0  0
   20.6453  -18.9576  -15.6270 C   0  0  0  0  0  0  0  0  0  0  0  0
   19.5416  -19.4376  -15.2998 O   0  0  0  0  0  0  0  0  0  0  0  0
   21.9705  -19.5209  -15.3092 C   0  0  0  0  0  0  0  0  0  0  0  0
   22.0857  -19.7931  -13.8474 C   0  0  2  0  0  0  0  0  0  0  0  0
   23.4629  -20.2411  -13.5480 N   0  0  0  0  0  0  0  0  0  0  0  0
   21.1468  -20.8405  -13.4177 C   0  0  0  0  0  0  0  0  0  0  0  0
   20.0408  -20.5029  -12.6674 O   0  0  0  0  0  0  0  0  0  0  0  0
   21.3333  -22.0347  -13.7209 O   0  0  0  0  0  0  0  0  0  0  0  0
  2  1  1  1
  3  2  1  0
  4  9  2  0
  4  3  1  0
  5  4  1  0
  6  7  1  0
  6  5  2  0
  7  8  2  0
  8  9  1  0
 10  2  1  0
 10 12  1  0
 11 10  2  0
 13 12  1  0
 14 13  1  0
 15 14  2  0
 17 16  1  0
 17 18  2  0
 20 19  1  6
 19 17  1  0
 20 21  1  0
 21 14  1  0
 22 23  1  0
 22 20  1  0
 24 22  2  0
M  END
$$$$
