FGN.pdb
     RDKit          3D

 24 24  0  0  1  0  0  0  0  0999 V2000
   26.9558  -34.3207   -9.9031 N   0  0  0  0  0  0  0  0  0  0  0  0
   26.0191  -33.2141   -9.9008 C   0  0  1  0  0  0  0  0  0  0  0  0
   25.6923  -32.8743  -11.3504 C   0  0  0  0  0  0  0  0  0  0  0  0
   26.7792  -32.1131  -11.9889 C   0  0  0  0  0  0  0  0  0  0  0  0
   27.9361  -32.7178  -12.4915 C   0  0  0  0  0  0  0  0  0  0  0  0
   28.9070  -31.9477  -13.0711 C   0  0  0  0  0  0  0  0  0  0  0  0
   28.7429  -30.5932  -13.1565 C   0  0  0  0  0  0  0  0  0  0  0  0
   27.6066  -29.9716  -12.6663 C   0  0  0  0  0  0  0  0  0  0  0  0
   26.6242  -30.7407  -12.0811 C   0  0  0  0  0  0  0  0  0  0  0  0
   24.7457  -33.5909   -9.2184 C   0  0  0  0  0  0  0  0  0  0  0  0
   23.7893  -32.7772   -9.1740 O   0  0  0  0  0  0  0  0  0  0  0  0
   24.5775  -34.8689   -8.6043 N   0  0  0  0  0  0  0  0  0  0  0  0
   23.3796  -35.1024   -7.8712 C   0  0  0  0  0  0  0  0  0  0  0  0
   23.3431  -34.6016   -6.5020 C   0  0  0  0  0  0  0  0  0  0  0  0
   24.4002  -34.0755   -6.0057 O   0  0  0  0  0  0  0  0  0  0  0  0
   19.7607  -33.0405   -1.7331 N   0  0  0  0  0  0  0  0  0  0  0  0
   21.0185  -33.3195   -2.3620 C   0  0  0  0  0  0  0  0  0  0  0  0
   22.0280  -33.2582   -1.6320 O   0  0  0  0  0  0  0  0  0  0  0  0
   20.9998  -33.6495   -3.7990 C   0  0  0  0  0  0  0  0  0  0  0  0
   22.3273  -34.1729   -4.2324 C   0  0  2  0  0  0  0  0  0  0  0  0
   22.2286  -34.6353   -5.6337 N   0  0  0  0  0  0  0  0  0  0  0  0
   22.7626  -35.3008   -3.3947 C   0  0  0  0  0  0  0  0  0  0  0  0
   23.5164  -35.0640   -2.2652 O   0  0  0  0  0  0  0  0  0  0  0  0
   22.4609  -36.4736   -3.6886 O   0  0  0  0  0  0  0  0  0  0  0  0
  2  1  1  6
  3  2  1  0
  4  9  2  0
  4  3  1  0
  5  4  1  0
  6  7  1  0
  6  5  2  0
  7  8  2  0
  8  9  1  0
 10  2  1  0
 10 12  1  0
 11 10  2  0
 13 12  1  0
 14 13  1  0
 15 14  2  0
 17 16  1  0
 17 18  2  0
 20 19  1  1
 19 17  1  0
 20 21  1  0
 21 14  1  0
 22 23  1  0
 22 20  1  0
 24 22  2  0
M  END
$$$$
