PLD.pdb
     RDKit          3D

 24 24  0  0  1  0  0  0  0  0999 V2000
   21.6594  -14.0062  -19.3625 N   0  0  0  0  0  0  0  0  0  0  0  0
   21.9519  -15.3994  -19.3796 C   0  0  0  0  0  0  0  0  0  0  0  0
   20.6104  -16.0481  -19.0292 C   0  0  0  0  0  0  0  0  0  0  0  0
   20.1184  -15.0939  -17.9529 C   0  0  0  0  0  0  0  0  0  0  0  0
   20.6271  -13.7395  -18.4529 C   0  0  1  0  0  0  0  0  0  0  0  0
   20.8550  -12.7979  -17.3751 C   0  0  0  0  0  0  0  0  0  0  0  0
   19.9042  -12.6072  -16.5550 O   0  0  0  0  0  0  0  0  0  0  0  0
   23.5140  -12.9865  -14.0470 C   0  0  0  0  0  0  0  0  0  0  0  0
   24.1946  -12.5605  -15.3566 C   0  0  2  0  0  0  0  0  0  0  0  0
   25.6718  -12.5306  -15.0520 C   0  0  0  0  0  0  0  0  0  0  0  0
   23.7321  -11.2179  -15.7914 C   0  0  0  0  0  0  0  0  0  0  0  0
   22.3149  -11.1004  -16.2206 C   0  0  2  0  0  0  0  0  0  0  0  0
   22.0692  -12.1117  -17.2226 N   0  0  0  0  0  0  0  0  0  0  0  0
   21.8295   -9.7737  -16.5610 C   0  0  0  0  0  0  0  0  0  0  0  0
   22.1837   -9.1196  -17.5867 O   0  0  0  0  0  0  0  0  0  0  0  0
   20.8820   -9.1015  -15.7259 N   0  0  0  0  0  0  0  0  0  0  0  0
   20.3466   -7.7925  -16.0941 C   0  0  1  0  0  0  0  0  0  0  0  0
   18.8797   -7.7169  -15.6902 C   0  0  0  0  0  0  0  0  0  0  0  0
   18.2661   -6.4118  -15.9118 C   0  0  0  0  0  0  0  0  0  0  0  0
   18.5520   -5.6965  -16.9361 O   0  0  0  0  0  0  0  0  0  0  0  0
   21.0831   -6.7940  -15.2865 C   0  0  0  0  0  0  0  0  0  0  0  0
   20.9711   -5.4242  -15.5039 O   0  0  0  0  0  0  0  0  0  0  0  0
   17.3531   -5.8651  -15.0482 O   0  0  0  0  0  0  0  0  0  0  0  0
   21.8694   -7.1426  -14.3370 O   0  0  0  0  0  0  0  0  0  0  0  0
  1  5  1  0
  1  2  1  0
  2  3  1  0
  3  4  1  0
  5  4  1  0
  5  6  1  1
  6 13  1  0
  7  6  2  0
  9  8  1  1
  9 11  1  0
 10  9  1  0
 12 11  1  6
 12 13  1  0
 12 14  1  0
 14 15  2  0
 14 16  1  0
 16 17  1  0
 17 18  1  1
 17 21  1  0
 19 23  1  0
 19 18  1  0
 20 19  2  0
 21 22  1  0
 24 21  2  0
M  END
$$$$
