PLD.pdb
     RDKit          3D

 24 24  0  0  1  0  0  0  0  0999 V2000
   18.0709   -9.2325  -18.6176 N   0  0  0  0  0  0  0  0  0  0  0  0
   17.6654  -10.4388  -19.2559 C   0  0  0  0  0  0  0  0  0  0  0  0
   16.2604  -10.6804  -18.6985 C   0  0  0  0  0  0  0  0  0  0  0  0
   16.4704  -10.2827  -17.2464 C   0  0  0  0  0  0  0  0  0  0  0  0
   17.4611   -9.1214  -17.3607 C   0  0  1  0  0  0  0  0  0  0  0  0
   18.2883   -8.9769  -16.1795 C   0  0  0  0  0  0  0  0  0  0  0  0
   17.6969   -8.7901  -15.0713 O   0  0  0  0  0  0  0  0  0  0  0  0
   24.0077  -10.3643  -14.4653 C   0  0  0  0  0  0  0  0  0  0  0  0
   22.7192   -9.6101  -14.1035 C   0  0  2  0  0  0  0  0  0  0  0  0
   22.1661  -10.3161  -12.8904 C   0  0  0  0  0  0  0  0  0  0  0  0
   21.7378   -9.6566  -15.2172 C   0  0  0  0  0  0  0  0  0  0  0  0
   20.5610   -8.7559  -15.1156 C   0  0  2  0  0  0  0  0  0  0  0  0
   19.6890   -9.0370  -16.2326 N   0  0  0  0  0  0  0  0  0  0  0  0
   20.8196   -7.3449  -14.8836 C   0  0  0  0  0  0  0  0  0  0  0  0
   21.3002   -6.8686  -13.8124 O   0  0  0  0  0  0  0  0  0  0  0  0
   20.5385   -6.3709  -15.8932 N   0  0  0  0  0  0  0  0  0  0  0  0
   20.8320   -4.9554  -15.6786 C   0  0  1  0  0  0  0  0  0  0  0  0
   21.3801   -4.3542  -16.9666 C   0  0  0  0  0  0  0  0  0  0  0  0
   21.5367   -2.9040  -16.9290 C   0  0  0  0  0  0  0  0  0  0  0  0
   21.4473   -2.2435  -15.8344 O   0  0  0  0  0  0  0  0  0  0  0  0
   19.5376   -4.2954  -15.3945 C   0  0  0  0  0  0  0  0  0  0  0  0
   18.3256   -4.9782  -15.4250 O   0  0  0  0  0  0  0  0  0  0  0  0
   21.7851   -2.1555  -18.0498 O   0  0  0  0  0  0  0  0  0  0  0  0
   19.4655   -3.0499  -15.1035 O   0  0  0  0  0  0  0  0  0  0  0  0
  1  5  1  0
  1  2  1  0
  2  3  1  0
  3  4  1  0
  5  4  1  0
  5  6  1  1
  6 13  1  0
  7  6  2  0
  9  8  1  6
  9 11  1  0
 10  9  1  0
 12 11  1  6
 12 13  1  0
 12 14  1  0
 14 15  2  0
 14 16  1  0
 16 17  1  0
 17 18  1  6
 17 21  1  0
 19 23  1  0
 19 18  1  0
 20 19  2  0
 21 22  1  0
 24 21  2  0
M  END
$$$$
