PLD.pdb
     RDKit          3D

 24 24  0  0  1  0  0  0  0  0999 V2000
   20.7363  -10.9963  -19.6530 N   0  0  0  0  0  0  0  0  0  0  0  0
   20.9744  -12.0233  -20.6098 C   0  0  0  0  0  0  0  0  0  0  0  0
   20.0020  -13.1294  -20.1928 C   0  0  0  0  0  0  0  0  0  0  0  0
   20.1359  -13.0550  -18.6804 C   0  0  0  0  0  0  0  0  0  0  0  0
   20.3192  -11.5548  -18.4373 C   0  0  1  0  0  0  0  0  0  0  0  0
   21.0714  -11.2741  -17.2307 C   0  0  0  0  0  0  0  0  0  0  0  0
   20.5939  -11.6975  -16.1327 O   0  0  0  0  0  0  0  0  0  0  0  0
   26.8718   -9.9925  -15.7794 C   0  0  0  0  0  0  0  0  0  0  0  0
   25.4277  -10.1095  -15.2687 C   0  0  2  0  0  0  0  0  0  0  0  0
   25.4152  -11.3203  -14.3689 C   0  0  0  0  0  0  0  0  0  0  0  0
   24.4732  -10.2936  -16.3915 C   0  0  0  0  0  0  0  0  0  0  0  0
   23.0268  -10.1912  -16.0692 C   0  0  2  0  0  0  0  0  0  0  0  0
   22.2815  -10.5646  -17.2492 N   0  0  0  0  0  0  0  0  0  0  0  0
   22.5730   -8.9721  -15.4215 C   0  0  0  0  0  0  0  0  0  0  0  0
   22.6301   -8.7563  -14.1743 O   0  0  0  0  0  0  0  0  0  0  0  0
   22.0150   -7.8985  -16.1851 N   0  0  0  0  0  0  0  0  0  0  0  0
   21.6504   -6.6325  -15.5526 C   0  0  1  0  0  0  0  0  0  0  0  0
   22.1776   -5.4784  -16.3957 C   0  0  0  0  0  0  0  0  0  0  0  0
   21.7270   -4.1626  -15.9548 C   0  0  0  0  0  0  0  0  0  0  0  0
   20.9865   -4.0145  -14.9193 O   0  0  0  0  0  0  0  0  0  0  0  0
   20.1718   -6.5613  -15.5748 C   0  0  0  0  0  0  0  0  0  0  0  0
   19.4461   -5.7706  -14.6892 O   0  0  0  0  0  0  0  0  0  0  0  0
   22.0587   -3.0064  -16.6116 O   0  0  0  0  0  0  0  0  0  0  0  0
   19.4773   -7.2305  -16.4181 O   0  0  0  0  0  0  0  0  0  0  0  0
  1  5  1  0
  1  2  1  0
  2  3  1  0
  3  4  1  0
  5  4  1  0
  5  6  1  1
  6 13  1  0
  7  6  2  0
  9  8  1  6
  9 11  1  0
 10  9  1  0
 12 11  1  6
 12 13  1  0
 12 14  1  0
 14 15  2  0
 14 16  1  0
 16 17  1  0
 17 18  1  6
 17 21  1  0
 19 23  1  0
 19 18  1  0
 20 19  2  0
 21 22  1  0
 24 21  2  0
M  END
$$$$
