PLD.pdb
     RDKit          3D

 24 24  0  0  1  0  0  0  0  0999 V2000
   26.6674  -19.0208  -14.8328 N   0  0  0  0  0  0  0  0  0  0  0  0
   27.9501  -18.4095  -14.7444 C   0  0  0  0  0  0  0  0  0  0  0  0
   28.8741  -19.4233  -15.4238 C   0  0  0  0  0  0  0  0  0  0  0  0
   28.2936  -20.7228  -14.8898 C   0  0  0  0  0  0  0  0  0  0  0  0
   26.7951  -20.4164  -14.8294 C   0  0  1  0  0  0  0  0  0  0  0  0
   26.1088  -21.1905  -13.8145 C   0  0  0  0  0  0  0  0  0  0  0  0
   26.0501  -22.4484  -13.9794 O   0  0  0  0  0  0  0  0  0  0  0  0
   27.2757  -21.6274  -10.1838 C   0  0  0  0  0  0  0  0  0  0  0  0
   26.2635  -20.4720  -10.1647 C   0  0  2  0  0  0  0  0  0  0  0  0
   26.3488  -19.8843   -8.7779 C   0  0  0  0  0  0  0  0  0  0  0  0
   24.8863  -20.9587  -10.4329 C   0  0  0  0  0  0  0  0  0  0  0  0
   24.5334  -21.2338  -11.8493 C   0  0  2  0  0  0  0  0  0  0  0  0
   25.5245  -20.5969  -12.6856 N   0  0  0  0  0  0  0  0  0  0  0  0
   23.1562  -21.0010  -12.2504 C   0  0  0  0  0  0  0  0  0  0  0  0
   22.1420  -21.4114  -11.6114 O   0  0  0  0  0  0  0  0  0  0  0  0
   22.8516  -20.2618  -13.4369 N   0  0  0  0  0  0  0  0  0  0  0  0
   21.4683  -20.0372  -13.8518 C   0  0  1  0  0  0  0  0  0  0  0  0
   21.4138  -18.8435  -14.7965 C   0  0  0  0  0  0  0  0  0  0  0  0
   20.0801  -18.5491  -15.3099 C   0  0  0  0  0  0  0  0  0  0  0  0
   19.0236  -18.8071  -14.6319 O   0  0  0  0  0  0  0  0  0  0  0  0
   21.0603  -21.2339  -14.6219 C   0  0  0  0  0  0  0  0  0  0  0  0
   19.8043  -21.8179  -14.4899 O   0  0  0  0  0  0  0  0  0  0  0  0
   19.8668  -17.9846  -16.5403 O   0  0  0  0  0  0  0  0  0  0  0  0
   21.8499  -21.7994  -15.4574 O   0  0  0  0  0  0  0  0  0  0  0  0
  1  5  1  0
  1  2  1  0
  2  3  1  0
  3  4  1  0
  5  4  1  0
  5  6  1  1
  6 13  1  0
  7  6  2  0
  9  8  1  1
  9 11  1  0
 10  9  1  0
 12 11  1  1
 12 13  1  0
 12 14  1  0
 14 15  2  0
 14 16  1  0
 16 17  1  0
 17 18  1  6
 17 21  1  0
 19 23  1  0
 19 18  1  0
 20 19  2  0
 21 22  1  0
 24 21  2  0
M  END
$$$$
