PLD.pdb
     RDKit          3D

 24 24  0  0  1  0  0  0  0  0999 V2000
   26.8116  -18.7892  -15.1540 N   0  0  0  0  0  0  0  0  0  0  0  0
   28.1830  -18.4897  -14.9163 C   0  0  0  0  0  0  0  0  0  0  0  0
   28.9233  -19.6156  -15.6425 C   0  0  0  0  0  0  0  0  0  0  0  0
   28.0331  -20.7974  -15.2935 C   0  0  0  0  0  0  0  0  0  0  0  0
   26.6359  -20.1723  -15.2963 C   0  0  1  0  0  0  0  0  0  0  0  0
   25.7138  -20.8657  -14.4193 C   0  0  0  0  0  0  0  0  0  0  0  0
   25.3749  -22.0460  -14.7433 O   0  0  0  0  0  0  0  0  0  0  0  0
   26.8762  -21.7277  -10.9809 C   0  0  0  0  0  0  0  0  0  0  0  0
   26.0235  -20.4697  -10.7573 C   0  0  2  0  0  0  0  0  0  0  0  0
   26.2345  -20.0913   -9.3122 C   0  0  0  0  0  0  0  0  0  0  0  0
   24.5860  -20.7416  -11.0128 C   0  0  0  0  0  0  0  0  0  0  0  0
   24.1652  -20.8600  -12.4324 C   0  0  2  0  0  0  0  0  0  0  0  0
   25.2020  -20.2776  -13.2529 N   0  0  0  0  0  0  0  0  0  0  0  0
   22.8150  -20.4379  -12.7648 C   0  0  0  0  0  0  0  0  0  0  0  0
   22.1409  -19.5957  -12.1004 O   0  0  0  0  0  0  0  0  0  0  0  0
   22.1408  -20.9676  -13.9102 N   0  0  0  0  0  0  0  0  0  0  0  0
   20.7786  -20.5548  -14.2418 C   0  0  1  0  0  0  0  0  0  0  0  0
   20.5642  -20.6871  -15.7441 C   0  0  0  0  0  0  0  0  0  0  0  0
   21.1028  -19.5778  -16.5239 C   0  0  0  0  0  0  0  0  0  0  0  0
   21.6783  -18.5774  -15.9665 O   0  0  0  0  0  0  0  0  0  0  0  0
   19.8730  -21.5183  -13.5760 C   0  0  0  0  0  0  0  0  0  0  0  0
   18.5963  -21.1719  -13.1446 O   0  0  0  0  0  0  0  0  0  0  0  0
   21.0295  -19.5278  -17.8915 O   0  0  0  0  0  0  0  0  0  0  0  0
   20.2212  -22.7322  -13.3601 O   0  0  0  0  0  0  0  0  0  0  0  0
  1  5  1  0
  1  2  1  0
  2  3  1  0
  3  4  1  0
  5  4  1  0
  5  6  1  1
  6 13  1  0
  7  6  2  0
  9  8  1  1
  9 11  1  0
 10  9  1  0
 12 11  1  1
 12 13  1  0
 12 14  1  0
 14 15  2  0
 14 16  1  0
 16 17  1  0
 17 18  1  6
 17 21  1  0
 19 23  1  0
 19 18  1  0
 20 19  2  0
 21 22  1  0
 24 21  2  0
M  END
$$$$
