PLD.pdb
     RDKit          3D

 24 24  0  0  1  0  0  0  0  0999 V2000
   17.2427  -10.3762  -17.7316 N   0  0  0  0  0  0  0  0  0  0  0  0
   16.8042  -11.7260  -17.8441 C   0  0  0  0  0  0  0  0  0  0  0  0
   15.5964  -11.7863  -16.9057 C   0  0  0  0  0  0  0  0  0  0  0  0
   16.1073  -10.9436  -15.7482 C   0  0  0  0  0  0  0  0  0  0  0  0
   16.9388   -9.8731  -16.4593 C   0  0  1  0  0  0  0  0  0  0  0  0
   18.0053   -9.3527  -15.6273 C   0  0  0  0  0  0  0  0  0  0  0  0
   17.6766   -8.8145  -14.5249 O   0  0  0  0  0  0  0  0  0  0  0  0
   24.0387  -10.1808  -14.9918 C   0  0  0  0  0  0  0  0  0  0  0  0
   22.8433   -9.2830  -14.6384 C   0  0  2  0  0  0  0  0  0  0  0  0
   22.6503   -9.4362  -13.1500 C   0  0  0  0  0  0  0  0  0  0  0  0
   21.6183   -9.7085  -15.3621 C   0  0  0  0  0  0  0  0  0  0  0  0
   20.4399   -8.8081  -15.2785 C   0  0  2  0  0  0  0  0  0  0  0  0
   19.3548   -9.4285  -16.0030 N   0  0  0  0  0  0  0  0  0  0  0  0
   20.6519   -7.4030  -15.5826 C   0  0  0  0  0  0  0  0  0  0  0  0
   20.9386   -6.9511  -16.7310 O   0  0  0  0  0  0  0  0  0  0  0  0
   20.5417   -6.4059  -14.5625 N   0  0  0  0  0  0  0  0  0  0  0  0
   20.7626   -4.9926  -14.8617 C   0  0  1  0  0  0  0  0  0  0  0  0
   19.5649   -4.1832  -14.3809 C   0  0  0  0  0  0  0  0  0  0  0  0
   19.6956   -2.7445  -14.5860 C   0  0  0  0  0  0  0  0  0  0  0  0
   19.6321   -2.2206  -15.7539 O   0  0  0  0  0  0  0  0  0  0  0  0
   21.9351   -4.5711  -14.0621 C   0  0  0  0  0  0  0  0  0  0  0  0
   22.6630   -3.4204  -14.3482 O   0  0  0  0  0  0  0  0  0  0  0  0
   19.8954   -1.8635  -13.5556 O   0  0  0  0  0  0  0  0  0  0  0  0
   22.3443   -5.2507  -13.0560 O   0  0  0  0  0  0  0  0  0  0  0  0
  1  5  1  0
  1  2  1  0
  2  3  1  0
  3  4  1  0
  5  4  1  0
  5  6  1  1
  6 13  1  0
  7  6  2  0
  9  8  1  6
  9 11  1  0
 10  9  1  0
 12 11  1  6
 12 13  1  0
 12 14  1  0
 14 15  2  0
 14 16  1  0
 16 17  1  0
 17 18  1  1
 17 21  1  0
 19 23  1  0
 19 18  1  0
 20 19  2  0
 21 22  1  0
 24 21  2  0
M  END
$$$$
