PLD.pdb
     RDKit          3D

 24 24  0  0  1  0  0  0  0  0999 V2000
   20.1372  -10.3714  -18.8269 N   0  0  0  0  0  0  0  0  0  0  0  0
   20.2814  -11.5852  -19.5569 C   0  0  0  0  0  0  0  0  0  0  0  0
   19.0254  -12.3760  -19.1825 C   0  0  0  0  0  0  0  0  0  0  0  0
   18.9285  -12.0495  -17.7009 C   0  0  0  0  0  0  0  0  0  0  0  0
   19.4126  -10.5982  -17.6490 C   0  0  1  0  0  0  0  0  0  0  0  0
   20.0058  -10.2545  -16.3722 C   0  0  0  0  0  0  0  0  0  0  0  0
   19.2891  -10.4072  -15.3349 O   0  0  0  0  0  0  0  0  0  0  0  0
   22.9610  -12.2384  -14.3865 C   0  0  0  0  0  0  0  0  0  0  0  0
   23.5397  -11.2624  -15.4220 C   0  0  2  0  0  0  0  0  0  0  0  0
   25.0149  -11.5715  -15.4868 C   0  0  0  0  0  0  0  0  0  0  0  0
   23.3277   -9.8517  -15.0090 C   0  0  0  0  0  0  0  0  0  0  0  0
   21.9299   -9.3493  -15.0215 C   0  0  2  0  0  0  0  0  0  0  0  0
   21.3178   -9.7704  -16.2606 N   0  0  0  0  0  0  0  0  0  0  0  0
   21.7208   -7.9520  -14.6817 C   0  0  0  0  0  0  0  0  0  0  0  0
   22.0417   -7.4253  -13.5750 O   0  0  0  0  0  0  0  0  0  0  0  0
   21.1186   -7.0511  -15.6159 N   0  0  0  0  0  0  0  0  0  0  0  0
   20.8858   -5.6503  -15.2705 C   0  0  1  0  0  0  0  0  0  0  0  0
   21.3120   -4.7669  -16.4361 C   0  0  0  0  0  0  0  0  0  0  0  0
   21.0454   -3.3463  -16.2370 C   0  0  0  0  0  0  0  0  0  0  0  0
   20.9962   -2.8261  -15.0668 O   0  0  0  0  0  0  0  0  0  0  0  0
   19.4227   -5.4949  -15.1055 C   0  0  0  0  0  0  0  0  0  0  0  0
   18.5350   -6.5561  -15.2532 O   0  0  0  0  0  0  0  0  0  0  0  0
   20.8292   -2.4794  -17.2762 O   0  0  0  0  0  0  0  0  0  0  0  0
   18.8932   -4.3648  -14.8159 O   0  0  0  0  0  0  0  0  0  0  0  0
  1  5  1  0
  1  2  1  0
  2  3  1  0
  3  4  1  0
  5  4  1  0
  5  6  1  1
  6 13  1  0
  7  6  2  0
  9  8  1  1
  9 11  1  0
 10  9  1  0
 12 11  1  6
 12 13  1  0
 12 14  1  0
 14 15  2  0
 14 16  1  0
 16 17  1  0
 17 18  1  6
 17 21  1  0
 19 23  1  0
 19 18  1  0
 20 19  2  0
 21 22  1  0
 24 21  2  0
M  END
$$$$
