PLD.pdb
     RDKit          3D

 24 24  0  0  1  0  0  0  0  0999 V2000
   19.0715  -11.0100  -18.4223 N   0  0  0  0  0  0  0  0  0  0  0  0
   18.8141  -12.4075  -18.5092 C   0  0  0  0  0  0  0  0  0  0  0  0
   17.2993  -12.5026  -18.3102 C   0  0  0  0  0  0  0  0  0  0  0  0
   17.1021  -11.4669  -17.2151 C   0  0  0  0  0  0  0  0  0  0  0  0
   18.1330  -10.3964  -17.5816 C   0  0  1  0  0  0  0  0  0  0  0  0
   18.5932   -9.6486  -16.4287 C   0  0  0  0  0  0  0  0  0  0  0  0
   17.7191   -9.0275  -15.7481 O   0  0  0  0  0  0  0  0  0  0  0  0
   23.0961  -10.0892  -12.4060 C   0  0  0  0  0  0  0  0  0  0  0  0
   22.0118   -9.1537  -12.9621 C   0  0  2  0  0  0  0  0  0  0  0  0
   20.9968   -9.0104  -11.8552 C   0  0  0  0  0  0  0  0  0  0  0  0
   21.3739   -9.7296  -14.1732 C   0  0  0  0  0  0  0  0  0  0  0  0
   20.4568   -8.8448  -14.9364 C   0  0  2  0  0  0  0  0  0  0  0  0
   19.9455   -9.5974  -16.0587 N   0  0  0  0  0  0  0  0  0  0  0  0
   20.9349   -7.5119  -15.2628 C   0  0  0  0  0  0  0  0  0  0  0  0
   21.7994   -7.2560  -16.1530 O   0  0  0  0  0  0  0  0  0  0  0  0
   20.4351   -6.3628  -14.5724 N   0  0  0  0  0  0  0  0  0  0  0  0
   20.8671   -5.0154  -14.9384 C   0  0  1  0  0  0  0  0  0  0  0  0
   19.6537   -4.0963  -14.9970 C   0  0  0  0  0  0  0  0  0  0  0  0
   19.9743   -2.7019  -15.2829 C   0  0  0  0  0  0  0  0  0  0  0  0
   20.4669   -2.3397  -16.4092 O   0  0  0  0  0  0  0  0  0  0  0  0
   21.7349   -4.5381  -13.8380 C   0  0  0  0  0  0  0  0  0  0  0  0
   22.5540   -3.4200  -13.9606 O   0  0  0  0  0  0  0  0  0  0  0  0
   19.7755   -1.6941  -14.3758 O   0  0  0  0  0  0  0  0  0  0  0  0
   21.7774   -5.1355  -12.7055 O   0  0  0  0  0  0  0  0  0  0  0  0
  1  5  1  0
  1  2  1  0
  2  3  1  0
  3  4  1  0
  5  4  1  0
  5  6  1  1
  6 13  1  0
  7  6  2  0
  9  8  1  1
  9 11  1  0
 10  9  1  0
 12 11  1  6
 12 13  1  0
 12 14  1  0
 14 15  2  0
 14 16  1  0
 16 17  1  0
 17 18  1  1
 17 21  1  0
 19 23  1  0
 19 18  1  0
 20 19  2  0
 21 22  1  0
 24 21  2  0
M  END
$$$$
