PLD.pdb
     RDKit          3D

 24 24  0  0  1  0  0  0  0  0999 V2000
   18.0796  -11.4647  -18.0541 N   0  0  0  0  0  0  0  0  0  0  0  0
   16.8033  -10.9553  -18.4263 C   0  0  0  0  0  0  0  0  0  0  0  0
   17.1444   -9.7847  -19.3517 C   0  0  0  0  0  0  0  0  0  0  0  0
   18.3348   -9.1921  -18.6151 C   0  0  0  0  0  0  0  0  0  0  0  0
   19.0306  -10.4353  -18.0552 C   0  0  1  0  0  0  0  0  0  0  0  0
   19.7788  -10.1574  -16.8456 C   0  0  0  0  0  0  0  0  0  0  0  0
   19.2430  -10.4796  -15.7401 O   0  0  0  0  0  0  0  0  0  0  0  0
   25.6282   -9.6761  -15.2811 C   0  0  0  0  0  0  0  0  0  0  0  0
   24.1801   -9.4643  -14.8143 C   0  0  2  0  0  0  0  0  0  0  0  0
   23.9421  -10.5092  -13.7524 C   0  0  0  0  0  0  0  0  0  0  0  0
   23.2220   -9.6427  -15.9349 C   0  0  0  0  0  0  0  0  0  0  0  0
   21.8163   -9.2293  -15.6910 C   0  0  2  0  0  0  0  0  0  0  0  0
   21.0465   -9.5569  -16.8689 N   0  0  0  0  0  0  0  0  0  0  0  0
   21.5960   -7.8903  -15.1713 C   0  0  0  0  0  0  0  0  0  0  0  0
   21.9890   -7.4856  -14.0368 O   0  0  0  0  0  0  0  0  0  0  0  0
   20.8965   -6.9089  -15.9424 N   0  0  0  0  0  0  0  0  0  0  0  0
   20.6500   -5.5689  -15.4135 C   0  0  1  0  0  0  0  0  0  0  0  0
   21.1617   -4.5337  -16.4071 C   0  0  0  0  0  0  0  0  0  0  0  0
   20.8732   -3.1533  -16.0326 C   0  0  0  0  0  0  0  0  0  0  0  0
   19.6734   -2.7375  -15.8595 O   0  0  0  0  0  0  0  0  0  0  0  0
   19.1802   -5.4145  -15.3266 C   0  0  0  0  0  0  0  0  0  0  0  0
   18.5670   -4.5985  -14.3810 O   0  0  0  0  0  0  0  0  0  0  0  0
   21.8543   -2.2152  -15.8445 O   0  0  0  0  0  0  0  0  0  0  0  0
   18.3893   -6.0301  -16.1246 O   0  0  0  0  0  0  0  0  0  0  0  0
  1  5  1  0
  1  2  1  0
  2  3  1  0
  3  4  1  0
  5  4  1  0
  5  6  1  1
  6 13  1  0
  7  6  2  0
  9  8  1  6
  9 11  1  0
 10  9  1  0
 12 11  1  6
 12 13  1  0
 12 14  1  0
 14 15  2  0
 14 16  1  0
 16 17  1  0
 17 18  1  6
 17 21  1  0
 19 23  1  0
 19 18  1  0
 20 19  2  0
 21 22  1  0
 24 21  2  0
M  END
$$$$
