PLD.pdb
     RDKit          3D

 24 24  0  0  1  0  0  0  0  0999 V2000
   26.9773  -19.5129  -15.8454 N   0  0  0  0  0  0  0  0  0  0  0  0
   28.2892  -19.0452  -16.1407 C   0  0  0  0  0  0  0  0  0  0  0  0
   28.9722  -20.2690  -16.7564 C   0  0  0  0  0  0  0  0  0  0  0  0
   28.4291  -21.3668  -15.8559 C   0  0  0  0  0  0  0  0  0  0  0  0
   27.0038  -20.8869  -15.5708 C   0  0  1  0  0  0  0  0  0  0  0  0
   26.4980  -21.3679  -14.3007 C   0  0  0  0  0  0  0  0  0  0  0  0
   26.2226  -22.6046  -14.2120 O   0  0  0  0  0  0  0  0  0  0  0  0
   25.9731  -19.3951   -8.5024 C   0  0  0  0  0  0  0  0  0  0  0  0
   25.4644  -20.3988   -9.5481 C   0  0  2  0  0  0  0  0  0  0  0  0
   25.7990  -21.7618   -8.9947 C   0  0  0  0  0  0  0  0  0  0  0  0
   26.1345  -20.1971  -10.8580 C   0  0  0  0  0  0  0  0  0  0  0  0
   25.5163  -20.8533  -12.0386 C   0  0  2  0  0  0  0  0  0  0  0  0
   26.3111  -20.5206  -13.1983 N   0  0  0  0  0  0  0  0  0  0  0  0
   24.0828  -20.6937  -12.2153 C   0  0  0  0  0  0  0  0  0  0  0  0
   23.2149  -20.9648  -11.3329 O   0  0  0  0  0  0  0  0  0  0  0  0
   23.5449  -20.1978  -13.4448 N   0  0  0  0  0  0  0  0  0  0  0  0
   22.1140  -19.9403  -13.5931 C   0  0  1  0  0  0  0  0  0  0  0  0
   21.8894  -19.0176  -14.7842 C   0  0  0  0  0  0  0  0  0  0  0  0
   20.4869  -18.7138  -15.0478 C   0  0  0  0  0  0  0  0  0  0  0  0
   20.0959  -18.2589  -16.1804 O   0  0  0  0  0  0  0  0  0  0  0  0
   21.4830  -21.2411  -13.9120 C   0  0  0  0  0  0  0  0  0  0  0  0
   20.2564  -21.6291  -13.3821 O   0  0  0  0  0  0  0  0  0  0  0  0
   19.5012  -18.8896  -14.1120 O   0  0  0  0  0  0  0  0  0  0  0  0
   22.0391  -22.0849  -14.6995 O   0  0  0  0  0  0  0  0  0  0  0  0
  1  5  1  0
  1  2  1  0
  2  3  1  0
  3  4  1  0
  5  4  1  0
  5  6  1  1
  6 13  1  0
  7  6  2  0
  9  8  1  1
  9 11  1  0
 10  9  1  0
 12 11  1  1
 12 13  1  0
 12 14  1  0
 14 15  2  0
 14 16  1  0
 16 17  1  0
 17 18  1  6
 17 21  1  0
 19 23  1  0
 19 18  1  0
 20 19  2  0
 21 22  1  0
 24 21  2  0
M  END
$$$$
