PVP.pdb
     RDKit          3D

 22 23  0  0  1  0  0  0  0  0999 V2000
   19.9944  -20.8159  -13.2107 N   0  0  0  0  0  0  0  0  0  0  0  0
   19.0216  -21.2806  -14.1742 C   0  0  0  0  0  0  0  0  0  0  0  0
   19.8436  -21.5109  -15.4295 C   0  0  0  0  0  0  0  0  0  0  0  0
   21.2055  -21.8913  -14.8881 C   0  0  0  0  0  0  0  0  0  0  0  0
   21.2072  -21.5609  -13.4256 C   0  0  1  0  0  0  0  0  0  0  0  0
   22.3609  -20.6528  -13.1532 C   0  0  0  0  0  0  0  0  0  0  0  0
   22.2255  -19.3874  -13.1406 O   0  0  0  0  0  0  0  0  0  0  0  0
   26.0885  -22.1994  -11.8760 C   0  0  0  0  0  0  0  0  0  0  0  0
   25.7453  -20.7331  -11.8172 C   0  0  2  0  0  0  0  0  0  0  0  0
   24.9410  -20.5412  -10.5223 C   0  0  0  0  0  0  0  0  0  0  0  0
   24.8554  -20.3009  -12.9406 C   0  0  2  0  0  0  0  0  0  0  0  0
   23.6736  -21.1348  -12.8925 N   0  0  0  0  0  0  0  0  0  0  0  0
   25.4928  -20.3032  -14.2698 C   0  0  0  0  0  0  0  0  0  0  0  0
   25.1452  -21.2209  -15.0584 O   0  0  0  0  0  0  0  0  0  0  0  0
   26.4407  -19.3734  -14.7109 N   0  0  0  0  0  0  0  0  0  0  0  0
   27.2075  -18.4484  -13.9171 C   0  0  0  0  0  0  0  0  0  0  0  0
   27.6092  -17.3183  -14.8515 C   0  0  0  0  0  0  0  0  0  0  0  0
   26.8214  -17.6168  -16.1085 C   0  0  0  0  0  0  0  0  0  0  0  0
   26.8400  -19.1524  -16.0754 C   0  0  1  0  0  0  0  0  0  0  0  0
   28.2318  -19.5670  -16.3419 C   0  0  0  0  0  0  0  0  0  0  0  0
   28.8899  -19.2909  -17.5312 O   0  0  0  0  0  0  0  0  0  0  0  0
   28.8776  -20.2012  -15.4708 O   0  0  0  0  0  0  0  0  0  0  0  0
  1  5  1  0
  1  2  1  0
  2  3  1  0
  4  5  1  0
  4  3  1  0
  6 12  1  0
  5  6  1  6
  7  6  2  0
  9  8  1  6
  9 10  1  0
  9 11  1  0
 11 13  1  0
 11 12  1  6
 13 15  1  0
 14 13  2  0
 15 16  1  0
 17 16  1  0
 18 17  1  0
 19 18  1  0
 19 15  1  0
 19 20  1  1
 20 22  2  0
 20 21  1  0
M  END
$$$$
