PVP.pdb
     RDKit          3D

 22 23  0  0  1  0  0  0  0  0999 V2000
   24.1135  -12.7758  -14.9736 N   0  0  0  0  0  0  0  0  0  0  0  0
   24.3157  -14.2012  -15.1074 C   0  0  0  0  0  0  0  0  0  0  0  0
   23.7606  -14.5131  -16.4855 C   0  0  0  0  0  0  0  0  0  0  0  0
   24.0078  -13.2341  -17.2573 C   0  0  0  0  0  0  0  0  0  0  0  0
   24.3738  -12.1787  -16.2573 C   0  0  1  0  0  0  0  0  0  0  0  0
   23.4380  -11.0278  -16.4291 C   0  0  0  0  0  0  0  0  0  0  0  0
   23.4359  -10.3218  -17.4880 O   0  0  0  0  0  0  0  0  0  0  0  0
   19.6623  -10.8343  -16.4957 C   0  0  0  0  0  0  0  0  0  0  0  0
   20.2072  -10.0502  -15.3296 C   0  0  2  0  0  0  0  0  0  0  0  0
   19.2952   -8.8222  -15.1858 C   0  0  0  0  0  0  0  0  0  0  0  0
   21.5887   -9.5296  -15.5765 C   0  0  2  0  0  0  0  0  0  0  0  0
   22.4968  -10.6472  -15.4327 N   0  0  0  0  0  0  0  0  0  0  0  0
   21.9742   -8.3790  -14.7396 C   0  0  0  0  0  0  0  0  0  0  0  0
   22.2654   -8.6286  -13.5405 O   0  0  0  0  0  0  0  0  0  0  0  0
   22.0392   -7.0510  -15.1752 N   0  0  0  0  0  0  0  0  0  0  0  0
   21.6241   -6.5165  -16.4463 C   0  0  0  0  0  0  0  0  0  0  0  0
   22.4126   -5.2318  -16.6448 C   0  0  0  0  0  0  0  0  0  0  0  0
   23.4056   -5.2596  -15.5032 C   0  0  0  0  0  0  0  0  0  0  0  0
   22.5490   -5.9360  -14.4224 C   0  0  1  0  0  0  0  0  0  0  0  0
   21.4992   -4.9690  -14.0443 C   0  0  0  0  0  0  0  0  0  0  0  0
   21.7089   -3.9384  -13.1401 O   0  0  0  0  0  0  0  0  0  0  0  0
   20.3516   -5.0567  -14.5477 O   0  0  0  0  0  0  0  0  0  0  0  0
  1  5  1  0
  1  2  1  0
  2  3  1  0
  4  5  1  0
  4  3  1  0
  6 12  1  0
  5  6  1  6
  7  6  2  0
  9  8  1  6
  9 10  1  0
  9 11  1  0
 11 13  1  0
 11 12  1  1
 13 15  1  0
 14 13  2  0
 15 16  1  0
 17 16  1  0
 18 17  1  0
 19 18  1  0
 19 15  1  0
 19 20  1  6
 20 22  2  0
 20 21  1  0
M  END
$$$$
