PVP.pdb
     RDKit          3D

 22 23  0  0  1  0  0  0  0  0999 V2000
   26.6619  -20.2444  -13.9389 N   0  0  0  0  0  0  0  0  0  0  0  0
   27.5284  -20.6083  -15.0378 C   0  0  0  0  0  0  0  0  0  0  0  0
   28.8468  -20.9354  -14.3602 C   0  0  0  0  0  0  0  0  0  0  0  0
   28.4206  -21.4569  -13.0041 C   0  0  0  0  0  0  0  0  0  0  0  0
   26.9697  -21.1179  -12.8369 C   0  0  1  0  0  0  0  0  0  0  0  0
   26.8149  -20.3379  -11.5729 C   0  0  0  0  0  0  0  0  0  0  0  0
   26.9304  -19.0707  -11.5524 O   0  0  0  0  0  0  0  0  0  0  0  0
   24.6059  -20.8668   -7.4737 C   0  0  0  0  0  0  0  0  0  0  0  0
   24.9511  -20.1461   -8.7515 C   0  0  2  0  0  0  0  0  0  0  0  0
   24.2128  -20.8971   -9.8703 C   0  0  0  0  0  0  0  0  0  0  0  0
   26.4097  -20.2164   -9.0804 C   0  0  2  0  0  0  0  0  0  0  0  0
   26.5314  -20.9513  -10.3211 N   0  0  0  0  0  0  0  0  0  0  0  0
   27.2582  -20.7721   -8.0108 C   0  0  0  0  0  0  0  0  0  0  0  0
   27.5984  -21.9781   -8.1325 O   0  0  0  0  0  0  0  0  0  0  0  0
   27.7059  -20.0668   -6.8884 N   0  0  0  0  0  0  0  0  0  0  0  0
   27.4145  -18.7036   -6.5270 C   0  0  0  0  0  0  0  0  0  0  0  0
   28.5482  -18.2533   -5.6194 C   0  0  0  0  0  0  0  0  0  0  0  0
   29.5380  -19.3939   -5.7160 C   0  0  0  0  0  0  0  0  0  0  0  0
   28.5677  -20.5765   -5.8552 C   0  0  1  0  0  0  0  0  0  0  0  0
   27.8836  -20.7212   -4.5548 C   0  0  0  0  0  0  0  0  0  0  0  0
   28.5473  -21.0505   -3.3823 O   0  0  0  0  0  0  0  0  0  0  0  0
   26.6426  -20.5443   -4.4731 O   0  0  0  0  0  0  0  0  0  0  0  0
  1  5  1  0
  1  2  1  0
  2  3  1  0
  4  5  1  0
  4  3  1  0
  6 12  1  0
  5  6  1  1
  7  6  2  0
  9  8  1  1
  9 10  1  0
  9 11  1  0
 11 13  1  0
 11 12  1  6
 13 15  1  0
 14 13  2  0
 15 16  1  0
 17 16  1  0
 18 17  1  0
 19 18  1  0
 19 15  1  0
 19 20  1  1
 20 22  2  0
 20 21  1  0
M  END
$$$$
