PVP.pdb
     RDKit          3D

 22 23  0  0  1  0  0  0  0  0999 V2000
   26.0949  -20.6320  -11.3034 N   0  0  0  0  0  0  0  0  0  0  0  0
   24.8708  -21.0342  -11.9594 C   0  0  0  0  0  0  0  0  0  0  0  0
   23.9706  -21.4527  -10.8110 C   0  0  0  0  0  0  0  0  0  0  0  0
   24.4334  -20.5736   -9.6685 C   0  0  0  0  0  0  0  0  0  0  0  0
   25.7317  -19.9518  -10.0877 C   0  0  1  0  0  0  0  0  0  0  0  0
   26.7596  -20.2746   -9.0538 C   0  0  0  0  0  0  0  0  0  0  0  0
   27.2985  -21.4255   -8.9851 O   0  0  0  0  0  0  0  0  0  0  0  0
   30.1440  -18.6540   -5.8869 C   0  0  0  0  0  0  0  0  0  0  0  0
   29.0338  -18.4353   -6.8824 C   0  0  2  0  0  0  0  0  0  0  0  0
   28.1510  -17.3258   -6.2906 C   0  0  0  0  0  0  0  0  0  0  0  0
   28.1568  -19.6374   -7.0454 C   0  0  2  0  0  0  0  0  0  0  0  0
   27.2008  -19.3288   -8.0872 N   0  0  0  0  0  0  0  0  0  0  0  0
   27.5087  -20.1022   -5.8057 C   0  0  0  0  0  0  0  0  0  0  0  0
   26.2546  -20.0045   -5.7562 O   0  0  0  0  0  0  0  0  0  0  0  0
   28.1765  -20.6361   -4.6982 N   0  0  0  0  0  0  0  0  0  0  0  0
   29.5964  -20.7844   -4.5092 C   0  0  0  0  0  0  0  0  0  0  0  0
   29.7751  -21.8970   -3.4884 C   0  0  0  0  0  0  0  0  0  0  0  0
   28.3742  -22.4478   -3.3334 C   0  0  0  0  0  0  0  0  0  0  0  0
   27.5604  -21.1566   -3.5067 C   0  0  1  0  0  0  0  0  0  0  0  0
   27.8210  -20.3258   -2.3143 C   0  0  0  0  0  0  0  0  0  0  0  0
   27.2743  -20.5962   -1.0686 O   0  0  0  0  0  0  0  0  0  0  0  0
   28.5686  -19.3199   -2.3989 O   0  0  0  0  0  0  0  0  0  0  0  0
  1  5  1  0
  1  2  1  0
  2  3  1  0
  4  5  1  0
  4  3  1  0
  6 12  1  0
  5  6  1  1
  7  6  2  0
  9  8  1  1
  9 10  1  0
  9 11  1  0
 11 13  1  0
 11 12  1  6
 13 15  1  0
 14 13  2  0
 15 16  1  0
 17 16  1  0
 18 17  1  0
 19 18  1  0
 19 15  1  0
 19 20  1  1
 20 22  2  0
 20 21  1  0
M  END
$$$$
