PVP.pdb
     RDKit          3D

 22 23  0  0  1  0  0  0  0  0999 V2000
   25.2315  -20.5387  -12.2757 N   0  0  0  0  0  0  0  0  0  0  0  0
   24.0121  -20.6182  -13.0486 C   0  0  0  0  0  0  0  0  0  0  0  0
   22.9887  -21.1279  -12.0499 C   0  0  0  0  0  0  0  0  0  0  0  0
   23.4857  -20.5760  -10.7306 C   0  0  0  0  0  0  0  0  0  0  0  0
   24.8805  -20.0756  -10.9588 C   0  0  1  0  0  0  0  0  0  0  0  0
   25.7840  -20.7469   -9.9776 C   0  0  0  0  0  0  0  0  0  0  0  0
   25.5427  -21.9177   -9.5408 O   0  0  0  0  0  0  0  0  0  0  0  0
   29.7218  -19.3308   -9.1591 C   0  0  0  0  0  0  0  0  0  0  0  0
   29.1822  -20.7113   -8.8863 C   0  0  2  0  0  0  0  0  0  0  0  0
   29.1783  -21.4363  -10.2409 C   0  0  0  0  0  0  0  0  0  0  0  0
   27.7643  -20.6948   -8.4068 C   0  0  2  0  0  0  0  0  0  0  0  0
   26.9617  -20.1306   -9.4706 N   0  0  0  0  0  0  0  0  0  0  0  0
   27.5555  -20.0087   -7.1189 C   0  0  0  0  0  0  0  0  0  0  0  0
   26.5796  -19.2160   -7.0560 O   0  0  0  0  0  0  0  0  0  0  0  0
   28.3510  -20.1730   -5.9797 N   0  0  0  0  0  0  0  0  0  0  0  0
   29.5422  -20.9702   -5.8408 C   0  0  0  0  0  0  0  0  0  0  0  0
   29.6729  -21.2840   -4.3589 C   0  0  0  0  0  0  0  0  0  0  0  0
   28.3653  -20.7821   -3.7859 C   0  0  0  0  0  0  0  0  0  0  0  0
   28.1263  -19.5668   -4.6943 C   0  0  1  0  0  0  0  0  0  0  0  0
   29.1524  -18.5647   -4.3436 C   0  0  0  0  0  0  0  0  0  0  0  0
   29.2062  -17.9362   -3.1083 O   0  0  0  0  0  0  0  0  0  0  0  0
   30.0320  -18.2445   -5.1813 O   0  0  0  0  0  0  0  0  0  0  0  0
  1  5  1  0
  1  2  1  0
  2  3  1  0
  4  5  1  0
  4  3  1  0
  6 12  1  0
  5  6  1  1
  7  6  2  0
  9  8  1  6
  9 10  1  0
  9 11  1  0
 11 13  1  0
 11 12  1  6
 13 15  1  0
 14 13  2  0
 15 16  1  0
 17 16  1  0
 18 17  1  0
 19 18  1  0
 19 15  1  0
 19 20  1  1
 20 22  2  0
 20 21  1  0
M  END
$$$$
