PVP.pdb
     RDKit          3D

 22 23  0  0  1  0  0  0  0  0999 V2000
   26.5709  -15.8288  -18.0359 N   0  0  0  0  0  0  0  0  0  0  0  0
   27.7627  -15.3130  -18.6716 C   0  0  0  0  0  0  0  0  0  0  0  0
   28.8926  -15.9320  -17.8687 C   0  0  0  0  0  0  0  0  0  0  0  0
   28.3087  -17.2503  -17.4064 C   0  0  0  0  0  0  0  0  0  0  0  0
   26.8333  -17.1953  -17.6672 C   0  0  1  0  0  0  0  0  0  0  0  0
   26.1215  -17.4717  -16.3839 C   0  0  0  0  0  0  0  0  0  0  0  0
   25.9918  -16.5782  -15.4869 O   0  0  0  0  0  0  0  0  0  0  0  0
   22.7358  -20.2887  -14.4749 C   0  0  0  0  0  0  0  0  0  0  0  0
   23.4043  -19.1163  -15.1458 C   0  0  2  0  0  0  0  0  0  0  0  0
   23.2897  -19.3747  -16.6560 C   0  0  0  0  0  0  0  0  0  0  0  0
   24.8664  -19.0289  -14.8373 C   0  0  2  0  0  0  0  0  0  0  0  0
   25.5472  -18.7374  -16.0807 N   0  0  0  0  0  0  0  0  0  0  0  0
   25.4251  -20.2085  -14.1522 C   0  0  0  0  0  0  0  0  0  0  0  0
   25.8407  -21.1416  -14.8881 O   0  0  0  0  0  0  0  0  0  0  0  0
   25.5255  -20.3629  -12.7653 N   0  0  0  0  0  0  0  0  0  0  0  0
   25.0626  -19.4638  -11.7400 C   0  0  0  0  0  0  0  0  0  0  0  0
   25.8963  -19.7633  -10.5043 C   0  0  0  0  0  0  0  0  0  0  0  0
   26.9512  -20.7150  -11.0253 C   0  0  0  0  0  0  0  0  0  0  0  0
   26.1283  -21.4735  -12.0775 C   0  0  1  0  0  0  0  0  0  0  0  0
   25.1474  -22.2944  -11.3399 C   0  0  0  0  0  0  0  0  0  0  0  0
   25.5063  -23.3786  -10.5528 O   0  0  0  0  0  0  0  0  0  0  0  0
   23.9225  -22.0242  -11.4077 O   0  0  0  0  0  0  0  0  0  0  0  0
  1  5  1  0
  1  2  1  0
  2  3  1  0
  4  5  1  0
  4  3  1  0
  6 12  1  0
  5  6  1  1
  7  6  2  0
  9  8  1  1
  9 10  1  0
  9 11  1  0
 11 13  1  0
 11 12  1  6
 13 15  1  0
 14 13  2  0
 15 16  1  0
 17 16  1  0
 18 17  1  0
 19 18  1  0
 19 15  1  0
 19 20  1  1
 20 22  2  0
 20 21  1  0
M  END
$$$$
