PVP.pdb
     RDKit          3D

 22 23  0  0  1  0  0  0  0  0999 V2000
   28.6207  -20.5376  -10.6211 N   0  0  0  0  0  0  0  0  0  0  0  0
   29.1382  -20.3883  -11.9629 C   0  0  0  0  0  0  0  0  0  0  0  0
   30.5100  -21.0344  -11.8909 C   0  0  0  0  0  0  0  0  0  0  0  0
   30.3356  -22.1032  -10.8327 C   0  0  0  0  0  0  0  0  0  0  0  0
   29.0359  -21.8284  -10.1377 C   0  0  1  0  0  0  0  0  0  0  0  0
   29.3053  -21.7080   -8.6739 C   0  0  0  0  0  0  0  0  0  0  0  0
   29.6100  -22.7208   -7.9659 O   0  0  0  0  0  0  0  0  0  0  0  0
   30.5881  -18.9697   -4.8589 C   0  0  0  0  0  0  0  0  0  0  0  0
   30.0387  -19.0484   -6.2602 C   0  0  2  0  0  0  0  0  0  0  0  0
   28.9601  -17.9581   -6.3506 C   0  0  0  0  0  0  0  0  0  0  0  0
   29.3550  -20.3499   -6.5420 C   0  0  2  0  0  0  0  0  0  0  0  0
   29.2405  -20.4679   -7.9799 N   0  0  0  0  0  0  0  0  0  0  0  0
   28.0620  -20.5297   -5.8572 C   0  0  0  0  0  0  0  0  0  0  0  0
   27.0290  -20.4162   -6.5677 O   0  0  0  0  0  0  0  0  0  0  0  0
   27.9031  -20.8134   -4.4964 N   0  0  0  0  0  0  0  0  0  0  0  0
   28.9053  -20.7767   -3.4629 C   0  0  0  0  0  0  0  0  0  0  0  0
   28.4092  -21.6951   -2.3574 C   0  0  0  0  0  0  0  0  0  0  0  0
   27.2045  -22.3642   -2.9828 C   0  0  0  0  0  0  0  0  0  0  0  0
   26.6803  -21.2101   -3.8505 C   0  0  1  0  0  0  0  0  0  0  0  0
   26.1595  -20.1843   -2.9250 C   0  0  0  0  0  0  0  0  0  0  0  0
   24.9559  -20.3157   -2.2482 O   0  0  0  0  0  0  0  0  0  0  0  0
   26.8134  -19.1317   -2.7192 O   0  0  0  0  0  0  0  0  0  0  0  0
  1  5  1  0
  1  2  1  0
  2  3  1  0
  4  5  1  0
  4  3  1  0
  6 12  1  0
  5  6  1  1
  7  6  2  0
  9  8  1  1
  9 10  1  0
  9 11  1  0
 11 13  1  0
 11 12  1  6
 13 15  1  0
 14 13  2  0
 15 16  1  0
 17 16  1  0
 18 17  1  0
 19 18  1  0
 19 15  1  0
 19 20  1  1
 20 22  2  0
 20 21  1  0
M  END
$$$$
