PVP.pdb
     RDKit          3D

 22 23  0  0  1  0  0  0  0  0999 V2000
   29.6187  -33.6636   -5.6865 N   0  0  0  0  0  0  0  0  0  0  0  0
   28.6602  -34.4441   -6.4366 C   0  0  0  0  0  0  0  0  0  0  0  0
   29.1097  -35.8762   -6.2096 C   0  0  0  0  0  0  0  0  0  0  0  0
   29.7356  -35.8298   -4.8317 C   0  0  0  0  0  0  0  0  0  0  0  0
   29.9112  -34.3841   -4.4751 C   0  0  1  0  0  0  0  0  0  0  0  0
   31.3483  -34.1572   -4.1389 C   0  0  0  0  0  0  0  0  0  0  0  0
   32.2118  -33.9020   -5.0383 O   0  0  0  0  0  0  0  0  0  0  0  0
   32.4690  -33.6463   -0.1117 C   0  0  0  0  0  0  0  0  0  0  0  0
   33.2763  -33.1174   -1.2693 C   0  0  2  0  0  0  0  0  0  0  0  0
   32.5985  -31.8041   -1.6893 C   0  0  0  0  0  0  0  0  0  0  0  0
   33.2364  -34.0193   -2.4633 C   0  0  2  0  0  0  0  0  0  0  0  0
   31.8435  -34.2101   -2.8064 N   0  0  0  0  0  0  0  0  0  0  0  0
   33.9560  -35.2953   -2.2983 C   0  0  0  0  0  0  0  0  0  0  0  0
   33.2609  -36.2955   -1.9801 O   0  0  0  0  0  0  0  0  0  0  0  0
   35.3335  -35.4717   -2.4676 N   0  0  0  0  0  0  0  0  0  0  0  0
   36.3287  -34.4634   -2.7258 C   0  0  0  0  0  0  0  0  0  0  0  0
   37.4937  -35.1773   -3.3927 C   0  0  0  0  0  0  0  0  0  0  0  0
   36.9433  -36.5630   -3.6514 C   0  0  0  0  0  0  0  0  0  0  0  0
   36.0398  -36.7243   -2.4197 C   0  0  1  0  0  0  0  0  0  0  0  0
   36.9324  -36.8371   -1.2489 C   0  0  0  0  0  0  0  0  0  0  0  0
   37.0729  -35.8316   -0.3039 O   0  0  0  0  0  0  0  0  0  0  0  0
   37.6099  -37.8800   -1.0718 O   0  0  0  0  0  0  0  0  0  0  0  0
  1  5  1  0
  1  2  1  0
  2  3  1  0
  4  5  1  0
  4  3  1  0
  6 12  1  0
  5  6  1  6
  7  6  2  0
  9  8  1  1
  9 10  1  0
  9 11  1  0
 11 13  1  0
 11 12  1  1
 13 15  1  0
 14 13  2  0
 15 16  1  0
 17 16  1  0
 18 17  1  0
 19 18  1  0
 19 15  1  0
 19 20  1  1
 20 22  2  0
 20 21  1  0
M  END
$$$$
