PVP.pdb
     RDKit          3D

 22 23  0  0  1  0  0  0  0  0999 V2000
   23.1127  -20.5135  -15.5135 N   0  0  0  0  0  0  0  0  0  0  0  0
   21.9368  -19.7656  -15.8989 C   0  0  0  0  0  0  0  0  0  0  0  0
   21.8305  -18.6915  -14.8314 C   0  0  0  0  0  0  0  0  0  0  0  0
   23.2719  -18.4529  -14.4338 C   0  0  0  0  0  0  0  0  0  0  0  0
   24.0818  -19.5717  -15.0172 C   0  0  1  0  0  0  0  0  0  0  0  0
   24.8376  -20.2282  -13.9092 C   0  0  0  0  0  0  0  0  0  0  0  0
   24.3337  -21.1788  -13.2293 O   0  0  0  0  0  0  0  0  0  0  0  0
   28.3367  -21.6386  -13.8382 C   0  0  0  0  0  0  0  0  0  0  0  0
   28.2400  -20.6203  -12.7313 C   0  0  2  0  0  0  0  0  0  0  0  0
   28.8932  -21.2717  -11.5026 C   0  0  0  0  0  0  0  0  0  0  0  0
   26.8258  -20.3118  -12.3498 C   0  0  2  0  0  0  0  0  0  0  0  0
   26.1563  -19.8403  -13.5431 N   0  0  0  0  0  0  0  0  0  0  0  0
   26.6806  -19.3801  -11.2168 C   0  0  0  0  0  0  0  0  0  0  0  0
   26.8550  -18.1587  -11.4674 O   0  0  0  0  0  0  0  0  0  0  0  0
   26.3674  -19.7496   -9.9042 N   0  0  0  0  0  0  0  0  0  0  0  0
   26.3753  -18.9206   -8.7267 C   0  0  0  0  0  0  0  0  0  0  0  0
   26.5493  -19.8621   -7.5456 C   0  0  0  0  0  0  0  0  0  0  0  0
   26.8442  -21.1907   -8.2072 C   0  0  0  0  0  0  0  0  0  0  0  0
   25.9713  -21.0610   -9.4645 C   0  0  1  0  0  0  0  0  0  0  0  0
   24.5661  -21.1170   -9.0146 C   0  0  0  0  0  0  0  0  0  0  0  0
   24.0296  -22.2034   -8.3396 O   0  0  0  0  0  0  0  0  0  0  0  0
   23.7944  -20.1514   -9.2385 O   0  0  0  0  0  0  0  0  0  0  0  0
  1  5  1  0
  1  2  1  0
  2  3  1  0
  4  5  1  0
  4  3  1  0
  6 12  1  0
  5  6  1  1
  7  6  2  0
  9  8  1  6
  9 10  1  0
  9 11  1  0
 11 13  1  0
 11 12  1  6
 13 15  1  0
 14 13  2  0
 15 16  1  0
 17 16  1  0
 18 17  1  0
 19 18  1  0
 19 15  1  0
 19 20  1  1
 20 22  2  0
 20 21  1  0
M  END
$$$$
