PVP.pdb
     RDKit          3D

 22 23  0  0  1  0  0  0  0  0999 V2000
   28.5724  -24.1042  -17.5319 N   0  0  0  0  0  0  0  0  0  0  0  0
   29.0393  -25.4598  -17.7186 C   0  0  0  0  0  0  0  0  0  0  0  0
   28.4257  -26.2130  -16.5522 C   0  0  0  0  0  0  0  0  0  0  0  0
   27.1377  -25.4608  -16.2918 C   0  0  0  0  0  0  0  0  0  0  0  0
   27.2148  -24.1748  -17.0586 C   0  0  1  0  0  0  0  0  0  0  0  0
   27.0001  -23.0475  -16.1031 C   0  0  0  0  0  0  0  0  0  0  0  0
   27.9404  -22.6096  -15.3657 O   0  0  0  0  0  0  0  0  0  0  0  0
   24.3080  -19.1304  -14.9355 C   0  0  0  0  0  0  0  0  0  0  0  0
   25.0183  -20.1464  -15.7928 C   0  0  2  0  0  0  0  0  0  0  0  0
   23.9629  -20.6804  -16.7733 C   0  0  0  0  0  0  0  0  0  0  0  0
   25.5082  -21.3241  -15.0095 C   0  0  2  0  0  0  0  0  0  0  0  0
   25.7450  -22.3948  -15.9540 N   0  0  0  0  0  0  0  0  0  0  0  0
   24.6305  -21.7362  -13.8992 C   0  0  0  0  0  0  0  0  0  0  0  0
   23.8392  -22.6874  -14.1313 O   0  0  0  0  0  0  0  0  0  0  0  0
   24.6145  -21.1558  -12.6262 N   0  0  0  0  0  0  0  0  0  0  0  0
   25.3654  -20.0170  -12.1645 C   0  0  0  0  0  0  0  0  0  0  0  0
   25.4566  -20.1530  -10.6529 C   0  0  0  0  0  0  0  0  0  0  0  0
   24.8952  -21.5351  -10.3988 C   0  0  0  0  0  0  0  0  0  0  0  0
   23.8298  -21.5963  -11.5036 C   0  0  1  0  0  0  0  0  0  0  0  0
   22.7723  -20.6364  -11.1289 C   0  0  0  0  0  0  0  0  0  0  0  0
   21.8692  -20.8672  -10.1018 O   0  0  0  0  0  0  0  0  0  0  0  0
   22.6588  -19.5504  -11.7500 O   0  0  0  0  0  0  0  0  0  0  0  0
  1  5  1  0
  1  2  1  0
  2  3  1  0
  4  5  1  0
  4  3  1  0
  6 12  1  0
  5  6  1  1
  7  6  2  0
  9  8  1  1
  9 10  1  0
  9 11  1  0
 11 13  1  0
 11 12  1  6
 13 15  1  0
 14 13  2  0
 15 16  1  0
 17 16  1  0
 18 17  1  0
 19 18  1  0
 19 15  1  0
 19 20  1  1
 20 22  2  0
 20 21  1  0
M  END
$$$$
