PVP.pdb
     RDKit          3D

 22 23  0  0  1  0  0  0  0  0999 V2000
   25.1220  -20.9729  -13.6743 N   0  0  0  0  0  0  0  0  0  0  0  0
   24.1589  -20.9168  -14.7513 C   0  0  0  0  0  0  0  0  0  0  0  0
   22.8269  -20.7947  -14.0336 C   0  0  0  0  0  0  0  0  0  0  0  0
   23.1833  -20.0518  -12.7634 C   0  0  0  0  0  0  0  0  0  0  0  0
   24.6782  -20.0659  -12.6484 C   0  0  1  0  0  0  0  0  0  0  0  0
   25.0393  -20.6545  -11.3244 C   0  0  0  0  0  0  0  0  0  0  0  0
   25.0340  -21.9122  -11.1295 O   0  0  0  0  0  0  0  0  0  0  0  0
   27.2680  -20.2367   -7.0813 C   0  0  0  0  0  0  0  0  0  0  0  0
   26.4670  -19.4912   -8.1178 C   0  0  2  0  0  0  0  0  0  0  0  0
   25.6151  -18.4760   -7.3406 C   0  0  0  0  0  0  0  0  0  0  0  0
   25.5106  -20.3746   -8.8564 C   0  0  2  0  0  0  0  0  0  0  0  0
   25.4092  -19.8589  -10.2048 N   0  0  0  0  0  0  0  0  0  0  0  0
   24.1937  -20.5336   -8.2134 C   0  0  0  0  0  0  0  0  0  0  0  0
   23.2683  -19.7923   -8.6367 O   0  0  0  0  0  0  0  0  0  0  0  0
   23.9029  -21.4347   -7.1835 N   0  0  0  0  0  0  0  0  0  0  0  0
   24.8270  -22.2341   -6.4213 C   0  0  0  0  0  0  0  0  0  0  0  0
   24.0291  -23.4136   -5.8884 C   0  0  0  0  0  0  0  0  0  0  0  0
   22.7014  -23.2792   -6.6018 C   0  0  0  0  0  0  0  0  0  0  0  0
   22.5936  -21.7488   -6.6764 C   0  0  1  0  0  0  0  0  0  0  0  0
   22.3809  -21.2693   -5.2962 C   0  0  0  0  0  0  0  0  0  0  0  0
   21.1568  -21.3444   -4.6484 O   0  0  0  0  0  0  0  0  0  0  0  0
   23.3334  -20.7643   -4.6513 O   0  0  0  0  0  0  0  0  0  0  0  0
  1  5  1  0
  1  2  1  0
  2  3  1  0
  4  5  1  0
  4  3  1  0
  6 12  1  0
  5  6  1  1
  7  6  2  0
  9  8  1  1
  9 10  1  0
  9 11  1  0
 11 13  1  0
 11 12  1  6
 13 15  1  0
 14 13  2  0
 15 16  1  0
 17 16  1  0
 18 17  1  0
 19 18  1  0
 19 15  1  0
 19 20  1  1
 20 22  2  0
 20 21  1  0
M  END
$$$$
