WCA.pdb
     RDKit          3D

 26 27  0  0  1  0  0  0  0  0999 V2000
    6.3815  -18.2272   24.8715 N   0  0  0  0  0  0  0  0  0  0  0  0
    6.7956  -16.9430   24.4364 C   0  0  1  0  0  0  0  0  0  0  0  0
    7.6623  -16.2492   25.4373 C   0  0  0  0  0  0  0  0  0  0  0  0
    6.9174  -15.1413   26.0544 C   0  0  0  0  0  0  0  0  0  0  0  0
    5.6791  -15.2113   26.7054 C   0  0  0  0  0  0  0  0  0  0  0  0
    5.3522  -13.9931   27.1629 N   0  0  0  0  0  0  0  0  0  0  0  0
    6.3179  -13.1159   26.8445 C   0  0  0  0  0  0  0  0  0  0  0  0
    6.4839  -11.7702   27.0552 C   0  0  0  0  0  0  0  0  0  0  0  0
    7.6027  -11.1023   26.5938 C   0  0  0  0  0  0  0  0  0  0  0  0
    8.5637  -11.7946   25.9137 C   0  0  0  0  0  0  0  0  0  0  0  0
    8.4052  -13.1465   25.6980 C   0  0  0  0  0  0  0  0  0  0  0  0
    7.3058  -13.8262   26.1475 C   0  0  0  0  0  0  0  0  0  0  0  0
    7.3761  -16.8992   23.0671 C   0  0  0  0  0  0  0  0  0  0  0  0
    8.0171  -17.9334   22.7119 O   0  0  0  0  0  0  0  0  0  0  0  0
    7.2719  -15.8373   22.1686 N   0  0  0  0  0  0  0  0  0  0  0  0
    7.9517  -15.9243   20.8798 C   0  0  1  0  0  0  0  0  0  0  0  0
    7.6305  -14.6046   20.1922 C   0  0  0  0  0  0  0  0  0  0  0  0
    8.4969  -14.4135   18.6296 S   0  0  0  0  0  0  0  0  0  0  0  0
    9.4260  -16.0205   21.0873 C   0  0  0  0  0  0  0  0  0  0  0  0
   10.0278  -15.1562   21.8087 O   0  0  0  0  0  0  0  0  0  0  0  0
   12.1426  -18.5486   20.1993 C   0  0  0  0  0  0  0  0  0  0  0  0
   11.6170  -17.2353   20.6569 C   0  0  2  0  0  0  0  0  0  0  0  0
   10.1981  -17.0540   20.5063 N   0  0  0  0  0  0  0  0  0  0  0  0
   12.3841  -16.0616   20.1028 C   0  0  0  0  0  0  0  0  0  0  0  0
   13.4649  -15.5270   20.7602 O   0  0  0  0  0  0  0  0  0  0  0  0
   12.0068  -15.5831   19.0186 O   0  0  0  0  0  0  0  0  0  0  0  0
  2  1  1  1
  2 13  1  0
  3  2  1  0
  3  4  1  0
  4  5  2  0
  4 12  1  0
  5  6  1  0
  6  7  1  0
  7  8  2  0
  8  9  1  0
 10  9  2  0
 11 10  1  0
 12 11  2  0
 12  7  1  0
 13 14  2  0
 15 16  1  0
 15 13  1  0
 16 19  1  0
 16 17  1  6
 18 17  1  0
 19 23  1  0
 20 19  2  0
 22 21  1  6
 23 22  1  0
 24 25  1  0
 24 22  1  0
 26 24  2  0
M  END
$$$$
