WCA.pdb
     RDKit          3D

 26 27  0  0  1  0  0  0  0  0999 V2000
    6.6059  -17.9510   24.0520 N   0  0  0  0  0  0  0  0  0  0  0  0
    7.6051  -17.0099   23.6973 C   0  0  1  0  0  0  0  0  0  0  0  0
    8.2378  -16.3670   24.8893 C   0  0  0  0  0  0  0  0  0  0  0  0
    7.3045  -15.3979   25.4835 C   0  0  0  0  0  0  0  0  0  0  0  0
    6.0865  -15.6735   26.1178 C   0  0  0  0  0  0  0  0  0  0  0  0
    5.5486  -14.5256   26.5570 N   0  0  0  0  0  0  0  0  0  0  0  0
    6.3547  -13.4986   26.2424 C   0  0  0  0  0  0  0  0  0  0  0  0
    6.2844  -12.1426   26.4403 C   0  0  0  0  0  0  0  0  0  0  0  0
    7.2795  -11.2968   25.9872 C   0  0  0  0  0  0  0  0  0  0  0  0
    8.3554  -11.8200   25.3285 C   0  0  0  0  0  0  0  0  0  0  0  0
    8.4342  -13.1808   25.1257 C   0  0  0  0  0  0  0  0  0  0  0  0
    7.4605  -14.0350   25.5673 C   0  0  0  0  0  0  0  0  0  0  0  0
    8.6168  -17.5026   22.7239 C   0  0  0  0  0  0  0  0  0  0  0  0
    8.7528  -18.7615   22.6671 O   0  0  0  0  0  0  0  0  0  0  0  0
    9.4052  -16.7081   21.8915 N   0  0  0  0  0  0  0  0  0  0  0  0
   10.3527  -17.3474   20.9837 C   0  0  1  0  0  0  0  0  0  0  0  0
   10.5022  -16.3595   19.8349 C   0  0  0  0  0  0  0  0  0  0  0  0
   11.1997  -14.7899   20.3628 S   0  0  0  0  0  0  0  0  0  0  0  0
   11.6725  -17.5134   21.6594 C   0  0  0  0  0  0  0  0  0  0  0  0
   12.7426  -17.5731   20.9661 O   0  0  0  0  0  0  0  0  0  0  0  0
   13.9793  -16.5144   23.3967 C   0  0  0  0  0  0  0  0  0  0  0  0
   13.0113  -17.5605   23.8196 C   0  0  2  0  0  0  0  0  0  0  0  0
   11.7868  -17.6066   23.0666 N   0  0  0  0  0  0  0  0  0  0  0  0
   12.7455  -17.5602   25.3037 C   0  0  0  0  0  0  0  0  0  0  0  0
   12.8237  -18.7079   26.0540 O   0  0  0  0  0  0  0  0  0  0  0  0
   12.4492  -16.4772   25.8386 O   0  0  0  0  0  0  0  0  0  0  0  0
  2  1  1  1
  2 13  1  0
  3  2  1  0
  3  4  1  0
  4  5  2  0
  4 12  1  0
  5  6  1  0
  6  7  1  0
  7  8  2  0
  8  9  1  0
 10  9  2  0
 11 10  1  0
 12 11  2  0
 12  7  1  0
 13 14  2  0
 15 16  1  0
 15 13  1  0
 16 19  1  0
 16 17  1  6
 18 17  1  0
 19 23  1  0
 20 19  2  0
 22 21  1  6
 23 22  1  0
 24 25  1  0
 24 22  1  0
 26 24  2  0
M  END
$$$$
