WCA.pdb
     RDKit          3D

 26 27  0  0  1  0  0  0  0  0999 V2000
    6.2389  -18.1684   23.9780 N   0  0  0  0  0  0  0  0  0  0  0  0
    6.6659  -16.8340   23.7614 C   0  0  1  0  0  0  0  0  0  0  0  0
    7.6099  -16.3545   24.8165 C   0  0  0  0  0  0  0  0  0  0  0  0
    6.9790  -15.2767   25.5934 C   0  0  0  0  0  0  0  0  0  0  0  0
    5.7658  -15.3330   26.2910 C   0  0  0  0  0  0  0  0  0  0  0  0
    5.5536  -14.1576   26.9020 N   0  0  0  0  0  0  0  0  0  0  0  0
    6.5717  -13.3216   26.6410 C   0  0  0  0  0  0  0  0  0  0  0  0
    6.8508  -12.0264   26.9979 C   0  0  0  0  0  0  0  0  0  0  0  0
    7.9994  -11.3919   26.5634 C   0  0  0  0  0  0  0  0  0  0  0  0
    8.8756  -12.0666   25.7619 C   0  0  0  0  0  0  0  0  0  0  0  0
    8.6033  -13.3678   25.3989 C   0  0  0  0  0  0  0  0  0  0  0  0
    7.4727  -14.0140   25.8193 C   0  0  0  0  0  0  0  0  0  0  0  0
    7.1669  -16.5480   22.3900 C   0  0  0  0  0  0  0  0  0  0  0  0
    7.6125  -17.5481   21.7513 O   0  0  0  0  0  0  0  0  0  0  0  0
    7.1834  -15.2988   21.7694 N   0  0  0  0  0  0  0  0  0  0  0  0
    7.8421  -15.1542   20.4749 C   0  0  1  0  0  0  0  0  0  0  0  0
    7.5278  -13.7273   20.0472 C   0  0  0  0  0  0  0  0  0  0  0  0
    8.2792  -13.2992   18.4721 S   0  0  0  0  0  0  0  0  0  0  0  0
    9.3181  -15.3016   20.6354 C   0  0  0  0  0  0  0  0  0  0  0  0
   10.0655  -15.4085   19.6061 O   0  0  0  0  0  0  0  0  0  0  0  0
   11.8234  -14.9684   23.4621 C   0  0  0  0  0  0  0  0  0  0  0  0
   11.3374  -15.5092   22.1653 C   0  0  2  0  0  0  0  0  0  0  0  0
    9.9342  -15.3254   21.9089 N   0  0  0  0  0  0  0  0  0  0  0  0
   11.7599  -16.9355   21.9196 C   0  0  0  0  0  0  0  0  0  0  0  0
   13.0762  -17.3223   21.9830 O   0  0  0  0  0  0  0  0  0  0  0  0
   10.8720  -17.7648   21.6540 O   0  0  0  0  0  0  0  0  0  0  0  0
  2  1  1  6
  2 13  1  0
  3  2  1  0
  3  4  1  0
  4  5  2  0
  4 12  1  0
  5  6  1  0
  6  7  1  0
  7  8  2  0
  8  9  1  0
 10  9  2  0
 11 10  1  0
 12 11  2  0
 12  7  1  0
 13 14  2  0
 15 16  1  0
 15 13  1  0
 16 19  1  0
 16 17  1  1
 18 17  1  0
 19 23  1  0
 20 19  2  0
 22 21  1  1
 23 22  1  0
 24 25  1  0
 24 22  1  0
 26 24  2  0
M  END
$$$$
