WCA.pdb
     RDKit          3D

 26 27  0  0  1  0  0  0  0  0999 V2000
    6.5066  -17.5312   23.4960 N   0  0  0  0  0  0  0  0  0  0  0  0
    7.8075  -16.9711   23.5582 C   0  0  1  0  0  0  0  0  0  0  0  0
    8.1724  -16.5174   24.9348 C   0  0  0  0  0  0  0  0  0  0  0  0
    7.1860  -15.5358   25.4109 C   0  0  0  0  0  0  0  0  0  0  0  0
    5.8690  -15.7862   25.8169 C   0  0  0  0  0  0  0  0  0  0  0  0
    5.3046  -14.6362   26.2157 N   0  0  0  0  0  0  0  0  0  0  0  0
    6.1875  -13.6320   26.0923 C   0  0  0  0  0  0  0  0  0  0  0  0
    6.1318  -12.2839   26.3424 C   0  0  0  0  0  0  0  0  0  0  0  0
    7.2181  -11.4627   26.1054 C   0  0  0  0  0  0  0  0  0  0  0  0
    8.3715  -12.0025   25.6119 C   0  0  0  0  0  0  0  0  0  0  0  0
    8.4363  -13.3555   25.3582 C   0  0  0  0  0  0  0  0  0  0  0  0
    7.3727  -14.1856   25.5870 C   0  0  0  0  0  0  0  0  0  0  0  0
    8.8788  -17.7971   22.9385 C   0  0  0  0  0  0  0  0  0  0  0  0
    8.4872  -18.6508   22.0872 O   0  0  0  0  0  0  0  0  0  0  0  0
   10.2432  -17.7070   23.2140 N   0  0  0  0  0  0  0  0  0  0  0  0
   11.1688  -17.3803   22.1337 C   0  0  1  0  0  0  0  0  0  0  0  0
   10.8315  -15.9415   21.7679 C   0  0  0  0  0  0  0  0  0  0  0  0
   11.4404  -15.4837   20.1405 S   0  0  0  0  0  0  0  0  0  0  0  0
   12.5740  -17.4406   22.6315 C   0  0  0  0  0  0  0  0  0  0  0  0
   13.4761  -16.7191   22.0883 O   0  0  0  0  0  0  0  0  0  0  0  0
   12.8421  -16.4451   25.3560 C   0  0  0  0  0  0  0  0  0  0  0  0
   13.1413  -17.8734   25.0712 C   0  0  2  0  0  0  0  0  0  0  0  0
   12.9527  -18.2811   23.7048 N   0  0  0  0  0  0  0  0  0  0  0  0
   12.4681  -18.8246   26.0277 C   0  0  0  0  0  0  0  0  0  0  0  0
   11.5605  -19.7619   25.5987 O   0  0  0  0  0  0  0  0  0  0  0  0
   12.7606  -18.7370   27.2333 O   0  0  0  0  0  0  0  0  0  0  0  0
  2  1  1  1
  2 13  1  0
  3  2  1  0
  3  4  1  0
  4  5  2  0
  4 12  1  0
  5  6  1  0
  6  7  1  0
  7  8  2  0
  8  9  1  0
 10  9  2  0
 11 10  1  0
 12 11  2  0
 12  7  1  0
 13 14  2  0
 15 16  1  0
 15 13  1  0
 16 19  1  0
 16 17  1  1
 18 17  1  0
 19 23  1  0
 20 19  2  0
 22 21  1  6
 23 22  1  0
 24 25  1  0
 24 22  1  0
 26 24  2  0
M  END
$$$$
