WCA.pdb
     RDKit          3D

 26 27  0  0  1  0  0  0  0  0999 V2000
    6.5817  -17.3720   24.1245 N   0  0  0  0  0  0  0  0  0  0  0  0
    7.7833  -16.6289   24.2426 C   0  0  1  0  0  0  0  0  0  0  0  0
    7.8100  -15.7705   25.4660 C   0  0  0  0  0  0  0  0  0  0  0  0
    6.6442  -14.8737   25.4677 C   0  0  0  0  0  0  0  0  0  0  0  0
    5.3029  -15.2275   25.6616 C   0  0  0  0  0  0  0  0  0  0  0  0
    4.5457  -14.1205   25.6281 N   0  0  0  0  0  0  0  0  0  0  0  0
    5.3239  -13.0460   25.4198 C   0  0  0  0  0  0  0  0  0  0  0  0
    5.0725  -11.7031   25.2926 C   0  0  0  0  0  0  0  0  0  0  0  0
    6.0925  -10.7986   25.0643 C   0  0  0  0  0  0  0  0  0  0  0  0
    7.3778  -11.2492   24.9629 C   0  0  0  0  0  0  0  0  0  0  0  0
    7.6393  -12.5963   25.0898 C   0  0  0  0  0  0  0  0  0  0  0  0
    6.6441  -13.5076   25.3170 C   0  0  0  0  0  0  0  0  0  0  0  0
    9.0322  -17.4227   24.0882 C   0  0  0  0  0  0  0  0  0  0  0  0
    9.0226  -18.2807   23.1552 O   0  0  0  0  0  0  0  0  0  0  0  0
   10.1815  -17.2989   24.8690 N   0  0  0  0  0  0  0  0  0  0  0  0
   11.4248  -17.9102   24.4099 C   0  0  1  0  0  0  0  0  0  0  0  0
   11.7837  -17.1374   23.1483 C   0  0  0  0  0  0  0  0  0  0  0  0
   12.2909  -15.4490   23.4959 S   0  0  0  0  0  0  0  0  0  0  0  0
   12.4973  -17.7087   25.4274 C   0  0  0  0  0  0  0  0  0  0  0  0
   13.6824  -18.1238   25.1978 O   0  0  0  0  0  0  0  0  0  0  0  0
   12.4575  -16.5225   29.0633 C   0  0  0  0  0  0  0  0  0  0  0  0
   12.8048  -17.4259   27.9347 C   0  0  2  0  0  0  0  0  0  0  0  0
   12.2478  -17.0605   26.6600 N   0  0  0  0  0  0  0  0  0  0  0  0
   12.5658  -18.8822   28.2430 C   0  0  0  0  0  0  0  0  0  0  0  0
   11.7959  -19.6780   27.4305 O   0  0  0  0  0  0  0  0  0  0  0  0
   13.0920  -19.3510   29.2678 O   0  0  0  0  0  0  0  0  0  0  0  0
  2  1  1  1
  2 13  1  0
  3  2  1  0
  3  4  1  0
  4  5  2  0
  4 12  1  0
  5  6  1  0
  6  7  1  0
  7  8  2  0
  8  9  1  0
 10  9  2  0
 11 10  1  0
 12 11  2  0
 12  7  1  0
 13 14  2  0
 15 16  1  0
 15 13  1  0
 16 19  1  0
 16 17  1  6
 18 17  1  0
 19 23  1  0
 20 19  2  0
 22 21  1  1
 23 22  1  0
 24 25  1  0
 24 22  1  0
 26 24  2  0
M  END
$$$$
