WCA.pdb
     RDKit          3D

 26 27  0  0  1  0  0  0  0  0999 V2000
    6.8955  -17.3180   23.8696 N   0  0  0  0  0  0  0  0  0  0  0  0
    7.9760  -16.4289   23.6421 C   0  0  1  0  0  0  0  0  0  0  0  0
    8.4630  -15.7830   24.8991 C   0  0  0  0  0  0  0  0  0  0  0  0
    7.3882  -14.9687   25.4864 C   0  0  0  0  0  0  0  0  0  0  0  0
    6.1885  -15.4255   26.0469 C   0  0  0  0  0  0  0  0  0  0  0  0
    5.4895  -14.3768   26.5068 N   0  0  0  0  0  0  0  0  0  0  0  0
    6.1707  -13.2427   26.2765 C   0  0  0  0  0  0  0  0  0  0  0  0
    5.9191  -11.9174   26.5278 C   0  0  0  0  0  0  0  0  0  0  0  0
    6.8168  -10.9324   26.1611 C   0  0  0  0  0  0  0  0  0  0  0  0
    7.9789  -11.2838   25.5354 C   0  0  0  0  0  0  0  0  0  0  0  0
    8.2398  -12.6125   25.2795 C   0  0  0  0  0  0  0  0  0  0  0  0
    7.3648  -13.6026   25.6354 C   0  0  0  0  0  0  0  0  0  0  0  0
    9.0914  -16.9880   22.8315 C   0  0  0  0  0  0  0  0  0  0  0  0
    9.4038  -18.1896   23.0871 O   0  0  0  0  0  0  0  0  0  0  0  0
    9.8001  -16.3111   21.8389 N   0  0  0  0  0  0  0  0  0  0  0  0
   10.9568  -16.9544   21.2238 C   0  0  1  0  0  0  0  0  0  0  0  0
   11.2167  -16.1415   19.9631 C   0  0  0  0  0  0  0  0  0  0  0  0
   11.4247  -14.3895   20.3041 S   0  0  0  0  0  0  0  0  0  0  0  0
   12.1397  -16.8462   22.1267 C   0  0  0  0  0  0  0  0  0  0  0  0
   12.4023  -15.7395   22.7062 O   0  0  0  0  0  0  0  0  0  0  0  0
   14.1762  -19.1622   24.1714 C   0  0  0  0  0  0  0  0  0  0  0  0
   14.1015  -17.9645   23.2937 C   0  0  2  0  0  0  0  0  0  0  0  0
   12.9970  -17.9445   22.3726 N   0  0  0  0  0  0  0  0  0  0  0  0
   15.4031  -17.6533   22.5996 C   0  0  0  0  0  0  0  0  0  0  0  0
   15.4949  -17.5788   21.2313 O   0  0  0  0  0  0  0  0  0  0  0  0
   16.4066  -17.4629   23.3093 O   0  0  0  0  0  0  0  0  0  0  0  0
  2  1  1  1
  2 13  1  0
  3  2  1  0
  3  4  1  0
  4  5  2  0
  4 12  1  0
  5  6  1  0
  6  7  1  0
  7  8  2  0
  8  9  1  0
 10  9  2  0
 11 10  1  0
 12 11  2  0
 12  7  1  0
 13 14  2  0
 15 16  1  0
 15 13  1  0
 16 19  1  0
 16 17  1  6
 18 17  1  0
 19 23  1  0
 20 19  2  0
 22 21  1  6
 23 22  1  0
 24 25  1  0
 24 22  1  0
 26 24  2  0
M  END
$$$$
