WCA.pdb
     RDKit          3D

 26 27  0  0  1  0  0  0  0  0999 V2000
    5.9547  -17.9811   24.5170 N   0  0  0  0  0  0  0  0  0  0  0  0
    6.8293  -16.9008   24.2378 C   0  0  1  0  0  0  0  0  0  0  0  0
    7.5416  -16.4086   25.4563 C   0  0  0  0  0  0  0  0  0  0  0  0
    6.8140  -15.2653   26.0279 C   0  0  0  0  0  0  0  0  0  0  0  0
    5.6139  -15.2994   26.7493 C   0  0  0  0  0  0  0  0  0  0  0  0
    5.2934  -14.0536   27.1306 N   0  0  0  0  0  0  0  0  0  0  0  0
    6.2268  -13.1924   26.6942 C   0  0  0  0  0  0  0  0  0  0  0  0
    6.3831  -11.8327   26.7929 C   0  0  0  0  0  0  0  0  0  0  0  0
    7.4650  -11.1895   26.2216 C   0  0  0  0  0  0  0  0  0  0  0  0
    8.3985  -11.9208   25.5441 C   0  0  0  0  0  0  0  0  0  0  0  0
    8.2495  -13.2869   25.4403 C   0  0  0  0  0  0  0  0  0  0  0  0
    7.1866  -13.9426   25.9997 C   0  0  0  0  0  0  0  0  0  0  0  0
    7.7584  -17.1217   23.0970 C   0  0  0  0  0  0  0  0  0  0  0  0
    8.2906  -18.2707   23.0401 O   0  0  0  0  0  0  0  0  0  0  0  0
    8.0801  -16.1880   22.1118 N   0  0  0  0  0  0  0  0  0  0  0  0
    9.0653  -16.5369   21.0929 C   0  0  1  0  0  0  0  0  0  0  0  0
    8.7592  -15.5994   19.9331 C   0  0  0  0  0  0  0  0  0  0  0  0
    8.4894  -13.9058   20.4693 S   0  0  0  0  0  0  0  0  0  0  0  0
   10.4410  -16.2559   21.5975 C   0  0  0  0  0  0  0  0  0  0  0  0
   10.6175  -15.4051   22.5326 O   0  0  0  0  0  0  0  0  0  0  0  0
   13.4345  -15.2954   21.3179 C   0  0  0  0  0  0  0  0  0  0  0  0
   12.9426  -16.6897   21.4746 C   0  0  2  0  0  0  0  0  0  0  0  0
   11.5797  -16.9104   21.0714 N   0  0  0  0  0  0  0  0  0  0  0  0
   13.2128  -17.2659   22.8413 C   0  0  0  0  0  0  0  0  0  0  0  0
   14.1554  -18.2446   23.0415 O   0  0  0  0  0  0  0  0  0  0  0  0
   12.5500  -16.8252   23.7969 O   0  0  0  0  0  0  0  0  0  0  0  0
  2  1  1  1
  2 13  1  0
  3  2  1  0
  3  4  1  0
  4  5  2  0
  4 12  1  0
  5  6  1  0
  6  7  1  0
  7  8  2  0
  8  9  1  0
 10  9  2  0
 11 10  1  0
 12 11  2  0
 12  7  1  0
 13 14  2  0
 15 16  1  0
 15 13  1  0
 16 19  1  0
 16 17  1  6
 18 17  1  0
 19 23  1  0
 20 19  2  0
 22 21  1  1
 23 22  1  0
 24 25  1  0
 24 22  1  0
 26 24  2  0
M  END
$$$$
