WCA.pdb
     RDKit          3D

 26 27  0  0  1  0  0  0  0  0999 V2000
    5.7668  -18.1178   23.7538 N   0  0  0  0  0  0  0  0  0  0  0  0
    6.3657  -16.8418   23.6019 C   0  0  1  0  0  0  0  0  0  0  0  0
    7.3346  -16.5280   24.6961 C   0  0  0  0  0  0  0  0  0  0  0  0
    6.8683  -15.3540   25.4494 C   0  0  0  0  0  0  0  0  0  0  0  0
    5.6093  -15.1675   26.0343 C   0  0  0  0  0  0  0  0  0  0  0  0
    5.5866  -13.9825   26.6630 N   0  0  0  0  0  0  0  0  0  0  0  0
    6.7744  -13.3722   26.5216 C   0  0  0  0  0  0  0  0  0  0  0  0
    7.2787  -12.1684   26.9451 C   0  0  0  0  0  0  0  0  0  0  0  0
    8.5686  -11.7797   26.6358 C   0  0  0  0  0  0  0  0  0  0  0  0
    9.3589  -12.6099   25.8931 C   0  0  0  0  0  0  0  0  0  0  0  0
    8.8606  -13.8210   25.4640 C   0  0  0  0  0  0  0  0  0  0  0  0
    7.5871  -14.2246   25.7605 C   0  0  0  0  0  0  0  0  0  0  0  0
    6.9354  -16.5700   22.2546 C   0  0  0  0  0  0  0  0  0  0  0  0
    7.2967  -17.5921   21.5977 O   0  0  0  0  0  0  0  0  0  0  0  0
    7.0978  -15.3121   21.6740 N   0  0  0  0  0  0  0  0  0  0  0  0
    7.7713  -15.2037   20.3837 C   0  0  1  0  0  0  0  0  0  0  0  0
    7.4628  -13.7892   19.9129 C   0  0  0  0  0  0  0  0  0  0  0  0
    8.3184  -13.3683   18.3898 S   0  0  0  0  0  0  0  0  0  0  0  0
    9.2453  -15.3471   20.5651 C   0  0  0  0  0  0  0  0  0  0  0  0
   10.0120  -15.4059   19.5462 O   0  0  0  0  0  0  0  0  0  0  0  0
   11.6655  -14.8554   23.4137 C   0  0  0  0  0  0  0  0  0  0  0  0
   11.2488  -15.4681   22.1247 C   0  0  2  0  0  0  0  0  0  0  0  0
    9.8383  -15.4194   21.8476 N   0  0  0  0  0  0  0  0  0  0  0  0
   11.8031  -16.8548   21.9183 C   0  0  0  0  0  0  0  0  0  0  0  0
   13.1495  -17.1154   21.9922 O   0  0  0  0  0  0  0  0  0  0  0  0
   10.9970  -17.7704   21.6759 O   0  0  0  0  0  0  0  0  0  0  0  0
  2  1  1  6
  2 13  1  0
  3  2  1  0
  3  4  1  0
  4  5  2  0
  4 12  1  0
  5  6  1  0
  6  7  1  0
  7  8  2  0
  8  9  1  0
 10  9  2  0
 11 10  1  0
 12 11  2  0
 12  7  1  0
 13 14  2  0
 15 16  1  0
 15 13  1  0
 16 19  1  0
 16 17  1  1
 18 17  1  0
 19 23  1  0
 20 19  2  0
 22 21  1  1
 23 22  1  0
 24 25  1  0
 24 22  1  0
 26 24  2  0
M  END
$$$$
