WCA.pdb
     RDKit          3D

 26 27  0  0  1  0  0  0  0  0999 V2000
    6.3283  -18.0988   24.0920 N   0  0  0  0  0  0  0  0  0  0  0  0
    7.0287  -16.9050   23.7852 C   0  0  1  0  0  0  0  0  0  0  0  0
    7.8109  -16.3831   24.9472 C   0  0  0  0  0  0  0  0  0  0  0  0
    7.0404  -15.3344   25.6325 C   0  0  0  0  0  0  0  0  0  0  0  0
    5.8160  -15.4796   26.2971 C   0  0  0  0  0  0  0  0  0  0  0  0
    5.4570  -14.2985   26.8226 N   0  0  0  0  0  0  0  0  0  0  0  0
    6.3880  -13.3740   26.5363 C   0  0  0  0  0  0  0  0  0  0  0  0
    6.5133  -12.0362   26.8147 C   0  0  0  0  0  0  0  0  0  0  0  0
    7.6019  -11.3081   26.3725 C   0  0  0  0  0  0  0  0  0  0  0  0
    8.5737  -11.9316   25.6430 C   0  0  0  0  0  0  0  0  0  0  0  0
    8.4560  -13.2750   25.3591 C   0  0  0  0  0  0  0  0  0  0  0  0
    7.3871  -14.0136   25.7886 C   0  0  0  0  0  0  0  0  0  0  0  0
    7.8414  -16.9542   22.5399 C   0  0  0  0  0  0  0  0  0  0  0  0
    8.2289  -18.1078   22.1854 O   0  0  0  0  0  0  0  0  0  0  0  0
    8.1997  -15.8591   21.7536 N   0  0  0  0  0  0  0  0  0  0  0  0
    9.0641  -16.0650   20.5956 C   0  0  1  0  0  0  0  0  0  0  0  0
    8.7906  -14.8643   19.7004 C   0  0  0  0  0  0  0  0  0  0  0  0
    7.0460  -14.4393   19.6324 S   0  0  0  0  0  0  0  0  0  0  0  0
   10.4949  -16.0429   21.0181 C   0  0  0  0  0  0  0  0  0  0  0  0
   11.4207  -16.1496   20.1457 O   0  0  0  0  0  0  0  0  0  0  0  0
   12.4585  -15.2481   24.1539 C   0  0  0  0  0  0  0  0  0  0  0  0
   12.2120  -15.9941   22.8917 C   0  0  2  0  0  0  0  0  0  0  0  0
   10.8731  -15.9029   22.3743 N   0  0  0  0  0  0  0  0  0  0  0  0
   12.6863  -17.4242   22.9434 C   0  0  0  0  0  0  0  0  0  0  0  0
   11.8460  -18.4764   22.6731 O   0  0  0  0  0  0  0  0  0  0  0  0
   13.8761  -17.6293   23.2418 O   0  0  0  0  0  0  0  0  0  0  0  0
  2  1  1  1
  2 13  1  0
  3  2  1  0
  3  4  1  0
  4  5  2  0
  4 12  1  0
  5  6  1  0
  6  7  1  0
  7  8  2  0
  8  9  1  0
 10  9  2  0
 11 10  1  0
 12 11  2  0
 12  7  1  0
 13 14  2  0
 15 16  1  0
 15 13  1  0
 16 19  1  0
 16 17  1  6
 18 17  1  0
 19 23  1  0
 20 19  2  0
 22 21  1  1
 23 22  1  0
 24 25  1  0
 24 22  1  0
 26 24  2  0
M  END
$$$$
