WCA.pdb
     RDKit          3D

 26 27  0  0  1  0  0  0  0  0999 V2000
    8.7125  -15.7581   21.1964 N   0  0  0  0  0  0  0  0  0  0  0  0
    8.8853  -15.8638   22.5996 C   0  0  1  0  0  0  0  0  0  0  0  0
    7.5858  -15.9361   23.3346 C   0  0  0  0  0  0  0  0  0  0  0  0
    7.1171  -14.5775   23.6475 C   0  0  0  0  0  0  0  0  0  0  0  0
    6.3921  -13.7178   22.8125 C   0  0  0  0  0  0  0  0  0  0  0  0
    6.1232  -12.5827   23.4753 N   0  0  0  0  0  0  0  0  0  0  0  0
    6.6379  -12.6491   24.7139 C   0  0  0  0  0  0  0  0  0  0  0  0
    6.6620  -11.7839   25.7787 C   0  0  0  0  0  0  0  0  0  0  0  0
    7.2919  -12.1177   26.9630 C   0  0  0  0  0  0  0  0  0  0  0  0
    7.9037  -13.3334   27.0773 C   0  0  0  0  0  0  0  0  0  0  0  0
    7.8840  -14.2086   26.0130 C   0  0  0  0  0  0  0  0  0  0  0  0
    7.2650  -13.8977   24.8328 C   0  0  0  0  0  0  0  0  0  0  0  0
    9.8366  -16.9201   23.0388 C   0  0  0  0  0  0  0  0  0  0  0  0
   10.1982  -17.7379   22.1404 O   0  0  0  0  0  0  0  0  0  0  0  0
   10.3478  -17.0756   24.3274 N   0  0  0  0  0  0  0  0  0  0  0  0
   11.2700  -18.1733   24.6012 C   0  0  1  0  0  0  0  0  0  0  0  0
   12.5455  -17.7894   23.8640 C   0  0  0  0  0  0  0  0  0  0  0  0
   13.0556  -16.1003   24.2040 S   0  0  0  0  0  0  0  0  0  0  0  0
   11.5549  -18.2462   26.0639 C   0  0  0  0  0  0  0  0  0  0  0  0
   12.0162  -17.2260   26.6769 O   0  0  0  0  0  0  0  0  0  0  0  0
   10.8625  -20.7596   28.8409 C   0  0  0  0  0  0  0  0  0  0  0  0
   11.5226  -19.5756   28.2302 C   0  0  2  0  0  0  0  0  0  0  0  0
   11.3268  -19.4244   26.8134 N   0  0  0  0  0  0  0  0  0  0  0  0
   12.9782  -19.4484   28.6017 C   0  0  0  0  0  0  0  0  0  0  0  0
   13.3767  -19.1735   29.8869 O   0  0  0  0  0  0  0  0  0  0  0  0
   13.8214  -19.6012   27.7002 O   0  0  0  0  0  0  0  0  0  0  0  0
  2  1  1  6
  2 13  1  0
  3  2  1  0
  3  4  1  0
  4  5  2  0
  4 12  1  0
  5  6  1  0
  6  7  1  0
  7  8  2  0
  8  9  1  0
 10  9  2  0
 11 10  1  0
 12 11  2  0
 12  7  1  0
 13 14  2  0
 15 16  1  0
 15 13  1  0
 16 19  1  0
 16 17  1  6
 18 17  1  0
 19 23  1  0
 20 19  2  0
 22 21  1  6
 23 22  1  0
 24 25  1  0
 24 22  1  0
 26 24  2  0
M  END
$$$$
