WCA.pdb
     RDKit          3D

 26 27  0  0  1  0  0  0  0  0999 V2000
    6.5230  -17.0804   23.2741 N   0  0  0  0  0  0  0  0  0  0  0  0
    7.7791  -16.4234   23.3013 C   0  0  1  0  0  0  0  0  0  0  0  0
    8.2382  -16.1193   24.6909 C   0  0  0  0  0  0  0  0  0  0  0  0
    7.2944  -15.1917   25.3329 C   0  0  0  0  0  0  0  0  0  0  0  0
    6.0399  -15.4993   25.8747 C   0  0  0  0  0  0  0  0  0  0  0  0
    5.5024  -14.3881   26.4004 N   0  0  0  0  0  0  0  0  0  0  0  0
    6.3435  -13.3549   26.2316 C   0  0  0  0  0  0  0  0  0  0  0  0
    6.2895  -12.0242   26.5618 C   0  0  0  0  0  0  0  0  0  0  0  0
    7.3230  -11.1621   26.2465 C   0  0  0  0  0  0  0  0  0  0  0  0
    8.4213  -11.6431   25.5926 C   0  0  0  0  0  0  0  0  0  0  0  0
    8.4840  -12.9784   25.2576 C   0  0  0  0  0  0  0  0  0  0  0  0
    7.4723  -13.8482   25.5616 C   0  0  0  0  0  0  0  0  0  0  0  0
    8.8448  -17.0689   22.4881 C   0  0  0  0  0  0  0  0  0  0  0  0
    8.7720  -18.3309   22.3943 O   0  0  0  0  0  0  0  0  0  0  0  0
    9.8891  -16.4108   21.8383 N   0  0  0  0  0  0  0  0  0  0  0  0
   10.8861  -17.1946   21.1157 C   0  0  1  0  0  0  0  0  0  0  0  0
   11.6181  -16.1748   20.2544 C   0  0  0  0  0  0  0  0  0  0  0  0
   12.5751  -15.0088   21.2309 S   0  0  0  0  0  0  0  0  0  0  0  0
   11.8506  -17.8029   22.0779 C   0  0  0  0  0  0  0  0  0  0  0  0
   12.8410  -18.4829   21.6463 O   0  0  0  0  0  0  0  0  0  0  0  0
   14.0140  -18.0778   24.2610 C   0  0  0  0  0  0  0  0  0  0  0  0
   12.5527  -18.2412   24.4812 C   0  0  2  0  0  0  0  0  0  0  0  0
   11.7091  -17.6503   23.4773 N   0  0  0  0  0  0  0  0  0  0  0  0
   12.1129  -17.8511   25.8695 C   0  0  0  0  0  0  0  0  0  0  0  0
   11.0477  -17.0109   26.0828 O   0  0  0  0  0  0  0  0  0  0  0  0
   12.7495  -18.3173   26.8309 O   0  0  0  0  0  0  0  0  0  0  0  0
  2  1  1  1
  2 13  1  0
  3  2  1  0
  3  4  1  0
  4  5  2  0
  4 12  1  0
  5  6  1  0
  6  7  1  0
  7  8  2  0
  8  9  1  0
 10  9  2  0
 11 10  1  0
 12 11  2  0
 12  7  1  0
 13 14  2  0
 15 16  1  0
 15 13  1  0
 16 19  1  0
 16 17  1  6
 18 17  1  0
 19 23  1  0
 20 19  2  0
 22 21  1  6
 23 22  1  0
 24 25  1  0
 24 22  1  0
 26 24  2  0
M  END
$$$$
