LRS.pdb
     RDKit          3D

 26 25  0  0  1  0  0  0  0  0999 V2000
   27.6643  -19.8462  -20.6879 C   0  0  0  0  0  0  0  0  0  0  0  0
   27.3292  -19.0544  -19.4248 C   0  0  1  0  0  0  0  0  0  0  0  0
   27.2246  -17.5872  -19.7340 C   0  0  0  0  0  0  0  0  0  0  0  0
   26.0308  -19.6334  -18.8999 C   0  0  0  0  0  0  0  0  0  0  0  0
   25.6300  -18.9110  -17.6560 C   0  0  2  0  0  0  0  0  0  0  0  0
   26.7706  -18.7490  -16.8040 N   0  0  0  0  0  0  0  0  0  0  0  0
   24.4772  -19.5548  -16.9682 C   0  0  0  0  0  0  0  0  0  0  0  0
   23.4546  -19.9078  -17.6235 O   0  0  0  0  0  0  0  0  0  0  0  0
   21.9917  -19.5801   -9.5387 N   0  0  0  0  0  0  0  0  0  0  0  0
   22.3159  -20.9400   -9.7863 C   0  0  0  0  0  0  0  0  0  0  0  0
   21.6178  -21.8695   -9.2167 N   0  0  0  0  0  0  0  0  0  0  0  0
   23.3759  -21.3463  -10.6320 N   0  0  0  0  0  0  0  0  0  0  0  0
   24.3251  -20.4569  -11.2538 C   0  0  0  0  0  0  0  0  0  0  0  0
   23.8319  -19.8395  -12.5291 C   0  0  0  0  0  0  0  0  0  0  0  0
   23.7107  -20.9098  -13.5699 C   0  0  0  0  0  0  0  0  0  0  0  0
   23.2600  -20.4367  -14.9282 C   0  0  2  0  0  0  0  0  0  0  0  0
   24.4570  -19.8043  -15.5723 N   0  0  0  0  0  0  0  0  0  0  0  0
   22.2038  -19.4042  -14.8490 C   0  0  0  0  0  0  0  0  0  0  0  0
   22.5265  -18.1791  -15.0103 O   0  0  0  0  0  0  0  0  0  0  0  0
   21.7736  -22.8824   -9.3905 O   0  0  0  0  0  0  0  0  0  0  0  0
   20.3864  -16.8166  -15.7528 C   0  0  0  0  0  0  0  0  0  0  0  0
   20.3913  -18.0461  -16.3984 C   0  0  2  0  0  0  0  0  0  0  0  0
   19.8170  -19.1030  -15.4860 N   0  0  0  0  0  0  0  0  0  0  0  0
   20.8498  -19.6718  -14.6100 C   0  0  0  0  0  0  0  0  0  0  0  0
   19.1480  -20.1700  -16.2666 O   0  0  0  0  0  0  0  0  0  0  0  0
   19.8415  -20.9053  -16.9896 O   0  0  0  0  0  0  0  0  0  0  0  0
  2  1  1  6
  3  2  1  0
  4  2  1  0
  4  5  1  0
  5  6  1  1
  7  8  2  0
  7  5  1  0
  9 10  1  0
 10 12  1  0
 11 10  2  0
 12 13  1  0
 13 14  1  0
 14 15  1  0
 16 15  1  1
 16 17  1  0
 17  7  1  0
 18 16  1  0
 19 18  2  0
 21 20  1  0
 22 21  1  1
 22 23  1  0
 23 18  1  0
 24 22  1  0
 25 24  2  0
 26 24  1  0
M  END
$$$$
