LRS.pdb
     RDKit          3D

 26 25  0  0  1  0  0  0  0  0999 V2000
   15.7378  -15.6824  -15.6482 C   0  0  0  0  0  0  0  0  0  0  0  0
   16.0756  -14.3886  -16.3876 C   0  0  1  0  0  0  0  0  0  0  0  0
   14.9046  -13.4465  -16.3646 C   0  0  0  0  0  0  0  0  0  0  0  0
   17.2968  -13.8175  -15.6955 C   0  0  0  0  0  0  0  0  0  0  0  0
   17.6735  -12.5229  -16.3375 C   0  0  2  0  0  0  0  0  0  0  0  0
   17.8982  -12.7269  -17.7378 N   0  0  0  0  0  0  0  0  0  0  0  0
   18.8183  -11.8593  -15.6554 C   0  0  0  0  0  0  0  0  0  0  0  0
   18.7806  -11.6328  -14.4117 O   0  0  0  0  0  0  0  0  0  0  0  0
   27.4751  -12.7335  -17.1835 N   0  0  0  0  0  0  0  0  0  0  0  0
   27.3512  -11.5699  -16.3795 C   0  0  0  0  0  0  0  0  0  0  0  0
   28.4135  -10.8934  -16.0798 N   0  0  0  0  0  0  0  0  0  0  0  0
   26.1148  -11.0987  -15.8767 N   0  0  0  0  0  0  0  0  0  0  0  0
   24.8212  -11.6222  -16.2391 C   0  0  0  0  0  0  0  0  0  0  0  0
   23.6714  -10.8235  -15.6999 C   0  0  0  0  0  0  0  0  0  0  0  0
   22.3905  -11.4342  -16.1794 C   0  0  0  0  0  0  0  0  0  0  0  0
   21.1359  -10.8364  -15.5959 C   0  0  2  0  0  0  0  0  0  0  0  0
   19.9902  -11.4511  -16.3421 N   0  0  0  0  0  0  0  0  0  0  0  0
   21.0580   -9.3728  -15.7945 C   0  0  0  0  0  0  0  0  0  0  0  0
   20.9013   -8.9191  -16.9780 O   0  0  0  0  0  0  0  0  0  0  0  0
   28.4074  -10.0931  -15.4165 O   0  0  0  0  0  0  0  0  0  0  0  0
   19.6922   -5.1070  -15.3459 C   0  0  0  0  0  0  0  0  0  0  0  0
   19.6866   -6.4843  -15.1682 C   0  0  1  0  0  0  0  0  0  0  0  0
   21.1054   -6.9916  -15.0726 N   0  0  0  0  0  0  0  0  0  0  0  0
   21.1403   -8.4273  -14.7642 C   0  0  0  0  0  0  0  0  0  0  0  0
   21.8764   -6.2223  -14.0681 O   0  0  0  0  0  0  0  0  0  0  0  0
   22.3517   -6.8246  -13.0906 O   0  0  0  0  0  0  0  0  0  0  0  0
  2  1  1  1
  3  2  1  0
  4  2  1  0
  4  5  1  0
  5  6  1  6
  7  8  2  0
  7  5  1  0
  9 10  1  0
 10 12  1  0
 11 10  2  0
 12 13  1  0
 13 14  1  0
 14 15  1  0
 16 15  1  6
 16 17  1  0
 17  7  1  0
 18 16  1  0
 19 18  2  0
 21 20  1  0
 22 21  1  6
 22 23  1  0
 23 18  1  0
 24 22  1  0
 25 24  2  0
 26 24  1  0
M  END
$$$$
