LRS.pdb
     RDKit          3D

 26 25  0  0  1  0  0  0  0  0999 V2000
   24.8746  -21.5706   -8.1121 C   0  0  0  0  0  0  0  0  0  0  0  0
   25.4513  -20.9432   -9.3804 C   0  0  1  0  0  0  0  0  0  0  0  0
   26.2348  -21.9597  -10.1627 C   0  0  0  0  0  0  0  0  0  0  0  0
   24.2673  -20.3987  -10.1538 C   0  0  0  0  0  0  0  0  0  0  0  0
   24.7484  -19.7494  -11.4095 C   0  0  2  0  0  0  0  0  0  0  0  0
   25.5853  -18.6327  -11.0844 N   0  0  0  0  0  0  0  0  0  0  0  0
   23.6345  -19.3925  -12.3306 C   0  0  0  0  0  0  0  0  0  0  0  0
   22.8596  -18.4308  -12.0582 O   0  0  0  0  0  0  0  0  0  0  0  0
   22.2368  -21.7459  -18.4443 N   0  0  0  0  0  0  0  0  0  0  0  0
   21.7726  -20.7778  -19.3733 C   0  0  0  0  0  0  0  0  0  0  0  0
   21.0436  -21.1601  -20.3724 N   0  0  0  0  0  0  0  0  0  0  0  0
   22.0657  -19.3968  -19.2707 N   0  0  0  0  0  0  0  0  0  0  0  0
   22.6888  -18.7658  -18.1340 C   0  0  0  0  0  0  0  0  0  0  0  0
   21.9328  -18.9461  -16.8507 C   0  0  0  0  0  0  0  0  0  0  0  0
   22.8758  -19.4443  -15.7991 C   0  0  0  0  0  0  0  0  0  0  0  0
   22.2616  -19.6730  -14.4418 C   0  0  2  0  0  0  0  0  0  0  0  0
   23.3817  -20.0922  -13.5380 N   0  0  0  0  0  0  0  0  0  0  0  0
   21.2647  -20.7656  -14.4459 C   0  0  0  0  0  0  0  0  0  0  0  0
   21.6721  -21.9710  -14.5563 O   0  0  0  0  0  0  0  0  0  0  0  0
   20.7083  -20.5099  -21.1109 O   0  0  0  0  0  0  0  0  0  0  0  0
   17.6968  -20.7559  -12.5401 C   0  0  0  0  0  0  0  0  0  0  0  0
   17.6035  -21.3378  -13.7976 C   0  0  2  0  0  0  0  0  0  0  0  0
   18.9785  -21.7348  -14.2786 N   0  0  0  0  0  0  0  0  0  0  0  0
   19.8813  -20.5773  -14.3316 C   0  0  0  0  0  0  0  0  0  0  0  0
   18.9055  -22.4017  -15.5997 O   0  0  0  0  0  0  0  0  0  0  0  0
   19.5701  -21.9367  -16.5411 O   0  0  0  0  0  0  0  0  0  0  0  0
  2  1  1  1
  3  2  1  0
  4  2  1  0
  4  5  1  0
  5  6  1  1
  7  8  2  0
  7  5  1  0
  9 10  1  0
 10 12  1  0
 11 10  2  0
 12 13  1  0
 13 14  1  0
 14 15  1  0
 16 15  1  6
 16 17  1  0
 17  7  1  0
 18 16  1  0
 19 18  2  0
 21 20  1  0
 22 21  1  1
 22 23  1  0
 23 18  1  0
 24 22  1  0
 25 24  2  0
 26 24  1  0
M  END
$$$$
