LRS.pdb
     RDKit          3D

 26 25  0  0  1  0  0  0  0  0999 V2000
   22.7952  -15.2597  -20.9707 C   0  0  0  0  0  0  0  0  0  0  0  0
   23.8741  -16.3276  -21.1447 C   0  0  1  0  0  0  0  0  0  0  0  0
   25.2353  -15.7521  -20.8707 C   0  0  0  0  0  0  0  0  0  0  0  0
   23.5120  -17.4478  -20.1904 C   0  0  0  0  0  0  0  0  0  0  0  0
   24.5177  -18.5455  -20.3061 C   0  0  2  0  0  0  0  0  0  0  0  0
   24.4932  -19.0835  -21.6339 N   0  0  0  0  0  0  0  0  0  0  0  0
   24.3511  -19.5856  -19.2541 C   0  0  0  0  0  0  0  0  0  0  0  0
   23.5651  -20.5600  -19.4337 O   0  0  0  0  0  0  0  0  0  0  0  0
   29.1033  -24.5951  -16.5899 N   0  0  0  0  0  0  0  0  0  0  0  0
   29.7484  -23.5173  -17.2517 C   0  0  0  0  0  0  0  0  0  0  0  0
   30.4807  -23.7618  -18.2908 N   0  0  0  0  0  0  0  0  0  0  0  0
   29.6376  -22.1691  -16.8347 N   0  0  0  0  0  0  0  0  0  0  0  0
   28.4908  -21.6001  -16.1715 C   0  0  0  0  0  0  0  0  0  0  0  0
   27.2732  -21.5033  -17.0425 C   0  0  0  0  0  0  0  0  0  0  0  0
   26.2022  -20.7675  -16.2974 C   0  0  0  0  0  0  0  0  0  0  0  0
   24.8831  -20.6509  -17.0173 C   0  0  2  0  0  0  0  0  0  0  0  0
   25.0460  -19.5469  -18.0183 N   0  0  0  0  0  0  0  0  0  0  0  0
   23.7749  -20.2693  -16.1151 C   0  0  0  0  0  0  0  0  0  0  0  0
   23.6342  -19.0402  -15.7977 O   0  0  0  0  0  0  0  0  0  0  0  0
   30.9823  -23.0195  -18.8180 O   0  0  0  0  0  0  0  0  0  0  0  0
   21.4872  -19.4728  -12.6219 C   0  0  0  0  0  0  0  0  0  0  0  0
   22.4279  -19.7587  -13.6027 C   0  0  2  0  0  0  0  0  0  0  0  0
   21.8325  -20.7015  -14.6205 N   0  0  0  0  0  0  0  0  0  0  0  0
   22.8471  -21.1687  -15.5744 C   0  0  0  0  0  0  0  0  0  0  0  0
   20.6992  -20.0656  -15.3323 O   0  0  0  0  0  0  0  0  0  0  0  0
   19.6175  -19.9332  -14.7352 O   0  0  0  0  0  0  0  0  0  0  0  0
  2  1  1  1
  3  2  1  0
  4  2  1  0
  4  5  1  0
  5  6  1  6
  7  8  2  0
  7  5  1  0
  9 10  1  0
 10 12  1  0
 11 10  2  0
 12 13  1  0
 13 14  1  0
 14 15  1  0
 16 15  1  1
 16 17  1  0
 17  7  1  0
 18 16  1  0
 19 18  2  0
 21 20  1  0
 22 21  1  1
 22 23  1  0
 23 18  1  0
 24 22  1  0
 25 24  2  0
 26 24  1  0
M  END
$$$$
