LRS.pdb
     RDKit          3D

 26 25  0  0  1  0  0  0  0  0999 V2000
   14.1851   -5.0344   -7.3718 C   0  0  0  0  0  0  0  0  0  0  0  0
   13.9677   -6.1456   -8.3977 C   0  0  1  0  0  0  0  0  0  0  0  0
   13.1117   -5.6563   -9.5322 C   0  0  0  0  0  0  0  0  0  0  0  0
   15.3491   -6.5724   -8.8517 C   0  0  0  0  0  0  0  0  0  0  0  0
   15.2354   -7.7738   -9.7312 C   0  0  2  0  0  0  0  0  0  0  0  0
   14.8049   -8.8994   -8.9563 N   0  0  0  0  0  0  0  0  0  0  0  0
   16.4831   -8.0394  -10.4989 C   0  0  0  0  0  0  0  0  0  0  0  0
   17.5376   -8.4041   -9.9034 O   0  0  0  0  0  0  0  0  0  0  0  0
   19.4187  -12.2519  -15.5962 N   0  0  0  0  0  0  0  0  0  0  0  0
   18.0119  -12.1860  -15.7764 C   0  0  0  0  0  0  0  0  0  0  0  0
   17.3180  -13.2780  -15.7333 N   0  0  0  0  0  0  0  0  0  0  0  0
   17.3120  -10.9773  -16.0058 N   0  0  0  0  0  0  0  0  0  0  0  0
   17.9278   -9.6857  -16.1826 C   0  0  0  0  0  0  0  0  0  0  0  0
   18.5097   -9.1141  -14.9235 C   0  0  0  0  0  0  0  0  0  0  0  0
   17.4011   -8.8634  -13.9480 C   0  0  0  0  0  0  0  0  0  0  0  0
   17.8246   -8.2493  -12.6383 C   0  0  2  0  0  0  0  0  0  0  0  0
   16.5621   -7.9024  -11.9083 N   0  0  0  0  0  0  0  0  0  0  0  0
   18.5892   -6.9961  -12.8189 C   0  0  0  0  0  0  0  0  0  0  0  0
   17.9509   -5.9094  -13.0263 O   0  0  0  0  0  0  0  0  0  0  0  0
   16.2870  -13.2999  -15.8646 O   0  0  0  0  0  0  0  0  0  0  0  0
   22.7496   -4.5222  -13.1662 C   0  0  0  0  0  0  0  0  0  0  0  0
   22.1549   -5.7557  -12.9352 C   0  0  2  0  0  0  0  0  0  0  0  0
   20.6550   -5.6281  -13.0521 N   0  0  0  0  0  0  0  0  0  0  0  0
   19.9864   -6.9063  -12.7753 C   0  0  0  0  0  0  0  0  0  0  0  0
   20.2695   -5.1149  -14.3875 O   0  0  0  0  0  0  0  0  0  0  0  0
   20.2353   -5.9067  -15.3446 O   0  0  0  0  0  0  0  0  0  0  0  0
  2  1  1  1
  3  2  1  0
  4  2  1  0
  4  5  1  0
  5  6  1  1
  7  8  2  0
  7  5  1  0
  9 10  1  0
 10 12  1  0
 11 10  2  0
 12 13  1  0
 13 14  1  0
 14 15  1  0
 16 15  1  6
 16 17  1  0
 17  7  1  0
 18 16  1  0
 19 18  2  0
 21 20  1  0
 22 21  1  1
 22 23  1  0
 23 18  1  0
 24 22  1  0
 25 24  2  0
 26 24  1  0
M  END
$$$$
