LRS.pdb
     RDKit          3D

 26 25  0  0  1  0  0  0  0  0999 V2000
   27.1079  -18.6371   -6.7826 C   0  0  0  0  0  0  0  0  0  0  0  0
   27.0092  -19.9948   -7.4765 C   0  0  1  0  0  0  0  0  0  0  0  0
   26.0120  -20.8744   -6.7757 C   0  0  0  0  0  0  0  0  0  0  0  0
   26.6221  -19.7039   -8.9124 C   0  0  0  0  0  0  0  0  0  0  0  0
   26.7352  -20.9536   -9.7220 C   0  0  2  0  0  0  0  0  0  0  0  0
   28.0669  -21.4730   -9.6228 N   0  0  0  0  0  0  0  0  0  0  0  0
   26.2881  -20.7646  -11.1293 C   0  0  0  0  0  0  0  0  0  0  0  0
   26.9757  -20.0719  -11.9336 O   0  0  0  0  0  0  0  0  0  0  0  0
   25.0906  -24.6528  -18.4222 N   0  0  0  0  0  0  0  0  0  0  0  0
   26.0789  -24.8655  -17.4254 C   0  0  0  0  0  0  0  0  0  0  0  0
   27.2488  -25.2937  -17.7773 N   0  0  0  0  0  0  0  0  0  0  0  0
   25.8567  -24.6346  -16.0466 N   0  0  0  0  0  0  0  0  0  0  0  0
   24.5953  -24.2469  -15.4658 C   0  0  0  0  0  0  0  0  0  0  0  0
   24.5200  -22.7956  -15.0935 C   0  0  0  0  0  0  0  0  0  0  0  0
   24.8200  -22.6541  -13.6329 C   0  0  0  0  0  0  0  0  0  0  0  0
   24.7698  -21.2449  -13.1004 C   0  0  2  0  0  0  0  0  0  0  0  0
   25.0941  -21.3352  -11.6395 N   0  0  0  0  0  0  0  0  0  0  0  0
   23.4249  -20.6405  -13.2178 C   0  0  0  0  0  0  0  0  0  0  0  0
   22.5361  -20.9420  -12.3516 O   0  0  0  0  0  0  0  0  0  0  0  0
   28.0331  -25.4159  -17.1061 O   0  0  0  0  0  0  0  0  0  0  0  0
   20.1822  -17.7810  -15.4209 C   0  0  0  0  0  0  0  0  0  0  0  0
   21.5044  -18.2026  -15.3674 C   0  0  1  0  0  0  0  0  0  0  0  0
   21.6625  -19.2487  -14.2904 N   0  0  0  0  0  0  0  0  0  0  0  0
   23.0444  -19.7421  -14.2229 C   0  0  0  0  0  0  0  0  0  0  0  0
   20.7166  -20.3701  -14.4981 O   0  0  0  0  0  0  0  0  0  0  0  0
   19.5618  -20.2681  -14.0507 O   0  0  0  0  0  0  0  0  0  0  0  0
  2  1  1  1
  3  2  1  0
  4  2  1  0
  4  5  1  0
  5  6  1  6
  7  8  2  0
  7  5  1  0
  9 10  1  0
 10 12  1  0
 11 10  2  0
 12 13  1  0
 13 14  1  0
 14 15  1  0
 16 15  1  1
 16 17  1  0
 17  7  1  0
 18 16  1  0
 19 18  2  0
 21 20  1  0
 22 21  1  1
 22 23  1  0
 23 18  1  0
 24 22  1  0
 25 24  2  0
 26 24  1  0
M  END
$$$$
