LRS.pdb
     RDKit          3D

 26 25  0  0  1  0  0  0  0  0999 V2000
   17.5033  -18.7664  -19.3222 C   0  0  0  0  0  0  0  0  0  0  0  0
   17.6135  -19.4545  -17.9624 C   0  0  1  0  0  0  0  0  0  0  0  0
   18.1117  -20.8635  -18.1229 C   0  0  0  0  0  0  0  0  0  0  0  0
   18.5482  -18.5967  -17.1336 C   0  0  0  0  0  0  0  0  0  0  0  0
   18.8493  -19.2891  -15.8453 C   0  0  2  0  0  0  0  0  0  0  0  0
   17.7482  -19.1278  -14.9428 N   0  0  0  0  0  0  0  0  0  0  0  0
   20.1494  -18.8631  -15.2584 C   0  0  0  0  0  0  0  0  0  0  0  0
   20.2849  -17.7032  -14.7726 O   0  0  0  0  0  0  0  0  0  0  0  0
   27.1893  -21.4090  -13.3138 N   0  0  0  0  0  0  0  0  0  0  0  0
   27.0589  -21.1290  -11.9281 C   0  0  0  0  0  0  0  0  0  0  0  0
   28.1254  -20.9425  -11.2185 N   0  0  0  0  0  0  0  0  0  0  0  0
   25.8112  -21.0418  -11.2653 N   0  0  0  0  0  0  0  0  0  0  0  0
   24.5245  -21.1159  -11.9114 C   0  0  0  0  0  0  0  0  0  0  0  0
   24.3243  -20.0857  -12.9835 C   0  0  0  0  0  0  0  0  0  0  0  0
   22.9503  -20.2453  -13.5580 C   0  0  0  0  0  0  0  0  0  0  0  0
   22.5701  -19.2302  -14.6053 C   0  0  2  0  0  0  0  0  0  0  0  0
   21.2855  -19.7107  -15.2104 N   0  0  0  0  0  0  0  0  0  0  0  0
   23.5651  -19.1385  -15.6958 C   0  0  0  0  0  0  0  0  0  0  0  0
   23.7392  -20.1487  -16.4575 O   0  0  0  0  0  0  0  0  0  0  0  0
   28.1015  -20.7734  -10.1931 O   0  0  0  0  0  0  0  0  0  0  0  0
   25.8889  -15.7669  -16.6031 C   0  0  0  0  0  0  0  0  0  0  0  0
   25.5337  -16.6357  -17.6266 C   0  0  1  0  0  0  0  0  0  0  0  0
   25.3159  -18.0208  -17.0666 N   0  0  0  0  0  0  0  0  0  0  0  0
   24.3437  -18.0057  -15.9656 C   0  0  0  0  0  0  0  0  0  0  0  0
   26.5965  -18.6210  -16.6249 O   0  0  0  0  0  0  0  0  0  0  0  0
   26.7406  -18.9040  -15.4236 O   0  0  0  0  0  0  0  0  0  0  0  0
  2  1  1  6
  3  2  1  0
  4  2  1  0
  4  5  1  0
  5  6  1  1
  7  8  2  0
  7  5  1  0
  9 10  1  0
 10 12  1  0
 11 10  2  0
 12 13  1  0
 13 14  1  0
 14 15  1  0
 16 15  1  1
 16 17  1  0
 17  7  1  0
 18 16  1  0
 19 18  2  0
 21 20  1  0
 22 21  1  6
 22 23  1  0
 23 18  1  0
 24 22  1  0
 25 24  2  0
 26 24  1  0
M  END
$$$$
