LRS.pdb
     RDKit          3D

 26 25  0  0  1  0  0  0  0  0999 V2000
   27.4544  -17.4754  -17.3343 C   0  0  0  0  0  0  0  0  0  0  0  0
   27.8034  -18.7009  -16.4911 C   0  0  1  0  0  0  0  0  0  0  0  0
   28.7564  -18.3296  -15.3897 C   0  0  0  0  0  0  0  0  0  0  0  0
   26.4866  -19.2369  -15.9664 C   0  0  0  0  0  0  0  0  0  0  0  0
   26.7405  -20.4399  -15.1190 C   0  0  2  0  0  0  0  0  0  0  0  0
   27.3782  -21.4556  -15.9028 N   0  0  0  0  0  0  0  0  0  0  0  0
   25.5121  -20.9225  -14.4301 C   0  0  0  0  0  0  0  0  0  0  0  0
   24.7509  -21.7634  -14.9896 O   0  0  0  0  0  0  0  0  0  0  0  0
   19.9808  -21.2205   -8.5328 N   0  0  0  0  0  0  0  0  0  0  0  0
   21.0405  -21.8688   -7.8453 C   0  0  0  0  0  0  0  0  0  0  0  0
   20.7674  -22.8476   -7.0434 N   0  0  0  0  0  0  0  0  0  0  0  0
   22.4001  -21.5011   -7.9861 N   0  0  0  0  0  0  0  0  0  0  0  0
   22.8902  -20.4642   -8.8598 C   0  0  0  0  0  0  0  0  0  0  0  0
   22.6239  -20.7205  -10.3138 C   0  0  0  0  0  0  0  0  0  0  0  0
   23.9147  -20.6217  -11.0672 C   0  0  0  0  0  0  0  0  0  0  0  0
   23.8172  -20.8930  -12.5466 C   0  0  2  0  0  0  0  0  0  0  0  0
   25.1311  -20.4791  -13.1379 N   0  0  0  0  0  0  0  0  0  0  0  0
   22.7641  -20.0888  -13.2039 C   0  0  0  0  0  0  0  0  0  0  0  0
   22.8991  -18.8198  -13.2542 O   0  0  0  0  0  0  0  0  0  0  0  0
   21.4916  -23.3411   -6.4843 O   0  0  0  0  0  0  0  0  0  0  0  0
   20.3500  -21.3697  -16.1536 C   0  0  0  0  0  0  0  0  0  0  0  0
   20.5754  -20.0163  -15.9389 C   0  0  1  0  0  0  0  0  0  0  0  0
   20.6419  -19.7397  -14.4562 N   0  0  0  0  0  0  0  0  0  0  0  0
   21.6092  -20.6222  -13.7904 C   0  0  0  0  0  0  0  0  0  0  0  0
   19.3036  -19.8664  -13.8331 O   0  0  0  0  0  0  0  0  0  0  0  0
   19.1598  -20.6527  -12.8817 O   0  0  0  0  0  0  0  0  0  0  0  0
  2  1  1  1
  3  2  1  0
  4  2  1  0
  4  5  1  0
  5  6  1  6
  7  8  2  0
  7  5  1  0
  9 10  1  0
 10 12  1  0
 11 10  2  0
 12 13  1  0
 13 14  1  0
 14 15  1  0
 16 15  1  1
 16 17  1  0
 17  7  1  0
 18 16  1  0
 19 18  2  0
 21 20  1  0
 22 21  1  6
 22 23  1  0
 23 18  1  0
 24 22  1  0
 25 24  2  0
 26 24  1  0
M  END
$$$$
