LRS.pdb
     RDKit          3D

 26 25  0  0  1  0  0  0  0  0999 V2000
   22.3494  -27.5813  -15.8991 C   0  0  0  0  0  0  0  0  0  0  0  0
   21.7981  -26.2469  -15.3991 C   0  0  1  0  0  0  0  0  0  0  0  0
   21.5692  -25.3064  -16.5490 C   0  0  0  0  0  0  0  0  0  0  0  0
   20.5215  -26.5751  -14.6514 C   0  0  0  0  0  0  0  0  0  0  0  0
   20.0811  -25.3815  -13.8695 C   0  0  2  0  0  0  0  0  0  0  0  0
   21.2270  -24.6978  -13.3476 N   0  0  0  0  0  0  0  0  0  0  0  0
   19.0805  -25.7231  -12.8215 C   0  0  0  0  0  0  0  0  0  0  0  0
   18.1562  -26.5520  -13.0625 O   0  0  0  0  0  0  0  0  0  0  0  0
   16.8287  -23.9313   -5.4099 N   0  0  0  0  0  0  0  0  0  0  0  0
   17.1646  -25.2116   -4.8963 C   0  0  0  0  0  0  0  0  0  0  0  0
   16.6181  -25.6127   -3.7934 N   0  0  0  0  0  0  0  0  0  0  0  0
   18.0777  -26.0892   -5.5285 N   0  0  0  0  0  0  0  0  0  0  0  0
   18.7997  -25.7978   -6.7419 C   0  0  0  0  0  0  0  0  0  0  0  0
   17.9386  -25.7804   -7.9703 C   0  0  0  0  0  0  0  0  0  0  0  0
   18.8073  -25.5436   -9.1673 C   0  0  0  0  0  0  0  0  0  0  0  0
   18.0920  -25.5619  -10.4939 C   0  0  2  0  0  0  0  0  0  0  0  0
   19.1028  -25.1535  -11.5229 N   0  0  0  0  0  0  0  0  0  0  0  0
   16.9813  -24.5869  -10.5543 C   0  0  0  0  0  0  0  0  0  0  0  0
   17.2575  -23.3416  -10.6195 O   0  0  0  0  0  0  0  0  0  0  0  0
   16.8380  -26.5279   -3.3521 O   0  0  0  0  0  0  0  0  0  0  0  0
   13.0190  -25.5723  -11.2017 C   0  0  0  0  0  0  0  0  0  0  0  0
   13.4724  -24.3127  -11.5709 C   0  0  1  0  0  0  0  0  0  0  0  0
   14.5953  -23.8869  -10.6559 N   0  0  0  0  0  0  0  0  0  0  0  0
   15.6234  -24.9306  -10.5494 C   0  0  0  0  0  0  0  0  0  0  0  0
   14.0779  -23.5241   -9.3157 O   0  0  0  0  0  0  0  0  0  0  0  0
   13.1666  -22.6831   -9.2348 O   0  0  0  0  0  0  0  0  0  0  0  0
  2  1  1  6
  3  2  1  0
  4  2  1  0
  4  5  1  0
  5  6  1  1
  7  8  2  0
  7  5  1  0
  9 10  1  0
 10 12  1  0
 11 10  2  0
 12 13  1  0
 13 14  1  0
 14 15  1  0
 16 15  1  1
 16 17  1  0
 17  7  1  0
 18 16  1  0
 19 18  2  0
 21 20  1  0
 22 21  1  6
 22 23  1  0
 23 18  1  0
 24 22  1  0
 25 24  2  0
 26 24  1  0
M  END
$$$$
