LRS.pdb
     RDKit          3D

 26 25  0  0  1  0  0  0  0  0999 V2000
   27.6163  -12.7147  -15.2672 C   0  0  0  0  0  0  0  0  0  0  0  0
   26.5934  -11.9618  -16.1166 C   0  0  1  0  0  0  0  0  0  0  0  0
   26.4614  -12.5989  -17.4716 C   0  0  0  0  0  0  0  0  0  0  0  0
   25.2974  -11.9873  -15.3317 C   0  0  0  0  0  0  0  0  0  0  0  0
   24.2538  -11.2131  -16.0676 C   0  0  2  0  0  0  0  0  0  0  0  0
   24.8424  -10.0438  -16.6499 N   0  0  0  0  0  0  0  0  0  0  0  0
   23.0674  -10.9073  -15.2218 C   0  0  0  0  0  0  0  0  0  0  0  0
   22.4571  -11.8331  -14.6135 O   0  0  0  0  0  0  0  0  0  0  0  0
   17.8816   -7.1574  -11.8634 N   0  0  0  0  0  0  0  0  0  0  0  0
   18.3755   -5.9500  -11.3029 C   0  0  0  0  0  0  0  0  0  0  0  0
   17.5575   -5.1601  -10.6843 N   0  0  0  0  0  0  0  0  0  0  0  0
   19.7314   -5.5516  -11.3831 N   0  0  0  0  0  0  0  0  0  0  0  0
   20.6937   -6.0769  -12.3194 C   0  0  0  0  0  0  0  0  0  0  0  0
   20.3736   -7.4595  -12.8061 C   0  0  0  0  0  0  0  0  0  0  0  0
   21.4584   -7.9086  -13.7361 C   0  0  0  0  0  0  0  0  0  0  0  0
   21.3619   -9.3425  -14.1906 C   0  0  2  0  0  0  0  0  0  0  0  0
   22.5629   -9.5928  -15.0522 N   0  0  0  0  0  0  0  0  0  0  0  0
   20.1632   -9.5969  -15.0190 C   0  0  0  0  0  0  0  0  0  0  0  0
   20.1890   -9.2763  -16.2550 O   0  0  0  0  0  0  0  0  0  0  0  0
   17.8488   -4.2500  -10.2750 O   0  0  0  0  0  0  0  0  0  0  0  0
   17.7301  -12.3992  -17.1846 C   0  0  0  0  0  0  0  0  0  0  0  0
   18.6777  -11.8178  -16.3523 C   0  0  1  0  0  0  0  0  0  0  0  0
   18.0199  -10.7737  -15.4825 N   0  0  0  0  0  0  0  0  0  0  0  0
   18.9799  -10.1772  -14.5443 C   0  0  0  0  0  0  0  0  0  0  0  0
   16.8624  -11.3439  -14.7540 O   0  0  0  0  0  0  0  0  0  0  0  0
   15.9205  -11.8210  -15.4092 O   0  0  0  0  0  0  0  0  0  0  0  0
  2  1  1  1
  3  2  1  0
  4  2  1  0
  4  5  1  0
  5  6  1  1
  7  8  2  0
  7  5  1  0
  9 10  1  0
 10 12  1  0
 11 10  2  0
 12 13  1  0
 13 14  1  0
 14 15  1  0
 16 15  1  6
 16 17  1  0
 17  7  1  0
 18 16  1  0
 19 18  2  0
 21 20  1  0
 22 21  1  6
 22 23  1  0
 23 18  1  0
 24 22  1  0
 25 24  2  0
 26 24  1  0
M  END
$$$$
