LRS.pdb
     RDKit          3D

 26 25  0  0  1  0  0  0  0  0999 V2000
   15.4411  -22.8037   -0.5549 C   0  0  0  0  0  0  0  0  0  0  0  0
   14.5333  -23.7965   -1.2794 C   0  0  1  0  0  0  0  0  0  0  0  0
   13.7398  -24.6042   -0.2909 C   0  0  0  0  0  0  0  0  0  0  0  0
   13.6542  -22.9687   -2.1950 C   0  0  0  0  0  0  0  0  0  0  0  0
   14.3735  -22.7119   -3.4782 C   0  0  2  0  0  0  0  0  0  0  0  0
   13.5538  -21.9112   -4.3383 N   0  0  0  0  0  0  0  0  0  0  0  0
   14.8475  -23.9649   -4.1276 C   0  0  0  0  0  0  0  0  0  0  0  0
   14.0207  -24.7810   -4.6276 O   0  0  0  0  0  0  0  0  0  0  0  0
   17.0374  -23.7168  -10.6202 N   0  0  0  0  0  0  0  0  0  0  0  0
   17.8741  -23.1105   -9.6465 C   0  0  0  0  0  0  0  0  0  0  0  0
   18.2274  -21.8746   -9.7990 N   0  0  0  0  0  0  0  0  0  0  0  0
   18.3539  -23.7893   -8.5008 N   0  0  0  0  0  0  0  0  0  0  0  0
   18.1374  -25.1859   -8.2157 C   0  0  0  0  0  0  0  0  0  0  0  0
   17.0398  -25.4392   -7.2249 C   0  0  0  0  0  0  0  0  0  0  0  0
   17.6177  -25.4076   -5.8434 C   0  0  0  0  0  0  0  0  0  0  0  0
   16.6336  -25.6585   -4.7296 C   0  0  2  0  0  0  0  0  0  0  0  0
   16.2199  -24.3101   -4.2218 N   0  0  0  0  0  0  0  0  0  0  0  0
   17.2345  -26.3926   -3.5949 C   0  0  0  0  0  0  0  0  0  0  0  0
   18.0245  -25.7704   -2.8075 O   0  0  0  0  0  0  0  0  0  0  0  0
   18.7924  -21.3559   -9.0974 O   0  0  0  0  0  0  0  0  0  0  0  0
   19.7682  -28.8265   -1.1603 C   0  0  0  0  0  0  0  0  0  0  0  0
   19.1674  -28.2136   -2.2520 C   0  0  1  0  0  0  0  0  0  0  0  0
   17.6699  -28.3896   -2.1749 N   0  0  0  0  0  0  0  0  0  0  0  0
   16.9963  -27.7431   -3.3089 C   0  0  0  0  0  0  0  0  0  0  0  0
   17.1414  -27.8742   -0.8901 O   0  0  0  0  0  0  0  0  0  0  0  0
   16.7748  -26.6885   -0.8277 O   0  0  0  0  0  0  0  0  0  0  0  0
  2  1  1  1
  3  2  1  0
  4  2  1  0
  4  5  1  0
  5  6  1  6
  7  8  2  0
  7  5  1  0
  9 10  1  0
 10 12  1  0
 11 10  2  0
 12 13  1  0
 13 14  1  0
 14 15  1  0
 16 15  1  6
 16 17  1  0
 17  7  1  0
 18 16  1  0
 19 18  2  0
 21 20  1  0
 22 21  1  6
 22 23  1  0
 23 18  1  0
 24 22  1  0
 25 24  2  0
 26 24  1  0
M  END
$$$$
