AFV.pdb
     RDKit          3D

 24 24  0  0  1  0  0  0  0  0999 V2000
   19.6193  -14.5986  -20.0609 C   0  0  0  0  0  0  0  0  0  0  0  0
   20.2791  -15.2010  -18.8558 C   0  0  2  0  0  0  0  0  0  0  0  0
   19.8279  -16.5498  -18.5913 N   0  0  0  0  0  0  0  0  0  0  0  0
   19.9859  -14.3105  -17.6825 C   0  0  0  0  0  0  0  0  0  0  0  0
   18.8190  -13.9633  -17.3959 O   0  0  0  0  0  0  0  0  0  0  0  0
   21.0555  -13.8609  -16.8924 N   0  0  0  0  0  0  0  0  0  0  0  0
   20.8858  -13.0441  -15.6983 C   0  0  1  0  0  0  0  0  0  0  0  0
   21.5389  -13.7923  -14.5742 C   0  0  0  0  0  0  0  0  0  0  0  0
   20.7732  -14.9794  -14.1171 C   0  0  0  0  0  0  0  0  0  0  0  0
   19.6835  -14.8502  -13.2920 C   0  0  0  0  0  0  0  0  0  0  0  0
   18.9418  -15.9334  -12.8436 C   0  0  0  0  0  0  0  0  0  0  0  0
   19.3029  -17.2032  -13.2356 C   0  0  0  0  0  0  0  0  0  0  0  0
   20.3953  -17.3532  -14.0647 C   0  0  0  0  0  0  0  0  0  0  0  0
   21.1246  -16.2660  -14.5035 C   0  0  0  0  0  0  0  0  0  0  0  0
   21.3527  -11.6749  -15.8790 C   0  0  0  0  0  0  0  0  0  0  0  0
   22.4803  -11.4548  -16.3888 O   0  0  0  0  0  0  0  0  0  0  0  0
   20.4069   -9.2670  -18.2190 C   0  0  0  0  0  0  0  0  0  0  0  0
   20.2828   -8.5274  -16.9085 C   0  0  1  0  0  0  0  0  0  0  0  0
   18.8414   -8.4774  -16.5119 C   0  0  0  0  0  0  0  0  0  0  0  0
   21.0888   -9.1774  -15.8031 C   0  0  2  0  0  0  0  0  0  0  0  0
   20.6003  -10.5090  -15.5074 N   0  0  0  0  0  0  0  0  0  0  0  0
   21.0125   -8.3517  -14.5868 C   0  0  0  0  0  0  0  0  0  0  0  0
   20.2963   -8.6991  -13.6194 O   0  0  0  0  0  0  0  0  0  0  0  0
   21.7151   -7.1565  -14.4336 O   0  0  0  0  0  0  0  0  0  0  0  0
  2  1  1  6
  2  3  1  0
  4  2  1  0
  4  5  2  0
  6  4  1  0
  7  6  1  0
  7  8  1  1
  9 14  2  0
  9  8  1  0
 10  9  1  0
 11 10  2  0
 11 12  1  0
 12 13  2  0
 13 14  1  0
 15  7  1  0
 16 15  2  0
 18 17  1  6
 19 18  1  0
 20 18  1  0
 20 21  1  1
 21 15  1  0
 22 20  1  0
 22 24  1  0
 23 22  2  0
M  END
$$$$
