AFV.pdb
     RDKit          3D

 24 24  0  0  1  0  0  0  0  0999 V2000
   29.1414  -19.1513  -14.1656 C   0  0  0  0  0  0  0  0  0  0  0  0
   27.8386  -19.7993  -14.5307 C   0  0  2  0  0  0  0  0  0  0  0  0
   27.3053  -19.3080  -15.7824 N   0  0  0  0  0  0  0  0  0  0  0  0
   26.8713  -19.5410  -13.4113 C   0  0  0  0  0  0  0  0  0  0  0  0
   26.4833  -18.3854  -13.1310 O   0  0  0  0  0  0  0  0  0  0  0  0
   26.3956  -20.6307  -12.6653 N   0  0  0  0  0  0  0  0  0  0  0  0
   25.4272  -20.5043  -11.5846 C   0  0  1  0  0  0  0  0  0  0  0  0
   24.2209  -21.2935  -11.9991 C   0  0  0  0  0  0  0  0  0  0  0  0
   23.4149  -20.6449  -13.0640 C   0  0  0  0  0  0  0  0  0  0  0  0
   23.5826  -20.9754  -14.3859 C   0  0  0  0  0  0  0  0  0  0  0  0
   22.8497  -20.3934  -15.4100 C   0  0  0  0  0  0  0  0  0  0  0  0
   21.9066  -19.4382  -15.1020 C   0  0  0  0  0  0  0  0  0  0  0  0
   21.7236  -19.0927  -13.7790 C   0  0  0  0  0  0  0  0  0  0  0  0
   22.4603  -19.6803  -12.7698 C   0  0  0  0  0  0  0  0  0  0  0  0
   25.9807  -20.8641  -10.2847 C   0  0  0  0  0  0  0  0  0  0  0  0
   26.4431  -22.0170  -10.0929 O   0  0  0  0  0  0  0  0  0  0  0  0
   27.2017  -19.7765   -5.5537 C   0  0  0  0  0  0  0  0  0  0  0  0
   26.8463  -19.3084   -6.9446 C   0  0  1  0  0  0  0  0  0  0  0  0
   28.0251  -18.6041   -7.5377 C   0  0  0  0  0  0  0  0  0  0  0  0
   26.4337  -20.4519   -7.8479 C   0  0  2  0  0  0  0  0  0  0  0  0
   26.0439  -19.9740   -9.1590 N   0  0  0  0  0  0  0  0  0  0  0  0
   25.3053  -21.1768   -7.2410 C   0  0  0  0  0  0  0  0  0  0  0  0
   24.1225  -20.8547   -7.4991 O   0  0  0  0  0  0  0  0  0  0  0  0
   25.4733  -22.2447   -6.3595 O   0  0  0  0  0  0  0  0  0  0  0  0
  2  1  1  1
  2  3  1  0
  4  2  1  0
  4  5  2  0
  6  4  1  0
  7  6  1  0
  7  8  1  6
  9 14  2  0
  9  8  1  0
 10  9  1  0
 11 10  2  0
 11 12  1  0
 12 13  2  0
 13 14  1  0
 15  7  1  0
 16 15  2  0
 18 17  1  1
 19 18  1  0
 20 18  1  0
 20 21  1  6
 21 15  1  0
 22 20  1  0
 22 24  1  0
 23 22  2  0
M  END
$$$$
