AFV.pdb
     RDKit          3D

 24 24  0  0  1  0  0  0  0  0999 V2000
   25.2906  -19.6897  -16.9105 C   0  0  0  0  0  0  0  0  0  0  0  0
   26.6020  -20.2456  -16.4396 C   0  0  2  0  0  0  0  0  0  0  0  0
   27.1245  -21.2628  -17.3255 N   0  0  0  0  0  0  0  0  0  0  0  0
   26.3910  -20.8074  -15.0629 C   0  0  0  0  0  0  0  0  0  0  0  0
   26.0547  -21.9986  -14.8831 O   0  0  0  0  0  0  0  0  0  0  0  0
   26.5783  -19.9665  -13.9547 N   0  0  0  0  0  0  0  0  0  0  0  0
   26.3759  -20.3941  -12.5770 C   0  0  1  0  0  0  0  0  0  0  0  0
   27.2874  -19.5544  -11.7320 C   0  0  0  0  0  0  0  0  0  0  0  0
   27.2289  -19.8748  -10.2834 C   0  0  0  0  0  0  0  0  0  0  0  0
   26.5407  -19.0759   -9.4041 C   0  0  0  0  0  0  0  0  0  0  0  0
   26.4616  -19.3406   -8.0446 C   0  0  0  0  0  0  0  0  0  0  0  0
   27.0976  -20.4526   -7.5388 C   0  0  0  0  0  0  0  0  0  0  0  0
   27.7942  -21.2675   -8.4069 C   0  0  0  0  0  0  0  0  0  0  0  0
   27.8646  -20.9919   -9.7580 C   0  0  0  0  0  0  0  0  0  0  0  0
   24.9737  -20.3717  -12.1784 C   0  0  0  0  0  0  0  0  0  0  0  0
   24.2950  -19.3229  -12.3167 O   0  0  0  0  0  0  0  0  0  0  0  0
   20.6432  -22.5826  -11.5299 C   0  0  0  0  0  0  0  0  0  0  0  0
   22.1230  -22.6423  -11.8241 C   0  0  1  0  0  0  0  0  0  0  0  0
   22.3214  -22.7659  -13.3016 C   0  0  0  0  0  0  0  0  0  0  0  0
   22.8599  -21.4207  -11.3156 C   0  0  2  0  0  0  0  0  0  0  0  0
   24.2749  -21.4947  -11.6178 N   0  0  0  0  0  0  0  0  0  0  0  0
   22.6805  -21.3080   -9.8589 C   0  0  0  0  0  0  0  0  0  0  0  0
   21.9068  -20.4513   -9.3720 O   0  0  0  0  0  0  0  0  0  0  0  0
   23.3435  -22.1274   -8.9453 O   0  0  0  0  0  0  0  0  0  0  0  0
  2  1  1  6
  2  3  1  0
  4  2  1  0
  4  5  2  0
  6  4  1  0
  7  6  1  0
  7  8  1  1
  9 14  2  0
  9  8  1  0
 10  9  1  0
 11 10  2  0
 11 12  1  0
 12 13  2  0
 13 14  1  0
 15  7  1  0
 16 15  2  0
 18 17  1  6
 19 18  1  0
 20 18  1  0
 20 21  1  1
 21 15  1  0
 22 20  1  0
 22 24  1  0
 23 22  2  0
M  END
$$$$
