AFV.pdb
     RDKit          3D

 24 24  0  0  1  0  0  0  0  0999 V2000
   20.6826  -34.1514  -13.5162 C   0  0  0  0  0  0  0  0  0  0  0  0
   20.6544  -32.6529  -13.5808 C   0  0  2  0  0  0  0  0  0  0  0  0
   20.8831  -32.1500  -14.9177 N   0  0  0  0  0  0  0  0  0  0  0  0
   21.7044  -32.1362  -12.6395 C   0  0  0  0  0  0  0  0  0  0  0  0
   22.9016  -32.0282  -12.9850 O   0  0  0  0  0  0  0  0  0  0  0  0
   21.3232  -31.7671  -11.3400 N   0  0  0  0  0  0  0  0  0  0  0  0
   22.2461  -31.2166  -10.3567 C   0  0  1  0  0  0  0  0  0  0  0  0
   21.4884  -30.1631   -9.6043 C   0  0  0  0  0  0  0  0  0  0  0  0
   21.0994  -28.9946  -10.4336 C   0  0  0  0  0  0  0  0  0  0  0  0
   19.7820  -28.7219  -10.7073 C   0  0  0  0  0  0  0  0  0  0  0  0
   19.3775  -27.6408  -11.4769 C   0  0  0  0  0  0  0  0  0  0  0  0
   20.3300  -26.7929  -11.9972 C   0  0  0  0  0  0  0  0  0  0  0  0
   21.6592  -27.0507  -11.7330 C   0  0  0  0  0  0  0  0  0  0  0  0
   22.0476  -28.1306  -10.9654 C   0  0  0  0  0  0  0  0  0  0  0  0
   22.8637  -32.2422   -9.5247 C   0  0  0  0  0  0  0  0  0  0  0  0
   22.1889  -33.2273   -9.1324 O   0  0  0  0  0  0  0  0  0  0  0  0
   27.0389  -32.1748   -8.2493 C   0  0  0  0  0  0  0  0  0  0  0  0
   26.3267  -33.4271   -8.7016 C   0  0  1  0  0  0  0  0  0  0  0  0
   26.9077  -34.6040   -7.9841 C   0  0  0  0  0  0  0  0  0  0  0  0
   24.8354  -33.3646   -8.4450 C   0  0  2  0  0  0  0  0  0  0  0  0
   24.2354  -32.2192   -9.0987 N   0  0  0  0  0  0  0  0  0  0  0  0
   24.5877  -33.2810   -6.9964 C   0  0  0  0  0  0  0  0  0  0  0  0
   24.6443  -34.3041   -6.2756 O   0  0  0  0  0  0  0  0  0  0  0  0
   24.2809  -32.0863   -6.3450 O   0  0  0  0  0  0  0  0  0  0  0  0
  2  1  1  6
  2  3  1  0
  4  2  1  0
  4  5  2  0
  6  4  1  0
  7  6  1  0
  7  8  1  1
  9 14  2  0
  9  8  1  0
 10  9  1  0
 11 10  2  0
 11 12  1  0
 12 13  2  0
 13 14  1  0
 15  7  1  0
 16 15  2  0
 18 17  1  1
 19 18  1  0
 20 18  1  0
 20 21  1  6
 21 15  1  0
 22 20  1  0
 22 24  1  0
 23 22  2  0
M  END
$$$$
