AFV.pdb
     RDKit          3D

 24 24  0  0  1  0  0  0  0  0999 V2000
   27.4215  -20.2054  -18.2917 C   0  0  0  0  0  0  0  0  0  0  0  0
   28.1777  -21.1159  -17.3700 C   0  0  2  0  0  0  0  0  0  0  0  0
   28.6233  -22.3256  -18.0264 N   0  0  0  0  0  0  0  0  0  0  0  0
   27.2760  -21.4475  -16.2157 C   0  0  0  0  0  0  0  0  0  0  0  0
   26.4280  -22.3643  -16.2858 O   0  0  0  0  0  0  0  0  0  0  0  0
   27.3949  -20.7039  -15.0310 N   0  0  0  0  0  0  0  0  0  0  0  0
   26.5695  -20.9310  -13.8525 C   0  0  1  0  0  0  0  0  0  0  0  0
   27.3597  -20.4364  -12.6774 C   0  0  0  0  0  0  0  0  0  0  0  0
   26.6201  -20.4882  -11.3909 C   0  0  0  0  0  0  0  0  0  0  0  0
   26.0623  -19.3594  -10.8436 C   0  0  0  0  0  0  0  0  0  0  0  0
   25.3637  -19.3659   -9.6451 C   0  0  0  0  0  0  0  0  0  0  0  0
   25.2147  -20.5518   -8.9609 C   0  0  0  0  0  0  0  0  0  0  0  0
   25.7684  -21.6969   -9.4951 C   0  0  0  0  0  0  0  0  0  0  0  0
   26.4612  -21.6759  -10.6893 C   0  0  0  0  0  0  0  0  0  0  0  0
   25.2338  -20.3605  -13.9794 C   0  0  0  0  0  0  0  0  0  0  0  0
   25.0888  -19.1731  -14.3652 O   0  0  0  0  0  0  0  0  0  0  0  0
   22.6918  -20.5096  -16.2816 C   0  0  0  0  0  0  0  0  0  0  0  0
   21.9674  -20.8583  -15.0034 C   0  0  1  0  0  0  0  0  0  0  0  0
   21.7514  -22.3376  -14.9539 C   0  0  0  0  0  0  0  0  0  0  0  0
   22.7305  -20.4174  -13.7717 C   0  0  2  0  0  0  0  0  0  0  0  0
   24.0203  -21.0720  -13.6881 N   0  0  0  0  0  0  0  0  0  0  0  0
   21.9467  -20.7347  -12.5667 C   0  0  0  0  0  0  0  0  0  0  0  0
   22.1538  -21.7915  -11.9265 O   0  0  0  0  0  0  0  0  0  0  0  0
   20.9457  -19.9006  -12.0691 O   0  0  0  0  0  0  0  0  0  0  0  0
  2  1  1  6
  2  3  1  0
  4  2  1  0
  4  5  2  0
  6  4  1  0
  7  6  1  0
  7  8  1  1
  9 14  2  0
  9  8  1  0
 10  9  1  0
 11 10  2  0
 11 12  1  0
 12 13  2  0
 13 14  1  0
 15  7  1  0
 16 15  2  0
 18 17  1  6
 19 18  1  0
 20 18  1  0
 20 21  1  1
 21 15  1  0
 22 20  1  0
 22 24  1  0
 23 22  2  0
M  END
$$$$
