AFV.pdb
     RDKit          3D

 24 24  0  0  1  0  0  0  0  0999 V2000
   27.9718  -20.8526  -17.8677 C   0  0  0  0  0  0  0  0  0  0  0  0
   28.6168  -21.7204  -16.8278 C   0  0  2  0  0  0  0  0  0  0  0  0
   29.0292  -23.0037  -17.3529 N   0  0  0  0  0  0  0  0  0  0  0  0
   27.6297  -21.9036  -15.7108 C   0  0  0  0  0  0  0  0  0  0  0  0
   26.7636  -22.8055  -15.7399 O   0  0  0  0  0  0  0  0  0  0  0  0
   27.6881  -21.0356  -14.6093 N   0  0  0  0  0  0  0  0  0  0  0  0
   26.7989  -21.1337  -13.4597 C   0  0  1  0  0  0  0  0  0  0  0  0
   27.5408  -20.5462  -12.2959 C   0  0  0  0  0  0  0  0  0  0  0  0
   26.7711  -20.5544  -11.0263 C   0  0  0  0  0  0  0  0  0  0  0  0
   26.8929  -21.5835  -10.1257 C   0  0  0  0  0  0  0  0  0  0  0  0
   26.1923  -21.6282   -8.9291 C   0  0  0  0  0  0  0  0  0  0  0  0
   25.3311  -20.6000   -8.6162 C   0  0  0  0  0  0  0  0  0  0  0  0
   25.1954  -19.5569   -9.5088 C   0  0  0  0  0  0  0  0  0  0  0  0
   25.8990  -19.5255  -10.6964 C   0  0  0  0  0  0  0  0  0  0  0  0
   25.4859  -20.5513  -13.7093 C   0  0  0  0  0  0  0  0  0  0  0  0
   25.3894  -19.4210  -14.2505 O   0  0  0  0  0  0  0  0  0  0  0  0
   20.9275  -20.5165  -15.0847 C   0  0  0  0  0  0  0  0  0  0  0  0
   22.3043  -21.0966  -14.8658 C   0  0  1  0  0  0  0  0  0  0  0  0
   23.1500  -20.8101  -16.0658 C   0  0  0  0  0  0  0  0  0  0  0  0
   22.9746  -20.5350  -13.6293 C   0  0  2  0  0  0  0  0  0  0  0  0
   24.2426  -21.1881  -13.3742 N   0  0  0  0  0  0  0  0  0  0  0  0
   22.0926  -20.7171  -12.4649 C   0  0  0  0  0  0  0  0  0  0  0  0
   22.2496  -21.6859  -11.6863 O   0  0  0  0  0  0  0  0  0  0  0  0
   21.0485  -19.8446  -12.1579 O   0  0  0  0  0  0  0  0  0  0  0  0
  2  1  1  6
  2  3  1  0
  4  2  1  0
  4  5  2  0
  6  4  1  0
  7  6  1  0
  7  8  1  1
  9 14  2  0
  9  8  1  0
 10  9  1  0
 11 10  2  0
 11 12  1  0
 12 13  2  0
 13 14  1  0
 15  7  1  0
 16 15  2  0
 18 17  1  6
 19 18  1  0
 20 18  1  0
 20 21  1  1
 21 15  1  0
 22 20  1  0
 22 24  1  0
 23 22  2  0
M  END
$$$$
