AFV.pdb
     RDKit          3D

 24 24  0  0  1  0  0  0  0  0999 V2000
   30.4636  -20.5591  -11.5397 C   0  0  0  0  0  0  0  0  0  0  0  0
   30.4625  -21.1423  -10.1575 C   0  0  2  0  0  0  0  0  0  0  0  0
   31.1919  -22.3891  -10.0800 N   0  0  0  0  0  0  0  0  0  0  0  0
   29.0315  -21.3459   -9.7497 C   0  0  0  0  0  0  0  0  0  0  0  0
   28.4585  -22.4490   -9.8889 O   0  0  0  0  0  0  0  0  0  0  0  0
   28.3263  -20.2645   -9.1988 N   0  0  0  0  0  0  0  0  0  0  0  0
   26.9214  -20.3297   -8.8195 C   0  0  1  0  0  0  0  0  0  0  0  0
   26.7352  -19.3446   -7.7038 C   0  0  0  0  0  0  0  0  0  0  0  0
   27.4739  -19.6938   -6.4640 C   0  0  0  0  0  0  0  0  0  0  0  0
   27.1487  -20.8078   -5.7305 C   0  0  0  0  0  0  0  0  0  0  0  0
   27.8141  -21.1687   -4.5679 C   0  0  0  0  0  0  0  0  0  0  0  0
   28.8511  -20.3829   -4.1161 C   0  0  0  0  0  0  0  0  0  0  0  0
   29.1926  -19.2592   -4.8398 C   0  0  0  0  0  0  0  0  0  0  0  0
   28.5215  -18.9120   -5.9954 C   0  0  0  0  0  0  0  0  0  0  0  0
   26.0212  -20.1529   -9.9526 C   0  0  0  0  0  0  0  0  0  0  0  0
   26.1436  -19.1543  -10.7060 O   0  0  0  0  0  0  0  0  0  0  0  0
   23.4842  -21.8787  -13.6885 C   0  0  0  0  0  0  0  0  0  0  0  0
   24.2964  -22.0566  -12.4281 C   0  0  1  0  0  0  0  0  0  0  0  0
   25.7330  -22.2496  -12.7975 C   0  0  0  0  0  0  0  0  0  0  0  0
   24.1701  -20.8733  -11.4912 C   0  0  2  0  0  0  0  0  0  0  0  0
   24.9627  -21.0624  -10.2932 N   0  0  0  0  0  0  0  0  0  0  0  0
   22.7586  -20.6913  -11.1149 C   0  0  0  0  0  0  0  0  0  0  0  0
   22.3335  -21.0907  -10.0062 O   0  0  0  0  0  0  0  0  0  0  0  0
   21.8228  -20.0771  -11.9471 O   0  0  0  0  0  0  0  0  0  0  0  0
  2  1  1  6
  2  3  1  0
  4  2  1  0
  4  5  2  0
  6  4  1  0
  7  6  1  0
  7  8  1  1
  9 14  2  0
  9  8  1  0
 10  9  1  0
 11 10  2  0
 11 12  1  0
 12 13  2  0
 13 14  1  0
 15  7  1  0
 16 15  2  0
 18 17  1  6
 19 18  1  0
 20 18  1  0
 20 21  1  1
 21 15  1  0
 22 20  1  0
 22 24  1  0
 23 22  2  0
M  END
$$$$
