AFV.pdb
     RDKit          3D

 24 24  0  0  1  0  0  0  0  0999 V2000
   27.5659  -21.0405  -17.1235 C   0  0  0  0  0  0  0  0  0  0  0  0
   28.0517  -22.0346  -16.1105 C   0  0  2  0  0  0  0  0  0  0  0  0
   28.1996  -23.3634  -16.6627 N   0  0  0  0  0  0  0  0  0  0  0  0
   27.0693  -22.0452  -14.9746 C   0  0  0  0  0  0  0  0  0  0  0  0
   26.0672  -22.7937  -14.9788 O   0  0  0  0  0  0  0  0  0  0  0  0
   27.2893  -21.1895  -13.8839 N   0  0  0  0  0  0  0  0  0  0  0  0
   26.4464  -21.1672  -12.6961 C   0  0  1  0  0  0  0  0  0  0  0  0
   27.3073  -20.6718  -11.5721 C   0  0  0  0  0  0  0  0  0  0  0  0
   26.5761  -20.4807  -10.2940 C   0  0  0  0  0  0  0  0  0  0  0  0
   26.5096  -19.2506   -9.6881 C   0  0  0  0  0  0  0  0  0  0  0  0
   25.8367  -19.0306   -8.4950 C   0  0  0  0  0  0  0  0  0  0  0  0
   25.2011  -20.0851   -7.8780 C   0  0  0  0  0  0  0  0  0  0  0  0
   25.2568  -21.3291   -8.4719 C   0  0  0  0  0  0  0  0  0  0  0  0
   25.9304  -21.5337   -9.6597 C   0  0  0  0  0  0  0  0  0  0  0  0
   25.2079  -20.4243  -12.8957 C   0  0  0  0  0  0  0  0  0  0  0  0
   25.2445  -19.2280  -13.2795 O   0  0  0  0  0  0  0  0  0  0  0  0
   23.0020  -20.0491  -15.3678 C   0  0  0  0  0  0  0  0  0  0  0  0
   22.0816  -20.4185  -14.2293 C   0  0  1  0  0  0  0  0  0  0  0  0
   21.7213  -21.8657  -14.3441 C   0  0  0  0  0  0  0  0  0  0  0  0
   22.7094  -20.1597  -12.8755 C   0  0  2  0  0  0  0  0  0  0  0  0
   23.8958  -20.9684  -12.6813 N   0  0  0  0  0  0  0  0  0  0  0  0
   21.7357  -20.4648  -11.8144 C   0  0  0  0  0  0  0  0  0  0  0  0
   20.7573  -19.7107  -11.6053 O   0  0  0  0  0  0  0  0  0  0  0  0
   21.8347  -21.5862  -10.9909 O   0  0  0  0  0  0  0  0  0  0  0  0
  2  1  1  6
  2  3  1  0
  4  2  1  0
  4  5  2  0
  6  4  1  0
  7  6  1  0
  7  8  1  1
  9 14  2  0
  9  8  1  0
 10  9  1  0
 11 10  2  0
 11 12  1  0
 12 13  2  0
 13 14  1  0
 15  7  1  0
 16 15  2  0
 18 17  1  6
 19 18  1  0
 20 18  1  0
 20 21  1  1
 21 15  1  0
 22 20  1  0
 22 24  1  0
 23 22  2  0
M  END
$$$$
