AFV.pdb
     RDKit          3D

 24 24  0  0  1  0  0  0  0  0999 V2000
   28.8200  -19.7940  -13.4193 C   0  0  0  0  0  0  0  0  0  0  0  0
   29.4370  -21.0229  -12.8195 C   0  0  2  0  0  0  0  0  0  0  0  0
   29.3582  -22.1695  -13.6979 N   0  0  0  0  0  0  0  0  0  0  0  0
   28.7281  -21.3039  -11.5256 C   0  0  0  0  0  0  0  0  0  0  0  0
   27.7762  -22.1126  -11.4595 O   0  0  0  0  0  0  0  0  0  0  0  0
   29.1515  -20.6370  -10.3653 N   0  0  0  0  0  0  0  0  0  0  0  0
   28.4433  -20.7057   -9.0943 C   0  0  1  0  0  0  0  0  0  0  0  0
   29.3646  -20.1274   -8.0615 C   0  0  0  0  0  0  0  0  0  0  0  0
   28.7596  -20.0176   -6.7101 C   0  0  0  0  0  0  0  0  0  0  0  0
   28.2439  -18.8296   -6.2545 C   0  0  0  0  0  0  0  0  0  0  0  0
   27.6702  -18.6859   -4.9996 C   0  0  0  0  0  0  0  0  0  0  0  0
   27.6077  -19.7763   -4.1607 C   0  0  0  0  0  0  0  0  0  0  0  0
   28.1208  -20.9789   -4.6009 C   0  0  0  0  0  0  0  0  0  0  0  0
   28.6891  -21.1076   -5.8527 C   0  0  0  0  0  0  0  0  0  0  0  0
   27.1210  -20.0942   -9.1502 C   0  0  0  0  0  0  0  0  0  0  0  0
   26.9827  -18.9302   -9.6037 O   0  0  0  0  0  0  0  0  0  0  0  0
   24.5155  -21.8470  -11.0847 C   0  0  0  0  0  0  0  0  0  0  0  0
   24.4379  -20.4073  -10.6363 C   0  0  1  0  0  0  0  0  0  0  0  0
   23.1134  -19.8418  -11.0406 C   0  0  0  0  0  0  0  0  0  0  0  0
   24.6140  -20.2613   -9.1391 C   0  0  2  0  0  0  0  0  0  0  0  0
   25.9138  -20.7380   -8.7121 N   0  0  0  0  0  0  0  0  0  0  0  0
   23.5651  -21.0243   -8.4429 C   0  0  0  0  0  0  0  0  0  0  0  0
   23.8589  -21.9948   -7.7071 O   0  0  0  0  0  0  0  0  0  0  0  0
   22.2072  -20.7252   -8.5530 O   0  0  0  0  0  0  0  0  0  0  0  0
  2  1  1  6
  2  3  1  0
  4  2  1  0
  4  5  2  0
  6  4  1  0
  7  6  1  0
  7  8  1  1
  9 14  2  0
  9  8  1  0
 10  9  1  0
 11 10  2  0
 11 12  1  0
 12 13  2  0
 13 14  1  0
 15  7  1  0
 16 15  2  0
 18 17  1  1
 19 18  1  0
 20 18  1  0
 20 21  1  1
 21 15  1  0
 22 20  1  0
 22 24  1  0
 23 22  2  0
M  END
$$$$
