AFV.pdb
     RDKit          3D

 24 24  0  0  1  0  0  0  0  0999 V2000
   27.3054  -20.5500  -17.9664 C   0  0  0  0  0  0  0  0  0  0  0  0
   28.0732  -21.3881  -16.9873 C   0  0  2  0  0  0  0  0  0  0  0  0
   28.5622  -22.6176  -17.5718 N   0  0  0  0  0  0  0  0  0  0  0  0
   27.1642  -21.6835  -15.8288 C   0  0  0  0  0  0  0  0  0  0  0  0
   26.3593  -22.6407  -15.8519 O   0  0  0  0  0  0  0  0  0  0  0  0
   27.2262  -20.8588  -14.6947 N   0  0  0  0  0  0  0  0  0  0  0  0
   26.3865  -21.0434  -13.5189 C   0  0  1  0  0  0  0  0  0  0  0  0
   27.1406  -20.4597  -12.3610 C   0  0  0  0  0  0  0  0  0  0  0  0
   26.4202  -20.5531  -11.0660 C   0  0  0  0  0  0  0  0  0  0  0  0
   26.5684  -21.6435  -10.2451 C   0  0  0  0  0  0  0  0  0  0  0  0
   25.9141  -21.7686   -9.0282 C   0  0  0  0  0  0  0  0  0  0  0  0
   25.0737  -20.7605   -8.6108 C   0  0  0  0  0  0  0  0  0  0  0  0
   24.9119  -19.6566   -9.4223 C   0  0  0  0  0  0  0  0  0  0  0  0
   25.5696  -19.5454  -10.6312 C   0  0  0  0  0  0  0  0  0  0  0  0
   25.0374  -20.5212  -13.7002 C   0  0  0  0  0  0  0  0  0  0  0  0
   24.8655  -19.3364  -14.0829 O   0  0  0  0  0  0  0  0  0  0  0  0
   20.4288  -20.8687  -15.0735 C   0  0  0  0  0  0  0  0  0  0  0  0
   21.8122  -21.4233  -14.8318 C   0  0  1  0  0  0  0  0  0  0  0  0
   22.6106  -21.3069  -16.0914 C   0  0  0  0  0  0  0  0  0  0  0  0
   22.5316  -20.7047  -13.7093 C   0  0  2  0  0  0  0  0  0  0  0  0
   23.8396  -21.2794  -13.4681 N   0  0  0  0  0  0  0  0  0  0  0  0
   21.7304  -20.7889  -12.4772 C   0  0  0  0  0  0  0  0  0  0  0  0
   21.7444  -21.8245  -11.7723 O   0  0  0  0  0  0  0  0  0  0  0  0
   20.9219  -19.7470  -12.0232 O   0  0  0  0  0  0  0  0  0  0  0  0
  2  1  1  6
  2  3  1  0
  4  2  1  0
  4  5  2  0
  6  4  1  0
  7  6  1  0
  7  8  1  1
  9 14  2  0
  9  8  1  0
 10  9  1  0
 11 10  2  0
 11 12  1  0
 12 13  2  0
 13 14  1  0
 15  7  1  0
 16 15  2  0
 18 17  1  6
 19 18  1  0
 20 18  1  0
 20 21  1  1
 21 15  1  0
 22 20  1  0
 22 24  1  0
 23 22  2  0
M  END
$$$$
