AFV.pdb
     RDKit          3D

 24 24  0  0  1  0  0  0  0  0999 V2000
   22.3130  -21.0002  -14.2581 C   0  0  0  0  0  0  0  0  0  0  0  0
   23.6220  -21.3185  -14.9183 C   0  0  2  0  0  0  0  0  0  0  0  0
   23.5600  -22.5169  -15.7261 N   0  0  0  0  0  0  0  0  0  0  0  0
   24.6535  -21.4679  -13.8369 C   0  0  0  0  0  0  0  0  0  0  0  0
   24.7377  -22.5083  -13.1476 O   0  0  0  0  0  0  0  0  0  0  0  0
   25.5422  -20.4075  -13.6005 N   0  0  0  0  0  0  0  0  0  0  0  0
   26.6270  -20.4680  -12.6303 C   0  0  1  0  0  0  0  0  0  0  0  0
   27.8251  -19.8543  -13.2920 C   0  0  0  0  0  0  0  0  0  0  0  0
   28.4587  -20.7245  -14.3146 C   0  0  0  0  0  0  0  0  0  0  0  0
   29.3413  -21.7146  -13.9599 C   0  0  0  0  0  0  0  0  0  0  0  0
   29.9537  -22.5485  -14.8841 C   0  0  0  0  0  0  0  0  0  0  0  0
   29.6734  -22.3880  -16.2229 C   0  0  0  0  0  0  0  0  0  0  0  0
   28.7889  -21.3983  -16.5988 C   0  0  0  0  0  0  0  0  0  0  0  0
   28.1866  -20.5754  -15.6680 C   0  0  0  0  0  0  0  0  0  0  0  0
   26.2681  -19.8834  -11.3439 C   0  0  0  0  0  0  0  0  0  0  0  0
   25.6494  -18.7902  -11.2981 O   0  0  0  0  0  0  0  0  0  0  0  0
   23.7948  -20.5152   -9.1000 C   0  0  0  0  0  0  0  0  0  0  0  0
   25.0043  -20.5132   -8.1961 C   0  0  1  0  0  0  0  0  0  0  0  0
   25.3610  -21.9257   -7.8566 C   0  0  0  0  0  0  0  0  0  0  0  0
   26.1965  -19.8299   -8.8329 C   0  0  2  0  0  0  0  0  0  0  0  0
   26.5754  -20.4773  -10.0725 N   0  0  0  0  0  0  0  0  0  0  0  0
   27.3366  -19.8598   -7.9021 C   0  0  0  0  0  0  0  0  0  0  0  0
   28.2944  -20.6463   -8.0859 O   0  0  0  0  0  0  0  0  0  0  0  0
   27.4249  -19.0350   -6.7809 O   0  0  0  0  0  0  0  0  0  0  0  0
  2  1  1  1
  2  3  1  0
  4  2  1  0
  4  5  2  0
  6  4  1  0
  7  6  1  0
  7  8  1  6
  9 14  2  0
  9  8  1  0
 10  9  1  0
 11 10  2  0
 11 12  1  0
 12 13  2  0
 13 14  1  0
 15  7  1  0
 16 15  2  0
 18 17  1  6
 19 18  1  0
 20 18  1  0
 20 21  1  6
 21 15  1  0
 22 20  1  0
 22 24  1  0
 23 22  2  0
M  END
$$$$
