AFV.pdb
     RDKit          3D

 24 24  0  0  1  0  0  0  0  0999 V2000
   27.4776  -20.3815  -17.5995 C   0  0  0  0  0  0  0  0  0  0  0  0
   28.3742  -21.1077  -16.6408 C   0  0  2  0  0  0  0  0  0  0  0  0
   28.9446  -22.3073  -17.2135 N   0  0  0  0  0  0  0  0  0  0  0  0
   27.5626  -21.4431  -15.4224 C   0  0  0  0  0  0  0  0  0  0  0  0
   26.8263  -22.4533  -15.3804 O   0  0  0  0  0  0  0  0  0  0  0  0
   27.6384  -20.5951  -14.3064 N   0  0  0  0  0  0  0  0  0  0  0  0
   26.9050  -20.8262  -13.0692 C   0  0  1  0  0  0  0  0  0  0  0  0
   27.6540  -20.1039  -11.9888 C   0  0  0  0  0  0  0  0  0  0  0  0
   27.0320  -20.2197  -10.6456 C   0  0  0  0  0  0  0  0  0  0  0  0
   27.3420  -21.2591   -9.8039 C   0  0  0  0  0  0  0  0  0  0  0  0
   26.7836  -21.4027   -8.5420 C   0  0  0  0  0  0  0  0  0  0  0  0
   25.8749  -20.4674   -8.0993 C   0  0  0  0  0  0  0  0  0  0  0  0
   25.5507  -19.4156   -8.9310 C   0  0  0  0  0  0  0  0  0  0  0  0
   26.1143  -19.2851  -10.1847 C   0  0  0  0  0  0  0  0  0  0  0  0
   25.4930  -20.4794  -13.1759 C   0  0  0  0  0  0  0  0  0  0  0  0
   25.1484  -19.3915  -13.7027 O   0  0  0  0  0  0  0  0  0  0  0  0
   20.8686  -21.4667  -14.0320 C   0  0  0  0  0  0  0  0  0  0  0  0
   22.3267  -21.8244  -13.8716 C   0  0  1  0  0  0  0  0  0  0  0  0
   22.9993  -21.7365  -15.2048 C   0  0  0  0  0  0  0  0  0  0  0  0
   23.0360  -20.9183  -12.8869 C   0  0  2  0  0  0  0  0  0  0  0  0
   24.4191  -21.3119  -12.7099 N   0  0  0  0  0  0  0  0  0  0  0  0
   22.3473  -20.9686  -11.5868 C   0  0  0  0  0  0  0  0  0  0  0  0
   22.7563  -21.7215  -10.6728 O   0  0  0  0  0  0  0  0  0  0  0  0
   21.2210  -20.2003  -11.2926 O   0  0  0  0  0  0  0  0  0  0  0  0
  2  1  1  6
  2  3  1  0
  4  2  1  0
  4  5  2  0
  6  4  1  0
  7  6  1  0
  7  8  1  1
  9 14  2  0
  9  8  1  0
 10  9  1  0
 11 10  2  0
 11 12  1  0
 12 13  2  0
 13 14  1  0
 15  7  1  0
 16 15  2  0
 18 17  1  6
 19 18  1  0
 20 18  1  0
 20 21  1  1
 21 15  1  0
 22 20  1  0
 22 24  1  0
 23 22  2  0
M  END
$$$$
