WSR.pdb
     RDKit          3D

 32 33  0  0  1  0  0  0  0  0999 V2000
   25.2816  -19.6357  -14.7129 N   0  0  0  0  0  0  0  0  0  0  0  0
   24.2937  -20.6966  -14.7072 C   0  0  1  0  0  0  0  0  0  0  0  0
   24.9398  -22.0577  -14.7849 C   0  0  0  0  0  0  0  0  0  0  0  0
   25.7630  -22.2378  -16.0039 C   0  0  0  0  0  0  0  0  0  0  0  0
   27.1317  -22.3227  -16.1319 C   0  0  0  0  0  0  0  0  0  0  0  0
   27.4158  -22.4864  -17.4357 N   0  0  0  0  0  0  0  0  0  0  0  0
   26.2850  -22.5129  -18.1750 C   0  0  0  0  0  0  0  0  0  0  0  0
   26.0769  -22.6587  -19.5234 C   0  0  0  0  0  0  0  0  0  0  0  0
   24.7920  -22.6521  -20.0202 C   0  0  0  0  0  0  0  0  0  0  0  0
   23.7512  -22.4985  -19.1439 C   0  0  0  0  0  0  0  0  0  0  0  0
   23.9672  -22.3529  -17.7944 C   0  0  0  0  0  0  0  0  0  0  0  0
   25.2489  -22.3569  -17.2750 C   0  0  0  0  0  0  0  0  0  0  0  0
   23.4625  -20.6122  -13.4887 C   0  0  0  0  0  0  0  0  0  0  0  0
   23.9139  -20.3952  -12.3434 O   0  0  0  0  0  0  0  0  0  0  0  0
   19.7200  -19.3293  -13.5537 O   0  0  0  0  0  0  0  0  0  0  0  0
   20.3786  -19.4380  -12.3239 C   0  0  0  0  0  0  0  0  0  0  0  0
   21.2109  -20.6979  -12.3872 C   0  0  2  0  0  0  0  0  0  0  0  0
   22.0332  -20.7808  -13.5507 N   0  0  0  0  0  0  0  0  0  0  0  0
   20.3423  -21.8939  -12.2047 C   0  0  0  0  0  0  0  0  0  0  0  0
   19.9689  -22.5838  -13.1859 O   0  0  0  0  0  0  0  0  0  0  0  0
   18.4409  -27.6654   -6.0211 N   0  0  0  0  0  0  0  0  0  0  0  0
   18.2979  -26.2608   -5.7846 C   0  0  0  0  0  0  0  0  0  0  0  0
   18.4276  -25.7544   -4.6066 N   0  0  0  0  0  0  0  0  0  0  0  0
   18.0033  -25.3617   -6.8493 N   0  0  0  0  0  0  0  0  0  0  0  0
   17.8361  -25.7250   -8.2145 C   0  0  0  0  0  0  0  0  0  0  0  0
   17.4465  -24.6064   -9.1310 C   0  0  0  0  0  0  0  0  0  0  0  0
   18.5207  -23.6064   -9.3618 C   0  0  0  0  0  0  0  0  0  0  0  0
   18.8888  -23.3909  -10.8113 C   0  0  2  0  0  0  0  0  0  0  0  0
   19.8897  -22.3216  -10.9219 N   0  0  0  0  0  0  0  0  0  0  0  0
   17.7624  -23.0275  -11.6778 C   0  0  0  0  0  0  0  0  0  0  0  0
   17.1885  -23.8477  -12.4369 O   0  0  0  0  0  0  0  0  0  0  0  0
   17.2714  -21.7337  -11.6955 O   0  0  0  0  0  0  0  0  0  0  0  0
  2  1  1  1
  3  4  1  0
  3  2  1  0
  4  5  2  0
  6  5  1  0
  7  6  1  0
  8  7  2  0
  9  8  1  0
 10 11  1  0
 10  9  2  0
 11 12  2  0
 12  7  1  0
 12  4  1  0
 13  2  1  0
 13 14  2  0
 15 16  1  0
 17 16  1  6
 17 18  1  0
 18 13  1  0
 19 17  1  0
 20 19  2  0
 22 21  1  0
 22 23  2  0
 24 22  1  0
 25 24  1  0
 26 25  1  0
 27 26  1  0
 28 27  1  1
 28 29  1  0
 29 19  1  0
 30 32  1  0
 30 28  1  0
 31 30  2  0
M  END
$$$$
