WSR.pdb
     RDKit          3D

 32 33  0  0  1  0  0  0  0  0999 V2000
   27.1372  -22.1806  -11.2099 N   0  0  0  0  0  0  0  0  0  0  0  0
   26.3338  -21.0617  -10.7580 C   0  0  1  0  0  0  0  0  0  0  0  0
   27.1916  -19.9449  -10.2164 C   0  0  0  0  0  0  0  0  0  0  0  0
   28.1761  -20.4083   -9.2104 C   0  0  0  0  0  0  0  0  0  0  0  0
   29.3961  -21.0201   -9.3959 C   0  0  0  0  0  0  0  0  0  0  0  0
   29.9307  -21.2524   -8.1845 N   0  0  0  0  0  0  0  0  0  0  0  0
   29.1089  -20.8167   -7.2042 C   0  0  0  0  0  0  0  0  0  0  0  0
   29.2259  -20.8346   -5.8372 C   0  0  0  0  0  0  0  0  0  0  0  0
   28.2179  -20.3090   -5.0591 C   0  0  0  0  0  0  0  0  0  0  0  0
   27.1187  -19.7795   -5.6804 C   0  0  0  0  0  0  0  0  0  0  0  0
   27.0083  -19.7651   -7.0503 C   0  0  0  0  0  0  0  0  0  0  0  0
   28.0085  -20.2873   -7.8497 C   0  0  0  0  0  0  0  0  0  0  0  0
   25.5003  -20.5524  -11.8664 C   0  0  0  0  0  0  0  0  0  0  0  0
   24.5169  -19.7955  -11.7162 O   0  0  0  0  0  0  0  0  0  0  0  0
   26.2677  -21.8614  -15.6700 O   0  0  0  0  0  0  0  0  0  0  0  0
   25.5807  -20.6425  -15.6691 C   0  0  0  0  0  0  0  0  0  0  0  0
   24.9343  -20.5095  -14.3094 C   0  0  2  0  0  0  0  0  0  0  0  0
   25.7817  -20.9102  -13.2332 N   0  0  0  0  0  0  0  0  0  0  0  0
   23.6169  -21.2041  -14.2997 C   0  0  0  0  0  0  0  0  0  0  0  0
   23.5372  -22.4478  -14.1409 O   0  0  0  0  0  0  0  0  0  0  0  0
   16.5345  -21.4813  -11.1347 N   0  0  0  0  0  0  0  0  0  0  0  0
   17.1336  -22.7120  -11.5537 C   0  0  0  0  0  0  0  0  0  0  0  0
   16.4275  -23.6918  -12.0037 N   0  0  0  0  0  0  0  0  0  0  0  0
   18.5434  -22.9040  -11.4878 N   0  0  0  0  0  0  0  0  0  0  0  0
   19.4693  -22.0186  -10.8692 C   0  0  0  0  0  0  0  0  0  0  0  0
   20.1244  -21.0339  -11.7881 C   0  0  0  0  0  0  0  0  0  0  0  0
   21.1623  -21.6238  -12.6725 C   0  0  0  0  0  0  0  0  0  0  0  0
   21.1156  -21.1558  -14.1084 C   0  0  2  0  0  0  0  0  0  0  0  0
   22.3839  -20.5075  -14.4669 N   0  0  0  0  0  0  0  0  0  0  0  0
   20.0389  -20.2046  -14.4039 C   0  0  0  0  0  0  0  0  0  0  0  0
   18.9211  -20.2343  -13.8313 O   0  0  0  0  0  0  0  0  0  0  0  0
   20.2135  -19.2088  -15.3491 O   0  0  0  0  0  0  0  0  0  0  0  0
  2  1  1  6
  3  4  1  0
  3  2  1  0
  4  5  2  0
  6  5  1  0
  7  6  1  0
  8  7  2  0
  9  8  1  0
 10 11  1  0
 10  9  2  0
 11 12  2  0
 12  7  1  0
 12  4  1  0
 13  2  1  0
 13 14  2  0
 15 16  1  0
 17 16  1  6
 17 18  1  0
 18 13  1  0
 19 17  1  0
 20 19  2  0
 22 21  1  0
 22 23  2  0
 24 22  1  0
 25 24  1  0
 26 25  1  0
 27 26  1  0
 28 27  1  1
 28 29  1  0
 29 19  1  0
 30 32  1  0
 30 28  1  0
 31 30  2  0
M  END
$$$$
