WSR.pdb
     RDKit          3D

 32 33  0  0  1  0  0  0  0  0999 V2000
   26.2162  -18.9112  -10.4453 N   0  0  0  0  0  0  0  0  0  0  0  0
   27.3145  -19.8273  -10.2084 C   0  0  1  0  0  0  0  0  0  0  0  0
   26.8564  -21.0673   -9.4813 C   0  0  0  0  0  0  0  0  0  0  0  0
   26.3921  -20.7899   -8.1017 C   0  0  0  0  0  0  0  0  0  0  0  0
   25.1094  -20.7432   -7.6019 C   0  0  0  0  0  0  0  0  0  0  0  0
   25.1867  -20.4563   -6.2908 N   0  0  0  0  0  0  0  0  0  0  0  0
   26.4736  -20.3113   -5.9048 C   0  0  0  0  0  0  0  0  0  0  0  0
   27.0365  -20.0234   -4.6870 C   0  0  0  0  0  0  0  0  0  0  0  0
   28.4065  -19.9355   -4.5721 C   0  0  0  0  0  0  0  0  0  0  0  0
   29.1722  -20.1402   -5.6886 C   0  0  0  0  0  0  0  0  0  0  0  0
   28.6015  -20.4281   -6.9052 C   0  0  0  0  0  0  0  0  0  0  0  0
   27.2285  -20.5210   -7.0423 C   0  0  0  0  0  0  0  0  0  0  0  0
   27.9449  -20.2089  -11.4888 C   0  0  0  0  0  0  0  0  0  0  0  0
   27.4042  -20.0707  -12.6074 O   0  0  0  0  0  0  0  0  0  0  0  0
   31.0458  -22.8921  -11.9625 O   0  0  0  0  0  0  0  0  0  0  0  0
   31.3078  -21.6618  -12.5754 C   0  0  0  0  0  0  0  0  0  0  0  0
   29.9749  -20.9710  -12.7494 C   0  0  2  0  0  0  0  0  0  0  0  0
   29.2658  -20.7826  -11.5252 N   0  0  0  0  0  0  0  0  0  0  0  0
   29.1670  -21.6725  -13.7853 C   0  0  0  0  0  0  0  0  0  0  0  0
   28.2768  -22.4999  -13.4675 O   0  0  0  0  0  0  0  0  0  0  0  0
   22.5636  -23.0781  -16.1862 N   0  0  0  0  0  0  0  0  0  0  0  0
   22.7549  -23.1727  -14.7707 C   0  0  0  0  0  0  0  0  0  0  0  0
   22.0062  -23.9188  -14.0332 N   0  0  0  0  0  0  0  0  0  0  0  0
   23.7865  -22.4398  -14.1170 N   0  0  0  0  0  0  0  0  0  0  0  0
   24.7088  -21.5643  -14.7549 C   0  0  0  0  0  0  0  0  0  0  0  0
   26.0048  -22.1912  -15.1677 C   0  0  0  0  0  0  0  0  0  0  0  0
   26.9870  -21.2362  -15.7427 C   0  0  0  0  0  0  0  0  0  0  0  0
   28.3117  -21.8464  -16.1377 C   0  0  2  0  0  0  0  0  0  0  0  0
   29.3531  -21.4487  -15.1813 N   0  0  0  0  0  0  0  0  0  0  0  0
   28.7799  -21.4709  -17.4761 C   0  0  0  0  0  0  0  0  0  0  0  0
   29.4030  -20.4056  -17.7110 O   0  0  0  0  0  0  0  0  0  0  0  0
   28.5501  -22.2953  -18.5637 O   0  0  0  0  0  0  0  0  0  0  0  0
  2  1  1  6
  3  4  1  0
  3  2  1  0
  4  5  2  0
  6  5  1  0
  7  6  1  0
  8  7  2  0
  9  8  1  0
 10 11  1  0
 10  9  2  0
 11 12  2  0
 12  7  1  0
 12  4  1  0
 13  2  1  0
 13 14  2  0
 15 16  1  0
 17 16  1  1
 17 18  1  0
 18 13  1  0
 19 17  1  0
 20 19  2  0
 22 21  1  0
 22 23  2  0
 24 22  1  0
 25 24  1  0
 26 25  1  0
 27 26  1  0
 28 27  1  1
 28 29  1  0
 29 19  1  0
 30 32  1  0
 30 28  1  0
 31 30  2  0
M  END
$$$$
