WSR.pdb
     RDKit          3D

 32 33  0  0  1  0  0  0  0  0999 V2000
   28.9119  -20.9024   -9.8989 N   0  0  0  0  0  0  0  0  0  0  0  0
   27.4695  -20.8782   -9.7564 C   0  0  1  0  0  0  0  0  0  0  0  0
   27.0232  -19.7932   -8.8078 C   0  0  0  0  0  0  0  0  0  0  0  0
   27.8806  -19.6899   -7.6036 C   0  0  0  0  0  0  0  0  0  0  0  0
   28.9531  -18.8606   -7.3604 C   0  0  0  0  0  0  0  0  0  0  0  0
   29.4123  -19.1295   -6.1259 N   0  0  0  0  0  0  0  0  0  0  0  0
   28.6828  -20.1066   -5.5433 C   0  0  0  0  0  0  0  0  0  0  0  0
   28.7720  -20.7037   -4.3111 C   0  0  0  0  0  0  0  0  0  0  0  0
   27.8782  -21.6936   -3.9662 C   0  0  0  0  0  0  0  0  0  0  0  0
   26.9184  -22.0551   -4.8732 C   0  0  0  0  0  0  0  0  0  0  0  0
   26.8351  -21.4527   -6.1058 C   0  0  0  0  0  0  0  0  0  0  0  0
   27.7222  -20.4570   -6.4719 C   0  0  0  0  0  0  0  0  0  0  0  0
   26.8307  -20.6776  -11.0733 C   0  0  0  0  0  0  0  0  0  0  0  0
   27.2836  -19.9314  -11.9681 O   0  0  0  0  0  0  0  0  0  0  0  0
   24.0493  -23.3235  -12.5154 O   0  0  0  0  0  0  0  0  0  0  0  0
   24.7292  -22.4916  -13.4118 C   0  0  0  0  0  0  0  0  0  0  0  0
   24.9814  -21.1886  -12.6887 C   0  0  2  0  0  0  0  0  0  0  0  0
   25.6057  -21.3539  -11.4160 N   0  0  0  0  0  0  0  0  0  0  0  0
   23.7254  -20.3913  -12.6192 C   0  0  0  0  0  0  0  0  0  0  0  0
   23.1039  -20.2476  -11.5370 O   0  0  0  0  0  0  0  0  0  0  0  0
   22.5879  -13.3715  -17.5859 N   0  0  0  0  0  0  0  0  0  0  0  0
   22.0888  -13.8543  -16.3341 C   0  0  0  0  0  0  0  0  0  0  0  0
   20.9209  -13.5276  -15.8978 N   0  0  0  0  0  0  0  0  0  0  0  0
   22.8694  -14.7195  -15.5151 N   0  0  0  0  0  0  0  0  0  0  0  0
   22.8318  -16.1414  -15.5455 C   0  0  0  0  0  0  0  0  0  0  0  0
   21.7206  -16.7686  -14.7615 C   0  0  0  0  0  0  0  0  0  0  0  0
   21.6256  -18.2435  -14.9132 C   0  0  0  0  0  0  0  0  0  0  0  0
   21.8864  -19.0312  -13.6506 C   0  0  2  0  0  0  0  0  0  0  0  0
   23.1617  -19.7513  -13.7621 N   0  0  0  0  0  0  0  0  0  0  0  0
   20.8526  -20.0195  -13.3252 C   0  0  0  0  0  0  0  0  0  0  0  0
   20.8724  -21.1998  -13.7550 O   0  0  0  0  0  0  0  0  0  0  0  0
   19.7853  -19.6855  -12.5098 O   0  0  0  0  0  0  0  0  0  0  0  0
  2  1  1  6
  3  4  1  0
  3  2  1  0
  4  5  2  0
  6  5  1  0
  7  6  1  0
  8  7  2  0
  9  8  1  0
 10 11  1  0
 10  9  2  0
 11 12  2  0
 12  7  1  0
 12  4  1  0
 13  2  1  0
 13 14  2  0
 15 16  1  0
 17 16  1  1
 17 18  1  0
 18 13  1  0
 19 17  1  0
 20 19  2  0
 22 21  1  0
 22 23  2  0
 24 22  1  0
 25 24  1  0
 26 25  1  0
 27 26  1  0
 28 27  1  6
 28 29  1  0
 29 19  1  0
 30 32  1  0
 30 28  1  0
 31 30  2  0
M  END
$$$$
