WSR.pdb
     RDKit          3D

 32 33  0  0  1  0  0  0  0  0999 V2000
   24.6881  -19.2179  -10.7414 N   0  0  0  0  0  0  0  0  0  0  0  0
   25.5993  -20.2148  -11.2680 C   0  0  1  0  0  0  0  0  0  0  0  0
   25.7802  -21.3644  -10.3078 C   0  0  0  0  0  0  0  0  0  0  0  0
   26.2118  -20.9282   -8.9590 C   0  0  0  0  0  0  0  0  0  0  0  0
   25.4653  -20.7502   -7.8153 C   0  0  0  0  0  0  0  0  0  0  0  0
   26.2956  -20.3468   -6.8379 N   0  0  0  0  0  0  0  0  0  0  0  0
   27.5643  -20.2513   -7.2932 C   0  0  0  0  0  0  0  0  0  0  0  0
   28.7335  -19.8877   -6.6739 C   0  0  0  0  0  0  0  0  0  0  0  0
   29.9109  -19.8801   -7.3892 C   0  0  0  0  0  0  0  0  0  0  0  0
   29.8776  -20.2390   -8.7101 C   0  0  0  0  0  0  0  0  0  0  0  0
   28.7027  -20.6019   -9.3239 C   0  0  0  0  0  0  0  0  0  0  0  0
   27.5099  -20.6165   -8.6242 C   0  0  0  0  0  0  0  0  0  0  0  0
   25.1035  -20.7249  -12.5628 C   0  0  0  0  0  0  0  0  0  0  0  0
   23.8985  -20.9348  -12.8209 O   0  0  0  0  0  0  0  0  0  0  0  0
   27.6981  -22.2378  -15.3219 O   0  0  0  0  0  0  0  0  0  0  0  0
   26.6525  -21.5561  -15.9543 C   0  0  0  0  0  0  0  0  0  0  0  0
   25.5473  -21.4133  -14.9334 C   0  0  2  0  0  0  0  0  0  0  0  0
   26.0108  -21.0207  -13.6419 N   0  0  0  0  0  0  0  0  0  0  0  0
   24.7187  -22.6504  -14.9007 C   0  0  0  0  0  0  0  0  0  0  0  0
   24.9655  -23.5786  -14.0911 O   0  0  0  0  0  0  0  0  0  0  0  0
   19.5982  -23.2001  -10.5517 N   0  0  0  0  0  0  0  0  0  0  0  0
   19.1515  -24.4499  -11.0881 C   0  0  0  0  0  0  0  0  0  0  0  0
   19.0791  -25.5126  -10.3625 N   0  0  0  0  0  0  0  0  0  0  0  0
   18.7682  -24.5692  -12.4547 N   0  0  0  0  0  0  0  0  0  0  0  0
   19.5087  -24.0782  -13.5658 C   0  0  0  0  0  0  0  0  0  0  0  0
   20.9934  -24.0324  -13.3750 C   0  0  0  0  0  0  0  0  0  0  0  0
   21.6944  -23.0852  -14.2798 C   0  0  0  0  0  0  0  0  0  0  0  0
   22.5067  -23.7350  -15.3757 C   0  0  2  0  0  0  0  0  0  0  0  0
   23.6100  -22.8513  -15.7747 N   0  0  0  0  0  0  0  0  0  0  0  0
   21.7455  -24.0592  -16.5869 C   0  0  0  0  0  0  0  0  0  0  0  0
   21.5694  -23.2429  -17.5254 O   0  0  0  0  0  0  0  0  0  0  0  0
   21.1756  -25.3096  -16.7516 O   0  0  0  0  0  0  0  0  0  0  0  0
  2  1  1  1
  3  4  1  0
  3  2  1  0
  4  5  2  0
  6  5  1  0
  7  6  1  0
  8  7  2  0
  9  8  1  0
 10 11  1  0
 10  9  2  0
 11 12  2  0
 12  7  1  0
 12  4  1  0
 13  2  1  0
 13 14  2  0
 15 16  1  0
 17 16  1  6
 17 18  1  0
 18 13  1  0
 19 17  1  0
 20 19  2  0
 22 21  1  0
 22 23  2  0
 24 22  1  0
 25 24  1  0
 26 25  1  0
 27 26  1  0
 28 27  1  1
 28 29  1  0
 29 19  1  0
 30 32  1  0
 30 28  1  0
 31 30  2  0
M  END
$$$$
