WSR.pdb
     RDKit          3D

 32 33  0  0  1  0  0  0  0  0999 V2000
   26.8932  -19.3277  -10.7051 N   0  0  0  0  0  0  0  0  0  0  0  0
   26.2879  -20.6447  -10.6860 C   0  0  1  0  0  0  0  0  0  0  0  0
   25.8893  -21.0526   -9.2892 C   0  0  0  0  0  0  0  0  0  0  0  0
   26.8474  -20.5915   -8.2570 C   0  0  0  0  0  0  0  0  0  0  0  0
   26.6214  -19.8385   -7.1260 C   0  0  0  0  0  0  0  0  0  0  0  0
   27.7978  -19.6744   -6.4965 N   0  0  0  0  0  0  0  0  0  0  0  0
   28.7940  -20.2913   -7.1696 C   0  0  0  0  0  0  0  0  0  0  0  0
   30.1385  -20.3992   -6.9175 C   0  0  0  0  0  0  0  0  0  0  0  0
   30.9415  -21.1042   -7.7869 C   0  0  0  0  0  0  0  0  0  0  0  0
   30.3671  -21.6816   -8.8876 C   0  0  0  0  0  0  0  0  0  0  0  0
   29.0196  -21.5693   -9.1339 C   0  0  0  0  0  0  0  0  0  0  0  0
   28.1959  -20.8663   -8.2739 C   0  0  0  0  0  0  0  0  0  0  0  0
   25.1025  -20.6735  -11.5671 C   0  0  0  0  0  0  0  0  0  0  0  0
   23.9747  -20.2427  -11.2428 O   0  0  0  0  0  0  0  0  0  0  0  0
   25.3828  -22.2076  -15.4330 O   0  0  0  0  0  0  0  0  0  0  0  0
   24.4881  -21.1462  -15.2571 C   0  0  0  0  0  0  0  0  0  0  0  0
   24.0764  -21.1619  -13.8030 C   0  0  2  0  0  0  0  0  0  0  0  0
   25.1789  -21.2184  -12.8985 N   0  0  0  0  0  0  0  0  0  0  0  0
   23.0765  -22.2401  -13.5666 C   0  0  0  0  0  0  0  0  0  0  0  0
   23.3917  -23.3026  -12.9750 O   0  0  0  0  0  0  0  0  0  0  0  0
   19.6880  -23.6868   -7.1073 N   0  0  0  0  0  0  0  0  0  0  0  0
   18.6212  -23.5266   -8.0483 C   0  0  0  0  0  0  0  0  0  0  0  0
   17.3884  -23.6927   -7.7111 N   0  0  0  0  0  0  0  0  0  0  0  0
   18.8822  -23.1764   -9.4040 N   0  0  0  0  0  0  0  0  0  0  0  0
   20.1689  -22.9388   -9.9624 C   0  0  0  0  0  0  0  0  0  0  0  0
   20.1779  -22.5675  -11.4132 C   0  0  0  0  0  0  0  0  0  0  0  0
   20.7540  -23.6075  -12.3042 C   0  0  0  0  0  0  0  0  0  0  0  0
   20.7857  -23.2430  -13.7702 C   0  0  2  0  0  0  0  0  0  0  0  0
   21.7197  -22.1312  -13.9914 N   0  0  0  0  0  0  0  0  0  0  0  0
   19.4888  -22.8424  -14.3261 C   0  0  0  0  0  0  0  0  0  0  0  0
   18.4818  -23.5935  -14.3278 O   0  0  0  0  0  0  0  0  0  0  0  0
   19.3149  -21.5884  -14.8854 O   0  0  0  0  0  0  0  0  0  0  0  0
  2  1  1  1
  3  4  1  0
  3  2  1  0
  4  5  2  0
  6  5  1  0
  7  6  1  0
  8  7  2  0
  9  8  1  0
 10 11  1  0
 10  9  2  0
 11 12  2  0
 12  7  1  0
 12  4  1  0
 13  2  1  0
 13 14  2  0
 15 16  1  0
 17 16  1  6
 17 18  1  0
 18 13  1  0
 19 17  1  0
 20 19  2  0
 22 21  1  0
 22 23  2  0
 24 22  1  0
 25 24  1  0
 26 25  1  0
 27 26  1  0
 28 27  1  1
 28 29  1  0
 29 19  1  0
 30 32  1  0
 30 28  1  0
 31 30  2  0
M  END
$$$$
