WSR.pdb
     RDKit          3D

 32 33  0  0  1  0  0  0  0  0999 V2000
   28.5847  -19.0537  -12.8647 N   0  0  0  0  0  0  0  0  0  0  0  0
   27.8420  -20.2956  -12.9527 C   0  0  1  0  0  0  0  0  0  0  0  0
   27.8432  -21.0377  -11.6391 C   0  0  0  0  0  0  0  0  0  0  0  0
   29.2045  -21.2343  -11.0877 C   0  0  0  0  0  0  0  0  0  0  0  0
   29.7779  -20.6955   -9.9572 C   0  0  0  0  0  0  0  0  0  0  0  0
   31.0334  -21.1672   -9.8653 N   0  0  0  0  0  0  0  0  0  0  0  0
   31.3117  -21.9985  -10.8937 C   0  0  0  0  0  0  0  0  0  0  0  0
   32.4413  -22.7072  -11.2172 C   0  0  0  0  0  0  0  0  0  0  0  0
   32.4515  -23.4969  -12.3459 C   0  0  0  0  0  0  0  0  0  0  0  0
   31.3224  -23.5506  -13.1184 C   0  0  0  0  0  0  0  0  0  0  0  0
   30.1945  -22.8379  -12.7883 C   0  0  0  0  0  0  0  0  0  0  0  0
   30.1631  -22.0394  -11.6597 C   0  0  0  0  0  0  0  0  0  0  0  0
   26.4499  -20.0284  -13.3688 C   0  0  0  0  0  0  0  0  0  0  0  0
   25.6631  -19.2785  -12.7513 O   0  0  0  0  0  0  0  0  0  0  0  0
   25.1621  -20.8725  -17.1419 O   0  0  0  0  0  0  0  0  0  0  0  0
   24.3603  -20.0243  -16.3703 C   0  0  0  0  0  0  0  0  0  0  0  0
   24.5344  -20.4526  -14.9314 C   0  0  2  0  0  0  0  0  0  0  0  0
   25.8979  -20.6371  -14.5521 N   0  0  0  0  0  0  0  0  0  0  0  0
   23.6870  -21.6437  -14.6465 C   0  0  0  0  0  0  0  0  0  0  0  0
   24.1188  -22.8092  -14.8292 O   0  0  0  0  0  0  0  0  0  0  0  0
   18.5540  -25.9065   -9.4874 N   0  0  0  0  0  0  0  0  0  0  0  0
   18.6449  -24.5347   -9.0884 C   0  0  0  0  0  0  0  0  0  0  0  0
   18.3439  -24.1540   -7.8945 N   0  0  0  0  0  0  0  0  0  0  0  0
   19.0734  -23.5296  -10.0021 N   0  0  0  0  0  0  0  0  0  0  0  0
   18.7487  -23.4792  -11.3862 C   0  0  0  0  0  0  0  0  0  0  0  0
   19.8899  -23.7384  -12.3208 C   0  0  0  0  0  0  0  0  0  0  0  0
   20.5428  -22.5090  -12.8400 C   0  0  0  0  0  0  0  0  0  0  0  0
   21.5389  -22.7389  -13.9526 C   0  0  2  0  0  0  0  0  0  0  0  0
   22.3530  -21.5332  -14.1551 N   0  0  0  0  0  0  0  0  0  0  0  0
   20.9384  -23.0840  -15.2455 C   0  0  0  0  0  0  0  0  0  0  0  0
   20.4797  -22.2256  -16.0398 O   0  0  0  0  0  0  0  0  0  0  0  0
   20.8504  -24.4029  -15.6559 O   0  0  0  0  0  0  0  0  0  0  0  0
  2  1  1  1
  3  4  1  0
  3  2  1  0
  4  5  2  0
  6  5  1  0
  7  6  1  0
  8  7  2  0
  9  8  1  0
 10 11  1  0
 10  9  2  0
 11 12  2  0
 12  7  1  0
 12  4  1  0
 13  2  1  0
 13 14  2  0
 15 16  1  0
 17 16  1  6
 17 18  1  0
 18 13  1  0
 19 17  1  0
 20 19  2  0
 22 21  1  0
 22 23  2  0
 24 22  1  0
 25 24  1  0
 26 25  1  0
 27 26  1  0
 28 27  1  1
 28 29  1  0
 29 19  1  0
 30 32  1  0
 30 28  1  0
 31 30  2  0
M  END
$$$$
