WSR.pdb
     RDKit          3D

 32 33  0  0  1  0  0  0  0  0999 V2000
   26.4991  -19.4098  -11.4618 N   0  0  0  0  0  0  0  0  0  0  0  0
   26.5104  -20.8377  -11.7116 C   0  0  1  0  0  0  0  0  0  0  0  0
   26.2087  -21.6232  -10.4593 C   0  0  0  0  0  0  0  0  0  0  0  0
   26.6715  -20.9444   -9.2260 C   0  0  0  0  0  0  0  0  0  0  0  0
   25.9512  -20.2212   -8.3012 C   0  0  0  0  0  0  0  0  0  0  0  0
   26.8035  -19.7998   -7.3509 N   0  0  0  0  0  0  0  0  0  0  0  0
   28.0616  -20.2178   -7.6130 C   0  0  0  0  0  0  0  0  0  0  0  0
   29.2439  -20.0389   -6.9400 C   0  0  0  0  0  0  0  0  0  0  0  0
   30.4038  -20.5887   -7.4402 C   0  0  0  0  0  0  0  0  0  0  0  0
   30.3404  -21.3041   -8.6058 C   0  0  0  0  0  0  0  0  0  0  0  0
   29.1525  -21.4792   -9.2747 C   0  0  0  0  0  0  0  0  0  0  0  0
   27.9769  -20.9359   -8.7899 C   0  0  0  0  0  0  0  0  0  0  0  0
   25.5264  -21.1795  -12.7592 C   0  0  0  0  0  0  0  0  0  0  0  0
   24.3624  -20.7259  -12.8053 O   0  0  0  0  0  0  0  0  0  0  0  0
   25.8383  -24.6058  -15.1642 O   0  0  0  0  0  0  0  0  0  0  0  0
   25.4614  -23.4401  -15.8401 C   0  0  0  0  0  0  0  0  0  0  0  0
   24.9020  -22.4969  -14.8000 C   0  0  2  0  0  0  0  0  0  0  0  0
   25.8618  -22.0869  -13.8266 N   0  0  0  0  0  0  0  0  0  0  0  0
   23.6719  -23.0769  -14.1930 C   0  0  0  0  0  0  0  0  0  0  0  0
   23.6151  -23.3469  -12.9674 O   0  0  0  0  0  0  0  0  0  0  0  0
   17.2534  -23.6798  -12.8851 N   0  0  0  0  0  0  0  0  0  0  0  0
   17.4635  -22.8265  -11.7550 C   0  0  0  0  0  0  0  0  0  0  0  0
   16.6199  -22.7685  -10.7824 N   0  0  0  0  0  0  0  0  0  0  0  0
   18.6206  -22.0013  -11.6611 N   0  0  0  0  0  0  0  0  0  0  0  0
   19.0884  -21.1170  -12.6726 C   0  0  0  0  0  0  0  0  0  0  0  0
   19.9220  -21.7525  -13.7423 C   0  0  0  0  0  0  0  0  0  0  0  0
   20.8460  -22.8060  -13.2486 C   0  0  0  0  0  0  0  0  0  0  0  0
   21.2755  -23.8142  -14.2888 C   0  0  2  0  0  0  0  0  0  0  0  0
   22.5006  -23.3558  -14.9570 N   0  0  0  0  0  0  0  0  0  0  0  0
   20.2785  -24.0742  -15.3327 C   0  0  0  0  0  0  0  0  0  0  0  0
   20.4247  -23.7114  -16.5265 O   0  0  0  0  0  0  0  0  0  0  0  0
   19.1055  -24.7478  -15.0395 O   0  0  0  0  0  0  0  0  0  0  0  0
  2  1  1  1
  3  4  1  0
  3  2  1  0
  4  5  2  0
  6  5  1  0
  7  6  1  0
  8  7  2  0
  9  8  1  0
 10 11  1  0
 10  9  2  0
 11 12  2  0
 12  7  1  0
 12  4  1  0
 13  2  1  0
 13 14  2  0
 15 16  1  0
 17 16  1  6
 17 18  1  0
 18 13  1  0
 19 17  1  0
 20 19  2  0
 22 21  1  0
 22 23  2  0
 24 22  1  0
 25 24  1  0
 26 25  1  0
 27 26  1  0
 28 27  1  1
 28 29  1  0
 29 19  1  0
 30 32  1  0
 30 28  1  0
 31 30  2  0
M  END
$$$$
