WSR.pdb
     RDKit          3D

 32 33  0  0  1  0  0  0  0  0999 V2000
   26.4971  -18.9444  -11.6293 N   0  0  0  0  0  0  0  0  0  0  0  0
   26.8115  -20.3029  -12.0256 C   0  0  1  0  0  0  0  0  0  0  0  0
   26.1279  -21.3129  -11.1373 C   0  0  0  0  0  0  0  0  0  0  0  0
   26.2435  -20.9869   -9.6964 C   0  0  0  0  0  0  0  0  0  0  0  0
   25.2565  -20.6809   -8.7857 C   0  0  0  0  0  0  0  0  0  0  0  0
   25.8445  -20.4603   -7.5970 N   0  0  0  0  0  0  0  0  0  0  0  0
   27.1846  -20.6092   -7.6880 C   0  0  0  0  0  0  0  0  0  0  0  0
   28.1837  -20.4895   -6.7551 C   0  0  0  0  0  0  0  0  0  0  0  0
   29.4930  -20.7033   -7.1263 C   0  0  0  0  0  0  0  0  0  0  0  0
   29.7598  -21.0318   -8.4284 C   0  0  0  0  0  0  0  0  0  0  0  0
   28.7539  -21.1498   -9.3575 C   0  0  0  0  0  0  0  0  0  0  0  0
   27.4331  -20.9397   -9.0059 C   0  0  0  0  0  0  0  0  0  0  0  0
   26.4129  -20.5292  -13.4300 C   0  0  0  0  0  0  0  0  0  0  0  0
   25.2824  -20.2620  -13.8918 O   0  0  0  0  0  0  0  0  0  0  0  0
   28.5793  -22.9249  -15.9803 O   0  0  0  0  0  0  0  0  0  0  0  0
   28.1462  -21.7520  -16.6085 C   0  0  0  0  0  0  0  0  0  0  0  0
   27.0153  -21.2027  -15.7697 C   0  0  2  0  0  0  0  0  0  0  0  0
   27.3356  -21.0902  -14.3835 N   0  0  0  0  0  0  0  0  0  0  0  0
   25.7707  -21.9827  -16.0158 C   0  0  0  0  0  0  0  0  0  0  0  0
   25.3323  -22.7958  -15.1645 O   0  0  0  0  0  0  0  0  0  0  0  0
   21.2337  -23.4793  -12.9526 N   0  0  0  0  0  0  0  0  0  0  0  0
   20.0367  -23.4829  -13.7378 C   0  0  0  0  0  0  0  0  0  0  0  0
   19.2667  -24.5148  -13.7962 N   0  0  0  0  0  0  0  0  0  0  0  0
   19.6478  -22.3388  -14.4917 N   0  0  0  0  0  0  0  0  0  0  0  0
   20.5346  -21.4515  -15.1626 C   0  0  0  0  0  0  0  0  0  0  0  0
   21.3500  -22.0684  -16.2569 C   0  0  0  0  0  0  0  0  0  0  0  0
   22.7979  -21.7411  -16.1957 C   0  0  0  0  0  0  0  0  0  0  0  0
   23.6392  -22.3711  -17.2812 C   0  0  2  0  0  0  0  0  0  0  0  0
   25.0124  -21.8537  -17.2165 N   0  0  0  0  0  0  0  0  0  0  0  0
   23.1478  -22.1396  -18.6437 C   0  0  0  0  0  0  0  0  0  0  0  0
   23.4000  -21.0959  -19.2958 O   0  0  0  0  0  0  0  0  0  0  0  0
   22.3668  -23.0853  -19.2849 O   0  0  0  0  0  0  0  0  0  0  0  0
  2  1  1  1
  3  4  1  0
  3  2  1  0
  4  5  2  0
  6  5  1  0
  7  6  1  0
  8  7  2  0
  9  8  1  0
 10 11  1  0
 10  9  2  0
 11 12  2  0
 12  7  1  0
 12  4  1  0
 13  2  1  0
 13 14  2  0
 15 16  1  0
 17 16  1  6
 17 18  1  0
 18 13  1  0
 19 17  1  0
 20 19  2  0
 22 21  1  0
 22 23  2  0
 24 22  1  0
 25 24  1  0
 26 25  1  0
 27 26  1  0
 28 27  1  1
 28 29  1  0
 29 19  1  0
 30 32  1  0
 30 28  1  0
 31 30  2  0
M  END
$$$$
