WSR.pdb
     RDKit          3D

 32 33  0  0  1  0  0  0  0  0999 V2000
   28.6728  -22.6682  -10.0782 N   0  0  0  0  0  0  0  0  0  0  0  0
   27.7661  -21.5420   -9.9736 C   0  0  1  0  0  0  0  0  0  0  0  0
   28.4922  -20.2789   -9.5817 C   0  0  0  0  0  0  0  0  0  0  0  0
   29.1940  -20.3955   -8.2818 C   0  0  0  0  0  0  0  0  0  0  0  0
   30.4357  -20.9212   -8.0007 C   0  0  0  0  0  0  0  0  0  0  0  0
   30.6439  -20.8055   -6.6777 N   0  0  0  0  0  0  0  0  0  0  0  0
   29.5854  -20.2225   -6.0729 C   0  0  0  0  0  0  0  0  0  0  0  0
   29.3446  -19.9000   -4.7612 C   0  0  0  0  0  0  0  0  0  0  0  0
   28.1563  -19.2957   -4.4141 C   0  0  0  0  0  0  0  0  0  0  0  0
   27.2424  -19.0330   -5.3992 C   0  0  0  0  0  0  0  0  0  0  0  0
   27.4903  -19.3590   -6.7111 C   0  0  0  0  0  0  0  0  0  0  0  0
   28.6766  -19.9659   -7.0809 C   0  0  0  0  0  0  0  0  0  0  0  0
   27.0646  -21.3317  -11.2567 C   0  0  0  0  0  0  0  0  0  0  0  0
   27.5812  -21.5197  -12.3794 O   0  0  0  0  0  0  0  0  0  0  0  0
   23.7606  -22.8971  -12.4285 O   0  0  0  0  0  0  0  0  0  0  0  0
   24.7845  -22.2443  -13.1237 C   0  0  0  0  0  0  0  0  0  0  0  0
   24.9321  -20.8773  -12.4963 C   0  0  2  0  0  0  0  0  0  0  0  0
   25.6964  -20.8822  -11.2909 N   0  0  0  0  0  0  0  0  0  0  0  0
   23.5946  -20.2431  -12.3321 C   0  0  0  0  0  0  0  0  0  0  0  0
   22.8926  -20.4574  -11.3126 O   0  0  0  0  0  0  0  0  0  0  0  0
   20.5966  -15.5685  -18.9082 N   0  0  0  0  0  0  0  0  0  0  0  0
   19.7155  -16.3411  -18.0861 C   0  0  0  0  0  0  0  0  0  0  0  0
   18.4360  -16.2964  -18.2339 N   0  0  0  0  0  0  0  0  0  0  0  0
   20.2218  -17.1946  -17.0643 N   0  0  0  0  0  0  0  0  0  0  0  0
   21.5946  -17.3533  -16.7261 C   0  0  0  0  0  0  0  0  0  0  0  0
   21.8743  -18.3390  -15.6337 C   0  0  0  0  0  0  0  0  0  0  0  0
   21.3161  -17.9564  -14.3111 C   0  0  0  0  0  0  0  0  0  0  0  0
   21.6516  -18.9019  -13.1812 C   0  0  2  0  0  0  0  0  0  0  0  0
   23.0393  -19.3657  -13.3095 N   0  0  0  0  0  0  0  0  0  0  0  0
   20.7971  -20.0919  -13.1094 C   0  0  0  0  0  0  0  0  0  0  0  0
   20.9382  -21.0845  -13.8664 O   0  0  0  0  0  0  0  0  0  0  0  0
   19.7742  -20.1741  -12.1807 O   0  0  0  0  0  0  0  0  0  0  0  0
  2  1  1  6
  3  4  1  0
  3  2  1  0
  4  5  2  0
  6  5  1  0
  7  6  1  0
  8  7  2  0
  9  8  1  0
 10 11  1  0
 10  9  2  0
 11 12  2  0
 12  7  1  0
 12  4  1  0
 13  2  1  0
 13 14  2  0
 15 16  1  0
 17 16  1  1
 17 18  1  0
 18 13  1  0
 19 17  1  0
 20 19  2  0
 22 21  1  0
 22 23  2  0
 24 22  1  0
 25 24  1  0
 26 25  1  0
 27 26  1  0
 28 27  1  6
 28 29  1  0
 29 19  1  0
 30 32  1  0
 30 28  1  0
 31 30  2  0
M  END
$$$$
