WSR.pdb
     RDKit          3D

 32 33  0  0  1  0  0  0  0  0999 V2000
   26.6981  -19.4663  -10.2609 N   0  0  0  0  0  0  0  0  0  0  0  0
   26.0832  -20.7153   -9.8567 C   0  0  1  0  0  0  0  0  0  0  0  0
   26.6488  -21.2157   -8.5506 C   0  0  0  0  0  0  0  0  0  0  0  0
   27.0132  -20.1204   -7.6213 C   0  0  0  0  0  0  0  0  0  0  0  0
   27.0265  -18.7596   -7.8337 C   0  0  0  0  0  0  0  0  0  0  0  0
   27.4263  -18.1672   -6.6950 N   0  0  0  0  0  0  0  0  0  0  0  0
   27.6782  -19.0864   -5.7370 C   0  0  0  0  0  0  0  0  0  0  0  0
   28.0995  -18.9611   -4.4372 C   0  0  0  0  0  0  0  0  0  0  0  0
   28.2766  -20.0885   -3.6655 C   0  0  0  0  0  0  0  0  0  0  0  0
   28.0243  -21.3123   -4.2255 C   0  0  0  0  0  0  0  0  0  0  0  0
   27.6026  -21.4302   -5.5282 C   0  0  0  0  0  0  0  0  0  0  0  0
   27.4184  -20.3114   -6.3200 C   0  0  0  0  0  0  0  0  0  0  0  0
   24.6210  -20.5458   -9.7301 C   0  0  0  0  0  0  0  0  0  0  0  0
   24.0402  -20.2178   -8.6729 O   0  0  0  0  0  0  0  0  0  0  0  0
   22.3494  -20.2197  -13.1086 O   0  0  0  0  0  0  0  0  0  0  0  0
   21.8351  -19.6520  -11.9377 C   0  0  0  0  0  0  0  0  0  0  0  0
   22.3477  -20.4887  -10.7882 C   0  0  2  0  0  0  0  0  0  0  0  0
   23.7481  -20.7555  -10.8568 N   0  0  0  0  0  0  0  0  0  0  0  0
   21.5281  -21.7245  -10.6502 C   0  0  0  0  0  0  0  0  0  0  0  0
   21.7997  -22.7627  -11.3032 O   0  0  0  0  0  0  0  0  0  0  0  0
   16.8732  -26.8183   -7.7900 N   0  0  0  0  0  0  0  0  0  0  0  0
   17.2238  -26.6202   -6.4163 C   0  0  0  0  0  0  0  0  0  0  0  0
   17.3021  -27.6039   -5.5873 N   0  0  0  0  0  0  0  0  0  0  0  0
   17.5004  -25.3188   -5.9078 N   0  0  0  0  0  0  0  0  0  0  0  0
   17.5764  -24.1284   -6.6831 C   0  0  0  0  0  0  0  0  0  0  0  0
   18.4901  -24.1940   -7.8679 C   0  0  0  0  0  0  0  0  0  0  0  0
   18.5550  -22.9368   -8.6570 C   0  0  0  0  0  0  0  0  0  0  0  0
   19.5107  -22.9683   -9.8268 C   0  0  2  0  0  0  0  0  0  0  0  0
   20.4017  -21.8016   -9.7792 N   0  0  0  0  0  0  0  0  0  0  0  0
   18.8624  -22.9707  -11.1426 C   0  0  0  0  0  0  0  0  0  0  0  0
   18.3427  -21.9472  -11.6531 O   0  0  0  0  0  0  0  0  0  0  0  0
   18.7949  -24.1294  -11.8966 O   0  0  0  0  0  0  0  0  0  0  0  0
  2  1  1  1
  3  4  1  0
  3  2  1  0
  4  5  2  0
  6  5  1  0
  7  6  1  0
  8  7  2  0
  9  8  1  0
 10 11  1  0
 10  9  2  0
 11 12  2  0
 12  7  1  0
 12  4  1  0
 13  2  1  0
 13 14  2  0
 15 16  1  0
 17 16  1  6
 17 18  1  0
 18 13  1  0
 19 17  1  0
 20 19  2  0
 22 21  1  0
 22 23  2  0
 24 22  1  0
 25 24  1  0
 26 25  1  0
 27 26  1  0
 28 27  1  1
 28 29  1  0
 29 19  1  0
 30 32  1  0
 30 28  1  0
 31 30  2  0
M  END
$$$$
