WSR.pdb
     RDKit          3D

 32 33  0  0  1  0  0  0  0  0999 V2000
   26.7268  -20.9734  -18.1179 N   0  0  0  0  0  0  0  0  0  0  0  0
   25.3651  -21.4625  -18.0280 C   0  0  1  0  0  0  0  0  0  0  0  0
   25.2473  -22.8756  -18.5433 C   0  0  0  0  0  0  0  0  0  0  0  0
   25.6019  -22.9994  -19.9768 C   0  0  0  0  0  0  0  0  0  0  0  0
   26.7277  -23.5405  -20.5571 C   0  0  0  0  0  0  0  0  0  0  0  0
   26.5999  -23.4288  -21.8907 N   0  0  0  0  0  0  0  0  0  0  0  0
   25.4306  -22.8335  -22.2140 C   0  0  0  0  0  0  0  0  0  0  0  0
   24.8714  -22.5133  -23.4254 C   0  0  0  0  0  0  0  0  0  0  0  0
   23.6389  -21.8994  -23.4671 C   0  0  0  0  0  0  0  0  0  0  0  0
   23.0033  -21.6246  -22.2859 C   0  0  0  0  0  0  0  0  0  0  0  0
   23.5695  -21.9482  -21.0761 C   0  0  0  0  0  0  0  0  0  0  0  0
   24.8057  -22.5648  -21.0119 C   0  0  0  0  0  0  0  0  0  0  0  0
   24.8943  -21.4052  -16.6288 C   0  0  0  0  0  0  0  0  0  0  0  0
   25.6497  -21.3360  -15.6352 O   0  0  0  0  0  0  0  0  0  0  0  0
   22.6359  -18.8853  -14.8681 O   0  0  0  0  0  0  0  0  0  0  0  0
   23.4906  -19.8882  -14.3976 C   0  0  0  0  0  0  0  0  0  0  0  0
   23.0040  -21.1885  -14.9948 C   0  0  2  0  0  0  0  0  0  0  0  0
   23.4883  -21.4261  -16.3161 N   0  0  0  0  0  0  0  0  0  0  0  0
   21.5202  -21.2721  -14.8973 C   0  0  0  0  0  0  0  0  0  0  0  0
   20.7787  -20.6753  -15.7172 O   0  0  0  0  0  0  0  0  0  0  0  0
   18.0018  -27.8937  -10.7333 N   0  0  0  0  0  0  0  0  0  0  0  0
   17.2180  -27.0154  -11.5478 C   0  0  0  0  0  0  0  0  0  0  0  0
   15.9475  -27.1770  -11.6920 N   0  0  0  0  0  0  0  0  0  0  0  0
   17.8159  -25.9215  -12.2368 N   0  0  0  0  0  0  0  0  0  0  0  0
   19.1954  -25.5759  -12.1979 C   0  0  0  0  0  0  0  0  0  0  0  0
   19.6116  -24.4973  -13.1499 C   0  0  0  0  0  0  0  0  0  0  0  0
   18.9451  -23.1899  -12.9177 C   0  0  0  0  0  0  0  0  0  0  0  0
   19.3948  -22.0749  -13.8328 C   0  0  2  0  0  0  0  0  0  0  0  0
   20.8619  -22.0256  -13.8813 N   0  0  0  0  0  0  0  0  0  0  0  0
   18.9245  -20.7411  -13.4439 C   0  0  0  0  0  0  0  0  0  0  0  0
   19.6279  -19.9284  -12.7936 O   0  0  0  0  0  0  0  0  0  0  0  0
   17.6545  -20.3104  -13.7862 O   0  0  0  0  0  0  0  0  0  0  0  0
  2  1  1  1
  3  4  1  0
  3  2  1  0
  4  5  2  0
  6  5  1  0
  7  6  1  0
  8  7  2  0
  9  8  1  0
 10 11  1  0
 10  9  2  0
 11 12  2  0
 12  7  1  0
 12  4  1  0
 13  2  1  0
 13 14  2  0
 15 16  1  0
 17 16  1  6
 17 18  1  0
 18 13  1  0
 19 17  1  0
 20 19  2  0
 22 21  1  0
 22 23  2  0
 24 22  1  0
 25 24  1  0
 26 25  1  0
 27 26  1  0
 28 27  1  1
 28 29  1  0
 29 19  1  0
 30 32  1  0
 30 28  1  0
 31 30  2  0
M  END
$$$$
