ILR.pdb
     RDKit          3D

 28 27  0  0  1  0  0  0  0  0999 V2000
   11.3733  -15.3582   30.6866 C   0  0  0  0  0  0  0  0  0  0  0  0
   10.3696  -16.4018   30.2329 C   0  0  0  0  0  0  0  0  0  0  0  0
    9.9326  -15.9917   28.8055 C   0  0  2  0  0  0  0  0  0  0  0  0
    9.5156  -14.5394   28.8218 C   0  0  0  0  0  0  0  0  0  0  0  0
    8.8125  -16.8971   28.3751 C   0  0  2  0  0  0  0  0  0  0  0  0
    9.2736  -18.3060   28.4242 N   0  0  0  0  0  0  0  0  0  0  0  0
    8.2846  -16.6575   27.0259 C   0  0  0  0  0  0  0  0  0  0  0  0
    7.8898  -17.6564   26.3141 O   0  0  0  0  0  0  0  0  0  0  0  0
    7.7722  -11.4276   25.3679 C   0  0  0  0  0  0  0  0  0  0  0  0
    7.4610  -12.8489   25.7899 C   0  0  1  0  0  0  0  0  0  0  0  0
    6.2052  -12.9028   26.5862 C   0  0  0  0  0  0  0  0  0  0  0  0
    7.5921  -13.8272   24.6817 C   0  0  0  0  0  0  0  0  0  0  0  0
    7.5646  -15.2696   25.0589 C   0  0  2  0  0  0  0  0  0  0  0  0
    8.1486  -15.4120   26.3880 N   0  0  0  0  0  0  0  0  0  0  0  0
    8.4412  -16.0693   24.1240 C   0  0  0  0  0  0  0  0  0  0  0  0
    8.5404  -17.3169   24.2205 O   0  0  0  0  0  0  0  0  0  0  0  0
    8.4488  -12.1931   17.1415 N   0  0  0  0  0  0  0  0  0  0  0  0
    7.6474  -13.3774   17.1999 C   0  0  0  0  0  0  0  0  0  0  0  0
    6.8105  -13.6946   16.2915 N   0  0  0  0  0  0  0  0  0  0  0  0
    7.7715  -14.2720   18.3249 N   0  0  0  0  0  0  0  0  0  0  0  0
    8.9756  -14.2220   19.1295 C   0  0  0  0  0  0  0  0  0  0  0  0
    8.9668  -15.2753   20.2348 C   0  0  0  0  0  0  0  0  0  0  0  0
   10.2339  -15.2559   21.0215 C   0  0  0  0  0  0  0  0  0  0  0  0
   10.0957  -16.0657   22.2717 C   0  0  2  0  0  0  0  0  0  0  0  0
    9.1499  -15.3585   23.1303 N   0  0  0  0  0  0  0  0  0  0  0  0
   11.3548  -16.3348   22.9461 C   0  0  0  0  0  0  0  0  0  0  0  0
   11.6877  -15.9258   24.0776 O   0  0  0  0  0  0  0  0  0  0  0  0
   12.3044  -17.1276   22.2803 O   0  0  0  0  0  0  0  0  0  0  0  0
  2  3  1  0
  2  1  1  0
  3  5  1  0
  3  4  1  1
  5  7  1  0
  5  6  1  6
  7  8  2  0
 10  9  1  6
 10 12  1  0
 11 10  1  0
 13 12  1  6
 14 13  1  0
 14  7  1  0
 15 13  1  0
 15 16  2  0
 17 18  1  0
 18 20  1  0
 18 19  2  0
 20 21  1  0
 21 22  1  0
 22 23  1  0
 24 23  1  6
 24 25  1  0
 24 26  1  0
 25 15  1  0
 26 27  2  0
 26 28  1  0
M  END
$$$$
