ILR.pdb
     RDKit          3D

 28 27  0  0  1  0  0  0  0  0999 V2000
   10.5268  -14.2477   29.4407 C   0  0  0  0  0  0  0  0  0  0  0  0
    9.2648  -14.8795   28.8836 C   0  0  0  0  0  0  0  0  0  0  0  0
    9.4544  -14.9470   27.3486 C   0  0  2  0  0  0  0  0  0  0  0  0
    9.7850  -13.5641   26.8371 C   0  0  0  0  0  0  0  0  0  0  0  0
    8.1917  -15.4888   26.7392 C   0  0  2  0  0  0  0  0  0  0  0  0
    7.8994  -16.8223   27.3191 N   0  0  0  0  0  0  0  0  0  0  0  0
    8.2058  -15.6416   25.2788 C   0  0  0  0  0  0  0  0  0  0  0  0
    8.4147  -16.8052   24.7661 O   0  0  0  0  0  0  0  0  0  0  0  0
    6.7984  -14.8214   20.0966 C   0  0  0  0  0  0  0  0  0  0  0  0
    7.6231  -13.7005   20.6950 C   0  0  1  0  0  0  0  0  0  0  0  0
    7.3683  -12.4175   19.9857 C   0  0  0  0  0  0  0  0  0  0  0  0
    7.5703  -13.6663   22.1777 C   0  0  0  0  0  0  0  0  0  0  0  0
    8.0972  -14.8648   22.8916 C   0  0  2  0  0  0  0  0  0  0  0  0
    8.0069  -14.6254   24.3277 N   0  0  0  0  0  0  0  0  0  0  0  0
    9.5647  -15.0502   22.5852 C   0  0  0  0  0  0  0  0  0  0  0  0
   10.4188  -14.1894   22.9094 O   0  0  0  0  0  0  0  0  0  0  0  0
   16.1753  -15.4098   23.2738 N   0  0  0  0  0  0  0  0  0  0  0  0
   16.4768  -16.7202   23.7639 C   0  0  0  0  0  0  0  0  0  0  0  0
   17.6516  -17.2159   23.7426 N   0  0  0  0  0  0  0  0  0  0  0  0
   15.4243  -17.5396   24.3134 N   0  0  0  0  0  0  0  0  0  0  0  0
   14.0778  -17.0067   24.3668 C   0  0  0  0  0  0  0  0  0  0  0  0
   13.3982  -17.0365   22.9999 C   0  0  0  0  0  0  0  0  0  0  0  0
   11.9929  -16.5421   23.0747 C   0  0  0  0  0  0  0  0  0  0  0  0
   11.3604  -16.5314   21.7192 C   0  0  2  0  0  0  0  0  0  0  0  0
    9.9444  -16.2350   21.9165 N   0  0  0  0  0  0  0  0  0  0  0  0
   11.5652  -17.7536   20.9596 C   0  0  0  0  0  0  0  0  0  0  0  0
   12.6505  -18.1616   20.4973 O   0  0  0  0  0  0  0  0  0  0  0  0
   10.4496  -18.5695   20.7078 O   0  0  0  0  0  0  0  0  0  0  0  0
  2  3  1  0
  2  1  1  0
  3  5  1  0
  3  4  1  6
  5  7  1  0
  5  6  1  1
  7  8  2  0
 10  9  1  6
 10 12  1  0
 11 10  1  0
 13 12  1  6
 14 13  1  0
 14  7  1  0
 15 13  1  0
 15 16  2  0
 17 18  1  0
 18 20  1  0
 18 19  2  0
 20 21  1  0
 21 22  1  0
 22 23  1  0
 24 23  1  1
 24 25  1  0
 24 26  1  0
 25 15  1  0
 26 27  2  0
 26 28  1  0
M  END
$$$$
