ILR.pdb
     RDKit          3D

 28 27  0  0  1  0  0  0  0  0999 V2000
    7.1442  -12.3205   18.3051 C   0  0  0  0  0  0  0  0  0  0  0  0
    7.2759  -13.6720   18.9821 C   0  0  0  0  0  0  0  0  0  0  0  0
    8.0173  -13.4182   20.3171 C   0  0  2  0  0  0  0  0  0  0  0  0
    9.3732  -12.8228   20.0161 C   0  0  0  0  0  0  0  0  0  0  0  0
    8.1239  -14.7236   21.0548 C   0  0  2  0  0  0  0  0  0  0  0  0
    6.8061  -15.4041   21.0415 N   0  0  0  0  0  0  0  0  0  0  0  0
    8.5516  -14.6283   22.4564 C   0  0  0  0  0  0  0  0  0  0  0  0
    9.7967  -14.4349   22.7264 O   0  0  0  0  0  0  0  0  0  0  0  0
    5.3073  -12.7808   26.5601 C   0  0  0  0  0  0  0  0  0  0  0  0
    6.6000  -12.9621   25.7915 C   0  0  1  0  0  0  0  0  0  0  0  0
    7.5463  -11.8493   26.0752 C   0  0  0  0  0  0  0  0  0  0  0  0
    7.1428  -14.3403   25.8819 C   0  0  0  0  0  0  0  0  0  0  0  0
    8.2571  -14.6805   24.9512 C   0  0  2  0  0  0  0  0  0  0  0  0
    7.7287  -14.7240   23.5923 N   0  0  0  0  0  0  0  0  0  0  0  0
    8.7778  -16.0673   25.2470 C   0  0  0  0  0  0  0  0  0  0  0  0
    8.0201  -17.0680   25.2509 O   0  0  0  0  0  0  0  0  0  0  0  0
   13.1734  -15.9493   20.6361 N   0  0  0  0  0  0  0  0  0  0  0  0
   13.9187  -15.5258   21.7822 C   0  0  0  0  0  0  0  0  0  0  0  0
   14.6427  -14.4760   21.7902 N   0  0  0  0  0  0  0  0  0  0  0  0
   13.8668  -16.3013   22.9975 N   0  0  0  0  0  0  0  0  0  0  0  0
   13.1359  -17.5525   22.9989 C   0  0  0  0  0  0  0  0  0  0  0  0
   11.8109  -17.4379   23.7488 C   0  0  0  0  0  0  0  0  0  0  0  0
   11.9845  -17.6812   25.2101 C   0  0  0  0  0  0  0  0  0  0  0  0
   10.6911  -17.4924   25.9377 C   0  0  2  0  0  0  0  0  0  0  0  0
   10.1572  -16.1990   25.5207 N   0  0  0  0  0  0  0  0  0  0  0  0
   10.8023  -17.6008   27.3828 C   0  0  0  0  0  0  0  0  0  0  0  0
   10.6127  -16.6837   28.2081 O   0  0  0  0  0  0  0  0  0  0  0  0
   11.1572  -18.8468   27.9263 O   0  0  0  0  0  0  0  0  0  0  0  0
  2  3  1  0
  2  1  1  0
  3  5  1  0
  3  4  1  6
  5  7  1  0
  5  6  1  1
  7  8  2  0
 10  9  1  1
 10 12  1  0
 11 10  1  0
 13 12  1  1
 14 13  1  0
 14  7  1  0
 15 13  1  0
 15 16  2  0
 17 18  1  0
 18 20  1  0
 18 19  2  0
 20 21  1  0
 21 22  1  0
 22 23  1  0
 24 23  1  6
 24 25  1  0
 24 26  1  0
 25 15  1  0
 26 27  2  0
 26 28  1  0
M  END
$$$$
