ILR.pdb
     RDKit          3D

 28 27  0  0  1  0  0  0  0  0999 V2000
    7.8028  -16.2680   17.3095 C   0  0  0  0  0  0  0  0  0  0  0  0
    7.6065  -14.8722   17.8710 C   0  0  0  0  0  0  0  0  0  0  0  0
    7.9880  -14.9495   19.3693 C   0  0  2  0  0  0  0  0  0  0  0  0
    7.1317  -16.0005   20.0367 C   0  0  0  0  0  0  0  0  0  0  0  0
    7.7916  -13.5894   19.9784 C   0  0  2  0  0  0  0  0  0  0  0  0
    8.6130  -12.5981   19.2417 N   0  0  0  0  0  0  0  0  0  0  0  0
    8.1396  -13.4738   21.4004 C   0  0  0  0  0  0  0  0  0  0  0  0
    9.3800  -13.4438   21.7480 O   0  0  0  0  0  0  0  0  0  0  0  0
    5.8004  -11.5404   26.7699 C   0  0  0  0  0  0  0  0  0  0  0  0
    6.9591  -12.1892   26.0410 C   0  0  1  0  0  0  0  0  0  0  0  0
    7.5165  -13.3202   26.8312 C   0  0  0  0  0  0  0  0  0  0  0  0
    6.6723  -12.4519   24.6089 C   0  0  0  0  0  0  0  0  0  0  0  0
    7.6854  -13.2512   23.8617 C   0  0  2  0  0  0  0  0  0  0  0  0
    7.2416  -13.3848   22.4786 N   0  0  0  0  0  0  0  0  0  0  0  0
    7.7579  -14.6531   24.4199 C   0  0  0  0  0  0  0  0  0  0  0  0
    6.7750  -15.4323   24.3719 O   0  0  0  0  0  0  0  0  0  0  0  0
   13.2859  -19.3913   20.5975 N   0  0  0  0  0  0  0  0  0  0  0  0
   12.1503  -20.1403   21.0422 C   0  0  0  0  0  0  0  0  0  0  0  0
   11.7721  -21.2236   20.4858 N   0  0  0  0  0  0  0  0  0  0  0  0
   11.3803  -19.6731   22.1692 N   0  0  0  0  0  0  0  0  0  0  0  0
   11.7186  -18.3976   22.7678 C   0  0  0  0  0  0  0  0  0  0  0  0
   10.8600  -18.0976   23.9941 C   0  0  0  0  0  0  0  0  0  0  0  0
   10.4051  -16.6772   24.0114 C   0  0  0  0  0  0  0  0  0  0  0  0
    9.3299  -16.4758   25.0319 C   0  0  2  0  0  0  0  0  0  0  0  0
    8.9793  -15.0588   25.0015 N   0  0  0  0  0  0  0  0  0  0  0  0
    9.6880  -16.9247   26.3671 C   0  0  0  0  0  0  0  0  0  0  0  0
    9.9161  -18.1022   26.7130 O   0  0  0  0  0  0  0  0  0  0  0  0
    9.7924  -15.9594   27.3825 O   0  0  0  0  0  0  0  0  0  0  0  0
  2  3  1  0
  2  1  1  0
  3  5  1  0
  3  4  1  1
  5  7  1  0
  5  6  1  6
  7  8  2  0
 10  9  1  1
 10 12  1  0
 11 10  1  0
 13 12  1  1
 14 13  1  0
 14  7  1  0
 15 13  1  0
 15 16  2  0
 17 18  1  0
 18 20  1  0
 18 19  2  0
 20 21  1  0
 21 22  1  0
 22 23  1  0
 24 23  1  6
 24 25  1  0
 24 26  1  0
 25 15  1  0
 26 27  2  0
 26 28  1  0
M  END
$$$$
