ILR.pdb
     RDKit          3D

 28 27  0  0  1  0  0  0  0  0999 V2000
    4.9984  -17.9663   20.4193 C   0  0  0  0  0  0  0  0  0  0  0  0
    6.1789  -17.2505   19.7898 C   0  0  0  0  0  0  0  0  0  0  0  0
    7.1432  -16.9014   20.9495 C   0  0  2  0  0  0  0  0  0  0  0  0
    7.1104  -18.0204   21.9643 C   0  0  0  0  0  0  0  0  0  0  0  0
    6.7151  -15.5878   21.5417 C   0  0  2  0  0  0  0  0  0  0  0  0
    6.7834  -14.5340   20.5001 N   0  0  0  0  0  0  0  0  0  0  0  0
    7.5048  -15.1202   22.6880 C   0  0  0  0  0  0  0  0  0  0  0  0
    8.7332  -14.7736   22.5112 O   0  0  0  0  0  0  0  0  0  0  0  0
    5.6483  -12.0559   26.7255 C   0  0  0  0  0  0  0  0  0  0  0  0
    6.6733  -12.6052   25.7547 C   0  0  1  0  0  0  0  0  0  0  0  0
    7.6743  -11.5645   25.3951 C   0  0  0  0  0  0  0  0  0  0  0  0
    7.2035  -13.9318   26.1565 C   0  0  0  0  0  0  0  0  0  0  0  0
    7.9641  -14.6876   25.1202 C   0  0  2  0  0  0  0  0  0  0  0  0
    7.0616  -14.9963   24.0166 N   0  0  0  0  0  0  0  0  0  0  0  0
    8.4226  -16.0154   25.6757 C   0  0  0  0  0  0  0  0  0  0  0  0
    7.6064  -16.8650   26.1088 O   0  0  0  0  0  0  0  0  0  0  0  0
   13.0374  -15.1130   21.1847 N   0  0  0  0  0  0  0  0  0  0  0  0
   11.8994  -15.9737   21.0731 C   0  0  0  0  0  0  0  0  0  0  0  0
   10.8308  -15.6360   20.4644 N   0  0  0  0  0  0  0  0  0  0  0  0
   11.9344  -17.2887   21.6654 N   0  0  0  0  0  0  0  0  0  0  0  0
   12.3213  -17.4202   23.0556 C   0  0  0  0  0  0  0  0  0  0  0  0
   11.1762  -17.9439   23.9190 C   0  0  0  0  0  0  0  0  0  0  0  0
   11.5148  -17.8910   25.3707 C   0  0  0  0  0  0  0  0  0  0  0  0
   10.3078  -17.5498   26.1859 C   0  0  2  0  0  0  0  0  0  0  0  0
    9.8120  -16.2691   25.6902 N   0  0  0  0  0  0  0  0  0  0  0  0
   10.5469  -17.5287   27.6194 C   0  0  0  0  0  0  0  0  0  0  0  0
   10.3689  -16.5572   28.3827 O   0  0  0  0  0  0  0  0  0  0  0  0
   11.0255  -18.7018   28.2264 O   0  0  0  0  0  0  0  0  0  0  0  0
  2  3  1  0
  2  1  1  0
  3  5  1  0
  3  4  1  1
  5  7  1  0
  5  6  1  6
  7  8  2  0
 10  9  1  1
 10 12  1  0
 11 10  1  0
 13 12  1  1
 14 13  1  0
 14  7  1  0
 15 13  1  0
 15 16  2  0
 17 18  1  0
 18 20  1  0
 18 19  2  0
 20 21  1  0
 21 22  1  0
 22 23  1  0
 24 23  1  6
 24 25  1  0
 24 26  1  0
 25 15  1  0
 26 27  2  0
 26 28  1  0
M  END
$$$$
