ILR.pdb
     RDKit          3D

 28 27  0  0  1  0  0  0  0  0999 V2000
    7.5230  -16.0091   18.0486 C   0  0  0  0  0  0  0  0  0  0  0  0
    7.5784  -14.6861   18.7894 C   0  0  0  0  0  0  0  0  0  0  0  0
    7.9436  -15.0246   20.2552 C   0  0  2  0  0  0  0  0  0  0  0  0
    7.0272  -16.1217   20.7449 C   0  0  0  0  0  0  0  0  0  0  0  0
    7.8154  -13.7720   21.0762 C   0  0  2  0  0  0  0  0  0  0  0  0
    8.5333  -12.6650   20.3984 N   0  0  0  0  0  0  0  0  0  0  0  0
    8.3354  -13.8547   22.4470 C   0  0  0  0  0  0  0  0  0  0  0  0
    9.5833  -13.6191   22.6658 O   0  0  0  0  0  0  0  0  0  0  0  0
    5.4642  -12.0931   26.9009 C   0  0  0  0  0  0  0  0  0  0  0  0
    6.6127  -12.3233   25.9403 C   0  0  1  0  0  0  0  0  0  0  0  0
    7.6700  -11.2920   26.1208 C   0  0  0  0  0  0  0  0  0  0  0  0
    7.0595  -13.7377   25.8952 C   0  0  0  0  0  0  0  0  0  0  0  0
    8.1636  -14.0582   24.9455 C   0  0  2  0  0  0  0  0  0  0  0  0
    7.6022  -14.1717   23.6040 N   0  0  0  0  0  0  0  0  0  0  0  0
    8.7557  -15.4091   25.2719 C   0  0  0  0  0  0  0  0  0  0  0  0
    9.2470  -15.6574   26.3999 O   0  0  0  0  0  0  0  0  0  0  0  0
    8.9596  -18.0913   18.4614 N   0  0  0  0  0  0  0  0  0  0  0  0
   10.3494  -18.3209   18.7145 C   0  0  0  0  0  0  0  0  0  0  0  0
   11.2577  -18.1075   17.8452 N   0  0  0  0  0  0  0  0  0  0  0  0
   10.7712  -18.8149   20.0026 N   0  0  0  0  0  0  0  0  0  0  0  0
    9.7671  -19.0857   21.0117 C   0  0  0  0  0  0  0  0  0  0  0  0
   10.0153  -18.2901   22.2909 C   0  0  0  0  0  0  0  0  0  0  0  0
    8.9650  -18.5571   23.3158 C   0  0  0  0  0  0  0  0  0  0  0  0
    9.2045  -17.7419   24.5470 C   0  0  2  0  0  0  0  0  0  0  0  0
    8.7363  -16.3899   24.2557 N   0  0  0  0  0  0  0  0  0  0  0  0
   10.5819  -17.7584   25.0106 C   0  0  0  0  0  0  0  0  0  0  0  0
   11.4032  -16.8231   24.9162 O   0  0  0  0  0  0  0  0  0  0  0  0
   11.0577  -18.9283   25.6259 O   0  0  0  0  0  0  0  0  0  0  0  0
  2  3  1  0
  2  1  1  0
  3  5  1  0
  3  4  1  1
  5  7  1  0
  5  6  1  6
  7  8  2  0
 10  9  1  1
 10 12  1  0
 11 10  1  0
 13 12  1  1
 14 13  1  0
 14  7  1  0
 15 13  1  0
 15 16  2  0
 17 18  1  0
 18 20  1  0
 18 19  2  0
 20 21  1  0
 21 22  1  0
 22 23  1  0
 24 23  1  6
 24 25  1  0
 24 26  1  0
 25 15  1  0
 26 27  2  0
 26 28  1  0
M  END
$$$$
