ILR.pdb
     RDKit          3D

 28 27  0  0  1  0  0  0  0  0999 V2000
    6.0137  -13.7091   18.5148 C   0  0  0  0  0  0  0  0  0  0  0  0
    7.4241  -14.1916   18.2315 C   0  0  0  0  0  0  0  0  0  0  0  0
    8.0233  -14.6064   19.5973 C   0  0  2  0  0  0  0  0  0  0  0  0
    7.2490  -15.7895   20.1302 C   0  0  0  0  0  0  0  0  0  0  0  0
    7.9562  -13.4234   20.5223 C   0  0  2  0  0  0  0  0  0  0  0  0
    8.7280  -12.2993   19.9386 N   0  0  0  0  0  0  0  0  0  0  0  0
    8.4708  -13.6479   21.8792 C   0  0  0  0  0  0  0  0  0  0  0  0
    9.7334  -13.8369   22.0541 O   0  0  0  0  0  0  0  0  0  0  0  0
    5.9043  -11.9035   26.5632 C   0  0  0  0  0  0  0  0  0  0  0  0
    7.0446  -12.1717   25.6028 C   0  0  1  0  0  0  0  0  0  0  0  0
    8.2057  -11.2894   25.8984 C   0  0  0  0  0  0  0  0  0  0  0  0
    7.3312  -13.6174   25.4284 C   0  0  0  0  0  0  0  0  0  0  0  0
    8.3119  -13.9792   24.3649 C   0  0  2  0  0  0  0  0  0  0  0  0
    7.7183  -13.6802   23.0664 N   0  0  0  0  0  0  0  0  0  0  0  0
    8.5703  -15.4675   24.3792 C   0  0  0  0  0  0  0  0  0  0  0  0
    7.6343  -16.2990   24.2896 O   0  0  0  0  0  0  0  0  0  0  0  0
   14.6413  -15.8884   21.8275 N   0  0  0  0  0  0  0  0  0  0  0  0
   13.5779  -15.1926   21.1692 C   0  0  0  0  0  0  0  0  0  0  0  0
   13.7212  -14.0362   20.6512 N   0  0  0  0  0  0  0  0  0  0  0  0
   12.2745  -15.8032   21.0711 N   0  0  0  0  0  0  0  0  0  0  0  0
   12.1463  -17.2242   21.3243 C   0  0  0  0  0  0  0  0  0  0  0  0
   10.9687  -17.5352   22.2450 C   0  0  0  0  0  0  0  0  0  0  0  0
   11.3844  -17.5637   23.6772 C   0  0  0  0  0  0  0  0  0  0  0  0
   10.2133  -17.3196   24.5755 C   0  0  2  0  0  0  0  0  0  0  0  0
    9.9118  -15.8931   24.4975 N   0  0  0  0  0  0  0  0  0  0  0  0
   10.4131  -17.7649   25.9445 C   0  0  0  0  0  0  0  0  0  0  0  0
   10.4307  -17.0402   26.9607 O   0  0  0  0  0  0  0  0  0  0  0  0
   10.6085  -19.1376   26.1706 O   0  0  0  0  0  0  0  0  0  0  0  0
  2  3  1  0
  2  1  1  0
  3  5  1  0
  3  4  1  1
  5  7  1  0
  5  6  1  6
  7  8  2  0
 10  9  1  1
 10 12  1  0
 11 10  1  0
 13 12  1  1
 14 13  1  0
 14  7  1  0
 15 13  1  0
 15 16  2  0
 17 18  1  0
 18 20  1  0
 18 19  2  0
 20 21  1  0
 21 22  1  0
 22 23  1  0
 24 23  1  6
 24 25  1  0
 24 26  1  0
 25 15  1  0
 26 27  2  0
 26 28  1  0
M  END
$$$$
