ILR.pdb
     RDKit          3D

 28 27  0  0  1  0  0  0  0  0999 V2000
    8.3181  -12.1863   28.1499 C   0  0  0  0  0  0  0  0  0  0  0  0
    7.5528  -13.4377   27.7618 C   0  0  0  0  0  0  0  0  0  0  0  0
    7.6329  -13.5342   26.2188 C   0  0  2  0  0  0  0  0  0  0  0  0
    6.8790  -12.3706   25.6180 C   0  0  0  0  0  0  0  0  0  0  0  0
    7.0593  -14.8581   25.7971 C   0  0  2  0  0  0  0  0  0  0  0  0
    7.0533  -15.7825   26.9571 N   0  0  0  0  0  0  0  0  0  0  0  0
    7.7648  -15.5364   24.7023 C   0  0  0  0  0  0  0  0  0  0  0  0
    7.7429  -16.8231   24.6364 O   0  0  0  0  0  0  0  0  0  0  0  0
    6.5773  -14.2646   19.7764 C   0  0  0  0  0  0  0  0  0  0  0  0
    7.6970  -13.4019   20.3212 C   0  0  1  0  0  0  0  0  0  0  0  0
    7.5838  -12.0060   19.8184 C   0  0  0  0  0  0  0  0  0  0  0  0
    7.9053  -13.5716   21.7807 C   0  0  0  0  0  0  0  0  0  0  0  0
    8.0671  -14.9698   22.2730 C   0  0  2  0  0  0  0  0  0  0  0  0
    8.4929  -14.9235   23.6674 N   0  0  0  0  0  0  0  0  0  0  0  0
    9.1745  -15.6639   21.5155 C   0  0  0  0  0  0  0  0  0  0  0  0
    8.9309  -16.5298   20.6401 O   0  0  0  0  0  0  0  0  0  0  0  0
   16.1358  -16.0170   26.0615 N   0  0  0  0  0  0  0  0  0  0  0  0
   15.7937  -16.3458   24.7112 C   0  0  0  0  0  0  0  0  0  0  0  0
   16.6248  -16.2712   23.7468 N   0  0  0  0  0  0  0  0  0  0  0  0
   14.4559  -16.7853   24.3975 N   0  0  0  0  0  0  0  0  0  0  0  0
   13.3487  -16.2702   25.1776 C   0  0  0  0  0  0  0  0  0  0  0  0
   12.0265  -16.9318   24.7970 C   0  0  0  0  0  0  0  0  0  0  0  0
   11.1662  -16.0164   23.9928 C   0  0  0  0  0  0  0  0  0  0  0  0
   11.3652  -16.2496   22.5287 C   0  0  2  0  0  0  0  0  0  0  0  0
   10.5030  -15.3013   21.8293 N   0  0  0  0  0  0  0  0  0  0  0  0
   11.1278  -17.6207   22.1090 C   0  0  0  0  0  0  0  0  0  0  0  0
   11.7023  -18.6372   22.5505 O   0  0  0  0  0  0  0  0  0  0  0  0
   10.1653  -17.8489   21.1115 O   0  0  0  0  0  0  0  0  0  0  0  0
  2  3  1  0
  2  1  1  0
  3  5  1  0
  3  4  1  6
  5  7  1  0
  5  6  1  1
  7  8  2  0
 10  9  1  1
 10 12  1  0
 11 10  1  0
 13 12  1  6
 14 13  1  0
 14  7  1  0
 15 13  1  0
 15 16  2  0
 17 18  1  0
 18 20  1  0
 18 19  2  0
 20 21  1  0
 21 22  1  0
 22 23  1  0
 24 23  1  1
 24 25  1  0
 24 26  1  0
 25 15  1  0
 26 27  2  0
 26 28  1  0
M  END
$$$$
