ILR.pdb
     RDKit          3D

 28 27  0  0  1  0  0  0  0  0999 V2000
    6.9989  -19.3227   19.3270 C   0  0  0  0  0  0  0  0  0  0  0  0
    6.9756  -17.8056   19.3111 C   0  0  0  0  0  0  0  0  0  0  0  0
    7.4645  -17.3495   20.7073 C   0  0  2  0  0  0  0  0  0  0  0  0
    6.5942  -17.9920   21.7624 C   0  0  0  0  0  0  0  0  0  0  0  0
    7.4053  -15.8485   20.7624 C   0  0  2  0  0  0  0  0  0  0  0  0
    8.1760  -15.2847   19.6274 N   0  0  0  0  0  0  0  0  0  0  0  0
    7.9273  -15.2367   21.9910 C   0  0  0  0  0  0  0  0  0  0  0  0
    9.1927  -15.0203   22.1021 O   0  0  0  0  0  0  0  0  0  0  0  0
    5.9840  -11.7343   26.6776 C   0  0  0  0  0  0  0  0  0  0  0  0
    7.1549  -12.4074   25.9915 C   0  0  1  0  0  0  0  0  0  0  0  0
    8.0185  -13.1072   26.9808 C   0  0  0  0  0  0  0  0  0  0  0  0
    6.7593  -13.1782   24.7866 C   0  0  0  0  0  0  0  0  0  0  0  0
    7.7712  -14.1273   24.2402 C   0  0  2  0  0  0  0  0  0  0  0  0
    7.1787  -14.8372   23.1120 N   0  0  0  0  0  0  0  0  0  0  0  0
    8.1094  -15.1786   25.2709 C   0  0  0  0  0  0  0  0  0  0  0  0
    7.2231  -15.8986   25.7920 O   0  0  0  0  0  0  0  0  0  0  0  0
   10.8954  -22.2449   23.5052 N   0  0  0  0  0  0  0  0  0  0  0  0
   11.6808  -21.3718   22.6871 C   0  0  0  0  0  0  0  0  0  0  0  0
   12.7422  -21.7490   22.0893 N   0  0  0  0  0  0  0  0  0  0  0  0
   11.2771  -19.9979   22.5119 N   0  0  0  0  0  0  0  0  0  0  0  0
   10.1218  -19.5098   23.2377 C   0  0  0  0  0  0  0  0  0  0  0  0
   10.5222  -18.6848   24.4585 C   0  0  0  0  0  0  0  0  0  0  0  0
    9.8833  -17.3370   24.4436 C   0  0  0  0  0  0  0  0  0  0  0  0
   10.0397  -16.6601   25.7684 C   0  0  2  0  0  0  0  0  0  0  0  0
    9.4677  -15.3239   25.6296 N   0  0  0  0  0  0  0  0  0  0  0  0
   11.4077  -16.6240   26.2581 C   0  0  0  0  0  0  0  0  0  0  0  0
   12.1151  -15.6048   26.3962 O   0  0  0  0  0  0  0  0  0  0  0  0
   12.0136  -17.8401   26.6153 O   0  0  0  0  0  0  0  0  0  0  0  0
  2  3  1  0
  2  1  1  0
  3  5  1  0
  3  4  1  1
  5  7  1  0
  5  6  1  6
  7  8  2  0
 10  9  1  1
 10 12  1  0
 11 10  1  0
 13 12  1  1
 14 13  1  0
 14  7  1  0
 15 13  1  0
 15 16  2  0
 17 18  1  0
 18 20  1  0
 18 19  2  0
 20 21  1  0
 21 22  1  0
 22 23  1  0
 24 23  1  6
 24 25  1  0
 24 26  1  0
 25 15  1  0
 26 27  2  0
 26 28  1  0
M  END
$$$$
