ILR.pdb
     RDKit          3D

 28 27  0  0  1  0  0  0  0  0999 V2000
    8.0592  -19.6933   19.7547 C   0  0  0  0  0  0  0  0  0  0  0  0
    7.8727  -18.1884   19.7007 C   0  0  0  0  0  0  0  0  0  0  0  0
    8.2382  -17.6552   21.1074 C   0  0  2  0  0  0  0  0  0  0  0  0
    7.3542  -18.3312   22.1297 C   0  0  0  0  0  0  0  0  0  0  0  0
    8.0637  -16.1622   21.1075 C   0  0  2  0  0  0  0  0  0  0  0  0
    8.9003  -15.5699   20.0355 N   0  0  0  0  0  0  0  0  0  0  0  0
    8.4140  -15.4817   22.3607 C   0  0  0  0  0  0  0  0  0  0  0  0
    9.6536  -15.3664   22.6932 O   0  0  0  0  0  0  0  0  0  0  0  0
    8.2069  -11.7919   26.3670 C   0  0  0  0  0  0  0  0  0  0  0  0
    7.0399  -12.7570   26.3314 C   0  0  1  0  0  0  0  0  0  0  0  0
    5.8373  -12.1591   26.9721 C   0  0  0  0  0  0  0  0  0  0  0  0
    6.8452  -13.3866   25.0017 C   0  0  0  0  0  0  0  0  0  0  0  0
    7.9669  -14.2257   24.4906 C   0  0  2  0  0  0  0  0  0  0  0  0
    7.5195  -14.9117   23.2835 N   0  0  0  0  0  0  0  0  0  0  0  0
    8.3063  -15.3064   25.4900 C   0  0  0  0  0  0  0  0  0  0  0  0
    7.4409  -16.1166   25.9028 O   0  0  0  0  0  0  0  0  0  0  0  0
   15.0889  -19.0034   23.7231 N   0  0  0  0  0  0  0  0  0  0  0  0
   13.8202  -19.4186   23.2070 C   0  0  0  0  0  0  0  0  0  0  0  0
   13.6907  -20.0413   22.1017 N   0  0  0  0  0  0  0  0  0  0  0  0
   12.6166  -19.1343   23.9496 N   0  0  0  0  0  0  0  0  0  0  0  0
   12.3115  -17.7588   24.2885 C   0  0  0  0  0  0  0  0  0  0  0  0
   11.0147  -17.6422   25.0860 C   0  0  0  0  0  0  0  0  0  0  0  0
   11.2508  -17.0482   26.4337 C   0  0  0  0  0  0  0  0  0  0  0  0
   10.0153  -16.3746   26.9414 C   0  0  2  0  0  0  0  0  0  0  0  0
    9.6412  -15.3737   25.9464 N   0  0  0  0  0  0  0  0  0  0  0  0
   10.1552  -15.8028   28.2703 C   0  0  0  0  0  0  0  0  0  0  0  0
   10.0955  -14.5905   28.5617 O   0  0  0  0  0  0  0  0  0  0  0  0
   10.3811  -16.6783   29.3456 O   0  0  0  0  0  0  0  0  0  0  0  0
  2  3  1  0
  2  1  1  0
  3  5  1  0
  3  4  1  1
  5  7  1  0
  5  6  1  6
  7  8  2  0
 10  9  1  6
 10 12  1  0
 11 10  1  0
 13 12  1  1
 14 13  1  0
 14  7  1  0
 15 13  1  0
 15 16  2  0
 17 18  1  0
 18 20  1  0
 18 19  2  0
 20 21  1  0
 21 22  1  0
 22 23  1  0
 24 23  1  6
 24 25  1  0
 24 26  1  0
 25 15  1  0
 26 27  2  0
 26 28  1  0
M  END
$$$$
