ILR.pdb
     RDKit          3D

 28 27  0  0  1  0  0  0  0  0999 V2000
    8.0030  -11.9978   19.8327 C   0  0  0  0  0  0  0  0  0  0  0  0
    7.7076  -13.1173   20.8133 C   0  0  0  0  0  0  0  0  0  0  0  0
    8.4434  -14.3693   20.2770 C   0  0  2  0  0  0  0  0  0  0  0  0
    7.9295  -14.6801   18.8905 C   0  0  0  0  0  0  0  0  0  0  0  0
    8.2077  -15.5033   21.2351 C   0  0  2  0  0  0  0  0  0  0  0  0
    6.7646  -15.8458   21.2449 N   0  0  0  0  0  0  0  0  0  0  0  0
    8.6063  -15.2532   22.6261 C   0  0  0  0  0  0  0  0  0  0  0  0
    9.8478  -15.0441   22.9009 O   0  0  0  0  0  0  0  0  0  0  0  0
    6.0902  -11.9846   26.4793 C   0  0  0  0  0  0  0  0  0  0  0  0
    7.1788  -12.6628   25.6731 C   0  0  1  0  0  0  0  0  0  0  0  0
    8.4875  -11.9832   25.8717 C   0  0  0  0  0  0  0  0  0  0  0  0
    7.1664  -14.1409   25.8057 C   0  0  0  0  0  0  0  0  0  0  0  0
    8.2392  -14.8841   25.0843 C   0  0  2  0  0  0  0  0  0  0  0  0
    7.7578  -15.2093   23.7463 N   0  0  0  0  0  0  0  0  0  0  0  0
    8.5096  -16.2033   25.7687 C   0  0  0  0  0  0  0  0  0  0  0  0
    7.5764  -16.9340   26.1820 O   0  0  0  0  0  0  0  0  0  0  0  0
   10.4152  -20.5708   22.4919 N   0  0  0  0  0  0  0  0  0  0  0  0
   11.2819  -19.7757   21.6764 C   0  0  0  0  0  0  0  0  0  0  0  0
   11.1618  -19.6949   20.4094 N   0  0  0  0  0  0  0  0  0  0  0  0
   12.3477  -19.0200   22.2881 N   0  0  0  0  0  0  0  0  0  0  0  0
   12.4759  -19.0327   23.7315 C   0  0  0  0  0  0  0  0  0  0  0  0
   11.2312  -18.4772   24.4193 C   0  0  0  0  0  0  0  0  0  0  0  0
   11.4186  -18.3770   25.8957 C   0  0  0  0  0  0  0  0  0  0  0  0
   10.1765  -17.8678   26.5558 C   0  0  2  0  0  0  0  0  0  0  0  0
    9.8591  -16.5883   25.9280 N   0  0  0  0  0  0  0  0  0  0  0  0
   10.2747  -17.7608   28.0019 C   0  0  0  0  0  0  0  0  0  0  0  0
   10.2349  -16.7058   28.6680 O   0  0  0  0  0  0  0  0  0  0  0  0
   10.4309  -18.9443   28.7426 O   0  0  0  0  0  0  0  0  0  0  0  0
  2  3  1  0
  2  1  1  0
  3  5  1  0
  3  4  1  6
  5  7  1  0
  5  6  1  1
  7  8  2  0
 10  9  1  1
 10 12  1  0
 11 10  1  0
 13 12  1  1
 14 13  1  0
 14  7  1  0
 15 13  1  0
 15 16  2  0
 17 18  1  0
 18 20  1  0
 18 19  2  0
 20 21  1  0
 21 22  1  0
 22 23  1  0
 24 23  1  6
 24 25  1  0
 24 26  1  0
 25 15  1  0
 26 27  2  0
 26 28  1  0
M  END
$$$$
