ILR.pdb
     RDKit          3D

 28 27  0  0  1  0  0  0  0  0999 V2000
    6.1384  -14.6027   19.1475 C   0  0  0  0  0  0  0  0  0  0  0  0
    6.9127  -15.5219   20.0737 C   0  0  0  0  0  0  0  0  0  0  0  0
    7.5427  -14.6147   21.1583 C   0  0  2  0  0  0  0  0  0  0  0  0
    8.4116  -13.5791   20.4831 C   0  0  0  0  0  0  0  0  0  0  0  0
    8.3268  -15.4816   22.1034 C   0  0  2  0  0  0  0  0  0  0  0  0
    7.4575  -16.5748   22.6028 N   0  0  0  0  0  0  0  0  0  0  0  0
    8.8861  -14.7984   23.2767 C   0  0  0  0  0  0  0  0  0  0  0  0
    9.8892  -14.0033   23.1277 O   0  0  0  0  0  0  0  0  0  0  0  0
    5.9124  -12.5228   27.2655 C   0  0  0  0  0  0  0  0  0  0  0  0
    7.0520  -12.7195   26.2871 C   0  0  1  0  0  0  0  0  0  0  0  0
    7.6712  -11.4159   25.9249 C   0  0  0  0  0  0  0  0  0  0  0  0
    7.9762  -13.8116   26.6817 C   0  0  0  0  0  0  0  0  0  0  0  0
    9.0443  -14.1672   25.7037 C   0  0  2  0  0  0  0  0  0  0  0  0
    8.4373  -14.9094   24.6045 N   0  0  0  0  0  0  0  0  0  0  0  0
   10.0455  -15.1008   26.3424 C   0  0  0  0  0  0  0  0  0  0  0  0
   10.6831  -14.7765   27.3738 O   0  0  0  0  0  0  0  0  0  0  0  0
   12.0040  -21.7935   29.2511 N   0  0  0  0  0  0  0  0  0  0  0  0
   11.5955  -21.0647   30.4132 C   0  0  0  0  0  0  0  0  0  0  0  0
   11.9863  -21.3601   31.5906 N   0  0  0  0  0  0  0  0  0  0  0  0
   10.7026  -19.9399   30.2766 N   0  0  0  0  0  0  0  0  0  0  0  0
   10.1695  -19.6243   28.9666 C   0  0  0  0  0  0  0  0  0  0  0  0
   11.1626  -18.8280   28.1236 C   0  0  0  0  0  0  0  0  0  0  0  0
   10.5827  -18.4518   26.8019 C   0  0  0  0  0  0  0  0  0  0  0  0
   11.2789  -17.2539   26.2376 C   0  0  2  0  0  0  0  0  0  0  0  0
   10.2399  -16.3604   25.7338 N   0  0  0  0  0  0  0  0  0  0  0  0
   12.2722  -17.5681   25.2242 C   0  0  0  0  0  0  0  0  0  0  0  0
   12.0856  -17.5898   23.9901 O   0  0  0  0  0  0  0  0  0  0  0  0
   13.5738  -17.8818   25.6499 O   0  0  0  0  0  0  0  0  0  0  0  0
  2  3  1  0
  2  1  1  0
  3  5  1  0
  3  4  1  6
  5  7  1  0
  5  6  1  1
  7  8  2  0
 10  9  1  1
 10 12  1  0
 11 10  1  0
 13 12  1  1
 14 13  1  0
 14  7  1  0
 15 13  1  0
 15 16  2  0
 17 18  1  0
 18 20  1  0
 18 19  2  0
 20 21  1  0
 21 22  1  0
 22 23  1  0
 24 23  1  6
 24 25  1  0
 24 26  1  0
 25 15  1  0
 26 27  2  0
 26 28  1  0
M  END
$$$$
