ILR.pdb
     RDKit          3D

 28 27  0  0  1  0  0  0  0  0999 V2000
    8.2164  -15.4153   17.5441 C   0  0  0  0  0  0  0  0  0  0  0  0
    7.9391  -14.1602   18.3504 C   0  0  0  0  0  0  0  0  0  0  0  0
    8.2839  -14.5036   19.8200 C   0  0  2  0  0  0  0  0  0  0  0  0
    7.5220  -15.7450   20.2222 C   0  0  0  0  0  0  0  0  0  0  0  0
    7.9310  -13.3206   20.6777 C   0  0  2  0  0  0  0  0  0  0  0  0
    8.5861  -12.1064   20.1330 N   0  0  0  0  0  0  0  0  0  0  0  0
    8.3122  -13.4249   22.0920 C   0  0  0  0  0  0  0  0  0  0  0  0
    9.5106  -13.1137   22.4491 O   0  0  0  0  0  0  0  0  0  0  0  0
    7.3960  -11.3604   25.9553 C   0  0  0  0  0  0  0  0  0  0  0  0
    6.7509  -12.6400   26.4464 C   0  0  1  0  0  0  0  0  0  0  0  0
    5.4679  -12.3536   27.1436 C   0  0  0  0  0  0  0  0  0  0  0  0
    6.7290  -13.7121   25.4204 C   0  0  0  0  0  0  0  0  0  0  0  0
    7.9304  -13.8206   24.5438 C   0  0  2  0  0  0  0  0  0  0  0  0
    7.4891  -13.8398   23.1536 N   0  0  0  0  0  0  0  0  0  0  0  0
    8.6325  -15.1367   24.7828 C   0  0  0  0  0  0  0  0  0  0  0  0
    8.8913  -15.5437   25.9417 O   0  0  0  0  0  0  0  0  0  0  0  0
   10.3786  -21.4345   18.7987 N   0  0  0  0  0  0  0  0  0  0  0  0
    9.4213  -21.7019   19.8284 C   0  0  0  0  0  0  0  0  0  0  0  0
    8.5392  -22.6181   19.7351 N   0  0  0  0  0  0  0  0  0  0  0  0
    9.4317  -20.9161   21.0382 N   0  0  0  0  0  0  0  0  0  0  0  0
   10.3979  -19.8440   21.1685 C   0  0  0  0  0  0  0  0  0  0  0  0
   10.3299  -19.1788   22.5411 C   0  0  0  0  0  0  0  0  0  0  0  0
    9.6510  -17.8524   22.4751 C   0  0  0  0  0  0  0  0  0  0  0  0
    9.6172  -17.2050   23.8232 C   0  0  2  0  0  0  0  0  0  0  0  0
    8.9896  -15.8983   23.6483 N   0  0  0  0  0  0  0  0  0  0  0  0
   10.9165  -17.1086   24.4674 C   0  0  0  0  0  0  0  0  0  0  0  0
   11.5486  -16.0575   24.6995 O   0  0  0  0  0  0  0  0  0  0  0  0
   11.5411  -18.2988   24.8758 O   0  0  0  0  0  0  0  0  0  0  0  0
  2  3  1  0
  2  1  1  0
  3  5  1  0
  3  4  1  1
  5  7  1  0
  5  6  1  6
  7  8  2  0
 10  9  1  6
 10 12  1  0
 11 10  1  0
 13 12  1  1
 14 13  1  0
 14  7  1  0
 15 13  1  0
 15 16  2  0
 17 18  1  0
 18 20  1  0
 18 19  2  0
 20 21  1  0
 21 22  1  0
 22 23  1  0
 24 23  1  6
 24 25  1  0
 24 26  1  0
 25 15  1  0
 26 27  2  0
 26 28  1  0
M  END
$$$$
