VGL.pdb
     RDKit          3D

 20 19  0  0  1  0  0  0  0  0999 V2000
    8.8104  -12.5857   20.3289 C   0  0  0  0  0  0  0  0  0  0  0  0
    7.9279  -13.2873   19.3266 C   0  0  1  0  0  0  0  0  0  0  0  0
    8.2229  -12.6851   17.9640 C   0  0  0  0  0  0  0  0  0  0  0  0
    8.3051  -14.7439   19.2833 C   0  0  2  0  0  0  0  0  0  0  0  0
    7.7207  -15.4571   18.1931 N   0  0  0  0  0  0  0  0  0  0  0  0
    7.8527  -15.3474   20.5876 C   0  0  0  0  0  0  0  0  0  0  0  0
    6.6317  -15.4027   20.8863 O   0  0  0  0  0  0  0  0  0  0  0  0
    8.7781  -15.8738   21.5244 N   0  0  0  0  0  0  0  0  0  0  0  0
    8.3229  -16.4002   22.7649 C   0  0  0  0  0  0  0  0  0  0  0  0
    8.8247  -15.6795   23.9464 C   0  0  0  0  0  0  0  0  0  0  0  0
   10.0351  -15.3469   23.9788 O   0  0  0  0  0  0  0  0  0  0  0  0
    5.7237  -12.2203   26.7009 C   0  0  0  0  0  0  0  0  0  0  0  0
    6.8841  -12.8953   26.0143 C   0  0  1  0  0  0  0  0  0  0  0  0
    7.9341  -11.8394   25.6629 C   0  0  0  0  0  0  0  0  0  0  0  0
    7.4388  -13.9484   26.8992 C   0  0  0  0  0  0  0  0  0  0  0  0
    8.5468  -14.7087   26.2696 C   0  0  2  0  0  0  0  0  0  0  0  0
    8.0092  -15.3408   25.0522 N   0  0  0  0  0  0  0  0  0  0  0  0
    9.0597  -15.7576   27.1545 C   0  0  0  0  0  0  0  0  0  0  0  0
    8.6603  -16.9376   26.9989 O   0  0  0  0  0  0  0  0  0  0  0  0
    9.9685  -15.5370   28.1633 O   0  0  0  0  0  0  0  0  0  0  0  0
  2  1  1  1
  3  2  1  0
  4  5  1  6
  4  2  1  0
  6  4  1  0
  6  7  2  0
  8  6  1  0
  9  8  1  0
  9 10  1  0
 10 17  1  0
 10 11  2  0
 13 15  1  0
 13 12  1  1
 14 13  1  0
 16 15  1  1
 16 18  1  0
 17 16  1  0
 18 20  1  0
 19 18  2  0
M  END
$$$$
