VGL.pdb
     RDKit          3D

 20 19  0  0  1  0  0  0  0  0999 V2000
    7.4824  -12.7232   18.5521 C   0  0  0  0  0  0  0  0  0  0  0  0
    8.4097  -13.3268   19.5776 C   0  0  1  0  0  0  0  0  0  0  0  0
    7.8563  -12.9792   20.9485 C   0  0  0  0  0  0  0  0  0  0  0  0
    8.3855  -14.8248   19.4320 C   0  0  2  0  0  0  0  0  0  0  0  0
    7.0949  -15.4013   19.6340 N   0  0  0  0  0  0  0  0  0  0  0  0
    9.3535  -15.3745   20.4475 C   0  0  0  0  0  0  0  0  0  0  0  0
   10.5605  -15.0194   20.4496 O   0  0  0  0  0  0  0  0  0  0  0  0
    8.9460  -16.3074   21.4347 N   0  0  0  0  0  0  0  0  0  0  0  0
    9.8615  -16.7426   22.4323 C   0  0  0  0  0  0  0  0  0  0  0  0
    9.7856  -15.9850   23.6923 C   0  0  0  0  0  0  0  0  0  0  0  0
   10.8034  -15.9341   24.4258 O   0  0  0  0  0  0  0  0  0  0  0  0
    8.1412  -12.0420   26.8985 C   0  0  0  0  0  0  0  0  0  0  0  0
    7.0569  -13.0622   26.6591 C   0  0  1  0  0  0  0  0  0  0  0  0
    5.7011  -12.3533   26.6583 C   0  0  0  0  0  0  0  0  0  0  0  0
    7.3109  -13.7635   25.3772 C   0  0  0  0  0  0  0  0  0  0  0  0
    8.5494  -14.5806   25.4001 C   0  0  2  0  0  0  0  0  0  0  0  0
    8.6191  -15.3081   24.1208 N   0  0  0  0  0  0  0  0  0  0  0  0
    8.5388  -15.5557   26.4934 C   0  0  0  0  0  0  0  0  0  0  0  0
    9.1023  -15.2650   27.5770 O   0  0  0  0  0  0  0  0  0  0  0  0
    7.9408  -16.7921   26.4160 O   0  0  0  0  0  0  0  0  0  0  0  0
  2  1  1  6
  3  2  1  0
  4  5  1  1
  4  2  1  0
  6  4  1  0
  6  7  2  0
  8  6  1  0
  9  8  1  0
  9 10  1  0
 10 17  1  0
 10 11  2  0
 13 15  1  0
 13 12  1  6
 14 13  1  0
 16 15  1  6
 16 18  1  0
 17 16  1  0
 18 20  1  0
 19 18  2  0
M  END
$$$$
