VGL.pdb
     RDKit          3D

 20 19  0  0  1  0  0  0  0  0999 V2000
    6.9249  -13.2901   18.2480 C   0  0  0  0  0  0  0  0  0  0  0  0
    8.1008  -13.7324   19.0831 C   0  0  1  0  0  0  0  0  0  0  0  0
    8.4227  -12.6029   20.0458 C   0  0  0  0  0  0  0  0  0  0  0  0
    7.6956  -14.9341   19.8940 C   0  0  2  0  0  0  0  0  0  0  0  0
    6.5890  -14.6942   20.7638 N   0  0  0  0  0  0  0  0  0  0  0  0
    8.9011  -15.3373   20.7030 C   0  0  0  0  0  0  0  0  0  0  0  0
    9.7519  -16.1407   20.2406 O   0  0  0  0  0  0  0  0  0  0  0  0
    9.1239  -14.8311   22.0088 N   0  0  0  0  0  0  0  0  0  0  0  0
   10.2242  -15.2962   22.7809 C   0  0  0  0  0  0  0  0  0  0  0  0
    9.9322  -15.4492   24.2157 C   0  0  0  0  0  0  0  0  0  0  0  0
   10.8880  -15.6428   25.0066 O   0  0  0  0  0  0  0  0  0  0  0  0
    5.9396  -12.5885   26.3602 C   0  0  0  0  0  0  0  0  0  0  0  0
    7.2598  -13.2844   26.1447 C   0  0  1  0  0  0  0  0  0  0  0  0
    8.3249  -12.6043   27.0072 C   0  0  0  0  0  0  0  0  0  0  0  0
    7.1212  -14.7234   26.4761 C   0  0  0  0  0  0  0  0  0  0  0  0
    8.3521  -15.5031   26.1950 C   0  0  2  0  0  0  0  0  0  0  0  0
    8.6238  -15.3890   24.7514 N   0  0  0  0  0  0  0  0  0  0  0  0
    8.1883  -16.9198   26.5302 C   0  0  0  0  0  0  0  0  0  0  0  0
    7.8220  -17.7209   25.6356 O   0  0  0  0  0  0  0  0  0  0  0  0
    8.4142  -17.4458   27.7809 O   0  0  0  0  0  0  0  0  0  0  0  0
  2  1  1  6
  3  2  1  0
  4  5  1  1
  4  2  1  0
  6  4  1  0
  6  7  2  0
  8  6  1  0
  9  8  1  0
  9 10  1  0
 10 17  1  0
 10 11  2  0
 13 15  1  0
 13 12  1  1
 14 13  1  0
 16 15  1  6
 16 18  1  0
 17 16  1  0
 18 20  1  0
 19 18  2  0
M  END
$$$$
