VGL.pdb
     RDKit          3D

 20 19  0  0  1  0  0  0  0  0999 V2000
    8.7359  -12.7603   18.1892 C   0  0  0  0  0  0  0  0  0  0  0  0
    8.6064  -13.3901   19.5539 C   0  0  1  0  0  0  0  0  0  0  0  0
    7.5033  -12.6508   20.2907 C   0  0  0  0  0  0  0  0  0  0  0  0
    8.1764  -14.8231   19.3883 C   0  0  2  0  0  0  0  0  0  0  0  0
    7.0875  -14.9955   18.4809 N   0  0  0  0  0  0  0  0  0  0  0  0
    7.7828  -15.3180   20.7560 C   0  0  0  0  0  0  0  0  0  0  0  0
    6.6731  -15.0086   21.2618 O   0  0  0  0  0  0  0  0  0  0  0  0
    8.6411  -16.1466   21.5227 N   0  0  0  0  0  0  0  0  0  0  0  0
    8.2380  -16.6032   22.8080 C   0  0  0  0  0  0  0  0  0  0  0  0
    8.7694  -15.8055   23.9254 C   0  0  0  0  0  0  0  0  0  0  0  0
    9.9909  -15.5146   23.9292 O   0  0  0  0  0  0  0  0  0  0  0  0
    5.5965  -12.4290   26.9113 C   0  0  0  0  0  0  0  0  0  0  0  0
    6.7574  -12.9882   26.1282 C   0  0  1  0  0  0  0  0  0  0  0  0
    7.7183  -11.8482   25.7847 C   0  0  0  0  0  0  0  0  0  0  0  0
    7.4248  -14.0491   26.9212 C   0  0  0  0  0  0  0  0  0  0  0  0
    8.5424  -14.6993   26.1929 C   0  0  2  0  0  0  0  0  0  0  0  0
    7.9705  -15.3477   25.0000 N   0  0  0  0  0  0  0  0  0  0  0  0
    9.2038  -15.7203   27.0092 C   0  0  0  0  0  0  0  0  0  0  0  0
    8.8687  -16.9226   26.8736 O   0  0  0  0  0  0  0  0  0  0  0  0
   10.1881  -15.4497   27.9313 O   0  0  0  0  0  0  0  0  0  0  0  0
  2  1  1  6
  3  2  1  0
  4  5  1  6
  4  2  1  0
  6  4  1  0
  6  7  2  0
  8  6  1  0
  9  8  1  0
  9 10  1  0
 10 17  1  0
 10 11  2  0
 13 15  1  0
 13 12  1  1
 14 13  1  0
 16 15  1  1
 16 18  1  0
 17 16  1  0
 18 20  1  0
 19 18  2  0
M  END
$$$$
