VGL.pdb
     RDKit          3D

 20 19  0  0  1  0  0  0  0  0999 V2000
    8.8592  -12.8873   18.0170 C   0  0  0  0  0  0  0  0  0  0  0  0
    8.5963  -13.4702   19.3833 C   0  0  1  0  0  0  0  0  0  0  0  0
    7.3447  -12.8033   19.9266 C   0  0  0  0  0  0  0  0  0  0  0  0
    8.3138  -14.9415   19.2372 C   0  0  2  0  0  0  0  0  0  0  0  0
    7.3906  -15.2487   18.1922 N   0  0  0  0  0  0  0  0  0  0  0  0
    7.7616  -15.4098   20.5586 C   0  0  0  0  0  0  0  0  0  0  0  0
    6.5366  -15.2997   20.8238 O   0  0  0  0  0  0  0  0  0  0  0  0
    8.5942  -15.9895   21.5494 N   0  0  0  0  0  0  0  0  0  0  0  0
    8.0449  -16.4111   22.7917 C   0  0  0  0  0  0  0  0  0  0  0  0
    8.6002  -15.7147   23.9639 C   0  0  0  0  0  0  0  0  0  0  0  0
    9.8441  -15.5613   24.0389 O   0  0  0  0  0  0  0  0  0  0  0  0
    5.6158  -12.0444   26.7039 C   0  0  0  0  0  0  0  0  0  0  0  0
    6.7431  -12.7503   25.9937 C   0  0  1  0  0  0  0  0  0  0  0  0
    7.8040  -11.7199   25.6018 C   0  0  0  0  0  0  0  0  0  0  0  0
    7.3006  -13.8049   26.8750 C   0  0  0  0  0  0  0  0  0  0  0  0
    8.3761  -14.5937   26.2245 C   0  0  2  0  0  0  0  0  0  0  0  0
    7.8002  -15.2073   25.0151 N   0  0  0  0  0  0  0  0  0  0  0  0
    8.8750  -15.6589   27.0979 C   0  0  0  0  0  0  0  0  0  0  0  0
    8.4370  -16.8260   26.9495 O   0  0  0  0  0  0  0  0  0  0  0  0
    9.8104  -15.4673   28.0880 O   0  0  0  0  0  0  0  0  0  0  0  0
  2  1  1  6
  3  2  1  0
  4  5  1  6
  4  2  1  0
  6  4  1  0
  6  7  2  0
  8  6  1  0
  9  8  1  0
  9 10  1  0
 10 17  1  0
 10 11  2  0
 13 15  1  0
 13 12  1  1
 14 13  1  0
 16 15  1  1
 16 18  1  0
 17 16  1  0
 18 20  1  0
 19 18  2  0
M  END
$$$$
