VGL.pdb
     RDKit          3D

 20 19  0  0  1  0  0  0  0  0999 V2000
    6.8735  -19.0816   19.6591 C   0  0  0  0  0  0  0  0  0  0  0  0
    5.8558  -19.3690   20.7350 C   0  0  1  0  0  0  0  0  0  0  0  0
    5.5324  -20.8512   20.6678 C   0  0  0  0  0  0  0  0  0  0  0  0
    6.4762  -19.0882   22.0774 C   0  0  2  0  0  0  0  0  0  0  0  0
    5.7514  -19.6464   23.1737 N   0  0  0  0  0  0  0  0  0  0  0  0
    6.5407  -17.5896   22.2199 C   0  0  0  0  0  0  0  0  0  0  0  0
    5.6060  -16.9507   22.7687 O   0  0  0  0  0  0  0  0  0  0  0  0
    7.6496  -16.8443   21.7447 N   0  0  0  0  0  0  0  0  0  0  0  0
    7.7245  -15.4428   21.9756 C   0  0  0  0  0  0  0  0  0  0  0  0
    8.3764  -15.0745   23.2431 C   0  0  0  0  0  0  0  0  0  0  0  0
    9.5576  -14.6498   23.2107 O   0  0  0  0  0  0  0  0  0  0  0  0
    5.8516  -12.1140   26.6352 C   0  0  0  0  0  0  0  0  0  0  0  0
    6.9970  -12.7371   25.8780 C   0  0  1  0  0  0  0  0  0  0  0  0
    8.1496  -11.7334   25.8090 C   0  0  0  0  0  0  0  0  0  0  0  0
    7.4049  -13.9972   26.5455 C   0  0  0  0  0  0  0  0  0  0  0  0
    8.3937  -14.7750   25.7585 C   0  0  2  0  0  0  0  0  0  0  0  0
    7.7372  -15.1751   24.5016 N   0  0  0  0  0  0  0  0  0  0  0  0
    8.8250  -15.9828   26.4667 C   0  0  0  0  0  0  0  0  0  0  0  0
    9.4891  -15.8658   27.5257 O   0  0  0  0  0  0  0  0  0  0  0  0
    8.5464  -17.2624   26.0460 O   0  0  0  0  0  0  0  0  0  0  0  0
  2  1  1  6
  3  2  1  0
  4  5  1  1
  4  2  1  0
  6  4  1  0
  6  7  2  0
  8  6  1  0
  9  8  1  0
  9 10  1  0
 10 17  1  0
 10 11  2  0
 13 15  1  0
 13 12  1  1
 14 13  1  0
 16 15  1  1
 16 18  1  0
 17 16  1  0
 18 20  1  0
 19 18  2  0
M  END
$$$$
