VGL.pdb
     RDKit          3D

 20 19  0  0  1  0  0  0  0  0999 V2000
    8.8180  -12.5591   20.3171 C   0  0  0  0  0  0  0  0  0  0  0  0
    7.7555  -13.2562   19.5041 C   0  0  1  0  0  0  0  0  0  0  0  0
    7.8034  -12.6738   18.1024 C   0  0  0  0  0  0  0  0  0  0  0  0
    8.0966  -14.7194   19.4122 C   0  0  2  0  0  0  0  0  0  0  0  0
    7.3748  -15.4153   18.3955 N   0  0  0  0  0  0  0  0  0  0  0  0
    7.7881  -15.3215   20.7585 C   0  0  0  0  0  0  0  0  0  0  0  0
    6.6081  -15.3653   21.1930 O   0  0  0  0  0  0  0  0  0  0  0  0
    8.8079  -15.8592   21.5843 N   0  0  0  0  0  0  0  0  0  0  0  0
    8.4850  -16.4190   22.8513 C   0  0  0  0  0  0  0  0  0  0  0  0
    8.9369  -15.6149   23.9986 C   0  0  0  0  0  0  0  0  0  0  0  0
   10.1124  -15.1737   23.9981 O   0  0  0  0  0  0  0  0  0  0  0  0
    5.7320  -12.2530   26.7500 C   0  0  0  0  0  0  0  0  0  0  0  0
    6.9256  -12.8806   26.0755 C   0  0  1  0  0  0  0  0  0  0  0  0
    7.9527  -11.7887   25.7696 C   0  0  0  0  0  0  0  0  0  0  0  0
    7.4905  -13.9367   26.9503 C   0  0  0  0  0  0  0  0  0  0  0  0
    8.6244  -14.6611   26.3245 C   0  0  2  0  0  0  0  0  0  0  0  0
    8.1106  -15.3126   25.1070 N   0  0  0  0  0  0  0  0  0  0  0  0
    9.1694  -15.6911   27.2123 C   0  0  0  0  0  0  0  0  0  0  0  0
    9.7797  -15.3409   28.2521 O   0  0  0  0  0  0  0  0  0  0  0  0
    9.0556  -17.0428   26.9840 O   0  0  0  0  0  0  0  0  0  0  0  0
  2  1  1  1
  3  2  1  0
  4  5  1  6
  4  2  1  0
  6  4  1  0
  6  7  2  0
  8  6  1  0
  9  8  1  0
  9 10  1  0
 10 17  1  0
 10 11  2  0
 13 15  1  0
 13 12  1  1
 14 13  1  0
 16 15  1  1
 16 18  1  0
 17 16  1  0
 18 20  1  0
 19 18  2  0
M  END
$$$$
