VGL.pdb
     RDKit          3D

 20 19  0  0  1  0  0  0  0  0999 V2000
    7.0571  -12.7401   18.7590 C   0  0  0  0  0  0  0  0  0  0  0  0
    8.2412  -13.2560   19.5384 C   0  0  1  0  0  0  0  0  0  0  0  0
    8.2279  -12.5661   20.8912 C   0  0  0  0  0  0  0  0  0  0  0  0
    8.0653  -14.7333   19.7674 C   0  0  2  0  0  0  0  0  0  0  0  0
    6.8450  -15.0715   20.4272 N   0  0  0  0  0  0  0  0  0  0  0  0
    9.2367  -15.1850   20.6004 C   0  0  0  0  0  0  0  0  0  0  0  0
   10.4177  -15.0278   20.1957 O   0  0  0  0  0  0  0  0  0  0  0  0
    9.0568  -15.8010   21.8650 N   0  0  0  0  0  0  0  0  0  0  0  0
   10.1831  -16.1457   22.6622 C   0  0  0  0  0  0  0  0  0  0  0  0
   10.0559  -15.7702   24.0800 C   0  0  0  0  0  0  0  0  0  0  0  0
   11.0710  -15.8445   24.8153 O   0  0  0  0  0  0  0  0  0  0  0  0
    5.9092  -12.6629   25.9206 C   0  0  0  0  0  0  0  0  0  0  0  0
    7.2846  -13.2510   25.7318 C   0  0  1  0  0  0  0  0  0  0  0  0
    8.3175  -12.3019   26.3427 C   0  0  0  0  0  0  0  0  0  0  0  0
    7.3382  -14.5959   26.3549 C   0  0  0  0  0  0  0  0  0  0  0  0
    8.6260  -15.2935   26.1159 C   0  0  2  0  0  0  0  0  0  0  0  0
    8.8428  -15.3278   24.6591 N   0  0  0  0  0  0  0  0  0  0  0  0
    8.6018  -16.6694   26.6185 C   0  0  0  0  0  0  0  0  0  0  0  0
    8.7316  -16.8722   27.8506 O   0  0  0  0  0  0  0  0  0  0  0  0
    8.4415  -17.7777   25.8197 O   0  0  0  0  0  0  0  0  0  0  0  0
  2  1  1  6
  3  2  1  0
  4  5  1  1
  4  2  1  0
  6  4  1  0
  6  7  2  0
  8  6  1  0
  9  8  1  0
  9 10  1  0
 10 17  1  0
 10 11  2  0
 13 15  1  0
 13 12  1  1
 14 13  1  0
 16 15  1  6
 16 18  1  0
 17 16  1  0
 18 20  1  0
 19 18  2  0
M  END
$$$$
