VGL.pdb
     RDKit          3D

 20 19  0  0  1  0  0  0  0  0999 V2000
    9.0860  -12.8549   20.6760 C   0  0  0  0  0  0  0  0  0  0  0  0
    7.6858  -13.3985   20.8167 C   0  0  1  0  0  0  0  0  0  0  0  0
    6.8295  -12.7221   19.7605 C   0  0  0  0  0  0  0  0  0  0  0  0
    7.7065  -14.8749   20.5237 C   0  0  2  0  0  0  0  0  0  0  0  0
    6.4120  -15.4355   20.3031 N   0  0  0  0  0  0  0  0  0  0  0  0
    8.3554  -15.5425   21.7084 C   0  0  0  0  0  0  0  0  0  0  0  0
    7.6625  -16.1182   22.5868 O   0  0  0  0  0  0  0  0  0  0  0  0
    9.7631  -15.5488   21.8800 N   0  0  0  0  0  0  0  0  0  0  0  0
   10.3634  -16.3911   22.8563 C   0  0  0  0  0  0  0  0  0  0  0  0
   10.2090  -15.9147   24.2407 C   0  0  0  0  0  0  0  0  0  0  0  0
   11.2052  -15.9519   25.0042 O   0  0  0  0  0  0  0  0  0  0  0  0
    5.9829  -12.6182   25.9032 C   0  0  0  0  0  0  0  0  0  0  0  0
    7.3854  -13.1551   25.7681 C   0  0  1  0  0  0  0  0  0  0  0  0
    8.3515  -12.1999   26.4719 C   0  0  0  0  0  0  0  0  0  0  0  0
    7.4499  -14.5219   26.3403 C   0  0  0  0  0  0  0  0  0  0  0  0
    8.7868  -15.1487   26.1920 C   0  0  2  0  0  0  0  0  0  0  0  0
    8.9901  -15.4148   24.7572 N   0  0  0  0  0  0  0  0  0  0  0  0
    8.8782  -16.4162   26.9209 C   0  0  0  0  0  0  0  0  0  0  0  0
    8.6090  -17.4863   26.3220 O   0  0  0  0  0  0  0  0  0  0  0  0
    9.2478  -16.5194   28.2418 O   0  0  0  0  0  0  0  0  0  0  0  0
  2  1  1  6
  3  2  1  0
  4  5  1  1
  4  2  1  0
  6  4  1  0
  6  7  2  0
  8  6  1  0
  9  8  1  0
  9 10  1  0
 10 17  1  0
 10 11  2  0
 13 15  1  0
 13 12  1  1
 14 13  1  0
 16 15  1  6
 16 18  1  0
 17 16  1  0
 18 20  1  0
 19 18  2  0
M  END
$$$$
