VGL.pdb
     RDKit          3D

 20 19  0  0  1  0  0  0  0  0999 V2000
    6.8895  -12.9347   18.8834 C   0  0  0  0  0  0  0  0  0  0  0  0
    8.1070  -13.3350   19.6792 C   0  0  1  0  0  0  0  0  0  0  0  0
    8.0242  -12.6270   21.0201 C   0  0  0  0  0  0  0  0  0  0  0  0
    8.0557  -14.8180   19.9318 C   0  0  2  0  0  0  0  0  0  0  0  0
    6.8583  -15.2500   20.5785 N   0  0  0  0  0  0  0  0  0  0  0  0
    9.2475  -15.1525   20.7909 C   0  0  0  0  0  0  0  0  0  0  0  0
   10.4112  -14.8298   20.4375 O   0  0  0  0  0  0  0  0  0  0  0  0
    9.1068  -15.8396   22.0234 N   0  0  0  0  0  0  0  0  0  0  0  0
   10.2504  -16.1314   22.8171 C   0  0  0  0  0  0  0  0  0  0  0  0
   10.0694  -15.8701   24.2545 C   0  0  0  0  0  0  0  0  0  0  0  0
   11.0677  -15.9537   25.0115 O   0  0  0  0  0  0  0  0  0  0  0  0
    5.9336  -12.7093   26.1822 C   0  0  0  0  0  0  0  0  0  0  0  0
    7.3088  -13.2953   25.9844 C   0  0  1  0  0  0  0  0  0  0  0  0
    8.3305  -12.4169   26.7091 C   0  0  0  0  0  0  0  0  0  0  0  0
    7.3296  -14.6907   26.4865 C   0  0  0  0  0  0  0  0  0  0  0  0
    8.6381  -15.3600   26.2814 C   0  0  2  0  0  0  0  0  0  0  0  0
    8.8223  -15.5280   24.8294 N   0  0  0  0  0  0  0  0  0  0  0  0
    8.6800  -16.6803   26.9148 C   0  0  0  0  0  0  0  0  0  0  0  0
    8.2797  -17.6803   26.2699 O   0  0  0  0  0  0  0  0  0  0  0  0
    9.1385  -16.9071   28.1917 O   0  0  0  0  0  0  0  0  0  0  0  0
  2  1  1  6
  3  2  1  0
  4  5  1  1
  4  2  1  0
  6  4  1  0
  6  7  2  0
  8  6  1  0
  9  8  1  0
  9 10  1  0
 10 17  1  0
 10 11  2  0
 13 15  1  0
 13 12  1  1
 14 13  1  0
 16 15  1  6
 16 18  1  0
 17 16  1  0
 18 20  1  0
 19 18  2  0
M  END
$$$$
