VGL.pdb
     RDKit          3D

 20 19  0  0  1  0  0  0  0  0999 V2000
    3.1814  -19.5390   21.5857 C   0  0  0  0  0  0  0  0  0  0  0  0
    4.3843  -18.6781   21.2894 C   0  0  1  0  0  0  0  0  0  0  0  0
    3.8967  -17.2447   21.1704 C   0  0  0  0  0  0  0  0  0  0  0  0
    5.3331  -18.7517   22.4558 C   0  0  2  0  0  0  0  0  0  0  0  0
    4.7538  -18.3422   23.6949 N   0  0  0  0  0  0  0  0  0  0  0  0
    6.5013  -17.8610   22.1208 C   0  0  0  0  0  0  0  0  0  0  0  0
    7.5575  -18.3362   21.6291 O   0  0  0  0  0  0  0  0  0  0  0  0
    6.4578  -16.4614   22.3444 N   0  0  0  0  0  0  0  0  0  0  0  0
    7.5992  -15.6560   22.0770 C   0  0  0  0  0  0  0  0  0  0  0  0
    8.2891  -15.1685   23.2826 C   0  0  0  0  0  0  0  0  0  0  0  0
    9.4195  -14.6368   23.1552 O   0  0  0  0  0  0  0  0  0  0  0  0
    5.7678  -12.4102   26.7167 C   0  0  0  0  0  0  0  0  0  0  0  0
    6.7999  -13.0646   25.8335 C   0  0  1  0  0  0  0  0  0  0  0  0
    7.7017  -11.9811   25.2388 C   0  0  0  0  0  0  0  0  0  0  0  0
    7.5749  -14.0513   26.6244 C   0  0  0  0  0  0  0  0  0  0  0  0
    8.4872  -14.8728   25.7907 C   0  0  2  0  0  0  0  0  0  0  0  0
    7.7412  -15.2689   24.5835 N   0  0  0  0  0  0  0  0  0  0  0  0
    8.9226  -16.0839   26.4906 C   0  0  0  0  0  0  0  0  0  0  0  0
    9.6137  -15.9722   27.5328 O   0  0  0  0  0  0  0  0  0  0  0  0
    8.6198  -17.3612   26.0796 O   0  0  0  0  0  0  0  0  0  0  0  0
  2  1  1  1
  3  2  1  0
  4  5  1  1
  4  2  1  0
  6  4  1  0
  6  7  2  0
  8  6  1  0
  9  8  1  0
  9 10  1  0
 10 17  1  0
 10 11  2  0
 13 15  1  0
 13 12  1  1
 14 13  1  0
 16 15  1  1
 16 18  1  0
 17 16  1  0
 18 20  1  0
 19 18  2  0
M  END
$$$$
