VGL.pdb
     RDKit          3D

 20 19  0  0  1  0  0  0  0  0999 V2000
    8.1156  -12.5911   20.1871 C   0  0  0  0  0  0  0  0  0  0  0  0
    7.7833  -13.4104   18.9647 C   0  0  1  0  0  0  0  0  0  0  0  0
    8.2497  -12.6240   17.7522 C   0  0  0  0  0  0  0  0  0  0  0  0
    8.5650  -14.6959   19.0147 C   0  0  2  0  0  0  0  0  0  0  0  0
    8.4425  -15.4895   17.8341 N   0  0  0  0  0  0  0  0  0  0  0  0
    8.0531  -15.4682   20.2029 C   0  0  0  0  0  0  0  0  0  0  0  0
    6.9825  -16.1258   20.1351 O   0  0  0  0  0  0  0  0  0  0  0  0
    8.7522  -15.4850   21.4366 N   0  0  0  0  0  0  0  0  0  0  0  0
    8.1851  -16.1228   22.5743 C   0  0  0  0  0  0  0  0  0  0  0  0
    8.7023  -15.6308   23.8618 C   0  0  0  0  0  0  0  0  0  0  0  0
    9.9266  -15.3688   23.9576 O   0  0  0  0  0  0  0  0  0  0  0  0
    5.9111  -12.1136   26.6809 C   0  0  0  0  0  0  0  0  0  0  0  0
    7.0147  -12.9041   26.0246 C   0  0  1  0  0  0  0  0  0  0  0  0
    8.2144  -11.9830   25.7942 C   0  0  0  0  0  0  0  0  0  0  0  0
    7.3686  -14.0640   26.8785 C   0  0  0  0  0  0  0  0  0  0  0  0
    8.4167  -14.9261   26.2782 C   0  0  2  0  0  0  0  0  0  0  0  0
    7.8868  -15.4370   25.0019 N   0  0  0  0  0  0  0  0  0  0  0  0
    8.7441  -16.0654   27.1390 C   0  0  0  0  0  0  0  0  0  0  0  0
    8.2303  -17.1842   26.8935 O   0  0  0  0  0  0  0  0  0  0  0  0
    9.5941  -15.9952   28.2183 O   0  0  0  0  0  0  0  0  0  0  0  0
  2  1  1  1
  3  2  1  0
  4  5  1  6
  4  2  1  0
  6  4  1  0
  6  7  2  0
  8  6  1  0
  9  8  1  0
  9 10  1  0
 10 17  1  0
 10 11  2  0
 13 15  1  0
 13 12  1  1
 14 13  1  0
 16 15  1  1
 16 18  1  0
 17 16  1  0
 18 20  1  0
 19 18  2  0
M  END
$$$$
