VGL.pdb
     RDKit          3D

 20 19  0  0  1  0  0  0  0  0999 V2000
    7.2587  -12.3945   19.6578 C   0  0  0  0  0  0  0  0  0  0  0  0
    7.6286  -13.6550   18.9160 C   0  0  1  0  0  0  0  0  0  0  0  0
    8.1696  -13.2395   17.5592 C   0  0  0  0  0  0  0  0  0  0  0  0
    8.7333  -14.3521   19.6641 C   0  0  2  0  0  0  0  0  0  0  0  0
    9.1572  -15.5731   19.0572 N   0  0  0  0  0  0  0  0  0  0  0  0
    8.2112  -14.6269   21.0505 C   0  0  0  0  0  0  0  0  0  0  0  0
    7.9004  -13.6842   21.8238 O   0  0  0  0  0  0  0  0  0  0  0  0
    8.0504  -15.9494   21.5363 N   0  0  0  0  0  0  0  0  0  0  0  0
    7.5112  -16.1773   22.8326 C   0  0  0  0  0  0  0  0  0  0  0  0
    8.3366  -15.6481   23.9307 C   0  0  0  0  0  0  0  0  0  0  0  0
    9.5816  -15.5963   23.7762 O   0  0  0  0  0  0  0  0  0  0  0  0
    6.0274  -12.1704   27.3817 C   0  0  0  0  0  0  0  0  0  0  0  0
    6.9689  -12.8516   26.4208 C   0  0  1  0  0  0  0  0  0  0  0  0
    7.8699  -11.7956   25.7775 C   0  0  0  0  0  0  0  0  0  0  0  0
    7.7568  -13.8793   27.1439 C   0  0  0  0  0  0  0  0  0  0  0  0
    8.6367  -14.6700   26.2481 C   0  0  2  0  0  0  0  0  0  0  0  0
    7.7962  -15.1927   25.1567 N   0  0  0  0  0  0  0  0  0  0  0  0
    9.2521  -15.8005   26.9478 C   0  0  0  0  0  0  0  0  0  0  0  0
    8.7713  -16.9499   26.7929 O   0  0  0  0  0  0  0  0  0  0  0  0
   10.3433  -15.6900   27.7779 O   0  0  0  0  0  0  0  0  0  0  0  0
  2  1  1  1
  3  2  1  0
  4  5  1  6
  4  2  1  0
  6  4  1  0
  6  7  2  0
  8  6  1  0
  9  8  1  0
  9 10  1  0
 10 17  1  0
 10 11  2  0
 13 15  1  0
 13 12  1  1
 14 13  1  0
 16 15  1  1
 16 18  1  0
 17 16  1  0
 18 20  1  0
 19 18  2  0
M  END
$$$$
