VGL.pdb
     RDKit          3D

 20 19  0  0  1  0  0  0  0  0999 V2000
    9.1840  -12.8738   20.5990 C   0  0  0  0  0  0  0  0  0  0  0  0
    7.7428  -13.3138   20.5281 C   0  0  1  0  0  0  0  0  0  0  0  0
    7.0938  -12.5556   19.3835 C   0  0  0  0  0  0  0  0  0  0  0  0
    7.6991  -14.7819   20.1981 C   0  0  2  0  0  0  0  0  0  0  0  0
    6.4069  -15.2445   19.8046 N   0  0  0  0  0  0  0  0  0  0  0  0
    8.1488  -15.5173   21.4339 C   0  0  0  0  0  0  0  0  0  0  0  0
    7.3123  -15.9890   22.2468 O   0  0  0  0  0  0  0  0  0  0  0  0
    9.5231  -15.7060   21.7285 N   0  0  0  0  0  0  0  0  0  0  0  0
    9.9216  -16.6340   22.7300 C   0  0  0  0  0  0  0  0  0  0  0  0
    9.8349  -16.1125   24.1040 C   0  0  0  0  0  0  0  0  0  0  0  0
   10.8494  -16.1858   24.8402 O   0  0  0  0  0  0  0  0  0  0  0  0
    5.8021  -12.5893   25.8410 C   0  0  0  0  0  0  0  0  0  0  0  0
    7.1561  -13.2112   25.6097 C   0  0  1  0  0  0  0  0  0  0  0  0
    8.2318  -12.2793   26.1711 C   0  0  0  0  0  0  0  0  0  0  0  0
    7.2018  -14.5498   26.2469 C   0  0  0  0  0  0  0  0  0  0  0  0
    8.5100  -15.2286   26.0739 C   0  0  2  0  0  0  0  0  0  0  0  0
    8.6616  -15.5305   24.6398 N   0  0  0  0  0  0  0  0  0  0  0  0
    8.5763  -16.4838   26.8263 C   0  0  0  0  0  0  0  0  0  0  0  0
    8.0688  -17.5202   26.3317 O   0  0  0  0  0  0  0  0  0  0  0  0
    9.1695  -16.6105   28.0609 O   0  0  0  0  0  0  0  0  0  0  0  0
  2  1  1  6
  3  2  1  0
  4  5  1  1
  4  2  1  0
  6  4  1  0
  6  7  2  0
  8  6  1  0
  9  8  1  0
  9 10  1  0
 10 17  1  0
 10 11  2  0
 13 15  1  0
 13 12  1  1
 14 13  1  0
 16 15  1  6
 16 18  1  0
 17 16  1  0
 18 20  1  0
 19 18  2  0
M  END
$$$$
