SNY.pdb
     RDKit          3D

 27 27  0  0  1  0  0  0  0  0999 V2000
    3.9245  -18.6636   23.1401 O   0  0  0  0  0  0  0  0  0  0  0  0
    5.2845  -18.4070   23.1815 C   0  0  0  0  0  0  0  0  0  0  0  0
    6.0361  -19.6889   22.8781 C   0  0  2  0  0  0  0  0  0  0  0  0
    5.5619  -20.7075   23.7624 N   0  0  0  0  0  0  0  0  0  0  0  0
    7.4899  -19.4286   23.0284 C   0  0  0  0  0  0  0  0  0  0  0  0
    8.1222  -19.8842   24.0127 O   0  0  0  0  0  0  0  0  0  0  0  0
   12.4491  -19.6179   21.4272 N   0  0  0  0  0  0  0  0  0  0  0  0
   11.6238  -19.0411   20.4403 C   0  0  0  0  0  0  0  0  0  0  0  0
   12.1641  -18.6227   19.3885 O   0  0  0  0  0  0  0  0  0  0  0  0
   10.1789  -18.9039   20.5735 C   0  0  0  0  0  0  0  0  0  0  0  0
    9.6648  -18.7304   21.9683 C   0  0  2  0  0  0  0  0  0  0  0  0
    8.2440  -18.6564   22.0770 N   0  0  0  0  0  0  0  0  0  0  0  0
   10.3466  -17.5703   22.6245 C   0  0  0  0  0  0  0  0  0  0  0  0
   11.5946  -17.5802   22.7786 O   0  0  0  0  0  0  0  0  0  0  0  0
   10.5529  -17.9436   29.6467 O   0  0  0  0  0  0  0  0  0  0  0  0
   10.2891  -17.2070   28.4851 C   0  0  0  0  0  0  0  0  0  0  0  0
    9.5732  -16.0299   28.5259 C   0  0  0  0  0  0  0  0  0  0  0  0
    9.3108  -15.3008   27.3842 C   0  0  0  0  0  0  0  0  0  0  0  0
    9.7542  -15.7146   26.1341 C   0  0  0  0  0  0  0  0  0  0  0  0
    9.4675  -14.9302   24.9314 C   0  0  0  0  0  0  0  0  0  0  0  0
   10.3012  -15.3002   23.7354 C   0  0  2  0  0  0  0  0  0  0  0  0
    9.6503  -16.4286   23.0968 N   0  0  0  0  0  0  0  0  0  0  0  0
   11.6954  -15.6089   24.0485 C   0  0  0  0  0  0  0  0  0  0  0  0
   12.6086  -14.6792   24.5194 O   0  0  0  0  0  0  0  0  0  0  0  0
   10.4683  -16.8944   26.1153 C   0  0  0  0  0  0  0  0  0  0  0  0
   10.7340  -17.6271   27.2498 C   0  0  0  0  0  0  0  0  0  0  0  0
   12.1078  -16.7844   23.8865 O   0  0  0  0  0  0  0  0  0  0  0  0
  1  2  1  0
  3  2  1  0
  3  4  1  1
  5  3  1  0
  5  6  2  0
  7  8  1  0
  8 10  1  0
  8  9  2  0
 11 10  1  6
 11 12  1  0
 12  5  1  0
 13 11  1  0
 13 22  1  0
 14 13  2  0
 15 16  1  0
 16 26  2  0
 17 18  2  0
 17 16  1  0
 18 19  1  0
 19 20  1  0
 19 25  2  0
 21 20  1  1
 21 22  1  0
 21 23  1  0
 23 27  2  0
 23 24  1  0
 26 25  1  0
M  END
$$$$
