SNY.pdb
     RDKit          3D

 27 27  0  0  1  0  0  0  0  0999 V2000
    8.2820  -19.0217   22.0587 O   0  0  0  0  0  0  0  0  0  0  0  0
    8.5888  -19.5642   20.8223 C   0  0  0  0  0  0  0  0  0  0  0  0
    8.1740  -18.5863   19.7397 C   0  0  2  0  0  0  0  0  0  0  0  0
    8.5311  -19.1422   18.4717 N   0  0  0  0  0  0  0  0  0  0  0  0
    8.8361  -17.2841   20.0032 C   0  0  0  0  0  0  0  0  0  0  0  0
   10.0034  -17.0666   19.5952 O   0  0  0  0  0  0  0  0  0  0  0  0
    8.7468  -14.1588   18.2765 N   0  0  0  0  0  0  0  0  0  0  0  0
    8.0337  -13.4485   19.2638 C   0  0  0  0  0  0  0  0  0  0  0  0
    7.3033  -12.4974   18.8962 O   0  0  0  0  0  0  0  0  0  0  0  0
    8.0976  -13.7571   20.6869 C   0  0  0  0  0  0  0  0  0  0  0  0
    8.8539  -14.9955   21.0537 C   0  0  2  0  0  0  0  0  0  0  0  0
    8.1948  -16.2177   20.7254 N   0  0  0  0  0  0  0  0  0  0  0  0
    9.2625  -14.9383   22.4927 C   0  0  0  0  0  0  0  0  0  0  0  0
    9.9831  -13.9934   22.9041 O   0  0  0  0  0  0  0  0  0  0  0  0
    6.2667  -10.5601   26.5598 O   0  0  0  0  0  0  0  0  0  0  0  0
    6.7328  -11.8642   26.3510 C   0  0  0  0  0  0  0  0  0  0  0  0
    7.9960  -12.2493   26.7455 C   0  0  0  0  0  0  0  0  0  0  0  0
    8.4595  -13.5329   26.5420 C   0  0  0  0  0  0  0  0  0  0  0  0
    7.6777  -14.5041   25.9289 C   0  0  0  0  0  0  0  0  0  0  0  0
    8.1838  -15.8621   25.7194 C   0  0  0  0  0  0  0  0  0  0  0  0
    9.3775  -15.9462   24.8080 C   0  0  2  0  0  0  0  0  0  0  0  0
    8.8756  -15.9134   23.4472 N   0  0  0  0  0  0  0  0  0  0  0  0
   10.2180  -17.1218   25.0276 C   0  0  0  0  0  0  0  0  0  0  0  0
   10.4624  -18.0907   24.0675 O   0  0  0  0  0  0  0  0  0  0  0  0
    6.4177  -14.0984   25.5419 C   0  0  0  0  0  0  0  0  0  0  0  0
    5.9483  -12.8200   25.7416 C   0  0  0  0  0  0  0  0  0  0  0  0
   10.7601  -17.2793   26.1498 O   0  0  0  0  0  0  0  0  0  0  0  0
  1  2  1  0
  3  2  1  0
  3  4  1  6
  5  3  1  0
  5  6  2  0
  7  8  1  0
  8 10  1  0
  8  9  2  0
 11 10  1  1
 11 12  1  0
 12  5  1  0
 13 11  1  0
 13 22  1  0
 14 13  2  0
 15 16  1  0
 16 26  2  0
 17 18  2  0
 17 16  1  0
 18 19  1  0
 19 20  1  0
 19 25  2  0
 21 20  1  1
 21 22  1  0
 21 23  1  0
 23 27  2  0
 23 24  1  0
 26 25  1  0
M  END
$$$$
