SNY.pdb
     RDKit          3D

 27 27  0  0  1  0  0  0  0  0999 V2000
    4.2090  -17.8918   21.8961 O   0  0  0  0  0  0  0  0  0  0  0  0
    5.5549  -17.6467   22.1093 C   0  0  0  0  0  0  0  0  0  0  0  0
    6.1377  -16.9929   20.8711 C   0  0  2  0  0  0  0  0  0  0  0  0
    5.5765  -17.6299   19.7206 N   0  0  0  0  0  0  0  0  0  0  0  0
    7.6164  -17.1102   20.9290 C   0  0  0  0  0  0  0  0  0  0  0  0
    8.2354  -17.8084   20.0889 O   0  0  0  0  0  0  0  0  0  0  0  0
   12.9798  -15.2574   20.5214 N   0  0  0  0  0  0  0  0  0  0  0  0
   12.0097  -16.2356   20.8209 C   0  0  0  0  0  0  0  0  0  0  0  0
   12.4020  -17.4008   21.0688 O   0  0  0  0  0  0  0  0  0  0  0  0
   10.5772  -15.9689   20.8586 C   0  0  0  0  0  0  0  0  0  0  0  0
    9.8296  -16.5752   22.0046 C   0  0  2  0  0  0  0  0  0  0  0  0
    8.4106  -16.4462   21.9281 N   0  0  0  0  0  0  0  0  0  0  0  0
   10.3780  -16.0650   23.3008 C   0  0  0  0  0  0  0  0  0  0  0  0
   11.2315  -15.1413   23.3018 O   0  0  0  0  0  0  0  0  0  0  0  0
    5.2590  -12.3745   25.9267 O   0  0  0  0  0  0  0  0  0  0  0  0
    6.5463  -12.9255   25.9007 C   0  0  0  0  0  0  0  0  0  0  0  0
    7.2917  -12.9598   24.7419 C   0  0  0  0  0  0  0  0  0  0  0  0
    8.5603  -13.5016   24.7114 C   0  0  0  0  0  0  0  0  0  0  0  0
    9.1528  -14.0407   25.8467 C   0  0  0  0  0  0  0  0  0  0  0  0
   10.4999  -14.6125   25.7985 C   0  0  0  0  0  0  0  0  0  0  0  0
   10.5375  -16.1160   25.8230 C   0  0  2  0  0  0  0  0  0  0  0  0
    9.9825  -16.5750   24.5637 N   0  0  0  0  0  0  0  0  0  0  0  0
    9.8327  -16.7152   26.9549 C   0  0  0  0  0  0  0  0  0  0  0  0
   10.1827  -16.5145   28.2806 O   0  0  0  0  0  0  0  0  0  0  0  0
    8.3905  -13.9964   26.9951 C   0  0  0  0  0  0  0  0  0  0  0  0
    7.1244  -13.4577   27.0334 C   0  0  0  0  0  0  0  0  0  0  0  0
    8.8469  -17.4606   26.7302 O   0  0  0  0  0  0  0  0  0  0  0  0
  1  2  1  0
  3  2  1  0
  3  4  1  6
  5  3  1  0
  5  6  2  0
  7  8  1  0
  8 10  1  0
  8  9  2  0
 11 10  1  6
 11 12  1  0
 12  5  1  0
 13 11  1  0
 13 22  1  0
 14 13  2  0
 15 16  1  0
 16 26  2  0
 17 18  2  0
 17 16  1  0
 18 19  1  0
 19 20  1  0
 19 25  2  0
 21 20  1  1
 21 22  1  0
 21 23  1  0
 23 27  2  0
 23 24  1  0
 26 25  1  0
M  END
$$$$
