SNY.pdb
     RDKit          3D

 27 27  0  0  1  0  0  0  0  0999 V2000
    9.9594  -15.4467   16.4580 O   0  0  0  0  0  0  0  0  0  0  0  0
   10.0821  -16.7715   16.0745 C   0  0  0  0  0  0  0  0  0  0  0  0
    9.3322  -17.6414   17.0650 C   0  0  2  0  0  0  0  0  0  0  0  0
    7.9344  -17.5440   16.7799 N   0  0  0  0  0  0  0  0  0  0  0  0
    9.6714  -17.1905   18.4381 C   0  0  0  0  0  0  0  0  0  0  0  0
    9.0451  -16.2425   18.9724 O   0  0  0  0  0  0  0  0  0  0  0  0
   14.6409  -17.5847   18.7727 N   0  0  0  0  0  0  0  0  0  0  0  0
   13.8772  -16.5733   18.1550 C   0  0  0  0  0  0  0  0  0  0  0  0
   14.4102  -15.9093   17.2340 O   0  0  0  0  0  0  0  0  0  0  0  0
   12.5039  -16.2562   18.5263 C   0  0  0  0  0  0  0  0  0  0  0  0
   11.9039  -17.1087   19.6002 C   0  0  2  0  0  0  0  0  0  0  0  0
   10.7140  -17.7988   19.2209 N   0  0  0  0  0  0  0  0  0  0  0  0
   11.7212  -16.3046   20.8497 C   0  0  0  0  0  0  0  0  0  0  0  0
   12.7163  -15.7753   21.4074 O   0  0  0  0  0  0  0  0  0  0  0  0
    7.9471  -12.3379   17.3057 O   0  0  0  0  0  0  0  0  0  0  0  0
    8.1878  -12.8898   18.5702 C   0  0  0  0  0  0  0  0  0  0  0  0
    7.3166  -13.7936   19.1392 C   0  0  0  0  0  0  0  0  0  0  0  0
    7.5494  -14.3399   20.3847 C   0  0  0  0  0  0  0  0  0  0  0  0
    8.6737  -14.0078   21.1304 C   0  0  0  0  0  0  0  0  0  0  0  0
    8.9069  -14.5957   22.4510 C   0  0  0  0  0  0  0  0  0  0  0  0
   10.2555  -15.2418   22.6137 C   0  0  2  0  0  0  0  0  0  0  0  0
   10.4578  -16.0981   21.4602 N   0  0  0  0  0  0  0  0  0  0  0  0
   10.4143  -15.9931   23.8575 C   0  0  0  0  0  0  0  0  0  0  0  0
   10.6473  -17.3579   23.9148 O   0  0  0  0  0  0  0  0  0  0  0  0
    9.5323  -13.1021   20.5433 C   0  0  0  0  0  0  0  0  0  0  0  0
    9.3068  -12.5530   19.3014 C   0  0  0  0  0  0  0  0  0  0  0  0
   10.3378  -15.3797   24.9511 O   0  0  0  0  0  0  0  0  0  0  0  0
  1  2  1  0
  3  2  1  0
  3  4  1  6
  5  3  1  0
  5  6  2  0
  7  8  1  0
  8 10  1  0
  8  9  2  0
 11 10  1  6
 11 12  1  0
 12  5  1  0
 13 11  1  0
 13 22  1  0
 14 13  2  0
 15 16  1  0
 16 26  2  0
 17 18  2  0
 17 16  1  0
 18 19  1  0
 19 20  1  0
 19 25  2  0
 21 20  1  6
 21 22  1  0
 21 23  1  0
 23 27  2  0
 23 24  1  0
 26 25  1  0
M  END
$$$$
