SNY.pdb
     RDKit          3D

 27 27  0  0  1  0  0  0  0  0999 V2000
    9.0440  -19.2523   22.0061 O   0  0  0  0  0  0  0  0  0  0  0  0
    8.2124  -19.1873   20.9011 C   0  0  0  0  0  0  0  0  0  0  0  0
    8.9412  -18.4736   19.7787 C   0  0  2  0  0  0  0  0  0  0  0  0
   10.0447  -19.2866   19.3716 N   0  0  0  0  0  0  0  0  0  0  0  0
    9.3619  -17.1362   20.2666 C   0  0  0  0  0  0  0  0  0  0  0  0
   10.5787  -16.8342   20.3336 O   0  0  0  0  0  0  0  0  0  0  0  0
    8.3299  -12.1414   18.7920 N   0  0  0  0  0  0  0  0  0  0  0  0
    7.8696  -13.3757   19.2945 C   0  0  0  0  0  0  0  0  0  0  0  0
    7.4271  -14.2184   18.4776 O   0  0  0  0  0  0  0  0  0  0  0  0
    7.8791  -13.7272   20.7090 C   0  0  0  0  0  0  0  0  0  0  0  0
    8.8174  -14.8244   21.1034 C   0  0  2  0  0  0  0  0  0  0  0  0
    8.4222  -16.1292   20.6824 N   0  0  0  0  0  0  0  0  0  0  0  0
    9.0913  -14.7598   22.5738 C   0  0  0  0  0  0  0  0  0  0  0  0
    9.5149  -13.6931   23.0877 O   0  0  0  0  0  0  0  0  0  0  0  0
    6.3625  -10.5194   27.0400 O   0  0  0  0  0  0  0  0  0  0  0  0
    6.7616  -11.8171   26.6962 C   0  0  0  0  0  0  0  0  0  0  0  0
    8.0350  -12.2730   26.9614 C   0  0  0  0  0  0  0  0  0  0  0  0
    8.4326  -13.5506   26.6246 C   0  0  0  0  0  0  0  0  0  0  0  0
    7.5708  -14.4442   26.0008 C   0  0  0  0  0  0  0  0  0  0  0  0
    8.0076  -15.7969   25.6492 C   0  0  0  0  0  0  0  0  0  0  0  0
    9.2787  -15.8500   24.8466 C   0  0  2  0  0  0  0  0  0  0  0  0
    8.8968  -15.8603   23.4470 N   0  0  0  0  0  0  0  0  0  0  0  0
   10.1402  -16.9880   25.1623 C   0  0  0  0  0  0  0  0  0  0  0  0
   10.7684  -17.1696   26.3840 O   0  0  0  0  0  0  0  0  0  0  0  0
    6.3019  -13.9685   25.7445 C   0  0  0  0  0  0  0  0  0  0  0  0
    5.8980  -12.6955   26.0774 C   0  0  0  0  0  0  0  0  0  0  0  0
   10.3339  -17.8646   24.2837 O   0  0  0  0  0  0  0  0  0  0  0  0
  1  2  1  0
  3  2  1  0
  3  4  1  1
  5  3  1  0
  5  6  2  0
  7  8  1  0
  8 10  1  0
  8  9  2  0
 11 10  1  1
 11 12  1  0
 12  5  1  0
 13 11  1  0
 13 22  1  0
 14 13  2  0
 15 16  1  0
 16 26  2  0
 17 18  2  0
 17 16  1  0
 18 19  1  0
 19 20  1  0
 19 25  2  0
 21 20  1  1
 21 22  1  0
 21 23  1  0
 23 27  2  0
 23 24  1  0
 26 25  1  0
M  END
$$$$
