SNY.pdb
     RDKit          3D

 27 27  0  0  1  0  0  0  0  0999 V2000
   14.2163  -15.8387   18.3112 O   0  0  0  0  0  0  0  0  0  0  0  0
   15.0893  -16.9101   18.2270 C   0  0  0  0  0  0  0  0  0  0  0  0
   14.2873  -18.1847   18.0475 C   0  0  2  0  0  0  0  0  0  0  0  0
   13.5371  -18.0763   16.8350 N   0  0  0  0  0  0  0  0  0  0  0  0
   13.4254  -18.3703   19.2418 C   0  0  0  0  0  0  0  0  0  0  0  0
   12.1746  -18.3344   19.1390 O   0  0  0  0  0  0  0  0  0  0  0  0
   15.7511  -21.1711   21.9532 N   0  0  0  0  0  0  0  0  0  0  0  0
   14.8398  -20.4205   22.7240 C   0  0  0  0  0  0  0  0  0  0  0  0
   15.2514  -19.9069   23.7917 O   0  0  0  0  0  0  0  0  0  0  0  0
   13.4473  -20.2079   22.3498 C   0  0  0  0  0  0  0  0  0  0  0  0
   13.1409  -18.9015   21.6868 C   0  0  2  0  0  0  0  0  0  0  0  0
   13.9594  -18.5973   20.5583 N   0  0  0  0  0  0  0  0  0  0  0  0
   13.1390  -17.8006   22.7014 C   0  0  0  0  0  0  0  0  0  0  0  0
   14.1277  -17.0289   22.7928 O   0  0  0  0  0  0  0  0  0  0  0  0
   10.4595  -13.4415   30.0720 O   0  0  0  0  0  0  0  0  0  0  0  0
   10.5435  -14.2458   28.9285 C   0  0  0  0  0  0  0  0  0  0  0  0
   11.0321  -15.5332   28.9879 C   0  0  0  0  0  0  0  0  0  0  0  0
   11.1166  -16.3293   27.8641 C   0  0  0  0  0  0  0  0  0  0  0  0
   10.7139  -15.8753   26.6142 C   0  0  0  0  0  0  0  0  0  0  0  0
   10.8101  -16.7320   25.4306 C   0  0  0  0  0  0  0  0  0  0  0  0
   12.1146  -16.6230   24.6896 C   0  0  2  0  0  0  0  0  0  0  0  0
   12.0592  -17.5692   23.5912 N   0  0  0  0  0  0  0  0  0  0  0  0
   13.2964  -16.8524   25.5188 C   0  0  0  0  0  0  0  0  0  0  0  0
   13.6745  -18.0943   26.0033 O   0  0  0  0  0  0  0  0  0  0  0  0
   10.2283  -14.5851   26.5766 C   0  0  0  0  0  0  0  0  0  0  0  0
   10.1409  -13.7849   27.6932 C   0  0  0  0  0  0  0  0  0  0  0  0
   14.0252  -15.8748   25.8205 O   0  0  0  0  0  0  0  0  0  0  0  0
  1  2  1  0
  3  2  1  0
  3  4  1  6
  5  3  1  0
  5  6  2  0
  7  8  1  0
  8 10  1  0
  8  9  2  0
 11 10  1  1
 11 12  1  0
 12  5  1  0
 13 11  1  0
 13 22  1  0
 14 13  2  0
 15 16  1  0
 16 26  2  0
 17 18  2  0
 17 16  1  0
 18 19  1  0
 19 20  1  0
 19 25  2  0
 21 20  1  1
 21 22  1  0
 21 23  1  0
 23 27  2  0
 23 24  1  0
 26 25  1  0
M  END
$$$$
