SNY.pdb
     RDKit          3D

 27 27  0  0  1  0  0  0  0  0999 V2000
    6.5006  -16.5105   19.0091 O   0  0  0  0  0  0  0  0  0  0  0  0
    5.9595  -15.5255   19.8178 C   0  0  0  0  0  0  0  0  0  0  0  0
    7.0842  -14.8135   20.5447 C   0  0  2  0  0  0  0  0  0  0  0  0
    8.0198  -14.3417   19.5717 N   0  0  0  0  0  0  0  0  0  0  0  0
    7.6913  -15.7599   21.5139 C   0  0  0  0  0  0  0  0  0  0  0  0
    6.9940  -16.2857   22.4160 O   0  0  0  0  0  0  0  0  0  0  0  0
   10.3430  -19.6090   20.6411 N   0  0  0  0  0  0  0  0  0  0  0  0
   10.9215  -18.3308   20.7800 C   0  0  0  0  0  0  0  0  0  0  0  0
   11.4197  -17.7936   19.7620 O   0  0  0  0  0  0  0  0  0  0  0  0
   10.9731  -17.5990   22.0395 C   0  0  0  0  0  0  0  0  0  0  0  0
    9.6963  -16.9469   22.4691 C   0  0  2  0  0  0  0  0  0  0  0  0
    9.0830  -16.1230   21.4786 N   0  0  0  0  0  0  0  0  0  0  0  0
    9.9015  -16.2230   23.7634 C   0  0  0  0  0  0  0  0  0  0  0  0
    9.9088  -14.9657   23.7857 O   0  0  0  0  0  0  0  0  0  0  0  0
    6.5636  -10.7323   26.9325 O   0  0  0  0  0  0  0  0  0  0  0  0
    6.9304  -12.0644   26.7032 C   0  0  0  0  0  0  0  0  0  0  0  0
    8.0559  -12.6111   27.2812 C   0  0  0  0  0  0  0  0  0  0  0  0
    8.4213  -13.9229   27.0582 C   0  0  0  0  0  0  0  0  0  0  0  0
    7.6743  -14.7611   26.2399 C   0  0  0  0  0  0  0  0  0  0  0  0
    8.0750  -16.1510   26.0125 C   0  0  0  0  0  0  0  0  0  0  0  0
    9.5340  -16.4243   26.2561 C   0  0  2  0  0  0  0  0  0  0  0  0
   10.0942  -16.8884   25.0009 N   0  0  0  0  0  0  0  0  0  0  0  0
    9.7937  -17.3809   27.3305 C   0  0  0  0  0  0  0  0  0  0  0  0
   10.2215  -18.6825   27.1233 O   0  0  0  0  0  0  0  0  0  0  0  0
    6.5525  -14.1948   25.6715 C   0  0  0  0  0  0  0  0  0  0  0  0
    6.1816  -12.8872   25.8892 C   0  0  0  0  0  0  0  0  0  0  0  0
    9.6237  -17.0175   28.5209 O   0  0  0  0  0  0  0  0  0  0  0  0
  1  2  1  0
  3  2  1  0
  3  4  1  6
  5  3  1  0
  5  6  2  0
  7  8  1  0
  8 10  1  0
  8  9  2  0
 11 10  1  6
 11 12  1  0
 12  5  1  0
 13 11  1  0
 13 22  1  0
 14 13  2  0
 15 16  1  0
 16 26  2  0
 17 18  2  0
 17 16  1  0
 18 19  1  0
 19 20  1  0
 19 25  2  0
 21 20  1  6
 21 22  1  0
 21 23  1  0
 23 27  2  0
 23 24  1  0
 26 25  1  0
M  END
$$$$
