SNY.pdb
     RDKit          3D

 27 27  0  0  1  0  0  0  0  0999 V2000
    8.9835  -19.0567   20.7865 O   0  0  0  0  0  0  0  0  0  0  0  0
    8.7708  -18.5923   19.4996 C   0  0  0  0  0  0  0  0  0  0  0  0
    9.9208  -17.6842   19.1083 C   0  0  2  0  0  0  0  0  0  0  0  0
   11.1075  -18.4767   19.0164 N   0  0  0  0  0  0  0  0  0  0  0  0
   10.0297  -16.6015   20.1180 C   0  0  0  0  0  0  0  0  0  0  0  0
   10.9224  -16.6376   21.0000 O   0  0  0  0  0  0  0  0  0  0  0  0
    6.8254  -14.6619   19.5127 N   0  0  0  0  0  0  0  0  0  0  0  0
    7.2122  -13.4150   20.0452 C   0  0  0  0  0  0  0  0  0  0  0  0
    6.4600  -12.4303   19.8509 O   0  0  0  0  0  0  0  0  0  0  0  0
    8.4363  -13.2062   20.8083 C   0  0  0  0  0  0  0  0  0  0  0  0
    9.2275  -14.4368   21.1240 C   0  0  2  0  0  0  0  0  0  0  0  0
    9.1393  -15.4717   20.1456 N   0  0  0  0  0  0  0  0  0  0  0  0
    8.8899  -14.9236   22.4989 C   0  0  0  0  0  0  0  0  0  0  0  0
    7.6926  -14.9397   22.8833 O   0  0  0  0  0  0  0  0  0  0  0  0
    7.4486  -20.5102   28.8372 O   0  0  0  0  0  0  0  0  0  0  0  0
    7.7334  -19.6831   27.7435 C   0  0  0  0  0  0  0  0  0  0  0  0
    6.8630  -18.6919   27.3442 C   0  0  0  0  0  0  0  0  0  0  0  0
    7.1392  -17.8746   26.2674 C   0  0  0  0  0  0  0  0  0  0  0  0
    8.3088  -18.0078   25.5293 C   0  0  0  0  0  0  0  0  0  0  0  0
    8.5878  -17.1331   24.3886 C   0  0  0  0  0  0  0  0  0  0  0  0
    9.5411  -16.0086   24.6871 C   0  0  2  0  0  0  0  0  0  0  0  0
    9.8663  -15.3803   23.4204 N   0  0  0  0  0  0  0  0  0  0  0  0
   10.7529  -16.4210   25.3930 C   0  0  0  0  0  0  0  0  0  0  0  0
   11.9341  -16.7780   24.7625 O   0  0  0  0  0  0  0  0  0  0  0  0
    9.1658  -19.0052   25.9450 C   0  0  0  0  0  0  0  0  0  0  0  0
    8.8972  -19.8243   27.0181 C   0  0  0  0  0  0  0  0  0  0  0  0
   10.7404  -16.4600   26.6485 O   0  0  0  0  0  0  0  0  0  0  0  0
  1  2  1  0
  3  2  1  0
  3  4  1  1
  5  3  1  0
  5  6  2  0
  7  8  1  0
  8 10  1  0
  8  9  2  0
 11 10  1  6
 11 12  1  0
 12  5  1  0
 13 11  1  0
 13 22  1  0
 14 13  2  0
 15 16  1  0
 16 26  2  0
 17 18  2  0
 17 16  1  0
 18 19  1  0
 19 20  1  0
 19 25  2  0
 21 20  1  6
 21 22  1  0
 21 23  1  0
 23 27  2  0
 23 24  1  0
 26 25  1  0
M  END
$$$$
