SNY.pdb
     RDKit          3D

 27 27  0  0  1  0  0  0  0  0999 V2000
   11.3668  -20.5816   18.7471 O   0  0  0  0  0  0  0  0  0  0  0  0
   10.7263  -20.0028   19.8296 C   0  0  0  0  0  0  0  0  0  0  0  0
    9.2512  -19.8584   19.5084 C   0  0  2  0  0  0  0  0  0  0  0  0
    9.1277  -19.4153   18.1546 N   0  0  0  0  0  0  0  0  0  0  0  0
    8.6487  -18.9116   20.4801 C   0  0  0  0  0  0  0  0  0  0  0  0
    7.5512  -18.3541   20.2327 O   0  0  0  0  0  0  0  0  0  0  0  0
    5.7619  -17.2766   24.3972 N   0  0  0  0  0  0  0  0  0  0  0  0
    6.5724  -18.4299   24.3692 C   0  0  0  0  0  0  0  0  0  0  0  0
    6.6663  -19.1120   25.4175 O   0  0  0  0  0  0  0  0  0  0  0  0
    7.3070  -18.8736   23.1910 C   0  0  0  0  0  0  0  0  0  0  0  0
    8.5427  -18.0966   22.8604 C   0  0  2  0  0  0  0  0  0  0  0  0
    9.2718  -18.5835   21.7347 N   0  0  0  0  0  0  0  0  0  0  0  0
    9.4021  -17.9592   24.0785 C   0  0  0  0  0  0  0  0  0  0  0  0
    9.4637  -18.8979   24.9131 O   0  0  0  0  0  0  0  0  0  0  0  0
    5.9091  -11.0636   27.6154 O   0  0  0  0  0  0  0  0  0  0  0  0
    6.5360  -12.0771   26.8796 C   0  0  0  0  0  0  0  0  0  0  0  0
    5.8100  -12.9749   26.1269 C   0  0  0  0  0  0  0  0  0  0  0  0
    6.4232  -13.9749   25.4005 C   0  0  0  0  0  0  0  0  0  0  0  0
    7.8040  -14.1295   25.3896 C   0  0  0  0  0  0  0  0  0  0  0  0
    8.4402  -15.1961   24.6140 C   0  0  0  0  0  0  0  0  0  0  0  0
    9.7167  -15.7216   25.2114 C   0  0  2  0  0  0  0  0  0  0  0  0
   10.1725  -16.8013   24.3564 N   0  0  0  0  0  0  0  0  0  0  0  0
    9.5905  -16.1692   26.5973 C   0  0  0  0  0  0  0  0  0  0  0  0
    8.8328  -17.2593   26.9942 O   0  0  0  0  0  0  0  0  0  0  0  0
    8.5115  -13.2213   26.1490 C   0  0  0  0  0  0  0  0  0  0  0  0
    7.9070  -12.2211   26.8761 C   0  0  0  0  0  0  0  0  0  0  0  0
   10.1996  -15.5382   27.4967 O   0  0  0  0  0  0  0  0  0  0  0  0
  1  2  1  0
  3  2  1  0
  3  4  1  6
  5  3  1  0
  5  6  2  0
  7  8  1  0
  8 10  1  0
  8  9  2  0
 11 10  1  1
 11 12  1  0
 12  5  1  0
 13 11  1  0
 13 22  1  0
 14 13  2  0
 15 16  1  0
 16 26  2  0
 17 18  2  0
 17 16  1  0
 18 19  1  0
 19 20  1  0
 19 25  2  0
 21 20  1  6
 21 22  1  0
 21 23  1  0
 23 27  2  0
 23 24  1  0
 26 25  1  0
M  END
$$$$
