SNY.pdb
     RDKit          3D

 27 27  0  0  1  0  0  0  0  0999 V2000
    8.2580  -12.6399   17.3535 O   0  0  0  0  0  0  0  0  0  0  0  0
    7.4947  -13.4459   18.1810 C   0  0  0  0  0  0  0  0  0  0  0  0
    8.1088  -13.4483   19.5678 C   0  0  2  0  0  0  0  0  0  0  0  0
    9.5173  -13.2402   19.4354 N   0  0  0  0  0  0  0  0  0  0  0  0
    7.7778  -14.7367   20.2266 C   0  0  0  0  0  0  0  0  0  0  0  0
    6.5818  -15.0752   20.4035 O   0  0  0  0  0  0  0  0  0  0  0  0
   11.2615  -16.8104   20.5660 N   0  0  0  0  0  0  0  0  0  0  0  0
   10.4886  -17.9701   20.3526 C   0  0  0  0  0  0  0  0  0  0  0  0
   11.0337  -18.9480   19.7870 O   0  0  0  0  0  0  0  0  0  0  0  0
    9.0926  -18.0964   20.7520 C   0  0  0  0  0  0  0  0  0  0  0  0
    8.4734  -16.8761   21.3582 C   0  0  2  0  0  0  0  0  0  0  0  0
    8.7844  -15.6536   20.6912 N   0  0  0  0  0  0  0  0  0  0  0  0
    8.7811  -16.8194   22.8222 C   0  0  0  0  0  0  0  0  0  0  0  0
    8.5405  -17.8137   23.5537 O   0  0  0  0  0  0  0  0  0  0  0  0
    5.9289  -10.2781   27.0835 O   0  0  0  0  0  0  0  0  0  0  0  0
    6.3807  -11.5179   26.6140 C   0  0  0  0  0  0  0  0  0  0  0  0
    5.5592  -12.6245   26.5977 C   0  0  0  0  0  0  0  0  0  0  0  0
    5.9998  -13.8479   26.1361 C   0  0  0  0  0  0  0  0  0  0  0  0
    7.2939  -14.0285   25.6638 C   0  0  0  0  0  0  0  0  0  0  0  0
    7.7470  -15.3332   25.1775 C   0  0  0  0  0  0  0  0  0  0  0  0
    9.2179  -15.4051   24.8712 C   0  0  2  0  0  0  0  0  0  0  0  0
    9.3430  -15.6798   23.4521 N   0  0  0  0  0  0  0  0  0  0  0  0
    9.9476  -16.3946   25.6620 C   0  0  0  0  0  0  0  0  0  0  0  0
   10.6250  -17.4746   25.1192 O   0  0  0  0  0  0  0  0  0  0  0  0
    8.0993  -12.9092   25.6887 C   0  0  0  0  0  0  0  0  0  0  0  0
    7.6670  -11.6856   26.1475 C   0  0  0  0  0  0  0  0  0  0  0  0
    9.9724  -16.2737   26.9121 O   0  0  0  0  0  0  0  0  0  0  0  0
  1  2  1  0
  3  2  1  0
  3  4  1  6
  5  3  1  0
  5  6  2  0
  7  8  1  0
  8 10  1  0
  8  9  2  0
 11 10  1  6
 11 12  1  0
 12  5  1  0
 13 11  1  0
 13 22  1  0
 14 13  2  0
 15 16  1  0
 16 26  2  0
 17 18  2  0
 17 16  1  0
 18 19  1  0
 19 20  1  0
 19 25  2  0
 21 20  1  1
 21 22  1  0
 21 23  1  0
 23 27  2  0
 23 24  1  0
 26 25  1  0
M  END
$$$$
