SNY.pdb
     RDKit          3D

 27 27  0  0  1  0  0  0  0  0999 V2000
   10.7451  -12.6117   19.4065 O   0  0  0  0  0  0  0  0  0  0  0  0
   10.2540  -13.3521   18.3446 C   0  0  0  0  0  0  0  0  0  0  0  0
    8.7959  -13.6782   18.6052 C   0  0  2  0  0  0  0  0  0  0  0  0
    8.0969  -12.4532   18.8403 N   0  0  0  0  0  0  0  0  0  0  0  0
    8.7214  -14.6123   19.7566 C   0  0  0  0  0  0  0  0  0  0  0  0
    8.1257  -14.2808   20.8109 O   0  0  0  0  0  0  0  0  0  0  0  0
   10.2804  -20.1829   21.8676 N   0  0  0  0  0  0  0  0  0  0  0  0
    9.2770  -19.2770   21.4674 C   0  0  0  0  0  0  0  0  0  0  0  0
    8.1684  -19.3267   22.0518 O   0  0  0  0  0  0  0  0  0  0  0  0
    9.4557  -18.2863   20.4132 C   0  0  0  0  0  0  0  0  0  0  0  0
    9.1433  -16.8711   20.7867 C   0  0  2  0  0  0  0  0  0  0  0  0
    9.3135  -15.9233   19.7338 N   0  0  0  0  0  0  0  0  0  0  0  0
    9.8970  -16.4896   22.0227 C   0  0  0  0  0  0  0  0  0  0  0  0
   11.1177  -16.1966   21.9488 O   0  0  0  0  0  0  0  0  0  0  0  0
   11.0355  -14.6262   30.7217 O   0  0  0  0  0  0  0  0  0  0  0  0
   10.5706  -14.7878   29.4105 C   0  0  0  0  0  0  0  0  0  0  0  0
   11.3833  -14.5478   28.3235 C   0  0  0  0  0  0  0  0  0  0  0  0
   10.9298  -14.7056   27.0300 C   0  0  0  0  0  0  0  0  0  0  0  0
    9.6307  -15.1146   26.7553 C   0  0  0  0  0  0  0  0  0  0  0  0
    9.1637  -15.2773   25.3770 C   0  0  0  0  0  0  0  0  0  0  0  0
   10.0402  -16.1526   24.5237 C   0  0  2  0  0  0  0  0  0  0  0  0
    9.3009  -16.4377   23.3085 N   0  0  0  0  0  0  0  0  0  0  0  0
   10.4709  -17.3878   25.1761 C   0  0  0  0  0  0  0  0  0  0  0  0
    9.7821  -18.5875   25.0971 O   0  0  0  0  0  0  0  0  0  0  0  0
    8.8342  -15.3494   27.8564 C   0  0  0  0  0  0  0  0  0  0  0  0
    9.2794  -15.1942   29.1496 C   0  0  0  0  0  0  0  0  0  0  0  0
   11.5284  -17.3792   25.8541 O   0  0  0  0  0  0  0  0  0  0  0  0
  1  2  1  0
  3  2  1  0
  3  4  1  1
  5  3  1  0
  5  6  2  0
  7  8  1  0
  8 10  1  0
  8  9  2  0
 11 10  1  6
 11 12  1  0
 12  5  1  0
 13 11  1  0
 13 22  1  0
 14 13  2  0
 15 16  1  0
 16 26  2  0
 17 18  2  0
 17 16  1  0
 18 19  1  0
 19 20  1  0
 19 25  2  0
 21 20  1  1
 21 22  1  0
 21 23  1  0
 23 27  2  0
 23 24  1  0
 26 25  1  0
M  END
$$$$
