DGS.pdb
     RDKit          3D

 19 18  0  0  1  0  0  0  0  0999 V2000
   -2.0075  -25.5169   26.5961 N   0  0  0  0  0  0  0  0  0  0  0  0
   -2.4941  -25.8174   27.9013 C   0  0  1  0  0  0  0  0  0  0  0  0
   -1.3527  -26.2537   28.7711 C   0  0  0  0  0  0  0  0  0  0  0  0
   -0.7201  -27.5068   28.2844 C   0  0  0  0  0  0  0  0  0  0  0  0
   -1.3917  -28.5111   27.8921 O   0  0  0  0  0  0  0  0  0  0  0  0
   -3.3224  -24.7344   28.4910 C   0  0  0  0  0  0  0  0  0  0  0  0
   -3.9295  -24.9465   29.5709 O   0  0  0  0  0  0  0  0  0  0  0  0
    0.6595  -27.6591   28.2278 O   0  0  0  0  0  0  0  0  0  0  0  0
   -3.4630  -23.4608   27.8925 N   0  0  0  0  0  0  0  0  0  0  0  0
   -4.2818  -22.3935   28.3441 C   0  0  0  0  0  0  0  0  0  0  0  0
   -5.7206  -22.6514   28.4318 C   0  0  0  0  0  0  0  0  0  0  0  0
   -6.4207  -22.7536   27.3591 O   0  0  0  0  0  0  0  0  0  0  0  0
   -9.6454  -24.3742   30.5281 O   0  0  0  0  0  0  0  0  0  0  0  0
   -8.2909  -24.0841   30.6986 C   0  0  0  0  0  0  0  0  0  0  0  0
   -7.8915  -23.1411   29.6068 C   0  0  2  0  0  0  0  0  0  0  0  0
   -6.4821  -22.8139   29.6188 N   0  0  0  0  0  0  0  0  0  0  0  0
   -8.7393  -21.9214   29.7152 C   0  0  0  0  0  0  0  0  0  0  0  0
   -9.8729  -21.7318   28.9711 O   0  0  0  0  0  0  0  0  0  0  0  0
   -8.3732  -21.0413   30.5362 O   0  0  0  0  0  0  0  0  0  0  0  0
  2  1  1  6
  2  3  1  0
  3  4  1  0
  4  5  2  0
  6  2  1  0
  6  7  2  0
  8  4  1  0
  9  6  1  0
 10 11  1  0
 10  9  1  0
 11 16  1  0
 12 11  2  0
 14 13  1  0
 15 14  1  1
 15 17  1  0
 16 15  1  0
 17 19  2  0
 17 18  1  0
M  END
$$$$
