DGS.pdb
     RDKit          3D

 19 18  0  0  1  0  0  0  0  0999 V2000
   12.2201  -17.3415   21.2975 N   0  0  0  0  0  0  0  0  0  0  0  0
   13.0441  -18.3463   21.8823 C   0  0  1  0  0  0  0  0  0  0  0  0
   14.4657  -18.1389   21.4514 C   0  0  0  0  0  0  0  0  0  0  0  0
   14.6007  -18.0575   19.9741 C   0  0  0  0  0  0  0  0  0  0  0  0
   14.5149  -16.9642   19.3330 O   0  0  0  0  0  0  0  0  0  0  0  0
   12.8718  -18.4752   23.3522 C   0  0  0  0  0  0  0  0  0  0  0  0
   13.3783  -19.4614   23.9441 O   0  0  0  0  0  0  0  0  0  0  0  0
   14.8316  -19.1838   19.1945 O   0  0  0  0  0  0  0  0  0  0  0  0
   12.1594  -17.5322   24.1290 N   0  0  0  0  0  0  0  0  0  0  0  0
   11.9617  -17.5617   25.5337 C   0  0  0  0  0  0  0  0  0  0  0  0
   11.2867  -16.4089   26.1337 C   0  0  0  0  0  0  0  0  0  0  0  0
   10.8164  -15.4784   25.3827 O   0  0  0  0  0  0  0  0  0  0  0  0
    8.4839  -16.3453   28.4696 O   0  0  0  0  0  0  0  0  0  0  0  0
    8.8690  -15.1434   27.8738 C   0  0  0  0  0  0  0  0  0  0  0  0
   10.3544  -15.0252   28.0177 C   0  0  2  0  0  0  0  0  0  0  0  0
   11.0724  -16.1777   27.5179 N   0  0  0  0  0  0  0  0  0  0  0  0
   10.6615  -14.7665   29.4519 C   0  0  0  0  0  0  0  0  0  0  0  0
   11.3632  -15.6437   30.2349 O   0  0  0  0  0  0  0  0  0  0  0  0
   10.2448  -13.6846   29.9402 O   0  0  0  0  0  0  0  0  0  0  0  0
  2  1  1  1
  2  3  1  0
  3  4  1  0
  4  5  2  0
  6  2  1  0
  6  7  2  0
  8  4  1  0
  9  6  1  0
 10 11  1  0
 10  9  1  0
 11 16  1  0
 12 11  2  0
 14 13  1  0
 15 14  1  1
 15 17  1  0
 16 15  1  0
 17 19  2  0
 17 18  1  0
M  END
$$$$
