DGS.pdb
     RDKit          3D

 19 18  0  0  1  0  0  0  0  0999 V2000
    9.1829  -18.1935   21.2457 N   0  0  0  0  0  0  0  0  0  0  0  0
    9.8847  -16.9557   21.1689 C   0  0  1  0  0  0  0  0  0  0  0  0
   10.3589  -16.7373   19.7628 C   0  0  0  0  0  0  0  0  0  0  0  0
   11.5296  -17.5872   19.4245 C   0  0  0  0  0  0  0  0  0  0  0  0
   11.4279  -18.6749   18.7763 O   0  0  0  0  0  0  0  0  0  0  0  0
    9.1305  -15.8084   21.7364 C   0  0  0  0  0  0  0  0  0  0  0  0
    9.6575  -14.6674   21.7335 O   0  0  0  0  0  0  0  0  0  0  0  0
   12.8215  -17.2410   19.8000 O   0  0  0  0  0  0  0  0  0  0  0  0
    7.8333  -15.9363   22.2850 N   0  0  0  0  0  0  0  0  0  0  0  0
    7.0487  -14.9061   22.8648 C   0  0  0  0  0  0  0  0  0  0  0  0
    7.5564  -14.2979   24.0965 C   0  0  0  0  0  0  0  0  0  0  0  0
    8.6792  -14.6845   24.5873 O   0  0  0  0  0  0  0  0  0  0  0  0
    5.4097  -12.0289   26.7325 O   0  0  0  0  0  0  0  0  0  0  0  0
    6.7291  -11.5848   26.6328 C   0  0  0  0  0  0  0  0  0  0  0  0
    7.5350  -12.6976   26.0385 C   0  0  2  0  0  0  0  0  0  0  0  0
    6.9305  -13.2765   24.8582 N   0  0  0  0  0  0  0  0  0  0  0  0
    7.7628  -13.7206   27.0967 C   0  0  0  0  0  0  0  0  0  0  0  0
    8.5314  -13.4888   28.2059 O   0  0  0  0  0  0  0  0  0  0  0  0
    7.2115  -14.8403   26.9383 O   0  0  0  0  0  0  0  0  0  0  0  0
  2  1  1  6
  2  3  1  0
  3  4  1  0
  4  5  2  0
  6  2  1  0
  6  7  2  0
  8  4  1  0
  9  6  1  0
 10 11  1  0
 10  9  1  0
 11 16  1  0
 12 11  2  0
 14 13  1  0
 15 14  1  1
 15 17  1  0
 16 15  1  0
 17 19  2  0
 17 18  1  0
M  END
$$$$
