DGS.pdb
     RDKit          3D

 19 18  0  0  1  0  0  0  0  0999 V2000
    9.3320  -18.4356   18.6044 N   0  0  0  0  0  0  0  0  0  0  0  0
   10.7347  -18.6713   18.5169 C   0  0  1  0  0  0  0  0  0  0  0  0
   11.1989  -18.4050   17.1157 C   0  0  0  0  0  0  0  0  0  0  0  0
   10.2642  -18.9522   16.0987 C   0  0  0  0  0  0  0  0  0  0  0  0
    9.9275  -20.1764   16.0593 O   0  0  0  0  0  0  0  0  0  0  0  0
   11.5226  -17.9634   19.5584 C   0  0  0  0  0  0  0  0  0  0  0  0
   12.7735  -17.9089   19.4487 O   0  0  0  0  0  0  0  0  0  0  0  0
    9.6949  -18.1503   15.1176 O   0  0  0  0  0  0  0  0  0  0  0  0
   10.9294  -17.3389   20.6801 N   0  0  0  0  0  0  0  0  0  0  0  0
   11.6024  -16.7487   21.7810 C   0  0  0  0  0  0  0  0  0  0  0  0
   10.7843  -15.9933   22.7321 C   0  0  0  0  0  0  0  0  0  0  0  0
   11.2748  -15.6497   23.8689 O   0  0  0  0  0  0  0  0  0  0  0  0
    6.9553  -14.6906   22.0091 O   0  0  0  0  0  0  0  0  0  0  0  0
    7.6679  -13.9051   22.9165 C   0  0  0  0  0  0  0  0  0  0  0  0
    8.7324  -14.7676   23.5197 C   0  0  2  0  0  0  0  0  0  0  0  0
    9.4431  -15.5671   22.5455 N   0  0  0  0  0  0  0  0  0  0  0  0
    8.1020  -15.6145   24.5703 C   0  0  0  0  0  0  0  0  0  0  0  0
    7.4490  -15.0945   25.6557 O   0  0  0  0  0  0  0  0  0  0  0  0
    8.1887  -16.8614   24.4283 O   0  0  0  0  0  0  0  0  0  0  0  0
  2  1  1  6
  2  3  1  0
  3  4  1  0
  4  5  2  0
  6  2  1  0
  6  7  2  0
  8  4  1  0
  9  6  1  0
 10 11  1  0
 10  9  1  0
 11 16  1  0
 12 11  2  0
 14 13  1  0
 15 14  1  6
 15 17  1  0
 16 15  1  0
 17 19  2  0
 17 18  1  0
M  END
$$$$
