DGS.pdb
     RDKit          3D

 19 18  0  0  1  0  0  0  0  0999 V2000
    8.9792  -17.8332   20.4187 N   0  0  0  0  0  0  0  0  0  0  0  0
    8.9155  -16.5055   19.9051 C   0  0  1  0  0  0  0  0  0  0  0  0
    8.3263  -16.5317   18.5261 C   0  0  0  0  0  0  0  0  0  0  0  0
    9.2175  -17.2031   17.5451 C   0  0  0  0  0  0  0  0  0  0  0  0
   10.3511  -17.6830   17.8588 O   0  0  0  0  0  0  0  0  0  0  0  0
    8.2559  -15.5432   20.8249 C   0  0  0  0  0  0  0  0  0  0  0  0
    8.2592  -14.3199   20.5367 O   0  0  0  0  0  0  0  0  0  0  0  0
    8.8624  -17.3490   16.2100 O   0  0  0  0  0  0  0  0  0  0  0  0
    7.6153  -15.9388   22.0221 N   0  0  0  0  0  0  0  0  0  0  0  0
    7.0302  -15.0887   22.9958 C   0  0  0  0  0  0  0  0  0  0  0  0
    7.9149  -14.5671   24.0398 C   0  0  0  0  0  0  0  0  0  0  0  0
    9.1466  -14.9311   24.0778 O   0  0  0  0  0  0  0  0  0  0  0  0
    6.7044  -12.0891   27.0280 O   0  0  0  0  0  0  0  0  0  0  0  0
    8.0532  -11.9006   26.7227 C   0  0  0  0  0  0  0  0  0  0  0  0
    8.5295  -13.1283   26.0108 C   0  0  2  0  0  0  0  0  0  0  0  0
    7.5643  -13.6575   25.0718 N   0  0  0  0  0  0  0  0  0  0  0  0
    8.9099  -14.1397   27.0359 C   0  0  0  0  0  0  0  0  0  0  0  0
    9.8997  -13.9313   27.9587 O   0  0  0  0  0  0  0  0  0  0  0  0
    8.2760  -15.2263   27.0304 O   0  0  0  0  0  0  0  0  0  0  0  0
  2  1  1  1
  2  3  1  0
  3  4  1  0
  4  5  2  0
  6  2  1  0
  6  7  2  0
  8  4  1  0
  9  6  1  0
 10 11  1  0
 10  9  1  0
 11 16  1  0
 12 11  2  0
 14 13  1  0
 15 14  1  1
 15 17  1  0
 16 15  1  0
 17 19  2  0
 17 18  1  0
M  END
$$$$
