DGS.pdb
     RDKit          3D

 19 18  0  0  1  0  0  0  0  0999 V2000
   10.5668  -17.5445   17.0777 N   0  0  0  0  0  0  0  0  0  0  0  0
   11.1663  -18.8001   17.3856 C   0  0  1  0  0  0  0  0  0  0  0  0
   12.2619  -19.0846   16.4015 C   0  0  0  0  0  0  0  0  0  0  0  0
   11.7645  -19.1315   15.0023 C   0  0  0  0  0  0  0  0  0  0  0  0
   11.7654  -20.1934   14.3053 O   0  0  0  0  0  0  0  0  0  0  0  0
   11.5828  -18.9277   18.8058 C   0  0  0  0  0  0  0  0  0  0  0  0
   11.4144  -20.0238   19.3974 O   0  0  0  0  0  0  0  0  0  0  0  0
   11.2625  -18.0049   14.3631 O   0  0  0  0  0  0  0  0  0  0  0  0
   12.1677  -17.8661   19.5345 N   0  0  0  0  0  0  0  0  0  0  0  0
   12.5915  -17.8945   20.8883 C   0  0  0  0  0  0  0  0  0  0  0  0
   12.0720  -16.8461   21.7690 C   0  0  0  0  0  0  0  0  0  0  0  0
   12.2624  -15.6096   21.4761 O   0  0  0  0  0  0  0  0  0  0  0  0
    8.8440  -16.2800   23.8880 O   0  0  0  0  0  0  0  0  0  0  0  0
    9.8323  -15.2958   23.8385 C   0  0  0  0  0  0  0  0  0  0  0  0
   11.1578  -15.9827   23.9488 C   0  0  2  0  0  0  0  0  0  0  0  0
   11.3419  -17.0340   22.9719 N   0  0  0  0  0  0  0  0  0  0  0  0
   11.2993  -16.4951   25.3401 C   0  0  0  0  0  0  0  0  0  0  0  0
   11.3903  -15.6742   26.4322 O   0  0  0  0  0  0  0  0  0  0  0  0
   11.3340  -17.7438   25.4893 O   0  0  0  0  0  0  0  0  0  0  0  0
  2  1  1  1
  2  3  1  0
  3  4  1  0
  4  5  2  0
  6  2  1  0
  6  7  2  0
  8  4  1  0
  9  6  1  0
 10 11  1  0
 10  9  1  0
 11 16  1  0
 12 11  2  0
 14 13  1  0
 15 14  1  1
 15 17  1  0
 16 15  1  0
 17 19  2  0
 17 18  1  0
M  END
$$$$
