DGS.pdb
     RDKit          3D

 19 18  0  0  1  0  0  0  0  0999 V2000
   10.0210  -18.5628   20.0680 N   0  0  0  0  0  0  0  0  0  0  0  0
    9.2369  -17.4656   19.6076 C   0  0  1  0  0  0  0  0  0  0  0  0
    8.5168  -17.8590   18.3521 C   0  0  0  0  0  0  0  0  0  0  0  0
    9.3717  -17.7200   17.1448 C   0  0  0  0  0  0  0  0  0  0  0  0
   10.1935  -16.7641   16.9881 O   0  0  0  0  0  0  0  0  0  0  0  0
    8.3547  -16.8854   20.6526 C   0  0  0  0  0  0  0  0  0  0  0  0
    7.1087  -16.9236   20.4926 O   0  0  0  0  0  0  0  0  0  0  0  0
    9.3244  -18.6364   16.1020 O   0  0  0  0  0  0  0  0  0  0  0  0
    8.8517  -16.2864   21.8333 N   0  0  0  0  0  0  0  0  0  0  0  0
    8.0885  -15.7333   22.8939 C   0  0  0  0  0  0  0  0  0  0  0  0
    8.8263  -15.2635   24.0684 C   0  0  0  0  0  0  0  0  0  0  0  0
   10.0989  -15.4283   24.1348 O   0  0  0  0  0  0  0  0  0  0  0  0
    9.2457  -12.9506   28.3010 O   0  0  0  0  0  0  0  0  0  0  0  0
    8.3337  -13.3834   27.3372 C   0  0  0  0  0  0  0  0  0  0  0  0
    9.0933  -14.1844   26.3261 C   0  0  2  0  0  0  0  0  0  0  0  0
    8.2829  -14.6104   25.2057 N   0  0  0  0  0  0  0  0  0  0  0  0
    9.7153  -15.3429   27.0257 C   0  0  0  0  0  0  0  0  0  0  0  0
   10.9370  -15.2754   27.6403 O   0  0  0  0  0  0  0  0  0  0  0  0
    9.0661  -16.4204   27.0369 O   0  0  0  0  0  0  0  0  0  0  0  0
  2  1  1  1
  2  3  1  0
  3  4  1  0
  4  5  2  0
  6  2  1  0
  6  7  2  0
  8  4  1  0
  9  6  1  0
 10 11  1  0
 10  9  1  0
 11 16  1  0
 12 11  2  0
 14 13  1  0
 15 14  1  1
 15 17  1  0
 16 15  1  0
 17 19  2  0
 17 18  1  0
M  END
$$$$
