DGS.pdb
     RDKit          3D

 19 18  0  0  1  0  0  0  0  0999 V2000
    7.0637  -17.8684   17.8569 N   0  0  0  0  0  0  0  0  0  0  0  0
    8.4663  -18.0464   18.0354 C   0  0  1  0  0  0  0  0  0  0  0  0
    9.1772  -17.7228   16.7549 C   0  0  0  0  0  0  0  0  0  0  0  0
    8.7706  -18.6196   15.6423 C   0  0  0  0  0  0  0  0  0  0  0  0
    8.5617  -19.8626   15.7996 O   0  0  0  0  0  0  0  0  0  0  0  0
    9.0092  -17.3376   19.2227 C   0  0  0  0  0  0  0  0  0  0  0  0
   10.1851  -17.5786   19.5952 O   0  0  0  0  0  0  0  0  0  0  0  0
    8.5918  -18.1489   14.3476 O   0  0  0  0  0  0  0  0  0  0  0  0
    8.2614  -16.3929   19.9633 N   0  0  0  0  0  0  0  0  0  0  0  0
    8.6948  -15.6700   21.1047 C   0  0  0  0  0  0  0  0  0  0  0  0
    9.1037  -16.4543   22.2718 C   0  0  0  0  0  0  0  0  0  0  0  0
    8.2252  -17.1044   22.9477 O   0  0  0  0  0  0  0  0  0  0  0  0
   12.6061  -18.2711   22.8409 O   0  0  0  0  0  0  0  0  0  0  0  0
   11.4975  -18.6514   23.5989 C   0  0  0  0  0  0  0  0  0  0  0  0
   10.7339  -17.4084   23.9347 C   0  0  2  0  0  0  0  0  0  0  0  0
   10.4223  -16.5967   22.7781 N   0  0  0  0  0  0  0  0  0  0  0  0
   11.5148  -16.6445   24.9471 C   0  0  0  0  0  0  0  0  0  0  0  0
   11.7962  -17.1316   26.1955 O   0  0  0  0  0  0  0  0  0  0  0  0
   11.9221  -15.5022   24.6129 O   0  0  0  0  0  0  0  0  0  0  0  0
  2  1  1  6
  2  3  1  0
  3  4  1  0
  4  5  2  0
  6  2  1  0
  6  7  2  0
  8  4  1  0
  9  6  1  0
 10 11  1  0
 10  9  1  0
 11 16  1  0
 12 11  2  0
 14 13  1  0
 15 14  1  6
 15 17  1  0
 16 15  1  0
 17 19  2  0
 17 18  1  0
M  END
$$$$
