DGS.pdb
     RDKit          3D

 19 18  0  0  1  0  0  0  0  0999 V2000
    8.6022  -14.6893   14.8967 N   0  0  0  0  0  0  0  0  0  0  0  0
    8.4878  -15.8368   15.7339 C   0  0  1  0  0  0  0  0  0  0  0  0
    9.0416  -17.0333   15.0189 C   0  0  0  0  0  0  0  0  0  0  0  0
   10.0354  -16.6589   13.9798 C   0  0  0  0  0  0  0  0  0  0  0  0
    9.9998  -15.5513   13.3588 O   0  0  0  0  0  0  0  0  0  0  0  0
    9.0450  -15.6366   17.0964 C   0  0  0  0  0  0  0  0  0  0  0  0
    8.8718  -16.5274   17.9659 O   0  0  0  0  0  0  0  0  0  0  0  0
   11.0758  -17.5059   13.6195 O   0  0  0  0  0  0  0  0  0  0  0  0
    9.7707  -14.4813   17.4687 N   0  0  0  0  0  0  0  0  0  0  0  0
   10.2869  -14.1778   18.7551 C   0  0  0  0  0  0  0  0  0  0  0  0
   11.5244  -14.8537   19.1505 C   0  0  0  0  0  0  0  0  0  0  0  0
   11.5431  -16.1315   19.2838 O   0  0  0  0  0  0  0  0  0  0  0  0
   16.2800  -15.1878   19.5852 O   0  0  0  0  0  0  0  0  0  0  0  0
   15.2359  -14.2683   19.4737 C   0  0  0  0  0  0  0  0  0  0  0  0
   13.9610  -14.9976   19.7631 C   0  0  2  0  0  0  0  0  0  0  0  0
   12.7767  -14.2411   19.4182 N   0  0  0  0  0  0  0  0  0  0  0  0
   13.9654  -15.3852   21.2011 C   0  0  0  0  0  0  0  0  0  0  0  0
   12.9920  -14.9961   22.0820 O   0  0  0  0  0  0  0  0  0  0  0  0
   14.9193  -16.1034   21.5972 O   0  0  0  0  0  0  0  0  0  0  0  0
  2  1  1  6
  2  3  1  0
  3  4  1  0
  4  5  2  0
  6  2  1  0
  6  7  2  0
  8  4  1  0
  9  6  1  0
 10 11  1  0
 10  9  1  0
 11 16  1  0
 12 11  2  0
 14 13  1  0
 15 14  1  1
 15 17  1  0
 16 15  1  0
 17 19  2  0
 17 18  1  0
M  END
$$$$
