HFQ.pdb
     RDKit          3D

 31 32  0  0  1  0  0  0  0  0999 V2000
   27.4009  -21.3766  -17.5291 N   0  0  0  0  0  0  0  0  0  0  0  0
   27.2304  -20.3773  -16.5233 C   0  0  1  0  0  0  0  0  0  0  0  0
   26.5367  -19.1465  -17.0687 C   0  0  0  0  0  0  0  0  0  0  0  0
   27.4427  -18.5027  -18.0387 C   0  0  0  0  0  0  0  0  0  0  0  0
   28.6595  -17.9498  -17.7237 C   0  0  0  0  0  0  0  0  0  0  0  0
   29.1918  -17.4619  -18.8624 N   0  0  0  0  0  0  0  0  0  0  0  0
   28.3513  -17.6905  -19.8755 C   0  0  0  0  0  0  0  0  0  0  0  0
   27.2840  -18.3292  -19.3544 N   0  0  0  0  0  0  0  0  0  0  0  0
   26.4617  -20.9397  -15.3611 C   0  0  0  0  0  0  0  0  0  0  0  0
   25.3145  -21.3949  -15.4822 O   0  0  0  0  0  0  0  0  0  0  0  0
   27.0346  -20.9684  -14.0639 N   0  0  0  0  0  0  0  0  0  0  0  0
   26.3272  -21.0985  -12.8503 C   0  0  1  0  0  0  0  0  0  0  0  0
   27.1202  -20.9314  -11.5864 C   0  0  0  0  0  0  0  0  0  0  0  0
   26.2116  -20.8640  -10.4204 C   0  0  0  0  0  0  0  0  0  0  0  0
   25.4240  -21.8851   -9.9622 C   0  0  0  0  0  0  0  0  0  0  0  0
   24.6066  -21.6598   -8.8528 C   0  0  0  0  0  0  0  0  0  0  0  0
   24.5790  -20.4424   -8.2184 C   0  0  0  0  0  0  0  0  0  0  0  0
   25.3669  -19.4028   -8.6672 C   0  0  0  0  0  0  0  0  0  0  0  0
   26.1551  -19.6489   -9.7514 C   0  0  0  0  0  0  0  0  0  0  0  0
   25.0821  -20.3248  -12.7734 C   0  0  0  0  0  0  0  0  0  0  0  0
   25.1751  -19.0695  -12.8466 O   0  0  0  0  0  0  0  0  0  0  0  0
   21.9968  -23.0588  -15.3379 N   0  0  0  0  0  0  0  0  0  0  0  0
   20.8396  -22.7391  -14.5829 C   0  0  0  0  0  0  0  0  0  0  0  0
   19.8891  -23.5446  -14.5360 O   0  0  0  0  0  0  0  0  0  0  0  0
   20.7748  -21.4567  -13.8620 C   0  0  0  0  0  0  0  0  0  0  0  0
   22.0394  -20.6673  -14.1437 C   0  0  0  0  0  0  0  0  0  0  0  0
   22.6374  -20.2061  -12.8250 C   0  0  2  0  0  0  0  0  0  0  0  0
   23.8432  -20.9921  -12.6242 N   0  0  0  0  0  0  0  0  0  0  0  0
   21.7212  -20.5081  -11.7178 C   0  0  0  0  0  0  0  0  0  0  0  0
   20.5596  -19.8095  -11.4735 O   0  0  0  0  0  0  0  0  0  0  0  0
   22.0270  -21.4689  -10.9492 O   0  0  0  0  0  0  0  0  0  0  0  0
  2  3  1  0
  2  1  1  6
  3  4  1  0
  4  8  1  0
  4  5  2  0
  5  6  1  0
  7  6  1  0
  8  7  2  0
  9  2  1  0
 10  9  2  0
 11  9  1  0
 12 11  1  0
 12 13  1  1
 13 14  1  0
 14 15  2  0
 15 16  1  0
 17 16  2  0
 18 17  1  0
 19 14  1  0
 19 18  2  0
 20 28  1  0
 20 12  1  0
 21 20  2  0
 23 22  1  0
 24 23  2  0
 25 23  1  0
 27 26  1  6
 26 25  1  0
 27 29  1  0
 27 28  1  0
 29 30  1  0
 31 29  2  0
M  END
$$$$
