HFQ.pdb
     RDKit          3D

 31 32  0  0  1  0  0  0  0  0999 V2000
   28.0690  -22.5102  -16.7396 N   0  0  0  0  0  0  0  0  0  0  0  0
   27.1850  -21.4103  -16.5198 C   0  0  1  0  0  0  0  0  0  0  0  0
   26.2813  -21.1713  -17.7113 C   0  0  0  0  0  0  0  0  0  0  0  0
   27.1029  -20.6200  -18.8055 C   0  0  0  0  0  0  0  0  0  0  0  0
   27.7226  -19.3950  -18.7765 C   0  0  0  0  0  0  0  0  0  0  0  0
   28.3754  -19.2415  -19.9464 N   0  0  0  0  0  0  0  0  0  0  0  0
   28.1852  -20.3259  -20.7031 C   0  0  0  0  0  0  0  0  0  0  0  0
   27.4031  -21.1616  -19.9899 N   0  0  0  0  0  0  0  0  0  0  0  0
   26.3673  -21.6441  -15.2810 C   0  0  0  0  0  0  0  0  0  0  0  0
   25.8477  -22.7409  -15.0261 O   0  0  0  0  0  0  0  0  0  0  0  0
   26.1597  -20.5979  -14.3461 N   0  0  0  0  0  0  0  0  0  0  0  0
   25.4207  -20.6940  -13.1482 C   0  0  1  0  0  0  0  0  0  0  0  0
   25.9671  -19.9596  -11.9582 C   0  0  0  0  0  0  0  0  0  0  0  0
   27.3090  -20.4784  -11.6118 C   0  0  0  0  0  0  0  0  0  0  0  0
   27.5956  -21.3170  -10.5690 C   0  0  0  0  0  0  0  0  0  0  0  0
   28.9201  -21.7085  -10.3637 C   0  0  0  0  0  0  0  0  0  0  0  0
   29.9318  -21.2710  -11.1826 C   0  0  0  0  0  0  0  0  0  0  0  0
   29.6599  -20.4257  -12.2383 C   0  0  0  0  0  0  0  0  0  0  0  0
   28.3595  -20.0589  -12.4164 C   0  0  0  0  0  0  0  0  0  0  0  0
   23.9820  -20.4365  -13.2860 C   0  0  0  0  0  0  0  0  0  0  0  0
   23.6360  -19.3120  -13.7394 O   0  0  0  0  0  0  0  0  0  0  0  0
   20.0060  -24.9150  -13.7353 N   0  0  0  0  0  0  0  0  0  0  0  0
   20.2152  -24.1094  -14.8836 C   0  0  0  0  0  0  0  0  0  0  0  0
   19.9226  -24.5519  -16.0118 O   0  0  0  0  0  0  0  0  0  0  0  0
   20.7769  -22.7570  -14.7288 C   0  0  0  0  0  0  0  0  0  0  0  0
   20.9196  -22.4476  -13.2504 C   0  0  0  0  0  0  0  0  0  0  0  0
   21.6389  -21.1185  -13.0914 C   0  0  2  0  0  0  0  0  0  0  0  0
   23.0471  -21.4324  -12.9167 N   0  0  0  0  0  0  0  0  0  0  0  0
   21.1822  -20.4354  -11.8742 C   0  0  0  0  0  0  0  0  0  0  0  0
   19.9712  -19.7875  -11.7689 O   0  0  0  0  0  0  0  0  0  0  0  0
   21.9548  -20.4492  -10.8692 O   0  0  0  0  0  0  0  0  0  0  0  0
  2  3  1  0
  2  1  1  6
  3  4  1  0
  4  8  1  0
  4  5  2  0
  5  6  1  0
  7  6  1  0
  8  7  2  0
  9  2  1  0
 10  9  2  0
 11  9  1  0
 12 11  1  0
 12 13  1  1
 13 14  1  0
 14 15  2  0
 15 16  1  0
 17 16  2  0
 18 17  1  0
 19 14  1  0
 19 18  2  0
 20 28  1  0
 20 12  1  0
 21 20  2  0
 23 22  1  0
 24 23  2  0
 25 23  1  0
 27 26  1  1
 26 25  1  0
 27 29  1  0
 27 28  1  0
 29 30  1  0
 31 29  2  0
M  END
$$$$
