HFQ.pdb
     RDKit          3D

 31 32  0  0  1  0  0  0  0  0999 V2000
   25.0629  -19.6811  -16.7672 N   0  0  0  0  0  0  0  0  0  0  0  0
   23.9623  -19.1369  -16.0379 C   0  0  1  0  0  0  0  0  0  0  0  0
   22.9033  -18.5716  -16.9612 C   0  0  0  0  0  0  0  0  0  0  0  0
   23.2955  -17.1953  -17.3191 C   0  0  0  0  0  0  0  0  0  0  0  0
   24.4102  -16.5512  -16.8413 C   0  0  0  0  0  0  0  0  0  0  0  0
   24.4340  -15.3190  -17.3886 N   0  0  0  0  0  0  0  0  0  0  0  0
   23.3750  -15.1718  -18.1898 C   0  0  0  0  0  0  0  0  0  0  0  0
   22.6870  -16.3305  -18.1364 N   0  0  0  0  0  0  0  0  0  0  0  0
   23.3684  -20.1852  -15.1399 C   0  0  0  0  0  0  0  0  0  0  0  0
   23.3071  -21.3803  -15.4652 O   0  0  0  0  0  0  0  0  0  0  0  0
   22.8493  -19.8344  -13.8674 N   0  0  0  0  0  0  0  0  0  0  0  0
   22.1973  -20.7073  -12.9712 C   0  0  1  0  0  0  0  0  0  0  0  0
   22.3578  -20.4140  -11.5075 C   0  0  0  0  0  0  0  0  0  0  0  0
   23.7113  -20.8056  -11.0552 C   0  0  0  0  0  0  0  0  0  0  0  0
   24.2626  -20.5100   -9.8380 C   0  0  0  0  0  0  0  0  0  0  0  0
   25.5625  -20.9403   -9.5648 C   0  0  0  0  0  0  0  0  0  0  0  0
   26.2915  -21.6492  -10.4875 C   0  0  0  0  0  0  0  0  0  0  0  0
   25.7506  -21.9558  -11.7189 C   0  0  0  0  0  0  0  0  0  0  0  0
   24.4806  -21.5240  -11.9602 C   0  0  0  0  0  0  0  0  0  0  0  0
   20.7880  -20.9751  -13.2828 C   0  0  0  0  0  0  0  0  0  0  0  0
   19.9938  -19.9960  -13.2599 O   0  0  0  0  0  0  0  0  0  0  0  0
   18.2776  -22.9420  -17.0110 N   0  0  0  0  0  0  0  0  0  0  0  0
   17.1885  -23.5248  -16.3142 C   0  0  0  0  0  0  0  0  0  0  0  0
   16.0639  -23.5703  -16.8503 O   0  0  0  0  0  0  0  0  0  0  0  0
   17.4000  -24.0703  -14.9629 C   0  0  0  0  0  0  0  0  0  0  0  0
   18.8445  -23.8428  -14.5588 C   0  0  0  0  0  0  0  0  0  0  0  0
   18.9587  -22.4902  -13.8754 C   0  0  2  0  0  0  0  0  0  0  0  0
   20.3704  -22.2909  -13.5937 N   0  0  0  0  0  0  0  0  0  0  0  0
   18.2479  -22.5080  -12.5904 C   0  0  0  0  0  0  0  0  0  0  0  0
   16.9878  -21.9834  -12.4057 O   0  0  0  0  0  0  0  0  0  0  0  0
   18.8374  -23.0391  -11.6017 O   0  0  0  0  0  0  0  0  0  0  0  0
  2  3  1  0
  2  1  1  6
  3  4  1  0
  4  8  1  0
  4  5  2  0
  5  6  1  0
  7  6  1  0
  8  7  2  0
  9  2  1  0
 10  9  2  0
 11  9  1  0
 12 11  1  0
 12 13  1  1
 13 14  1  0
 14 15  2  0
 15 16  1  0
 17 16  2  0
 18 17  1  0
 19 14  1  0
 19 18  2  0
 20 28  1  0
 20 12  1  0
 21 20  2  0
 23 22  1  0
 24 23  2  0
 25 23  1  0
 27 26  1  1
 26 25  1  0
 27 29  1  0
 27 28  1  0
 29 30  1  0
 31 29  2  0
M  END
$$$$
