HFQ.pdb
     RDKit          3D

 31 32  0  0  1  0  0  0  0  0999 V2000
   27.7187  -22.2093  -17.7335 N   0  0  0  0  0  0  0  0  0  0  0  0
   27.3741  -20.9934  -17.0684 C   0  0  1  0  0  0  0  0  0  0  0  0
   26.5543  -20.0817  -17.9574 C   0  0  0  0  0  0  0  0  0  0  0  0
   27.4627  -19.4665  -18.9436 C   0  0  0  0  0  0  0  0  0  0  0  0
   28.6076  -18.7772  -18.6280 C   0  0  0  0  0  0  0  0  0  0  0  0
   29.1678  -18.3676  -19.7841 N   0  0  0  0  0  0  0  0  0  0  0  0
   28.4138  -18.7764  -20.8085 C   0  0  0  0  0  0  0  0  0  0  0  0
   27.3726  -19.4486  -20.2770 N   0  0  0  0  0  0  0  0  0  0  0  0
   26.6302  -21.2925  -15.7975 C   0  0  0  0  0  0  0  0  0  0  0  0
   25.5694  -21.9347  -15.7849 O   0  0  0  0  0  0  0  0  0  0  0  0
   27.1273  -20.8413  -14.5480 N   0  0  0  0  0  0  0  0  0  0  0  0
   26.4424  -20.8992  -13.3160 C   0  0  1  0  0  0  0  0  0  0  0  0
   27.2129  -20.4840  -12.0961 C   0  0  0  0  0  0  0  0  0  0  0  0
   26.3680  -20.6216  -10.8891 C   0  0  0  0  0  0  0  0  0  0  0  0
   25.8685  -21.7956  -10.3941 C   0  0  0  0  0  0  0  0  0  0  0  0
   25.0718  -21.7588   -9.2480 C   0  0  0  0  0  0  0  0  0  0  0  0
   24.7831  -20.5758   -8.6135 C   0  0  0  0  0  0  0  0  0  0  0  0
   25.2789  -19.3836   -9.0992 C   0  0  0  0  0  0  0  0  0  0  0  0
   26.0533  -19.4473  -10.2188 C   0  0  0  0  0  0  0  0  0  0  0  0
   25.1154  -20.2715  -13.3153 C   0  0  0  0  0  0  0  0  0  0  0  0
   25.0317  -19.0941  -13.7585 O   0  0  0  0  0  0  0  0  0  0  0  0
   22.1454  -18.8596  -16.5703 N   0  0  0  0  0  0  0  0  0  0  0  0
   20.9361  -19.0851  -15.8644 C   0  0  0  0  0  0  0  0  0  0  0  0
   19.8874  -18.5242  -16.2383 O   0  0  0  0  0  0  0  0  0  0  0  0
   20.9343  -19.9811  -14.6958 C   0  0  0  0  0  0  0  0  0  0  0  0
   22.3403  -20.5055  -14.4732 C   0  0  0  0  0  0  0  0  0  0  0  0
   22.6897  -20.3715  -13.0003 C   0  0  2  0  0  0  0  0  0  0  0  0
   23.9951  -20.9873  -12.8306 N   0  0  0  0  0  0  0  0  0  0  0  0
   21.7332  -21.1257  -12.1800 C   0  0  0  0  0  0  0  0  0  0  0  0
   21.7467  -22.4974  -12.0554 O   0  0  0  0  0  0  0  0  0  0  0  0
   20.8489  -20.4662  -11.5552 O   0  0  0  0  0  0  0  0  0  0  0  0
  2  3  1  0
  2  1  1  6
  3  4  1  0
  4  8  1  0
  4  5  2  0
  5  6  1  0
  7  6  1  0
  8  7  2  0
  9  2  1  0
 10  9  2  0
 11  9  1  0
 12 11  1  0
 12 13  1  1
 13 14  1  0
 14 15  2  0
 15 16  1  0
 17 16  2  0
 18 17  1  0
 19 14  1  0
 19 18  2  0
 20 28  1  0
 20 12  1  0
 21 20  2  0
 23 22  1  0
 24 23  2  0
 25 23  1  0
 27 26  1  6
 26 25  1  0
 27 29  1  0
 27 28  1  0
 29 30  1  0
 31 29  2  0
M  END
$$$$
