HFQ.pdb
     RDKit          3D

 31 32  0  0  1  0  0  0  0  0999 V2000
   28.5630  -20.9131  -15.2129 N   0  0  0  0  0  0  0  0  0  0  0  0
   27.7887  -20.0342  -14.3959 C   0  0  1  0  0  0  0  0  0  0  0  0
   27.0097  -19.0371  -15.2280 C   0  0  0  0  0  0  0  0  0  0  0  0
   27.9756  -18.2237  -15.9905 C   0  0  0  0  0  0  0  0  0  0  0  0
   28.6327  -18.6456  -17.1200 C   0  0  0  0  0  0  0  0  0  0  0  0
   29.4254  -17.6352  -17.5310 N   0  0  0  0  0  0  0  0  0  0  0  0
   29.2863  -16.5992  -16.6989 C   0  0  0  0  0  0  0  0  0  0  0  0
   28.3944  -16.9755  -15.7601 N   0  0  0  0  0  0  0  0  0  0  0  0
   26.8583  -20.8268  -13.5218 C   0  0  0  0  0  0  0  0  0  0  0  0
   26.3690  -21.9079  -13.8821 O   0  0  0  0  0  0  0  0  0  0  0  0
   26.5032  -20.3547  -12.2323 N   0  0  0  0  0  0  0  0  0  0  0  0
   25.4057  -20.7958  -11.4635 C   0  0  1  0  0  0  0  0  0  0  0  0
   25.4293  -20.4604  -10.0002 C   0  0  0  0  0  0  0  0  0  0  0  0
   26.7819  -20.6920   -9.4465 C   0  0  0  0  0  0  0  0  0  0  0  0
   27.2748  -20.1496   -8.2909 C   0  0  0  0  0  0  0  0  0  0  0  0
   28.5822  -20.4549   -7.9073 C   0  0  0  0  0  0  0  0  0  0  0  0
   29.3756  -21.2831   -8.6623 C   0  0  0  0  0  0  0  0  0  0  0  0
   28.8941  -21.8385   -9.8296 C   0  0  0  0  0  0  0  0  0  0  0  0
   27.6154  -21.5243  -10.1812 C   0  0  0  0  0  0  0  0  0  0  0  0
   24.0878  -20.4887  -12.0326 C   0  0  0  0  0  0  0  0  0  0  0  0
   24.0061  -19.4896  -12.7975 O   0  0  0  0  0  0  0  0  0  0  0  0
   22.5640  -18.6223  -15.7810 N   0  0  0  0  0  0  0  0  0  0  0  0
   21.2023  -18.8212  -15.4382 C   0  0  0  0  0  0  0  0  0  0  0  0
   20.3132  -18.1908  -16.0437 O   0  0  0  0  0  0  0  0  0  0  0  0
   20.8546  -19.7721  -14.3690 C   0  0  0  0  0  0  0  0  0  0  0  0
   22.0755  -20.0057  -13.4993 C   0  0  0  0  0  0  0  0  0  0  0  0
   21.7618  -21.0988  -12.4914 C   0  0  2  0  0  0  0  0  0  0  0  0
   22.9742  -21.3023  -11.7162 N   0  0  0  0  0  0  0  0  0  0  0  0
   21.4614  -22.3584  -13.1841 C   0  0  0  0  0  0  0  0  0  0  0  0
   20.1887  -22.8621  -13.3385 O   0  0  0  0  0  0  0  0  0  0  0  0
   22.4368  -23.0111  -13.6634 O   0  0  0  0  0  0  0  0  0  0  0  0
  2  3  1  0
  2  1  1  6
  3  4  1  0
  4  8  1  0
  4  5  2  0
  5  6  1  0
  7  6  1  0
  8  7  2  0
  9  2  1  0
 10  9  2  0
 11  9  1  0
 12 11  1  0
 12 13  1  1
 13 14  1  0
 14 15  2  0
 15 16  1  0
 17 16  2  0
 18 17  1  0
 19 14  1  0
 19 18  2  0
 20 28  1  0
 20 12  1  0
 21 20  2  0
 23 22  1  0
 24 23  2  0
 25 23  1  0
 27 26  1  6
 26 25  1  0
 27 29  1  0
 27 28  1  0
 29 30  1  0
 31 29  2  0
M  END
$$$$
