HFQ.pdb
     RDKit          3D

 31 32  0  0  1  0  0  0  0  0999 V2000
   32.7261  -32.5760  -15.9263 N   0  0  0  0  0  0  0  0  0  0  0  0
   31.7909  -32.5673  -17.0056 C   0  0  1  0  0  0  0  0  0  0  0  0
   31.3372  -33.9668  -17.3649 C   0  0  0  0  0  0  0  0  0  0  0  0
   32.4469  -34.6422  -18.0640 C   0  0  0  0  0  0  0  0  0  0  0  0
   32.9704  -34.2419  -19.2687 C   0  0  0  0  0  0  0  0  0  0  0  0
   33.9623  -35.0984  -19.5860 N   0  0  0  0  0  0  0  0  0  0  0  0
   34.0760  -36.0178  -18.6233 C   0  0  0  0  0  0  0  0  0  0  0  0
   33.1402  -35.7244  -17.6975 N   0  0  0  0  0  0  0  0  0  0  0  0
   30.6090  -31.7067  -16.6584 C   0  0  0  0  0  0  0  0  0  0  0  0
   30.0825  -31.7242  -15.5358 O   0  0  0  0  0  0  0  0  0  0  0  0
   30.0474  -30.8305  -17.6220 N   0  0  0  0  0  0  0  0  0  0  0  0
   28.9862  -29.9278  -17.3997 C   0  0  1  0  0  0  0  0  0  0  0  0
   29.0807  -28.5946  -18.0835 C   0  0  0  0  0  0  0  0  0  0  0  0
   27.9044  -27.7635  -17.7437 C   0  0  0  0  0  0  0  0  0  0  0  0
   26.8112  -27.5634  -18.5422 C   0  0  0  0  0  0  0  0  0  0  0  0
   25.7839  -26.7365  -18.0832 C   0  0  0  0  0  0  0  0  0  0  0  0
   25.8501  -26.1259  -16.8552 C   0  0  0  0  0  0  0  0  0  0  0  0
   26.9447  -26.3174  -16.0378 C   0  0  0  0  0  0  0  0  0  0  0  0
   27.9331  -27.1286  -16.5096 C   0  0  0  0  0  0  0  0  0  0  0  0
   27.6438  -30.4946  -17.5775 C   0  0  0  0  0  0  0  0  0  0  0  0
   27.4370  -31.1782  -18.6165 O   0  0  0  0  0  0  0  0  0  0  0  0
   27.3542  -32.4631  -14.3940 N   0  0  0  0  0  0  0  0  0  0  0  0
   26.3381  -33.4113  -14.6764 C   0  0  0  0  0  0  0  0  0  0  0  0
   26.5629  -34.6266  -14.5127 O   0  0  0  0  0  0  0  0  0  0  0  0
   25.0271  -32.9475  -15.1605 C   0  0  0  0  0  0  0  0  0  0  0  0
   25.0501  -31.4351  -15.2768 C   0  0  0  0  0  0  0  0  0  0  0  0
   25.4287  -31.0550  -16.6986 C   0  0  2  0  0  0  0  0  0  0  0  0
   26.6447  -30.2649  -16.6021 N   0  0  0  0  0  0  0  0  0  0  0  0
   24.3906  -30.2013  -17.2904 C   0  0  0  0  0  0  0  0  0  0  0  0
   23.3490  -30.6806  -18.0536 O   0  0  0  0  0  0  0  0  0  0  0  0
   24.4675  -28.9534  -17.0801 O   0  0  0  0  0  0  0  0  0  0  0  0
  2  3  1  0
  2  1  1  1
  3  4  1  0
  4  8  1  0
  4  5  2  0
  5  6  1  0
  7  6  1  0
  8  7  2  0
  9  2  1  0
 10  9  2  0
 11  9  1  0
 12 11  1  0
 12 13  1  6
 13 14  1  0
 14 15  2  0
 15 16  1  0
 17 16  2  0
 18 17  1  0
 19 14  1  0
 19 18  2  0
 20 28  1  0
 20 12  1  0
 21 20  2  0
 23 22  1  0
 24 23  2  0
 25 23  1  0
 27 26  1  1
 26 25  1  0
 27 29  1  0
 27 28  1  0
 29 30  1  0
 31 29  2  0
M  END
$$$$
