HFQ.pdb
     RDKit          3D

 31 32  0  0  1  0  0  0  0  0999 V2000
   26.9276  -20.4448  -18.0009 N   0  0  0  0  0  0  0  0  0  0  0  0
   25.7836  -19.7347  -17.5251 C   0  0  1  0  0  0  0  0  0  0  0  0
   24.7522  -19.5389  -18.6166 C   0  0  0  0  0  0  0  0  0  0  0  0
   25.2672  -18.5251  -19.5564 C   0  0  0  0  0  0  0  0  0  0  0  0
   25.4221  -17.1931  -19.2611 C   0  0  0  0  0  0  0  0  0  0  0  0
   25.9134  -16.5870  -20.3609 N   0  0  0  0  0  0  0  0  0  0  0  0
   26.0704  -17.4926  -21.3305 C   0  0  0  0  0  0  0  0  0  0  0  0
   25.6699  -18.6756  -20.8218 N   0  0  0  0  0  0  0  0  0  0  0  0
   25.1771  -20.4567  -16.3551 C   0  0  0  0  0  0  0  0  0  0  0  0
   25.0718  -21.6918  -16.3195 O   0  0  0  0  0  0  0  0  0  0  0  0
   24.6966  -19.7346  -15.2328 N   0  0  0  0  0  0  0  0  0  0  0  0
   24.2142  -20.2972  -14.0324 C   0  0  1  0  0  0  0  0  0  0  0  0
   24.7124  -19.6876  -12.7540 C   0  0  0  0  0  0  0  0  0  0  0  0
   26.1070  -20.1109  -12.4977 C   0  0  0  0  0  0  0  0  0  0  0  0
   27.2042  -19.7211  -13.2167 C   0  0  0  0  0  0  0  0  0  0  0  0
   28.4576  -20.2210  -12.8575 C   0  0  0  0  0  0  0  0  0  0  0  0
   28.6078  -21.0892  -11.8043 C   0  0  0  0  0  0  0  0  0  0  0  0
   27.5122  -21.4919  -11.0691 C   0  0  0  0  0  0  0  0  0  0  0  0
   26.3010  -20.9895  -11.4406 C   0  0  0  0  0  0  0  0  0  0  0  0
   22.7584  -20.4773  -13.9744 C   0  0  0  0  0  0  0  0  0  0  0  0
   22.0401  -19.4793  -14.2531 O   0  0  0  0  0  0  0  0  0  0  0  0
   19.7283  -25.8471  -12.8663 N   0  0  0  0  0  0  0  0  0  0  0  0
   18.6628  -24.9198  -12.9942 C   0  0  0  0  0  0  0  0  0  0  0  0
   17.4878  -25.2996  -12.8222 O   0  0  0  0  0  0  0  0  0  0  0  0
   18.9582  -23.5167  -13.3294 C   0  0  0  0  0  0  0  0  0  0  0  0
   20.4625  -23.3292  -13.3891 C   0  0  0  0  0  0  0  0  0  0  0  0
   20.7676  -21.8608  -13.6342 C   0  0  2  0  0  0  0  0  0  0  0  0
   22.2153  -21.7343  -13.6174 N   0  0  0  0  0  0  0  0  0  0  0  0
   20.2378  -21.0412  -12.5368 C   0  0  0  0  0  0  0  0  0  0  0  0
   20.8496  -20.9186  -11.3089 O   0  0  0  0  0  0  0  0  0  0  0  0
   19.1548  -20.4152  -12.7427 O   0  0  0  0  0  0  0  0  0  0  0  0
  2  3  1  0
  2  1  1  6
  3  4  1  0
  4  8  1  0
  4  5  2  0
  5  6  1  0
  7  6  1  0
  8  7  2  0
  9  2  1  0
 10  9  2  0
 11  9  1  0
 12 11  1  0
 12 13  1  1
 13 14  1  0
 14 15  2  0
 15 16  1  0
 17 16  2  0
 18 17  1  0
 19 14  1  0
 19 18  2  0
 20 28  1  0
 20 12  1  0
 21 20  2  0
 23 22  1  0
 24 23  2  0
 25 23  1  0
 27 26  1  1
 26 25  1  0
 27 29  1  0
 27 28  1  0
 29 30  1  0
 31 29  2  0
M  END
$$$$
