HFQ.pdb
     RDKit          3D

 31 32  0  0  1  0  0  0  0  0999 V2000
   26.9530  -21.2010  -17.4760 N   0  0  0  0  0  0  0  0  0  0  0  0
   27.0798  -20.3327  -16.3494 C   0  0  1  0  0  0  0  0  0  0  0  0
   26.6332  -18.9229  -16.6758 C   0  0  0  0  0  0  0  0  0  0  0  0
   27.6035  -18.3435  -17.6239 C   0  0  0  0  0  0  0  0  0  0  0  0
   28.8281  -17.8307  -17.2731 C   0  0  0  0  0  0  0  0  0  0  0  0
   29.4259  -17.3969  -18.4012 N   0  0  0  0  0  0  0  0  0  0  0  0
   28.6187  -17.6206  -19.4421 C   0  0  0  0  0  0  0  0  0  0  0  0
   27.5058  -18.2013  -18.9493 N   0  0  0  0  0  0  0  0  0  0  0  0
   26.2951  -20.8748  -15.1882 C   0  0  0  0  0  0  0  0  0  0  0  0
   25.1213  -21.2583  -15.3018 O   0  0  0  0  0  0  0  0  0  0  0  0
   26.8832  -20.9669  -13.9008 N   0  0  0  0  0  0  0  0  0  0  0  0
   26.1859  -21.0532  -12.6775 C   0  0  1  0  0  0  0  0  0  0  0  0
   27.0124  -21.0010  -11.4252 C   0  0  0  0  0  0  0  0  0  0  0  0
   26.1335  -20.8983  -10.2390 C   0  0  0  0  0  0  0  0  0  0  0  0
   25.2888  -21.8745   -9.7848 C   0  0  0  0  0  0  0  0  0  0  0  0
   24.5104  -21.6193   -8.6541 C   0  0  0  0  0  0  0  0  0  0  0  0
   24.5767  -20.4166   -7.9949 C   0  0  0  0  0  0  0  0  0  0  0  0
   25.4232  -19.4221   -8.4394 C   0  0  0  0  0  0  0  0  0  0  0  0
   26.1715  -19.6968   -9.5448 C   0  0  0  0  0  0  0  0  0  0  0  0
   25.0296  -20.1565  -12.5593 C   0  0  0  0  0  0  0  0  0  0  0  0
   25.2572  -18.9164  -12.5515 O   0  0  0  0  0  0  0  0  0  0  0  0
   22.4466  -19.2905  -16.3797 N   0  0  0  0  0  0  0  0  0  0  0  0
   21.5636  -20.2561  -15.8327 C   0  0  0  0  0  0  0  0  0  0  0  0
   20.9379  -21.0226  -16.5912 O   0  0  0  0  0  0  0  0  0  0  0  0
   21.3963  -20.3417  -14.3722 C   0  0  0  0  0  0  0  0  0  0  0  0
   22.2670  -19.2888  -13.7127 C   0  0  0  0  0  0  0  0  0  0  0  0
   22.6277  -19.7535  -12.3115 C   0  0  2  0  0  0  0  0  0  0  0  0
   23.7247  -20.6949  -12.4612 N   0  0  0  0  0  0  0  0  0  0  0  0
   21.5005  -20.4775  -11.7098 C   0  0  0  0  0  0  0  0  0  0  0  0
   20.3710  -19.8619  -11.2173 O   0  0  0  0  0  0  0  0  0  0  0  0
   21.5826  -21.7409  -11.6453 O   0  0  0  0  0  0  0  0  0  0  0  0
  2  3  1  0
  2  1  1  6
  3  4  1  0
  4  8  1  0
  4  5  2  0
  5  6  1  0
  7  6  1  0
  8  7  2  0
  9  2  1  0
 10  9  2  0
 11  9  1  0
 12 11  1  0
 12 13  1  1
 13 14  1  0
 14 15  2  0
 15 16  1  0
 17 16  2  0
 18 17  1  0
 19 14  1  0
 19 18  2  0
 20 28  1  0
 20 12  1  0
 21 20  2  0
 23 22  1  0
 24 23  2  0
 25 23  1  0
 27 26  1  6
 26 25  1  0
 27 29  1  0
 27 28  1  0
 29 30  1  0
 31 29  2  0
M  END
$$$$
