HFQ.pdb
     RDKit          3D

 31 32  0  0  1  0  0  0  0  0999 V2000
   27.1953  -20.3654  -17.5337 N   0  0  0  0  0  0  0  0  0  0  0  0
   26.8560  -19.7488  -16.2911 C   0  0  1  0  0  0  0  0  0  0  0  0
   26.4203  -18.3107  -16.4800 C   0  0  0  0  0  0  0  0  0  0  0  0
   27.5571  -17.5585  -17.0440 C   0  0  0  0  0  0  0  0  0  0  0  0
   27.6218  -17.0905  -18.3333 C   0  0  0  0  0  0  0  0  0  0  0  0
   28.8038  -16.4578  -18.4777 N   0  0  0  0  0  0  0  0  0  0  0  0
   29.4779  -16.5144  -17.3256 C   0  0  0  0  0  0  0  0  0  0  0  0
   28.7005  -17.1923  -16.4568 N   0  0  0  0  0  0  0  0  0  0  0  0
   25.7782  -20.5360  -15.6008 C   0  0  0  0  0  0  0  0  0  0  0  0
   24.6958  -20.7987  -16.1460 O   0  0  0  0  0  0  0  0  0  0  0  0
   25.9682  -21.0126  -14.2784 N   0  0  0  0  0  0  0  0  0  0  0  0
   25.0105  -21.6966  -13.5005 C   0  0  1  0  0  0  0  0  0  0  0  0
   25.4922  -22.2943  -12.2102 C   0  0  0  0  0  0  0  0  0  0  0  0
   25.6512  -21.2369  -11.1873 C   0  0  0  0  0  0  0  0  0  0  0  0
   26.6659  -20.3199  -11.1386 C   0  0  0  0  0  0  0  0  0  0  0  0
   26.6840  -19.3898  -10.0972 C   0  0  0  0  0  0  0  0  0  0  0  0
   25.7100  -19.3785   -9.1295 C   0  0  0  0  0  0  0  0  0  0  0  0
   24.6801  -20.2956   -9.1641 C   0  0  0  0  0  0  0  0  0  0  0  0
   24.6861  -21.1922  -10.1906 C   0  0  0  0  0  0  0  0  0  0  0  0
   23.7543  -20.9684  -13.2839 C   0  0  0  0  0  0  0  0  0  0  0  0
   23.8355  -19.7342  -13.0394 O   0  0  0  0  0  0  0  0  0  0  0  0
   21.3043  -17.7452  -15.0520 N   0  0  0  0  0  0  0  0  0  0  0  0
   19.9743  -18.2122  -14.8961 C   0  0  0  0  0  0  0  0  0  0  0  0
   19.0328  -17.3960  -14.8539 O   0  0  0  0  0  0  0  0  0  0  0  0
   19.7213  -19.6586  -14.7857 C   0  0  0  0  0  0  0  0  0  0  0  0
   21.0495  -20.3902  -14.7379 C   0  0  0  0  0  0  0  0  0  0  0  0
   21.3094  -20.8489  -13.3127 C   0  0  2  0  0  0  0  0  0  0  0  0
   22.5185  -21.6540  -13.3548 N   0  0  0  0  0  0  0  0  0  0  0  0
   20.2164  -21.7135  -12.8493 C   0  0  0  0  0  0  0  0  0  0  0  0
   19.1723  -21.2737  -12.0660 O   0  0  0  0  0  0  0  0  0  0  0  0
   20.2459  -22.9326  -13.1962 O   0  0  0  0  0  0  0  0  0  0  0  0
  2  3  1  0
  2  1  1  6
  3  4  1  0
  4  8  1  0
  4  5  2  0
  5  6  1  0
  7  6  1  0
  8  7  2  0
  9  2  1  0
 10  9  2  0
 11  9  1  0
 12 11  1  0
 12 13  1  1
 13 14  1  0
 14 15  2  0
 15 16  1  0
 17 16  2  0
 18 17  1  0
 19 14  1  0
 19 18  2  0
 20 28  1  0
 20 12  1  0
 21 20  2  0
 23 22  1  0
 24 23  2  0
 25 23  1  0
 27 26  1  6
 26 25  1  0
 27 29  1  0
 27 28  1  0
 29 30  1  0
 31 29  2  0
M  END
$$$$
