HFQ.pdb
     RDKit          3D

 31 32  0  0  1  0  0  0  0  0999 V2000
   27.2919  -21.7201  -18.8218 N   0  0  0  0  0  0  0  0  0  0  0  0
   26.6517  -20.6382  -18.1444 C   0  0  1  0  0  0  0  0  0  0  0  0
   25.4860  -20.0902  -18.9408 C   0  0  0  0  0  0  0  0  0  0  0  0
   26.0288  -19.3352  -20.0861 C   0  0  0  0  0  0  0  0  0  0  0  0
   26.1566  -19.8324  -21.3597 C   0  0  0  0  0  0  0  0  0  0  0  0
   26.6869  -18.8575  -22.1257 N   0  0  0  0  0  0  0  0  0  0  0  0
   26.8943  -17.7713  -21.3760 C   0  0  0  0  0  0  0  0  0  0  0  0
   26.4858  -18.0800  -20.1284 N   0  0  0  0  0  0  0  0  0  0  0  0
   26.1943  -21.0793  -16.7827 C   0  0  0  0  0  0  0  0  0  0  0  0
   25.5462  -22.1218  -16.6059 O   0  0  0  0  0  0  0  0  0  0  0  0
   26.4948  -20.3027  -15.6345 N   0  0  0  0  0  0  0  0  0  0  0  0
   25.9778  -20.5090  -14.3383 C   0  0  1  0  0  0  0  0  0  0  0  0
   26.6746  -19.7992  -13.2136 C   0  0  0  0  0  0  0  0  0  0  0  0
   26.0369  -20.1414  -11.9229 C   0  0  0  0  0  0  0  0  0  0  0  0
   24.9679  -19.4946  -11.3646 C   0  0  0  0  0  0  0  0  0  0  0  0
   24.4875  -19.9303  -10.1281 C   0  0  0  0  0  0  0  0  0  0  0  0
   25.0633  -20.9876   -9.4677 C   0  0  0  0  0  0  0  0  0  0  0  0
   26.1412  -21.6507  -10.0167 C   0  0  0  0  0  0  0  0  0  0  0  0
   26.5904  -21.2054  -11.2239 C   0  0  0  0  0  0  0  0  0  0  0  0
   24.5240  -20.3443  -14.2181 C   0  0  0  0  0  0  0  0  0  0  0  0
   24.0294  -19.2566  -14.6206 O   0  0  0  0  0  0  0  0  0  0  0  0
   20.5704  -24.8293  -15.0063 N   0  0  0  0  0  0  0  0  0  0  0  0
   19.6798  -23.8026  -14.6011 C   0  0  0  0  0  0  0  0  0  0  0  0
   18.4492  -23.9972  -14.6468 O   0  0  0  0  0  0  0  0  0  0  0  0
   20.2209  -22.5166  -14.1302 C   0  0  0  0  0  0  0  0  0  0  0  0
   21.7365  -22.5832  -14.1451 C   0  0  0  0  0  0  0  0  0  0  0  0
   22.2941  -21.2307  -13.7337 C   0  0  2  0  0  0  0  0  0  0  0  0
   23.7378  -21.3847  -13.6689 N   0  0  0  0  0  0  0  0  0  0  0  0
   21.8249  -20.8751  -12.3883 C   0  0  0  0  0  0  0  0  0  0  0  0
   20.7796  -20.0115  -12.1459 O   0  0  0  0  0  0  0  0  0  0  0  0
   22.4235  -21.3988  -11.4011 O   0  0  0  0  0  0  0  0  0  0  0  0
  2  3  1  0
  2  1  1  6
  3  4  1  0
  4  8  1  0
  4  5  2  0
  5  6  1  0
  7  6  1  0
  8  7  2  0
  9  2  1  0
 10  9  2  0
 11  9  1  0
 12 11  1  0
 12 13  1  1
 13 14  1  0
 14 15  2  0
 15 16  1  0
 17 16  2  0
 18 17  1  0
 19 14  1  0
 19 18  2  0
 20 28  1  0
 20 12  1  0
 21 20  2  0
 23 22  1  0
 24 23  2  0
 25 23  1  0
 27 26  1  1
 26 25  1  0
 27 29  1  0
 27 28  1  0
 29 30  1  0
 31 29  2  0
M  END
$$$$
