HFQ.pdb
     RDKit          3D

 31 32  0  0  1  0  0  0  0  0999 V2000
   28.0650  -23.5475  -17.6796 N   0  0  0  0  0  0  0  0  0  0  0  0
   27.2440  -22.3880  -17.5344 C   0  0  1  0  0  0  0  0  0  0  0  0
   26.2810  -22.2349  -18.6930 C   0  0  0  0  0  0  0  0  0  0  0  0
   27.0500  -21.7938  -19.8721 C   0  0  0  0  0  0  0  0  0  0  0  0
   27.3335  -22.5823  -20.9599 C   0  0  0  0  0  0  0  0  0  0  0  0
   28.0489  -21.8375  -21.8270 N   0  0  0  0  0  0  0  0  0  0  0  0
   28.2216  -20.6138  -21.3192 C   0  0  0  0  0  0  0  0  0  0  0  0
   27.6035  -20.6029  -20.1206 N   0  0  0  0  0  0  0  0  0  0  0  0
   26.4934  -22.4460  -16.2339 C   0  0  0  0  0  0  0  0  0  0  0  0
   25.9400  -23.4806  -15.8327 O   0  0  0  0  0  0  0  0  0  0  0  0
   26.3920  -21.2971  -15.4082 N   0  0  0  0  0  0  0  0  0  0  0  0
   25.6341  -21.1952  -14.2227 C   0  0  1  0  0  0  0  0  0  0  0  0
   26.0918  -20.1808  -13.2150 C   0  0  0  0  0  0  0  0  0  0  0  0
   25.3864  -20.3853  -11.9303 C   0  0  0  0  0  0  0  0  0  0  0  0
   24.1696  -19.8565  -11.5950 C   0  0  0  0  0  0  0  0  0  0  0  0
   23.6400  -20.1320  -10.3327 C   0  0  0  0  0  0  0  0  0  0  0  0
   24.3124  -20.9176   -9.4293 C   0  0  0  0  0  0  0  0  0  0  0  0
   25.5397  -21.4586   -9.7515 C   0  0  0  0  0  0  0  0  0  0  0  0
   26.0340  -21.1742  -10.9894 C   0  0  0  0  0  0  0  0  0  0  0  0
   24.1834  -21.0924  -14.4224 C   0  0  0  0  0  0  0  0  0  0  0  0
   23.7666  -20.1723  -15.1770 O   0  0  0  0  0  0  0  0  0  0  0  0
   20.0935  -25.6201  -13.4866 N   0  0  0  0  0  0  0  0  0  0  0  0
   19.2408  -24.5560  -13.8764 C   0  0  0  0  0  0  0  0  0  0  0  0
   18.0292  -24.7742  -14.0732 O   0  0  0  0  0  0  0  0  0  0  0  0
   19.7983  -23.2035  -14.0443 C   0  0  0  0  0  0  0  0  0  0  0  0
   21.2752  -23.2315  -13.6984 C   0  0  0  0  0  0  0  0  0  0  0  0
   21.8973  -21.8989  -14.0813 C   0  0  2  0  0  0  0  0  0  0  0  0
   23.3149  -22.0062  -13.7796 N   0  0  0  0  0  0  0  0  0  0  0  0
   21.3464  -20.8224  -13.2480 C   0  0  0  0  0  0  0  0  0  0  0  0
   21.5144  -20.7492  -11.8828 O   0  0  0  0  0  0  0  0  0  0  0  0
   20.6800  -19.9138  -13.8291 O   0  0  0  0  0  0  0  0  0  0  0  0
  2  3  1  0
  2  1  1  6
  3  4  1  0
  4  8  1  0
  4  5  2  0
  5  6  1  0
  7  6  1  0
  8  7  2  0
  9  2  1  0
 10  9  2  0
 11  9  1  0
 12 11  1  0
 12 13  1  6
 13 14  1  0
 14 15  2  0
 15 16  1  0
 17 16  2  0
 18 17  1  0
 19 14  1  0
 19 18  2  0
 20 28  1  0
 20 12  1  0
 21 20  2  0
 23 22  1  0
 24 23  2  0
 25 23  1  0
 27 26  1  1
 26 25  1  0
 27 29  1  0
 27 28  1  0
 29 30  1  0
 31 29  2  0
M  END
$$$$
