HFQ.pdb
     RDKit          3D

 31 32  0  0  1  0  0  0  0  0999 V2000
   25.5162  -21.9444  -13.2746 N   0  0  0  0  0  0  0  0  0  0  0  0
   25.2214  -20.7839  -12.4963 C   0  0  1  0  0  0  0  0  0  0  0  0
   23.7943  -20.3201  -12.7008 C   0  0  0  0  0  0  0  0  0  0  0  0
   23.6530  -19.8779  -14.1010 C   0  0  0  0  0  0  0  0  0  0  0  0
   24.3199  -18.8133  -14.6554 C   0  0  0  0  0  0  0  0  0  0  0  0
   23.9357  -18.7190  -15.9444 N   0  0  0  0  0  0  0  0  0  0  0  0
   23.0538  -19.6858  -16.2136 C   0  0  0  0  0  0  0  0  0  0  0  0
   22.8911  -20.3877  -15.0736 N   0  0  0  0  0  0  0  0  0  0  0  0
   25.4794  -21.0580  -11.0416 C   0  0  0  0  0  0  0  0  0  0  0  0
   25.0012  -22.0413  -10.4566 O   0  0  0  0  0  0  0  0  0  0  0  0
   26.2938  -20.1841  -10.2767 N   0  0  0  0  0  0  0  0  0  0  0  0
   26.6021  -20.3278   -8.9076 C   0  0  1  0  0  0  0  0  0  0  0  0
   27.7942  -19.5681   -8.4016 C   0  0  0  0  0  0  0  0  0  0  0  0
   27.9217  -19.7375   -6.9370 C   0  0  0  0  0  0  0  0  0  0  0  0
   27.5089  -18.8391   -5.9908 C   0  0  0  0  0  0  0  0  0  0  0  0
   27.7130  -19.1392   -4.6425 C   0  0  0  0  0  0  0  0  0  0  0  0
   28.3150  -20.3098   -4.2520 C   0  0  0  0  0  0  0  0  0  0  0  0
   28.7366  -21.2263   -5.1929 C   0  0  0  0  0  0  0  0  0  0  0  0
   28.5258  -20.9090   -6.5015 C   0  0  0  0  0  0  0  0  0  0  0  0
   25.4653  -20.1532   -7.9953 C   0  0  0  0  0  0  0  0  0  0  0  0
   24.8125  -19.0781   -8.0830 O   0  0  0  0  0  0  0  0  0  0  0  0
   21.1502  -23.9449   -7.2855 N   0  0  0  0  0  0  0  0  0  0  0  0
   20.7593  -23.0107   -6.2927 C   0  0  0  0  0  0  0  0  0  0  0  0
   19.6235  -23.0866   -5.7843 O   0  0  0  0  0  0  0  0  0  0  0  0
   21.7022  -21.9600   -5.8736 C   0  0  0  0  0  0  0  0  0  0  0  0
   22.9781  -22.0893   -6.6841 C   0  0  0  0  0  0  0  0  0  0  0  0
   23.9384  -20.9858   -6.2724 C   0  0  2  0  0  0  0  0  0  0  0  0
   25.1410  -21.1709   -7.0672 N   0  0  0  0  0  0  0  0  0  0  0  0
   24.3120  -21.1373   -4.8603 C   0  0  0  0  0  0  0  0  0  0  0  0
   25.4127  -21.8458   -4.4317 O   0  0  0  0  0  0  0  0  0  0  0  0
   23.5719  -20.5799   -3.9949 O   0  0  0  0  0  0  0  0  0  0  0  0
  2  3  1  0
  2  1  1  6
  3  4  1  0
  4  8  1  0
  4  5  2  0
  5  6  1  0
  7  6  1  0
  8  7  2  0
  9  2  1  0
 10  9  2  0
 11  9  1  0
 12 11  1  0
 12 13  1  1
 13 14  1  0
 14 15  2  0
 15 16  1  0
 17 16  2  0
 18 17  1  0
 19 14  1  0
 19 18  2  0
 20 28  1  0
 20 12  1  0
 21 20  2  0
 23 22  1  0
 24 23  2  0
 25 23  1  0
 27 26  1  6
 26 25  1  0
 27 29  1  0
 27 28  1  0
 29 30  1  0
 31 29  2  0
M  END
$$$$
