QKA.pdb
     RDKit          3D

 24 23  0  0  1  0  0  0  0  0999 V2000
    7.3480  -21.3018   27.0516 N   0  0  0  0  0  0  0  0  0  0  0  0
    6.0273  -21.6678   26.7249 C   0  0  0  0  0  0  0  0  0  0  0  0
    5.3802  -22.3808   27.5353 O   0  0  0  0  0  0  0  0  0  0  0  0
    5.4125  -21.2084   25.4278 C   0  0  0  0  0  0  0  0  0  0  0  0
    6.3937  -20.3111   24.7259 C   0  0  0  0  0  0  0  0  0  0  0  0
    5.9295  -19.7749   23.4231 C   0  0  2  0  0  0  0  0  0  0  0  0
    5.7907  -20.8871   22.5021 N   0  0  0  0  0  0  0  0  0  0  0  0
    6.8094  -18.7628   22.8069 C   0  0  0  0  0  0  0  0  0  0  0  0
    7.7305  -19.0542   22.0009 O   0  0  0  0  0  0  0  0  0  0  0  0
    6.6671  -17.3614   23.0928 N   0  0  0  0  0  0  0  0  0  0  0  0
    7.5690  -16.3532   22.6395 C   0  0  1  0  0  0  0  0  0  0  0  0
    6.8781  -15.0668   22.2347 C   0  0  0  0  0  0  0  0  0  0  0  0
    6.6541  -14.9757   20.7472 C   0  0  0  0  0  0  0  0  0  0  0  0
    7.1879  -13.6146   20.3165 C   0  0  0  0  0  0  0  0  0  0  0  0
    6.9306  -13.3581   18.8517 C   0  0  0  0  0  0  0  0  0  0  0  0
    7.5878  -12.1147   18.4941 N   0  0  0  0  0  0  0  0  0  0  0  0
    8.4478  -15.9932   23.8098 C   0  0  0  0  0  0  0  0  0  0  0  0
    7.8924  -15.6194   24.8700 O   0  0  0  0  0  0  0  0  0  0  0  0
   10.3062  -16.6636   26.0734 C   0  0  0  0  0  0  0  0  0  0  0  0
   10.6464  -15.7479   24.9216 C   0  0  2  0  0  0  0  0  0  0  0  0
    9.8468  -16.0614   23.7537 N   0  0  0  0  0  0  0  0  0  0  0  0
   12.0816  -15.8217   24.5596 C   0  0  0  0  0  0  0  0  0  0  0  0
   12.4308  -16.2417   23.4283 O   0  0  0  0  0  0  0  0  0  0  0  0
   13.0873  -15.4384   25.4344 O   0  0  0  0  0  0  0  0  0  0  0  0
  2  1  1  0
  2  3  2  0
  4  2  1  0
  5  4  1  0
  6  5  1  0
  6  8  1  0
  6  7  1  6
  8  9  2  0
 10  8  1  0
 10 11  1  0
 11 17  1  0
 11 12  1  1
 12 13  1  0
 13 14  1  0
 14 15  1  0
 16 15  1  0
 17 18  2  0
 20 19  1  1
 21 20  1  0
 21 17  1  0
 22 24  1  0
 22 20  1  0
 23 22  2  0
M  END
$$$$
