QKA.pdb
     RDKit          3D

 24 23  0  0  1  0  0  0  0  0999 V2000
    9.4373  -16.6575   16.2617 N   0  0  0  0  0  0  0  0  0  0  0  0
    8.3696  -15.7433   16.1659 C   0  0  0  0  0  0  0  0  0  0  0  0
    7.2404  -16.1689   15.8084 O   0  0  0  0  0  0  0  0  0  0  0  0
    8.5875  -14.2871   16.4875 C   0  0  0  0  0  0  0  0  0  0  0  0
    8.9447  -14.1681   17.9431 C   0  0  0  0  0  0  0  0  0  0  0  0
    7.7874  -14.0466   18.8630 C   0  0  2  0  0  0  0  0  0  0  0  0
    7.4010  -12.6494   18.9185 N   0  0  0  0  0  0  0  0  0  0  0  0
    8.0221  -14.5232   20.2400 C   0  0  0  0  0  0  0  0  0  0  0  0
    8.5561  -13.8123   21.1301 O   0  0  0  0  0  0  0  0  0  0  0  0
    7.6502  -15.8478   20.6560 N   0  0  0  0  0  0  0  0  0  0  0  0
    7.8929  -16.3790   21.9576 C   0  0  1  0  0  0  0  0  0  0  0  0
    7.1171  -17.6490   22.2426 C   0  0  0  0  0  0  0  0  0  0  0  0
    7.5098  -18.2833   23.5521 C   0  0  0  0  0  0  0  0  0  0  0  0
    6.6358  -19.5223   23.7067 C   0  0  0  0  0  0  0  0  0  0  0  0
    6.8438  -20.1819   25.0481 C   0  0  0  0  0  0  0  0  0  0  0  0
    5.8372  -21.2163   25.1978 N   0  0  0  0  0  0  0  0  0  0  0  0
    9.3476  -16.7700   22.0069 C   0  0  0  0  0  0  0  0  0  0  0  0
    9.8483  -17.3047   20.9892 O   0  0  0  0  0  0  0  0  0  0  0  0
   12.3878  -15.8186   22.5086 C   0  0  0  0  0  0  0  0  0  0  0  0
   11.5536  -16.9184   23.1213 C   0  0  2  0  0  0  0  0  0  0  0  0
   10.1492  -16.5588   23.1374 N   0  0  0  0  0  0  0  0  0  0  0  0
   11.9867  -17.2395   24.5018 C   0  0  0  0  0  0  0  0  0  0  0  0
   13.1717  -17.5876   24.7312 O   0  0  0  0  0  0  0  0  0  0  0  0
   11.1222  -17.1725   25.5843 O   0  0  0  0  0  0  0  0  0  0  0  0
  2  1  1  0
  2  3  2  0
  4  2  1  0
  5  4  1  0
  6  5  1  0
  6  8  1  0
  6  7  1  1
  8  9  2  0
 10  8  1  0
 10 11  1  0
 11 17  1  0
 11 12  1  6
 12 13  1  0
 13 14  1  0
 14 15  1  0
 16 15  1  0
 17 18  2  0
 20 19  1  1
 21 20  1  0
 21 17  1  0
 22 24  1  0
 22 20  1  0
 23 22  2  0
M  END
$$$$
