QKA.pdb
     RDKit          3D

 24 23  0  0  1  0  0  0  0  0999 V2000
   20.7023  -15.3224   17.1352 N   0  0  0  0  0  0  0  0  0  0  0  0
   19.8935  -15.7193   18.2182 C   0  0  0  0  0  0  0  0  0  0  0  0
   19.7816  -14.9449   19.2040 O   0  0  0  0  0  0  0  0  0  0  0  0
   19.1812  -17.0471   18.1855 C   0  0  0  0  0  0  0  0  0  0  0  0
   17.7889  -16.8551   18.7193 C   0  0  0  0  0  0  0  0  0  0  0  0
   16.7073  -17.3703   17.8447 C   0  0  2  0  0  0  0  0  0  0  0  0
   16.7226  -16.6059   16.6118 N   0  0  0  0  0  0  0  0  0  0  0  0
   15.3484  -17.3090   18.4174 C   0  0  0  0  0  0  0  0  0  0  0  0
   14.5729  -16.3342   18.2407 O   0  0  0  0  0  0  0  0  0  0  0  0
   14.8186  -18.3741   19.2243 N   0  0  0  0  0  0  0  0  0  0  0  0
   13.4652  -18.4479   19.6695 C   0  0  1  0  0  0  0  0  0  0  0  0
   12.9760  -19.8675   19.8728 C   0  0  0  0  0  0  0  0  0  0  0  0
   11.5223  -19.9259   20.2658 C   0  0  0  0  0  0  0  0  0  0  0  0
   11.1715  -21.4040   20.3898 C   0  0  0  0  0  0  0  0  0  0  0  0
    9.7040  -21.6014   20.6819 C   0  0  0  0  0  0  0  0  0  0  0  0
    9.4752  -23.0207   20.8793 N   0  0  0  0  0  0  0  0  0  0  0  0
   13.4158  -17.8008   21.0298 C   0  0  0  0  0  0  0  0  0  0  0  0
   14.4483  -17.8436   21.7400 O   0  0  0  0  0  0  0  0  0  0  0  0
   11.0086  -15.7109   23.0254 C   0  0  0  0  0  0  0  0  0  0  0  0
   12.3167  -16.4199   22.7663 C   0  0  2  0  0  0  0  0  0  0  0  0
   12.2693  -17.1611   21.5214 N   0  0  0  0  0  0  0  0  0  0  0  0
   12.6735  -17.3455   23.8674 C   0  0  0  0  0  0  0  0  0  0  0  0
   12.3643  -18.5613   23.8009 O   0  0  0  0  0  0  0  0  0  0  0  0
   13.3520  -16.9224   25.0007 O   0  0  0  0  0  0  0  0  0  0  0  0
  2  1  1  0
  2  3  2  0
  4  2  1  0
  5  4  1  0
  6  5  1  0
  6  8  1  0
  6  7  1  6
  8  9  2  0
 10  8  1  0
 10 11  1  0
 11 17  1  0
 11 12  1  1
 12 13  1  0
 13 14  1  0
 14 15  1  0
 16 15  1  0
 17 18  2  0
 20 19  1  1
 21 20  1  0
 21 17  1  0
 22 24  1  0
 22 20  1  0
 23 22  2  0
M  END
$$$$
