QKA.pdb
     RDKit          3D

 24 23  0  0  1  0  0  0  0  0999 V2000
    9.2732  -12.6344   19.7970 N   0  0  0  0  0  0  0  0  0  0  0  0
    8.4899  -13.1310   18.7365 C   0  0  0  0  0  0  0  0  0  0  0  0
    8.9492  -13.0701   17.5664 O   0  0  0  0  0  0  0  0  0  0  0  0
    7.1304  -13.7212   19.0104 C   0  0  0  0  0  0  0  0  0  0  0  0
    6.9377  -13.8053   20.4991 C   0  0  0  0  0  0  0  0  0  0  0  0
    7.7464  -14.8481   21.1764 C   0  0  2  0  0  0  0  0  0  0  0  0
    7.6357  -16.0736   20.4079 N   0  0  0  0  0  0  0  0  0  0  0  0
    7.3658  -15.1348   22.5733 C   0  0  0  0  0  0  0  0  0  0  0  0
    6.3816  -14.5942   23.1407 O   0  0  0  0  0  0  0  0  0  0  0  0
    8.1061  -16.0624   23.3841 N   0  0  0  0  0  0  0  0  0  0  0  0
    7.7594  -16.4141   24.7226 C   0  0  1  0  0  0  0  0  0  0  0  0
    7.8451  -17.9023   24.9942 C   0  0  0  0  0  0  0  0  0  0  0  0
    7.6318  -18.2365   26.4482 C   0  0  0  0  0  0  0  0  0  0  0  0
    7.7086  -19.7550   26.5541 C   0  0  0  0  0  0  0  0  0  0  0  0
    7.4358  -20.2256   27.9619 C   0  0  0  0  0  0  0  0  0  0  0  0
    7.4498  -21.6766   27.9581 N   0  0  0  0  0  0  0  0  0  0  0  0
    8.7855  -15.7755   25.6231 C   0  0  0  0  0  0  0  0  0  0  0  0
    9.9948  -15.8914   25.3125 O   0  0  0  0  0  0  0  0  0  0  0  0
    8.9206  -13.1867   28.2611 C   0  0  0  0  0  0  0  0  0  0  0  0
    9.4595  -14.4257   27.5863 C   0  0  2  0  0  0  0  0  0  0  0  0
    8.4380  -15.0656   26.7809 N   0  0  0  0  0  0  0  0  0  0  0  0
    9.9881  -15.4050   28.5650 C   0  0  0  0  0  0  0  0  0  0  0  0
    9.4084  -16.5058   28.7389 O   0  0  0  0  0  0  0  0  0  0  0  0
   11.1248  -15.1580   29.3203 O   0  0  0  0  0  0  0  0  0  0  0  0
  2  1  1  0
  2  3  2  0
  4  2  1  0
  5  4  1  0
  6  5  1  0
  6  8  1  0
  6  7  1  6
  8  9  2  0
 10  8  1  0
 10 11  1  0
 11 17  1  0
 11 12  1  6
 12 13  1  0
 13 14  1  0
 14 15  1  0
 16 15  1  0
 17 18  2  0
 20 19  1  1
 21 20  1  0
 21 17  1  0
 22 24  1  0
 22 20  1  0
 23 22  2  0
M  END
$$$$
