QKA.pdb
     RDKit          3D

 24 23  0  0  1  0  0  0  0  0999 V2000
    8.1926  -19.1577   18.7755 N   0  0  0  0  0  0  0  0  0  0  0  0
    7.6395  -18.4285   17.7045 C   0  0  0  0  0  0  0  0  0  0  0  0
    7.4014  -19.0289   16.6243 O   0  0  0  0  0  0  0  0  0  0  0  0
    7.3431  -16.9591   17.8612 C   0  0  0  0  0  0  0  0  0  0  0  0
    7.6992  -16.5472   19.2626 C   0  0  0  0  0  0  0  0  0  0  0  0
    7.4444  -15.1206   19.5789 C   0  0  2  0  0  0  0  0  0  0  0  0
    7.8977  -14.3224   18.4555 N   0  0  0  0  0  0  0  0  0  0  0  0
    8.0967  -14.6187   20.8040 C   0  0  0  0  0  0  0  0  0  0  0  0
    9.3382  -14.4362   20.8945 O   0  0  0  0  0  0  0  0  0  0  0  0
    7.3438  -14.3027   21.9869 N   0  0  0  0  0  0  0  0  0  0  0  0
    7.9272  -13.9524   23.2409 C   0  0  1  0  0  0  0  0  0  0  0  0
    6.9604  -13.2623   24.1816 C   0  0  0  0  0  0  0  0  0  0  0  0
    7.5734  -12.9709   25.5271 C   0  0  0  0  0  0  0  0  0  0  0  0
    6.5196  -12.2085   26.3216 C   0  0  0  0  0  0  0  0  0  0  0  0
    7.0049  -11.8823   27.7130 C   0  0  0  0  0  0  0  0  0  0  0  0
    5.9661  -11.1203   28.3808 N   0  0  0  0  0  0  0  0  0  0  0  0
    8.3086  -15.2417   23.9219 C   0  0  0  0  0  0  0  0  0  0  0  0
    7.4124  -16.1002   24.1014 O   0  0  0  0  0  0  0  0  0  0  0  0
   11.2350  -17.3339   24.3908 C   0  0  0  0  0  0  0  0  0  0  0  0
    9.9433  -16.7893   24.9529 C   0  0  2  0  0  0  0  0  0  0  0  0
    9.6143  -15.5099   24.3558 N   0  0  0  0  0  0  0  0  0  0  0  0
   10.0006  -16.6355   26.4258 C   0  0  0  0  0  0  0  0  0  0  0  0
    9.8241  -15.5097   26.9546 O   0  0  0  0  0  0  0  0  0  0  0  0
   10.2466  -17.7053   27.2736 O   0  0  0  0  0  0  0  0  0  0  0  0
  2  1  1  0
  2  3  2  0
  4  2  1  0
  5  4  1  0
  6  5  1  0
  6  8  1  0
  6  7  1  6
  8  9  2  0
 10  8  1  0
 10 11  1  0
 11 17  1  0
 11 12  1  1
 12 13  1  0
 13 14  1  0
 14 15  1  0
 16 15  1  0
 17 18  2  0
 20 19  1  6
 21 20  1  0
 21 17  1  0
 22 24  1  0
 22 20  1  0
 23 22  2  0
M  END
$$$$
