QKA.pdb
     RDKit          3D

 24 23  0  0  1  0  0  0  0  0999 V2000
   10.3595  -12.2069   20.3056 N   0  0  0  0  0  0  0  0  0  0  0  0
    9.7644  -12.9912   19.2979 C   0  0  0  0  0  0  0  0  0  0  0  0
   10.4924  -13.7722   18.6315 O   0  0  0  0  0  0  0  0  0  0  0  0
    8.2844  -12.8884   19.0325 C   0  0  0  0  0  0  0  0  0  0  0  0
    7.5467  -13.4279   20.2263 C   0  0  0  0  0  0  0  0  0  0  0  0
    7.8762  -14.8292   20.5841 C   0  0  2  0  0  0  0  0  0  0  0  0
    7.3247  -15.6968   19.5606 N   0  0  0  0  0  0  0  0  0  0  0  0
    7.3783  -15.2794   21.8985 C   0  0  0  0  0  0  0  0  0  0  0  0
    6.1545  -15.3425   22.1834 O   0  0  0  0  0  0  0  0  0  0  0  0
    8.2729  -15.6795   22.9500 N   0  0  0  0  0  0  0  0  0  0  0  0
    7.8530  -16.0768   24.2544 C   0  0  1  0  0  0  0  0  0  0  0  0
    8.2237  -17.5057   24.5957 C   0  0  0  0  0  0  0  0  0  0  0  0
    7.7956  -17.8961   25.9870 C   0  0  0  0  0  0  0  0  0  0  0  0
    8.2059  -19.3528   26.1682 C   0  0  0  0  0  0  0  0  0  0  0  0
    7.8658  -19.8552   27.5501 C   0  0  0  0  0  0  0  0  0  0  0  0
    8.1417  -21.2793   27.5876 N   0  0  0  0  0  0  0  0  0  0  0  0
    8.6032  -15.2150   25.2373 C   0  0  0  0  0  0  0  0  0  0  0  0
    9.8545  -15.2940   25.2543 O   0  0  0  0  0  0  0  0  0  0  0  0
    7.9231  -12.2859   27.4392 C   0  0  0  0  0  0  0  0  0  0  0  0
    8.7271  -13.4900   27.0091 C   0  0  2  0  0  0  0  0  0  0  0  0
    7.9575  -14.3396   26.1217 N   0  0  0  0  0  0  0  0  0  0  0  0
    9.1881  -14.2915   28.1673 C   0  0  0  0  0  0  0  0  0  0  0  0
    8.6487  -15.3949   28.4316 O   0  0  0  0  0  0  0  0  0  0  0  0
   10.2161  -13.8705   28.9978 O   0  0  0  0  0  0  0  0  0  0  0  0
  2  1  1  0
  2  3  2  0
  4  2  1  0
  5  4  1  0
  6  5  1  0
  6  8  1  0
  6  7  1  6
  8  9  2  0
 10  8  1  0
 10 11  1  0
 11 17  1  0
 11 12  1  1
 12 13  1  0
 13 14  1  0
 14 15  1  0
 16 15  1  0
 17 18  2  0
 20 19  1  1
 21 20  1  0
 21 17  1  0
 22 24  1  0
 22 20  1  0
 23 22  2  0
M  END
$$$$
