QKA.pdb
     RDKit          3D

 24 23  0  0  1  0  0  0  0  0999 V2000
   13.8615  -19.4297   15.3796 N   0  0  0  0  0  0  0  0  0  0  0  0
   13.4276  -18.9954   14.1116 C   0  0  0  0  0  0  0  0  0  0  0  0
   14.1170  -19.2949   13.1022 O   0  0  0  0  0  0  0  0  0  0  0  0
   12.1614  -18.1888   13.9792 C   0  0  0  0  0  0  0  0  0  0  0  0
   11.5710  -17.9989   15.3488 C   0  0  0  0  0  0  0  0  0  0  0  0
   10.4843  -18.9461   15.6982 C   0  0  2  0  0  0  0  0  0  0  0  0
    9.3135  -18.5964   14.9162 N   0  0  0  0  0  0  0  0  0  0  0  0
   10.1046  -18.9739   17.1241 C   0  0  0  0  0  0  0  0  0  0  0  0
    9.1796  -18.2671   17.6014 O   0  0  0  0  0  0  0  0  0  0  0  0
   10.7771  -19.8219   18.0699 N   0  0  0  0  0  0  0  0  0  0  0  0
   10.4598  -19.8857   19.4594 C   0  0  1  0  0  0  0  0  0  0  0  0
   10.8901  -21.1821   20.1152 C   0  0  0  0  0  0  0  0  0  0  0  0
   10.5009  -21.2498   21.5695 C   0  0  0  0  0  0  0  0  0  0  0  0
   10.8944  -22.6404   22.0537 C   0  0  0  0  0  0  0  0  0  0  0  0
   10.4697  -22.8687   23.4838 C   0  0  0  0  0  0  0  0  0  0  0  0
   10.8991  -24.2000   23.8698 N   0  0  0  0  0  0  0  0  0  0  0  0
   11.2545  -18.8009   20.1403 C   0  0  0  0  0  0  0  0  0  0  0  0
   12.4180  -18.5776   19.7297 O   0  0  0  0  0  0  0  0  0  0  0  0
   10.5909  -15.9356   22.4234 C   0  0  0  0  0  0  0  0  0  0  0  0
   11.5008  -16.9334   21.7471 C   0  0  2  0  0  0  0  0  0  0  0  0
   10.7432  -18.0433   21.2032 N   0  0  0  0  0  0  0  0  0  0  0  0
   12.5327  -17.4589   22.6720 C   0  0  0  0  0  0  0  0  0  0  0  0
   12.4475  -18.6294   23.1202 O   0  0  0  0  0  0  0  0  0  0  0  0
   13.6195  -16.6992   23.0787 O   0  0  0  0  0  0  0  0  0  0  0  0
  2  1  1  0
  2  3  2  0
  4  2  1  0
  5  4  1  0
  6  5  1  0
  6  8  1  0
  6  7  1  6
  8  9  2  0
 10  8  1  0
 10 11  1  0
 11 17  1  0
 11 12  1  1
 12 13  1  0
 13 14  1  0
 14 15  1  0
 16 15  1  0
 17 18  2  0
 20 19  1  1
 21 20  1  0
 21 17  1  0
 22 24  1  0
 22 20  1  0
 23 22  2  0
M  END
$$$$
