QKA.pdb
     RDKit          3D

 24 23  0  0  1  0  0  0  0  0999 V2000
    8.0299  -13.1776   15.2028 N   0  0  0  0  0  0  0  0  0  0  0  0
    7.3877  -14.1653   15.9753 C   0  0  0  0  0  0  0  0  0  0  0  0
    7.4338  -15.3612   15.5859 O   0  0  0  0  0  0  0  0  0  0  0  0
    6.6632  -13.7850   17.2410 C   0  0  0  0  0  0  0  0  0  0  0  0
    7.5674  -12.9102   18.0641 C   0  0  0  0  0  0  0  0  0  0  0  0
    8.7707  -13.5882   18.6051 C   0  0  2  0  0  0  0  0  0  0  0  0
    9.3492  -14.3922   17.5452 N   0  0  0  0  0  0  0  0  0  0  0  0
    8.5347  -14.4553   19.7758 C   0  0  0  0  0  0  0  0  0  0  0  0
    7.8416  -14.1000   20.7638 O   0  0  0  0  0  0  0  0  0  0  0  0
    9.0896  -15.7785   19.8616 N   0  0  0  0  0  0  0  0  0  0  0  0
    8.7778  -16.7153   20.8913 C   0  0  1  0  0  0  0  0  0  0  0  0
    8.8460  -18.1577   20.4322 C   0  0  0  0  0  0  0  0  0  0  0  0
    8.4926  -19.1294   21.5287 C   0  0  0  0  0  0  0  0  0  0  0  0
    8.5566  -20.5191   20.9061 C   0  0  0  0  0  0  0  0  0  0  0  0
    8.2403  -21.5934   21.9179 C   0  0  0  0  0  0  0  0  0  0  0  0
    8.2987  -22.8754   21.2407 N   0  0  0  0  0  0  0  0  0  0  0  0
    9.8417  -16.5734   21.9494 C   0  0  0  0  0  0  0  0  0  0  0  0
   11.0132  -16.3262   21.5769 O   0  0  0  0  0  0  0  0  0  0  0  0
   10.0261  -16.0072   25.6107 C   0  0  0  0  0  0  0  0  0  0  0  0
   10.6104  -16.4813   24.3012 C   0  0  2  0  0  0  0  0  0  0  0  0
    9.5692  -16.7069   23.3180 N   0  0  0  0  0  0  0  0  0  0  0  0
   11.4000  -17.7249   24.4639 C   0  0  0  0  0  0  0  0  0  0  0  0
   10.8431  -18.8474   24.3745 O   0  0  0  0  0  0  0  0  0  0  0  0
   12.7635  -17.7092   24.7175 O   0  0  0  0  0  0  0  0  0  0  0  0
  2  1  1  0
  2  3  2  0
  4  2  1  0
  5  4  1  0
  6  5  1  0
  6  8  1  0
  6  7  1  6
  8  9  2  0
 10  8  1  0
 10 11  1  0
 11 17  1  0
 11 12  1  6
 12 13  1  0
 13 14  1  0
 14 15  1  0
 16 15  1  0
 17 18  2  0
 20 19  1  1
 21 20  1  0
 21 17  1  0
 22 24  1  0
 22 20  1  0
 23 22  2  0
M  END
$$$$
