QKA.pdb
     RDKit          3D

 24 23  0  0  1  0  0  0  0  0999 V2000
    9.5524  -12.5884   18.5141 N   0  0  0  0  0  0  0  0  0  0  0  0
    8.3909  -13.0531   17.8662 C   0  0  0  0  0  0  0  0  0  0  0  0
    8.1878  -12.7113   16.6721 O   0  0  0  0  0  0  0  0  0  0  0  0
    7.4184  -13.9413   18.5988 C   0  0  0  0  0  0  0  0  0  0  0  0
    7.9239  -14.1494   19.9994 C   0  0  0  0  0  0  0  0  0  0  0  0
    7.9339  -15.5602   20.4575 C   0  0  2  0  0  0  0  0  0  0  0  0
    7.2141  -16.3558   19.4810 N   0  0  0  0  0  0  0  0  0  0  0  0
    7.3375  -15.7971   21.7866 C   0  0  0  0  0  0  0  0  0  0  0  0
    6.0956  -15.8433   21.9827 O   0  0  0  0  0  0  0  0  0  0  0  0
    8.1496  -15.9926   22.9564 N   0  0  0  0  0  0  0  0  0  0  0  0
    7.6309  -16.2286   24.2643 C   0  0  1  0  0  0  0  0  0  0  0  0
    8.1870  -17.4790   24.9147 C   0  0  0  0  0  0  0  0  0  0  0  0
    7.6289  -18.7412   24.3093 C   0  0  0  0  0  0  0  0  0  0  0  0
    7.3663  -19.6931   25.4704 C   0  0  0  0  0  0  0  0  0  0  0  0
    6.6840  -20.9566   25.0060 C   0  0  0  0  0  0  0  0  0  0  0  0
    6.3050  -21.7173   26.1822 N   0  0  0  0  0  0  0  0  0  0  0  0
    8.0863  -15.0817   25.1296 C   0  0  0  0  0  0  0  0  0  0  0  0
    9.3182  -14.8663   25.2210 O   0  0  0  0  0  0  0  0  0  0  0  0
    6.5652  -12.2336   27.0360 C   0  0  0  0  0  0  0  0  0  0  0  0
    7.6807  -13.1815   26.6641 C   0  0  2  0  0  0  0  0  0  0  0  0
    7.1909  -14.2585   25.8265 N   0  0  0  0  0  0  0  0  0  0  0  0
    8.3393  -13.7592   27.8594 C   0  0  0  0  0  0  0  0  0  0  0  0
    8.9140  -13.0134   28.6911 O   0  0  0  0  0  0  0  0  0  0  0  0
    8.3525  -15.1229   28.1119 O   0  0  0  0  0  0  0  0  0  0  0  0
  2  1  1  0
  2  3  2  0
  4  2  1  0
  5  4  1  0
  6  5  1  0
  6  8  1  0
  6  7  1  6
  8  9  2  0
 10  8  1  0
 10 11  1  0
 11 17  1  0
 11 12  1  1
 12 13  1  0
 13 14  1  0
 14 15  1  0
 16 15  1  0
 17 18  2  0
 20 19  1  1
 21 20  1  0
 21 17  1  0
 22 24  1  0
 22 20  1  0
 23 22  2  0
M  END
$$$$
