QKA.pdb
     RDKit          3D

 24 23  0  0  1  0  0  0  0  0999 V2000
   17.2794  -16.8454   16.2346 N   0  0  0  0  0  0  0  0  0  0  0  0
   16.2968  -17.8308   16.4549 C   0  0  0  0  0  0  0  0  0  0  0  0
   16.4111  -18.5842   17.4565 O   0  0  0  0  0  0  0  0  0  0  0  0
   15.1367  -17.9702   15.5030 C   0  0  0  0  0  0  0  0  0  0  0  0
   14.3346  -19.1778   15.9018 C   0  0  0  0  0  0  0  0  0  0  0  0
   12.8960  -19.1185   15.5455 C   0  0  2  0  0  0  0  0  0  0  0  0
   12.7210  -18.0773   14.5505 N   0  0  0  0  0  0  0  0  0  0  0  0
   11.9771  -18.8521   16.6693 C   0  0  0  0  0  0  0  0  0  0  0  0
   11.2433  -17.8319   16.7283 O   0  0  0  0  0  0  0  0  0  0  0  0
   11.8616  -19.7542   17.7824 N   0  0  0  0  0  0  0  0  0  0  0  0
   10.9064  -19.6159   18.8330 C   0  0  1  0  0  0  0  0  0  0  0  0
   10.3285  -20.9373   19.2976 C   0  0  0  0  0  0  0  0  0  0  0  0
    9.2312  -20.7609   20.3155 C   0  0  0  0  0  0  0  0  0  0  0  0
    8.6931  -22.1560   20.6108 C   0  0  0  0  0  0  0  0  0  0  0  0
    7.5293  -22.1081   21.5705 C   0  0  0  0  0  0  0  0  0  0  0  0
    6.9967  -23.4522   21.6937 N   0  0  0  0  0  0  0  0  0  0  0  0
   11.6413  -19.0517   20.0217 C   0  0  0  0  0  0  0  0  0  0  0  0
   12.8471  -19.3619   20.1698 O   0  0  0  0  0  0  0  0  0  0  0  0
   10.9803  -16.6130   22.8056 C   0  0  0  0  0  0  0  0  0  0  0  0
   11.8015  -17.6193   22.0349 C   0  0  2  0  0  0  0  0  0  0  0  0
   11.0301  -18.2028   20.9551 N   0  0  0  0  0  0  0  0  0  0  0  0
   12.3108  -18.7041   22.9070 C   0  0  0  0  0  0  0  0  0  0  0  0
   11.6282  -19.7418   23.0948 O   0  0  0  0  0  0  0  0  0  0  0  0
   13.5402  -18.6269   23.5444 O   0  0  0  0  0  0  0  0  0  0  0  0
  2  1  1  0
  2  3  2  0
  4  2  1  0
  5  4  1  0
  6  5  1  0
  6  8  1  0
  6  7  1  6
  8  9  2  0
 10  8  1  0
 10 11  1  0
 11 17  1  0
 11 12  1  1
 12 13  1  0
 13 14  1  0
 14 15  1  0
 16 15  1  0
 17 18  2  0
 20 19  1  1
 21 20  1  0
 21 17  1  0
 22 24  1  0
 22 20  1  0
 23 22  2  0
M  END
$$$$
