QKA.pdb
     RDKit          3D

 24 23  0  0  1  0  0  0  0  0999 V2000
    9.5043  -20.1611   20.7146 N   0  0  0  0  0  0  0  0  0  0  0  0
    9.1674  -19.9789   19.3588 C   0  0  0  0  0  0  0  0  0  0  0  0
    8.6406  -20.9358   18.7337 O   0  0  0  0  0  0  0  0  0  0  0  0
    9.4375  -18.6599   18.6814 C   0  0  0  0  0  0  0  0  0  0  0  0
   10.0255  -17.7156   19.6928 C   0  0  0  0  0  0  0  0  0  0  0  0
    9.0751  -16.7197   20.2451 C   0  0  2  0  0  0  0  0  0  0  0  0
    8.9311  -15.6493   19.2764 N   0  0  0  0  0  0  0  0  0  0  0  0
    9.4608  -16.1297   21.5418 C   0  0  0  0  0  0  0  0  0  0  0  0
   10.6252  -16.2082   22.0118 O   0  0  0  0  0  0  0  0  0  0  0  0
    8.5171  -15.4186   22.3602 N   0  0  0  0  0  0  0  0  0  0  0  0
    8.8251  -14.8487   23.6313 C   0  0  1  0  0  0  0  0  0  0  0  0
    7.7170  -13.9743   24.1822 C   0  0  0  0  0  0  0  0  0  0  0  0
    7.9905  -13.5161   25.5916 C   0  0  0  0  0  0  0  0  0  0  0  0
    6.8108  -12.6384   25.9930 C   0  0  0  0  0  0  0  0  0  0  0  0
    6.9203  -12.1878   27.4291 C   0  0  0  0  0  0  0  0  0  0  0  0
    5.6873  -11.5070   27.7785 N   0  0  0  0  0  0  0  0  0  0  0  0
    8.9627  -15.9929   24.6026 C   0  0  0  0  0  0  0  0  0  0  0  0
    7.9763  -16.7500   24.7638 O   0  0  0  0  0  0  0  0  0  0  0  0
   11.1931  -18.4024   25.7143 C   0  0  0  0  0  0  0  0  0  0  0  0
   10.2288  -17.3615   26.2317 C   0  0  2  0  0  0  0  0  0  0  0  0
   10.1408  -16.2359   25.3223 N   0  0  0  0  0  0  0  0  0  0  0  0
   10.6128  -16.8690   27.5757 C   0  0  0  0  0  0  0  0  0  0  0  0
   10.9107  -15.6609   27.7486 O   0  0  0  0  0  0  0  0  0  0  0  0
   10.6608  -17.7013   28.6842 O   0  0  0  0  0  0  0  0  0  0  0  0
  2  1  1  0
  2  3  2  0
  4  2  1  0
  5  4  1  0
  6  5  1  0
  6  8  1  0
  6  7  1  6
  8  9  2  0
 10  8  1  0
 10 11  1  0
 11 17  1  0
 11 12  1  1
 12 13  1  0
 13 14  1  0
 14 15  1  0
 16 15  1  0
 17 18  2  0
 20 19  1  6
 21 20  1  0
 21 17  1  0
 22 24  1  0
 22 20  1  0
 23 22  2  0
M  END
$$$$
