QKA.pdb
     RDKit          3D

 24 23  0  0  1  0  0  0  0  0999 V2000
    7.2176  -13.6903   16.7202 N   0  0  0  0  0  0  0  0  0  0  0  0
    8.0932  -13.7172   17.8236 C   0  0  0  0  0  0  0  0  0  0  0  0
    9.0333  -14.5540   17.8282 O   0  0  0  0  0  0  0  0  0  0  0  0
    7.8978  -12.7581   18.9696 C   0  0  0  0  0  0  0  0  0  0  0  0
    7.3644  -13.5248   20.1479 C   0  0  0  0  0  0  0  0  0  0  0  0
    8.3993  -14.0618   21.0648 C   0  0  2  0  0  0  0  0  0  0  0  0
    9.0241  -15.2016   20.4206 N   0  0  0  0  0  0  0  0  0  0  0  0
    7.9103  -14.4833   22.3920 C   0  0  0  0  0  0  0  0  0  0  0  0
    7.1687  -13.7638   23.1099 O   0  0  0  0  0  0  0  0  0  0  0  0
    8.2554  -15.7599   22.9552 N   0  0  0  0  0  0  0  0  0  0  0  0
    7.8767  -16.1906   24.2615 C   0  0  1  0  0  0  0  0  0  0  0  0
    7.9868  -17.6893   24.4556 C   0  0  0  0  0  0  0  0  0  0  0  0
    7.6666  -18.1134   25.8659 C   0  0  0  0  0  0  0  0  0  0  0  0
    7.6930  -19.6373   25.8711 C   0  0  0  0  0  0  0  0  0  0  0  0
    7.2408  -20.1937   27.1991 C   0  0  0  0  0  0  0  0  0  0  0  0
    7.2254  -21.6409   27.0948 N   0  0  0  0  0  0  0  0  0  0  0  0
    8.8612  -15.5810   25.2263 C   0  0  0  0  0  0  0  0  0  0  0  0
   10.0839  -15.7136   24.9820 O   0  0  0  0  0  0  0  0  0  0  0  0
    8.9234  -12.9388   27.7771 C   0  0  0  0  0  0  0  0  0  0  0  0
    9.4449  -14.2455   27.2278 C   0  0  2  0  0  0  0  0  0  0  0  0
    8.4613  -14.8800   26.3725 N   0  0  0  0  0  0  0  0  0  0  0  0
    9.8279  -15.1871   28.3062 C   0  0  0  0  0  0  0  0  0  0  0  0
   10.6986  -14.8642   29.1522 O   0  0  0  0  0  0  0  0  0  0  0  0
    9.2550  -16.4441   28.4306 O   0  0  0  0  0  0  0  0  0  0  0  0
  2  1  1  0
  2  3  2  0
  4  2  1  0
  5  4  1  0
  6  5  1  0
  6  8  1  0
  6  7  1  6
  8  9  2  0
 10  8  1  0
 10 11  1  0
 11 17  1  0
 11 12  1  6
 12 13  1  0
 13 14  1  0
 14 15  1  0
 16 15  1  0
 17 18  2  0
 20 19  1  1
 21 20  1  0
 21 17  1  0
 22 24  1  0
 22 20  1  0
 23 22  2  0
M  END
$$$$
