GQR.pdb
     RDKit          3D

 25 24  0  0  1  0  0  0  0  0999 V2000
    4.4633  -19.4795   22.8730 N   0  0  0  0  0  0  0  0  0  0  0  0
    4.5784  -18.0186   22.8100 C   0  0  0  0  0  0  0  0  0  0  0  0
    5.9344  -17.6568   22.2944 C   0  0  0  0  0  0  0  0  0  0  0  0
    6.7806  -18.5438   22.1070 O   0  0  0  0  0  0  0  0  0  0  0  0
    6.7856  -12.7602   18.7914 N   0  0  0  0  0  0  0  0  0  0  0  0
    8.0950  -13.2649   18.7951 C   0  0  0  0  0  0  0  0  0  0  0  0
    8.9123  -12.9921   17.9071 O   0  0  0  0  0  0  0  0  0  0  0  0
    8.5065  -14.1705   19.9268 C   0  0  0  0  0  0  0  0  0  0  0  0
    7.2991  -14.6216   20.6743 C   0  0  0  0  0  0  0  0  0  0  0  0
    7.5177  -15.8424   21.4944 C   0  0  2  0  0  0  0  0  0  0  0  0
    6.2248  -16.3044   22.0304 N   0  0  0  0  0  0  0  0  0  0  0  0
    8.4229  -15.7119   22.6427 C   0  0  0  0  0  0  0  0  0  0  0  0
    7.9406  -15.3490   23.7723 O   0  0  0  0  0  0  0  0  0  0  0  0
   11.4260  -20.4137   28.4298 N   0  0  0  0  0  0  0  0  0  0  0  0
   10.4777  -19.4624   28.9587 C   0  0  0  0  0  0  0  0  0  0  0  0
   10.2664  -19.4071   30.2087 N   0  0  0  0  0  0  0  0  0  0  0  0
    9.8135  -18.6189   28.0343 N   0  0  0  0  0  0  0  0  0  0  0  0
    9.9131  -18.8296   26.5997 C   0  0  0  0  0  0  0  0  0  0  0  0
   10.4639  -17.6450   25.9160 C   0  0  0  0  0  0  0  0  0  0  0  0
   10.0055  -17.2126   24.6050 C   0  0  0  0  0  0  0  0  0  0  0  0
   10.5835  -16.0329   23.8999 C   0  0  2  0  0  0  0  0  0  0  0  0
    9.7995  -15.9639   22.6069 N   0  0  0  0  0  0  0  0  0  0  0  0
   11.9954  -16.1210   23.4933 C   0  0  0  0  0  0  0  0  0  0  0  0
   12.3810  -16.6119   22.4251 O   0  0  0  0  0  0  0  0  0  0  0  0
   12.9920  -15.6222   24.3530 O   0  0  0  0  0  0  0  0  0  0  0  0
  2  1  1  0
  3  4  2  0
  3  2  1  0
  5  6  1  0
  6  7  2  0
  8  6  1  0
  8  9  1  0
 10  9  1  1
 10 12  1  0
 10 11  1  0
 11  3  1  0
 12 22  1  0
 13 12  2  0
 15 14  1  0
 16 15  2  0
 17 15  1  0
 18 19  1  0
 18 17  1  0
 20 19  1  0
 21 20  1  6
 22 21  1  0
 23 25  1  0
 23 21  1  0
 24 23  2  0
M  END
$$$$
