GQR.pdb
     RDKit          3D

 25 24  0  0  1  0  0  0  0  0999 V2000
    8.4783  -13.7513   16.9209 N   0  0  0  0  0  0  0  0  0  0  0  0
    8.0711  -14.6682   17.9908 C   0  0  0  0  0  0  0  0  0  0  0  0
    9.0002  -14.5090   19.1513 C   0  0  0  0  0  0  0  0  0  0  0  0
   10.0131  -13.8025   19.0388 O   0  0  0  0  0  0  0  0  0  0  0  0
    6.6611  -13.7562   25.2784 N   0  0  0  0  0  0  0  0  0  0  0  0
    6.8058  -14.7255   24.2740 C   0  0  0  0  0  0  0  0  0  0  0  0
    6.3458  -15.8687   24.3859 O   0  0  0  0  0  0  0  0  0  0  0  0
    7.5503  -14.3467   23.0200 C   0  0  0  0  0  0  0  0  0  0  0  0
    8.6399  -15.3307   22.7656 C   0  0  0  0  0  0  0  0  0  0  0  0
    9.4908  -14.9994   21.5922 C   0  0  2  0  0  0  0  0  0  0  0  0
    8.7032  -15.1709   20.3583 N   0  0  0  0  0  0  0  0  0  0  0  0
   10.7141  -15.7924   21.4200 C   0  0  0  0  0  0  0  0  0  0  0  0
   10.6191  -16.9844   20.9614 O   0  0  0  0  0  0  0  0  0  0  0  0
   14.4023  -15.7026   16.7008 N   0  0  0  0  0  0  0  0  0  0  0  0
   15.2541  -14.5379   16.7425 C   0  0  0  0  0  0  0  0  0  0  0  0
   16.1296  -14.3612   15.8411 N   0  0  0  0  0  0  0  0  0  0  0  0
   15.0671  -13.6294   17.8135 N   0  0  0  0  0  0  0  0  0  0  0  0
   15.3216  -14.0113   19.1925 C   0  0  0  0  0  0  0  0  0  0  0  0
   14.3191  -14.9763   19.6802 C   0  0  0  0  0  0  0  0  0  0  0  0
   14.2772  -15.4330   21.0606 C   0  0  0  0  0  0  0  0  0  0  0  0
   13.1788  -16.2905   21.5910 C   0  0  2  0  0  0  0  0  0  0  0  0
   12.0062  -15.3414   21.7150 N   0  0  0  0  0  0  0  0  0  0  0  0
   13.3624  -16.8583   22.9365 C   0  0  0  0  0  0  0  0  0  0  0  0
   12.8953  -16.3622   23.9692 O   0  0  0  0  0  0  0  0  0  0  0  0
   14.1108  -18.0406   23.0888 O   0  0  0  0  0  0  0  0  0  0  0  0
  2  1  1  0
  3  4  2  0
  3  2  1  0
  5  6  1  0
  6  7  2  0
  8  6  1  0
  8  9  1  0
 10  9  1  1
 10 12  1  0
 10 11  1  0
 11  3  1  0
 12 22  1  0
 13 12  2  0
 15 14  1  0
 16 15  2  0
 17 15  1  0
 18 19  1  0
 18 17  1  0
 20 19  1  0
 21 20  1  1
 22 21  1  0
 23 25  1  0
 23 21  1  0
 24 23  2  0
M  END
$$$$
