GQR.pdb
     RDKit          3D

 25 24  0  0  1  0  0  0  0  0999 V2000
   12.2627  -24.9780   24.5404 N   0  0  0  0  0  0  0  0  0  0  0  0
   12.9775  -23.8019   25.0475 C   0  0  0  0  0  0  0  0  0  0  0  0
   13.3154  -24.0184   26.4878 C   0  0  0  0  0  0  0  0  0  0  0  0
   12.5521  -24.6786   27.2086 O   0  0  0  0  0  0  0  0  0  0  0  0
   19.0999  -23.6858   28.4989 N   0  0  0  0  0  0  0  0  0  0  0  0
   18.4865  -23.8944   29.7437 C   0  0  0  0  0  0  0  0  0  0  0  0
   19.1372  -24.0620   30.7827 O   0  0  0  0  0  0  0  0  0  0  0  0
   16.9810  -23.9129   29.8022 C   0  0  0  0  0  0  0  0  0  0  0  0
   16.4216  -23.5886   28.4598 C   0  0  0  0  0  0  0  0  0  0  0  0
   14.9364  -23.6243   28.3999 C   0  0  2  0  0  0  0  0  0  0  0  0
   14.5036  -23.4629   27.0002 N   0  0  0  0  0  0  0  0  0  0  0  0
   14.2206  -22.6060   29.1781 C   0  0  0  0  0  0  0  0  0  0  0  0
   14.0994  -21.4276   28.6914 O   0  0  0  0  0  0  0  0  0  0  0  0
    8.1199  -24.9242   34.8690 N   0  0  0  0  0  0  0  0  0  0  0  0
    8.5616  -25.5582   33.6496 C   0  0  0  0  0  0  0  0  0  0  0  0
    8.2590  -26.7689   33.4198 N   0  0  0  0  0  0  0  0  0  0  0  0
    9.3303  -24.7795   32.7495 N   0  0  0  0  0  0  0  0  0  0  0  0
   10.4446  -23.9643   33.2039 C   0  0  0  0  0  0  0  0  0  0  0  0
   11.0890  -23.2560   32.0827 C   0  0  0  0  0  0  0  0  0  0  0  0
   12.2201  -22.3603   32.2677 C   0  0  0  0  0  0  0  0  0  0  0  0
   12.9115  -21.6921   31.1281 C   0  0  2  0  0  0  0  0  0  0  0  0
   13.6397  -22.8226   30.4333 N   0  0  0  0  0  0  0  0  0  0  0  0
   13.9527  -20.7066   31.4613 C   0  0  0  0  0  0  0  0  0  0  0  0
   15.1564  -20.9750   31.5607 O   0  0  0  0  0  0  0  0  0  0  0  0
   13.5861  -19.3662   31.6849 O   0  0  0  0  0  0  0  0  0  0  0  0
  2  1  1  0
  3  4  2  0
  3  2  1  0
  5  6  1  0
  6  7  2  0
  8  6  1  0
  8  9  1  0
 10  9  1  6
 10 12  1  0
 10 11  1  0
 11  3  1  0
 12 22  1  0
 13 12  2  0
 15 14  1  0
 16 15  2  0
 17 15  1  0
 18 19  1  0
 18 17  1  0
 20 19  1  0
 21 20  1  1
 22 21  1  0
 23 25  1  0
 23 21  1  0
 24 23  2  0
M  END
$$$$
