GQR.pdb
     RDKit          3D

 25 24  0  0  1  0  0  0  0  0999 V2000
   10.2012  -19.1577   16.6249 N   0  0  0  0  0  0  0  0  0  0  0  0
    9.3057  -18.7432   17.7102 C   0  0  0  0  0  0  0  0  0  0  0  0
    9.9881  -17.7001   18.5358 C   0  0  0  0  0  0  0  0  0  0  0  0
   11.2248  -17.6969   18.6276 O   0  0  0  0  0  0  0  0  0  0  0  0
    6.7763  -12.7730   20.4474 N   0  0  0  0  0  0  0  0  0  0  0  0
    7.2469  -12.9082   19.1323 C   0  0  0  0  0  0  0  0  0  0  0  0
    6.7670  -12.2683   18.1882 O   0  0  0  0  0  0  0  0  0  0  0  0
    8.3771  -13.8708   18.8752 C   0  0  0  0  0  0  0  0  0  0  0  0
    8.7473  -14.5616   20.1425 C   0  0  0  0  0  0  0  0  0  0  0  0
    9.7775  -15.6205   19.9744 C   0  0  2  0  0  0  0  0  0  0  0  0
    9.2052  -16.7348   19.1978 N   0  0  0  0  0  0  0  0  0  0  0  0
   10.3269  -16.2068   21.2030 C   0  0  0  0  0  0  0  0  0  0  0  0
    9.6698  -17.1343   21.7932 O   0  0  0  0  0  0  0  0  0  0  0  0
   13.9616  -20.9193   19.1117 N   0  0  0  0  0  0  0  0  0  0  0  0
   15.1597  -20.3927   19.7210 C   0  0  0  0  0  0  0  0  0  0  0  0
   16.2496  -20.3850   19.0714 N   0  0  0  0  0  0  0  0  0  0  0  0
   15.0571  -19.9004   21.0456 N   0  0  0  0  0  0  0  0  0  0  0  0
   13.8846  -20.1541   21.8662 C   0  0  0  0  0  0  0  0  0  0  0  0
   13.4828  -18.9530   22.6213 C   0  0  0  0  0  0  0  0  0  0  0  0
   12.6672  -17.8980   22.0401 C   0  0  0  0  0  0  0  0  0  0  0  0
   12.1784  -16.7320   22.8302 C   0  0  2  0  0  0  0  0  0  0  0  0
   11.5404  -15.8333   21.7927 N   0  0  0  0  0  0  0  0  0  0  0  0
   13.1945  -15.8987   23.4932 C   0  0  0  0  0  0  0  0  0  0  0  0
   13.6709  -14.8658   23.0064 O   0  0  0  0  0  0  0  0  0  0  0  0
   13.6725  -16.2749   24.7625 O   0  0  0  0  0  0  0  0  0  0  0  0
  2  1  1  0
  3  4  2  0
  3  2  1  0
  5  6  1  0
  6  7  2  0
  8  6  1  0
  8  9  1  0
 10  9  1  1
 10 12  1  0
 10 11  1  0
 11  3  1  0
 12 22  1  0
 13 12  2  0
 15 14  1  0
 16 15  2  0
 17 15  1  0
 18 19  1  0
 18 17  1  0
 20 19  1  0
 21 20  1  6
 22 21  1  0
 23 25  1  0
 23 21  1  0
 24 23  2  0
M  END
$$$$
