GQR.pdb
     RDKit          3D

 25 24  0  0  1  0  0  0  0  0999 V2000
    8.5670  -18.2932   16.9604 N   0  0  0  0  0  0  0  0  0  0  0  0
    7.6894  -17.4149   17.7412 C   0  0  0  0  0  0  0  0  0  0  0  0
    8.5157  -16.6393   18.7163 C   0  0  0  0  0  0  0  0  0  0  0  0
    9.7470  -16.7858   18.7359 O   0  0  0  0  0  0  0  0  0  0  0  0
    9.9718  -12.0304   19.9419 N   0  0  0  0  0  0  0  0  0  0  0  0
    8.9603  -12.4806   19.0796 C   0  0  0  0  0  0  0  0  0  0  0  0
    9.1322  -12.5938   17.8596 O   0  0  0  0  0  0  0  0  0  0  0  0
    7.6221  -12.8348   19.6745 C   0  0  0  0  0  0  0  0  0  0  0  0
    7.8172  -13.7005   20.8715 C   0  0  0  0  0  0  0  0  0  0  0  0
    8.5909  -14.9408   20.6000 C   0  0  2  0  0  0  0  0  0  0  0  0
    7.8729  -15.7511   19.5999 N   0  0  0  0  0  0  0  0  0  0  0  0
    8.8467  -15.8224   21.7457 C   0  0  0  0  0  0  0  0  0  0  0  0
    8.0405  -16.7914   21.9725 O   0  0  0  0  0  0  0  0  0  0  0  0
   11.4688  -19.2705   17.6451 N   0  0  0  0  0  0  0  0  0  0  0  0
   11.4294  -20.3320   18.6227 C   0  0  0  0  0  0  0  0  0  0  0  0
   10.7178  -21.3612   18.4116 N   0  0  0  0  0  0  0  0  0  0  0  0
   12.2043  -20.1676   19.7974 N   0  0  0  0  0  0  0  0  0  0  0  0
   12.7574  -18.8773   20.1733 C   0  0  0  0  0  0  0  0  0  0  0  0
   12.2513  -18.4333   21.4852 C   0  0  0  0  0  0  0  0  0  0  0  0
   11.3100  -17.3340   21.6311 C   0  0  0  0  0  0  0  0  0  0  0  0
   10.7757  -16.9033   22.9548 C   0  0  2  0  0  0  0  0  0  0  0  0
    9.9270  -15.6936   22.6266 N   0  0  0  0  0  0  0  0  0  0  0  0
   11.7524  -16.4334   23.9507 C   0  0  0  0  0  0  0  0  0  0  0  0
   12.2938  -15.3212   23.9212 O   0  0  0  0  0  0  0  0  0  0  0  0
   12.1117  -17.2803   25.0159 O   0  0  0  0  0  0  0  0  0  0  0  0
  2  1  1  0
  3  4  2  0
  3  2  1  0
  5  6  1  0
  6  7  2  0
  8  6  1  0
  8  9  1  0
 10  9  1  1
 10 12  1  0
 10 11  1  0
 11  3  1  0
 12 22  1  0
 13 12  2  0
 15 14  1  0
 16 15  2  0
 17 15  1  0
 18 19  1  0
 18 17  1  0
 20 19  1  0
 21 20  1  6
 22 21  1  0
 23 25  1  0
 23 21  1  0
 24 23  2  0
M  END
$$$$
