GQR.pdb
     RDKit          3D

 25 24  0  0  1  0  0  0  0  0999 V2000
   10.2613  -25.3425   18.8661 N   0  0  0  0  0  0  0  0  0  0  0  0
   10.2804  -23.8934   18.6399 C   0  0  0  0  0  0  0  0  0  0  0  0
   11.6948  -23.4106   18.6813 C   0  0  0  0  0  0  0  0  0  0  0  0
   12.5149  -23.9652   19.4282 O   0  0  0  0  0  0  0  0  0  0  0  0
   13.8076  -19.4709   14.3682 N   0  0  0  0  0  0  0  0  0  0  0  0
   14.9940  -19.6053   15.1056 C   0  0  0  0  0  0  0  0  0  0  0  0
   16.0605  -19.0931   14.7433 O   0  0  0  0  0  0  0  0  0  0  0  0
   14.9529  -20.4048   16.3821 C   0  0  0  0  0  0  0  0  0  0  0  0
   13.5691  -20.9042   16.6183 C   0  0  0  0  0  0  0  0  0  0  0  0
   13.4422  -21.7939   17.8028 C   0  0  2  0  0  0  0  0  0  0  0  0
   12.0693  -22.3265   17.8643 N   0  0  0  0  0  0  0  0  0  0  0  0
   13.7147  -21.1902   19.1129 C   0  0  0  0  0  0  0  0  0  0  0  0
   12.8014  -20.4880   19.6724 O   0  0  0  0  0  0  0  0  0  0  0  0
   13.2565  -24.3461   26.6361 N   0  0  0  0  0  0  0  0  0  0  0  0
   12.7419  -24.2132   25.2939 C   0  0  0  0  0  0  0  0  0  0  0  0
   11.8555  -25.0177   24.8730 N   0  0  0  0  0  0  0  0  0  0  0  0
   13.2654  -23.1675   24.4939 N   0  0  0  0  0  0  0  0  0  0  0  0
   14.6833  -22.8484   24.4859 C   0  0  0  0  0  0  0  0  0  0  0  0
   14.9827  -21.7389   23.5621 C   0  0  0  0  0  0  0  0  0  0  0  0
   14.7656  -21.8335   22.1269 C   0  0  0  0  0  0  0  0  0  0  0  0
   15.0503  -20.7053   21.1945 C   0  0  2  0  0  0  0  0  0  0  0  0
   14.9144  -21.3274   19.8212 N   0  0  0  0  0  0  0  0  0  0  0  0
   16.4061  -20.1336   21.2291 C   0  0  0  0  0  0  0  0  0  0  0  0
   16.8906  -19.5542   22.2091 O   0  0  0  0  0  0  0  0  0  0  0  0
   17.2271  -20.2386   20.0906 O   0  0  0  0  0  0  0  0  0  0  0  0
  2  1  1  0
  3  4  2  0
  3  2  1  0
  5  6  1  0
  6  7  2  0
  8  6  1  0
  8  9  1  0
 10  9  1  6
 10 12  1  0
 10 11  1  0
 11  3  1  0
 12 22  1  0
 13 12  2  0
 15 14  1  0
 16 15  2  0
 17 15  1  0
 18 19  1  0
 18 17  1  0
 20 19  1  0
 21 20  1  1
 22 21  1  0
 23 25  1  0
 23 21  1  0
 24 23  2  0
M  END
$$$$
