GQR.pdb
     RDKit          3D

 25 24  0  0  1  0  0  0  0  0999 V2000
    6.3825  -21.8969   26.3306 N   0  0  0  0  0  0  0  0  0  0  0  0
    7.3582  -21.1498   27.1313 C   0  0  0  0  0  0  0  0  0  0  0  0
    7.4466  -19.7500   26.6135 C   0  0  0  0  0  0  0  0  0  0  0  0
    6.6938  -19.3811   25.6997 O   0  0  0  0  0  0  0  0  0  0  0  0
   10.1326  -15.1447   29.7365 N   0  0  0  0  0  0  0  0  0  0  0  0
    9.9841  -14.4788   28.5102 C   0  0  0  0  0  0  0  0  0  0  0  0
   10.2418  -13.2763   28.3743 O   0  0  0  0  0  0  0  0  0  0  0  0
    9.4919  -15.2688   27.3254 C   0  0  0  0  0  0  0  0  0  0  0  0
    9.1238  -16.6465   27.7574 C   0  0  0  0  0  0  0  0  0  0  0  0
    8.6657  -17.5248   26.6486 C   0  0  2  0  0  0  0  0  0  0  0  0
    8.3914  -18.8723   27.1792 N   0  0  0  0  0  0  0  0  0  0  0  0
    9.5899  -17.7002   25.5216 C   0  0  0  0  0  0  0  0  0  0  0  0
   10.6050  -18.4673   25.6678 O   0  0  0  0  0  0  0  0  0  0  0  0
    8.0059  -13.6757   18.0787 N   0  0  0  0  0  0  0  0  0  0  0  0
    8.0475  -12.9456   19.3234 C   0  0  0  0  0  0  0  0  0  0  0  0
    7.6716  -11.7342   19.3597 N   0  0  0  0  0  0  0  0  0  0  0  0
    8.5183  -13.6335   20.4691 N   0  0  0  0  0  0  0  0  0  0  0  0
    9.0251  -14.9933   20.3891 C   0  0  0  0  0  0  0  0  0  0  0  0
    9.4188  -15.5025   21.7157 C   0  0  0  0  0  0  0  0  0  0  0  0
    9.8068  -16.8862   21.9407 C   0  0  0  0  0  0  0  0  0  0  0  0
   10.4800  -17.3393   23.1916 C   0  0  2  0  0  0  0  0  0  0  0  0
    9.4467  -17.0908   24.2694 N   0  0  0  0  0  0  0  0  0  0  0  0
   11.6737  -16.5914   23.6185 C   0  0  0  0  0  0  0  0  0  0  0  0
   12.7181  -16.5157   22.9596 O   0  0  0  0  0  0  0  0  0  0  0  0
   11.6546  -15.9080   24.8489 O   0  0  0  0  0  0  0  0  0  0  0  0
  2  1  1  0
  3  4  2  0
  3  2  1  0
  5  6  1  0
  6  7  2  0
  8  6  1  0
  8  9  1  0
 10  9  1  1
 10 12  1  0
 10 11  1  0
 11  3  1  0
 12 22  1  0
 13 12  2  0
 15 14  1  0
 16 15  2  0
 17 15  1  0
 18 19  1  0
 18 17  1  0
 20 19  1  0
 21 20  1  6
 22 21  1  0
 23 25  1  0
 23 21  1  0
 24 23  2  0
M  END
$$$$
