GQR.pdb
     RDKit          3D

 25 24  0  0  1  0  0  0  0  0999 V2000
   10.5011  -12.0392   27.9090 N   0  0  0  0  0  0  0  0  0  0  0  0
   11.4824  -13.0760   27.5718 C   0  0  0  0  0  0  0  0  0  0  0  0
   10.8232  -14.4159   27.6457 C   0  0  0  0  0  0  0  0  0  0  0  0
    9.6271  -14.4988   27.9625 O   0  0  0  0  0  0  0  0  0  0  0  0
   10.9809  -18.6745   23.5840 N   0  0  0  0  0  0  0  0  0  0  0  0
   12.1594  -17.9769   23.8903 C   0  0  0  0  0  0  0  0  0  0  0  0
   13.0847  -17.8518   23.0786 O   0  0  0  0  0  0  0  0  0  0  0  0
   12.2889  -17.3638   25.2606 C   0  0  0  0  0  0  0  0  0  0  0  0
   10.9875  -17.4605   25.9798 C   0  0  0  0  0  0  0  0  0  0  0  0
   11.0241  -16.9301   27.3683 C   0  0  2  0  0  0  0  0  0  0  0  0
   11.5812  -15.5657   27.3517 N   0  0  0  0  0  0  0  0  0  0  0  0
   11.8136  -17.6914   28.3442 C   0  0  0  0  0  0  0  0  0  0  0  0
   13.0768  -17.4907   28.4091 O   0  0  0  0  0  0  0  0  0  0  0  0
    8.8491  -16.3701   35.2076 N   0  0  0  0  0  0  0  0  0  0  0  0
   10.0895  -15.7028   34.8913 C   0  0  0  0  0  0  0  0  0  0  0  0
   10.3781  -14.6028   35.4541 N   0  0  0  0  0  0  0  0  0  0  0  0
   10.9424  -16.3230   33.9450 N   0  0  0  0  0  0  0  0  0  0  0  0
   10.5717  -17.5598   33.2777 C   0  0  0  0  0  0  0  0  0  0  0  0
   11.6469  -18.0382   32.3893 C   0  0  0  0  0  0  0  0  0  0  0  0
   11.4912  -19.1966   31.5235 C   0  0  0  0  0  0  0  0  0  0  0  0
   12.2036  -19.3282   30.2204 C   0  0  2  0  0  0  0  0  0  0  0  0
   11.2876  -18.6344   29.2351 N   0  0  0  0  0  0  0  0  0  0  0  0
   12.3842  -20.6893   29.6901 C   0  0  0  0  0  0  0  0  0  0  0  0
   11.6349  -21.2154   28.8579 O   0  0  0  0  0  0  0  0  0  0  0  0
   13.4698  -21.4648   30.1386 O   0  0  0  0  0  0  0  0  0  0  0  0
  2  1  1  0
  3  4  2  0
  3  2  1  0
  5  6  1  0
  6  7  2  0
  8  6  1  0
  8  9  1  0
 10  9  1  6
 10 12  1  0
 10 11  1  0
 11  3  1  0
 12 22  1  0
 13 12  2  0
 15 14  1  0
 16 15  2  0
 17 15  1  0
 18 19  1  0
 18 17  1  0
 20 19  1  0
 21 20  1  1
 22 21  1  0
 23 25  1  0
 23 21  1  0
 24 23  2  0
M  END
$$$$
