GQR.pdb
     RDKit          3D

 25 24  0  0  1  0  0  0  0  0999 V2000
    4.6737  -25.0416   21.5245 N   0  0  0  0  0  0  0  0  0  0  0  0
    5.8189  -25.2318   22.4209 C   0  0  0  0  0  0  0  0  0  0  0  0
    5.9658  -24.0239   23.2897 C   0  0  0  0  0  0  0  0  0  0  0  0
    5.2994  -23.0060   23.0496 O   0  0  0  0  0  0  0  0  0  0  0  0
    4.5659  -23.5742   29.2344 N   0  0  0  0  0  0  0  0  0  0  0  0
    5.7060  -23.1934   28.5101 C   0  0  0  0  0  0  0  0  0  0  0  0
    6.4302  -22.2536   28.8613 O   0  0  0  0  0  0  0  0  0  0  0  0
    6.0483  -23.9651   27.2621 C   0  0  0  0  0  0  0  0  0  0  0  0
    7.2926  -23.4139   26.6554 C   0  0  0  0  0  0  0  0  0  0  0  0
    7.1187  -22.9216   25.2632 C   0  0  2  0  0  0  0  0  0  0  0  0
    6.8660  -24.0678   24.3717 N   0  0  0  0  0  0  0  0  0  0  0  0
    8.2438  -22.1800   24.6808 C   0  0  0  0  0  0  0  0  0  0  0  0
    9.2213  -22.8354   24.1757 O   0  0  0  0  0  0  0  0  0  0  0  0
    5.2345  -19.4141   20.1118 N   0  0  0  0  0  0  0  0  0  0  0  0
    6.2869  -18.9675   19.2302 C   0  0  0  0  0  0  0  0  0  0  0  0
    6.1946  -19.1694   17.9809 N   0  0  0  0  0  0  0  0  0  0  0  0
    7.3971  -18.3120   19.8176 N   0  0  0  0  0  0  0  0  0  0  0  0
    7.5072  -18.1364   21.2562 C   0  0  0  0  0  0  0  0  0  0  0  0
    8.5812  -18.9731   21.8225 C   0  0  0  0  0  0  0  0  0  0  0  0
    8.9219  -18.9603   23.2365 C   0  0  0  0  0  0  0  0  0  0  0  0
    9.5165  -20.1381   23.9310 C   0  0  2  0  0  0  0  0  0  0  0  0
    8.3359  -20.7843   24.6236 N   0  0  0  0  0  0  0  0  0  0  0  0
   10.4908  -19.8639   24.9998 C   0  0  0  0  0  0  0  0  0  0  0  0
   11.6829  -19.5987   24.8013 O   0  0  0  0  0  0  0  0  0  0  0  0
   10.0684  -19.8971   26.3420 O   0  0  0  0  0  0  0  0  0  0  0  0
  2  1  1  0
  3  4  2  0
  3  2  1  0
  5  6  1  0
  6  7  2  0
  8  6  1  0
  8  9  1  0
 10  9  1  1
 10 12  1  0
 10 11  1  0
 11  3  1  0
 12 22  1  0
 13 12  2  0
 15 14  1  0
 16 15  2  0
 17 15  1  0
 18 19  1  0
 18 17  1  0
 20 19  1  0
 21 20  1  1
 22 21  1  0
 23 25  1  0
 23 21  1  0
 24 23  2  0
M  END
$$$$
