GQR.pdb
     RDKit          3D

 25 24  0  0  1  0  0  0  0  0999 V2000
    2.6972  -20.6963   21.7726 N   0  0  0  0  0  0  0  0  0  0  0  0
    2.9888  -22.0309   21.2386 C   0  0  0  0  0  0  0  0  0  0  0  0
    3.1612  -22.9858   22.3761 C   0  0  0  0  0  0  0  0  0  0  0  0
    3.1142  -22.5702   23.5436 O   0  0  0  0  0  0  0  0  0  0  0  0
    2.6355  -27.6095   25.0767 N   0  0  0  0  0  0  0  0  0  0  0  0
    1.5502  -27.4874   24.1955 C   0  0  0  0  0  0  0  0  0  0  0  0
    0.3924  -27.7707   24.5278 O   0  0  0  0  0  0  0  0  0  0  0  0
    1.8190  -26.9929   22.7979 C   0  0  0  0  0  0  0  0  0  0  0  0
    3.2709  -26.6980   22.6394 C   0  0  0  0  0  0  0  0  0  0  0  0
    3.6713  -25.3536   23.1325 C   0  0  2  0  0  0  0  0  0  0  0  0
    3.3757  -24.3489   22.0954 N   0  0  0  0  0  0  0  0  0  0  0  0
    5.0832  -25.1775   23.4937 C   0  0  0  0  0  0  0  0  0  0  0  0
    5.9738  -25.2870   22.5798 O   0  0  0  0  0  0  0  0  0  0  0  0
    9.8056  -19.7983   23.1205 N   0  0  0  0  0  0  0  0  0  0  0  0
   10.6289  -20.3263   24.1823 C   0  0  0  0  0  0  0  0  0  0  0  0
   11.8930  -20.2536   24.0991 N   0  0  0  0  0  0  0  0  0  0  0  0
    9.9693  -20.9145   25.2897 N   0  0  0  0  0  0  0  0  0  0  0  0
    9.6193  -22.3250   25.3093 C   0  0  0  0  0  0  0  0  0  0  0  0
    8.3328  -22.5724   24.6326 C   0  0  0  0  0  0  0  0  0  0  0  0
    7.2475  -23.3119   25.2580 C   0  0  0  0  0  0  0  0  0  0  0  0
    7.0353  -24.7708   25.0350 C   0  0  2  0  0  0  0  0  0  0  0  0
    5.5474  -24.8858   24.7818 N   0  0  0  0  0  0  0  0  0  0  0  0
    7.3064  -25.6682   26.1697 C   0  0  0  0  0  0  0  0  0  0  0  0
    7.9976  -25.3606   27.1486 O   0  0  0  0  0  0  0  0  0  0  0  0
    6.7566  -26.9639   26.1696 O   0  0  0  0  0  0  0  0  0  0  0  0
  2  1  1  0
  3  4  2  0
  3  2  1  0
  5  6  1  0
  6  7  2  0
  8  6  1  0
  8  9  1  0
 10  9  1  6
 10 12  1  0
 10 11  1  0
 11  3  1  0
 12 22  1  0
 13 12  2  0
 15 14  1  0
 16 15  2  0
 17 15  1  0
 18 19  1  0
 18 17  1  0
 20 19  1  0
 21 20  1  1
 22 21  1  0
 23 25  1  0
 23 21  1  0
 24 23  2  0
M  END
$$$$
