YDA.pdb
     RDKit          3D

 26 26  0  0  1  0  0  0  0  0999 V2000
    8.4106  -12.6913   17.0127 O   0  0  0  0  0  0  0  0  0  0  0  0
    8.1788  -13.1981   18.2961 C   0  0  0  0  0  0  0  0  0  0  0  0
    7.1920  -12.6814   19.1094 C   0  0  0  0  0  0  0  0  0  0  0  0
    6.9616  -13.1805   20.3762 C   0  0  0  0  0  0  0  0  0  0  0  0
    7.7088  -14.2233   20.8925 C   0  0  0  0  0  0  0  0  0  0  0  0
    7.4375  -14.7415   22.2590 C   0  0  0  0  0  0  0  0  0  0  0  0
    7.2745  -16.2453   22.2665 C   0  0  2  0  0  0  0  0  0  0  0  0
    5.8986  -16.6138   22.0854 N   0  0  0  0  0  0  0  0  0  0  0  0
    7.8066  -16.7189   23.5877 C   0  0  0  0  0  0  0  0  0  0  0  0
    6.9914  -16.8403   24.5388 O   0  0  0  0  0  0  0  0  0  0  0  0
    8.6957  -14.7420   20.0832 C   0  0  0  0  0  0  0  0  0  0  0  0
    8.9286  -14.2381   18.8040 C   0  0  0  0  0  0  0  0  0  0  0  0
    9.1526  -17.0277   23.8057 N   0  0  0  0  0  0  0  0  0  0  0  0
    9.6236  -17.4667   25.1428 C   0  0  1  0  0  0  0  0  0  0  0  0
   10.7428  -18.4272   24.8256 C   0  0  0  0  0  0  0  0  0  0  0  0
   11.3524  -19.0725   25.9848 C   0  0  0  0  0  0  0  0  0  0  0  0
   10.8663  -18.9002   27.1270 O   0  0  0  0  0  0  0  0  0  0  0  0
   10.0962  -16.2953   25.8749 C   0  0  0  0  0  0  0  0  0  0  0  0
   11.1982  -15.7615   25.5529 O   0  0  0  0  0  0  0  0  0  0  0  0
   12.4702  -19.8762   25.8175 O   0  0  0  0  0  0  0  0  0  0  0  0
    9.0242  -13.4425   27.8265 C   0  0  0  0  0  0  0  0  0  0  0  0
   10.0097  -14.5990   27.7056 C   0  0  2  0  0  0  0  0  0  0  0  0
    9.3967  -15.6909   26.9427 N   0  0  0  0  0  0  0  0  0  0  0  0
   10.3875  -15.0062   29.0436 C   0  0  0  0  0  0  0  0  0  0  0  0
   10.9408  -14.1524   29.8085 O   0  0  0  0  0  0  0  0  0  0  0  0
   10.1979  -16.2605   29.5765 O   0  0  0  0  0  0  0  0  0  0  0  0
  2  1  1  0
  2  3  2  0
  4  3  1  0
  5  4  2  0
  6  5  1  0
  7  6  1  0
  7  9  1  0
  7  8  1  1
  9 10  2  0
  9 13  1  0
 11 12  2  0
 11  5  1  0
 12  2  1  0
 13 14  1  0
 14 15  1  6
 15 16  1  0
 16 17  2  0
 16 20  1  0
 18 14  1  0
 18 23  1  0
 19 18  2  0
 22 21  1  1
 22 23  1  0
 22 24  1  0
 24 26  1  0
 25 24  2  0
M  END
$$$$
