YDA.pdb
     RDKit          3D

 26 26  0  0  1  0  0  0  0  0999 V2000
    4.6568  -10.3372   25.6732 O   0  0  0  0  0  0  0  0  0  0  0  0
    5.3764  -11.5371   25.6844 C   0  0  0  0  0  0  0  0  0  0  0  0
    6.6461  -11.6228   25.1531 C   0  0  0  0  0  0  0  0  0  0  0  0
    7.3580  -12.8061   25.1635 C   0  0  0  0  0  0  0  0  0  0  0  0
    6.8331  -13.9642   25.7073 C   0  0  0  0  0  0  0  0  0  0  0  0
    7.6229  -15.2234   25.7062 C   0  0  0  0  0  0  0  0  0  0  0  0
    7.6011  -15.8980   24.3524 C   0  0  2  0  0  0  0  0  0  0  0  0
    6.4258  -16.7088   24.2013 N   0  0  0  0  0  0  0  0  0  0  0  0
    8.8555  -16.7183   24.2716 C   0  0  0  0  0  0  0  0  0  0  0  0
    8.7704  -17.9471   24.5305 O   0  0  0  0  0  0  0  0  0  0  0  0
    5.5648  -13.8826   26.2389 C   0  0  0  0  0  0  0  0  0  0  0  0
    4.8458  -12.6879   26.2285 C   0  0  0  0  0  0  0  0  0  0  0  0
   10.1001  -16.1838   23.9254 N   0  0  0  0  0  0  0  0  0  0  0  0
   11.3513  -16.9314   24.2043 C   0  0  1  0  0  0  0  0  0  0  0  0
   12.3651  -16.2730   23.3017 C   0  0  0  0  0  0  0  0  0  0  0  0
   12.1070  -16.4167   21.8718 C   0  0  0  0  0  0  0  0  0  0  0  0
   11.8708  -17.5480   21.3872 O   0  0  0  0  0  0  0  0  0  0  0  0
   11.6844  -16.7667   25.6162 C   0  0  0  0  0  0  0  0  0  0  0  0
   12.7441  -17.2885   26.0719 O   0  0  0  0  0  0  0  0  0  0  0  0
   12.1241  -15.2977   21.0527 O   0  0  0  0  0  0  0  0  0  0  0  0
   10.5752  -14.7115   28.5624 C   0  0  0  0  0  0  0  0  0  0  0  0
   11.3620  -15.8451   27.9147 C   0  0  2  0  0  0  0  0  0  0  0  0
   10.8953  -16.0454   26.5392 N   0  0  0  0  0  0  0  0  0  0  0  0
   11.1939  -17.0296   28.7314 C   0  0  0  0  0  0  0  0  0  0  0  0
   10.5662  -18.0238   28.2436 O   0  0  0  0  0  0  0  0  0  0  0  0
   11.6620  -17.1829   30.0163 O   0  0  0  0  0  0  0  0  0  0  0  0
  2  1  1  0
  2  3  2  0
  4  3  1  0
  5  4  2  0
  6  5  1  0
  7  6  1  0
  7  9  1  0
  7  8  1  1
  9 10  2  0
  9 13  1  0
 11 12  2  0
 11  5  1  0
 12  2  1  0
 13 14  1  0
 14 15  1  6
 15 16  1  0
 16 17  2  0
 16 20  1  0
 18 14  1  0
 18 23  1  0
 19 18  2  0
 22 21  1  1
 22 23  1  0
 22 24  1  0
 24 26  1  0
 25 24  2  0
M  END
$$$$
