YDA.pdb
     RDKit          3D

 26 26  0  0  1  0  0  0  0  0999 V2000
    6.4655  -12.2572   18.2983 O   0  0  0  0  0  0  0  0  0  0  0  0
    6.9963  -12.9067   19.4182 C   0  0  0  0  0  0  0  0  0  0  0  0
    6.1833  -13.4589   20.3857 C   0  0  0  0  0  0  0  0  0  0  0  0
    6.7052  -14.1005   21.4915 C   0  0  0  0  0  0  0  0  0  0  0  0
    8.0693  -14.2214   21.6839 C   0  0  0  0  0  0  0  0  0  0  0  0
    8.6031  -14.9189   22.8830 C   0  0  0  0  0  0  0  0  0  0  0  0
    9.2051  -16.2609   22.5298 C   0  0  2  0  0  0  0  0  0  0  0  0
    8.1814  -17.2508   22.3463 N   0  0  0  0  0  0  0  0  0  0  0  0
   10.1268  -16.6183   23.6592 C   0  0  0  0  0  0  0  0  0  0  0  0
    9.7479  -17.5060   24.4669 O   0  0  0  0  0  0  0  0  0  0  0  0
    8.8848  -13.6709   20.7196 C   0  0  0  0  0  0  0  0  0  0  0  0
    8.3580  -13.0229   19.6030 C   0  0  0  0  0  0  0  0  0  0  0  0
   11.3735  -16.0153   23.8514 N   0  0  0  0  0  0  0  0  0  0  0  0
   12.3474  -16.5776   24.8197 C   0  0  1  0  0  0  0  0  0  0  0  0
   13.6804  -16.1037   24.2961 C   0  0  0  0  0  0  0  0  0  0  0  0
   14.8429  -16.5800   25.0400 C   0  0  0  0  0  0  0  0  0  0  0  0
   14.9351  -17.7899   25.3533 O   0  0  0  0  0  0  0  0  0  0  0  0
   12.0522  -16.0341   26.1421 C   0  0  0  0  0  0  0  0  0  0  0  0
   12.8612  -16.2371   27.0946 O   0  0  0  0  0  0  0  0  0  0  0  0
   15.8439  -15.6895   25.3982 O   0  0  0  0  0  0  0  0  0  0  0  0
    9.5467  -13.7601   27.8085 C   0  0  0  0  0  0  0  0  0  0  0  0
   10.6915  -14.7665   27.8090 C   0  0  2  0  0  0  0  0  0  0  0  0
   10.9027  -15.2729   26.4492 N   0  0  0  0  0  0  0  0  0  0  0  0
   10.3589  -15.8215   28.7443 C   0  0  0  0  0  0  0  0  0  0  0  0
   10.2353  -15.5286   29.9768 O   0  0  0  0  0  0  0  0  0  0  0  0
   10.1589  -17.1425   28.4149 O   0  0  0  0  0  0  0  0  0  0  0  0
  2  1  1  0
  2  3  2  0
  4  3  1  0
  5  4  2  0
  6  5  1  0
  7  6  1  0
  7  9  1  0
  7  8  1  1
  9 10  2  0
  9 13  1  0
 11 12  2  0
 11  5  1  0
 12  2  1  0
 13 14  1  0
 14 15  1  6
 15 16  1  0
 16 17  2  0
 16 20  1  0
 18 14  1  0
 18 23  1  0
 19 18  2  0
 22 21  1  6
 22 23  1  0
 22 24  1  0
 24 26  1  0
 25 24  2  0
M  END
$$$$
