YDA.pdb
     RDKit          3D

 26 26  0  0  1  0  0  0  0  0999 V2000
    8.3988  -12.3121   17.8532 O   0  0  0  0  0  0  0  0  0  0  0  0
    8.0928  -12.8975   19.0865 C   0  0  0  0  0  0  0  0  0  0  0  0
    6.8661  -13.4809   19.3246 C   0  0  0  0  0  0  0  0  0  0  0  0
    6.5624  -14.0595   20.5412 C   0  0  0  0  0  0  0  0  0  0  0  0
    7.4732  -14.0828   21.5814 C   0  0  0  0  0  0  0  0  0  0  0  0
    7.1196  -14.7141   22.8798 C   0  0  0  0  0  0  0  0  0  0  0  0
    7.1485  -16.2241   22.7957 C   0  0  2  0  0  0  0  0  0  0  0  0
    5.8184  -16.7648   22.8065 N   0  0  0  0  0  0  0  0  0  0  0  0
    7.9488  -16.6953   23.9748 C   0  0  0  0  0  0  0  0  0  0  0  0
    7.3443  -16.8580   25.0666 O   0  0  0  0  0  0  0  0  0  0  0  0
    8.6998  -13.5008   21.3475 C   0  0  0  0  0  0  0  0  0  0  0  0
    9.0067  -12.9165   20.1192 C   0  0  0  0  0  0  0  0  0  0  0  0
    9.3206  -16.9585   23.9144 N   0  0  0  0  0  0  0  0  0  0  0  0
   10.0561  -17.4319   25.1132 C   0  0  1  0  0  0  0  0  0  0  0  0
   11.3311  -18.0023   24.5433 C   0  0  0  0  0  0  0  0  0  0  0  0
   12.1831  -18.6964   25.5047 C   0  0  0  0  0  0  0  0  0  0  0  0
   11.8142  -18.8197   26.6959 O   0  0  0  0  0  0  0  0  0  0  0  0
   10.3076  -16.2876   25.9842 C   0  0  0  0  0  0  0  0  0  0  0  0
   10.9552  -15.2951   25.5384 O   0  0  0  0  0  0  0  0  0  0  0  0
   13.4010  -19.2184   25.0950 O   0  0  0  0  0  0  0  0  0  0  0  0
    9.0832  -14.0650   28.2255 C   0  0  0  0  0  0  0  0  0  0  0  0
   10.2462  -15.0475   28.1509 C   0  0  2  0  0  0  0  0  0  0  0  0
    9.8676  -16.1970   27.3232 N   0  0  0  0  0  0  0  0  0  0  0  0
   10.5932  -15.4330   29.5035 C   0  0  0  0  0  0  0  0  0  0  0  0
   10.4863  -16.6570   29.8362 O   0  0  0  0  0  0  0  0  0  0  0  0
   11.0390  -14.5776   30.4848 O   0  0  0  0  0  0  0  0  0  0  0  0
  2  1  1  0
  2  3  2  0
  4  3  1  0
  5  4  2  0
  6  5  1  0
  7  6  1  0
  7  9  1  0
  7  8  1  1
  9 10  2  0
  9 13  1  0
 11 12  2  0
 11  5  1  0
 12  2  1  0
 13 14  1  0
 14 15  1  6
 15 16  1  0
 16 17  2  0
 16 20  1  0
 18 14  1  0
 18 23  1  0
 19 18  2  0
 22 21  1  1
 22 23  1  0
 22 24  1  0
 24 26  1  0
 25 24  2  0
M  END
$$$$
