YDA.pdb
     RDKit          3D

 26 26  0  0  1  0  0  0  0  0999 V2000
    8.0342  -12.5211   17.5777 O   0  0  0  0  0  0  0  0  0  0  0  0
    7.8459  -13.0579   18.8560 C   0  0  0  0  0  0  0  0  0  0  0  0
    6.6249  -13.5588   19.2564 C   0  0  0  0  0  0  0  0  0  0  0  0
    6.4372  -14.0893   20.5174 C   0  0  0  0  0  0  0  0  0  0  0  0
    7.4643  -14.1449   21.4417 C   0  0  0  0  0  0  0  0  0  0  0  0
    7.2339  -14.7231   22.7915 C   0  0  0  0  0  0  0  0  0  0  0  0
    7.1931  -16.2348   22.7548 C   0  0  2  0  0  0  0  0  0  0  0  0
    5.8393  -16.7113   22.7137 N   0  0  0  0  0  0  0  0  0  0  0  0
    7.9097  -16.7044   23.9872 C   0  0  0  0  0  0  0  0  0  0  0  0
    7.2264  -16.8917   25.0274 O   0  0  0  0  0  0  0  0  0  0  0  0
    8.6855  -13.6454   21.0455 C   0  0  0  0  0  0  0  0  0  0  0  0
    8.8752  -13.1096   19.7722 C   0  0  0  0  0  0  0  0  0  0  0  0
    9.2871  -16.9404   24.0301 N   0  0  0  0  0  0  0  0  0  0  0  0
    9.9286  -17.4693   25.2592 C   0  0  1  0  0  0  0  0  0  0  0  0
   11.1750  -18.1456   24.7445 C   0  0  0  0  0  0  0  0  0  0  0  0
   11.9776  -18.8210   25.7601 C   0  0  0  0  0  0  0  0  0  0  0  0
   11.4288  -19.2892   26.7849 O   0  0  0  0  0  0  0  0  0  0  0  0
   10.2370  -16.3469   26.1404 C   0  0  0  0  0  0  0  0  0  0  0  0
   11.0248  -15.4394   25.7419 O   0  0  0  0  0  0  0  0  0  0  0  0
   13.3482  -18.9425   25.5868 O   0  0  0  0  0  0  0  0  0  0  0  0
    8.9698  -14.1924   28.6445 C   0  0  0  0  0  0  0  0  0  0  0  0
   10.1552  -15.0840   28.2933 C   0  0  2  0  0  0  0  0  0  0  0  0
    9.7054  -16.1877   27.4393 N   0  0  0  0  0  0  0  0  0  0  0  0
   10.7457  -15.5507   29.5311 C   0  0  0  0  0  0  0  0  0  0  0  0
   10.7615  -16.8014   29.7668 O   0  0  0  0  0  0  0  0  0  0  0  0
   11.3049  -14.7472   30.4981 O   0  0  0  0  0  0  0  0  0  0  0  0
  2  1  1  0
  2  3  2  0
  4  3  1  0
  5  4  2  0
  6  5  1  0
  7  6  1  0
  7  9  1  0
  7  8  1  1
  9 10  2  0
  9 13  1  0
 11 12  2  0
 11  5  1  0
 12  2  1  0
 13 14  1  0
 14 15  1  6
 15 16  1  0
 16 17  2  0
 16 20  1  0
 18 14  1  0
 18 23  1  0
 19 18  2  0
 22 21  1  1
 22 23  1  0
 22 24  1  0
 24 26  1  0
 25 24  2  0
M  END
$$$$
