YDA.pdb
     RDKit          3D

 26 26  0  0  1  0  0  0  0  0999 V2000
    8.1550  -12.7559   16.9539 O   0  0  0  0  0  0  0  0  0  0  0  0
    8.0187  -13.2190   18.2672 C   0  0  0  0  0  0  0  0  0  0  0  0
    8.1755  -14.5523   18.5829 C   0  0  0  0  0  0  0  0  0  0  0  0
    8.0417  -15.0111   19.8785 C   0  0  0  0  0  0  0  0  0  0  0  0
    7.7436  -14.1565   20.9240 C   0  0  0  0  0  0  0  0  0  0  0  0
    7.6070  -14.6780   22.3092 C   0  0  0  0  0  0  0  0  0  0  0  0
    7.4695  -16.1843   22.3304 C   0  0  2  0  0  0  0  0  0  0  0  0
    6.0883  -16.5746   22.2895 N   0  0  0  0  0  0  0  0  0  0  0  0
    8.1408  -16.6497   23.5896 C   0  0  0  0  0  0  0  0  0  0  0  0
    7.4282  -16.7868   24.6179 O   0  0  0  0  0  0  0  0  0  0  0  0
    7.5860  -12.8238   20.6126 C   0  0  0  0  0  0  0  0  0  0  0  0
    7.7210  -12.3603   19.3044 C   0  0  0  0  0  0  0  0  0  0  0  0
    9.5072  -16.9345   23.6696 N   0  0  0  0  0  0  0  0  0  0  0  0
   10.1097  -17.4133   24.9385 C   0  0  1  0  0  0  0  0  0  0  0  0
   11.3021  -18.2170   24.4825 C   0  0  0  0  0  0  0  0  0  0  0  0
   12.1164  -18.7803   25.5556 C   0  0  0  0  0  0  0  0  0  0  0  0
   13.3590  -18.8694   25.4199 O   0  0  0  0  0  0  0  0  0  0  0  0
   10.5011  -16.2523   25.7324 C   0  0  0  0  0  0  0  0  0  0  0  0
   11.4807  -15.5427   25.3585 O   0  0  0  0  0  0  0  0  0  0  0  0
   11.5103  -19.2158   26.7245 O   0  0  0  0  0  0  0  0  0  0  0  0
    9.4883  -13.6104   27.8407 C   0  0  0  0  0  0  0  0  0  0  0  0
   10.4369  -14.8011   27.7638 C   0  0  2  0  0  0  0  0  0  0  0  0
    9.8497  -15.8447   26.9175 N   0  0  0  0  0  0  0  0  0  0  0  0
   10.6859  -15.2623   29.1143 C   0  0  0  0  0  0  0  0  0  0  0  0
   11.1795  -14.4462   29.9571 O   0  0  0  0  0  0  0  0  0  0  0  0
   10.4312  -16.5314   29.5809 O   0  0  0  0  0  0  0  0  0  0  0  0
  2  1  1  0
  2  3  2  0
  4  3  1  0
  5  4  2  0
  6  5  1  0
  7  6  1  0
  7  9  1  0
  7  8  1  1
  9 10  2  0
  9 13  1  0
 11 12  2  0
 11  5  1  0
 12  2  1  0
 13 14  1  0
 14 15  1  6
 15 16  1  0
 16 17  2  0
 16 20  1  0
 18 14  1  0
 18 23  1  0
 19 18  2  0
 22 21  1  1
 22 23  1  0
 22 24  1  0
 24 26  1  0
 25 24  2  0
M  END
$$$$
