YDA.pdb
     RDKit          3D

 26 26  0  0  1  0  0  0  0  0999 V2000
    5.0353  -10.6393   27.7694 O   0  0  0  0  0  0  0  0  0  0  0  0
    5.8111  -11.5988   27.1098 C   0  0  0  0  0  0  0  0  0  0  0  0
    6.8454  -12.2529   27.7457 C   0  0  0  0  0  0  0  0  0  0  0  0
    7.6120  -13.2004   27.0964 C   0  0  0  0  0  0  0  0  0  0  0  0
    7.3807  -13.5407   25.7762 C   0  0  0  0  0  0  0  0  0  0  0  0
    8.2209  -14.5657   25.1031 C   0  0  0  0  0  0  0  0  0  0  0  0
    7.3791  -15.6213   24.4211 C   0  0  2  0  0  0  0  0  0  0  0  0
    6.6337  -16.3840   25.3825 N   0  0  0  0  0  0  0  0  0  0  0  0
    8.3330  -16.4840   23.6473 C   0  0  0  0  0  0  0  0  0  0  0  0
    8.6483  -17.5982   24.1406 O   0  0  0  0  0  0  0  0  0  0  0  0
    6.3484  -12.8894   25.1374 C   0  0  0  0  0  0  0  0  0  0  0  0
    5.5743  -11.9325   25.7928 C   0  0  0  0  0  0  0  0  0  0  0  0
    8.8803  -16.1088   22.4168 N   0  0  0  0  0  0  0  0  0  0  0  0
    9.8058  -17.0133   21.6903 C   0  0  1  0  0  0  0  0  0  0  0  0
    9.8725  -16.4144   20.3074 C   0  0  0  0  0  0  0  0  0  0  0  0
   10.7275  -17.1286   19.3636 C   0  0  0  0  0  0  0  0  0  0  0  0
   11.4051  -18.1099   19.7490 O   0  0  0  0  0  0  0  0  0  0  0  0
   11.1014  -16.9878   22.3628 C   0  0  0  0  0  0  0  0  0  0  0  0
   11.7131  -15.8873   22.4963 O   0  0  0  0  0  0  0  0  0  0  0  0
   10.7870  -16.7176   18.0404 O   0  0  0  0  0  0  0  0  0  0  0  0
   13.0248  -18.9792   24.7946 C   0  0  0  0  0  0  0  0  0  0  0  0
   13.0024  -17.9929   23.6326 C   0  0  2  0  0  0  0  0  0  0  0  0
   11.7418  -18.1282   22.8959 N   0  0  0  0  0  0  0  0  0  0  0  0
   14.1581  -18.2568   22.7999 C   0  0  0  0  0  0  0  0  0  0  0  0
   15.3187  -18.1105   23.3018 O   0  0  0  0  0  0  0  0  0  0  0  0
   14.1156  -18.6612   21.4854 O   0  0  0  0  0  0  0  0  0  0  0  0
  2  1  1  0
  2  3  2  0
  4  3  1  0
  5  4  2  0
  6  5  1  0
  7  6  1  0
  7  9  1  0
  7  8  1  1
  9 10  2  0
  9 13  1  0
 11 12  2  0
 11  5  1  0
 12  2  1  0
 13 14  1  0
 14 15  1  6
 15 16  1  0
 16 17  2  0
 16 20  1  0
 18 14  1  0
 18 23  1  0
 19 18  2  0
 22 21  1  1
 22 23  1  0
 22 24  1  0
 24 26  1  0
 25 24  2  0
M  END
$$$$
