YDA.pdb
     RDKit          3D

 26 26  0  0  1  0  0  0  0  0999 V2000
    7.4164  -12.2692   17.4481 O   0  0  0  0  0  0  0  0  0  0  0  0
    7.6597  -12.8713   18.6874 C   0  0  0  0  0  0  0  0  0  0  0  0
    8.9423  -13.0973   19.1412 C   0  0  0  0  0  0  0  0  0  0  0  0
    9.1843  -13.6912   20.3642 C   0  0  0  0  0  0  0  0  0  0  0  0
    8.1528  -14.0890   21.1949 C   0  0  0  0  0  0  0  0  0  0  0  0
    8.4430  -14.7244   22.5069 C   0  0  0  0  0  0  0  0  0  0  0  0
    8.8608  -16.1697   22.3500 C   0  0  2  0  0  0  0  0  0  0  0  0
    7.7384  -16.9937   21.9996 N   0  0  0  0  0  0  0  0  0  0  0  0
    9.4609  -16.5786   23.6636 C   0  0  0  0  0  0  0  0  0  0  0  0
    8.7512  -17.2649   24.4443 O   0  0  0  0  0  0  0  0  0  0  0  0
    6.8701  -13.8650   20.7449 C   0  0  0  0  0  0  0  0  0  0  0  0
    6.6254  -13.2654   19.5100 C   0  0  0  0  0  0  0  0  0  0  0  0
   10.7586  -16.2346   24.0537 N   0  0  0  0  0  0  0  0  0  0  0  0
   11.4044  -16.9003   25.2122 C   0  0  1  0  0  0  0  0  0  0  0  0
   12.8721  -16.8691   24.8647 C   0  0  0  0  0  0  0  0  0  0  0  0
   13.7572  -17.4667   25.8604 C   0  0  0  0  0  0  0  0  0  0  0  0
   14.7911  -16.8602   26.2258 O   0  0  0  0  0  0  0  0  0  0  0  0
   11.1083  -16.1273   26.4148 C   0  0  0  0  0  0  0  0  0  0  0  0
   11.2193  -16.6747   27.5510 O   0  0  0  0  0  0  0  0  0  0  0  0
   13.4496  -18.7067   26.3999 O   0  0  0  0  0  0  0  0  0  0  0  0
    8.5453  -14.1963   27.4071 C   0  0  0  0  0  0  0  0  0  0  0  0
   10.0585  -14.1904   27.5907 C   0  0  2  0  0  0  0  0  0  0  0  0
   10.7003  -14.7751   26.4091 N   0  0  0  0  0  0  0  0  0  0  0  0
   10.3646  -14.9223   28.8027 C   0  0  0  0  0  0  0  0  0  0  0  0
    9.9962  -14.4356   29.9197 O   0  0  0  0  0  0  0  0  0  0  0  0
   11.0324  -16.1241   28.8589 O   0  0  0  0  0  0  0  0  0  0  0  0
  2  1  1  0
  2  3  2  0
  4  3  1  0
  5  4  2  0
  6  5  1  0
  7  6  1  0
  7  9  1  0
  7  8  1  1
  9 10  2  0
  9 13  1  0
 11 12  2  0
 11  5  1  0
 12  2  1  0
 13 14  1  0
 14 15  1  6
 15 16  1  0
 16 17  2  0
 16 20  1  0
 18 14  1  0
 18 23  1  0
 19 18  2  0
 22 21  1  6
 22 23  1  0
 22 24  1  0
 24 26  1  0
 25 24  2  0
M  END
$$$$
