YDA.pdb
     RDKit          3D

 26 26  0  0  1  0  0  0  0  0999 V2000
    4.7668   -9.9904   25.8865 O   0  0  0  0  0  0  0  0  0  0  0  0
    5.5065  -11.1778   25.8643 C   0  0  0  0  0  0  0  0  0  0  0  0
    6.6928  -11.2768   25.1678 C   0  0  0  0  0  0  0  0  0  0  0  0
    7.4244  -12.4478   25.1449 C   0  0  0  0  0  0  0  0  0  0  0  0
    7.0041  -13.5796   25.8193 C   0  0  0  0  0  0  0  0  0  0  0  0
    7.8129  -14.8260   25.7784 C   0  0  0  0  0  0  0  0  0  0  0  0
    7.5309  -15.6371   24.5331 C   0  0  2  0  0  0  0  0  0  0  0  0
    6.2988  -16.3630   24.6609 N   0  0  0  0  0  0  0  0  0  0  0  0
    8.7026  -16.5587   24.3579 C   0  0  0  0  0  0  0  0  0  0  0  0
    8.5447  -17.7712   24.6563 O   0  0  0  0  0  0  0  0  0  0  0  0
    5.8194  -13.4846   26.5160 C   0  0  0  0  0  0  0  0  0  0  0  0
    5.0805  -12.3024   26.5392 C   0  0  0  0  0  0  0  0  0  0  0  0
    9.9473  -16.1346   23.8832 N   0  0  0  0  0  0  0  0  0  0  0  0
   11.1560  -16.9761   24.0653 C   0  0  1  0  0  0  0  0  0  0  0  0
   12.1407  -16.3987   23.0790 C   0  0  0  0  0  0  0  0  0  0  0  0
   11.8486  -16.6787   21.6761 C   0  0  0  0  0  0  0  0  0  0  0  0
   11.1902  -17.6981   21.3634 O   0  0  0  0  0  0  0  0  0  0  0  0
   11.6142  -16.8363   25.4444 C   0  0  0  0  0  0  0  0  0  0  0  0
   12.6945  -17.3913   25.8019 O   0  0  0  0  0  0  0  0  0  0  0  0
   12.3017  -15.8131   20.6919 O   0  0  0  0  0  0  0  0  0  0  0  0
   10.8729  -14.7646   28.4824 C   0  0  0  0  0  0  0  0  0  0  0  0
   11.4994  -15.9647   27.7819 C   0  0  2  0  0  0  0  0  0  0  0  0
   10.9280  -16.1046   26.4387 N   0  0  0  0  0  0  0  0  0  0  0  0
   11.2662  -17.1343   28.6042 C   0  0  0  0  0  0  0  0  0  0  0  0
   11.7666  -17.1680   29.7741 O   0  0  0  0  0  0  0  0  0  0  0  0
   10.5356  -18.2381   28.2283 O   0  0  0  0  0  0  0  0  0  0  0  0
  2  1  1  0
  2  3  2  0
  4  3  1  0
  5  4  2  0
  6  5  1  0
  7  6  1  0
  7  9  1  0
  7  8  1  1
  9 10  2  0
  9 13  1  0
 11 12  2  0
 11  5  1  0
 12  2  1  0
 13 14  1  0
 14 15  1  6
 15 16  1  0
 16 17  2  0
 16 20  1  0
 18 14  1  0
 18 23  1  0
 19 18  2  0
 22 21  1  1
 22 23  1  0
 22 24  1  0
 24 26  1  0
 25 24  2  0
M  END
$$$$
