YDA.pdb
     RDKit          3D

 26 26  0  0  1  0  0  0  0  0999 V2000
    7.4719  -12.1550   17.0565 O   0  0  0  0  0  0  0  0  0  0  0  0
    7.6827  -12.7922   18.2841 C   0  0  0  0  0  0  0  0  0  0  0  0
    8.8895  -13.3839   18.5930 C   0  0  0  0  0  0  0  0  0  0  0  0
    9.0996  -14.0130   19.8042 C   0  0  0  0  0  0  0  0  0  0  0  0
    8.1102  -14.0810   20.7680 C   0  0  0  0  0  0  0  0  0  0  0  0
    8.3649  -14.7633   22.0637 C   0  0  0  0  0  0  0  0  0  0  0  0
    8.7808  -16.2042   21.8667 C   0  0  2  0  0  0  0  0  0  0  0  0
    7.6712  -17.0041   21.4302 N   0  0  0  0  0  0  0  0  0  0  0  0
    9.3158  -16.6716   23.1889 C   0  0  0  0  0  0  0  0  0  0  0  0
    8.4875  -17.0669   24.0501 O   0  0  0  0  0  0  0  0  0  0  0  0
    6.9031  -13.4912   20.4631 C   0  0  0  0  0  0  0  0  0  0  0  0
    6.6908  -12.8560   19.2401 C   0  0  0  0  0  0  0  0  0  0  0  0
   10.6782  -16.6870   23.5024 N   0  0  0  0  0  0  0  0  0  0  0  0
   11.1480  -17.1795   24.8211 C   0  0  1  0  0  0  0  0  0  0  0  0
   12.5681  -17.6114   24.5518 C   0  0  0  0  0  0  0  0  0  0  0  0
   12.7074  -18.9108   23.9005 C   0  0  0  0  0  0  0  0  0  0  0  0
   13.7702  -19.2034   23.3045 O   0  0  0  0  0  0  0  0  0  0  0  0
   11.0810  -16.0785   25.7775 C   0  0  0  0  0  0  0  0  0  0  0  0
   11.8438  -15.0785   25.6316 O   0  0  0  0  0  0  0  0  0  0  0  0
   11.6602  -19.8191   23.9439 O   0  0  0  0  0  0  0  0  0  0  0  0
    8.9748  -14.1274   27.7851 C   0  0  0  0  0  0  0  0  0  0  0  0
   10.2682  -14.9320   27.8418 C   0  0  2  0  0  0  0  0  0  0  0  0
   10.2020  -16.0389   26.8824 N   0  0  0  0  0  0  0  0  0  0  0  0
   10.4485  -15.3931   29.2032 C   0  0  0  0  0  0  0  0  0  0  0  0
   10.5706  -14.5288   30.1296 O   0  0  0  0  0  0  0  0  0  0  0  0
   10.5005  -16.7107   29.5964 O   0  0  0  0  0  0  0  0  0  0  0  0
  2  1  1  0
  2  3  2  0
  4  3  1  0
  5  4  2  0
  6  5  1  0
  7  6  1  0
  7  9  1  0
  7  8  1  1
  9 10  2  0
  9 13  1  0
 11 12  2  0
 11  5  1  0
 12  2  1  0
 13 14  1  0
 14 15  1  6
 15 16  1  0
 16 17  2  0
 16 20  1  0
 18 14  1  0
 18 23  1  0
 19 18  2  0
 22 21  1  1
 22 23  1  0
 22 24  1  0
 24 26  1  0
 25 24  2  0
M  END
$$$$
