YDA.pdb
     RDKit          3D

 26 26  0  0  1  0  0  0  0  0999 V2000
    8.2086  -12.4278   18.0550 O   0  0  0  0  0  0  0  0  0  0  0  0
    7.9806  -13.0423   19.2911 C   0  0  0  0  0  0  0  0  0  0  0  0
    7.9409  -12.3157   20.4626 C   0  0  0  0  0  0  0  0  0  0  0  0
    7.7157  -12.9204   21.6835 C   0  0  0  0  0  0  0  0  0  0  0  0
    7.5186  -14.2848   21.7923 C   0  0  0  0  0  0  0  0  0  0  0  0
    7.2766  -14.9086   23.1196 C   0  0  0  0  0  0  0  0  0  0  0  0
    7.2041  -16.4166   23.0259 C   0  0  2  0  0  0  0  0  0  0  0  0
    5.8426  -16.8596   22.9180 N   0  0  0  0  0  0  0  0  0  0  0  0
    7.8638  -16.9468   24.2655 C   0  0  0  0  0  0  0  0  0  0  0  0
    7.1230  -17.2856   25.2250 O   0  0  0  0  0  0  0  0  0  0  0  0
    7.5577  -15.0142   20.6242 C   0  0  0  0  0  0  0  0  0  0  0  0
    7.7852  -14.4038   19.3913 C   0  0  0  0  0  0  0  0  0  0  0  0
    9.2490  -17.0793   24.3998 N   0  0  0  0  0  0  0  0  0  0  0  0
    9.8372  -17.7177   25.6035 C   0  0  1  0  0  0  0  0  0  0  0  0
   11.0957  -18.3652   25.0810 C   0  0  0  0  0  0  0  0  0  0  0  0
   11.9198  -19.0220   26.0916 C   0  0  0  0  0  0  0  0  0  0  0  0
   11.3818  -19.7108   26.9896 O   0  0  0  0  0  0  0  0  0  0  0  0
   10.1227  -16.6772   26.5870 C   0  0  0  0  0  0  0  0  0  0  0  0
   10.6404  -16.9944   27.6980 O   0  0  0  0  0  0  0  0  0  0  0  0
   13.2990  -18.8810   26.0539 O   0  0  0  0  0  0  0  0  0  0  0  0
    8.7240  -13.5470   27.6498 C   0  0  0  0  0  0  0  0  0  0  0  0
   10.0081  -14.3538   27.4952 C   0  0  2  0  0  0  0  0  0  0  0  0
    9.8628  -15.3033   26.3874 N   0  0  0  0  0  0  0  0  0  0  0  0
   10.2751  -15.0150   28.7561 C   0  0  0  0  0  0  0  0  0  0  0  0
   10.4547  -14.3008   29.7944 O   0  0  0  0  0  0  0  0  0  0  0  0
   10.3536  -16.3765   28.9392 O   0  0  0  0  0  0  0  0  0  0  0  0
  2  1  1  0
  2  3  2  0
  4  3  1  0
  5  4  2  0
  6  5  1  0
  7  6  1  0
  7  9  1  0
  7  8  1  1
  9 10  2  0
  9 13  1  0
 11 12  2  0
 11  5  1  0
 12  2  1  0
 13 14  1  0
 14 15  1  6
 15 16  1  0
 16 17  2  0
 16 20  1  0
 18 14  1  0
 18 23  1  0
 19 18  2  0
 22 21  1  1
 22 23  1  0
 22 24  1  0
 24 26  1  0
 25 24  2  0
M  END
$$$$
