YDA.pdb
     RDKit          3D

 26 26  0  0  1  0  0  0  0  0999 V2000
    5.0057  -10.2850   26.2343 O   0  0  0  0  0  0  0  0  0  0  0  0
    5.5951  -11.5510   26.1477 C   0  0  0  0  0  0  0  0  0  0  0  0
    6.9523  -11.7044   25.9568 C   0  0  0  0  0  0  0  0  0  0  0  0
    7.5358  -12.9530   25.8714 C   0  0  0  0  0  0  0  0  0  0  0  0
    6.7883  -14.1120   25.9731 C   0  0  0  0  0  0  0  0  0  0  0  0
    7.4435  -15.4429   25.8791 C   0  0  0  0  0  0  0  0  0  0  0  0
    7.5205  -15.9305   24.4492 C   0  0  2  0  0  0  0  0  0  0  0  0
    6.4483  -16.8399   24.1581 N   0  0  0  0  0  0  0  0  0  0  0  0
    8.8617  -16.5880   24.3013 C   0  0  0  0  0  0  0  0  0  0  0  0
    8.9397  -17.8213   24.5402 O   0  0  0  0  0  0  0  0  0  0  0  0
    5.4321  -13.9629   26.1637 C   0  0  0  0  0  0  0  0  0  0  0  0
    4.8426  -12.7022   26.2498 C   0  0  0  0  0  0  0  0  0  0  0  0
   10.0148  -15.8988   23.9142 N   0  0  0  0  0  0  0  0  0  0  0  0
   11.3535  -16.5258   24.0447 C   0  0  1  0  0  0  0  0  0  0  0  0
   12.2344  -15.6624   23.1762 C   0  0  0  0  0  0  0  0  0  0  0  0
   13.6120  -16.1259   23.0367 C   0  0  0  0  0  0  0  0  0  0  0  0
   14.5544  -15.4414   23.4991 O   0  0  0  0  0  0  0  0  0  0  0  0
   11.7519  -16.4794   25.4485 C   0  0  0  0  0  0  0  0  0  0  0  0
   12.8634  -16.9748   25.7980 O   0  0  0  0  0  0  0  0  0  0  0  0
   13.8734  -17.3254   22.3915 O   0  0  0  0  0  0  0  0  0  0  0  0
   10.7430  -14.7362   28.6115 C   0  0  0  0  0  0  0  0  0  0  0  0
   11.4989  -15.8131   27.8419 C   0  0  2  0  0  0  0  0  0  0  0  0
   10.9727  -15.9038   26.4763 N   0  0  0  0  0  0  0  0  0  0  0  0
   11.3641  -17.0594   28.5680 C   0  0  0  0  0  0  0  0  0  0  0  0
   11.8534  -17.1392   29.7404 O   0  0  0  0  0  0  0  0  0  0  0  0
   10.7403  -18.1914   28.0960 O   0  0  0  0  0  0  0  0  0  0  0  0
  2  1  1  0
  2  3  2  0
  4  3  1  0
  5  4  2  0
  6  5  1  0
  7  6  1  0
  7  9  1  0
  7  8  1  1
  9 10  2  0
  9 13  1  0
 11 12  2  0
 11  5  1  0
 12  2  1  0
 13 14  1  0
 14 15  1  6
 15 16  1  0
 16 17  2  0
 16 20  1  0
 18 14  1  0
 18 23  1  0
 19 18  2  0
 22 21  1  1
 22 23  1  0
 22 24  1  0
 24 26  1  0
 25 24  2  0
M  END
$$$$
