YDA.pdb
     RDKit          3D

 26 26  0  0  1  0  0  0  0  0999 V2000
    7.5125  -13.5250   16.0416 O   0  0  0  0  0  0  0  0  0  0  0  0
    7.4895  -13.7636   17.4200 C   0  0  0  0  0  0  0  0  0  0  0  0
    6.9841  -14.9360   17.9418 C   0  0  0  0  0  0  0  0  0  0  0  0
    6.9609  -15.1734   19.3019 C   0  0  0  0  0  0  0  0  0  0  0  0
    7.4432  -14.2475   20.2087 C   0  0  0  0  0  0  0  0  0  0  0  0
    7.4070  -14.5306   21.6675 C   0  0  0  0  0  0  0  0  0  0  0  0
    8.7526  -14.2971   22.3178 C   0  0  2  0  0  0  0  0  0  0  0  0
    9.8144  -14.4181   21.3589 N   0  0  0  0  0  0  0  0  0  0  0  0
    8.8734  -15.3179   23.4115 C   0  0  0  0  0  0  0  0  0  0  0  0
    7.9325  -15.4003   24.2434 O   0  0  0  0  0  0  0  0  0  0  0  0
    7.9487  -13.0750   19.6914 C   0  0  0  0  0  0  0  0  0  0  0  0
    7.9722  -12.8350   18.3180 C   0  0  0  0  0  0  0  0  0  0  0  0
    9.9726  -16.1715   23.5455 N   0  0  0  0  0  0  0  0  0  0  0  0
   10.1456  -17.0005   24.7641 C   0  0  1  0  0  0  0  0  0  0  0  0
   11.2457  -17.9607   24.3852 C   0  0  0  0  0  0  0  0  0  0  0  0
   11.4750  -19.0459   25.3347 C   0  0  0  0  0  0  0  0  0  0  0  0
   11.6380  -20.2177   24.9213 O   0  0  0  0  0  0  0  0  0  0  0  0
   10.5351  -16.1270   25.8671 C   0  0  0  0  0  0  0  0  0  0  0  0
   11.6689  -15.5639   25.8463 O   0  0  0  0  0  0  0  0  0  0  0  0
   11.5118  -18.7755   26.6944 O   0  0  0  0  0  0  0  0  0  0  0  0
    9.2890  -13.8332   28.2996 C   0  0  0  0  0  0  0  0  0  0  0  0
   10.2245  -15.0170   28.0825 C   0  0  2  0  0  0  0  0  0  0  0  0
    9.7193  -15.8494   26.9862 N   0  0  0  0  0  0  0  0  0  0  0  0
   10.3188  -15.7470   29.3302 C   0  0  0  0  0  0  0  0  0  0  0  0
   10.7204  -15.1312   30.3693 O   0  0  0  0  0  0  0  0  0  0  0  0
   10.0060  -17.0762   29.4995 O   0  0  0  0  0  0  0  0  0  0  0  0
  2  1  1  0
  2  3  2  0
  4  3  1  0
  5  4  2  0
  6  5  1  0
  7  6  1  0
  7  9  1  0
  7  8  1  6
  9 10  2  0
  9 13  1  0
 11 12  2  0
 11  5  1  0
 12  2  1  0
 13 14  1  0
 14 15  1  6
 15 16  1  0
 16 17  2  0
 16 20  1  0
 18 14  1  0
 18 23  1  0
 19 18  2  0
 22 21  1  1
 22 23  1  0
 22 24  1  0
 24 26  1  0
 25 24  2  0
M  END
$$$$
