YDA.pdb
     RDKit          3D

 26 26  0  0  1  0  0  0  0  0999 V2000
    5.3269  -10.0503   26.8107 O   0  0  0  0  0  0  0  0  0  0  0  0
    5.9661  -11.2672   26.5496 C   0  0  0  0  0  0  0  0  0  0  0  0
    6.9576  -11.3723   25.5967 C   0  0  0  0  0  0  0  0  0  0  0  0
    7.5898  -12.5724   25.3378 C   0  0  0  0  0  0  0  0  0  0  0  0
    7.2603  -13.7287   26.0211 C   0  0  0  0  0  0  0  0  0  0  0  0
    7.9588  -15.0063   25.7226 C   0  0  0  0  0  0  0  0  0  0  0  0
    7.3216  -15.7358   24.5607 C   0  0  2  0  0  0  0  0  0  0  0  0
    6.1150  -16.3980   24.9694 N   0  0  0  0  0  0  0  0  0  0  0  0
    8.3485  -16.7108   24.0628 C   0  0  0  0  0  0  0  0  0  0  0  0
    8.2624  -17.9040   24.4537 O   0  0  0  0  0  0  0  0  0  0  0  0
    6.2702  -13.6277   26.9736 C   0  0  0  0  0  0  0  0  0  0  0  0
    5.6316  -12.4160   27.2352 C   0  0  0  0  0  0  0  0  0  0  0  0
    9.3845  -16.3559   23.1937 N   0  0  0  0  0  0  0  0  0  0  0  0
   10.4099  -17.3496   22.7893 C   0  0  1  0  0  0  0  0  0  0  0  0
   11.0841  -16.7004   21.6063 C   0  0  0  0  0  0  0  0  0  0  0  0
   12.1130  -17.5092   20.9590 C   0  0  0  0  0  0  0  0  0  0  0  0
   12.9386  -16.9721   20.1842 O   0  0  0  0  0  0  0  0  0  0  0  0
   11.3297  -17.5464   23.9058 C   0  0  0  0  0  0  0  0  0  0  0  0
   12.1412  -16.6251   24.2151 O   0  0  0  0  0  0  0  0  0  0  0  0
   12.1734  -18.8728   21.2047 O   0  0  0  0  0  0  0  0  0  0  0  0
   11.7532  -19.3357   27.0295 C   0  0  0  0  0  0  0  0  0  0  0  0
   12.4049  -18.8634   25.7351 C   0  0  2  0  0  0  0  0  0  0  0  0
   11.3829  -18.7174   24.6938 N   0  0  0  0  0  0  0  0  0  0  0  0
   13.4271  -19.8238   25.3728 C   0  0  0  0  0  0  0  0  0  0  0  0
   14.6185  -19.4112   25.1983 O   0  0  0  0  0  0  0  0  0  0  0  0
   13.2239  -21.1733   25.1967 O   0  0  0  0  0  0  0  0  0  0  0  0
  2  1  1  0
  2  3  2  0
  4  3  1  0
  5  4  2  0
  6  5  1  0
  7  6  1  0
  7  9  1  0
  7  8  1  1
  9 10  2  0
  9 13  1  0
 11 12  2  0
 11  5  1  0
 12  2  1  0
 13 14  1  0
 14 15  1  6
 15 16  1  0
 16 17  2  0
 16 20  1  0
 18 14  1  0
 18 23  1  0
 19 18  2  0
 22 21  1  1
 22 23  1  0
 22 24  1  0
 24 26  1  0
 25 24  2  0
M  END
$$$$
