TSV.pdb
     RDKit          3D

 21 20  0  0  1  0  0  0  0  0999 V2000
   17.2621   -6.7314  -18.9561 C   0  0  0  0  0  0  0  0  0  0  0  0
   16.0118   -7.0582  -18.1832 C   0  0  1  0  0  0  0  0  0  0  0  0
   14.9372   -7.1314  -19.0497 O   0  0  0  0  0  0  0  0  0  0  0  0
   16.1462   -8.3495  -17.4003 C   0  0  2  0  0  0  0  0  0  0  0  0
   14.9019   -8.6864  -16.7462 N   0  0  0  0  0  0  0  0  0  0  0  0
   17.2360   -8.1194  -16.3973 C   0  0  0  0  0  0  0  0  0  0  0  0
   17.0231   -7.3292  -15.4533 O   0  0  0  0  0  0  0  0  0  0  0  0
   20.0510  -10.8024  -14.8981 O   0  0  0  0  0  0  0  0  0  0  0  0
   20.5601   -9.7207  -15.5722 C   0  0  0  0  0  0  0  0  0  0  0  0
   19.5603   -8.5931  -15.5498 C   0  0  2  0  0  0  0  0  0  0  0  0
   18.4851   -8.7506  -16.4689 N   0  0  0  0  0  0  0  0  0  0  0  0
   20.2224   -7.2672  -15.6650 C   0  0  0  0  0  0  0  0  0  0  0  0
   20.5652   -6.8919  -16.8137 O   0  0  0  0  0  0  0  0  0  0  0  0
   20.6772   -2.7244  -14.0919 C   0  0  0  0  0  0  0  0  0  0  0  0
   20.1223   -4.1053  -14.1667 C   0  0  1  0  0  0  0  0  0  0  0  0
   18.9238   -4.1651  -15.0948 C   0  0  0  0  0  0  0  0  0  0  0  0
   21.1103   -5.1325  -14.6592 C   0  0  2  0  0  0  0  0  0  0  0  0
   20.4798   -6.4263  -14.5703 N   0  0  0  0  0  0  0  0  0  0  0  0
   22.3766   -5.0944  -13.8496 C   0  0  0  0  0  0  0  0  0  0  0  0
   22.5242   -5.7817  -12.8059 O   0  0  0  0  0  0  0  0  0  0  0  0
   23.4432   -4.2911  -14.2260 O   0  0  0  0  0  0  0  0  0  0  0  0
  2  4  1  0
  2  1  1  6
  3  2  1  0
  4  6  1  0
  4  5  1  1
  6 11  1  0
  7  6  2  0
  9  8  1  0
 10 12  1  0
 10  9  1  6
 11 10  1  0
 12 13  2  0
 15 14  1  6
 16 15  1  0
 17 15  1  0
 18 12  1  0
 17 18  1  1
 19 21  1  0
 19 17  1  0
 20 19  2  0
M  END
$$$$
