TSV.pdb
     RDKit          3D

 21 20  0  0  1  0  0  0  0  0999 V2000
   15.6307  -11.0307   -9.9953 C   0  0  0  0  0  0  0  0  0  0  0  0
   14.1542  -11.3110   -9.9007 C   0  0  1  0  0  0  0  0  0  0  0  0
   13.9557  -12.6139   -9.4834 O   0  0  0  0  0  0  0  0  0  0  0  0
   13.4489  -10.3459   -8.9683 C   0  0  2  0  0  0  0  0  0  0  0  0
   12.0438  -10.6683   -8.8610 N   0  0  0  0  0  0  0  0  0  0  0  0
   13.6440   -8.9799   -9.5538 C   0  0  0  0  0  0  0  0  0  0  0  0
   12.7919   -8.5466  -10.3583 O   0  0  0  0  0  0  0  0  0  0  0  0
   15.7309   -6.0223   -7.7042 O   0  0  0  0  0  0  0  0  0  0  0  0
   14.9101   -5.7558   -8.7714 C   0  0  0  0  0  0  0  0  0  0  0  0
   15.0076   -6.8738   -9.7773 C   0  0  2  0  0  0  0  0  0  0  0  0
   14.7397   -8.1644   -9.2405 N   0  0  0  0  0  0  0  0  0  0  0  0
   16.2853   -6.8230  -10.5355 C   0  0  0  0  0  0  0  0  0  0  0  0
   17.3375   -7.1084   -9.9117 O   0  0  0  0  0  0  0  0  0  0  0  0
   17.4831   -8.7900  -13.2911 C   0  0  0  0  0  0  0  0  0  0  0  0
   17.5565   -7.3762  -13.7561 C   0  0  1  0  0  0  0  0  0  0  0  0
   16.3605   -7.0198  -14.6187 C   0  0  0  0  0  0  0  0  0  0  0  0
   17.6048   -6.3685  -12.6353 C   0  0  2  0  0  0  0  0  0  0  0  0
   16.3730   -6.4771  -11.8936 N   0  0  0  0  0  0  0  0  0  0  0  0
   17.7897   -4.9755  -13.1700 C   0  0  0  0  0  0  0  0  0  0  0  0
   18.8902   -4.5769  -13.6319 O   0  0  0  0  0  0  0  0  0  0  0  0
   16.7425   -4.0657  -13.1750 O   0  0  0  0  0  0  0  0  0  0  0  0
  2  4  1  0
  2  1  1  1
  3  2  1  0
  4  6  1  0
  4  5  1  6
  6 11  1  0
  7  6  2  0
  9  8  1  0
 10 12  1  0
 10  9  1  1
 11 10  1  0
 12 13  2  0
 15 14  1  1
 16 15  1  0
 17 15  1  0
 18 12  1  0
 17 18  1  6
 19 21  1  0
 19 17  1  0
 20 19  2  0
M  END
$$$$
