TSV.pdb
     RDKit          3D

 21 20  0  0  1  0  0  0  0  0999 V2000
   17.0658   -7.5726  -18.6107 C   0  0  0  0  0  0  0  0  0  0  0  0
   16.1627   -8.3208  -17.6662 C   0  0  1  0  0  0  0  0  0  0  0  0
   14.9695   -8.6133  -18.3000 O   0  0  0  0  0  0  0  0  0  0  0  0
   16.8076   -9.5901  -17.1454 C   0  0  2  0  0  0  0  0  0  0  0  0
   15.8689  -10.3593  -16.3602 N   0  0  0  0  0  0  0  0  0  0  0  0
   17.9757   -9.1550  -16.3129 C   0  0  0  0  0  0  0  0  0  0  0  0
   17.7551   -8.5423  -15.2467 O   0  0  0  0  0  0  0  0  0  0  0  0
   21.6305  -11.0075  -15.5663 O   0  0  0  0  0  0  0  0  0  0  0  0
   21.6931   -9.8188  -16.2494 C   0  0  0  0  0  0  0  0  0  0  0  0
   20.4639   -8.9987  -15.9532 C   0  0  2  0  0  0  0  0  0  0  0  0
   19.3063   -9.4040  -16.6752 N   0  0  0  0  0  0  0  0  0  0  0  0
   20.7318   -7.5414  -16.0722 C   0  0  0  0  0  0  0  0  0  0  0  0
   20.7366   -7.0486  -17.2276 O   0  0  0  0  0  0  0  0  0  0  0  0
   20.1067   -3.0752  -14.7107 C   0  0  0  0  0  0  0  0  0  0  0  0
   19.9578   -4.5569  -14.7664 C   0  0  1  0  0  0  0  0  0  0  0  0
   18.9585   -4.9679  -15.8313 C   0  0  0  0  0  0  0  0  0  0  0  0
   21.2429   -5.2870  -15.0655 C   0  0  2  0  0  0  0  0  0  0  0  0
   20.9761   -6.7011  -14.9740 N   0  0  0  0  0  0  0  0  0  0  0  0
   22.3290   -4.8813  -14.1082 C   0  0  0  0  0  0  0  0  0  0  0  0
   22.5601   -5.5203  -13.0491 O   0  0  0  0  0  0  0  0  0  0  0  0
   23.1272   -3.7746  -14.3584 O   0  0  0  0  0  0  0  0  0  0  0  0
  2  4  1  0
  2  1  1  6
  3  2  1  0
  4  6  1  0
  4  5  1  1
  6 11  1  0
  7  6  2  0
  9  8  1  0
 10 12  1  0
 10  9  1  6
 11 10  1  0
 12 13  2  0
 15 14  1  6
 16 15  1  0
 17 15  1  0
 18 12  1  0
 17 18  1  1
 19 21  1  0
 19 17  1  0
 20 19  2  0
M  END
$$$$
