TSV.pdb
     RDKit          3D

 21 20  0  0  1  0  0  0  0  0999 V2000
   15.7573  -14.5935  -17.0536 C   0  0  0  0  0  0  0  0  0  0  0  0
   16.8709  -13.6092  -16.8112 C   0  0  1  0  0  0  0  0  0  0  0  0
   17.4153  -13.8247  -15.5589 O   0  0  0  0  0  0  0  0  0  0  0  0
   17.9476  -13.6925  -17.8752 C   0  0  2  0  0  0  0  0  0  0  0  0
   18.6319  -14.9645  -17.8162 N   0  0  0  0  0  0  0  0  0  0  0  0
   18.8921  -12.5606  -17.6045 C   0  0  0  0  0  0  0  0  0  0  0  0
   19.9187  -12.7867  -16.9293 O   0  0  0  0  0  0  0  0  0  0  0  0
   20.1098   -7.9478  -18.5196 O   0  0  0  0  0  0  0  0  0  0  0  0
   19.1619   -8.9259  -18.6882 C   0  0  0  0  0  0  0  0  0  0  0  0
   19.5400  -10.1424  -17.8829 C   0  0  2  0  0  0  0  0  0  0  0  0
   18.6772  -11.2580  -18.0743 N   0  0  0  0  0  0  0  0  0  0  0  0
   19.7397   -9.8127  -16.4473 C   0  0  0  0  0  0  0  0  0  0  0  0
   18.7384   -9.8919  -15.6929 O   0  0  0  0  0  0  0  0  0  0  0  0
   21.9489  -11.3644  -14.0127 C   0  0  0  0  0  0  0  0  0  0  0  0
   22.2601   -9.9083  -13.9551 C   0  0  1  0  0  0  0  0  0  0  0  0
   23.5336   -9.5892  -14.7151 C   0  0  0  0  0  0  0  0  0  0  0  0
   21.1757   -9.0309  -14.5280 C   0  0  2  0  0  0  0  0  0  0  0  0
   20.9731   -9.4230  -15.9008 N   0  0  0  0  0  0  0  0  0  0  0  0
   21.5512   -7.5781  -14.4333 C   0  0  0  0  0  0  0  0  0  0  0  0
   21.5716   -6.9627  -13.3360 O   0  0  0  0  0  0  0  0  0  0  0  0
   21.8934   -6.8519  -15.5647 O   0  0  0  0  0  0  0  0  0  0  0  0
  2  4  1  0
  2  1  1  6
  3  2  1  0
  4  6  1  0
  4  5  1  1
  6 11  1  0
  7  6  2  0
  9  8  1  0
 10 12  1  0
 10  9  1  6
 11 10  1  0
 12 13  2  0
 15 14  1  6
 16 15  1  0
 17 15  1  0
 18 12  1  0
 17 18  1  6
 19 21  1  0
 19 17  1  0
 20 19  2  0
M  END
$$$$
