TSV.pdb
     RDKit          3D

 21 20  0  0  1  0  0  0  0  0999 V2000
   24.3748   -9.7046  -16.9766 C   0  0  0  0  0  0  0  0  0  0  0  0
   23.5728  -10.8482  -17.5393 C   0  0  1  0  0  0  0  0  0  0  0  0
   24.4072  -11.9228  -17.7845 O   0  0  0  0  0  0  0  0  0  0  0  0
   22.4413  -11.2593  -16.6179 C   0  0  2  0  0  0  0  0  0  0  0  0
   21.7622  -12.4292  -17.1275 N   0  0  0  0  0  0  0  0  0  0  0  0
   21.5115  -10.0857  -16.5473 C   0  0  0  0  0  0  0  0  0  0  0  0
   20.7779   -9.8439  -17.5293 O   0  0  0  0  0  0  0  0  0  0  0  0
   20.4628   -8.3282  -12.9292 O   0  0  0  0  0  0  0  0  0  0  0  0
   19.6751   -8.2095  -14.0469 C   0  0  0  0  0  0  0  0  0  0  0  0
   20.5456   -8.1381  -15.2751 C   0  0  2  0  0  0  0  0  0  0  0  0
   21.4263   -9.2454  -15.4291 N   0  0  0  0  0  0  0  0  0  0  0  0
   21.2457   -6.8309  -15.3790 C   0  0  0  0  0  0  0  0  0  0  0  0
   22.3864   -6.7450  -14.8601 O   0  0  0  0  0  0  0  0  0  0  0  0
   22.3054   -4.9888  -18.4015 C   0  0  0  0  0  0  0  0  0  0  0  0
   21.4307   -4.0823  -17.6054 C   0  0  1  0  0  0  0  0  0  0  0  0
   20.0055   -4.0997  -18.1251 C   0  0  0  0  0  0  0  0  0  0  0  0
   21.3674   -4.4301  -16.1395 C   0  0  2  0  0  0  0  0  0  0  0  0
   20.7037   -5.7045  -16.0187 N   0  0  0  0  0  0  0  0  0  0  0  0
   20.6381   -3.3682  -15.3643 C   0  0  0  0  0  0  0  0  0  0  0  0
   21.1727   -2.2672  -15.0723 O   0  0  0  0  0  0  0  0  0  0  0  0
   19.3331   -3.5633  -14.9361 O   0  0  0  0  0  0  0  0  0  0  0  0
  2  4  1  0
  2  1  1  1
  3  2  1  0
  4  6  1  0
  4  5  1  6
  6 11  1  0
  7  6  2  0
  9  8  1  0
 10 12  1  0
 10  9  1  1
 11 10  1  0
 12 13  2  0
 15 14  1  6
 16 15  1  0
 17 15  1  0
 18 12  1  0
 17 18  1  6
 19 21  1  0
 19 17  1  0
 20 19  2  0
M  END
$$$$
