TSV.pdb
     RDKit          3D

 21 20  0  0  1  0  0  0  0  0999 V2000
   23.1214  -21.0768  -12.6371 C   0  0  0  0  0  0  0  0  0  0  0  0
   23.4271  -20.6076  -11.2393 C   0  0  1  0  0  0  0  0  0  0  0  0
   22.5122  -21.1519  -10.3573 O   0  0  0  0  0  0  0  0  0  0  0  0
   24.8399  -20.9584  -10.8159 C   0  0  2  0  0  0  0  0  0  0  0  0
   25.0654  -20.6043   -9.4326 N   0  0  0  0  0  0  0  0  0  0  0  0
   25.7520  -20.1894  -11.7234 C   0  0  0  0  0  0  0  0  0  0  0  0
   25.9144  -18.9685  -11.5137 O   0  0  0  0  0  0  0  0  0  0  0  0
   27.6469  -21.9985  -15.0868 O   0  0  0  0  0  0  0  0  0  0  0  0
   28.2638  -20.9634  -14.4298 C   0  0  0  0  0  0  0  0  0  0  0  0
   27.2269  -20.0963  -13.7633 C   0  0  2  0  0  0  0  0  0  0  0  0
   26.4326  -20.7771  -12.7982 N   0  0  0  0  0  0  0  0  0  0  0  0
   26.4085  -19.3532  -14.7571 C   0  0  0  0  0  0  0  0  0  0  0  0
   25.2734  -19.8163  -15.0310 O   0  0  0  0  0  0  0  0  0  0  0  0
   25.2282  -15.7430  -14.8956 C   0  0  0  0  0  0  0  0  0  0  0  0
   26.0505  -16.0410  -16.1020 C   0  0  1  0  0  0  0  0  0  0  0  0
   27.4807  -15.5685  -15.9211 C   0  0  0  0  0  0  0  0  0  0  0  0
   26.1134  -17.5072  -16.4488 C   0  0  2  0  0  0  0  0  0  0  0  0
   26.8346  -18.1772  -15.3952 N   0  0  0  0  0  0  0  0  0  0  0  0
   26.7833  -17.7186  -17.7781 C   0  0  0  0  0  0  0  0  0  0  0  0
   27.9807  -18.0938  -17.8715 O   0  0  0  0  0  0  0  0  0  0  0  0
   26.0996  -17.5059  -18.9663 O   0  0  0  0  0  0  0  0  0  0  0  0
  2  4  1  0
  2  1  1  6
  3  2  1  0
  4  6  1  0
  4  5  1  1
  6 11  1  0
  7  6  2  0
  9  8  1  0
 10 12  1  0
 10  9  1  6
 11 10  1  0
 12 13  2  0
 15 14  1  1
 16 15  1  0
 17 15  1  0
 18 12  1  0
 17 18  1  1
 19 21  1  0
 19 17  1  0
 20 19  2  0
M  END
$$$$
