TSV.pdb
     RDKit          3D

 21 20  0  0  1  0  0  0  0  0999 V2000
   13.7847  -10.7424  -13.4206 C   0  0  0  0  0  0  0  0  0  0  0  0
   14.4210  -11.9466  -12.7782 C   0  0  1  0  0  0  0  0  0  0  0  0
   13.9992  -13.0936  -13.4244 O   0  0  0  0  0  0  0  0  0  0  0  0
   15.9347  -11.8641  -12.7856 C   0  0  2  0  0  0  0  0  0  0  0  0
   16.5191  -13.0904  -12.2913 N   0  0  0  0  0  0  0  0  0  0  0  0
   16.2951  -10.7042  -11.9072 C   0  0  0  0  0  0  0  0  0  0  0  0
   16.1210  -10.8107  -10.6746 O   0  0  0  0  0  0  0  0  0  0  0  0
   17.5553   -6.9633  -13.4957 O   0  0  0  0  0  0  0  0  0  0  0  0
   18.1228   -7.4190  -12.3321 C   0  0  0  0  0  0  0  0  0  0  0  0
   17.1702   -8.3576  -11.6373 C   0  0  2  0  0  0  0  0  0  0  0  0
   16.8193   -9.5037  -12.4049 N   0  0  0  0  0  0  0  0  0  0  0  0
   15.9826   -7.6413  -11.1024 C   0  0  0  0  0  0  0  0  0  0  0  0
   14.9619   -7.5917  -11.8328 O   0  0  0  0  0  0  0  0  0  0  0  0
   13.7557   -8.1604   -8.2374 C   0  0  0  0  0  0  0  0  0  0  0  0
   14.3642   -6.8104   -8.0711 C   0  0  1  0  0  0  0  0  0  0  0  0
   15.5437   -6.8542   -7.1180 C   0  0  0  0  0  0  0  0  0  0  0  0
   14.8630   -6.2047   -9.3589 C   0  0  2  0  0  0  0  0  0  0  0  0
   15.9456   -7.0267   -9.8404 N   0  0  0  0  0  0  0  0  0  0  0  0
   15.3168   -4.7870   -9.1478 C   0  0  0  0  0  0  0  0  0  0  0  0
   14.5029   -3.8419   -8.9815 O   0  0  0  0  0  0  0  0  0  0  0  0
   16.6655   -4.4623   -9.1279 O   0  0  0  0  0  0  0  0  0  0  0  0
  2  4  1  0
  2  1  1  6
  3  2  1  0
  4  6  1  0
  4  5  1  1
  6 11  1  0
  7  6  2  0
  9  8  1  0
 10 12  1  0
 10  9  1  6
 11 10  1  0
 12 13  2  0
 15 14  1  6
 16 15  1  0
 17 15  1  0
 18 12  1  0
 17 18  1  1
 19 21  1  0
 19 17  1  0
 20 19  2  0
M  END
$$$$
