TSV.pdb
     RDKit          3D

 21 20  0  0  1  0  0  0  0  0999 V2000
   17.6842   -8.5753  -17.8415 C   0  0  0  0  0  0  0  0  0  0  0  0
   16.7975   -9.3526  -16.9051 C   0  0  1  0  0  0  0  0  0  0  0  0
   15.8192  -10.0073  -17.6299 O   0  0  0  0  0  0  0  0  0  0  0  0
   17.5821  -10.3418  -16.0658 C   0  0  2  0  0  0  0  0  0  0  0  0
   16.6938  -11.1667  -15.2784 N   0  0  0  0  0  0  0  0  0  0  0  0
   18.4792   -9.5250  -15.1856 C   0  0  0  0  0  0  0  0  0  0  0  0
   17.9636   -8.6681  -14.4367 O   0  0  0  0  0  0  0  0  0  0  0  0
   22.6596   -9.8614  -15.4688 O   0  0  0  0  0  0  0  0  0  0  0  0
   22.1468   -9.5333  -14.2387 C   0  0  0  0  0  0  0  0  0  0  0  0
   20.7913   -8.8967  -14.4081 C   0  0  2  0  0  0  0  0  0  0  0  0
   19.8720   -9.6780  -15.1632 N   0  0  0  0  0  0  0  0  0  0  0  0
   20.8968   -7.4992  -14.9033 C   0  0  0  0  0  0  0  0  0  0  0  0
   20.8859   -7.3260  -16.1474 O   0  0  0  0  0  0  0  0  0  0  0  0
   20.1460   -2.7662  -14.4775 C   0  0  0  0  0  0  0  0  0  0  0  0
   20.0111   -4.2176  -14.1685 C   0  0  1  0  0  0  0  0  0  0  0  0
   18.8437   -4.8316  -14.9179 C   0  0  0  0  0  0  0  0  0  0  0  0
   21.2325   -5.0303  -14.5171 C   0  0  2  0  0  0  0  0  0  0  0  0
   21.0065   -6.3800  -14.0624 N   0  0  0  0  0  0  0  0  0  0  0  0
   22.4660   -4.4488  -13.8839 C   0  0  0  0  0  0  0  0  0  0  0  0
   22.7692   -4.6702  -12.6829 O   0  0  0  0  0  0  0  0  0  0  0  0
   23.3271   -3.6366  -14.6074 O   0  0  0  0  0  0  0  0  0  0  0  0
  2  4  1  0
  2  1  1  6
  3  2  1  0
  4  6  1  0
  4  5  1  1
  6 11  1  0
  7  6  2  0
  9  8  1  0
 10 12  1  0
 10  9  1  6
 11 10  1  0
 12 13  2  0
 15 14  1  6
 16 15  1  0
 17 15  1  0
 18 12  1  0
 17 18  1  1
 19 21  1  0
 19 17  1  0
 20 19  2  0
M  END
$$$$
