TSV.pdb
     RDKit          3D

 21 20  0  0  1  0  0  0  0  0999 V2000
   16.9279  -10.4664  -18.8659 C   0  0  0  0  0  0  0  0  0  0  0  0
   17.5832   -9.8958  -17.6361 C   0  0  1  0  0  0  0  0  0  0  0  0
   16.6210   -9.6277  -16.6804 O   0  0  0  0  0  0  0  0  0  0  0  0
   18.6423  -10.8223  -17.0720 C   0  0  2  0  0  0  0  0  0  0  0  0
   18.0365  -11.9806  -16.4547 N   0  0  0  0  0  0  0  0  0  0  0  0
   19.4106  -10.0176  -16.0676 C   0  0  0  0  0  0  0  0  0  0  0  0
   18.7762   -9.3110  -15.2557 O   0  0  0  0  0  0  0  0  0  0  0  0
   23.6107   -9.7548  -16.2570 O   0  0  0  0  0  0  0  0  0  0  0  0
   23.0382   -9.6787  -15.0120 C   0  0  0  0  0  0  0  0  0  0  0  0
   21.6099   -9.2146  -15.1384 C   0  0  2  0  0  0  0  0  0  0  0  0
   20.8101  -10.0206  -15.9965 N   0  0  0  0  0  0  0  0  0  0  0  0
   21.5278   -7.7682  -15.4710 C   0  0  0  0  0  0  0  0  0  0  0  0
   21.1947   -7.4642  -16.6433 O   0  0  0  0  0  0  0  0  0  0  0  0
   19.3530   -5.2530  -14.1840 C   0  0  0  0  0  0  0  0  0  0  0  0
   20.3554   -4.9788  -15.2519 C   0  0  1  0  0  0  0  0  0  0  0  0
   20.3576   -3.5117  -15.6382 C   0  0  0  0  0  0  0  0  0  0  0  0
   21.7692   -5.3327  -14.8650 C   0  0  2  0  0  0  0  0  0  0  0  0
   21.8001   -6.7404  -14.5537 N   0  0  0  0  0  0  0  0  0  0  0  0
   22.2288   -4.5122  -13.6919 C   0  0  0  0  0  0  0  0  0  0  0  0
   22.1145   -4.9176  -12.5063 O   0  0  0  0  0  0  0  0  0  0  0  0
   22.8031   -3.2624  -13.8735 O   0  0  0  0  0  0  0  0  0  0  0  0
  2  4  1  0
  2  1  1  6
  3  2  1  0
  4  6  1  0
  4  5  1  1
  6 11  1  0
  7  6  2  0
  9  8  1  0
 10 12  1  0
 10  9  1  6
 11 10  1  0
 12 13  2  0
 15 14  1  1
 16 15  1  0
 17 15  1  0
 18 12  1  0
 17 18  1  1
 19 21  1  0
 19 17  1  0
 20 19  2  0
M  END
$$$$
