TSV.pdb
     RDKit          3D

 21 20  0  0  1  0  0  0  0  0999 V2000
   18.2135  -10.1727  -19.6134 C   0  0  0  0  0  0  0  0  0  0  0  0
   17.1200  -11.1878  -19.4103 C   0  0  1  0  0  0  0  0  0  0  0  0
   17.2451  -12.1973  -20.3465 O   0  0  0  0  0  0  0  0  0  0  0  0
   17.1305  -11.7651  -18.0085 C   0  0  2  0  0  0  0  0  0  0  0  0
   16.1615  -12.8304  -17.8836 N   0  0  0  0  0  0  0  0  0  0  0  0
   16.8037  -10.6299  -17.0858 C   0  0  0  0  0  0  0  0  0  0  0  0
   15.7279  -10.0163  -17.2501 O   0  0  0  0  0  0  0  0  0  0  0  0
   17.4417  -10.1783  -13.1157 O   0  0  0  0  0  0  0  0  0  0  0  0
   18.1020   -9.2215  -13.8451 C   0  0  0  0  0  0  0  0  0  0  0  0
   17.4645   -9.0908  -15.2044 C   0  0  2  0  0  0  0  0  0  0  0  0
   17.6502  -10.2238  -16.0455 N   0  0  0  0  0  0  0  0  0  0  0  0
   17.8414   -7.8160  -15.8696 C   0  0  0  0  0  0  0  0  0  0  0  0
   18.8009   -7.8501  -16.6796 O   0  0  0  0  0  0  0  0  0  0  0  0
   16.1304   -5.8536  -18.2965 C   0  0  0  0  0  0  0  0  0  0  0  0
   16.3730   -4.9371  -17.1469 C   0  0  1  0  0  0  0  0  0  0  0  0
   15.1549   -4.8523  -16.2467 C   0  0  0  0  0  0  0  0  0  0  0  0
   17.5342   -5.3468  -16.2764 C   0  0  2  0  0  0  0  0  0  0  0  0
   17.1882   -6.5942  -15.6411 N   0  0  0  0  0  0  0  0  0  0  0  0
   17.8406   -4.2887  -15.2530 C   0  0  0  0  0  0  0  0  0  0  0  0
   17.3818   -4.3376  -14.0824 O   0  0  0  0  0  0  0  0  0  0  0  0
   18.6501   -3.2057  -15.5633 O   0  0  0  0  0  0  0  0  0  0  0  0
  2  4  1  0
  2  1  1  1
  3  2  1  0
  4  6  1  0
  4  5  1  6
  6 11  1  0
  7  6  2  0
  9  8  1  0
 10 12  1  0
 10  9  1  1
 11 10  1  0
 12 13  2  0
 15 14  1  6
 16 15  1  0
 17 15  1  0
 18 12  1  0
 17 18  1  1
 19 21  1  0
 19 17  1  0
 20 19  2  0
M  END
$$$$
