TSV.pdb
     RDKit          3D

 21 20  0  0  1  0  0  0  0  0999 V2000
   19.0336  -11.9769  -14.9670 C   0  0  0  0  0  0  0  0  0  0  0  0
   18.9955  -12.5585  -16.3555 C   0  0  1  0  0  0  0  0  0  0  0  0
   18.8403  -13.9300  -16.2793 O   0  0  0  0  0  0  0  0  0  0  0  0
   17.8926  -11.9496  -17.1989 C   0  0  2  0  0  0  0  0  0  0  0  0
   17.8361  -12.5748  -18.5011 N   0  0  0  0  0  0  0  0  0  0  0  0
   18.2129  -10.4900  -17.3166 C   0  0  0  0  0  0  0  0  0  0  0  0
   19.3173  -10.1568  -17.7965 O   0  0  0  0  0  0  0  0  0  0  0  0
   16.7441   -5.8923  -16.8555 O   0  0  0  0  0  0  0  0  0  0  0  0
   16.3771   -7.2141  -16.8137 C   0  0  0  0  0  0  0  0  0  0  0  0
   17.6059   -8.0838  -16.8848 C   0  0  2  0  0  0  0  0  0  0  0  0
   17.3298   -9.4797  -16.9128 N   0  0  0  0  0  0  0  0  0  0  0  0
   18.6011   -7.7177  -15.8431 C   0  0  0  0  0  0  0  0  0  0  0  0
   18.4512   -8.2190  -14.7011 O   0  0  0  0  0  0  0  0  0  0  0  0
   23.0562   -6.1770  -14.6067 C   0  0  0  0  0  0  0  0  0  0  0  0
   21.9940   -6.7198  -15.4998 C   0  0  1  0  0  0  0  0  0  0  0  0
   22.0826   -8.2308  -15.6018 C   0  0  0  0  0  0  0  0  0  0  0  0
   20.5930   -6.3919  -15.0486 C   0  0  2  0  0  0  0  0  0  0  0  0
   19.6839   -6.8526  -16.0686 N   0  0  0  0  0  0  0  0  0  0  0  0
   20.4339   -4.9154  -14.8132 C   0  0  0  0  0  0  0  0  0  0  0  0
   20.9242   -4.3419  -13.8063 O   0  0  0  0  0  0  0  0  0  0  0  0
   19.7326   -4.1194  -15.7072 O   0  0  0  0  0  0  0  0  0  0  0  0
  2  4  1  0
  2  1  1  1
  3  2  1  0
  4  6  1  0
  4  5  1  6
  6 11  1  0
  7  6  2  0
  9  8  1  0
 10 12  1  0
 10  9  1  1
 11 10  1  0
 12 13  2  0
 15 14  1  1
 16 15  1  0
 17 15  1  0
 18 12  1  0
 17 18  1  6
 19 21  1  0
 19 17  1  0
 20 19  2  0
M  END
$$$$
