TSV.pdb
     RDKit          3D

 21 20  0  0  1  0  0  0  0  0999 V2000
   21.6639  -10.7557    6.2074 C   0  0  0  0  0  0  0  0  0  0  0  0
   21.2778  -11.6474    7.3578 C   0  0  1  0  0  0  0  0  0  0  0  0
   21.8738  -11.1906    8.5184 O   0  0  0  0  0  0  0  0  0  0  0  0
   19.7745  -11.7311    7.5352 C   0  0  2  0  0  0  0  0  0  0  0  0
   19.2509  -10.4972    8.0766 N   0  0  0  0  0  0  0  0  0  0  0  0
   19.5263  -12.8765    8.4697 C   0  0  0  0  0  0  0  0  0  0  0  0
   19.4932  -12.6500    9.6979 O   0  0  0  0  0  0  0  0  0  0  0  0
   18.1351  -16.5897    7.1095 O   0  0  0  0  0  0  0  0  0  0  0  0
   17.9324  -16.1816    8.4041 C   0  0  0  0  0  0  0  0  0  0  0  0
   19.0899  -15.3274    8.8534 C   0  0  2  0  0  0  0  0  0  0  0  0
   19.3294  -14.1921    8.0292 N   0  0  0  0  0  0  0  0  0  0  0  0
   20.3153  -16.1367    9.0835 C   0  0  0  0  0  0  0  0  0  0  0  0
   21.0907  -16.2986    8.1086 O   0  0  0  0  0  0  0  0  0  0  0  0
   23.4338  -18.2217   12.3050 C   0  0  0  0  0  0  0  0  0  0  0  0
   22.2777  -17.3593   11.9304 C   0  0  1  0  0  0  0  0  0  0  0  0
   22.6412  -15.8888   12.0131 C   0  0  0  0  0  0  0  0  0  0  0  0
   21.7613  -17.6059   10.5353 C   0  0  2  0  0  0  0  0  0  0  0  0
   20.6443  -16.7203   10.3176 N   0  0  0  0  0  0  0  0  0  0  0  0
   21.3519  -19.0417   10.3577 C   0  0  0  0  0  0  0  0  0  0  0  0
   20.2165  -19.4610   10.7017 O   0  0  0  0  0  0  0  0  0  0  0  0
   22.2199  -19.9701    9.8014 O   0  0  0  0  0  0  0  0  0  0  0  0
  2  4  1  0
  2  1  1  6
  3  2  1  0
  4  6  1  0
  4  5  1  1
  6 11  1  0
  7  6  2  0
  9  8  1  0
 10 12  1  0
 10  9  1  6
 11 10  1  0
 12 13  2  0
 15 14  1  6
 16 15  1  0
 17 15  1  0
 18 12  1  0
 17 18  1  1
 19 21  1  0
 19 17  1  0
 20 19  2  0
M  END
$$$$
