MVF.pdb
     RDKit          3D

 27 27  0  0  1  0  0  0  0  0999 V2000
   22.2826  -27.5612  -20.6998 C   0  0  0  0  0  0  0  0  0  0  0  0
   23.4121  -27.1822  -22.0276 S   0  0  0  0  0  0  0  0  0  0  0  0
   25.1153  -27.2110  -21.5083 C   0  0  0  0  0  0  0  0  0  0  0  0
   25.5809  -28.4877  -20.8688 C   0  0  0  0  0  0  0  0  0  0  0  0
   26.9907  -28.4761  -20.3666 C   0  0  2  0  0  0  0  0  0  0  0  0
   27.9027  -28.3757  -21.4953 N   0  0  0  0  0  0  0  0  0  0  0  0
   27.2365  -29.7837  -19.6610 C   0  0  0  0  0  0  0  0  0  0  0  0
   27.6399  -30.7342  -20.3367 O   0  0  0  0  0  0  0  0  0  0  0  0
   27.8086  -31.6966  -15.0931 C   0  0  0  0  0  0  0  0  0  0  0  0
   27.8366  -30.6972  -16.2248 C   0  0  2  0  0  0  0  0  0  0  0  0
   27.5835  -29.2895  -15.7169 C   0  0  0  0  0  0  0  0  0  0  0  0
   27.1635  -31.0700  -17.4677 C   0  0  2  0  0  0  0  0  0  0  0  0
   27.0034  -29.8793  -18.2783 N   0  0  0  0  0  0  0  0  0  0  0  0
   25.9281  -31.8346  -17.4599 C   0  0  0  0  0  0  0  0  0  0  0  0
   24.8536  -31.1909  -17.1750 O   0  0  0  0  0  0  0  0  0  0  0  0
   25.7668  -33.1973  -17.7288 N   0  0  0  0  0  0  0  0  0  0  0  0
   24.4507  -33.8411  -17.6161 C   0  0  1  0  0  0  0  0  0  0  0  0
   24.3763  -35.0253  -18.5167 C   0  0  0  0  0  0  0  0  0  0  0  0
   23.0551  -35.6623  -18.4495 C   0  0  0  0  0  0  0  0  0  0  0  0
   21.9593  -35.1725  -19.1237 C   0  0  0  0  0  0  0  0  0  0  0  0
   20.7115  -35.7773  -19.0661 C   0  0  0  0  0  0  0  0  0  0  0  0
   20.5435  -36.9202  -18.3045 C   0  0  0  0  0  0  0  0  0  0  0  0
   21.6143  -37.4368  -17.6186 C   0  0  0  0  0  0  0  0  0  0  0  0
   22.8420  -36.8189  -17.6916 C   0  0  0  0  0  0  0  0  0  0  0  0
   24.2186  -34.2414  -16.2184 C   0  0  0  0  0  0  0  0  0  0  0  0
   22.9755  -34.0135  -15.6528 O   0  0  0  0  0  0  0  0  0  0  0  0
   25.1010  -34.7758  -15.5328 O   0  0  0  0  0  0  0  0  0  0  0  0
  2  3  1  0
  2  1  1  0
  4  3  1  0
  4  5  1  0
  5  6  1  6
  7  5  1  0
  7  8  2  0
 10  9  1  1
 11 10  1  0
 12 10  1  0
 12 13  1  1
 13  7  1  0
 14 12  1  0
 15 14  2  0
 16 14  1  0
 17 18  1  6
 17 16  1  0
 18 19  1  0
 19 24  2  0
 20 21  2  0
 20 19  1  0
 21 22  1  0
 22 23  2  0
 24 23  1  0
 25 26  1  0
 25 17  1  0
 27 25  2  0
M  END
$$$$
