MVF.pdb
     RDKit          3D

 27 27  0  0  1  0  0  0  0  0999 V2000
   32.8209  -24.9988  -20.7875 C   0  0  0  0  0  0  0  0  0  0  0  0
   31.7987  -26.4528  -20.9404 S   0  0  0  0  0  0  0  0  0  0  0  0
   32.0474  -27.6090  -19.6090 C   0  0  0  0  0  0  0  0  0  0  0  0
   31.0956  -28.7700  -19.5666 C   0  0  0  0  0  0  0  0  0  0  0  0
   31.2587  -29.6904  -18.3979 C   0  0  2  0  0  0  0  0  0  0  0  0
   32.4822  -30.4604  -18.5589 N   0  0  0  0  0  0  0  0  0  0  0  0
   30.0880  -30.6378  -18.3939 C   0  0  0  0  0  0  0  0  0  0  0  0
   30.2956  -31.8090  -18.7223 O   0  0  0  0  0  0  0  0  0  0  0  0
   28.1042  -31.9054  -15.6046 C   0  0  0  0  0  0  0  0  0  0  0  0
   27.9046  -32.1336  -17.0839 C   0  0  2  0  0  0  0  0  0  0  0  0
   28.9342  -33.1056  -17.6305 C   0  0  0  0  0  0  0  0  0  0  0  0
   27.6120  -30.9644  -17.9111 C   0  0  2  0  0  0  0  0  0  0  0  0
   28.8171  -30.1670  -18.0219 N   0  0  0  0  0  0  0  0  0  0  0  0
   26.4730  -30.1061  -17.6333 C   0  0  0  0  0  0  0  0  0  0  0  0
   26.7315  -28.8832  -17.3373 O   0  0  0  0  0  0  0  0  0  0  0  0
   25.1188  -30.4539  -17.6512 N   0  0  0  0  0  0  0  0  0  0  0  0
   24.0846  -29.4934  -17.2419 C   0  0  1  0  0  0  0  0  0  0  0  0
   24.1612  -28.2641  -18.0797 C   0  0  0  0  0  0  0  0  0  0  0  0
   23.4142  -28.4274  -19.3332 C   0  0  0  0  0  0  0  0  0  0  0  0
   24.0300  -28.6924  -20.5356 C   0  0  0  0  0  0  0  0  0  0  0  0
   23.3245  -28.8533  -21.7199 C   0  0  0  0  0  0  0  0  0  0  0  0
   21.9450  -28.7461  -21.7104 C   0  0  0  0  0  0  0  0  0  0  0  0
   21.2973  -28.4823  -20.5294 C   0  0  0  0  0  0  0  0  0  0  0  0
   22.0191  -28.3270  -19.3679 C   0  0  0  0  0  0  0  0  0  0  0  0
   22.7577  -30.1191  -17.3654 C   0  0  0  0  0  0  0  0  0  0  0  0
   22.6598  -31.3781  -17.9332 O   0  0  0  0  0  0  0  0  0  0  0  0
   21.7261  -29.5541  -16.9769 O   0  0  0  0  0  0  0  0  0  0  0  0
  2  3  1  0
  2  1  1  0
  4  3  1  0
  4  5  1  0
  5  6  1  6
  7  5  1  0
  7  8  2  0
 10  9  1  1
 11 10  1  0
 12 10  1  0
 12 13  1  1
 13  7  1  0
 14 12  1  0
 15 14  2  0
 16 14  1  0
 17 18  1  6
 17 16  1  0
 18 19  1  0
 19 24  2  0
 20 21  2  0
 20 19  1  0
 21 22  1  0
 22 23  2  0
 24 23  1  0
 25 26  1  0
 25 17  1  0
 27 25  2  0
M  END
$$$$
