MVF.pdb
     RDKit          3D

 27 27  0  0  1  0  0  0  0  0999 V2000
   30.9486  -17.4364  -13.9541 C   0  0  0  0  0  0  0  0  0  0  0  0
   30.3849  -17.1417  -15.6207 S   0  0  0  0  0  0  0  0  0  0  0  0
   28.7427  -17.7669  -15.9098 C   0  0  0  0  0  0  0  0  0  0  0  0
   28.0232  -18.2942  -14.7015 C   0  0  0  0  0  0  0  0  0  0  0  0
   26.6459  -18.8220  -14.9551 C   0  0  2  0  0  0  0  0  0  0  0  0
   25.8888  -17.8433  -15.7197 N   0  0  0  0  0  0  0  0  0  0  0  0
   25.9765  -19.0157  -13.6200 C   0  0  0  0  0  0  0  0  0  0  0  0
   25.2692  -18.0989  -13.1936 O   0  0  0  0  0  0  0  0  0  0  0  0
   25.3974  -23.1502  -12.6150 C   0  0  0  0  0  0  0  0  0  0  0  0
   24.6029  -21.8908  -12.3642 C   0  0  2  0  0  0  0  0  0  0  0  0
   23.6202  -21.6314  -13.4914 C   0  0  0  0  0  0  0  0  0  0  0  0
   25.3283  -20.7285  -11.8547 C   0  0  2  0  0  0  0  0  0  0  0  0
   26.1739  -20.2145  -12.9134 N   0  0  0  0  0  0  0  0  0  0  0  0
   26.0738  -20.7875  -10.6089 C   0  0  0  0  0  0  0  0  0  0  0  0
   27.3547  -20.7596  -10.7018 O   0  0  0  0  0  0  0  0  0  0  0  0
   25.5604  -20.8702   -9.3110 N   0  0  0  0  0  0  0  0  0  0  0  0
   26.4522  -20.8863   -8.1432 C   0  0  1  0  0  0  0  0  0  0  0  0
   27.2012  -19.6022   -8.0477 C   0  0  0  0  0  0  0  0  0  0  0  0
   27.9633  -19.5230   -6.7951 C   0  0  0  0  0  0  0  0  0  0  0  0
   28.4876  -20.6336   -6.1733 C   0  0  0  0  0  0  0  0  0  0  0  0
   29.2135  -20.5594   -4.9928 C   0  0  0  0  0  0  0  0  0  0  0  0
   29.4287  -19.3267   -4.4024 C   0  0  0  0  0  0  0  0  0  0  0  0
   28.9205  -18.1975   -4.9945 C   0  0  0  0  0  0  0  0  0  0  0  0
   28.2038  -18.2970   -6.1654 C   0  0  0  0  0  0  0  0  0  0  0  0
   25.6593  -21.1121   -6.9234 C   0  0  0  0  0  0  0  0  0  0  0  0
   26.2528  -21.7460   -5.8450 O   0  0  0  0  0  0  0  0  0  0  0  0
   24.4775  -20.7524   -6.8321 O   0  0  0  0  0  0  0  0  0  0  0  0
  2  3  1  0
  2  1  1  0
  4  3  1  0
  4  5  1  0
  5  6  1  6
  7  5  1  0
  7  8  2  0
 10  9  1  6
 11 10  1  0
 12 10  1  0
 12 13  1  6
 13  7  1  0
 14 12  1  0
 15 14  2  0
 16 14  1  0
 17 18  1  1
 17 16  1  0
 18 19  1  0
 19 24  2  0
 20 21  2  0
 20 19  1  0
 21 22  1  0
 22 23  2  0
 24 23  1  0
 25 26  1  0
 25 17  1  0
 27 25  2  0
M  END
$$$$
