MVF.pdb
     RDKit          3D

 27 27  0  0  1  0  0  0  0  0999 V2000
   26.4953  -25.1597  -15.3717 C   0  0  0  0  0  0  0  0  0  0  0  0
   27.5023  -25.0548  -16.8405 S   0  0  0  0  0  0  0  0  0  0  0  0
   28.7258  -23.7646  -16.7424 C   0  0  0  0  0  0  0  0  0  0  0  0
   28.4873  -22.7177  -15.6924 C   0  0  0  0  0  0  0  0  0  0  0  0
   27.3900  -21.7456  -15.9938 C   0  0  2  0  0  0  0  0  0  0  0  0
   27.8364  -20.8202  -17.0235 N   0  0  0  0  0  0  0  0  0  0  0  0
   27.1074  -20.9688  -14.7349 C   0  0  0  0  0  0  0  0  0  0  0  0
   27.9575  -20.1582  -14.3570 O   0  0  0  0  0  0  0  0  0  0  0  0
   23.8652  -19.0511  -14.3106 C   0  0  0  0  0  0  0  0  0  0  0  0
   24.0750  -19.9901  -13.1468 C   0  0  2  0  0  0  0  0  0  0  0  0
   23.2692  -19.5505  -11.9381 C   0  0  0  0  0  0  0  0  0  0  0  0
   25.4399  -20.4444  -12.8870 C   0  0  2  0  0  0  0  0  0  0  0  0
   25.9044  -21.1870  -14.0416 N   0  0  0  0  0  0  0  0  0  0  0  0
   25.7815  -21.1578  -11.6682 C   0  0  0  0  0  0  0  0  0  0  0  0
   25.6437  -22.4348  -11.6899 O   0  0  0  0  0  0  0  0  0  0  0  0
   26.2471  -20.6172  -10.4657 N   0  0  0  0  0  0  0  0  0  0  0  0
   26.3907  -21.4523   -9.2651 C   0  0  1  0  0  0  0  0  0  0  0  0
   27.7654  -21.3214   -8.7065 C   0  0  0  0  0  0  0  0  0  0  0  0
   27.7639  -20.5289   -7.4704 C   0  0  0  0  0  0  0  0  0  0  0  0
   28.2744  -21.0037   -6.2833 C   0  0  0  0  0  0  0  0  0  0  0  0
   28.2793  -20.2533   -5.1157 C   0  0  0  0  0  0  0  0  0  0  0  0
   27.7534  -18.9735   -5.1269 C   0  0  0  0  0  0  0  0  0  0  0  0
   27.2355  -18.4675   -6.2929 C   0  0  0  0  0  0  0  0  0  0  0  0
   27.2422  -19.2312   -7.4379 C   0  0  0  0  0  0  0  0  0  0  0  0
   25.3879  -21.0502   -8.2651 C   0  0  0  0  0  0  0  0  0  0  0  0
   25.1208  -21.8986   -7.2039 O   0  0  0  0  0  0  0  0  0  0  0  0
   24.7757  -19.9762   -8.3435 O   0  0  0  0  0  0  0  0  0  0  0  0
  2  3  1  0
  2  1  1  0
  4  3  1  0
  4  5  1  0
  5  6  1  6
  7  5  1  0
  7  8  2  0
 10  9  1  6
 11 10  1  0
 12 10  1  0
 12 13  1  6
 13  7  1  0
 14 12  1  0
 15 14  2  0
 16 14  1  0
 17 18  1  1
 17 16  1  0
 18 19  1  0
 19 24  2  0
 20 21  2  0
 20 19  1  0
 21 22  1  0
 22 23  2  0
 24 23  1  0
 25 26  1  0
 25 17  1  0
 27 25  2  0
M  END
$$$$
