MVF.pdb
     RDKit          3D

 27 27  0  0  1  0  0  0  0  0999 V2000
   27.2698  -16.4797  -15.0150 C   0  0  0  0  0  0  0  0  0  0  0  0
   28.4867  -17.0722  -16.1770 S   0  0  0  0  0  0  0  0  0  0  0  0
   27.9660  -18.5515  -17.0207 C   0  0  0  0  0  0  0  0  0  0  0  0
   27.0958  -19.4834  -16.2269 C   0  0  0  0  0  0  0  0  0  0  0  0
   27.8267  -20.4792  -15.3820 C   0  0  2  0  0  0  0  0  0  0  0  0
   28.4580  -21.4684  -16.2415 N   0  0  0  0  0  0  0  0  0  0  0  0
   26.8127  -21.1724  -14.5104 C   0  0  0  0  0  0  0  0  0  0  0  0
   26.2533  -22.1739  -14.9651 O   0  0  0  0  0  0  0  0  0  0  0  0
   25.1134  -21.6067   -9.8671 C   0  0  0  0  0  0  0  0  0  0  0  0
   26.0326  -21.1376  -10.9695 C   0  0  2  0  0  0  0  0  0  0  0  0
   26.8107  -19.9056  -10.5446 C   0  0  0  0  0  0  0  0  0  0  0  0
   25.5013  -21.1325  -12.3313 C   0  0  2  0  0  0  0  0  0  0  0  0
   26.5401  -20.6664  -13.2279 N   0  0  0  0  0  0  0  0  0  0  0  0
   24.2420  -20.4817  -12.6503 C   0  0  0  0  0  0  0  0  0  0  0  0
   24.2640  -19.2013  -12.7503 O   0  0  0  0  0  0  0  0  0  0  0  0
   22.9998  -21.0867  -12.8647 N   0  0  0  0  0  0  0  0  0  0  0  0
   21.7927  -20.2793  -13.0897 C   0  0  1  0  0  0  0  0  0  0  0  0
   21.8253  -19.6696  -14.4484 C   0  0  0  0  0  0  0  0  0  0  0  0
   21.9793  -20.6951  -15.4880 C   0  0  0  0  0  0  0  0  0  0  0  0
   23.2069  -21.0687  -15.9865 C   0  0  0  0  0  0  0  0  0  0  0  0
   23.3542  -22.0425  -16.9645 C   0  0  0  0  0  0  0  0  0  0  0  0
   22.2320  -22.6739  -17.4708 C   0  0  0  0  0  0  0  0  0  0  0  0
   20.9915  -22.3266  -16.9972 C   0  0  0  0  0  0  0  0  0  0  0  0
   20.8713  -21.3579  -16.0268 C   0  0  0  0  0  0  0  0  0  0  0  0
   20.5993  -21.1274  -12.9342 C   0  0  0  0  0  0  0  0  0  0  0  0
   19.3462  -20.5475  -13.0368 O   0  0  0  0  0  0  0  0  0  0  0  0
   20.6816  -22.3436  -12.7143 O   0  0  0  0  0  0  0  0  0  0  0  0
  2  3  1  0
  2  1  1  0
  4  3  1  0
  4  5  1  0
  5  6  1  6
  7  5  1  0
  7  8  2  0
 10  9  1  1
 11 10  1  0
 12 10  1  0
 12 13  1  6
 13  7  1  0
 14 12  1  0
 15 14  2  0
 16 14  1  0
 17 18  1  6
 17 16  1  0
 18 19  1  0
 19 24  2  0
 20 21  2  0
 20 19  1  0
 21 22  1  0
 22 23  2  0
 24 23  1  0
 25 26  1  0
 25 17  1  0
 27 25  2  0
M  END
$$$$
