MVF.pdb
     RDKit          3D

 27 27  0  0  1  0  0  0  0  0999 V2000
   12.1123  -13.0806   -9.8707 C   0  0  0  0  0  0  0  0  0  0  0  0
   12.7669  -14.3188  -10.9756 S   0  0  0  0  0  0  0  0  0  0  0  0
   13.1064  -13.6764  -12.6015 C   0  0  0  0  0  0  0  0  0  0  0  0
   14.0498  -12.5093  -12.6580 C   0  0  0  0  0  0  0  0  0  0  0  0
   14.3797  -12.0176  -14.0325 C   0  0  2  0  0  0  0  0  0  0  0  0
   15.1834  -13.0158  -14.7206 N   0  0  0  0  0  0  0  0  0  0  0  0
   15.1933  -10.7588  -13.8859 C   0  0  0  0  0  0  0  0  0  0  0  0
   16.3998  -10.8220  -14.1371 O   0  0  0  0  0  0  0  0  0  0  0  0
   14.2525   -7.3870  -15.6583 C   0  0  0  0  0  0  0  0  0  0  0  0
   14.2751   -7.3258  -14.1497 C   0  0  2  0  0  0  0  0  0  0  0  0
   14.2814   -5.8887  -13.6614 C   0  0  0  0  0  0  0  0  0  0  0  0
   15.1649   -8.2525  -13.4524 C   0  0  2  0  0  0  0  0  0  0  0  0
   14.5640   -9.5711  -13.4751 N   0  0  0  0  0  0  0  0  0  0  0  0
   15.6703   -7.9605  -12.1218 C   0  0  0  0  0  0  0  0  0  0  0  0
   14.8480   -8.1123  -11.1468 O   0  0  0  0  0  0  0  0  0  0  0  0
   16.9547   -7.5323  -11.7724 N   0  0  0  0  0  0  0  0  0  0  0  0
   17.3287   -7.3282  -10.3660 C   0  0  1  0  0  0  0  0  0  0  0  0
   18.6468   -7.9628  -10.0850 C   0  0  0  0  0  0  0  0  0  0  0  0
   19.6747   -7.4907  -11.0213 C   0  0  0  0  0  0  0  0  0  0  0  0
   20.0175   -8.1848  -12.1596 C   0  0  0  0  0  0  0  0  0  0  0  0
   20.9843   -7.7364  -13.0486 C   0  0  0  0  0  0  0  0  0  0  0  0
   21.6410   -6.5450  -12.7962 C   0  0  0  0  0  0  0  0  0  0  0  0
   21.3249   -5.8262  -11.6704 C   0  0  0  0  0  0  0  0  0  0  0  0
   20.3622   -6.2918  -10.8039 C   0  0  0  0  0  0  0  0  0  0  0  0
   17.3792   -5.8856  -10.0763 C   0  0  0  0  0  0  0  0  0  0  0  0
   17.4845   -5.4689   -8.7601 O   0  0  0  0  0  0  0  0  0  0  0  0
   17.3306   -5.0331  -10.9736 O   0  0  0  0  0  0  0  0  0  0  0  0
  2  3  1  0
  2  1  1  0
  4  3  1  0
  4  5  1  0
  5  6  1  1
  7  5  1  0
  7  8  2  0
 10  9  1  6
 11 10  1  0
 12 10  1  0
 12 13  1  1
 13  7  1  0
 14 12  1  0
 15 14  2  0
 16 14  1  0
 17 18  1  6
 17 16  1  0
 18 19  1  0
 19 24  2  0
 20 21  2  0
 20 19  1  0
 21 22  1  0
 22 23  2  0
 24 23  1  0
 25 26  1  0
 25 17  1  0
 27 25  2  0
M  END
$$$$
