MVF.pdb
     RDKit          3D

 27 27  0  0  1  0  0  0  0  0999 V2000
   26.3757  -15.1127  -14.4265 C   0  0  0  0  0  0  0  0  0  0  0  0
   25.4875  -14.5025  -15.8482 S   0  0  0  0  0  0  0  0  0  0  0  0
   23.9975  -15.4223  -16.1725 C   0  0  0  0  0  0  0  0  0  0  0  0
   24.0447  -16.8835  -15.8283 C   0  0  0  0  0  0  0  0  0  0  0  0
   25.1620  -17.6546  -16.4580 C   0  0  2  0  0  0  0  0  0  0  0  0
   24.8689  -17.8620  -17.8676 N   0  0  0  0  0  0  0  0  0  0  0  0
   25.2341  -18.9958  -15.7767 C   0  0  0  0  0  0  0  0  0  0  0  0
   24.3262  -19.8019  -15.9973 O   0  0  0  0  0  0  0  0  0  0  0  0
   28.2114  -22.1071  -13.3162 C   0  0  0  0  0  0  0  0  0  0  0  0
   27.8610  -20.7907  -13.9678 C   0  0  2  0  0  0  0  0  0  0  0  0
   28.7859  -19.6840  -13.4950 C   0  0  0  0  0  0  0  0  0  0  0  0
   26.4435  -20.4504  -14.0762 C   0  0  2  0  0  0  0  0  0  0  0  0
   26.3150  -19.2832  -14.9256 N   0  0  0  0  0  0  0  0  0  0  0  0
   25.6085  -20.3000  -12.8967 C   0  0  0  0  0  0  0  0  0  0  0  0
   26.1809  -19.8482  -11.8391 O   0  0  0  0  0  0  0  0  0  0  0  0
   24.2459  -20.5886  -12.7740 N   0  0  0  0  0  0  0  0  0  0  0  0
   23.6245  -20.7636  -11.4538 C   0  0  1  0  0  0  0  0  0  0  0  0
   23.8551  -19.5574  -10.6107 C   0  0  0  0  0  0  0  0  0  0  0  0
   24.7993  -19.8417   -9.5228 C   0  0  0  0  0  0  0  0  0  0  0  0
   24.8642  -21.0660   -8.8968 C   0  0  0  0  0  0  0  0  0  0  0  0
   25.7606  -21.3379   -7.8727 C   0  0  0  0  0  0  0  0  0  0  0  0
   26.6320  -20.3496   -7.4505 C   0  0  0  0  0  0  0  0  0  0  0  0
   26.5954  -19.1164   -8.0519 C   0  0  0  0  0  0  0  0  0  0  0  0
   25.6973  -18.8711   -9.0657 C   0  0  0  0  0  0  0  0  0  0  0  0
   22.1823  -21.0085  -11.6192 C   0  0  0  0  0  0  0  0  0  0  0  0
   21.4151  -21.2805  -10.4991 O   0  0  0  0  0  0  0  0  0  0  0  0
   21.6337  -20.9788  -12.7294 O   0  0  0  0  0  0  0  0  0  0  0  0
  2  3  1  0
  2  1  1  0
  4  3  1  0
  4  5  1  0
  5  6  1  6
  7  5  1  0
  7  8  2  0
 10  9  1  1
 11 10  1  0
 12 10  1  0
 12 13  1  1
 13  7  1  0
 14 12  1  0
 15 14  2  0
 16 14  1  0
 17 18  1  1
 17 16  1  0
 18 19  1  0
 19 24  2  0
 20 21  2  0
 20 19  1  0
 21 22  1  0
 22 23  2  0
 24 23  1  0
 25 26  1  0
 25 17  1  0
 27 25  2  0
M  END
$$$$
