MVF.pdb
     RDKit          3D

 27 27  0  0  1  0  0  0  0  0999 V2000
   18.5506  -20.3697  -13.6743 C   0  0  0  0  0  0  0  0  0  0  0  0
   19.1677  -18.7580  -13.2226 S   0  0  0  0  0  0  0  0  0  0  0  0
   20.9469  -18.6814  -13.2183 C   0  0  0  0  0  0  0  0  0  0  0  0
   21.6487  -19.8509  -12.5894 C   0  0  0  0  0  0  0  0  0  0  0  0
   22.8106  -20.3922  -13.3619 C   0  0  2  0  0  0  0  0  0  0  0  0
   22.3304  -21.3516  -14.3441 N   0  0  0  0  0  0  0  0  0  0  0  0
   23.7141  -21.1054  -12.3908 C   0  0  0  0  0  0  0  0  0  0  0  0
   23.3262  -22.1823  -11.9298 O   0  0  0  0  0  0  0  0  0  0  0  0
   28.3094  -22.0720  -11.3254 C   0  0  0  0  0  0  0  0  0  0  0  0
   27.1880  -21.2845  -11.9600 C   0  0  2  0  0  0  0  0  0  0  0  0
   27.7162  -20.0382  -12.6466 C   0  0  0  0  0  0  0  0  0  0  0  0
   25.9559  -21.1285  -11.1891 C   0  0  2  0  0  0  0  0  0  0  0  0
   24.9504  -20.5326  -12.0458 N   0  0  0  0  0  0  0  0  0  0  0  0
   25.9524  -20.4751   -9.8913 C   0  0  0  0  0  0  0  0  0  0  0  0
   25.6914  -19.2174   -9.8799 O   0  0  0  0  0  0  0  0  0  0  0  0
   26.1992  -21.0558   -8.6435 N   0  0  0  0  0  0  0  0  0  0  0  0
   26.7593  -20.2661   -7.5380 C   0  0  1  0  0  0  0  0  0  0  0  0
   26.7843  -21.0744   -6.2870 C   0  0  0  0  0  0  0  0  0  0  0  0
   27.5218  -20.3831   -5.2219 C   0  0  0  0  0  0  0  0  0  0  0  0
   27.4749  -19.0178   -5.0518 C   0  0  0  0  0  0  0  0  0  0  0  0
   28.1664  -18.3640   -4.0416 C   0  0  0  0  0  0  0  0  0  0  0  0
   28.9398  -19.0986   -3.1603 C   0  0  0  0  0  0  0  0  0  0  0  0
   29.0101  -20.4622   -3.3000 C   0  0  0  0  0  0  0  0  0  0  0  0
   28.3149  -21.0877   -4.3099 C   0  0  0  0  0  0  0  0  0  0  0  0
   28.1177  -19.8218   -7.8915 C   0  0  0  0  0  0  0  0  0  0  0  0
   28.4673  -18.4989   -7.6798 O   0  0  0  0  0  0  0  0  0  0  0  0
   28.9575  -20.5949   -8.3725 O   0  0  0  0  0  0  0  0  0  0  0  0
  2  3  1  0
  2  1  1  0
  4  3  1  0
  4  5  1  0
  5  6  1  6
  7  5  1  0
  7  8  2  0
 10  9  1  1
 11 10  1  0
 12 10  1  0
 12 13  1  6
 13  7  1  0
 14 12  1  0
 15 14  2  0
 16 14  1  0
 17 18  1  1
 17 16  1  0
 18 19  1  0
 19 24  2  0
 20 21  2  0
 20 19  1  0
 21 22  1  0
 22 23  2  0
 24 23  1  0
 25 26  1  0
 25 17  1  0
 27 25  2  0
M  END
$$$$
