MVF.pdb
     RDKit          3D

 27 27  0  0  1  0  0  0  0  0999 V2000
   27.4346  -14.4323  -14.6684 C   0  0  0  0  0  0  0  0  0  0  0  0
   28.2005  -15.1320  -16.1196 S   0  0  0  0  0  0  0  0  0  0  0  0
   27.3943  -16.6214  -16.6699 C   0  0  0  0  0  0  0  0  0  0  0  0
   26.4645  -17.2638  -15.6807 C   0  0  0  0  0  0  0  0  0  0  0  0
   25.8847  -18.5766  -16.1049 C   0  0  2  0  0  0  0  0  0  0  0  0
   24.9956  -18.3667  -17.2368 N   0  0  0  0  0  0  0  0  0  0  0  0
   25.0803  -19.1163  -14.9517 C   0  0  0  0  0  0  0  0  0  0  0  0
   24.0350  -18.5307  -14.6563 O   0  0  0  0  0  0  0  0  0  0  0  0
   25.4532  -23.3068  -13.8506 C   0  0  0  0  0  0  0  0  0  0  0  0
   24.3997  -22.2387  -13.6792 C   0  0  2  0  0  0  0  0  0  0  0  0
   23.4363  -22.2287  -14.8520 C   0  0  0  0  0  0  0  0  0  0  0  0
   24.8389  -20.9337  -13.1884 C   0  0  2  0  0  0  0  0  0  0  0  0
   25.5368  -20.2512  -14.2596 N   0  0  0  0  0  0  0  0  0  0  0  0
   25.5844  -20.8029  -11.9482 C   0  0  0  0  0  0  0  0  0  0  0  0
   26.8569  -20.6618  -12.0528 O   0  0  0  0  0  0  0  0  0  0  0  0
   25.0790  -20.8106  -10.6445 N   0  0  0  0  0  0  0  0  0  0  0  0
   25.9770  -20.8970   -9.4845 C   0  0  1  0  0  0  0  0  0  0  0  0
   26.8724  -19.7075   -9.4350 C   0  0  0  0  0  0  0  0  0  0  0  0
   27.6497  -19.6785   -8.1896 C   0  0  0  0  0  0  0  0  0  0  0  0
   28.6559  -20.5788   -7.9211 C   0  0  0  0  0  0  0  0  0  0  0  0
   29.3956  -20.5485   -6.7471 C   0  0  0  0  0  0  0  0  0  0  0  0
   29.1241  -19.5807   -5.7963 C   0  0  0  0  0  0  0  0  0  0  0  0
   28.1273  -18.6665   -6.0302 C   0  0  0  0  0  0  0  0  0  0  0  0
   27.4078  -18.7171   -7.2024 C   0  0  0  0  0  0  0  0  0  0  0  0
   25.1779  -20.9919   -8.2516 C   0  0  0  0  0  0  0  0  0  0  0  0
   25.7682  -21.4998   -7.1068 O   0  0  0  0  0  0  0  0  0  0  0  0
   23.9937  -20.6313   -8.2068 O   0  0  0  0  0  0  0  0  0  0  0  0
  2  3  1  0
  2  1  1  0
  4  3  1  0
  4  5  1  0
  5  6  1  6
  7  5  1  0
  7  8  2  0
 10  9  1  6
 11 10  1  0
 12 10  1  0
 12 13  1  6
 13  7  1  0
 14 12  1  0
 15 14  2  0
 16 14  1  0
 17 18  1  1
 17 16  1  0
 18 19  1  0
 19 24  2  0
 20 21  2  0
 20 19  1  0
 21 22  1  0
 22 23  2  0
 24 23  1  0
 25 26  1  0
 25 17  1  0
 27 25  2  0
M  END
$$$$
