MVF.pdb
     RDKit          3D

 27 27  0  0  1  0  0  0  0  0999 V2000
   21.3264  -16.4372    1.0626 C   0  0  0  0  0  0  0  0  0  0  0  0
   19.7455  -15.6136    0.9915 S   0  0  0  0  0  0  0  0  0  0  0  0
   18.4734  -16.4940    1.8735 C   0  0  0  0  0  0  0  0  0  0  0  0
   18.5679  -16.4492    3.3717 C   0  0  0  0  0  0  0  0  0  0  0  0
   17.5245  -17.2337    4.1036 C   0  0  2  0  0  0  0  0  0  0  0  0
   16.2347  -16.5787    3.9509 N   0  0  0  0  0  0  0  0  0  0  0  0
   17.8948  -17.2385    5.5633 C   0  0  0  0  0  0  0  0  0  0  0  0
   17.2037  -16.5663    6.3336 O   0  0  0  0  0  0  0  0  0  0  0  0
   20.1901  -19.8884    9.0257 C   0  0  0  0  0  0  0  0  0  0  0  0
   19.8338  -19.5050    7.6092 C   0  0  2  0  0  0  0  0  0  0  0  0
   20.7906  -20.1374    6.6151 C   0  0  0  0  0  0  0  0  0  0  0  0
   19.4675  -18.1117    7.3618 C   0  0  2  0  0  0  0  0  0  0  0  0
   18.9967  -17.9961    5.9961 N   0  0  0  0  0  0  0  0  0  0  0  0
   20.3807  -17.0231    7.6656 C   0  0  0  0  0  0  0  0  0  0  0  0
   21.3960  -16.8892    6.8901 O   0  0  0  0  0  0  0  0  0  0  0  0
   20.2856  -16.0959    8.7077 N   0  0  0  0  0  0  0  0  0  0  0  0
   21.3326  -15.0872    8.9221 C   0  0  1  0  0  0  0  0  0  0  0  0
   20.7257  -13.7334    9.0555 C   0  0  0  0  0  0  0  0  0  0  0  0
   20.2266  -13.2448    7.7639 C   0  0  0  0  0  0  0  0  0  0  0  0
   18.9264  -13.4310    7.3516 C   0  0  0  0  0  0  0  0  0  0  0  0
   18.4518  -12.9640    6.1339 C   0  0  0  0  0  0  0  0  0  0  0  0
   19.3066  -12.2814    5.2867 C   0  0  0  0  0  0  0  0  0  0  0  0
   20.6101  -12.0774    5.6650 C   0  0  0  0  0  0  0  0  0  0  0  0
   21.0571  -12.5501    6.8779 C   0  0  0  0  0  0  0  0  0  0  0  0
   22.1021  -15.4281   10.1301 C   0  0  0  0  0  0  0  0  0  0  0  0
   21.6733  -16.4777   10.9248 O   0  0  0  0  0  0  0  0  0  0  0  0
   23.1214  -14.8050   10.4574 O   0  0  0  0  0  0  0  0  0  0  0  0
  2  3  1  0
  2  1  1  0
  4  3  1  0
  4  5  1  0
  5  6  1  1
  7  5  1  0
  7  8  2  0
 10  9  1  1
 11 10  1  0
 12 10  1  0
 12 13  1  6
 13  7  1  0
 14 12  1  0
 15 14  2  0
 16 14  1  0
 17 18  1  1
 17 16  1  0
 18 19  1  0
 19 24  2  0
 20 21  2  0
 20 19  1  0
 21 22  1  0
 22 23  2  0
 24 23  1  0
 25 26  1  0
 25 17  1  0
 27 25  2  0
M  END
$$$$
