MVF.pdb
     RDKit          3D

 27 27  0  0  1  0  0  0  0  0999 V2000
   17.8430  -26.6045   -4.3363 C   0  0  0  0  0  0  0  0  0  0  0  0
   17.8652  -26.3401   -2.5722 S   0  0  0  0  0  0  0  0  0  0  0  0
   16.2885  -25.8069   -1.9388 C   0  0  0  0  0  0  0  0  0  0  0  0
   16.2109  -25.6256   -0.4500 C   0  0  0  0  0  0  0  0  0  0  0  0
   16.3571  -26.8776    0.3568 C   0  0  2  0  0  0  0  0  0  0  0  0
   15.1406  -27.6672    0.2444 N   0  0  0  0  0  0  0  0  0  0  0  0
   16.5418  -26.4761    1.7965 C   0  0  0  0  0  0  0  0  0  0  0  0
   15.5945  -26.6506    2.5677 O   0  0  0  0  0  0  0  0  0  0  0  0
   19.5091  -27.5964    3.8632 C   0  0  0  0  0  0  0  0  0  0  0  0
   19.3902  -26.0921    3.9180 C   0  0  2  0  0  0  0  0  0  0  0  0
   20.0587  -25.5363    5.1622 C   0  0  0  0  0  0  0  0  0  0  0  0
   18.1007  -25.5059    3.5568 C   0  0  2  0  0  0  0  0  0  0  0  0
   17.7667  -25.9250    2.2103 N   0  0  0  0  0  0  0  0  0  0  0  0
   17.8454  -24.0839    3.7115 C   0  0  0  0  0  0  0  0  0  0  0  0
   18.7154  -23.2840    3.2082 O   0  0  0  0  0  0  0  0  0  0  0  0
   16.7572  -23.4770    4.3459 N   0  0  0  0  0  0  0  0  0  0  0  0
   16.6963  -22.0187    4.5158 C   0  0  1  0  0  0  0  0  0  0  0  0
   15.5126  -21.4645    3.8011 C   0  0  0  0  0  0  0  0  0  0  0  0
   15.6163  -21.6819    2.3527 C   0  0  0  0  0  0  0  0  0  0  0  0
   16.3649  -20.8693    1.5314 C   0  0  0  0  0  0  0  0  0  0  0  0
   16.4688  -21.0775    0.1632 C   0  0  0  0  0  0  0  0  0  0  0  0
   15.7990  -22.1405   -0.4164 C   0  0  0  0  0  0  0  0  0  0  0  0
   15.0428  -22.9715    0.3719 C   0  0  0  0  0  0  0  0  0  0  0  0
   14.9555  -22.7444    1.7266 C   0  0  0  0  0  0  0  0  0  0  0  0
   16.6302  -21.6943    5.9504 C   0  0  0  0  0  0  0  0  0  0  0  0
   16.6550  -20.3658    6.3398 O   0  0  0  0  0  0  0  0  0  0  0  0
   16.5531  -22.5732    6.8199 O   0  0  0  0  0  0  0  0  0  0  0  0
  2  3  1  0
  2  1  1  0
  4  3  1  0
  4  5  1  0
  5  6  1  1
  7  5  1  0
  7  8  2  0
 10  9  1  1
 11 10  1  0
 12 10  1  0
 12 13  1  6
 13  7  1  0
 14 12  1  0
 15 14  2  0
 16 14  1  0
 17 18  1  6
 17 16  1  0
 18 19  1  0
 19 24  2  0
 20 21  2  0
 20 19  1  0
 21 22  1  0
 22 23  2  0
 24 23  1  0
 25 26  1  0
 25 17  1  0
 27 25  2  0
M  END
$$$$
