PEM.pdb
     RDKit          3D

 25 25  0  0  1  0  0  0  0  0999 V2000
   21.8575  -13.9627  -16.9335 N   0  0  0  0  0  0  0  0  0  0  0  0
   20.6381  -14.7062  -17.0934 C   0  0  0  0  0  0  0  0  0  0  0  0
   20.7488  -15.1343  -18.5606 C   0  0  0  0  0  0  0  0  0  0  0  0
   21.1816  -13.8148  -19.1899 C   0  0  0  0  0  0  0  0  0  0  0  0
   21.9298  -13.1035  -18.0634 C   0  0  1  0  0  0  0  0  0  0  0  0
   21.3202  -11.7808  -17.9076 C   0  0  0  0  0  0  0  0  0  0  0  0
   21.2721  -10.9269  -18.8444 O   0  0  0  0  0  0  0  0  0  0  0  0
   20.7541  -11.4055  -16.6847 N   0  0  0  0  0  0  0  0  0  0  0  0
   20.0654  -10.1176  -16.4964 C   0  0  1  0  0  0  0  0  0  0  0  0
   19.0005  -10.3707  -15.4730 C   0  0  0  0  0  0  0  0  0  0  0  0
   17.7033  -10.8585  -16.0507 C   0  0  0  0  0  0  0  0  0  0  0  0
   16.6509  -11.0112  -15.0060 C   0  0  0  0  0  0  0  0  0  0  0  0
   15.6045  -10.3107  -15.1338 O   0  0  0  0  0  0  0  0  0  0  0  0
   21.0775   -9.2000  -15.8839 C   0  0  0  0  0  0  0  0  0  0  0  0
   21.8734   -9.6341  -14.9873 O   0  0  0  0  0  0  0  0  0  0  0  0
   16.8006  -11.8906  -13.9215 O   0  0  0  0  0  0  0  0  0  0  0  0
   26.6646   -3.9719  -16.6735 C   0  0  0  0  0  0  0  0  0  0  0  0
   25.2663   -4.8756  -17.3425 S   0  0  0  0  0  0  0  0  0  0  0  0
   24.2362   -5.5983  -16.0265 C   0  0  0  0  0  0  0  0  0  0  0  0
   23.1311   -6.3915  -16.6542 C   0  0  0  0  0  0  0  0  0  0  0  0
   22.2062   -6.9417  -15.6337 C   0  0  2  0  0  0  0  0  0  0  0  0
   21.2128   -7.8341  -16.2487 N   0  0  0  0  0  0  0  0  0  0  0  0
   21.5477   -5.8954  -14.8514 C   0  0  0  0  0  0  0  0  0  0  0  0
   20.4185   -5.3985  -15.0330 O   0  0  0  0  0  0  0  0  0  0  0  0
   22.2475   -5.3543  -13.7424 O   0  0  0  0  0  0  0  0  0  0  0  0
  1  2  1  0
  3  2  1  0
  4  3  1  0
  5  4  1  0
  5  1  1  0
  5  6  1  1
  6  7  2  0
  8  6  1  0
  9  8  1  0
  9 10  1  1
 11 10  1  0
 12 11  1  0
 13 12  2  0
 14  9  1  0
 15 14  2  0
 16 12  1  0
 18 17  1  0
 19 18  1  0
 20 19  1  0
 21 22  1  0
 21 20  1  6
 22 14  1  0
 23 21  1  0
 24 23  2  0
 25 23  1  0
M  END
$$$$
