PEM.pdb
     RDKit          3D

 25 25  0  0  1  0  0  0  0  0999 V2000
   16.7056  -12.5067  -14.3780 N   0  0  0  0  0  0  0  0  0  0  0  0
   15.3657  -12.8030  -13.9514 C   0  0  0  0  0  0  0  0  0  0  0  0
   14.5544  -11.9258  -14.9109 C   0  0  0  0  0  0  0  0  0  0  0  0
   15.3478  -10.6272  -14.8181 C   0  0  0  0  0  0  0  0  0  0  0  0
   16.7656  -11.0909  -14.4871 C   0  0  1  0  0  0  0  0  0  0  0  0
   17.1865  -10.3687  -13.2843 C   0  0  0  0  0  0  0  0  0  0  0  0
   17.0330  -10.8288  -12.1122 O   0  0  0  0  0  0  0  0  0  0  0  0
   17.7896   -9.1111  -13.3923 N   0  0  0  0  0  0  0  0  0  0  0  0
   18.4225   -8.4386  -12.2454 C   0  0  1  0  0  0  0  0  0  0  0  0
   19.5046   -7.5784  -12.8237 C   0  0  0  0  0  0  0  0  0  0  0  0
   20.2811   -6.8038  -11.7982 C   0  0  0  0  0  0  0  0  0  0  0  0
   21.3958   -6.0280  -12.4129 C   0  0  0  0  0  0  0  0  0  0  0  0
   21.5802   -6.1692  -13.6571 O   0  0  0  0  0  0  0  0  0  0  0  0
   17.3755   -7.5325  -11.6758 C   0  0  0  0  0  0  0  0  0  0  0  0
   16.6070   -6.8763  -12.4532 O   0  0  0  0  0  0  0  0  0  0  0  0
   22.2138   -5.1735  -11.6562 O   0  0  0  0  0  0  0  0  0  0  0  0
   12.7744   -8.6794   -7.6594 C   0  0  0  0  0  0  0  0  0  0  0  0
   13.3082   -7.1366   -6.9150 S   0  0  0  0  0  0  0  0  0  0  0  0
   14.3868   -6.1849   -8.0312 C   0  0  0  0  0  0  0  0  0  0  0  0
   15.3936   -7.1113   -8.6415 C   0  0  0  0  0  0  0  0  0  0  0  0
   16.1490   -6.4530   -9.7349 C   0  0  2  0  0  0  0  0  0  0  0  0
   17.1767   -7.3513  -10.2813 N   0  0  0  0  0  0  0  0  0  0  0  0
   16.7410   -5.1809   -9.3207 C   0  0  0  0  0  0  0  0  0  0  0  0
   17.9138   -4.9635   -8.9569 O   0  0  0  0  0  0  0  0  0  0  0  0
   15.9111   -4.0304   -9.3191 O   0  0  0  0  0  0  0  0  0  0  0  0
  1  2  1  0
  3  2  1  0
  4  3  1  0
  5  4  1  0
  5  1  1  0
  5  6  1  1
  6  7  2  0
  8  6  1  0
  9  8  1  0
  9 10  1  6
 11 10  1  0
 12 11  1  0
 13 12  2  0
 14  9  1  0
 15 14  2  0
 16 12  1  0
 18 17  1  0
 19 18  1  0
 20 19  1  0
 21 22  1  0
 21 20  1  1
 22 14  1  0
 23 21  1  0
 24 23  2  0
 25 23  1  0
M  END
$$$$
