PEM.pdb
     RDKit          3D

 25 25  0  0  1  0  0  0  0  0999 V2000
   25.8557  -17.4802  -17.3095 N   0  0  0  0  0  0  0  0  0  0  0  0
   26.4335  -16.1684  -17.2073 C   0  0  0  0  0  0  0  0  0  0  0  0
   27.9017  -16.5174  -16.9408 C   0  0  0  0  0  0  0  0  0  0  0  0
   27.7289  -17.5976  -15.8787 C   0  0  0  0  0  0  0  0  0  0  0  0
   26.3654  -18.2078  -16.2000 C   0  0  1  0  0  0  0  0  0  0  0  0
   25.5680  -18.1541  -14.9725 C   0  0  0  0  0  0  0  0  0  0  0  0
   24.4822  -17.5047  -14.8810 O   0  0  0  0  0  0  0  0  0  0  0  0
   25.9904  -18.8377  -13.8274 N   0  0  0  0  0  0  0  0  0  0  0  0
   25.0468  -19.4977  -12.9097 C   0  0  1  0  0  0  0  0  0  0  0  0
   24.4924  -20.6663  -13.6663 C   0  0  0  0  0  0  0  0  0  0  0  0
   23.4068  -21.4048  -12.9377 C   0  0  0  0  0  0  0  0  0  0  0  0
   22.2132  -20.5448  -12.6971 C   0  0  0  0  0  0  0  0  0  0  0  0
   21.8015  -20.4492  -11.5041 O   0  0  0  0  0  0  0  0  0  0  0  0
   25.8788  -20.0348  -11.7868 C   0  0  0  0  0  0  0  0  0  0  0  0
   26.5665  -21.0956  -11.9520 O   0  0  0  0  0  0  0  0  0  0  0  0
   21.5637  -19.8642  -13.7395 O   0  0  0  0  0  0  0  0  0  0  0  0
   29.0768  -19.3909   -4.9839 C   0  0  0  0  0  0  0  0  0  0  0  0
   28.2744  -18.9178   -6.5175 S   0  0  0  0  0  0  0  0  0  0  0  0
   26.8540  -19.9920   -6.8968 C   0  0  0  0  0  0  0  0  0  0  0  0
   26.1250  -19.4343   -8.0808 C   0  0  0  0  0  0  0  0  0  0  0  0
   26.5609  -20.0787   -9.3435 C   0  0  2  0  0  0  0  0  0  0  0  0
   25.9539  -19.4193  -10.5091 N   0  0  0  0  0  0  0  0  0  0  0  0
   26.2891  -21.5161   -9.3625 C   0  0  0  0  0  0  0  0  0  0  0  0
   25.1806  -22.0870   -9.3434 O   0  0  0  0  0  0  0  0  0  0  0  0
   27.3963  -22.4017   -9.4079 O   0  0  0  0  0  0  0  0  0  0  0  0
  1  2  1  0
  3  2  1  0
  4  3  1  0
  5  4  1  0
  5  1  1  0
  5  6  1  1
  6  7  2  0
  8  6  1  0
  9  8  1  0
  9 10  1  6
 11 10  1  0
 12 11  1  0
 13 12  2  0
 14  9  1  0
 15 14  2  0
 16 12  1  0
 18 17  1  0
 19 18  1  0
 20 19  1  0
 21 22  1  0
 21 20  1  1
 22 14  1  0
 23 21  1  0
 24 23  2  0
 25 23  1  0
M  END
$$$$
