PEM.pdb
     RDKit          3D

 25 25  0  0  1  0  0  0  0  0999 V2000
   22.7134  -15.3367  -17.1658 N   0  0  0  0  0  0  0  0  0  0  0  0
   21.7607  -16.4125  -17.1766 C   0  0  0  0  0  0  0  0  0  0  0  0
   21.9778  -16.9791  -18.5837 C   0  0  0  0  0  0  0  0  0  0  0  0
   22.0038  -15.6851  -19.3896 C   0  0  0  0  0  0  0  0  0  0  0  0
   22.5234  -14.6483  -18.3947 C   0  0  1  0  0  0  0  0  0  0  0  0
   21.5578  -13.5472  -18.3744 C   0  0  0  0  0  0  0  0  0  0  0  0
   21.2012  -12.9207  -19.4181 O   0  0  0  0  0  0  0  0  0  0  0  0
   20.9800  -13.1388  -17.1675 N   0  0  0  0  0  0  0  0  0  0  0  0
   19.9794  -12.0608  -17.0969 C   0  0  1  0  0  0  0  0  0  0  0  0
   18.8329  -12.6198  -16.3106 C   0  0  0  0  0  0  0  0  0  0  0  0
   17.7268  -13.1784  -17.1587 C   0  0  0  0  0  0  0  0  0  0  0  0
   16.5993  -13.6968  -16.3329 C   0  0  0  0  0  0  0  0  0  0  0  0
   15.4642  -13.1644  -16.5062 O   0  0  0  0  0  0  0  0  0  0  0  0
   20.6070  -10.9753  -16.2786 C   0  0  0  0  0  0  0  0  0  0  0  0
   21.0084  -11.2197  -15.0934 O   0  0  0  0  0  0  0  0  0  0  0  0
   16.7745  -14.7308  -15.3991 O   0  0  0  0  0  0  0  0  0  0  0  0
   24.3669   -4.0049  -16.3676 C   0  0  0  0  0  0  0  0  0  0  0  0
   23.3369   -5.2119  -17.2052 S   0  0  0  0  0  0  0  0  0  0  0  0
   22.7218   -6.4868  -16.0600 C   0  0  0  0  0  0  0  0  0  0  0  0
   22.0129   -7.5462  -16.8470 C   0  0  0  0  0  0  0  0  0  0  0  0
   21.4740   -8.6115  -15.9669 C   0  0  2  0  0  0  0  0  0  0  0  0
   20.7901   -9.6491  -16.7526 N   0  0  0  0  0  0  0  0  0  0  0  0
   20.5915   -8.0853  -14.9254 C   0  0  0  0  0  0  0  0  0  0  0  0
   20.9074   -7.6540  -13.7988 O   0  0  0  0  0  0  0  0  0  0  0  0
   19.1988   -8.0446  -15.1919 O   0  0  0  0  0  0  0  0  0  0  0  0
  1  2  1  0
  3  2  1  0
  4  3  1  0
  5  4  1  0
  5  1  1  0
  5  6  1  1
  6  7  2  0
  8  6  1  0
  9  8  1  0
  9 10  1  1
 11 10  1  0
 12 11  1  0
 13 12  2  0
 14  9  1  0
 15 14  2  0
 16 12  1  0
 18 17  1  0
 19 18  1  0
 20 19  1  0
 21 22  1  0
 21 20  1  6
 22 14  1  0
 23 21  1  0
 24 23  2  0
 25 23  1  0
M  END
$$$$
