PEM.pdb
     RDKit          3D

 25 25  0  0  1  0  0  0  0  0999 V2000
   15.5653  -26.1426   -4.6081 N   0  0  0  0  0  0  0  0  0  0  0  0
   16.2285  -24.9481   -5.0539 C   0  0  0  0  0  0  0  0  0  0  0  0
   17.6972  -25.3460   -4.8723 C   0  0  0  0  0  0  0  0  0  0  0  0
   17.6328  -25.9708   -3.4830 C   0  0  0  0  0  0  0  0  0  0  0  0
   16.2019  -26.4981   -3.3881 C   0  0  1  0  0  0  0  0  0  0  0  0
   15.6155  -25.9389   -2.1679 C   0  0  0  0  0  0  0  0  0  0  0  0
   14.9148  -24.8815   -2.1592 O   0  0  0  0  0  0  0  0  0  0  0  0
   15.8148  -26.5716   -0.9363 N   0  0  0  0  0  0  0  0  0  0  0  0
   15.1043  -26.1600    0.2861 C   0  0  1  0  0  0  0  0  0  0  0  0
   15.1173  -27.3569    1.1876 C   0  0  0  0  0  0  0  0  0  0  0  0
   13.9515  -28.2822    0.9893 C   0  0  0  0  0  0  0  0  0  0  0  0
   14.0134  -29.4594    1.9016 C   0  0  0  0  0  0  0  0  0  0  0  0
   15.0372  -29.5659    2.6382 O   0  0  0  0  0  0  0  0  0  0  0  0
   15.9579  -25.1044    0.9176 C   0  0  0  0  0  0  0  0  0  0  0  0
   17.2285  -25.2035    0.8804 O   0  0  0  0  0  0  0  0  0  0  0  0
   12.9874  -30.4167    1.9523 O   0  0  0  0  0  0  0  0  0  0  0  0
   17.5648  -17.6217    1.8135 C   0  0  0  0  0  0  0  0  0  0  0  0
   16.6906  -19.0095    1.0861 S   0  0  0  0  0  0  0  0  0  0  0  0
   16.8915  -20.5269    2.0721 C   0  0  0  0  0  0  0  0  0  0  0  0
   16.1041  -21.6298    1.4332 C   0  0  0  0  0  0  0  0  0  0  0  0
   16.2764  -22.9132    2.1562 C   0  0  2  0  0  0  0  0  0  0  0  0
   15.4268  -23.9636    1.5761 N   0  0  0  0  0  0  0  0  0  0  0  0
   16.0320  -22.7848    3.5929 C   0  0  0  0  0  0  0  0  0  0  0  0
   16.6504  -22.0808    4.4157 O   0  0  0  0  0  0  0  0  0  0  0  0
   14.9700  -23.5375    4.1567 O   0  0  0  0  0  0  0  0  0  0  0  0
  1  2  1  0
  3  2  1  0
  4  3  1  0
  5  4  1  0
  5  1  1  0
  5  6  1  1
  6  7  2  0
  8  6  1  0
  9  8  1  0
  9 10  1  1
 11 10  1  0
 12 11  1  0
 13 12  2  0
 14  9  1  0
 15 14  2  0
 16 12  1  0
 18 17  1  0
 19 18  1  0
 20 19  1  0
 21 22  1  0
 21 20  1  6
 22 14  1  0
 23 21  1  0
 24 23  2  0
 25 23  1  0
M  END
$$$$
