PEM.pdb
     RDKit          3D

 25 25  0  0  1  0  0  0  0  0999 V2000
   18.3151  -13.3210  -18.7745 N   0  0  0  0  0  0  0  0  0  0  0  0
   17.3827  -13.1599  -19.8562 C   0  0  0  0  0  0  0  0  0  0  0  0
   18.2865  -13.4355  -21.0626 C   0  0  0  0  0  0  0  0  0  0  0  0
   19.5005  -12.5953  -20.6819 C   0  0  0  0  0  0  0  0  0  0  0  0
   19.4691  -12.5834  -19.1543 C   0  0  1  0  0  0  0  0  0  0  0  0
   19.5060  -11.1813  -18.7323 C   0  0  0  0  0  0  0  0  0  0  0  0
   20.3476  -10.3456  -19.1822 O   0  0  0  0  0  0  0  0  0  0  0  0
   18.5868  -10.7040  -17.7919 N   0  0  0  0  0  0  0  0  0  0  0  0
   18.5938   -9.3094  -17.3194 C   0  0  1  0  0  0  0  0  0  0  0  0
   17.3038   -9.1232  -16.5800 C   0  0  0  0  0  0  0  0  0  0  0  0
   16.1101   -8.9418  -17.4727 C   0  0  0  0  0  0  0  0  0  0  0  0
   14.8298   -9.0191  -16.7132 C   0  0  0  0  0  0  0  0  0  0  0  0
   14.4870   -7.9947  -16.0536 O   0  0  0  0  0  0  0  0  0  0  0  0
   19.7073   -9.2226  -16.3223 C   0  0  0  0  0  0  0  0  0  0  0  0
   19.7640  -10.0506  -15.3544 O   0  0  0  0  0  0  0  0  0  0  0  0
   14.0285  -10.1722  -16.7203 O   0  0  0  0  0  0  0  0  0  0  0  0
   26.8582  -10.3996  -14.7304 C   0  0  0  0  0  0  0  0  0  0  0  0
   25.4400  -10.2311  -15.8166 S   0  0  0  0  0  0  0  0  0  0  0  0
   24.1606   -9.1544  -15.0960 C   0  0  0  0  0  0  0  0  0  0  0  0
   22.9745   -9.1293  -16.0108 C   0  0  0  0  0  0  0  0  0  0  0  0
   21.8980   -8.2550  -15.4850 C   0  0  2  0  0  0  0  0  0  0  0  0
   20.7372   -8.2469  -16.3872 N   0  0  0  0  0  0  0  0  0  0  0  0
   22.3600   -6.8916  -15.2241 C   0  0  0  0  0  0  0  0  0  0  0  0
   23.0971   -6.4958  -14.2993 O   0  0  0  0  0  0  0  0  0  0  0  0
   21.9394   -5.8661  -16.1093 O   0  0  0  0  0  0  0  0  0  0  0  0
  1  2  1  0
  3  2  1  0
  4  3  1  0
  5  4  1  0
  5  1  1  0
  5  6  1  6
  6  7  2  0
  8  6  1  0
  9  8  1  0
  9 10  1  1
 11 10  1  0
 12 11  1  0
 13 12  2  0
 14  9  1  0
 15 14  2  0
 16 12  1  0
 18 17  1  0
 19 18  1  0
 20 19  1  0
 21 22  1  0
 21 20  1  6
 22 14  1  0
 23 21  1  0
 24 23  2  0
 25 23  1  0
M  END
$$$$
