PEM.pdb
     RDKit          3D

 25 25  0  0  1  0  0  0  0  0999 V2000
   21.2753  -13.2976  -16.3187 N   0  0  0  0  0  0  0  0  0  0  0  0
   19.9860  -13.8857  -16.0799 C   0  0  0  0  0  0  0  0  0  0  0  0
   19.7494  -14.6160  -17.4061 C   0  0  0  0  0  0  0  0  0  0  0  0
   20.1620  -13.5244  -18.3873 C   0  0  0  0  0  0  0  0  0  0  0  0
   21.1903  -12.7057  -17.6081 C   0  0  1  0  0  0  0  0  0  0  0  0
   20.7511  -11.3090  -17.6489 C   0  0  0  0  0  0  0  0  0  0  0  0
   20.5992  -10.6631  -18.7300 O   0  0  0  0  0  0  0  0  0  0  0  0
   20.4765  -10.6218  -16.4617 N   0  0  0  0  0  0  0  0  0  0  0  0
   19.9953   -9.2302  -16.4490 C   0  0  1  0  0  0  0  0  0  0  0  0
   18.8201   -9.2138  -15.5195 C   0  0  0  0  0  0  0  0  0  0  0  0
   18.1393   -7.8791  -15.4209 C   0  0  0  0  0  0  0  0  0  0  0  0
   16.9241   -7.9361  -14.5595 C   0  0  0  0  0  0  0  0  0  0  0  0
   16.2436   -6.8746  -14.4501 O   0  0  0  0  0  0  0  0  0  0  0  0
   21.0886   -8.4268  -15.8158 C   0  0  0  0  0  0  0  0  0  0  0  0
   21.7190   -8.8884  -14.8083 O   0  0  0  0  0  0  0  0  0  0  0  0
   16.5389   -9.1102  -13.8923 O   0  0  0  0  0  0  0  0  0  0  0  0
   26.8610   -3.2364  -17.0515 C   0  0  0  0  0  0  0  0  0  0  0  0
   25.2934   -3.9474  -17.5579 S   0  0  0  0  0  0  0  0  0  0  0  0
   24.5587   -4.9703  -16.2429 C   0  0  0  0  0  0  0  0  0  0  0  0
   23.3116   -5.6141  -16.7672 C   0  0  0  0  0  0  0  0  0  0  0  0
   22.6280   -6.4124  -15.7207 C   0  0  2  0  0  0  0  0  0  0  0  0
   21.4813   -7.1433  -16.2798 N   0  0  0  0  0  0  0  0  0  0  0  0
   22.2155   -5.6003  -14.5758 C   0  0  0  0  0  0  0  0  0  0  0  0
   22.8820   -5.3088  -13.5629 O   0  0  0  0  0  0  0  0  0  0  0  0
   20.9037   -5.0607  -14.5814 O   0  0  0  0  0  0  0  0  0  0  0  0
  1  2  1  0
  3  2  1  0
  4  3  1  0
  5  4  1  0
  5  1  1  0
  5  6  1  1
  6  7  2  0
  8  6  1  0
  9  8  1  0
  9 10  1  1
 11 10  1  0
 12 11  1  0
 13 12  2  0
 14  9  1  0
 15 14  2  0
 16 12  1  0
 18 17  1  0
 19 18  1  0
 20 19  1  0
 21 22  1  0
 21 20  1  6
 22 14  1  0
 23 21  1  0
 24 23  2  0
 25 23  1  0
M  END
$$$$
