PEM.pdb
     RDKit          3D

 25 25  0  0  1  0  0  0  0  0999 V2000
   26.7222  -22.6676  -16.6735 N   0  0  0  0  0  0  0  0  0  0  0  0
   26.8926  -21.7553  -17.7707 C   0  0  0  0  0  0  0  0  0  0  0  0
   28.3743  -21.9681  -18.0984 C   0  0  0  0  0  0  0  0  0  0  0  0
   28.9646  -21.9318  -16.6930 C   0  0  0  0  0  0  0  0  0  0  0  0
   27.8237  -22.4304  -15.8072 C   0  0  1  0  0  0  0  0  0  0  0  0
   27.6173  -21.4251  -14.7621 C   0  0  0  0  0  0  0  0  0  0  0  0
   28.5554  -20.9868  -14.0293 O   0  0  0  0  0  0  0  0  0  0  0  0
   26.3414  -20.9001  -14.5315 N   0  0  0  0  0  0  0  0  0  0  0  0
   26.0840  -19.8734  -13.5078 C   0  0  1  0  0  0  0  0  0  0  0  0
   24.7751  -19.2459  -13.8801 C   0  0  0  0  0  0  0  0  0  0  0  0
   23.6531  -20.2296  -14.0479 C   0  0  0  0  0  0  0  0  0  0  0  0
   22.9323  -20.0374  -15.3384 C   0  0  0  0  0  0  0  0  0  0  0  0
   22.4853  -21.0744  -15.9101 O   0  0  0  0  0  0  0  0  0  0  0  0
   25.8836  -20.6186  -12.2248 C   0  0  0  0  0  0  0  0  0  0  0  0
   25.0713  -21.6001  -12.1763 O   0  0  0  0  0  0  0  0  0  0  0  0
   22.7496  -18.7665  -15.9070 O   0  0  0  0  0  0  0  0  0  0  0  0
   28.9677  -19.1619   -6.6508 C   0  0  0  0  0  0  0  0  0  0  0  0
   27.4065  -19.7428   -5.9840 S   0  0  0  0  0  0  0  0  0  0  0  0
   26.3755  -20.5282   -7.2629 C   0  0  0  0  0  0  0  0  0  0  0  0
   26.8595  -20.0935   -8.6124 C   0  0  0  0  0  0  0  0  0  0  0  0
   26.1163  -20.7702   -9.7030 C   0  0  2  0  0  0  0  0  0  0  0  0
   26.5616  -20.2925  -11.0202 N   0  0  0  0  0  0  0  0  0  0  0  0
   24.6666  -20.6299   -9.5647 C   0  0  0  0  0  0  0  0  0  0  0  0
   23.9389  -19.7192  -10.0075 O   0  0  0  0  0  0  0  0  0  0  0  0
   23.9671  -21.6326   -8.8452 O   0  0  0  0  0  0  0  0  0  0  0  0
  1  2  1  0
  3  2  1  0
  4  3  1  0
  5  4  1  0
  5  1  1  0
  5  6  1  1
  6  7  2  0
  8  6  1  0
  9  8  1  0
  9 10  1  6
 11 10  1  0
 12 11  1  0
 13 12  2  0
 14  9  1  0
 15 14  2  0
 16 12  1  0
 18 17  1  0
 19 18  1  0
 20 19  1  0
 21 22  1  0
 21 20  1  1
 22 14  1  0
 23 21  1  0
 24 23  2  0
 25 23  1  0
M  END
$$$$
