PEM.pdb
     RDKit          3D

 25 25  0  0  1  0  0  0  0  0999 V2000
   27.6033  -20.4489  -15.6068 N   0  0  0  0  0  0  0  0  0  0  0  0
   27.1313  -19.4662  -16.5431 C   0  0  0  0  0  0  0  0  0  0  0  0
   28.3555  -18.5502  -16.6450 C   0  0  0  0  0  0  0  0  0  0  0  0
   28.7042  -18.4081  -15.1676 C   0  0  0  0  0  0  0  0  0  0  0  0
   28.1991  -19.7106  -14.5486 C   0  0  1  0  0  0  0  0  0  0  0  0
   27.3152  -19.3471  -13.4386 C   0  0  0  0  0  0  0  0  0  0  0  0
   27.4798  -18.3033  -12.7368 O   0  0  0  0  0  0  0  0  0  0  0  0
   26.2286  -20.1632  -13.1068 N   0  0  0  0  0  0  0  0  0  0  0  0
   25.2360  -19.7799  -12.0889 C   0  0  1  0  0  0  0  0  0  0  0  0
   23.9390  -20.3817  -12.5375 C   0  0  0  0  0  0  0  0  0  0  0  0
   22.8137  -20.2037  -11.5594 C   0  0  0  0  0  0  0  0  0  0  0  0
   21.5224  -20.7196  -12.0963 C   0  0  0  0  0  0  0  0  0  0  0  0
   21.5533  -21.8256  -12.7110 O   0  0  0  0  0  0  0  0  0  0  0  0
   25.6516  -20.4779  -10.8313 C   0  0  0  0  0  0  0  0  0  0  0  0
   25.8998  -21.7284  -10.8469 O   0  0  0  0  0  0  0  0  0  0  0  0
   20.3160  -20.0195  -11.9342 O   0  0  0  0  0  0  0  0  0  0  0  0
   28.9101  -20.0849   -3.6643 C   0  0  0  0  0  0  0  0  0  0  0  0
   28.3614  -19.2752   -5.1686 S   0  0  0  0  0  0  0  0  0  0  0  0
   27.2846  -20.3550   -6.1635 C   0  0  0  0  0  0  0  0  0  0  0  0
   26.9567  -19.6620   -7.4506 C   0  0  0  0  0  0  0  0  0  0  0  0
   26.1436  -20.5237   -8.3428 C   0  0  2  0  0  0  0  0  0  0  0  0
   25.7919  -19.8160   -9.5826 N   0  0  0  0  0  0  0  0  0  0  0  0
   24.9439  -21.0397   -7.6834 C   0  0  0  0  0  0  0  0  0  0  0  0
   23.7589  -20.7016   -7.8741 O   0  0  0  0  0  0  0  0  0  0  0  0
   25.1076  -22.0493   -6.7005 O   0  0  0  0  0  0  0  0  0  0  0  0
  1  2  1  0
  3  2  1  0
  4  3  1  0
  5  4  1  0
  5  1  1  0
  5  6  1  1
  6  7  2  0
  8  6  1  0
  9  8  1  0
  9 10  1  6
 11 10  1  0
 12 11  1  0
 13 12  2  0
 14  9  1  0
 15 14  2  0
 16 12  1  0
 18 17  1  0
 19 18  1  0
 20 19  1  0
 21 22  1  0
 21 20  1  1
 22 14  1  0
 23 21  1  0
 24 23  2  0
 25 23  1  0
M  END
$$$$
