PEM.pdb
     RDKit          3D

 25 25  0  0  1  0  0  0  0  0999 V2000
   28.5897  -20.8762  -14.9293 N   0  0  0  0  0  0  0  0  0  0  0  0
   27.7091  -20.7621  -16.0592 C   0  0  0  0  0  0  0  0  0  0  0  0
   28.2427  -19.4844  -16.7158 C   0  0  0  0  0  0  0  0  0  0  0  0
   28.3807  -18.5925  -15.4870 C   0  0  0  0  0  0  0  0  0  0  0  0
   28.6328  -19.5798  -14.3483 C   0  0  1  0  0  0  0  0  0  0  0  0
   27.6368  -19.3051  -13.3100 C   0  0  0  0  0  0  0  0  0  0  0  0
   27.4854  -18.1616  -12.7822 O   0  0  0  0  0  0  0  0  0  0  0  0
   26.7952  -20.3249  -12.8535 N   0  0  0  0  0  0  0  0  0  0  0  0
   25.8427  -20.1262  -11.7483 C   0  0  1  0  0  0  0  0  0  0  0  0
   24.5214  -20.6187  -12.2554 C   0  0  0  0  0  0  0  0  0  0  0  0
   23.3550  -20.2338  -11.3918 C   0  0  0  0  0  0  0  0  0  0  0  0
   22.0577  -20.6739  -11.9795 C   0  0  0  0  0  0  0  0  0  0  0  0
   21.2147  -21.1955  -11.1927 O   0  0  0  0  0  0  0  0  0  0  0  0
   26.2856  -21.0510  -10.6573 C   0  0  0  0  0  0  0  0  0  0  0  0
   27.4064  -21.6522  -10.7454 O   0  0  0  0  0  0  0  0  0  0  0  0
   21.7698  -20.5225  -13.3456 O   0  0  0  0  0  0  0  0  0  0  0  0
   29.2668  -19.9189   -4.8939 C   0  0  0  0  0  0  0  0  0  0  0  0
   28.5430  -20.2806   -6.4954 S   0  0  0  0  0  0  0  0  0  0  0  0
   27.1656  -19.1552   -6.8846 C   0  0  0  0  0  0  0  0  0  0  0  0
   26.5837  -19.5392   -8.2106 C   0  0  0  0  0  0  0  0  0  0  0  0
   25.9229  -20.8658   -8.1532 C   0  0  2  0  0  0  0  0  0  0  0  0
   25.5135  -21.3097   -9.4937 N   0  0  0  0  0  0  0  0  0  0  0  0
   24.7867  -20.8869   -7.2318 C   0  0  0  0  0  0  0  0  0  0  0  0
   23.6610  -20.3744   -7.3909 O   0  0  0  0  0  0  0  0  0  0  0  0
   24.9458  -21.5634   -5.9951 O   0  0  0  0  0  0  0  0  0  0  0  0
  1  2  1  0
  3  2  1  0
  4  3  1  0
  5  4  1  0
  5  1  1  0
  5  6  1  1
  6  7  2  0
  8  6  1  0
  9  8  1  0
  9 10  1  6
 11 10  1  0
 12 11  1  0
 13 12  2  0
 14  9  1  0
 15 14  2  0
 16 12  1  0
 18 17  1  0
 19 18  1  0
 20 19  1  0
 21 22  1  0
 21 20  1  6
 22 14  1  0
 23 21  1  0
 24 23  2  0
 25 23  1  0
M  END
$$$$
