PEM.pdb
     RDKit          3D

 25 25  0  0  1  0  0  0  0  0999 V2000
   31.6701  -26.9781  -17.3845 N   0  0  0  0  0  0  0  0  0  0  0  0
   31.5571  -25.7772  -18.1656 C   0  0  0  0  0  0  0  0  0  0  0  0
   31.8902  -24.7138  -17.1137 C   0  0  0  0  0  0  0  0  0  0  0  0
   31.0360  -25.2119  -15.9532 C   0  0  0  0  0  0  0  0  0  0  0  0
   30.9534  -26.7200  -16.1845 C   0  0  1  0  0  0  0  0  0  0  0  0
   29.5333  -27.0788  -16.1918 C   0  0  0  0  0  0  0  0  0  0  0  0
   28.7356  -26.7634  -15.2573 O   0  0  0  0  0  0  0  0  0  0  0  0
   28.9947  -27.8021  -17.2612 N   0  0  0  0  0  0  0  0  0  0  0  0
   27.5697  -28.1669  -17.3287 C   0  0  1  0  0  0  0  0  0  0  0  0
   27.0022  -27.3835  -18.4731 C   0  0  0  0  0  0  0  0  0  0  0  0
   26.5143  -26.0153  -18.0928 C   0  0  0  0  0  0  0  0  0  0  0  0
   25.3725  -26.0771  -17.1365 C   0  0  0  0  0  0  0  0  0  0  0  0
   25.4466  -25.3528  -16.1012 O   0  0  0  0  0  0  0  0  0  0  0  0
   27.5373  -29.6151  -17.7072 C   0  0  0  0  0  0  0  0  0  0  0  0
   28.4505  -30.1011  -18.4524 O   0  0  0  0  0  0  0  0  0  0  0  0
   24.2563  -26.8988  -17.3619 O   0  0  0  0  0  0  0  0  0  0  0  0
   23.2639  -32.5091  -13.9003 C   0  0  0  0  0  0  0  0  0  0  0  0
   24.3776  -33.6720  -14.6920 S   0  0  0  0  0  0  0  0  0  0  0  0
   25.7531  -32.8256  -15.5327 C   0  0  0  0  0  0  0  0  0  0  0  0
   25.4064  -32.6536  -16.9799 C   0  0  0  0  0  0  0  0  0  0  0  0
   26.4642  -31.9141  -17.7106 C   0  0  2  0  0  0  0  0  0  0  0  0
   26.5231  -30.5108  -17.2758 N   0  0  0  0  0  0  0  0  0  0  0  0
   26.3075  -31.9997  -19.1626 C   0  0  0  0  0  0  0  0  0  0  0  0
   26.0612  -31.0755  -19.9628 O   0  0  0  0  0  0  0  0  0  0  0  0
   26.4452  -33.2730  -19.7724 O   0  0  0  0  0  0  0  0  0  0  0  0
  1  2  1  0
  3  2  1  0
  4  3  1  0
  5  4  1  0
  5  1  1  0
  5  6  1  6
  6  7  2  0
  8  6  1  0
  9  8  1  0
  9 10  1  6
 11 10  1  0
 12 11  1  0
 13 12  2  0
 14  9  1  0
 15 14  2  0
 16 12  1  0
 18 17  1  0
 19 18  1  0
 20 19  1  0
 21 22  1  0
 21 20  1  1
 22 14  1  0
 23 21  1  0
 24 23  2  0
 25 23  1  0
M  END
$$$$
