PEM.pdb
     RDKit          3D

 25 25  0  0  1  0  0  0  0  0999 V2000
   17.9950  -13.0572  -15.7141 N   0  0  0  0  0  0  0  0  0  0  0  0
   16.8980  -13.1611  -16.6366 C   0  0  0  0  0  0  0  0  0  0  0  0
   17.4771  -14.1348  -17.6685 C   0  0  0  0  0  0  0  0  0  0  0  0
   18.8627  -13.5273  -17.8580 C   0  0  0  0  0  0  0  0  0  0  0  0
   19.1493  -12.8521  -16.5176 C   0  0  1  0  0  0  0  0  0  0  0  0
   19.4977  -11.4581  -16.8019 C   0  0  0  0  0  0  0  0  0  0  0  0
   20.4279  -11.1263  -17.5980 O   0  0  0  0  0  0  0  0  0  0  0  0
   18.7950  -10.4166  -16.1867 N   0  0  0  0  0  0  0  0  0  0  0  0
   19.1114   -8.9994  -16.4309 C   0  0  1  0  0  0  0  0  0  0  0  0
   17.9945   -8.2191  -15.8070 C   0  0  0  0  0  0  0  0  0  0  0  0
   18.1648   -6.7302  -15.8998 C   0  0  0  0  0  0  0  0  0  0  0  0
   17.0237   -5.9994  -15.2787 C   0  0  0  0  0  0  0  0  0  0  0  0
   16.1164   -6.6972  -14.7387 O   0  0  0  0  0  0  0  0  0  0  0  0
   20.3563   -8.7190  -15.6479 C   0  0  0  0  0  0  0  0  0  0  0  0
   20.4399   -9.0832  -14.4290 O   0  0  0  0  0  0  0  0  0  0  0  0
   16.9459   -4.5973  -15.2848 O   0  0  0  0  0  0  0  0  0  0  0  0
   26.3310  -10.8588  -14.4644 C   0  0  0  0  0  0  0  0  0  0  0  0
   26.3971   -9.3197  -15.3842 S   0  0  0  0  0  0  0  0  0  0  0  0
   25.0346   -8.2009  -14.9291 C   0  0  0  0  0  0  0  0  0  0  0  0
   23.8234   -8.5564  -15.7361 C   0  0  0  0  0  0  0  0  0  0  0  0
   22.6646   -7.6986  -15.3882 C   0  0  2  0  0  0  0  0  0  0  0  0
   21.4860   -8.0525  -16.1927 N   0  0  0  0  0  0  0  0  0  0  0  0
   22.9657   -6.2722  -15.5112 C   0  0  0  0  0  0  0  0  0  0  0  0
   22.8361   -5.5453  -16.5161 O   0  0  0  0  0  0  0  0  0  0  0  0
   23.4688   -5.5979  -14.3691 O   0  0  0  0  0  0  0  0  0  0  0  0
  1  2  1  0
  3  2  1  0
  4  3  1  0
  5  4  1  0
  5  1  1  0
  5  6  1  6
  6  7  2  0
  8  6  1  0
  9  8  1  0
  9 10  1  1
 11 10  1  0
 12 11  1  0
 13 12  2  0
 14  9  1  0
 15 14  2  0
 16 12  1  0
 18 17  1  0
 19 18  1  0
 20 19  1  0
 21 22  1  0
 21 20  1  6
 22 14  1  0
 23 21  1  0
 24 23  2  0
 25 23  1  0
M  END
$$$$
