LKQ.pdb
     RDKit          3D

 27 26  0  0  1  0  0  0  0  0999 V2000
   24.1985  -21.7794  -10.0423 C   0  0  0  0  0  0  0  0  0  0  0  0
   25.5788  -21.2246   -9.9110 C   0  0  2  0  0  0  0  0  0  0  0  0
   25.6927  -20.4051   -8.6383 C   0  0  0  0  0  0  0  0  0  0  0  0
   26.0636  -20.4649  -11.1124 C   0  0  0  0  0  0  0  0  0  0  0  0
   25.8628  -21.2701  -12.3694 C   0  0  2  0  0  0  0  0  0  0  0  0
   27.1519  -21.6199  -12.9281 N   0  0  0  0  0  0  0  0  0  0  0  0
   25.0521  -20.5598  -13.3765 C   0  0  0  0  0  0  0  0  0  0  0  0
   25.4090  -19.4020  -13.7130 O   0  0  0  0  0  0  0  0  0  0  0  0
   23.9049  -21.0832  -13.9910 N   0  0  0  0  0  0  0  0  0  0  0  0
   23.2548  -20.3398  -15.0861 C   0  0  1  0  0  0  0  0  0  0  0  0
   23.4633  -21.0429  -16.3842 C   0  0  0  0  0  0  0  0  0  0  0  0
   22.9185  -20.2345  -17.5251 C   0  0  0  0  0  0  0  0  0  0  0  0
   22.9833  -20.9815  -18.8362 C   0  0  0  0  0  0  0  0  0  0  0  0
   22.5073  -20.1150  -19.9898 C   0  0  0  0  0  0  0  0  0  0  0  0
   22.6079  -20.8118  -21.2376 N   0  0  0  0  0  0  0  0  0  0  0  0
   21.8216  -20.1351  -14.7494 C   0  0  0  0  0  0  0  0  0  0  0  0
   21.1649  -20.9352  -14.0697 O   0  0  0  0  0  0  0  0  0  0  0  0
   15.6385  -16.3701  -16.4894 N   0  0  0  0  0  0  0  0  0  0  0  0
   17.0479  -16.4837  -16.3410 C   0  0  0  0  0  0  0  0  0  0  0  0
   17.7810  -15.6716  -16.9599 O   0  0  0  0  0  0  0  0  0  0  0  0
   17.6143  -17.5473  -15.4683 C   0  0  0  0  0  0  0  0  0  0  0  0
   19.0823  -17.7548  -15.8558 C   0  0  0  0  0  0  0  0  0  0  0  0
   19.6999  -18.7908  -14.9360 C   0  0  2  0  0  0  0  0  0  0  0  0
   21.1087  -18.9727  -15.2053 N   0  0  0  0  0  0  0  0  0  0  0  0
   19.0119  -20.0786  -15.1703 C   0  0  0  0  0  0  0  0  0  0  0  0
   19.1707  -20.7333  -16.3788 O   0  0  0  0  0  0  0  0  0  0  0  0
   18.2776  -20.6127  -14.3060 O   0  0  0  0  0  0  0  0  0  0  0  0
  2  1  1  6
  3  2  1  0
  4  5  1  0
  4  2  1  0
  5  7  1  0
  5  6  1  6
  7  8  2  0
  9 10  1  0
  9  7  1  0
 10 11  1  6
 12 11  1  0
 13 14  1  0
 13 12  1  0
 15 14  1  0
 16 10  1  0
 16 17  2  0
 18 19  1  0
 19 21  1  0
 20 19  2  0
 21 22  1  0
 23 22  1  6
 23 24  1  0
 23 25  1  0
 24 16  1  0
 25 26  1  0
 27 25  2  0
M  END
$$$$
