LKQ.pdb
     RDKit          3D

 27 26  0  0  1  0  0  0  0  0999 V2000
   24.1616  -26.2277  -15.3410 C   0  0  0  0  0  0  0  0  0  0  0  0
   24.1547  -24.7907  -15.7475 C   0  0  2  0  0  0  0  0  0  0  0  0
   24.1932  -24.6767  -17.2608 C   0  0  0  0  0  0  0  0  0  0  0  0
   25.2156  -23.9517  -15.0947 C   0  0  0  0  0  0  0  0  0  0  0  0
   25.0812  -22.5085  -15.5041 C   0  0  2  0  0  0  0  0  0  0  0  0
   26.3104  -21.8058  -15.2015 N   0  0  0  0  0  0  0  0  0  0  0  0
   23.9417  -21.8359  -14.8519 C   0  0  0  0  0  0  0  0  0  0  0  0
   24.0022  -21.6400  -13.6112 O   0  0  0  0  0  0  0  0  0  0  0  0
   22.7879  -21.3957  -15.5169 N   0  0  0  0  0  0  0  0  0  0  0  0
   21.6774  -20.8047  -14.7473 C   0  0  1  0  0  0  0  0  0  0  0  0
   21.1195  -19.6242  -15.4671 C   0  0  0  0  0  0  0  0  0  0  0  0
   21.9826  -18.4139  -15.2612 C   0  0  0  0  0  0  0  0  0  0  0  0
   21.4908  -17.2217  -16.0473 C   0  0  0  0  0  0  0  0  0  0  0  0
   22.3634  -16.0019  -15.8046 C   0  0  0  0  0  0  0  0  0  0  0  0
   21.8892  -14.8698  -16.5437 N   0  0  0  0  0  0  0  0  0  0  0  0
   20.6663  -21.8578  -14.4683 C   0  0  0  0  0  0  0  0  0  0  0  0
   20.4922  -22.8403  -15.2015 O   0  0  0  0  0  0  0  0  0  0  0  0
   17.9729  -24.9667   -9.0714 N   0  0  0  0  0  0  0  0  0  0  0  0
   18.8343  -25.0550  -10.1990 C   0  0  0  0  0  0  0  0  0  0  0  0
   19.0735  -26.1913  -10.6804 O   0  0  0  0  0  0  0  0  0  0  0  0
   19.4245  -23.8167  -10.7751 C   0  0  0  0  0  0  0  0  0  0  0  0
   19.5448  -24.0028  -12.2914 C   0  0  0  0  0  0  0  0  0  0  0  0
   18.8752  -22.8361  -12.9923 C   0  0  2  0  0  0  0  0  0  0  0  0
   19.8203  -21.7883  -13.3078 N   0  0  0  0  0  0  0  0  0  0  0  0
   17.8527  -22.2803  -12.0800 C   0  0  0  0  0  0  0  0  0  0  0  0
   16.6964  -22.9960  -11.8251 O   0  0  0  0  0  0  0  0  0  0  0  0
   17.9903  -21.1685  -11.5173 O   0  0  0  0  0  0  0  0  0  0  0  0
  2  1  1  6
  3  2  1  0
  4  5  1  0
  4  2  1  0
  5  7  1  0
  5  6  1  1
  7  8  2  0
  9 10  1  0
  9  7  1  0
 10 11  1  6
 12 11  1  0
 13 14  1  0
 13 12  1  0
 15 14  1  0
 16 10  1  0
 16 17  2  0
 18 19  1  0
 19 21  1  0
 20 19  2  0
 21 22  1  0
 23 22  1  1
 23 24  1  0
 23 25  1  0
 24 16  1  0
 25 26  1  0
 27 25  2  0
M  END
$$$$
