LKQ.pdb
     RDKit          3D

 27 26  0  0  1  0  0  0  0  0999 V2000
   21.7384   -9.6332  -12.0102 C   0  0  0  0  0  0  0  0  0  0  0  0
   21.3673   -8.4056  -12.7752 C   0  0  2  0  0  0  0  0  0  0  0  0
   22.5805   -7.5088  -12.9430 C   0  0  0  0  0  0  0  0  0  0  0  0
   20.1888   -7.6571  -12.2218 C   0  0  0  0  0  0  0  0  0  0  0  0
   19.0028   -8.5718  -12.0625 C   0  0  2  0  0  0  0  0  0  0  0  0
   18.6601   -9.1439  -13.3476 N   0  0  0  0  0  0  0  0  0  0  0  0
   17.8301   -7.8876  -11.4856 C   0  0  0  0  0  0  0  0  0  0  0  0
   17.2339   -7.0373  -12.1946 O   0  0  0  0  0  0  0  0  0  0  0  0
   17.3271   -8.1163  -10.1964 N   0  0  0  0  0  0  0  0  0  0  0  0
   16.1337   -7.3840   -9.7335 C   0  0  1  0  0  0  0  0  0  0  0  0
   15.2317   -8.2938   -8.9709 C   0  0  0  0  0  0  0  0  0  0  0  0
   14.4170   -9.1441   -9.9012 C   0  0  0  0  0  0  0  0  0  0  0  0
   13.5275  -10.1123   -9.1580 C   0  0  0  0  0  0  0  0  0  0  0  0
   12.7293  -10.9777  -10.1183 C   0  0  0  0  0  0  0  0  0  0  0  0
   11.9159  -11.9220   -9.4116 N   0  0  0  0  0  0  0  0  0  0  0  0
   16.5666   -6.1938   -8.9553 C   0  0  0  0  0  0  0  0  0  0  0  0
   17.3756   -6.2542   -8.0199 O   0  0  0  0  0  0  0  0  0  0  0  0
   18.5206   -0.7566  -10.4836 N   0  0  0  0  0  0  0  0  0  0  0  0
   18.2490   -0.5076   -9.1105 C   0  0  0  0  0  0  0  0  0  0  0  0
   18.6566    0.5696   -8.6069 O   0  0  0  0  0  0  0  0  0  0  0  0
   17.4987   -1.5145   -8.3126 C   0  0  0  0  0  0  0  0  0  0  0  0
   17.2356   -2.7334   -9.2032 C   0  0  0  0  0  0  0  0  0  0  0  0
   16.3879   -3.7346   -8.4417 C   0  0  2  0  0  0  0  0  0  0  0  0
   16.0572   -4.8832   -9.2553 N   0  0  0  0  0  0  0  0  0  0  0  0
   15.1292   -3.0642   -8.0506 C   0  0  0  0  0  0  0  0  0  0  0  0
   13.9413   -3.4193   -8.6645 O   0  0  0  0  0  0  0  0  0  0  0  0
   15.0910   -2.1719   -7.1709 O   0  0  0  0  0  0  0  0  0  0  0  0
  2  1  1  1
  3  2  1  0
  4  5  1  0
  4  2  1  0
  5  7  1  0
  5  6  1  6
  7  8  2  0
  9 10  1  0
  9  7  1  0
 10 11  1  1
 12 11  1  0
 13 14  1  0
 13 12  1  0
 15 14  1  0
 16 10  1  0
 16 17  2  0
 18 19  1  0
 19 21  1  0
 20 19  2  0
 21 22  1  0
 23 22  1  6
 23 24  1  0
 23 25  1  0
 24 16  1  0
 25 26  1  0
 27 25  2  0
M  END
$$$$
