LKQ.pdb
     RDKit          3D

 27 26  0  0  1  0  0  0  0  0999 V2000
   12.4741  -10.0274  -11.9598 C   0  0  0  0  0  0  0  0  0  0  0  0
   12.9970   -9.0662  -10.9436 C   0  0  2  0  0  0  0  0  0  0  0  0
   12.0135   -7.9263  -10.7493 C   0  0  0  0  0  0  0  0  0  0  0  0
   14.3877   -8.5673  -11.2130 C   0  0  0  0  0  0  0  0  0  0  0  0
   15.3334   -9.7182  -11.4357 C   0  0  2  0  0  0  0  0  0  0  0  0
   15.7263  -10.2727  -10.1573 N   0  0  0  0  0  0  0  0  0  0  0  0
   16.5297   -9.3303  -12.2068 C   0  0  0  0  0  0  0  0  0  0  0  0
   17.3921   -8.6129  -11.6387 O   0  0  0  0  0  0  0  0  0  0  0  0
   16.7787   -9.7047  -13.5354 N   0  0  0  0  0  0  0  0  0  0  0  0
   18.0288   -9.2838  -14.1947 C   0  0  1  0  0  0  0  0  0  0  0  0
   18.2538  -10.0806  -15.4346 C   0  0  0  0  0  0  0  0  0  0  0  0
   19.4934   -9.6247  -16.1471 C   0  0  0  0  0  0  0  0  0  0  0  0
   20.6743  -10.5247  -15.8707 C   0  0  0  0  0  0  0  0  0  0  0  0
   21.9127  -10.0556  -16.6154 C   0  0  0  0  0  0  0  0  0  0  0  0
   22.9837  -10.9983  -16.4860 N   0  0  0  0  0  0  0  0  0  0  0  0
   17.9803   -7.8180  -14.4359 C   0  0  0  0  0  0  0  0  0  0  0  0
   16.9677   -7.2318  -14.8412 O   0  0  0  0  0  0  0  0  0  0  0  0
   21.7697   -3.1503  -14.6519 N   0  0  0  0  0  0  0  0  0  0  0  0
   22.3181   -4.3982  -14.2479 C   0  0  0  0  0  0  0  0  0  0  0  0
   23.5434   -4.6025  -14.4402 O   0  0  0  0  0  0  0  0  0  0  0  0
   21.4402   -5.4196  -13.6156 C   0  0  0  0  0  0  0  0  0  0  0  0
   20.0339   -4.8262  -13.4801 C   0  0  0  0  0  0  0  0  0  0  0  0
   19.0910   -5.5576  -14.4165 C   0  0  2  0  0  0  0  0  0  0  0  0
   19.1312   -6.9874  -14.2059 N   0  0  0  0  0  0  0  0  0  0  0  0
   19.5186   -5.2801  -15.8046 C   0  0  0  0  0  0  0  0  0  0  0  0
   20.2206   -6.2392  -16.5128 O   0  0  0  0  0  0  0  0  0  0  0  0
   19.2681   -4.1939  -16.3781 O   0  0  0  0  0  0  0  0  0  0  0  0
  2  1  1  6
  3  2  1  0
  4  5  1  0
  4  2  1  0
  5  7  1  0
  5  6  1  1
  7  8  2  0
  9 10  1  0
  9  7  1  0
 10 11  1  6
 12 11  1  0
 13 14  1  0
 13 12  1  0
 15 14  1  0
 16 10  1  0
 16 17  2  0
 18 19  1  0
 19 21  1  0
 20 19  2  0
 21 22  1  0
 23 22  1  1
 23 24  1  0
 23 25  1  0
 24 16  1  0
 25 26  1  0
 27 25  2  0
M  END
$$$$
