LKQ.pdb
     RDKit          3D

 27 26  0  0  1  0  0  0  0  0999 V2000
   29.7626  -18.0614  -18.4544 C   0  0  0  0  0  0  0  0  0  0  0  0
   28.8651  -16.8751  -18.5858 C   0  0  2  0  0  0  0  0  0  0  0  0
   29.6902  -15.6039  -18.6721 C   0  0  0  0  0  0  0  0  0  0  0  0
   27.7970  -16.7802  -17.5342 C   0  0  0  0  0  0  0  0  0  0  0  0
   27.0600  -18.0872  -17.4031 C   0  0  2  0  0  0  0  0  0  0  0  0
   26.6647  -18.5508  -18.7165 N   0  0  0  0  0  0  0  0  0  0  0  0
   25.8780  -17.9881  -16.5259 C   0  0  0  0  0  0  0  0  0  0  0  0
   26.0433  -17.5511  -15.3585 O   0  0  0  0  0  0  0  0  0  0  0  0
   24.5747  -18.3475  -16.8996 N   0  0  0  0  0  0  0  0  0  0  0  0
   23.4638  -18.1764  -15.9449 C   0  0  1  0  0  0  0  0  0  0  0  0
   22.2605  -17.6390  -16.6420 C   0  0  0  0  0  0  0  0  0  0  0  0
   21.1278  -17.4382  -15.6782 C   0  0  0  0  0  0  0  0  0  0  0  0
   19.9118  -16.8383  -16.3435 C   0  0  0  0  0  0  0  0  0  0  0  0
   18.7829  -16.6318  -15.3478 C   0  0  0  0  0  0  0  0  0  0  0  0
   17.6312  -16.0612  -15.9808 N   0  0  0  0  0  0  0  0  0  0  0  0
   23.2167  -19.4678  -15.2518 C   0  0  0  0  0  0  0  0  0  0  0  0
   22.9144  -20.5096  -15.8490 O   0  0  0  0  0  0  0  0  0  0  0  0
   26.3249  -21.6579  -10.5944 N   0  0  0  0  0  0  0  0  0  0  0  0
   25.2433  -20.9319  -10.0247 C   0  0  0  0  0  0  0  0  0  0  0  0
   25.3073  -20.6214   -8.8083 O   0  0  0  0  0  0  0  0  0  0  0  0
   24.0767  -20.5619  -10.8706 C   0  0  0  0  0  0  0  0  0  0  0  0
   24.2602  -21.2049  -12.2493 C   0  0  0  0  0  0  0  0  0  0  0  0
   23.0886  -20.8282  -13.1360 C   0  0  2  0  0  0  0  0  0  0  0  0
   23.3182  -19.5761  -13.8217 N   0  0  0  0  0  0  0  0  0  0  0  0
   21.8951  -20.6753  -12.2764 C   0  0  0  0  0  0  0  0  0  0  0  0
   21.2653  -21.7974  -11.7681 O   0  0  0  0  0  0  0  0  0  0  0  0
   21.4205  -19.5527  -11.9828 O   0  0  0  0  0  0  0  0  0  0  0  0
  2  1  1  1
  3  2  1  0
  4  5  1  0
  4  2  1  0
  5  7  1  0
  5  6  1  6
  7  8  2  0
  9 10  1  0
  9  7  1  0
 10 11  1  6
 12 11  1  0
 13 14  1  0
 13 12  1  0
 15 14  1  0
 16 10  1  0
 16 17  2  0
 18 19  1  0
 19 21  1  0
 20 19  2  0
 21 22  1  0
 23 22  1  1
 23 24  1  0
 23 25  1  0
 24 16  1  0
 25 26  1  0
 27 25  2  0
M  END
$$$$
