LKQ.pdb
     RDKit          3D

 27 26  0  0  1  0  0  0  0  0999 V2000
   28.8110  -20.5117  -15.3470 C   0  0  0  0  0  0  0  0  0  0  0  0
   28.3543  -20.5211  -16.7688 C   0  0  2  0  0  0  0  0  0  0  0  0
   28.2814  -19.1019  -17.3026 C   0  0  0  0  0  0  0  0  0  0  0  0
   27.0796  -21.2775  -17.0105 C   0  0  0  0  0  0  0  0  0  0  0  0
   27.1893  -22.6873  -16.4919 C   0  0  2  0  0  0  0  0  0  0  0  0
   28.1726  -23.4112  -17.2699 N   0  0  0  0  0  0  0  0  0  0  0  0
   25.9001  -23.4039  -16.5152 C   0  0  0  0  0  0  0  0  0  0  0  0
   25.3420  -23.5805  -17.6281 O   0  0  0  0  0  0  0  0  0  0  0  0
   25.2459  -23.9066  -15.3808 N   0  0  0  0  0  0  0  0  0  0  0  0
   23.9754  -24.6399  -15.5308 C   0  0  1  0  0  0  0  0  0  0  0  0
   23.8201  -25.6363  -14.4326 C   0  0  0  0  0  0  0  0  0  0  0  0
   22.5572  -26.4290  -14.6027 C   0  0  0  0  0  0  0  0  0  0  0  0
   22.4585  -27.5649  -13.6123 C   0  0  0  0  0  0  0  0  0  0  0  0
   21.3098  -28.4984  -13.9551 C   0  0  0  0  0  0  0  0  0  0  0  0
   21.1684  -29.5297  -12.9707 N   0  0  0  0  0  0  0  0  0  0  0  0
   22.8573  -23.6633  -15.6039 C   0  0  0  0  0  0  0  0  0  0  0  0
   22.7639  -22.6838  -14.8522 O   0  0  0  0  0  0  0  0  0  0  0  0
   19.2207  -22.3078  -12.9307 N   0  0  0  0  0  0  0  0  0  0  0  0
   18.5995  -21.5126  -13.9322 C   0  0  0  0  0  0  0  0  0  0  0  0
   17.4924  -20.9785  -13.6693 O   0  0  0  0  0  0  0  0  0  0  0  0
   19.2657  -21.3336  -15.2504 C   0  0  0  0  0  0  0  0  0  0  0  0
   20.5550  -22.1619  -15.2530 C   0  0  0  0  0  0  0  0  0  0  0  0
   20.5929  -23.0227  -16.5014 C   0  0  2  0  0  0  0  0  0  0  0  0
   21.8043  -23.8087  -16.5721 N   0  0  0  0  0  0  0  0  0  0  0  0
   20.5514  -22.1261  -17.6766 C   0  0  0  0  0  0  0  0  0  0  0  0
   21.7213  -21.8171  -18.3475 O   0  0  0  0  0  0  0  0  0  0  0  0
   19.4830  -21.6246  -18.0991 O   0  0  0  0  0  0  0  0  0  0  0  0
  2  1  1  1
  3  2  1  0
  4  5  1  0
  4  2  1  0
  5  7  1  0
  5  6  1  6
  7  8  2  0
  9 10  1  0
  9  7  1  0
 10 11  1  1
 12 11  1  0
 13 14  1  0
 13 12  1  0
 15 14  1  0
 16 10  1  0
 16 17  2  0
 18 19  1  0
 19 21  1  0
 20 19  2  0
 21 22  1  0
 23 22  1  1
 23 24  1  0
 23 25  1  0
 24 16  1  0
 25 26  1  0
 27 25  2  0
M  END
$$$$
