LKQ.pdb
     RDKit          3D

 27 26  0  0  1  0  0  0  0  0999 V2000
   21.8629  -14.2344  -18.9999 C   0  0  0  0  0  0  0  0  0  0  0  0
   20.8929  -13.5181  -19.8808 C   0  0  2  0  0  0  0  0  0  0  0  0
   20.8839  -14.1438  -21.2638 C   0  0  0  0  0  0  0  0  0  0  0  0
   21.0839  -12.0296  -19.9399 C   0  0  0  0  0  0  0  0  0  0  0  0
   21.0215  -11.4287  -18.5601 C   0  0  2  0  0  0  0  0  0  0  0  0
   19.8688  -11.9532  -17.8583 N   0  0  0  0  0  0  0  0  0  0  0  0
   20.9704   -9.9545  -18.5835 C   0  0  0  0  0  0  0  0  0  0  0  0
   21.9734   -9.3353  -19.0216 O   0  0  0  0  0  0  0  0  0  0  0  0
   19.8792   -9.1870  -18.1507 N   0  0  0  0  0  0  0  0  0  0  0  0
   19.9092   -7.7200  -18.2979 C   0  0  1  0  0  0  0  0  0  0  0  0
   18.8827   -7.2776  -19.2846 C   0  0  0  0  0  0  0  0  0  0  0  0
   17.4986   -7.4434  -18.7289 C   0  0  0  0  0  0  0  0  0  0  0  0
   16.4391   -6.9222  -19.6707 C   0  0  0  0  0  0  0  0  0  0  0  0
   15.0455   -7.1230  -19.0999 C   0  0  0  0  0  0  0  0  0  0  0  0
   14.0514   -6.5142  -19.9329 N   0  0  0  0  0  0  0  0  0  0  0  0
   19.7487   -7.0948  -16.9590 C   0  0  0  0  0  0  0  0  0  0  0  0
   18.7721   -7.3039  -16.2270 O   0  0  0  0  0  0  0  0  0  0  0  0
   20.7058   -8.5630  -12.2003 N   0  0  0  0  0  0  0  0  0  0  0  0
   21.8170   -8.5033  -13.0851 C   0  0  0  0  0  0  0  0  0  0  0  0
   22.7568   -9.3215  -12.9196 O   0  0  0  0  0  0  0  0  0  0  0  0
   21.8410   -7.4872  -14.1716 C   0  0  0  0  0  0  0  0  0  0  0  0
   20.6082   -6.5902  -14.0172 C   0  0  0  0  0  0  0  0  0  0  0  0
   20.5893   -5.5698  -15.1393 C   0  0  2  0  0  0  0  0  0  0  0  0
   20.7404   -6.1960  -16.4337 N   0  0  0  0  0  0  0  0  0  0  0  0
   21.7248   -4.6446  -14.9353 C   0  0  0  0  0  0  0  0  0  0  0  0
   21.7944   -3.8854  -13.7807 O   0  0  0  0  0  0  0  0  0  0  0  0
   22.6437   -4.5158  -15.7782 O   0  0  0  0  0  0  0  0  0  0  0  0
  2  1  1  1
  3  2  1  0
  4  5  1  0
  4  2  1  0
  5  7  1  0
  5  6  1  6
  7  8  2  0
  9 10  1  0
  9  7  1  0
 10 11  1  6
 12 11  1  0
 13 14  1  0
 13 12  1  0
 15 14  1  0
 16 10  1  0
 16 17  2  0
 18 19  1  0
 19 21  1  0
 20 19  2  0
 21 22  1  0
 23 22  1  1
 23 24  1  0
 23 25  1  0
 24 16  1  0
 25 26  1  0
 27 25  2  0
M  END
$$$$
