LKQ.pdb
     RDKit          3D

 27 26  0  0  1  0  0  0  0  0999 V2000
   26.4368  -34.6691  -13.4980 C   0  0  0  0  0  0  0  0  0  0  0  0
   26.2563  -33.5445  -12.5322 C   0  0  2  0  0  0  0  0  0  0  0  0
   27.1094  -33.7750  -11.2979 C   0  0  0  0  0  0  0  0  0  0  0  0
   24.8271  -33.2479  -12.1787 C   0  0  0  0  0  0  0  0  0  0  0  0
   24.3788  -34.0934  -11.0156 C   0  0  2  0  0  0  0  0  0  0  0  0
   24.1192  -35.4424  -11.4729 N   0  0  0  0  0  0  0  0  0  0  0  0
   23.1833  -33.5492  -10.3441 C   0  0  0  0  0  0  0  0  0  0  0  0
   23.2577  -32.3965   -9.8473 O   0  0  0  0  0  0  0  0  0  0  0  0
   21.9614  -34.2264  -10.2178 N   0  0  0  0  0  0  0  0  0  0  0  0
   20.8369  -33.5858   -9.5109 C   0  0  1  0  0  0  0  0  0  0  0  0
   19.5677  -33.7886  -10.2664 C   0  0  0  0  0  0  0  0  0  0  0  0
   19.2327  -32.5773  -11.0865 C   0  0  0  0  0  0  0  0  0  0  0  0
   17.9983  -32.7837  -11.9319 C   0  0  0  0  0  0  0  0  0  0  0  0
   16.8256  -31.9748  -11.4039 C   0  0  0  0  0  0  0  0  0  0  0  0
   15.6565  -32.1706  -12.2088 N   0  0  0  0  0  0  0  0  0  0  0  0
   20.7831  -34.1010   -8.1177 C   0  0  0  0  0  0  0  0  0  0  0  0
   21.3061  -35.1682   -7.7700 O   0  0  0  0  0  0  0  0  0  0  0  0
   20.4962  -31.0820   -2.9625 N   0  0  0  0  0  0  0  0  0  0  0  0
   20.0616  -32.3261   -2.4290 C   0  0  0  0  0  0  0  0  0  0  0  0
   20.1424  -32.5044   -1.1873 O   0  0  0  0  0  0  0  0  0  0  0  0
   19.5284  -33.3738   -3.3409 C   0  0  0  0  0  0  0  0  0  0  0  0
   19.5198  -32.8105   -4.7661 C   0  0  0  0  0  0  0  0  0  0  0  0
   20.0360  -33.8674   -5.7238 C   0  0  2  0  0  0  0  0  0  0  0  0
   20.1067  -33.3711   -7.0799 N   0  0  0  0  0  0  0  0  0  0  0  0
   19.0962  -35.0089   -5.6950 C   0  0  0  0  0  0  0  0  0  0  0  0
   18.9225  -35.7274   -4.5255 O   0  0  0  0  0  0  0  0  0  0  0  0
   18.4382  -35.3602   -6.7025 O   0  0  0  0  0  0  0  0  0  0  0  0
  2  1  1  6
  3  2  1  0
  4  5  1  0
  4  2  1  0
  5  7  1  0
  5  6  1  6
  7  8  2  0
  9 10  1  0
  9  7  1  0
 10 11  1  6
 12 11  1  0
 13 14  1  0
 13 12  1  0
 15 14  1  0
 16 10  1  0
 16 17  2  0
 18 19  1  0
 19 21  1  0
 20 19  2  0
 21 22  1  0
 23 22  1  1
 23 24  1  0
 23 25  1  0
 24 16  1  0
 25 26  1  0
 27 25  2  0
M  END
$$$$
