LKQ.pdb
     RDKit          3D

 27 26  0  0  1  0  0  0  0  0999 V2000
   25.1996  -13.5263  -18.3373 C   0  0  0  0  0  0  0  0  0  0  0  0
   24.5329  -14.2921  -19.4323 C   0  0  2  0  0  0  0  0  0  0  0  0
   23.4216  -13.4613  -20.0480 C   0  0  0  0  0  0  0  0  0  0  0  0
   24.0571  -15.6607  -19.0375 C   0  0  0  0  0  0  0  0  0  0  0  0
   25.1582  -16.4333  -18.3598 C   0  0  2  0  0  0  0  0  0  0  0  0
   26.1501  -16.8191  -19.3415 N   0  0  0  0  0  0  0  0  0  0  0  0
   24.6614  -17.6264  -17.6485 C   0  0  0  0  0  0  0  0  0  0  0  0
   24.1787  -18.5643  -18.3329 O   0  0  0  0  0  0  0  0  0  0  0  0
   24.6876  -17.7937  -16.2561 N   0  0  0  0  0  0  0  0  0  0  0  0
   24.2204  -19.0590  -15.6599 C   0  0  1  0  0  0  0  0  0  0  0  0
   25.2002  -19.5471  -14.6476 C   0  0  0  0  0  0  0  0  0  0  0  0
   24.7847  -20.8807  -14.0992 C   0  0  0  0  0  0  0  0  0  0  0  0
   25.8087  -21.4501  -13.1461 C   0  0  0  0  0  0  0  0  0  0  0  0
   25.4098  -22.8368  -12.6705 C   0  0  0  0  0  0  0  0  0  0  0  0
   26.3687  -23.3635  -11.7455 N   0  0  0  0  0  0  0  0  0  0  0  0
   22.8536  -18.8607  -15.1105 C   0  0  0  0  0  0  0  0  0  0  0  0
   22.5306  -17.8713  -14.4397 O   0  0  0  0  0  0  0  0  0  0  0  0
   18.5946  -17.6336  -17.8456 N   0  0  0  0  0  0  0  0  0  0  0  0
   18.5225  -17.0362  -16.5575 C   0  0  0  0  0  0  0  0  0  0  0  0
   18.1264  -15.8463  -16.4723 O   0  0  0  0  0  0  0  0  0  0  0  0
   18.9125  -17.8232  -15.3566 C   0  0  0  0  0  0  0  0  0  0  0  0
   19.5084  -19.1541  -15.8276 C   0  0  0  0  0  0  0  0  0  0  0  0
   20.4873  -19.6597  -14.7850 C   0  0  2  0  0  0  0  0  0  0  0  0
   21.8139  -19.8283  -15.3347 N   0  0  0  0  0  0  0  0  0  0  0  0
   20.0102  -20.9764  -14.3103 C   0  0  0  0  0  0  0  0  0  0  0  0
   20.5265  -22.1351  -14.8627 O   0  0  0  0  0  0  0  0  0  0  0  0
   19.1425  -21.0907  -13.4128 O   0  0  0  0  0  0  0  0  0  0  0  0
  2  1  1  1
  3  2  1  0
  4  5  1  0
  4  2  1  0
  5  7  1  0
  5  6  1  6
  7  8  2  0
  9 10  1  0
  9  7  1  0
 10 11  1  1
 12 11  1  0
 13 14  1  0
 13 12  1  0
 15 14  1  0
 16 10  1  0
 16 17  2  0
 18 19  1  0
 19 21  1  0
 20 19  2  0
 21 22  1  0
 23 22  1  6
 23 24  1  0
 23 25  1  0
 24 16  1  0
 25 26  1  0
 27 25  2  0
M  END
$$$$
