LKQ.pdb
     RDKit          3D

 27 26  0  0  1  0  0  0  0  0999 V2000
   26.1059  -32.2485   -4.5490 C   0  0  0  0  0  0  0  0  0  0  0  0
   25.8341  -33.6235   -5.0643 C   0  0  2  0  0  0  0  0  0  0  0  0
   24.3912  -34.0073   -4.7908 C   0  0  0  0  0  0  0  0  0  0  0  0
   26.7946  -34.6726   -4.5821 C   0  0  0  0  0  0  0  0  0  0  0  0
   28.2148  -34.2788   -4.8930 C   0  0  2  0  0  0  0  0  0  0  0  0
   28.4502  -34.4093   -6.3156 N   0  0  0  0  0  0  0  0  0  0  0  0
   29.2034  -35.0762   -4.1426 C   0  0  0  0  0  0  0  0  0  0  0  0
   28.7759  -35.9216   -3.3157 O   0  0  0  0  0  0  0  0  0  0  0  0
   30.5942  -34.9610   -4.2838 N   0  0  0  0  0  0  0  0  0  0  0  0
   31.4860  -35.8502   -3.5166 C   0  0  1  0  0  0  0  0  0  0  0  0
   32.9086  -35.6013   -3.8869 C   0  0  0  0  0  0  0  0  0  0  0  0
   33.8204  -36.5711   -3.1939 C   0  0  0  0  0  0  0  0  0  0  0  0
   35.2724  -36.3322   -3.5339 C   0  0  0  0  0  0  0  0  0  0  0  0
   36.1632  -37.4112   -2.9418 C   0  0  0  0  0  0  0  0  0  0  0  0
   37.5307  -37.2229   -3.3253 N   0  0  0  0  0  0  0  0  0  0  0  0
   31.2146  -35.6749   -2.0657 C   0  0  0  0  0  0  0  0  0  0  0  0
   30.7769  -34.6229   -1.5812 O   0  0  0  0  0  0  0  0  0  0  0  0
   28.4102  -33.5255    1.1269 N   0  0  0  0  0  0  0  0  0  0  0  0
   28.8662  -34.2926    2.2337 C   0  0  0  0  0  0  0  0  0  0  0  0
   28.4798  -33.9682    3.3850 O   0  0  0  0  0  0  0  0  0  0  0  0
   29.7781  -35.4460    2.0061 C   0  0  0  0  0  0  0  0  0  0  0  0
   30.1265  -35.4954    0.5147 C   0  0  0  0  0  0  0  0  0  0  0  0
   31.1312  -36.6058    0.2731 C   0  0  2  0  0  0  0  0  0  0  0  0
   31.4514  -36.7409   -1.1303 N   0  0  0  0  0  0  0  0  0  0  0  0
   30.5305  -37.8749    0.7371 C   0  0  0  0  0  0  0  0  0  0  0  0
   30.1944  -38.0299    2.0702 O   0  0  0  0  0  0  0  0  0  0  0  0
   30.3085  -38.8340   -0.0391 O   0  0  0  0  0  0  0  0  0  0  0  0
  2  1  1  1
  3  2  1  0
  4  5  1  0
  4  2  1  0
  5  7  1  0
  5  6  1  6
  7  8  2  0
  9 10  1  0
  9  7  1  0
 10 11  1  1
 12 11  1  0
 13 14  1  0
 13 12  1  0
 15 14  1  0
 16 10  1  0
 16 17  2  0
 18 19  1  0
 19 21  1  0
 20 19  2  0
 21 22  1  0
 23 22  1  6
 23 24  1  0
 23 25  1  0
 24 16  1  0
 25 26  1  0
 27 25  2  0
M  END
$$$$
