LKQ.pdb
     RDKit          3D

 27 26  0  0  1  0  0  0  0  0999 V2000
   26.4663  -22.5575  -11.6987 C   0  0  0  0  0  0  0  0  0  0  0  0
   26.3699  -21.1305  -11.2690 C   0  0  2  0  0  0  0  0  0  0  0  0
   26.6056  -21.0192   -9.7735 C   0  0  0  0  0  0  0  0  0  0  0  0
   25.1077  -20.4348  -11.6912 C   0  0  0  0  0  0  0  0  0  0  0  0
   24.7911  -20.7330  -13.1332 C   0  0  2  0  0  0  0  0  0  0  0  0
   25.5517  -19.8445  -13.9867 N   0  0  0  0  0  0  0  0  0  0  0  0
   23.3522  -20.6145  -13.4359 C   0  0  0  0  0  0  0  0  0  0  0  0
   22.6821  -19.7629  -12.7980 O   0  0  0  0  0  0  0  0  0  0  0  0
   22.6710  -21.3862  -14.3888 N   0  0  0  0  0  0  0  0  0  0  0  0
   21.2663  -21.0779  -14.7148 C   0  0  1  0  0  0  0  0  0  0  0  0
   21.0703  -21.0576  -16.1927 C   0  0  0  0  0  0  0  0  0  0  0  0
   19.6592  -20.6842  -16.5411 C   0  0  0  0  0  0  0  0  0  0  0  0
   19.3933  -20.7794  -18.0248 C   0  0  0  0  0  0  0  0  0  0  0  0
   17.9472  -20.4452  -18.3495 C   0  0  0  0  0  0  0  0  0  0  0  0
   17.7114  -20.4807  -19.7622 N   0  0  0  0  0  0  0  0  0  0  0  0
   20.3822  -22.0468  -14.0156 C   0  0  0  0  0  0  0  0  0  0  0  0
   20.6738  -23.2404  -13.8620 O   0  0  0  0  0  0  0  0  0  0  0  0
   14.1611  -22.6165  -11.9396 N   0  0  0  0  0  0  0  0  0  0  0  0
   15.1427  -22.3458  -10.9473 C   0  0  0  0  0  0  0  0  0  0  0  0
   14.8298  -21.5991   -9.9857 O   0  0  0  0  0  0  0  0  0  0  0  0
   16.4991  -22.9448  -11.0688 C   0  0  0  0  0  0  0  0  0  0  0  0
   17.4253  -21.9087  -11.7145 C   0  0  0  0  0  0  0  0  0  0  0  0
   18.2362  -22.5767  -12.8084 C   0  0  2  0  0  0  0  0  0  0  0  0
   19.1160  -21.6392  -13.4699 N   0  0  0  0  0  0  0  0  0  0  0  0
   17.2935  -23.1166  -13.8117 C   0  0  0  0  0  0  0  0  0  0  0  0
   17.0742  -24.4807  -13.8855 O   0  0  0  0  0  0  0  0  0  0  0  0
   16.6730  -22.3786  -14.6130 O   0  0  0  0  0  0  0  0  0  0  0  0
  2  1  1  1
  3  2  1  0
  4  5  1  0
  4  2  1  0
  5  7  1  0
  5  6  1  6
  7  8  2  0
  9 10  1  0
  9  7  1  0
 10 11  1  6
 12 11  1  0
 13 14  1  0
 13 12  1  0
 15 14  1  0
 16 10  1  0
 16 17  2  0
 18 19  1  0
 19 21  1  0
 20 19  2  0
 21 22  1  0
 23 22  1  1
 23 24  1  0
 23 25  1  0
 24 16  1  0
 25 26  1  0
 27 25  2  0
M  END
$$$$
