LKQ.pdb
     RDKit          3D

 27 26  0  0  1  0  0  0  0  0999 V2000
   27.6068  -20.1207   -4.3837 C   0  0  0  0  0  0  0  0  0  0  0  0
   28.2843  -19.5247   -5.5735 C   0  0  2  0  0  0  0  0  0  0  0  0
   29.1339  -18.3398   -5.1509 C   0  0  0  0  0  0  0  0  0  0  0  0
   27.3635  -19.1782   -6.7083 C   0  0  0  0  0  0  0  0  0  0  0  0
   26.7488  -20.4218   -7.2951 C   0  0  2  0  0  0  0  0  0  0  0  0
   27.7456  -21.4702   -7.3532 N   0  0  0  0  0  0  0  0  0  0  0  0
   26.1759  -20.1951   -8.6355 C   0  0  0  0  0  0  0  0  0  0  0  0
   25.6150  -19.0922   -8.8598 O   0  0  0  0  0  0  0  0  0  0  0  0
   26.2106  -21.1243   -9.6856 N   0  0  0  0  0  0  0  0  0  0  0  0
   25.9086  -20.6884  -11.0617 C   0  0  1  0  0  0  0  0  0  0  0  0
   26.8624  -21.3119  -12.0232 C   0  0  0  0  0  0  0  0  0  0  0  0
   26.5721  -20.8711  -13.4280 C   0  0  0  0  0  0  0  0  0  0  0  0
   27.4923  -21.5232  -14.4325 C   0  0  0  0  0  0  0  0  0  0  0  0
   27.3268  -20.9100  -15.8127 C   0  0  0  0  0  0  0  0  0  0  0  0
   28.1145  -21.6052  -16.7868 N   0  0  0  0  0  0  0  0  0  0  0  0
   24.4847  -20.9890  -11.3642 C   0  0  0  0  0  0  0  0  0  0  0  0
   23.8833  -21.9630  -10.8920 O   0  0  0  0  0  0  0  0  0  0  0  0
   20.2184  -21.2241  -10.1531 N   0  0  0  0  0  0  0  0  0  0  0  0
   19.4198  -20.7756  -11.2405 C   0  0  0  0  0  0  0  0  0  0  0  0
   18.2723  -21.2687  -11.3820 O   0  0  0  0  0  0  0  0  0  0  0  0
   19.9542  -19.7467  -12.1729 C   0  0  0  0  0  0  0  0  0  0  0  0
   21.4076  -19.4553  -11.7844 C   0  0  0  0  0  0  0  0  0  0  0  0
   22.3234  -20.4133  -12.5221 C   0  0  2  0  0  0  0  0  0  0  0  0
   23.7159  -20.1461  -12.2393 N   0  0  0  0  0  0  0  0  0  0  0  0
   22.1009  -20.2328  -13.9729 C   0  0  0  0  0  0  0  0  0  0  0  0
   21.1296  -20.9779  -14.6176 O   0  0  0  0  0  0  0  0  0  0  0  0
   22.7661  -19.4194  -14.6565 O   0  0  0  0  0  0  0  0  0  0  0  0
  2  1  1  1
  3  2  1  0
  4  5  1  0
  4  2  1  0
  5  7  1  0
  5  6  1  6
  7  8  2  0
  9 10  1  0
  9  7  1  0
 10 11  1  6
 12 11  1  0
 13 14  1  0
 13 12  1  0
 15 14  1  0
 16 10  1  0
 16 17  2  0
 18 19  1  0
 19 21  1  0
 20 19  2  0
 21 22  1  0
 23 22  1  1
 23 24  1  0
 23 25  1  0
 24 16  1  0
 25 26  1  0
 27 25  2  0
M  END
$$$$
