EFP.pdb
     RDKit          3D

 28 29  0  0  1  0  0  0  0  0999 V2000
   24.0678  -20.9114  -11.0517 N   0  0  0  0  0  0  0  0  0  0  0  0
   25.2195  -20.6524  -11.8975 C   0  0  1  0  0  0  0  0  0  0  0  0
   24.8579  -19.5568  -12.8620 C   0  0  0  0  0  0  0  0  0  0  0  0
   23.6284  -20.0128  -13.6238 C   0  0  0  0  0  0  0  0  0  0  0  0
   23.2490  -19.0335  -14.6728 C   0  0  0  0  0  0  0  0  0  0  0  0
   23.9404  -18.9589  -15.7157 O   0  0  0  0  0  0  0  0  0  0  0  0
   26.3410  -20.2772  -11.0017 C   0  0  0  0  0  0  0  0  0  0  0  0
   27.4934  -20.0652  -11.4959 O   0  0  0  0  0  0  0  0  0  0  0  0
   22.1447  -18.2195  -14.4902 O   0  0  0  0  0  0  0  0  0  0  0  0
   26.2016  -20.1398   -9.6119 N   0  0  0  0  0  0  0  0  0  0  0  0
   27.3385  -19.9034   -8.6888 C   0  0  1  0  0  0  0  0  0  0  0  0
   26.6978  -19.4362   -7.4161 C   0  0  0  0  0  0  0  0  0  0  0  0
   27.5342  -19.1509   -6.2765 C   0  0  0  0  0  0  0  0  0  0  0  0
   27.7393  -20.1426   -5.3291 C   0  0  0  0  0  0  0  0  0  0  0  0
   28.5460  -19.9945   -4.2234 C   0  0  0  0  0  0  0  0  0  0  0  0
   29.1853  -18.7843   -4.0546 C   0  0  0  0  0  0  0  0  0  0  0  0
   29.0064  -17.7661   -4.9800 C   0  0  0  0  0  0  0  0  0  0  0  0
   28.1958  -17.9382   -6.0760 C   0  0  0  0  0  0  0  0  0  0  0  0
   27.9764  -21.2144   -8.4967 C   0  0  0  0  0  0  0  0  0  0  0  0
   27.2772  -22.2831   -8.6546 O   0  0  0  0  0  0  0  0  0  0  0  0
   29.3357  -21.4221   -8.1515 N   0  0  0  0  0  0  0  0  0  0  0  0
   30.3789  -20.4476   -7.8471 C   0  0  0  0  0  0  0  0  0  0  0  0
   31.6161  -21.0011   -8.5537 C   0  0  0  0  0  0  0  0  0  0  0  0
   31.2514  -22.4083   -8.9177 C   0  0  0  0  0  0  0  0  0  0  0  0
   30.0372  -22.6930   -8.0635 C   0  0  1  0  0  0  0  0  0  0  0  0
   30.4618  -23.0707   -6.7194 C   0  0  0  0  0  0  0  0  0  0  0  0
   30.3512  -22.3609   -5.6928 O   0  0  0  0  0  0  0  0  0  0  0  0
   31.0449  -24.3486   -6.5816 O   0  0  0  0  0  0  0  0  0  0  0  0
  2  1  1  1
  2  7  1  0
  2  3  1  0
  3  4  1  0
  5  4  1  0
  6  5  2  0
  7  8  2  0
  9  5  1  0
 10 11  1  0
 10  7  1  0
 11 12  1  1
 12 13  1  0
 13 18  1  0
 14 13  2  0
 14 15  1  0
 15 16  2  0
 16 17  1  0
 18 17  2  0
 19 20  2  0
 19 11  1  0
 21 19  1  0
 22 21  1  0
 23 24  1  0
 23 22  1  0
 24 25  1  0
 25 21  1  0
 25 26  1  1
 26 28  1  0
 27 26  2  0
M  END
$$$$
