EFP.pdb
     RDKit          3D

 28 29  0  0  1  0  0  0  0  0999 V2000
   26.1641  -21.3354  -12.9816 N   0  0  0  0  0  0  0  0  0  0  0  0
   25.4691  -20.5972  -11.9420 C   0  0  1  0  0  0  0  0  0  0  0  0
   24.0008  -20.9042  -12.0484 C   0  0  0  0  0  0  0  0  0  0  0  0
   23.4872  -20.2264  -13.3041 C   0  0  0  0  0  0  0  0  0  0  0  0
   22.0271  -20.4351  -13.4718 C   0  0  0  0  0  0  0  0  0  0  0  0
   21.2321  -19.5891  -12.9990 O   0  0  0  0  0  0  0  0  0  0  0  0
   26.0488  -21.0234  -10.6446 C   0  0  0  0  0  0  0  0  0  0  0  0
   26.2225  -22.2617  -10.4127 O   0  0  0  0  0  0  0  0  0  0  0  0
   21.5623  -21.5526  -14.1432 O   0  0  0  0  0  0  0  0  0  0  0  0
   26.4247  -20.1213   -9.6373 N   0  0  0  0  0  0  0  0  0  0  0  0
   26.9585  -20.5356   -8.3167 C   0  0  1  0  0  0  0  0  0  0  0  0
   27.9103  -19.4412   -7.9363 C   0  0  0  0  0  0  0  0  0  0  0  0
   28.5262  -19.4725   -6.6327 C   0  0  0  0  0  0  0  0  0  0  0  0
   28.1385  -18.5381   -5.6843 C   0  0  0  0  0  0  0  0  0  0  0  0
   28.6308  -18.4972   -4.3993 C   0  0  0  0  0  0  0  0  0  0  0  0
   29.5653  -19.4460   -4.0410 C   0  0  0  0  0  0  0  0  0  0  0  0
   29.9798  -20.3985   -4.9608 C   0  0  0  0  0  0  0  0  0  0  0  0
   29.4736  -20.4187   -6.2380 C   0  0  0  0  0  0  0  0  0  0  0  0
   25.8029  -20.5565   -7.4074 C   0  0  0  0  0  0  0  0  0  0  0  0
   24.7732  -19.8353   -7.6825 O   0  0  0  0  0  0  0  0  0  0  0  0
   25.7066  -21.3274   -6.2215 N   0  0  0  0  0  0  0  0  0  0  0  0
   26.7065  -22.1724   -5.5759 C   0  0  0  0  0  0  0  0  0  0  0  0
   25.9157  -23.4021   -5.1303 C   0  0  0  0  0  0  0  0  0  0  0  0
   24.4779  -23.0017   -5.2641 C   0  0  0  0  0  0  0  0  0  0  0  0
   24.5372  -21.4952   -5.3733 C   0  0  1  0  0  0  0  0  0  0  0  0
   24.6538  -20.9119   -4.0407 C   0  0  0  0  0  0  0  0  0  0  0  0
   25.6926  -20.4095   -3.5524 O   0  0  0  0  0  0  0  0  0  0  0  0
   23.4869  -20.9228   -3.2468 O   0  0  0  0  0  0  0  0  0  0  0  0
  2  1  1  6
  2  7  1  0
  2  3  1  0
  3  4  1  0
  5  4  1  0
  6  5  2  0
  7  8  2  0
  9  5  1  0
 10 11  1  0
 10  7  1  0
 11 12  1  1
 12 13  1  0
 13 18  1  0
 14 13  2  0
 14 15  1  0
 15 16  2  0
 16 17  1  0
 18 17  2  0
 19 20  2  0
 19 11  1  0
 21 19  1  0
 22 21  1  0
 23 24  1  0
 23 22  1  0
 24 25  1  0
 25 21  1  0
 25 26  1  1
 26 28  1  0
 27 26  2  0
M  END
$$$$
