EFP.pdb
     RDKit          3D

 28 29  0  0  1  0  0  0  0  0999 V2000
   24.0919  -11.2414  -20.6735 N   0  0  0  0  0  0  0  0  0  0  0  0
   24.4819   -9.9586  -20.1157 C   0  0  1  0  0  0  0  0  0  0  0  0
   23.9784   -8.8757  -21.0296 C   0  0  0  0  0  0  0  0  0  0  0  0
   22.5072   -9.1444  -21.2812 C   0  0  0  0  0  0  0  0  0  0  0  0
   21.8991   -8.0798  -22.1181 C   0  0  0  0  0  0  0  0  0  0  0  0
   20.9408   -8.3700  -22.8722 O   0  0  0  0  0  0  0  0  0  0  0  0
   23.8925   -9.8783  -18.7566 C   0  0  0  0  0  0  0  0  0  0  0  0
   22.8760  -10.5874  -18.4717 O   0  0  0  0  0  0  0  0  0  0  0  0
   22.3925   -6.7881  -22.0578 O   0  0  0  0  0  0  0  0  0  0  0  0
   24.4018   -9.0483  -17.7459 N   0  0  0  0  0  0  0  0  0  0  0  0
   23.8537   -8.9953  -16.3685 C   0  0  1  0  0  0  0  0  0  0  0  0
   25.0352   -9.2592  -15.4838 C   0  0  0  0  0  0  0  0  0  0  0  0
   25.5576  -10.6007  -15.3974 C   0  0  0  0  0  0  0  0  0  0  0  0
   26.7719  -10.8886  -16.0019 C   0  0  0  0  0  0  0  0  0  0  0  0
   27.3824  -12.1215  -15.9520 C   0  0  0  0  0  0  0  0  0  0  0  0
   26.7416  -13.1256  -15.2570 C   0  0  0  0  0  0  0  0  0  0  0  0
   25.5248  -12.8783  -14.6379 C   0  0  0  0  0  0  0  0  0  0  0  0
   24.9354  -11.6388  -14.7020 C   0  0  0  0  0  0  0  0  0  0  0  0
   23.3661   -7.6201  -16.1851 C   0  0  0  0  0  0  0  0  0  0  0  0
   23.8601   -6.6763  -16.9072 O   0  0  0  0  0  0  0  0  0  0  0  0
   22.3641   -7.2213  -15.2648 N   0  0  0  0  0  0  0  0  0  0  0  0
   21.5634   -8.0301  -14.3509 C   0  0  0  0  0  0  0  0  0  0  0  0
   20.1651   -7.4210  -14.4502 C   0  0  0  0  0  0  0  0  0  0  0  0
   20.3662   -6.1141  -15.1552 C   0  0  0  0  0  0  0  0  0  0  0  0
   21.8550   -5.8767  -15.0459 C   0  0  1  0  0  0  0  0  0  0  0  0
   22.1651   -5.3056  -13.7392 C   0  0  0  0  0  0  0  0  0  0  0  0
   22.7073   -5.9137  -12.7872 O   0  0  0  0  0  0  0  0  0  0  0  0
   21.8179   -3.9510  -13.5481 O   0  0  0  0  0  0  0  0  0  0  0  0
  2  1  1  6
  2  7  1  0
  2  3  1  0
  3  4  1  0
  5  4  1  0
  6  5  2  0
  7  8  2  0
  9  5  1  0
 10 11  1  0
 10  7  1  0
 11 12  1  1
 12 13  1  0
 13 18  1  0
 14 13  2  0
 14 15  1  0
 15 16  2  0
 16 17  1  0
 18 17  2  0
 19 20  2  0
 19 11  1  0
 21 19  1  0
 22 21  1  0
 23 24  1  0
 23 22  1  0
 24 25  1  0
 25 21  1  0
 25 26  1  1
 26 28  1  0
 27 26  2  0
M  END
$$$$
