EFP.pdb
     RDKit          3D

 28 29  0  0  1  0  0  0  0  0999 V2000
   27.2138  -24.6800  -16.2833 N   0  0  0  0  0  0  0  0  0  0  0  0
   27.3316  -25.2768  -17.6018 C   0  0  1  0  0  0  0  0  0  0  0  0
   28.0427  -24.3009  -18.4981 C   0  0  0  0  0  0  0  0  0  0  0  0
   27.1120  -23.9878  -19.6539 C   0  0  0  0  0  0  0  0  0  0  0  0
   27.5013  -24.7324  -20.8777 C   0  0  0  0  0  0  0  0  0  0  0  0
   27.0718  -25.8982  -21.0444 O   0  0  0  0  0  0  0  0  0  0  0  0
   28.0769  -26.5491  -17.4381 C   0  0  0  0  0  0  0  0  0  0  0  0
   29.3103  -26.5173  -17.1300 O   0  0  0  0  0  0  0  0  0  0  0  0
   28.3276  -24.1366  -21.8146 O   0  0  0  0  0  0  0  0  0  0  0  0
   27.4881  -27.8119  -17.6068 N   0  0  0  0  0  0  0  0  0  0  0  0
   28.2320  -29.0902  -17.4921 C   0  0  1  0  0  0  0  0  0  0  0  0
   27.7673  -29.6797  -16.1941 C   0  0  0  0  0  0  0  0  0  0  0  0
   28.0736  -31.0587  -15.9035 C   0  0  0  0  0  0  0  0  0  0  0  0
   27.0467  -31.9905  -15.9111 C   0  0  0  0  0  0  0  0  0  0  0  0
   27.2282  -33.3364  -15.6852 C   0  0  0  0  0  0  0  0  0  0  0  0
   28.5113  -33.7768  -15.4372 C   0  0  0  0  0  0  0  0  0  0  0  0
   29.5666  -32.8763  -15.4209 C   0  0  0  0  0  0  0  0  0  0  0  0
   29.3600  -31.5373  -15.6494 C   0  0  0  0  0  0  0  0  0  0  0  0
   27.7857  -29.9151  -18.6249 C   0  0  0  0  0  0  0  0  0  0  0  0
   26.6215  -29.7087  -19.1329 O   0  0  0  0  0  0  0  0  0  0  0  0
   28.5434  -30.9446  -19.2381 N   0  0  0  0  0  0  0  0  0  0  0  0
   29.9165  -31.3690  -18.9828 C   0  0  0  0  0  0  0  0  0  0  0  0
   30.4864  -31.6271  -20.3773 C   0  0  0  0  0  0  0  0  0  0  0  0
   29.2914  -31.6486  -21.2812 C   0  0  0  0  0  0  0  0  0  0  0  0
   28.1287  -31.8120  -20.3293 C   0  0  1  0  0  0  0  0  0  0  0  0
   27.9801  -33.2198  -19.9749 C   0  0  0  0  0  0  0  0  0  0  0  0
   28.2099  -33.7168  -18.8478 O   0  0  0  0  0  0  0  0  0  0  0  0
   27.5388  -34.0820  -21.0015 O   0  0  0  0  0  0  0  0  0  0  0  0
  2  1  1  1
  2  7  1  0
  2  3  1  0
  3  4  1  0
  5  4  1  0
  6  5  2  0
  7  8  2  0
  9  5  1  0
 10 11  1  0
 10  7  1  0
 11 12  1  1
 12 13  1  0
 13 18  1  0
 14 13  2  0
 14 15  1  0
 15 16  2  0
 16 17  1  0
 18 17  2  0
 19 20  2  0
 19 11  1  0
 21 19  1  0
 22 21  1  0
 23 24  1  0
 23 22  1  0
 24 25  1  0
 25 21  1  0
 25 26  1  1
 26 28  1  0
 27 26  2  0
M  END
$$$$
