EFP.pdb
     RDKit          3D

 28 29  0  0  1  0  0  0  0  0999 V2000
   28.3109  -18.8214  -18.8747 N   0  0  0  0  0  0  0  0  0  0  0  0
   27.5016  -18.1552  -17.8697 C   0  0  1  0  0  0  0  0  0  0  0  0
   26.2873  -17.5828  -18.5473 C   0  0  0  0  0  0  0  0  0  0  0  0
   26.7495  -16.4053  -19.3839 C   0  0  0  0  0  0  0  0  0  0  0  0
   27.0542  -16.8188  -20.7766 C   0  0  0  0  0  0  0  0  0  0  0  0
   28.2190  -17.1824  -21.0636 O   0  0  0  0  0  0  0  0  0  0  0  0
   27.1577  -19.1714  -16.8450 C   0  0  0  0  0  0  0  0  0  0  0  0
   26.9235  -20.3687  -17.2039 O   0  0  0  0  0  0  0  0  0  0  0  0
   26.0572  -16.7988  -21.7364 O   0  0  0  0  0  0  0  0  0  0  0  0
   27.0739  -18.8825  -15.4740 N   0  0  0  0  0  0  0  0  0  0  0  0
   26.6410  -19.8643  -14.4497 C   0  0  1  0  0  0  0  0  0  0  0  0
   27.2599  -19.3744  -13.1748 C   0  0  0  0  0  0  0  0  0  0  0  0
   26.8660  -19.9826  -11.9279 C   0  0  0  0  0  0  0  0  0  0  0  0
   25.7812  -19.4607  -11.2396 C   0  0  0  0  0  0  0  0  0  0  0  0
   25.2948  -19.9823  -10.0620 C   0  0  0  0  0  0  0  0  0  0  0  0
   25.9299  -21.0904   -9.5419 C   0  0  0  0  0  0  0  0  0  0  0  0
   27.0192  -21.6429  -10.2002 C   0  0  0  0  0  0  0  0  0  0  0  0
   27.4861  -21.1040  -11.3746 C   0  0  0  0  0  0  0  0  0  0  0  0
   25.1756  -19.7579  -14.3885 C   0  0  0  0  0  0  0  0  0  0  0  0
   24.6203  -18.6107  -14.5667 O   0  0  0  0  0  0  0  0  0  0  0  0
   24.2844  -20.8352  -14.1530 N   0  0  0  0  0  0  0  0  0  0  0  0
   24.5728  -22.2330  -13.8474 C   0  0  0  0  0  0  0  0  0  0  0  0
   23.5495  -23.0089  -14.6762 C   0  0  0  0  0  0  0  0  0  0  0  0
   22.5559  -21.9785  -15.1199 C   0  0  0  0  0  0  0  0  0  0  0  0
   22.8315  -20.8039  -14.2092 C   0  0  1  0  0  0  0  0  0  0  0  0
   22.1609  -21.0087  -12.9294 C   0  0  0  0  0  0  0  0  0  0  0  0
   20.9516  -20.7795  -12.6943 O   0  0  0  0  0  0  0  0  0  0  0  0
   22.9572  -21.5083  -11.8767 O   0  0  0  0  0  0  0  0  0  0  0  0
  2  1  1  6
  2  7  1  0
  2  3  1  0
  3  4  1  0
  5  4  1  0
  6  5  2  0
  7  8  2  0
  9  5  1  0
 10 11  1  0
 10  7  1  0
 11 12  1  1
 12 13  1  0
 13 18  1  0
 14 13  2  0
 14 15  1  0
 15 16  2  0
 16 17  1  0
 18 17  2  0
 19 20  2  0
 19 11  1  0
 21 19  1  0
 22 21  1  0
 23 24  1  0
 23 22  1  0
 24 25  1  0
 25 21  1  0
 25 26  1  1
 26 28  1  0
 27 26  2  0
M  END
$$$$
