EFP.pdb
     RDKit          3D

 28 29  0  0  1  0  0  0  0  0999 V2000
   26.4070  -21.7354  -12.8572 N   0  0  0  0  0  0  0  0  0  0  0  0
   25.7809  -20.7520  -11.9913 C   0  0  1  0  0  0  0  0  0  0  0  0
   24.3051  -20.7428  -12.2799 C   0  0  0  0  0  0  0  0  0  0  0  0
   24.0102  -19.4934  -13.0873 C   0  0  0  0  0  0  0  0  0  0  0  0
   24.1065  -19.7570  -14.5449 C   0  0  0  0  0  0  0  0  0  0  0  0
   23.3835  -20.6463  -15.0526 O   0  0  0  0  0  0  0  0  0  0  0  0
   26.0869  -21.1455  -10.5940 C   0  0  0  0  0  0  0  0  0  0  0  0
   25.7100  -22.2824  -10.1666 O   0  0  0  0  0  0  0  0  0  0  0  0
   24.9865  -19.0243  -15.3222 O   0  0  0  0  0  0  0  0  0  0  0  0
   26.7826  -20.3194   -9.6977 N   0  0  0  0  0  0  0  0  0  0  0  0
   27.1123  -20.7081   -8.3045 C   0  0  1  0  0  0  0  0  0  0  0  0
   28.2791  -19.8402   -7.9388 C   0  0  0  0  0  0  0  0  0  0  0  0
   28.7056  -19.7864   -6.5622 C   0  0  0  0  0  0  0  0  0  0  0  0
   28.2557  -18.7486   -5.7600 C   0  0  0  0  0  0  0  0  0  0  0  0
   28.5676  -18.6178   -4.4254 C   0  0  0  0  0  0  0  0  0  0  0  0
   29.3765  -19.5807   -3.8595 C   0  0  0  0  0  0  0  0  0  0  0  0
   29.8476  -20.6354   -4.6282 C   0  0  0  0  0  0  0  0  0  0  0  0
   29.5223  -20.7441   -5.9586 C   0  0  0  0  0  0  0  0  0  0  0  0
   25.9321  -20.3550   -7.5014 C   0  0  0  0  0  0  0  0  0  0  0  0
   25.1931  -19.3679   -7.8698 O   0  0  0  0  0  0  0  0  0  0  0  0
   25.5102  -21.0252   -6.3255 N   0  0  0  0  0  0  0  0  0  0  0  0
   26.1160  -22.1563   -5.6297 C   0  0  0  0  0  0  0  0  0  0  0  0
   24.9228  -23.0250   -5.2326 C   0  0  0  0  0  0  0  0  0  0  0  0
   23.7250  -22.1494   -5.4430 C   0  0  0  0  0  0  0  0  0  0  0  0
   24.3133  -20.7606   -5.5429 C   0  0  1  0  0  0  0  0  0  0  0  0
   24.5566  -20.2344   -4.2037 C   0  0  0  0  0  0  0  0  0  0  0  0
   25.6578  -20.2410   -3.6060 O   0  0  0  0  0  0  0  0  0  0  0  0
   23.4453  -19.6735   -3.5386 O   0  0  0  0  0  0  0  0  0  0  0  0
  2  1  1  6
  2  7  1  0
  2  3  1  0
  3  4  1  0
  5  4  1  0
  6  5  2  0
  7  8  2  0
  9  5  1  0
 10 11  1  0
 10  7  1  0
 11 12  1  1
 12 13  1  0
 13 18  1  0
 14 13  2  0
 14 15  1  0
 15 16  2  0
 16 17  1  0
 18 17  2  0
 19 20  2  0
 19 11  1  0
 21 19  1  0
 22 21  1  0
 23 24  1  0
 23 22  1  0
 24 25  1  0
 25 21  1  0
 25 26  1  1
 26 28  1  0
 27 26  2  0
M  END
$$$$
