EFP.pdb
     RDKit          3D

 28 29  0  0  1  0  0  0  0  0999 V2000
   25.5110  -19.6593  -12.1819 N   0  0  0  0  0  0  0  0  0  0  0  0
   25.7633  -21.0884  -12.1290 C   0  0  1  0  0  0  0  0  0  0  0  0
   26.7482  -21.4326  -13.2121 C   0  0  0  0  0  0  0  0  0  0  0  0
   26.1459  -20.9844  -14.5298 C   0  0  0  0  0  0  0  0  0  0  0  0
   24.9593  -21.8016  -14.8869 C   0  0  0  0  0  0  0  0  0  0  0  0
   23.8145  -21.3534  -14.6424 O   0  0  0  0  0  0  0  0  0  0  0  0
   26.2801  -21.3886  -10.7712 C   0  0  0  0  0  0  0  0  0  0  0  0
   26.6077  -22.5812  -10.4751 O   0  0  0  0  0  0  0  0  0  0  0  0
   25.1276  -23.0400  -15.4815 O   0  0  0  0  0  0  0  0  0  0  0  0
   26.4316  -20.4132   -9.7735 N   0  0  0  0  0  0  0  0  0  0  0  0
   26.8433  -20.7154   -8.3807 C   0  0  1  0  0  0  0  0  0  0  0  0
   27.8997  -19.6971   -8.0721 C   0  0  0  0  0  0  0  0  0  0  0  0
   28.4584  -19.6504   -6.7434 C   0  0  0  0  0  0  0  0  0  0  0  0
   28.1090  -18.6028   -5.9046 C   0  0  0  0  0  0  0  0  0  0  0  0
   28.5510  -18.4768   -4.6069 C   0  0  0  0  0  0  0  0  0  0  0  0
   29.3915  -19.4552   -4.1188 C   0  0  0  0  0  0  0  0  0  0  0  0
   29.7649  -20.5200   -4.9262 C   0  0  0  0  0  0  0  0  0  0  0  0
   29.3104  -20.6236   -6.2187 C   0  0  0  0  0  0  0  0  0  0  0  0
   25.6488  -20.4898   -7.5532 C   0  0  0  0  0  0  0  0  0  0  0  0
   24.7942  -19.5973   -7.9126 O   0  0  0  0  0  0  0  0  0  0  0  0
   25.3323  -21.1906   -6.3620 N   0  0  0  0  0  0  0  0  0  0  0  0
   26.0992  -22.2058   -5.6467 C   0  0  0  0  0  0  0  0  0  0  0  0
   25.0475  -23.2321   -5.2264 C   0  0  0  0  0  0  0  0  0  0  0  0
   23.7335  -22.5467   -5.4485 C   0  0  0  0  0  0  0  0  0  0  0  0
   24.1109  -21.0888   -5.5791 C   0  0  1  0  0  0  0  0  0  0  0  0
   24.2767  -20.5052   -4.2519 C   0  0  0  0  0  0  0  0  0  0  0  0
   25.3716  -20.2727   -3.6885 O   0  0  0  0  0  0  0  0  0  0  0  0
   23.0920  -20.1806   -3.5568 O   0  0  0  0  0  0  0  0  0  0  0  0
  2  1  1  1
  2  7  1  0
  2  3  1  0
  3  4  1  0
  5  4  1  0
  6  5  2  0
  7  8  2  0
  9  5  1  0
 10 11  1  0
 10  7  1  0
 11 12  1  1
 12 13  1  0
 13 18  1  0
 14 13  2  0
 14 15  1  0
 15 16  2  0
 16 17  1  0
 18 17  2  0
 19 20  2  0
 19 11  1  0
 21 19  1  0
 22 21  1  0
 23 24  1  0
 23 22  1  0
 24 25  1  0
 25 21  1  0
 25 26  1  1
 26 28  1  0
 27 26  2  0
M  END
$$$$
