EFP.pdb
     RDKit          3D

 28 29  0  0  1  0  0  0  0  0999 V2000
   26.2410  -21.6831  -13.0288 N   0  0  0  0  0  0  0  0  0  0  0  0
   25.5648  -20.7821  -12.1125 C   0  0  1  0  0  0  0  0  0  0  0  0
   24.0824  -20.9208  -12.3244 C   0  0  0  0  0  0  0  0  0  0  0  0
   23.6913  -19.9557  -13.4270 C   0  0  0  0  0  0  0  0  0  0  0  0
   22.2220  -19.9438  -13.6382 C   0  0  0  0  0  0  0  0  0  0  0  0
   21.5378  -19.0349  -13.1119 O   0  0  0  0  0  0  0  0  0  0  0  0
   25.9833  -21.1623  -10.7409 C   0  0  0  0  0  0  0  0  0  0  0  0
   25.9330  -22.3825  -10.3862 O   0  0  0  0  0  0  0  0  0  0  0  0
   21.6274  -20.9285  -14.4079 O   0  0  0  0  0  0  0  0  0  0  0  0
   26.4410  -20.2348   -9.7921 N   0  0  0  0  0  0  0  0  0  0  0  0
   26.7987  -20.5908   -8.3972 C   0  0  1  0  0  0  0  0  0  0  0  0
   27.8368  -19.5817   -8.0066 C   0  0  0  0  0  0  0  0  0  0  0  0
   28.2600  -19.5115   -6.6297 C   0  0  0  0  0  0  0  0  0  0  0  0
   29.1768  -20.4403   -6.1609 C   0  0  0  0  0  0  0  0  0  0  0  0
   29.6781  -20.4460   -4.8788 C   0  0  0  0  0  0  0  0  0  0  0  0
   29.2374  -19.4660   -4.0145 C   0  0  0  0  0  0  0  0  0  0  0  0
   28.3202  -18.5179   -4.4447 C   0  0  0  0  0  0  0  0  0  0  0  0
   27.8343  -18.5331   -5.7298 C   0  0  0  0  0  0  0  0  0  0  0  0
   25.5712  -20.4025   -7.6096 C   0  0  0  0  0  0  0  0  0  0  0  0
   24.7244  -19.5030   -7.9702 O   0  0  0  0  0  0  0  0  0  0  0  0
   25.2139  -21.1475   -6.4575 N   0  0  0  0  0  0  0  0  0  0  0  0
   25.9863  -22.1351   -5.7102 C   0  0  0  0  0  0  0  0  0  0  0  0
   24.9684  -23.2279   -5.3849 C   0  0  0  0  0  0  0  0  0  0  0  0
   23.6359  -22.6115   -5.6850 C   0  0  0  0  0  0  0  0  0  0  0  0
   23.9377  -21.1322   -5.7602 C   0  0  1  0  0  0  0  0  0  0  0  0
   23.9780  -20.5716   -4.4135 C   0  0  0  0  0  0  0  0  0  0  0  0
   22.9814  -20.3301   -3.6934 O   0  0  0  0  0  0  0  0  0  0  0  0
   25.2574  -20.2824   -3.8924 O   0  0  0  0  0  0  0  0  0  0  0  0
  2  1  1  6
  2  7  1  0
  2  3  1  0
  3  4  1  0
  5  4  1  0
  6  5  2  0
  7  8  2  0
  9  5  1  0
 10 11  1  0
 10  7  1  0
 11 12  1  1
 12 13  1  0
 13 18  1  0
 14 13  2  0
 14 15  1  0
 15 16  2  0
 16 17  1  0
 18 17  2  0
 19 20  2  0
 19 11  1  0
 21 19  1  0
 22 21  1  0
 23 24  1  0
 23 22  1  0
 24 25  1  0
 25 21  1  0
 25 26  1  1
 26 28  1  0
 27 26  2  0
M  END
$$$$
