EFP.pdb
     RDKit          3D

 28 29  0  0  1  0  0  0  0  0999 V2000
   26.1949  -21.4238  -13.1223 N   0  0  0  0  0  0  0  0  0  0  0  0
   25.7975  -20.3980  -12.1745 C   0  0  1  0  0  0  0  0  0  0  0  0
   24.3258  -20.1420  -12.3479 C   0  0  0  0  0  0  0  0  0  0  0  0
   23.8560  -20.9821  -13.5199 C   0  0  0  0  0  0  0  0  0  0  0  0
   23.0077  -20.1908  -14.4460 C   0  0  0  0  0  0  0  0  0  0  0  0
   23.5002  -19.7798  -15.5230 O   0  0  0  0  0  0  0  0  0  0  0  0
   26.1333  -20.9034  -10.8207 C   0  0  0  0  0  0  0  0  0  0  0  0
   25.9685  -22.1357  -10.5534 O   0  0  0  0  0  0  0  0  0  0  0  0
   21.6924  -19.9170  -14.1137 O   0  0  0  0  0  0  0  0  0  0  0  0
   26.6326  -20.0839   -9.7965 N   0  0  0  0  0  0  0  0  0  0  0  0
   26.9568  -20.5727   -8.4339 C   0  0  1  0  0  0  0  0  0  0  0  0
   28.0637  -19.6755   -7.9667 C   0  0  0  0  0  0  0  0  0  0  0  0
   28.4076  -19.6611   -6.5662 C   0  0  0  0  0  0  0  0  0  0  0  0
   29.3084  -20.5999   -6.0864 C   0  0  0  0  0  0  0  0  0  0  0  0
   29.7367  -20.6564   -4.7793 C   0  0  0  0  0  0  0  0  0  0  0  0
   29.2354  -19.7197   -3.9001 C   0  0  0  0  0  0  0  0  0  0  0  0
   28.3319  -18.7633   -4.3406 C   0  0  0  0  0  0  0  0  0  0  0  0
   27.9194  -18.7274   -5.6507 C   0  0  0  0  0  0  0  0  0  0  0  0
   25.7425  -20.3574   -7.6329 C   0  0  0  0  0  0  0  0  0  0  0  0
   24.9317  -19.4134   -7.9611 O   0  0  0  0  0  0  0  0  0  0  0  0
   25.3609  -21.1210   -6.5009 N   0  0  0  0  0  0  0  0  0  0  0  0
   26.0808  -22.1864   -5.8102 C   0  0  0  0  0  0  0  0  0  0  0  0
   24.9985  -23.2203   -5.5008 C   0  0  0  0  0  0  0  0  0  0  0  0
   23.7047  -22.5048   -5.7449 C   0  0  0  0  0  0  0  0  0  0  0  0
   24.1044  -21.0473   -5.7723 C   0  0  1  0  0  0  0  0  0  0  0  0
   24.2125  -20.5434   -4.4070 C   0  0  0  0  0  0  0  0  0  0  0  0
   25.2822  -20.3317   -3.7898 O   0  0  0  0  0  0  0  0  0  0  0  0
   22.9983  -20.2768   -3.7387 O   0  0  0  0  0  0  0  0  0  0  0  0
  2  1  1  6
  2  7  1  0
  2  3  1  0
  3  4  1  0
  5  4  1  0
  6  5  2  0
  7  8  2  0
  9  5  1  0
 10 11  1  0
 10  7  1  0
 11 12  1  1
 12 13  1  0
 13 18  1  0
 14 13  2  0
 14 15  1  0
 15 16  2  0
 16 17  1  0
 18 17  2  0
 19 20  2  0
 19 11  1  0
 21 19  1  0
 22 21  1  0
 23 24  1  0
 23 22  1  0
 24 25  1  0
 25 21  1  0
 25 26  1  1
 26 28  1  0
 27 26  2  0
M  END
$$$$
