EFP.pdb
     RDKit          3D

 28 29  0  0  1  0  0  0  0  0999 V2000
   23.1991  -25.5107  -18.4224 N   0  0  0  0  0  0  0  0  0  0  0  0
   21.9795  -26.1033  -17.9024 C   0  0  1  0  0  0  0  0  0  0  0  0
   21.3387  -26.9030  -19.0029 C   0  0  0  0  0  0  0  0  0  0  0  0
   20.7970  -25.9180  -20.0209 C   0  0  0  0  0  0  0  0  0  0  0  0
   21.4886  -26.0561  -21.3271 C   0  0  0  0  0  0  0  0  0  0  0  0
   21.9776  -25.0369  -21.8687 O   0  0  0  0  0  0  0  0  0  0  0  0
   22.3643  -26.9393  -16.7388 C   0  0  0  0  0  0  0  0  0  0  0  0
   23.4832  -27.5436  -16.7444 O   0  0  0  0  0  0  0  0  0  0  0  0
   21.5857  -27.2987  -21.9288 O   0  0  0  0  0  0  0  0  0  0  0  0
   21.5486  -27.1059  -15.6088 N   0  0  0  0  0  0  0  0  0  0  0  0
   21.8758  -28.0143  -14.4826 C   0  0  1  0  0  0  0  0  0  0  0  0
   21.3324  -27.3196  -13.2700 C   0  0  0  0  0  0  0  0  0  0  0  0
   21.2617  -28.0419  -12.0238 C   0  0  0  0  0  0  0  0  0  0  0  0
   22.4207  -28.2179  -11.2831 C   0  0  0  0  0  0  0  0  0  0  0  0
   22.4647  -28.8568  -10.0644 C   0  0  0  0  0  0  0  0  0  0  0  0
   21.2809  -29.3488   -9.5562 C   0  0  0  0  0  0  0  0  0  0  0  0
   20.0991  -29.1933  -10.2664 C   0  0  0  0  0  0  0  0  0  0  0  0
   20.0809  -28.5516  -11.4812 C   0  0  0  0  0  0  0  0  0  0  0  0
   21.1343  -29.2571  -14.7435 C   0  0  0  0  0  0  0  0  0  0  0  0
   20.0390  -29.2063  -15.4172 O   0  0  0  0  0  0  0  0  0  0  0  0
   21.5275  -30.5511  -14.3179 N   0  0  0  0  0  0  0  0  0  0  0  0
   22.6919  -30.9620  -13.5395 C   0  0  0  0  0  0  0  0  0  0  0  0
   23.1576  -32.2460  -14.2254 C   0  0  0  0  0  0  0  0  0  0  0  0
   22.0233  -32.6324  -15.1253 C   0  0  0  0  0  0  0  0  0  0  0  0
   20.8638  -31.8124  -14.6075 C   0  0  1  0  0  0  0  0  0  0  0  0
   20.2719  -32.4770  -13.4510 C   0  0  0  0  0  0  0  0  0  0  0  0
   19.6549  -33.5674  -13.4726 O   0  0  0  0  0  0  0  0  0  0  0  0
   20.4157  -31.8218  -12.2093 O   0  0  0  0  0  0  0  0  0  0  0  0
  2  1  1  6
  2  7  1  0
  2  3  1  0
  3  4  1  0
  5  4  1  0
  6  5  2  0
  7  8  2  0
  9  5  1  0
 10 11  1  0
 10  7  1  0
 11 12  1  1
 12 13  1  0
 13 18  1  0
 14 13  2  0
 14 15  1  0
 15 16  2  0
 16 17  1  0
 18 17  2  0
 19 20  2  0
 19 11  1  0
 21 19  1  0
 22 21  1  0
 23 24  1  0
 23 22  1  0
 24 25  1  0
 25 21  1  0
 25 26  1  1
 26 28  1  0
 27 26  2  0
M  END
$$$$
