AFW.pdb
     RDKit          3D

 31 33  0  0  1  0  0  0  0  0999 V2000
    7.0577  -21.3068   19.8194 C   0  0  0  0  0  0  0  0  0  0  0  0
    6.9186  -20.5951   21.1424 C   0  0  2  0  0  0  0  0  0  0  0  0
    5.5349  -20.4497   21.5058 N   0  0  0  0  0  0  0  0  0  0  0  0
    7.5890  -19.2684   20.9773 C   0  0  0  0  0  0  0  0  0  0  0  0
    8.7977  -19.1784   20.7038 O   0  0  0  0  0  0  0  0  0  0  0  0
    6.8701  -18.0407   21.1267 N   0  0  0  0  0  0  0  0  0  0  0  0
    7.5487  -16.7520   21.0112 C   0  0  1  0  0  0  0  0  0  0  0  0
    6.5097  -15.6642   20.7046 C   0  0  0  0  0  0  0  0  0  0  0  0
    7.1558  -14.3642   20.4705 C   0  0  0  0  0  0  0  0  0  0  0  0
    7.2018  -13.4213   21.4680 C   0  0  0  0  0  0  0  0  0  0  0  0
    7.8092  -12.1835   21.2939 C   0  0  0  0  0  0  0  0  0  0  0  0
    8.3915  -11.8501   20.1098 C   0  0  0  0  0  0  0  0  0  0  0  0
    8.3560  -12.7957   19.0780 C   0  0  0  0  0  0  0  0  0  0  0  0
    7.7490  -14.0124   19.2769 C   0  0  0  0  0  0  0  0  0  0  0  0
    8.1198  -16.3999   22.3332 C   0  0  0  0  0  0  0  0  0  0  0  0
    7.2978  -16.1050   23.2348 O   0  0  0  0  0  0  0  0  0  0  0  0
    9.4836  -16.3751   22.6528 N   0  0  0  0  0  0  0  0  0  0  0  0
   10.0608  -15.9928   23.9204 C   0  0  1  0  0  0  0  0  0  0  0  0
    9.4212  -16.7478   25.0664 C   0  0  0  0  0  0  0  0  0  0  0  0
    8.5026  -15.8427   25.7861 C   0  0  0  0  0  0  0  0  0  0  0  0
    7.1097  -15.8158   25.6201 C   0  0  0  0  0  0  0  0  0  0  0  0
    6.5794  -14.8774   26.4048 N   0  0  0  0  0  0  0  0  0  0  0  0
    7.5729  -14.2680   27.0973 C   0  0  0  0  0  0  0  0  0  0  0  0
    7.5477  -13.2536   28.0223 C   0  0  0  0  0  0  0  0  0  0  0  0
    8.7401  -12.8248   28.5788 C   0  0  0  0  0  0  0  0  0  0  0  0
    9.9516  -13.4006   28.2193 C   0  0  0  0  0  0  0  0  0  0  0  0
    9.9639  -14.4257   27.2828 C   0  0  0  0  0  0  0  0  0  0  0  0
    8.7771  -14.8679   26.7147 C   0  0  0  0  0  0  0  0  0  0  0  0
   11.5034  -16.0651   24.0178 C   0  0  0  0  0  0  0  0  0  0  0  0
   12.2946  -15.2521   24.8033 O   0  0  0  0  0  0  0  0  0  0  0  0
   12.1241  -16.9394   23.3314 O   0  0  0  0  0  0  0  0  0  0  0  0
  2  1  1  6
  2  3  1  0
  4  5  2  0
  4  2  1  0
  6  4  1  0
  7  6  1  0
  7  8  1  1
  9 14  1  0
  9  8  1  0
 10  9  2  0
 11 12  2  0
 11 10  1  0
 12 13  1  0
 13 14  2  0
 15 17  1  0
 15  7  1  0
 16 15  2  0
 18 17  1  0
 18 29  1  0
 19 20  1  0
 18 19  1  1
 20 21  2  0
 22 21  1  0
 23 22  1  0
 24 23  2  0
 25 24  1  0
 26 27  1  0
 26 25  2  0
 27 28  2  0
 28 23  1  0
 28 20  1  0
 29 30  1  0
 31 29  2  0
M  END
$$$$
