AFW.pdb
     RDKit          3D

 31 33  0  0  1  0  0  0  0  0999 V2000
    9.6921  -18.4735   18.1730 C   0  0  0  0  0  0  0  0  0  0  0  0
    9.0669  -17.1027   18.0924 C   0  0  2  0  0  0  0  0  0  0  0  0
    9.6664  -16.3244   17.0424 N   0  0  0  0  0  0  0  0  0  0  0  0
    9.2683  -16.4706   19.4328 C   0  0  0  0  0  0  0  0  0  0  0  0
   10.3856  -16.0745   19.8054 O   0  0  0  0  0  0  0  0  0  0  0  0
    8.1842  -16.2924   20.3489 N   0  0  0  0  0  0  0  0  0  0  0  0
    8.3834  -15.6167   21.6289 C   0  0  1  0  0  0  0  0  0  0  0  0
    7.0155  -15.3457   22.2708 C   0  0  0  0  0  0  0  0  0  0  0  0
    7.1648  -14.7387   23.6017 C   0  0  0  0  0  0  0  0  0  0  0  0
    6.8575  -15.4566   24.7315 C   0  0  0  0  0  0  0  0  0  0  0  0
    6.9915  -14.9262   26.0091 C   0  0  0  0  0  0  0  0  0  0  0  0
    7.4391  -13.6545   26.1954 C   0  0  0  0  0  0  0  0  0  0  0  0
    7.7577  -12.9034   25.0578 C   0  0  0  0  0  0  0  0  0  0  0  0
    7.6162  -13.4522   23.8058 C   0  0  0  0  0  0  0  0  0  0  0  0
    9.0811  -16.5465   22.5490 C   0  0  0  0  0  0  0  0  0  0  0  0
    8.9080  -17.7720   22.3398 O   0  0  0  0  0  0  0  0  0  0  0  0
    9.9097  -16.1718   23.6147 N   0  0  0  0  0  0  0  0  0  0  0  0
   10.8925  -17.0025   24.2704 C   0  0  1  0  0  0  0  0  0  0  0  0
   11.6090  -16.2452   25.3683 C   0  0  0  0  0  0  0  0  0  0  0  0
   10.7451  -16.2005   26.5653 C   0  0  0  0  0  0  0  0  0  0  0  0
    9.9710  -17.2717   27.0359 C   0  0  0  0  0  0  0  0  0  0  0  0
    9.2989  -16.8988   28.1253 N   0  0  0  0  0  0  0  0  0  0  0  0
    9.5955  -15.6061   28.4059 C   0  0  0  0  0  0  0  0  0  0  0  0
    9.1700  -14.7722   29.4103 C   0  0  0  0  0  0  0  0  0  0  0  0
    9.6496  -13.4747   29.4519 C   0  0  0  0  0  0  0  0  0  0  0  0
   10.5479  -13.0074   28.5015 C   0  0  0  0  0  0  0  0  0  0  0  0
   10.9707  -13.8604   27.4907 C   0  0  0  0  0  0  0  0  0  0  0  0
   10.4994  -15.1649   27.4341 C   0  0  0  0  0  0  0  0  0  0  0  0
   10.4262  -18.2799   24.7669 C   0  0  0  0  0  0  0  0  0  0  0  0
    9.1050  -18.6345   24.9482 O   0  0  0  0  0  0  0  0  0  0  0  0
   11.2819  -19.1712   25.0736 O   0  0  0  0  0  0  0  0  0  0  0  0
  2  1  1  1
  2  3  1  0
  4  5  2  0
  4  2  1  0
  6  4  1  0
  7  6  1  0
  7  8  1  1
  9 14  1  0
  9  8  1  0
 10  9  2  0
 11 12  2  0
 11 10  1  0
 12 13  1  0
 13 14  2  0
 15 17  1  0
 15  7  1  0
 16 15  2  0
 18 17  1  0
 18 29  1  0
 19 20  1  0
 18 19  1  1
 20 21  2  0
 22 21  1  0
 23 22  1  0
 24 23  2  0
 25 24  1  0
 26 27  1  0
 26 25  2  0
 27 28  2  0
 28 23  1  0
 28 20  1  0
 29 30  1  0
 31 29  2  0
M  END
$$$$
