AFW.pdb
     RDKit          3D

 31 33  0  0  1  0  0  0  0  0999 V2000
    8.0029  -20.9125   23.1287 C   0  0  0  0  0  0  0  0  0  0  0  0
    7.5964  -20.4873   21.7393 C   0  0  2  0  0  0  0  0  0  0  0  0
    8.0862  -21.4128   20.7537 N   0  0  0  0  0  0  0  0  0  0  0  0
    8.1602  -19.1166   21.5386 C   0  0  0  0  0  0  0  0  0  0  0  0
    9.3517  -18.9401   21.2334 O   0  0  0  0  0  0  0  0  0  0  0  0
    7.3541  -17.9444   21.6887 N   0  0  0  0  0  0  0  0  0  0  0  0
    7.8737  -16.6238   21.3413 C   0  0  1  0  0  0  0  0  0  0  0  0
    6.7083  -15.6264   21.2819 C   0  0  0  0  0  0  0  0  0  0  0  0
    7.1633  -14.3053   20.8238 C   0  0  0  0  0  0  0  0  0  0  0  0
    7.3975  -14.0747   19.4903 C   0  0  0  0  0  0  0  0  0  0  0  0
    7.8199  -12.8400   19.0120 C   0  0  0  0  0  0  0  0  0  0  0  0
    8.0221  -11.7937   19.8584 C   0  0  0  0  0  0  0  0  0  0  0  0
    7.7904  -12.0058   21.2227 C   0  0  0  0  0  0  0  0  0  0  0  0
    7.3729  -13.2367   21.6691 C   0  0  0  0  0  0  0  0  0  0  0  0
    8.7465  -16.1557   22.4444 C   0  0  0  0  0  0  0  0  0  0  0  0
    9.2957  -15.0384   22.2847 O   0  0  0  0  0  0  0  0  0  0  0  0
    8.9997  -16.8488   23.6354 N   0  0  0  0  0  0  0  0  0  0  0  0
   10.0500  -16.5663   24.5856 C   0  0  1  0  0  0  0  0  0  0  0  0
    9.9468  -15.1517   25.1155 C   0  0  0  0  0  0  0  0  0  0  0  0
    8.5484  -14.8858   25.5093 C   0  0  0  0  0  0  0  0  0  0  0  0
    7.5185  -15.8385   25.5027 C   0  0  0  0  0  0  0  0  0  0  0  0
    6.3779  -15.2732   25.8989 N   0  0  0  0  0  0  0  0  0  0  0  0
    6.6057  -13.9653   26.1735 C   0  0  0  0  0  0  0  0  0  0  0  0
    5.7691  -12.9681   26.6105 C   0  0  0  0  0  0  0  0  0  0  0  0
    6.2860  -11.7002   26.8117 C   0  0  0  0  0  0  0  0  0  0  0  0
    7.6272  -11.4236   26.5808 C   0  0  0  0  0  0  0  0  0  0  0  0
    8.4631  -12.4405   26.1390 C   0  0  0  0  0  0  0  0  0  0  0  0
    7.9609  -13.7180   25.9320 C   0  0  0  0  0  0  0  0  0  0  0  0
   10.1937  -17.5011   25.6816 C   0  0  0  0  0  0  0  0  0  0  0  0
    9.3523  -18.5629   25.9440 O   0  0  0  0  0  0  0  0  0  0  0  0
   11.1661  -17.3571   26.4906 O   0  0  0  0  0  0  0  0  0  0  0  0
  2  1  1  1
  2  3  1  0
  4  5  2  0
  4  2  1  0
  6  4  1  0
  7  6  1  0
  7  8  1  1
  9 14  1  0
  9  8  1  0
 10  9  2  0
 11 12  2  0
 11 10  1  0
 12 13  1  0
 13 14  2  0
 15 17  1  0
 15  7  1  0
 16 15  2  0
 18 17  1  0
 18 29  1  0
 19 20  1  0
 18 19  1  1
 20 21  2  0
 22 21  1  0
 23 22  1  0
 24 23  2  0
 25 24  1  0
 26 27  1  0
 26 25  2  0
 27 28  2  0
 28 23  1  0
 28 20  1  0
 29 30  1  0
 31 29  2  0
M  END
$$$$
