AFW.pdb
     RDKit          3D

 31 33  0  0  1  0  0  0  0  0999 V2000
   11.3193  -17.4825   17.5832 C   0  0  0  0  0  0  0  0  0  0  0  0
   10.9086  -18.3032   18.7807 C   0  0  2  0  0  0  0  0  0  0  0  0
    9.6049  -18.8784   18.5881 N   0  0  0  0  0  0  0  0  0  0  0  0
   10.9357  -17.3759   19.9538 C   0  0  0  0  0  0  0  0  0  0  0  0
   11.9710  -16.7739   20.2851 O   0  0  0  0  0  0  0  0  0  0  0  0
    9.7710  -17.1385   20.7497 N   0  0  0  0  0  0  0  0  0  0  0  0
    9.8324  -16.2956   21.9415 C   0  0  1  0  0  0  0  0  0  0  0  0
    8.4147  -15.8258   22.2967 C   0  0  0  0  0  0  0  0  0  0  0  0
    8.0246  -14.6595   21.4906 C   0  0  0  0  0  0  0  0  0  0  0  0
    7.2396  -14.8170   20.3747 C   0  0  0  0  0  0  0  0  0  0  0  0
    6.8401  -13.7427   19.5888 C   0  0  0  0  0  0  0  0  0  0  0  0
    7.2166  -12.4718   19.8973 C   0  0  0  0  0  0  0  0  0  0  0  0
    8.0179  -12.2872   21.0303 C   0  0  0  0  0  0  0  0  0  0  0  0
    8.3987  -13.3670   21.7903 C   0  0  0  0  0  0  0  0  0  0  0  0
   10.2775  -17.1278   23.0848 C   0  0  0  0  0  0  0  0  0  0  0  0
   11.4336  -17.6102   23.0062 O   0  0  0  0  0  0  0  0  0  0  0  0
    9.5232  -17.4107   24.2311 N   0  0  0  0  0  0  0  0  0  0  0  0
    9.8040  -16.9622   25.5749 C   0  0  1  0  0  0  0  0  0  0  0  0
    9.7063  -15.4553   25.6839 C   0  0  0  0  0  0  0  0  0  0  0  0
    8.3221  -15.0873   26.0441 C   0  0  0  0  0  0  0  0  0  0  0  0
    7.2210  -15.9549   25.9871 C   0  0  0  0  0  0  0  0  0  0  0  0
    6.1172  -15.3089   26.3637 N   0  0  0  0  0  0  0  0  0  0  0  0
    6.4389  -14.0291   26.6740 C   0  0  0  0  0  0  0  0  0  0  0  0
    5.6708  -12.9777   27.1096 C   0  0  0  0  0  0  0  0  0  0  0  0
    6.2797  -11.7591   27.3538 C   0  0  0  0  0  0  0  0  0  0  0  0
    7.6448  -11.5853   27.1670 C   0  0  0  0  0  0  0  0  0  0  0  0
    8.4109  -12.6561   26.7261 C   0  0  0  0  0  0  0  0  0  0  0  0
    7.8161  -13.8853   26.4763 C   0  0  0  0  0  0  0  0  0  0  0  0
    9.0430  -17.5902   26.6343 C   0  0  0  0  0  0  0  0  0  0  0  0
    7.9195  -18.3718   26.4581 O   0  0  0  0  0  0  0  0  0  0  0  0
    9.4139  -17.4243   27.8408 O   0  0  0  0  0  0  0  0  0  0  0  0
  2  1  1  6
  2  3  1  0
  4  5  2  0
  4  2  1  0
  6  4  1  0
  7  6  1  0
  7  8  1  1
  9 14  1  0
  9  8  1  0
 10  9  2  0
 11 12  2  0
 11 10  1  0
 12 13  1  0
 13 14  2  0
 15 17  1  0
 15  7  1  0
 16 15  2  0
 18 17  1  0
 18 29  1  0
 19 20  1  0
 18 19  1  6
 20 21  2  0
 22 21  1  0
 23 22  1  0
 24 23  2  0
 25 24  1  0
 26 27  1  0
 26 25  2  0
 27 28  2  0
 28 23  1  0
 28 20  1  0
 29 30  1  0
 31 29  2  0
M  END
$$$$
