AFW.pdb
     RDKit          3D

 31 33  0  0  1  0  0  0  0  0999 V2000
   13.1861  -18.2261   18.2598 C   0  0  0  0  0  0  0  0  0  0  0  0
   12.3647  -18.9078   19.3260 C   0  0  2  0  0  0  0  0  0  0  0  0
   11.3933  -19.7919   18.7409 N   0  0  0  0  0  0  0  0  0  0  0  0
   11.7142  -17.8168   20.1156 C   0  0  0  0  0  0  0  0  0  0  0  0
   12.3831  -16.9744   20.7376 O   0  0  0  0  0  0  0  0  0  0  0  0
   10.2911  -17.6919   20.1919 N   0  0  0  0  0  0  0  0  0  0  0  0
    9.6695  -16.6414   20.9948 C   0  0  1  0  0  0  0  0  0  0  0  0
    8.4697  -16.0681   20.2277 C   0  0  0  0  0  0  0  0  0  0  0  0
    7.8294  -14.9795   20.9807 C   0  0  0  0  0  0  0  0  0  0  0  0
    6.6030  -15.1690   21.5692 C   0  0  0  0  0  0  0  0  0  0  0  0
    5.9652  -14.1715   22.2970 C   0  0  0  0  0  0  0  0  0  0  0  0
    6.5384  -12.9477   22.4582 C   0  0  0  0  0  0  0  0  0  0  0  0
    7.7885  -12.7314   21.8663 C   0  0  0  0  0  0  0  0  0  0  0  0
    8.3974  -13.7351   21.1519 C   0  0  0  0  0  0  0  0  0  0  0  0
    9.1055  -17.2563   22.2201 C   0  0  0  0  0  0  0  0  0  0  0  0
    8.4561  -18.3189   22.0623 O   0  0  0  0  0  0  0  0  0  0  0  0
    9.2414  -16.7557   23.5216 N   0  0  0  0  0  0  0  0  0  0  0  0
    8.7815  -17.3876   24.7361 C   0  0  1  0  0  0  0  0  0  0  0  0
    8.9656  -16.4789   25.9331 C   0  0  0  0  0  0  0  0  0  0  0  0
    7.9245  -15.4317   25.9072 C   0  0  0  0  0  0  0  0  0  0  0  0
    6.5643  -15.6594   25.6495 C   0  0  0  0  0  0  0  0  0  0  0  0
    5.8983  -14.5051   25.6865 N   0  0  0  0  0  0  0  0  0  0  0  0
    6.7680  -13.5023   25.9617 C   0  0  0  0  0  0  0  0  0  0  0  0
    6.5813  -12.1497   26.1059 C   0  0  0  0  0  0  0  0  0  0  0  0
    7.6733  -11.3496   26.3936 C   0  0  0  0  0  0  0  0  0  0  0  0
    8.9445  -11.8897   26.5380 C   0  0  0  0  0  0  0  0  0  0  0  0
    9.1205  -13.2591   26.3896 C   0  0  0  0  0  0  0  0  0  0  0  0
    8.0360  -14.0761   26.1010 C   0  0  0  0  0  0  0  0  0  0  0  0
    7.4350  -17.9186   24.7143 C   0  0  0  0  0  0  0  0  0  0  0  0
    6.9317  -18.8612   25.5875 O   0  0  0  0  0  0  0  0  0  0  0  0
    6.6235  -17.5037   23.8255 O   0  0  0  0  0  0  0  0  0  0  0  0
  2  1  1  6
  2  3  1  0
  4  5  2  0
  4  2  1  0
  6  4  1  0
  7  6  1  0
  7  8  1  6
  9 14  1  0
  9  8  1  0
 10  9  2  0
 11 12  2  0
 11 10  1  0
 12 13  1  0
 13 14  2  0
 15 17  1  0
 15  7  1  0
 16 15  2  0
 18 17  1  0
 18 29  1  0
 19 20  1  0
 18 19  1  1
 20 21  2  0
 22 21  1  0
 23 22  1  0
 24 23  2  0
 25 24  1  0
 26 27  1  0
 26 25  2  0
 27 28  2  0
 28 23  1  0
 28 20  1  0
 29 30  1  0
 31 29  2  0
M  END
$$$$
