AFW.pdb
     RDKit          3D

 31 33  0  0  1  0  0  0  0  0999 V2000
    8.9798  -18.9662   19.8514 C   0  0  0  0  0  0  0  0  0  0  0  0
    8.6216  -17.6211   19.2695 C   0  0  2  0  0  0  0  0  0  0  0  0
    9.4106  -17.3391   18.1008 N   0  0  0  0  0  0  0  0  0  0  0  0
    8.8610  -16.6183   20.3530 C   0  0  0  0  0  0  0  0  0  0  0  0
    9.9650  -16.0670   20.4986 O   0  0  0  0  0  0  0  0  0  0  0  0
    7.8303  -16.2470   21.2728 N   0  0  0  0  0  0  0  0  0  0  0  0
    8.0905  -15.2970   22.3519 C   0  0  1  0  0  0  0  0  0  0  0  0
    6.7521  -14.7891   22.9061 C   0  0  0  0  0  0  0  0  0  0  0  0
    6.9609  -13.7996   23.9736 C   0  0  0  0  0  0  0  0  0  0  0  0
    7.6027  -12.6149   23.7073 C   0  0  0  0  0  0  0  0  0  0  0  0
    7.8142  -11.6479   24.6828 C   0  0  0  0  0  0  0  0  0  0  0  0
    7.3878  -11.8387   25.9611 C   0  0  0  0  0  0  0  0  0  0  0  0
    6.7317  -13.0397   26.2561 C   0  0  0  0  0  0  0  0  0  0  0  0
    6.5354  -13.9791   25.2724 C   0  0  0  0  0  0  0  0  0  0  0  0
    8.7392  -16.0213   23.4711 C   0  0  0  0  0  0  0  0  0  0  0  0
    8.0631  -16.1445   24.5215 O   0  0  0  0  0  0  0  0  0  0  0  0
   10.0260  -16.5749   23.4485 N   0  0  0  0  0  0  0  0  0  0  0  0
   11.0672  -16.3657   24.4273 C   0  0  1  0  0  0  0  0  0  0  0  0
   10.9484  -17.3459   25.5751 C   0  0  0  0  0  0  0  0  0  0  0  0
    9.9903  -16.8141   26.5653 C   0  0  0  0  0  0  0  0  0  0  0  0
    8.6645  -17.2490   26.7120 C   0  0  0  0  0  0  0  0  0  0  0  0
    8.0676  -16.5580   27.6834 N   0  0  0  0  0  0  0  0  0  0  0  0
    8.9506  -15.6678   28.1986 C   0  0  0  0  0  0  0  0  0  0  0  0
    8.8263  -14.7399   29.2030 C   0  0  0  0  0  0  0  0  0  0  0  0
    9.9166  -13.9506   29.5246 C   0  0  0  0  0  0  0  0  0  0  0  0
   11.1249  -14.0822   28.8529 C   0  0  0  0  0  0  0  0  0  0  0  0
   11.2382  -15.0241   27.8389 C   0  0  0  0  0  0  0  0  0  0  0  0
   10.1543  -15.8239   27.5035 C   0  0  0  0  0  0  0  0  0  0  0  0
   12.4253  -16.3447   23.9266 C   0  0  0  0  0  0  0  0  0  0  0  0
   13.5577  -16.1514   24.6912 O   0  0  0  0  0  0  0  0  0  0  0  0
   12.6251  -16.5127   22.6806 O   0  0  0  0  0  0  0  0  0  0  0  0
  2  1  1  1
  2  3  1  0
  4  5  2  0
  4  2  1  0
  6  4  1  0
  7  6  1  0
  7  8  1  1
  9 14  1  0
  9  8  1  0
 10  9  2  0
 11 12  2  0
 11 10  1  0
 12 13  1  0
 13 14  2  0
 15 17  1  0
 15  7  1  0
 16 15  2  0
 18 17  1  0
 18 29  1  0
 19 20  1  0
 18 19  1  1
 20 21  2  0
 22 21  1  0
 23 22  1  0
 24 23  2  0
 25 24  1  0
 26 27  1  0
 26 25  2  0
 27 28  2  0
 28 23  1  0
 28 20  1  0
 29 30  1  0
 31 29  2  0
M  END
$$$$
