AFW.pdb
     RDKit          3D

 31 33  0  0  1  0  0  0  0  0999 V2000
    6.3388  -20.4267   24.1631 C   0  0  0  0  0  0  0  0  0  0  0  0
    6.0199  -20.2328   22.7012 C   0  0  2  0  0  0  0  0  0  0  0  0
    6.2999  -21.4268   21.9504 N   0  0  0  0  0  0  0  0  0  0  0  0
    6.8546  -19.0810   22.2392 C   0  0  0  0  0  0  0  0  0  0  0  0
    8.0878  -19.1759   22.1204 O   0  0  0  0  0  0  0  0  0  0  0  0
    6.2724  -17.8158   21.9126 N   0  0  0  0  0  0  0  0  0  0  0  0
    7.1097  -16.6574   21.6095 C   0  0  1  0  0  0  0  0  0  0  0  0
    6.2178  -15.5101   21.1146 C   0  0  0  0  0  0  0  0  0  0  0  0
    7.0252  -14.3992   20.5890 C   0  0  0  0  0  0  0  0  0  0  0  0
    7.0378  -13.1849   21.2305 C   0  0  0  0  0  0  0  0  0  0  0  0
    7.7923  -12.1106   20.7742 C   0  0  0  0  0  0  0  0  0  0  0  0
    8.5606  -12.2197   19.6562 C   0  0  0  0  0  0  0  0  0  0  0  0
    8.5626  -13.4484   18.9852 C   0  0  0  0  0  0  0  0  0  0  0  0
    7.8074  -14.4947   19.4579 C   0  0  0  0  0  0  0  0  0  0  0  0
    7.7210  -16.1749   22.8709 C   0  0  0  0  0  0  0  0  0  0  0  0
    7.1007  -15.2696   23.4802 O   0  0  0  0  0  0  0  0  0  0  0  0
    8.9160  -16.6450   23.4310 N   0  0  0  0  0  0  0  0  0  0  0  0
    9.8666  -15.8730   24.1968 C   0  0  1  0  0  0  0  0  0  0  0  0
    9.5458  -15.9155   25.6759 C   0  0  0  0  0  0  0  0  0  0  0  0
    8.2529  -15.2404   25.9078 C   0  0  0  0  0  0  0  0  0  0  0  0
    7.0048  -15.8811   25.9222 C   0  0  0  0  0  0  0  0  0  0  0  0
    6.0409  -14.9872   26.1440 N   0  0  0  0  0  0  0  0  0  0  0  0
    6.6000  -13.7598   26.2801 C   0  0  0  0  0  0  0  0  0  0  0  0
    6.0432  -12.5275   26.5181 C   0  0  0  0  0  0  0  0  0  0  0  0
    6.8733  -11.4242   26.6124 C   0  0  0  0  0  0  0  0  0  0  0  0
    8.2497  -11.5436   26.4718 C   0  0  0  0  0  0  0  0  0  0  0  0
    8.8008  -12.7952   26.2313 C   0  0  0  0  0  0  0  0  0  0  0  0
    7.9825  -13.9123   26.1337 C   0  0  0  0  0  0  0  0  0  0  0  0
   11.2652  -16.1773   23.9799 C   0  0  0  0  0  0  0  0  0  0  0  0
   11.7488  -17.2038   23.1948 O   0  0  0  0  0  0  0  0  0  0  0  0
   12.1476  -15.4579   24.5495 O   0  0  0  0  0  0  0  0  0  0  0  0
  2  1  1  1
  2  3  1  0
  4  5  2  0
  4  2  1  0
  6  4  1  0
  7  6  1  0
  7  8  1  1
  9 14  1  0
  9  8  1  0
 10  9  2  0
 11 12  2  0
 11 10  1  0
 12 13  1  0
 13 14  2  0
 15 17  1  0
 15  7  1  0
 16 15  2  0
 18 17  1  0
 18 29  1  0
 19 20  1  0
 18 19  1  1
 20 21  2  0
 22 21  1  0
 23 22  1  0
 24 23  2  0
 25 24  1  0
 26 27  1  0
 26 25  2  0
 27 28  2  0
 28 23  1  0
 28 20  1  0
 29 30  1  0
 31 29  2  0
M  END
$$$$
