AFW.pdb
     RDKit          3D

 31 33  0  0  1  0  0  0  0  0999 V2000
    7.9569  -20.9246   22.4071 C   0  0  0  0  0  0  0  0  0  0  0  0
    7.4589  -20.4575   21.0616 C   0  0  2  0  0  0  0  0  0  0  0  0
    7.9194  -21.3261   20.0123 N   0  0  0  0  0  0  0  0  0  0  0  0
    7.9682  -19.0622   20.8874 C   0  0  0  0  0  0  0  0  0  0  0  0
    9.1207  -18.8348   20.4823 O   0  0  0  0  0  0  0  0  0  0  0  0
    7.1526  -17.9238   21.1791 N   0  0  0  0  0  0  0  0  0  0  0  0
    7.7117  -16.5740   21.1671 C   0  0  1  0  0  0  0  0  0  0  0  0
    6.5961  -15.5723   20.8373 C   0  0  0  0  0  0  0  0  0  0  0  0
    7.1316  -14.2107   20.6913 C   0  0  0  0  0  0  0  0  0  0  0  0
    7.8043  -13.8469   19.5505 C   0  0  0  0  0  0  0  0  0  0  0  0
    8.3195  -12.5694   19.3663 C   0  0  0  0  0  0  0  0  0  0  0  0
    8.1765  -11.6125   20.3234 C   0  0  0  0  0  0  0  0  0  0  0  0
    7.4948  -11.9610   21.4955 C   0  0  0  0  0  0  0  0  0  0  0  0
    6.9951  -13.2315   21.6520 C   0  0  0  0  0  0  0  0  0  0  0  0
    8.1601  -16.2374   22.5395 C   0  0  0  0  0  0  0  0  0  0  0  0
    7.2744  -15.8335   23.3319 O   0  0  0  0  0  0  0  0  0  0  0  0
    9.4736  -16.3372   23.0166 N   0  0  0  0  0  0  0  0  0  0  0  0
    9.9744  -15.8142   24.2663 C   0  0  1  0  0  0  0  0  0  0  0  0
    9.2437  -16.4171   25.4474 C   0  0  0  0  0  0  0  0  0  0  0  0
    7.9807  -15.6813   25.6589 C   0  0  0  0  0  0  0  0  0  0  0  0
    6.6988  -16.2412   25.5516 C   0  0  0  0  0  0  0  0  0  0  0  0
    5.7770  -15.3077   25.7891 N   0  0  0  0  0  0  0  0  0  0  0  0
    6.3976  -14.1320   26.0540 C   0  0  0  0  0  0  0  0  0  0  0  0
    5.9003  -12.8887   26.3576 C   0  0  0  0  0  0  0  0  0  0  0  0
    6.7862  -11.8504   26.5864 C   0  0  0  0  0  0  0  0  0  0  0  0
    8.1593  -12.0454   26.5148 C   0  0  0  0  0  0  0  0  0  0  0  0
    8.6499  -13.3074   26.2068 C   0  0  0  0  0  0  0  0  0  0  0  0
    7.7752  -14.3599   25.9744 C   0  0  0  0  0  0  0  0  0  0  0  0
   11.4054  -15.8953   24.4697 C   0  0  0  0  0  0  0  0  0  0  0  0
   12.0805  -15.4605   25.5918 O   0  0  0  0  0  0  0  0  0  0  0  0
   12.1300  -16.4022   23.5539 O   0  0  0  0  0  0  0  0  0  0  0  0
  2  1  1  1
  2  3  1  0
  4  5  2  0
  4  2  1  0
  6  4  1  0
  7  6  1  0
  7  8  1  1
  9 14  1  0
  9  8  1  0
 10  9  2  0
 11 12  2  0
 11 10  1  0
 12 13  1  0
 13 14  2  0
 15 17  1  0
 15  7  1  0
 16 15  2  0
 18 17  1  0
 18 29  1  0
 19 20  1  0
 18 19  1  1
 20 21  2  0
 22 21  1  0
 23 22  1  0
 24 23  2  0
 25 24  1  0
 26 27  1  0
 26 25  2  0
 27 28  2  0
 28 23  1  0
 28 20  1  0
 29 30  1  0
 31 29  2  0
M  END
$$$$
