AFW.pdb
     RDKit          3D

 31 33  0  0  1  0  0  0  0  0999 V2000
   10.3626  -20.7515   19.9743 C   0  0  0  0  0  0  0  0  0  0  0  0
    9.8995  -19.7171   18.9784 C   0  0  2  0  0  0  0  0  0  0  0  0
   10.7944  -19.6471   17.8549 N   0  0  0  0  0  0  0  0  0  0  0  0
    9.8399  -18.4191   19.7191 C   0  0  0  0  0  0  0  0  0  0  0  0
   10.8358  -17.6839   19.8270 O   0  0  0  0  0  0  0  0  0  0  0  0
    8.6336  -17.9631   20.3382 N   0  0  0  0  0  0  0  0  0  0  0  0
    8.5842  -16.6813   21.0375 C   0  0  1  0  0  0  0  0  0  0  0  0
    7.1549  -16.1258   20.9652 C   0  0  0  0  0  0  0  0  0  0  0  0
    7.0972  -14.7432   21.4624 C   0  0  0  0  0  0  0  0  0  0  0  0
    7.5716  -13.7080   20.6945 C   0  0  0  0  0  0  0  0  0  0  0  0
    7.5294  -12.3858   21.1205 C   0  0  0  0  0  0  0  0  0  0  0  0
    7.0087  -12.0581   22.3345 C   0  0  0  0  0  0  0  0  0  0  0  0
    6.5197  -13.0974   23.1350 C   0  0  0  0  0  0  0  0  0  0  0  0
    6.5734  -14.3962   22.6894 C   0  0  0  0  0  0  0  0  0  0  0  0
    8.8499  -16.9189   22.4764 C   0  0  0  0  0  0  0  0  0  0  0  0
    8.6147  -18.0758   22.9030 O   0  0  0  0  0  0  0  0  0  0  0  0
    9.3398  -15.9704   23.3837 N   0  0  0  0  0  0  0  0  0  0  0  0
   10.2481  -16.2197   24.4786 C   0  0  1  0  0  0  0  0  0  0  0  0
   10.0371  -15.2301   25.6049 C   0  0  0  0  0  0  0  0  0  0  0  0
    8.6258  -14.7950   25.6055 C   0  0  0  0  0  0  0  0  0  0  0  0
    7.5230  -15.6498   25.4590 C   0  0  0  0  0  0  0  0  0  0  0  0
    6.3946  -14.9405   25.4897 N   0  0  0  0  0  0  0  0  0  0  0  0
    6.7013  -13.6301   25.6525 C   0  0  0  0  0  0  0  0  0  0  0  0
    5.9066  -12.5142   25.7456 C   0  0  0  0  0  0  0  0  0  0  0  0
    6.5051  -11.2778   25.9143 C   0  0  0  0  0  0  0  0  0  0  0  0
    7.8857  -11.1497   25.9909 C   0  0  0  0  0  0  0  0  0  0  0  0
    8.6786  -12.2857   25.8954 C   0  0  0  0  0  0  0  0  0  0  0  0
    8.0947  -13.5336   25.7259 C   0  0  0  0  0  0  0  0  0  0  0  0
   10.2727  -17.5706   24.9984 C   0  0  0  0  0  0  0  0  0  0  0  0
    9.4079  -18.5834   24.6373 O   0  0  0  0  0  0  0  0  0  0  0  0
   11.1520  -17.8812   25.8651 O   0  0  0  0  0  0  0  0  0  0  0  0
  2  1  1  1
  2  3  1  0
  4  5  2  0
  4  2  1  0
  6  4  1  0
  7  6  1  0
  7  8  1  1
  9 14  1  0
  9  8  1  0
 10  9  2  0
 11 12  2  0
 11 10  1  0
 12 13  1  0
 13 14  2  0
 15 17  1  0
 15  7  1  0
 16 15  2  0
 18 17  1  0
 18 29  1  0
 19 20  1  0
 18 19  1  1
 20 21  2  0
 22 21  1  0
 23 22  1  0
 24 23  2  0
 25 24  1  0
 26 27  1  0
 26 25  2  0
 27 28  2  0
 28 23  1  0
 28 20  1  0
 29 30  1  0
 31 29  2  0
M  END
$$$$
