AFW.pdb
     RDKit          3D

 31 33  0  0  1  0  0  0  0  0999 V2000
    6.5047  -20.7818   23.1975 C   0  0  0  0  0  0  0  0  0  0  0  0
    6.4423  -20.4525   21.7264 C   0  0  2  0  0  0  0  0  0  0  0  0
    7.0259  -21.5042   20.9383 N   0  0  0  0  0  0  0  0  0  0  0  0
    7.1761  -19.1608   21.5544 C   0  0  0  0  0  0  0  0  0  0  0  0
    8.4138  -19.1229   21.4515 O   0  0  0  0  0  0  0  0  0  0  0  0
    6.4874  -17.9080   21.5004 N   0  0  0  0  0  0  0  0  0  0  0  0
    7.2215  -16.6494   21.3931 C   0  0  1  0  0  0  0  0  0  0  0  0
    6.3084  -15.5889   20.7620 C   0  0  0  0  0  0  0  0  0  0  0  0
    7.0450  -14.3443   20.4967 C   0  0  0  0  0  0  0  0  0  0  0  0
    7.8166  -14.2205   19.3672 C   0  0  0  0  0  0  0  0  0  0  0  0
    8.5225  -13.0603   19.0723 C   0  0  0  0  0  0  0  0  0  0  0  0
    8.4777  -11.9835   19.9034 C   0  0  0  0  0  0  0  0  0  0  0  0
    7.6981  -12.0872   21.0616 C   0  0  0  0  0  0  0  0  0  0  0  0
    7.0097  -13.2461   21.3293 C   0  0  0  0  0  0  0  0  0  0  0  0
    7.5197  -16.1597   22.7602 C   0  0  0  0  0  0  0  0  0  0  0  0
    6.8400  -15.1846   23.1635 O   0  0  0  0  0  0  0  0  0  0  0  0
    8.4824  -16.6937   23.6268 N   0  0  0  0  0  0  0  0  0  0  0  0
    9.7694  -16.1175   23.9390 C   0  0  1  0  0  0  0  0  0  0  0  0
    9.6224  -14.7368   24.5426 C   0  0  0  0  0  0  0  0  0  0  0  0
    8.3269  -14.6547   25.2471 C   0  0  0  0  0  0  0  0  0  0  0  0
    7.4702  -15.7412   25.4795 C   0  0  0  0  0  0  0  0  0  0  0  0
    6.3807  -15.3268   26.1264 N   0  0  0  0  0  0  0  0  0  0  0  0
    6.4747  -13.9912   26.3388 C   0  0  0  0  0  0  0  0  0  0  0  0
    5.6252  -13.1056   26.9547 C   0  0  0  0  0  0  0  0  0  0  0  0
    5.9868  -11.7718   27.0291 C   0  0  0  0  0  0  0  0  0  0  0  0
    7.1863  -11.3194   26.4954 C   0  0  0  0  0  0  0  0  0  0  0  0
    8.0370  -12.2247   25.8749 C   0  0  0  0  0  0  0  0  0  0  0  0
    7.6896  -13.5661   25.7915 C   0  0  0  0  0  0  0  0  0  0  0  0
   10.6558  -16.9255   24.7496 C   0  0  0  0  0  0  0  0  0  0  0  0
   10.3368  -18.1434   25.3145 O   0  0  0  0  0  0  0  0  0  0  0  0
   11.8342  -16.5035   24.9818 O   0  0  0  0  0  0  0  0  0  0  0  0
  2  1  1  1
  2  3  1  0
  4  5  2  0
  4  2  1  0
  6  4  1  0
  7  6  1  0
  7  8  1  1
  9 14  1  0
  9  8  1  0
 10  9  2  0
 11 12  2  0
 11 10  1  0
 12 13  1  0
 13 14  2  0
 15 17  1  0
 15  7  1  0
 16 15  2  0
 18 17  1  0
 18 29  1  0
 19 20  1  0
 18 19  1  1
 20 21  2  0
 22 21  1  0
 23 22  1  0
 24 23  2  0
 25 24  1  0
 26 27  1  0
 26 25  2  0
 27 28  2  0
 28 23  1  0
 28 20  1  0
 29 30  1  0
 31 29  2  0
M  END
$$$$
