AFW.pdb
     RDKit          3D

 31 33  0  0  1  0  0  0  0  0999 V2000
    9.5566  -18.6577   18.8731 C   0  0  0  0  0  0  0  0  0  0  0  0
    9.5156  -18.8007   20.3745 C   0  0  2  0  0  0  0  0  0  0  0  0
    8.1847  -19.1042   20.8266 N   0  0  0  0  0  0  0  0  0  0  0  0
   10.0063  -17.5029   20.9328 C   0  0  0  0  0  0  0  0  0  0  0  0
   11.1635  -17.1002   20.7259 O   0  0  0  0  0  0  0  0  0  0  0  0
    9.1666  -16.6642   21.7315 N   0  0  0  0  0  0  0  0  0  0  0  0
    9.6799  -15.4324   22.3263 C   0  0  1  0  0  0  0  0  0  0  0  0
    8.5115  -14.4651   22.5625 C   0  0  0  0  0  0  0  0  0  0  0  0
    8.0071  -13.9222   21.2925 C   0  0  0  0  0  0  0  0  0  0  0  0
    6.8841  -14.4533   20.7067 C   0  0  0  0  0  0  0  0  0  0  0  0
    6.3675  -13.9663   19.5120 C   0  0  0  0  0  0  0  0  0  0  0  0
    6.9624  -12.9280   18.8639 C   0  0  0  0  0  0  0  0  0  0  0  0
    8.1093  -12.3710   19.4423 C   0  0  0  0  0  0  0  0  0  0  0  0
    8.5992  -12.8716   20.6246 C   0  0  0  0  0  0  0  0  0  0  0  0
   10.2182  -15.7472   23.6712 C   0  0  0  0  0  0  0  0  0  0  0  0
   11.1796  -15.0431   24.0656 O   0  0  0  0  0  0  0  0  0  0  0  0
    9.7434  -16.7503   24.5264 N   0  0  0  0  0  0  0  0  0  0  0  0
   10.2147  -17.0329   25.8620 C   0  0  1  0  0  0  0  0  0  0  0  0
    9.9265  -15.8819   26.8024 C   0  0  0  0  0  0  0  0  0  0  0  0
    8.5277  -15.4464   26.6159 C   0  0  0  0  0  0  0  0  0  0  0  0
    7.4654  -16.2912   26.2606 C   0  0  0  0  0  0  0  0  0  0  0  0
    6.3398  -15.5837   26.1608 N   0  0  0  0  0  0  0  0  0  0  0  0
    6.6091  -14.2844   26.4382 C   0  0  0  0  0  0  0  0  0  0  0  0
    5.8012  -13.1746   26.4718 C   0  0  0  0  0  0  0  0  0  0  0  0
    6.3587  -11.9497   26.7945 C   0  0  0  0  0  0  0  0  0  0  0  0
    7.7115  -11.8270   27.0830 C   0  0  0  0  0  0  0  0  0  0  0  0
    8.5182  -12.9566   27.0456 C   0  0  0  0  0  0  0  0  0  0  0  0
    7.9752  -14.1930   26.7238 C   0  0  0  0  0  0  0  0  0  0  0  0
    9.7730  -18.2803   26.4490 C   0  0  0  0  0  0  0  0  0  0  0  0
    8.9275  -19.1919   25.8503 O   0  0  0  0  0  0  0  0  0  0  0  0
   10.1784  -18.5899   27.6154 O   0  0  0  0  0  0  0  0  0  0  0  0
  2  1  1  6
  2  3  1  0
  4  5  2  0
  4  2  1  0
  6  4  1  0
  7  6  1  0
  7  8  1  1
  9 14  1  0
  9  8  1  0
 10  9  2  0
 11 12  2  0
 11 10  1  0
 12 13  1  0
 13 14  2  0
 15 17  1  0
 15  7  1  0
 16 15  2  0
 18 17  1  0
 18 29  1  0
 19 20  1  0
 18 19  1  1
 20 21  2  0
 22 21  1  0
 23 22  1  0
 24 23  2  0
 25 24  1  0
 26 27  1  0
 26 25  2  0
 27 28  2  0
 28 23  1  0
 28 20  1  0
 29 30  1  0
 31 29  2  0
M  END
$$$$
