AFW.pdb
     RDKit          3D

 31 33  0  0  1  0  0  0  0  0999 V2000
    9.3080  -18.8927   19.4807 C   0  0  0  0  0  0  0  0  0  0  0  0
    9.0998  -17.4734   19.0133 C   0  0  2  0  0  0  0  0  0  0  0  0
   10.0663  -17.1145   18.0109 N   0  0  0  0  0  0  0  0  0  0  0  0
    9.2178  -16.6101   20.2289 C   0  0  0  0  0  0  0  0  0  0  0  0
   10.3238  -16.2814   20.6901 O   0  0  0  0  0  0  0  0  0  0  0  0
    8.0628  -16.1224   20.9178 N   0  0  0  0  0  0  0  0  0  0  0  0
    8.1920  -15.3526   22.1529 C   0  0  1  0  0  0  0  0  0  0  0  0
    6.8137  -14.8045   22.5483 C   0  0  0  0  0  0  0  0  0  0  0  0
    6.9040  -13.9539   23.7443 C   0  0  0  0  0  0  0  0  0  0  0  0
    6.3572  -14.3675   24.9343 C   0  0  0  0  0  0  0  0  0  0  0  0
    6.4264  -13.6003   26.0911 C   0  0  0  0  0  0  0  0  0  0  0  0
    7.0479  -12.3895   26.0916 C   0  0  0  0  0  0  0  0  0  0  0  0
    7.6121  -11.9470   24.8892 C   0  0  0  0  0  0  0  0  0  0  0  0
    7.5296  -12.7256   23.7598 C   0  0  0  0  0  0  0  0  0  0  0  0
    8.5850  -16.2756   23.2444 C   0  0  0  0  0  0  0  0  0  0  0  0
    7.6482  -16.8141   23.8832 O   0  0  0  0  0  0  0  0  0  0  0  0
    9.8992  -16.5934   23.6114 N   0  0  0  0  0  0  0  0  0  0  0  0
   10.4629  -16.5114   24.9385 C   0  0  1  0  0  0  0  0  0  0  0  0
    9.6638  -17.3332   25.9276 C   0  0  0  0  0  0  0  0  0  0  0  0
   10.0898  -16.9850   27.2982 C   0  0  0  0  0  0  0  0  0  0  0  0
   10.3636  -17.9141   28.3133 C   0  0  0  0  0  0  0  0  0  0  0  0
   10.7086  -17.2736   29.4305 N   0  0  0  0  0  0  0  0  0  0  0  0
   10.6763  -15.9379   29.2014 C   0  0  0  0  0  0  0  0  0  0  0  0
   10.9458  -14.8676   30.0183 C   0  0  0  0  0  0  0  0  0  0  0  0
   10.8300  -13.5875   29.5054 C   0  0  0  0  0  0  0  0  0  0  0  0
   10.4492  -13.3707   28.1877 C   0  0  0  0  0  0  0  0  0  0  0  0
   10.1794  -14.4611   27.3715 C   0  0  0  0  0  0  0  0  0  0  0  0
   10.2905  -15.7519   27.8700 C   0  0  0  0  0  0  0  0  0  0  0  0
   11.8727  -16.8178   25.0581 C   0  0  0  0  0  0  0  0  0  0  0  0
   12.3972  -18.0164   25.4967 O   0  0  0  0  0  0  0  0  0  0  0  0
   12.7257  -15.9269   24.7427 O   0  0  0  0  0  0  0  0  0  0  0  0
  2  1  1  1
  2  3  1  0
  4  5  2  0
  4  2  1  0
  6  4  1  0
  7  6  1  0
  7  8  1  1
  9 14  1  0
  9  8  1  0
 10  9  2  0
 11 12  2  0
 11 10  1  0
 12 13  1  0
 13 14  2  0
 15 17  1  0
 15  7  1  0
 16 15  2  0
 18 17  1  0
 18 29  1  0
 19 20  1  0
 18 19  1  1
 20 21  2  0
 22 21  1  0
 23 22  1  0
 24 23  2  0
 25 24  1  0
 26 27  1  0
 26 25  2  0
 27 28  2  0
 28 23  1  0
 28 20  1  0
 29 30  1  0
 31 29  2  0
M  END
$$$$
