AFW.pdb
     RDKit          3D

 31 33  0  0  1  0  0  0  0  0999 V2000
   10.1819  -16.1682   17.2651 C   0  0  0  0  0  0  0  0  0  0  0  0
    9.7615  -17.1762   18.3061 C   0  0  2  0  0  0  0  0  0  0  0  0
    8.4483  -17.6899   18.0245 N   0  0  0  0  0  0  0  0  0  0  0  0
    9.8063  -16.4646   19.6208 C   0  0  0  0  0  0  0  0  0  0  0  0
   10.8671  -16.0075   20.0787 O   0  0  0  0  0  0  0  0  0  0  0  0
    8.6300  -16.2771   20.4129 N   0  0  0  0  0  0  0  0  0  0  0  0
    8.6941  -15.6052   21.7087 C   0  0  1  0  0  0  0  0  0  0  0  0
    7.2731  -15.2232   22.1461 C   0  0  0  0  0  0  0  0  0  0  0  0
    7.2837  -14.5440   23.4502 C   0  0  0  0  0  0  0  0  0  0  0  0
    6.8395  -15.1935   24.5758 C   0  0  0  0  0  0  0  0  0  0  0  0
    6.8396  -14.5936   25.8295 C   0  0  0  0  0  0  0  0  0  0  0  0
    7.2862  -13.3187   25.9951 C   0  0  0  0  0  0  0  0  0  0  0  0
    7.7431  -12.6366   24.8611 C   0  0  0  0  0  0  0  0  0  0  0  0
    7.7324  -13.2534   23.6331 C   0  0  0  0  0  0  0  0  0  0  0  0
    9.1777  -16.5759   22.7195 C   0  0  0  0  0  0  0  0  0  0  0  0
    8.8068  -17.7659   22.5714 O   0  0  0  0  0  0  0  0  0  0  0  0
   10.0070  -16.2761   23.8081 N   0  0  0  0  0  0  0  0  0  0  0  0
   10.8637  -17.2001   24.5139 C   0  0  1  0  0  0  0  0  0  0  0  0
   11.5923  -16.5160   25.6513 C   0  0  0  0  0  0  0  0  0  0  0  0
   10.7167  -16.4950   26.8405 C   0  0  0  0  0  0  0  0  0  0  0  0
   10.2551  -17.6343   27.5167 C   0  0  0  0  0  0  0  0  0  0  0  0
    9.4764  -17.2700   28.5357 N   0  0  0  0  0  0  0  0  0  0  0  0
    9.3972  -15.9171   28.5690 C   0  0  0  0  0  0  0  0  0  0  0  0
    8.7306  -15.0651   29.4145 C   0  0  0  0  0  0  0  0  0  0  0  0
    8.8326  -13.7005   29.2078 C   0  0  0  0  0  0  0  0  0  0  0  0
    9.5932  -13.1841   28.1670 C   0  0  0  0  0  0  0  0  0  0  0  0
   10.2627  -14.0560   27.3186 C   0  0  0  0  0  0  0  0  0  0  0  0
   10.1710  -15.4276   27.5118 C   0  0  0  0  0  0  0  0  0  0  0  0
   10.2444  -18.4225   24.9807 C   0  0  0  0  0  0  0  0  0  0  0  0
   10.9161  -19.5692   25.3524 O   0  0  0  0  0  0  0  0  0  0  0  0
    8.9752  -18.4773   25.0637 O   0  0  0  0  0  0  0  0  0  0  0  0
  2  1  1  6
  2  3  1  0
  4  5  2  0
  4  2  1  0
  6  4  1  0
  7  6  1  0
  7  8  1  1
  9 14  1  0
  9  8  1  0
 10  9  2  0
 11 12  2  0
 11 10  1  0
 12 13  1  0
 13 14  2  0
 15 17  1  0
 15  7  1  0
 16 15  2  0
 18 17  1  0
 18 29  1  0
 19 20  1  0
 18 19  1  1
 20 21  2  0
 22 21  1  0
 23 22  1  0
 24 23  2  0
 25 24  1  0
 26 27  1  0
 26 25  2  0
 27 28  2  0
 28 23  1  0
 28 20  1  0
 29 30  1  0
 31 29  2  0
M  END
$$$$
