HGG.pdb
     RDKit          3D

 19 19  0  0  1  0  0  0  0  0999 V2000
   21.0013  -10.9445  -16.0136 N   0  0  0  0  0  0  0  0  0  0  0  0
   20.0410  -10.0366  -16.6265 C   0  0  1  0  0  0  0  0  0  0  0  0
   18.9219   -9.8457  -15.6339 C   0  0  0  0  0  0  0  0  0  0  0  0
   18.1300  -11.0802  -15.4593 C   0  0  0  0  0  0  0  0  0  0  0  0
   18.5949  -12.3778  -15.6455 C   0  0  0  0  0  0  0  0  0  0  0  0
   17.6002  -13.2253  -15.3971 N   0  0  0  0  0  0  0  0  0  0  0  0
   16.5211  -12.5089  -15.0599 C   0  0  0  0  0  0  0  0  0  0  0  0
   16.8249  -11.2138  -15.0929 N   0  0  0  0  0  0  0  0  0  0  0  0
   20.7710   -8.7714  -16.8991 C   0  0  0  0  0  0  0  0  0  0  0  0
   20.1611   -7.8571  -17.4949 O   0  0  0  0  0  0  0  0  0  0  0  0
   22.1241   -8.5485  -16.5179 N   0  0  0  0  0  0  0  0  0  0  0  0
   22.8588   -7.3604  -16.7969 C   0  0  0  0  0  0  0  0  0  0  0  0
   22.9136   -6.4368  -15.6078 C   0  0  0  0  0  0  0  0  0  0  0  0
   23.6552   -5.4209  -15.6074 O   0  0  0  0  0  0  0  0  0  0  0  0
   22.1281   -6.6871  -14.4508 N   0  0  0  0  0  0  0  0  0  0  0  0
   22.0809   -5.7822  -13.3186 C   0  0  0  0  0  0  0  0  0  0  0  0
   21.4277   -4.5059  -13.6445 C   0  0  0  0  0  0  0  0  0  0  0  0
   22.0322   -3.4358  -13.4739 O   0  0  0  0  0  0  0  0  0  0  0  0
   20.1480   -4.5011  -14.1377 O   0  0  0  0  0  0  0  0  0  0  0  0
  2  1  1  1
  3  2  1  0
  4  3  1  0
  5  4  2  0
  6  5  1  0
  7  6  1  0
  7  8  2  0
  8  4  1  0
  9  2  1  0
 10  9  2  0
 11  9  1  0
 12 11  1  0
 13 12  1  0
 14 13  2  0
 15 13  1  0
 16 15  1  0
 17 16  1  0
 17 19  1  0
 18 17  2  0
M  END
$$$$
