HGG.pdb
     RDKit          3D

 19 19  0  0  1  0  0  0  0  0999 V2000
   24.8732  -18.2468  -17.5108 N   0  0  0  0  0  0  0  0  0  0  0  0
   25.6191  -18.1611  -16.2624 C   0  0  1  0  0  0  0  0  0  0  0  0
   26.1668  -16.7589  -16.1735 C   0  0  0  0  0  0  0  0  0  0  0  0
   27.0969  -16.4645  -17.2824 C   0  0  0  0  0  0  0  0  0  0  0  0
   28.1843  -17.2449  -17.6608 C   0  0  0  0  0  0  0  0  0  0  0  0
   28.7847  -16.6638  -18.6958 N   0  0  0  0  0  0  0  0  0  0  0  0
   28.1149  -15.5420  -18.9860 C   0  0  0  0  0  0  0  0  0  0  0  0
   27.0945  -15.4081  -18.1424 N   0  0  0  0  0  0  0  0  0  0  0  0
   24.6529  -18.4562  -15.1726 C   0  0  0  0  0  0  0  0  0  0  0  0
   23.8966  -17.5363  -14.7921 O   0  0  0  0  0  0  0  0  0  0  0  0
   24.5451  -19.7279  -14.5425 N   0  0  0  0  0  0  0  0  0  0  0  0
   23.7838  -19.9871  -13.3668 C   0  0  0  0  0  0  0  0  0  0  0  0
   23.8892  -21.4253  -12.9303 C   0  0  0  0  0  0  0  0  0  0  0  0
   23.2957  -21.8372  -11.9006 O   0  0  0  0  0  0  0  0  0  0  0  0
   24.6630  -22.3592  -13.6702 N   0  0  0  0  0  0  0  0  0  0  0  0
   24.5634  -23.7932  -13.4790 C   0  0  0  0  0  0  0  0  0  0  0  0
   23.7827  -24.4497  -14.5379 C   0  0  0  0  0  0  0  0  0  0  0  0
   23.1781  -23.7672  -15.3797 O   0  0  0  0  0  0  0  0  0  0  0  0
   23.7243  -25.8188  -14.5931 O   0  0  0  0  0  0  0  0  0  0  0  0
  2  1  1  6
  3  2  1  0
  4  3  1  0
  5  4  2  0
  6  5  1  0
  7  6  1  0
  7  8  2  0
  8  4  1  0
  9  2  1  0
 10  9  2  0
 11  9  1  0
 12 11  1  0
 13 12  1  0
 14 13  2  0
 15 13  1  0
 16 15  1  0
 17 16  1  0
 17 19  1  0
 18 17  2  0
M  END
$$$$
