HGG.pdb
     RDKit          3D

 19 19  0  0  1  0  0  0  0  0999 V2000
   20.6171  -12.1479  -17.2462 N   0  0  0  0  0  0  0  0  0  0  0  0
   20.7051  -10.6939  -17.2632 C   0  0  1  0  0  0  0  0  0  0  0  0
   20.2735  -10.2439  -18.6363 C   0  0  0  0  0  0  0  0  0  0  0  0
   21.1120  -10.8411  -19.6954 C   0  0  0  0  0  0  0  0  0  0  0  0
   22.4275  -10.4937  -19.9840 C   0  0  0  0  0  0  0  0  0  0  0  0
   22.8521  -11.2428  -20.9979 N   0  0  0  0  0  0  0  0  0  0  0  0
   21.8506  -12.0527  -21.3615 C   0  0  0  0  0  0  0  0  0  0  0  0
   20.7945  -11.8223  -20.5853 N   0  0  0  0  0  0  0  0  0  0  0  0
   19.7912  -10.2035  -16.1990 C   0  0  0  0  0  0  0  0  0  0  0  0
   18.7641  -10.8720  -15.9518 O   0  0  0  0  0  0  0  0  0  0  0  0
   20.0250   -9.0161  -15.4498 N   0  0  0  0  0  0  0  0  0  0  0  0
   19.1590   -8.5148  -14.4359 C   0  0  0  0  0  0  0  0  0  0  0  0
   19.6242   -7.1852  -13.9013 C   0  0  0  0  0  0  0  0  0  0  0  0
   18.9590   -6.5653  -13.0322 O   0  0  0  0  0  0  0  0  0  0  0  0
   20.8295   -6.5923  -14.3640 N   0  0  0  0  0  0  0  0  0  0  0  0
   21.3272   -5.3248  -13.8653 C   0  0  0  0  0  0  0  0  0  0  0  0
   22.5307   -4.8724  -14.5785 C   0  0  0  0  0  0  0  0  0  0  0  0
   23.0744   -5.6120  -15.4135 O   0  0  0  0  0  0  0  0  0  0  0  0
   23.0512   -3.6305  -14.3186 O   0  0  0  0  0  0  0  0  0  0  0  0
  2  1  1  6
  3  2  1  0
  4  3  1  0
  5  4  2  0
  6  5  1  0
  7  6  1  0
  7  8  2  0
  8  4  1  0
  9  2  1  0
 10  9  2  0
 11  9  1  0
 12 11  1  0
 13 12  1  0
 14 13  2  0
 15 13  1  0
 16 15  1  0
 17 16  1  0
 17 19  1  0
 18 17  2  0
M  END
$$$$
