HGG.pdb
     RDKit          3D

 19 19  0  0  1  0  0  0  0  0999 V2000
   21.0298  -12.3612  -17.7826 N   0  0  0  0  0  0  0  0  0  0  0  0
   22.4200  -11.9398  -17.6737 C   0  0  1  0  0  0  0  0  0  0  0  0
   23.0163  -12.0317  -19.0558 C   0  0  0  0  0  0  0  0  0  0  0  0
   22.9378  -13.4049  -19.5942 C   0  0  0  0  0  0  0  0  0  0  0  0
   22.6779  -14.5545  -18.8556 C   0  0  0  0  0  0  0  0  0  0  0  0
   22.6858  -15.5992  -19.6789 N   0  0  0  0  0  0  0  0  0  0  0  0
   22.9418  -15.1508  -20.9137 C   0  0  0  0  0  0  0  0  0  0  0  0
   23.0962  -13.8296  -20.8787 N   0  0  0  0  0  0  0  0  0  0  0  0
   22.3991  -10.5443  -17.1635 C   0  0  0  0  0  0  0  0  0  0  0  0
   21.5851   -9.7438  -17.6732 O   0  0  0  0  0  0  0  0  0  0  0  0
   23.2552  -10.0745  -16.1280 N   0  0  0  0  0  0  0  0  0  0  0  0
   23.3105   -8.7258  -15.6725 C   0  0  0  0  0  0  0  0  0  0  0  0
   22.1005   -8.3548  -14.8553 C   0  0  0  0  0  0  0  0  0  0  0  0
   21.8638   -8.9137  -13.7536 O   0  0  0  0  0  0  0  0  0  0  0  0
   21.1904   -7.3613  -15.3059 N   0  0  0  0  0  0  0  0  0  0  0  0
   19.9871   -7.0058  -14.5788 C   0  0  0  0  0  0  0  0  0  0  0  0
   19.2321   -5.9267  -15.2325 C   0  0  0  0  0  0  0  0  0  0  0  0
   19.6452   -5.4318  -16.2928 O   0  0  0  0  0  0  0  0  0  0  0  0
   18.0696   -5.4684  -14.6675 O   0  0  0  0  0  0  0  0  0  0  0  0
  2  1  1  6
  3  2  1  0
  4  3  1  0
  5  4  2  0
  6  5  1  0
  7  6  1  0
  7  8  2  0
  8  4  1  0
  9  2  1  0
 10  9  2  0
 11  9  1  0
 12 11  1  0
 13 12  1  0
 14 13  2  0
 15 13  1  0
 16 15  1  0
 17 16  1  0
 17 19  1  0
 18 17  2  0
M  END
$$$$
