HGG.pdb
     RDKit          3D

 19 19  0  0  1  0  0  0  0  0999 V2000
   17.9236  -12.4291  -17.9134 N   0  0  0  0  0  0  0  0  0  0  0  0
   19.3476  -12.3164  -17.6276 C   0  0  1  0  0  0  0  0  0  0  0  0
   20.0192  -13.5056  -18.2672 C   0  0  0  0  0  0  0  0  0  0  0  0
   19.5006  -14.7800  -17.7299 C   0  0  0  0  0  0  0  0  0  0  0  0
   19.5554  -15.1844  -16.4002 C   0  0  0  0  0  0  0  0  0  0  0  0
   18.9909  -16.3844  -16.2975 N   0  0  0  0  0  0  0  0  0  0  0  0
   18.5804  -16.7541  -17.5165 C   0  0  0  0  0  0  0  0  0  0  0  0
   18.8807  -15.7970  -18.3909 N   0  0  0  0  0  0  0  0  0  0  0  0
   19.7969  -11.0312  -18.2229 C   0  0  0  0  0  0  0  0  0  0  0  0
   19.8455  -10.9453  -19.4692 O   0  0  0  0  0  0  0  0  0  0  0  0
   20.1732   -9.8972  -17.4493 N   0  0  0  0  0  0  0  0  0  0  0  0
   20.5671   -8.6408  -17.9927 C   0  0  0  0  0  0  0  0  0  0  0  0
   20.8778   -7.6319  -16.9178 C   0  0  0  0  0  0  0  0  0  0  0  0
   21.3344   -6.4957  -17.2050 O   0  0  0  0  0  0  0  0  0  0  0  0
   20.6639   -7.9353  -15.5464 N   0  0  0  0  0  0  0  0  0  0  0  0
   21.0115   -7.0238  -14.4734 C   0  0  0  0  0  0  0  0  0  0  0  0
   20.9877   -7.6720  -13.1539 C   0  0  0  0  0  0  0  0  0  0  0  0
   20.8105   -8.8970  -13.0652 O   0  0  0  0  0  0  0  0  0  0  0  0
   21.1618   -6.9192  -12.0209 O   0  0  0  0  0  0  0  0  0  0  0  0
  2  1  1  6
  3  2  1  0
  4  3  1  0
  5  4  2  0
  6  5  1  0
  7  6  1  0
  7  8  2  0
  8  4  1  0
  9  2  1  0
 10  9  2  0
 11  9  1  0
 12 11  1  0
 13 12  1  0
 14 13  2  0
 15 13  1  0
 16 15  1  0
 17 16  1  0
 17 19  1  0
 18 17  2  0
M  END
$$$$
