HGG.pdb
     RDKit          3D

 19 19  0  0  1  0  0  0  0  0999 V2000
   23.0060  -15.8079  -18.7234 N   0  0  0  0  0  0  0  0  0  0  0  0
   23.9477  -15.4660  -17.6659 C   0  0  1  0  0  0  0  0  0  0  0  0
   23.5713  -14.0924  -17.1700 C   0  0  0  0  0  0  0  0  0  0  0  0
   23.6370  -13.0854  -18.2485 C   0  0  0  0  0  0  0  0  0  0  0  0
   24.7203  -12.8681  -19.0934 C   0  0  0  0  0  0  0  0  0  0  0  0
   24.4127  -11.8843  -19.9341 N   0  0  0  0  0  0  0  0  0  0  0  0
   23.1718  -11.4708  -19.6507 C   0  0  0  0  0  0  0  0  0  0  0  0
   22.6908  -12.1856  -18.6365 N   0  0  0  0  0  0  0  0  0  0  0  0
   23.7950  -16.5037  -16.6133 C   0  0  0  0  0  0  0  0  0  0  0  0
   24.4534  -16.3731  -15.5586 O   0  0  0  0  0  0  0  0  0  0  0  0
   22.9406  -17.6345  -16.7444 N   0  0  0  0  0  0  0  0  0  0  0  0
   22.8086  -18.6668  -15.7717 C   0  0  0  0  0  0  0  0  0  0  0  0
   21.5839  -18.4824  -14.9138 C   0  0  0  0  0  0  0  0  0  0  0  0
   21.2962  -17.3600  -14.4242 O   0  0  0  0  0  0  0  0  0  0  0  0
   20.7173  -19.5724  -14.6325 N   0  0  0  0  0  0  0  0  0  0  0  0
   19.4594  -19.4185  -13.9274 C   0  0  0  0  0  0  0  0  0  0  0  0
   19.0325  -20.6572  -13.2603 C   0  0  0  0  0  0  0  0  0  0  0  0
   19.7696  -21.6554  -13.2700 O   0  0  0  0  0  0  0  0  0  0  0  0
   17.8170  -20.7068  -12.6271 O   0  0  0  0  0  0  0  0  0  0  0  0
  2  1  1  6
  3  2  1  0
  4  3  1  0
  5  4  2  0
  6  5  1  0
  7  6  1  0
  7  8  2  0
  8  4  1  0
  9  2  1  0
 10  9  2  0
 11  9  1  0
 12 11  1  0
 13 12  1  0
 14 13  2  0
 15 13  1  0
 16 15  1  0
 17 16  1  0
 17 19  1  0
 18 17  2  0
M  END
$$$$
