HGG.pdb
     RDKit          3D

 19 19  0  0  1  0  0  0  0  0999 V2000
   22.1730  -10.8370  -15.5245 N   0  0  0  0  0  0  0  0  0  0  0  0
   21.2638   -9.7188  -15.7370 C   0  0  1  0  0  0  0  0  0  0  0  0
   19.8637  -10.2533  -15.5692 C   0  0  0  0  0  0  0  0  0  0  0  0
   19.5678  -11.3245  -16.5421 C   0  0  0  0  0  0  0  0  0  0  0  0
   19.7800  -11.2576  -17.9151 C   0  0  0  0  0  0  0  0  0  0  0  0
   19.3949  -12.4078  -18.4611 N   0  0  0  0  0  0  0  0  0  0  0  0
   18.9461  -13.2011  -17.4810 C   0  0  0  0  0  0  0  0  0  0  0  0
   19.0440  -12.5618  -16.3180 N   0  0  0  0  0  0  0  0  0  0  0  0
   21.6018   -8.6992  -14.7101 C   0  0  0  0  0  0  0  0  0  0  0  0
   21.7706   -9.0839  -13.5326 O   0  0  0  0  0  0  0  0  0  0  0  0
   21.7426   -7.3124  -14.9979 N   0  0  0  0  0  0  0  0  0  0  0  0
   22.0736   -6.3153  -14.0359 C   0  0  0  0  0  0  0  0  0  0  0  0
   22.2266   -4.9537  -14.6623 C   0  0  0  0  0  0  0  0  0  0  0  0
   22.1979   -4.8057  -15.9110 O   0  0  0  0  0  0  0  0  0  0  0  0
   22.4081   -3.7956  -13.8595 N   0  0  0  0  0  0  0  0  0  0  0  0
   22.5159   -2.4602  -14.4143 C   0  0  0  0  0  0  0  0  0  0  0  0
   21.2107   -1.9034  -14.7995 C   0  0  0  0  0  0  0  0  0  0  0  0
   20.1731   -2.5545  -14.6013 O   0  0  0  0  0  0  0  0  0  0  0  0
   21.1428   -0.6621  -15.3787 O   0  0  0  0  0  0  0  0  0  0  0  0
  2  1  1  1
  3  2  1  0
  4  3  1  0
  5  4  2  0
  6  5  1  0
  7  6  1  0
  7  8  2  0
  8  4  1  0
  9  2  1  0
 10  9  2  0
 11  9  1  0
 12 11  1  0
 13 12  1  0
 14 13  2  0
 15 13  1  0
 16 15  1  0
 17 16  1  0
 17 19  1  0
 18 17  2  0
M  END
$$$$
