HGG.pdb
     RDKit          3D

 19 19  0  0  1  0  0  0  0  0999 V2000
   18.7674   -9.8209  -17.0459 N   0  0  0  0  0  0  0  0  0  0  0  0
   19.3470  -10.0871  -15.7361 C   0  0  1  0  0  0  0  0  0  0  0  0
   19.4602  -11.5849  -15.6023 C   0  0  0  0  0  0  0  0  0  0  0  0
   18.1348  -12.2365  -15.6188 C   0  0  0  0  0  0  0  0  0  0  0  0
   16.9070  -11.5828  -15.6195 C   0  0  0  0  0  0  0  0  0  0  0  0
   15.9397  -12.4956  -15.6366 N   0  0  0  0  0  0  0  0  0  0  0  0
   16.5125  -13.7052  -15.6469 C   0  0  0  0  0  0  0  0  0  0  0  0
   17.8358  -13.5653  -15.6364 N   0  0  0  0  0  0  0  0  0  0  0  0
   20.6749   -9.4204  -15.7189 C   0  0  0  0  0  0  0  0  0  0  0  0
   21.3264   -9.3797  -16.7851 O   0  0  0  0  0  0  0  0  0  0  0  0
   21.2404   -8.8280  -14.5548 N   0  0  0  0  0  0  0  0  0  0  0  0
   22.5110   -8.1856  -14.5089 C   0  0  0  0  0  0  0  0  0  0  0  0
   22.3970   -6.6935  -14.6831 C   0  0  0  0  0  0  0  0  0  0  0  0
   23.3761   -5.9362  -14.4594 O   0  0  0  0  0  0  0  0  0  0  0  0
   21.1785   -6.0976  -15.1056 N   0  0  0  0  0  0  0  0  0  0  0  0
   21.0593   -4.6885  -15.4271 C   0  0  0  0  0  0  0  0  0  0  0  0
   20.9006   -3.8493  -14.2303 C   0  0  0  0  0  0  0  0  0  0  0  0
   20.4512   -4.3383  -13.1821 O   0  0  0  0  0  0  0  0  0  0  0  0
   21.2504   -2.5240  -14.2754 O   0  0  0  0  0  0  0  0  0  0  0  0
  2  1  1  6
  3  2  1  0
  4  3  1  0
  5  4  2  0
  6  5  1  0
  7  6  1  0
  7  8  2  0
  8  4  1  0
  9  2  1  0
 10  9  2  0
 11  9  1  0
 12 11  1  0
 13 12  1  0
 14 13  2  0
 15 13  1  0
 16 15  1  0
 17 16  1  0
 17 19  1  0
 18 17  2  0
M  END
$$$$
