HGG.pdb
     RDKit          3D

 19 19  0  0  1  0  0  0  0  0999 V2000
   25.0834  -20.8284  -10.4316 N   0  0  0  0  0  0  0  0  0  0  0  0
   26.3680  -20.4766  -11.0217 C   0  0  1  0  0  0  0  0  0  0  0  0
   27.4294  -21.1830  -10.2163 C   0  0  0  0  0  0  0  0  0  0  0  0
   27.5218  -20.6452   -8.8438 C   0  0  0  0  0  0  0  0  0  0  0  0
   26.6838  -19.6837   -8.2888 C   0  0  0  0  0  0  0  0  0  0  0  0
   27.0724  -19.4524   -7.0379 N   0  0  0  0  0  0  0  0  0  0  0  0
   28.1279  -20.2343   -6.7815 C   0  0  0  0  0  0  0  0  0  0  0  0
   28.4108  -20.9594   -7.8607 N   0  0  0  0  0  0  0  0  0  0  0  0
   26.3276  -20.9464  -12.4309 C   0  0  0  0  0  0  0  0  0  0  0  0
   25.4591  -21.7889  -12.7454 O   0  0  0  0  0  0  0  0  0  0  0  0
   27.2241  -20.4877  -13.4369 N   0  0  0  0  0  0  0  0  0  0  0  0
   26.9770  -19.3798  -14.2976 C   0  0  0  0  0  0  0  0  0  0  0  0
   25.6431  -19.4876  -14.9896 C   0  0  0  0  0  0  0  0  0  0  0  0
   25.5680  -19.7032  -16.2265 O   0  0  0  0  0  0  0  0  0  0  0  0
   24.4295  -19.3487  -14.2640 N   0  0  0  0  0  0  0  0  0  0  0  0
   23.1307  -19.2792  -14.9052 C   0  0  0  0  0  0  0  0  0  0  0  0
   22.3920  -20.5476  -14.8201 C   0  0  0  0  0  0  0  0  0  0  0  0
   23.0045  -21.6154  -14.6632 O   0  0  0  0  0  0  0  0  0  0  0  0
   21.0238  -20.5478  -14.9145 O   0  0  0  0  0  0  0  0  0  0  0  0
  2  1  1  1
  3  2  1  0
  4  3  1  0
  5  4  2  0
  6  5  1  0
  7  6  1  0
  7  8  2  0
  8  4  1  0
  9  2  1  0
 10  9  2  0
 11  9  1  0
 12 11  1  0
 13 12  1  0
 14 13  2  0
 15 13  1  0
 16 15  1  0
 17 16  1  0
 17 19  1  0
 18 17  2  0
M  END
$$$$
