LVM.pdb
     RDKit          3D

 24 23  0  0  1  0  0  0  0  0999 V2000
   17.6956  -13.8182  -20.6740 C   0  0  0  0  0  0  0  0  0  0  0  0
   18.8095  -14.3616  -19.8040 C   0  0  1  0  0  0  0  0  0  0  0  0
   20.0570  -14.5916  -20.6526 C   0  0  0  0  0  0  0  0  0  0  0  0
   19.0917  -13.4792  -18.6493 C   0  0  0  0  0  0  0  0  0  0  0  0
   20.2288  -13.9618  -17.7863 C   0  0  2  0  0  0  0  0  0  0  0  0
   19.7085  -15.1702  -17.0833 N   0  0  0  0  0  0  0  0  0  0  0  0
   20.5728  -12.9868  -16.6951 C   0  0  0  0  0  0  0  0  0  0  0  0
   19.7516  -12.8125  -15.7478 O   0  0  0  0  0  0  0  0  0  0  0  0
   24.6267  -11.5841  -15.7594 C   0  0  0  0  0  0  0  0  0  0  0  0
   23.3774  -11.6001  -14.9537 C   0  0  2  0  0  0  0  0  0  0  0  0
   23.2444  -13.0039  -14.3437 C   0  0  0  0  0  0  0  0  0  0  0  0
   22.1228  -11.3097  -15.6678 C   0  0  2  0  0  0  0  0  0  0  0  0
   21.7891  -12.2597  -16.6939 N   0  0  0  0  0  0  0  0  0  0  0  0
   21.8867   -9.9191  -16.0868 C   0  0  0  0  0  0  0  0  0  0  0  0
   22.4475   -9.4961  -17.1171 O   0  0  0  0  0  0  0  0  0  0  0  0
   16.4615   -5.9468  -15.8743 C   0  0  0  0  0  0  0  0  0  0  0  0
   17.5326   -5.9512  -17.3597 S   0  0  0  0  0  0  0  0  0  0  0  0
   19.2519   -6.0752  -16.7622 C   0  0  0  0  0  0  0  0  0  0  0  0
   19.4861   -7.5013  -16.3425 C   0  0  0  0  0  0  0  0  0  0  0  0
   20.8653   -7.6379  -15.7602 C   0  0  2  0  0  0  0  0  0  0  0  0
   21.0506   -9.0362  -15.3735 N   0  0  0  0  0  0  0  0  0  0  0  0
   21.1178   -6.7371  -14.6294 C   0  0  0  0  0  0  0  0  0  0  0  0
   21.0845   -7.1698  -13.4538 O   0  0  0  0  0  0  0  0  0  0  0  0
   21.3920   -5.4118  -14.8645 O   0  0  0  0  0  0  0  0  0  0  0  0
  2  1  1  6
  3  2  1  0
  4  2  1  0
  4  5  1  0
  5  6  1  1
  5  7  1  0
  7  8  2  0
 10  9  1  6
 10 11  1  0
 12 10  1  0
 13  7  1  0
 12 13  1  6
 14 12  1  0
 14 15  2  0
 16 17  1  0
 17 18  1  0
 18 19  1  0
 20 19  1  1
 20 21  1  0
 21 14  1  0
 22 24  1  0
 22 20  1  0
 23 22  2  0
M  END
$$$$
