LVM.pdb
     RDKit          3D

 24 23  0  0  1  0  0  0  0  0999 V2000
   12.2579  -25.4843  -12.0383 C   0  0  0  0  0  0  0  0  0  0  0  0
   13.5860  -24.7650  -11.9300 C   0  0  1  0  0  0  0  0  0  0  0  0
   13.3587  -23.3412  -11.4298 C   0  0  0  0  0  0  0  0  0  0  0  0
   14.5445  -25.4970  -11.0714 C   0  0  0  0  0  0  0  0  0  0  0  0
   15.8521  -24.7739  -10.8762 C   0  0  2  0  0  0  0  0  0  0  0  0
   16.6462  -25.0498  -12.1084 N   0  0  0  0  0  0  0  0  0  0  0  0
   16.6609  -25.3489   -9.7472 C   0  0  0  0  0  0  0  0  0  0  0  0
   17.2276  -26.4693   -9.9079 O   0  0  0  0  0  0  0  0  0  0  0  0
   18.8047  -23.1070   -6.6866 C   0  0  0  0  0  0  0  0  0  0  0  0
   18.8833  -24.4909   -7.2241 C   0  0  2  0  0  0  0  0  0  0  0  0
   19.5944  -24.4138   -8.5837 C   0  0  0  0  0  0  0  0  0  0  0  0
   17.6074  -25.1953   -7.4339 C   0  0  2  0  0  0  0  0  0  0  0  0
   16.8101  -24.6735   -8.5104 N   0  0  0  0  0  0  0  0  0  0  0  0
   16.8064  -25.5180   -6.2425 C   0  0  0  0  0  0  0  0  0  0  0  0
   15.7051  -24.9547   -6.0855 O   0  0  0  0  0  0  0  0  0  0  0  0
   19.0274  -29.3263   -1.6292 C   0  0  0  0  0  0  0  0  0  0  0  0
   18.2663  -28.0510   -0.5577 S   0  0  0  0  0  0  0  0  0  0  0  0
   17.0813  -27.1348   -1.5991 C   0  0  0  0  0  0  0  0  0  0  0  0
   17.6486  -27.0781   -2.9919 C   0  0  0  0  0  0  0  0  0  0  0  0
   16.6220  -26.5141   -3.9343 C   0  0  2  0  0  0  0  0  0  0  0  0
   17.2283  -26.4403   -5.2633 N   0  0  0  0  0  0  0  0  0  0  0  0
   16.0963  -25.2086   -3.5180 C   0  0  0  0  0  0  0  0  0  0  0  0
   14.9537  -25.1172   -3.0111 O   0  0  0  0  0  0  0  0  0  0  0  0
   16.8636  -24.0819   -3.6863 O   0  0  0  0  0  0  0  0  0  0  0  0
  2  1  1  1
  3  2  1  0
  4  2  1  0
  4  5  1  0
  5  6  1  6
  5  7  1  0
  7  8  2  0
 10  9  1  6
 10 11  1  0
 12 10  1  0
 13  7  1  0
 12 13  1  6
 14 12  1  0
 14 15  2  0
 16 17  1  0
 17 18  1  0
 18 19  1  0
 20 19  1  1
 20 21  1  0
 21 14  1  0
 22 24  1  0
 22 20  1  0
 23 22  2  0
M  END
$$$$
