LVM.pdb
     RDKit          3D

 24 23  0  0  1  0  0  0  0  0999 V2000
   11.3188  -11.1518   -8.9525 C   0  0  0  0  0  0  0  0  0  0  0  0
   11.5724  -10.1382  -10.0485 C   0  0  1  0  0  0  0  0  0  0  0  0
   12.3120   -8.9341   -9.4721 C   0  0  0  0  0  0  0  0  0  0  0  0
   12.3031  -10.7296  -11.1922 C   0  0  0  0  0  0  0  0  0  0  0  0
   12.5839   -9.7475  -12.3001 C   0  0  2  0  0  0  0  0  0  0  0  0
   11.2531   -9.4253  -12.8920 N   0  0  0  0  0  0  0  0  0  0  0  0
   13.3773  -10.3601  -13.4202 C   0  0  0  0  0  0  0  0  0  0  0  0
   12.7976  -11.1508  -14.2207 O   0  0  0  0  0  0  0  0  0  0  0  0
   16.1892   -8.2830  -15.6792 C   0  0  0  0  0  0  0  0  0  0  0  0
   15.4832   -9.5744  -15.8888 C   0  0  2  0  0  0  0  0  0  0  0  0
   14.0171   -9.2472  -16.2113 C   0  0  0  0  0  0  0  0  0  0  0  0
   15.4851  -10.5228  -14.7625 C   0  0  2  0  0  0  0  0  0  0  0  0
   14.7530  -10.0768  -13.6083 N   0  0  0  0  0  0  0  0  0  0  0  0
   16.7663  -11.1546  -14.4094 C   0  0  0  0  0  0  0  0  0  0  0  0
   17.4620  -10.6452  -13.5087 O   0  0  0  0  0  0  0  0  0  0  0  0
   19.1300  -16.7770  -12.0114 C   0  0  0  0  0  0  0  0  0  0  0  0
   19.5902  -16.6451  -13.7791 S   0  0  0  0  0  0  0  0  0  0  0  0
   19.8092  -14.8681  -14.1294 C   0  0  0  0  0  0  0  0  0  0  0  0
   18.4650  -14.3111  -14.5140 C   0  0  0  0  0  0  0  0  0  0  0  0
   18.5924  -12.8440  -14.8160 C   0  0  2  0  0  0  0  0  0  0  0  0
   17.2476  -12.3167  -15.0459 N   0  0  0  0  0  0  0  0  0  0  0  0
   19.4776  -12.5518  -15.9495 C   0  0  0  0  0  0  0  0  0  0  0  0
   19.1010  -12.7778  -17.1233 O   0  0  0  0  0  0  0  0  0  0  0  0
   20.7260  -12.0273  -15.7192 O   0  0  0  0  0  0  0  0  0  0  0  0
  2  1  1  1
  3  2  1  0
  4  2  1  0
  4  5  1  0
  5  6  1  6
  5  7  1  0
  7  8  2  0
 10  9  1  1
 10 11  1  0
 12 10  1  0
 13  7  1  0
 12 13  1  1
 14 12  1  0
 14 15  2  0
 16 17  1  0
 17 18  1  0
 18 19  1  0
 20 19  1  6
 20 21  1  0
 21 14  1  0
 22 24  1  0
 22 20  1  0
 23 22  2  0
M  END
$$$$
