LVM.pdb
     RDKit          3D

 24 23  0  0  1  0  0  0  0  0999 V2000
   21.5078  -20.9428  -17.0919 C   0  0  0  0  0  0  0  0  0  0  0  0
   22.2358  -20.0382  -16.1200 C   0  0  1  0  0  0  0  0  0  0  0  0
   21.2932  -18.9387  -15.6385 C   0  0  0  0  0  0  0  0  0  0  0  0
   22.8144  -20.7942  -14.9862 C   0  0  0  0  0  0  0  0  0  0  0  0
   23.5069  -19.9215  -13.9714 C   0  0  2  0  0  0  0  0  0  0  0  0
   24.3435  -18.9759  -14.7657 N   0  0  0  0  0  0  0  0  0  0  0  0
   24.4788  -20.6922  -13.1223 C   0  0  0  0  0  0  0  0  0  0  0  0
   24.0715  -21.7176  -12.5020 O   0  0  0  0  0  0  0  0  0  0  0  0
   29.1010  -21.7915  -11.7444 C   0  0  0  0  0  0  0  0  0  0  0  0
   28.1362  -21.0330  -12.5833 C   0  0  2  0  0  0  0  0  0  0  0  0
   28.6602  -19.5931  -12.6948 C   0  0  0  0  0  0  0  0  0  0  0  0
   26.7480  -20.9599  -12.0976 C   0  0  2  0  0  0  0  0  0  0  0  0
   25.8368  -20.3069  -12.9977 N   0  0  0  0  0  0  0  0  0  0  0  0
   26.5393  -20.5634  -10.6961 C   0  0  0  0  0  0  0  0  0  0  0  0
   26.3475  -19.3599  -10.4319 O   0  0  0  0  0  0  0  0  0  0  0  0
   28.8937  -20.5024   -4.8396 C   0  0  0  0  0  0  0  0  0  0  0  0
   28.4913  -19.0353   -5.8591 S   0  0  0  0  0  0  0  0  0  0  0  0
   26.8481  -19.3431   -6.5895 C   0  0  0  0  0  0  0  0  0  0  0  0
   27.0588  -19.7985   -8.0084 C   0  0  0  0  0  0  0  0  0  0  0  0
   26.3240  -21.0893   -8.2403 C   0  0  2  0  0  0  0  0  0  0  0  0
   26.5460  -21.4862   -9.6304 N   0  0  0  0  0  0  0  0  0  0  0  0
   24.8910  -21.0134   -7.9329 C   0  0  0  0  0  0  0  0  0  0  0  0
   24.0697  -20.6729   -8.8162 O   0  0  0  0  0  0  0  0  0  0  0  0
   24.4502  -21.3182   -6.6681 O   0  0  0  0  0  0  0  0  0  0  0  0
  2  1  1  6
  3  2  1  0
  4  2  1  0
  4  5  1  0
  5  6  1  6
  5  7  1  0
  7  8  2  0
 10  9  1  1
 10 11  1  0
 12 10  1  0
 13  7  1  0
 12 13  1  6
 14 12  1  0
 14 15  2  0
 16 17  1  0
 17 18  1  0
 18 19  1  0
 20 19  1  6
 20 21  1  0
 21 14  1  0
 22 24  1  0
 22 20  1  0
 23 22  2  0
M  END
$$$$
