LVM.pdb
     RDKit          3D

 24 23  0  0  1  0  0  0  0  0999 V2000
   23.4833  -17.6740  -18.2138 C   0  0  0  0  0  0  0  0  0  0  0  0
   23.4108  -16.2928  -18.8302 C   0  0  1  0  0  0  0  0  0  0  0  0
   22.2053  -16.2100  -19.7624 C   0  0  0  0  0  0  0  0  0  0  0  0
   23.3781  -15.2280  -17.8021 C   0  0  0  0  0  0  0  0  0  0  0  0
   23.2562  -13.8402  -18.3763 C   0  0  2  0  0  0  0  0  0  0  0  0
   24.4685  -13.6538  -19.2252 N   0  0  0  0  0  0  0  0  0  0  0  0
   23.3451  -12.7742  -17.3202 C   0  0  0  0  0  0  0  0  0  0  0  0
   22.5249  -12.7965  -16.3565 O   0  0  0  0  0  0  0  0  0  0  0  0
   26.5473   -9.5705  -17.0234 C   0  0  0  0  0  0  0  0  0  0  0  0
   25.7210  -10.2746  -16.0077 C   0  0  2  0  0  0  0  0  0  0  0  0
   26.4750  -11.5530  -15.6110 C   0  0  0  0  0  0  0  0  0  0  0  0
   24.3635  -10.6727  -16.4160 C   0  0  2  0  0  0  0  0  0  0  0  0
   24.3207  -11.7476  -17.3698 N   0  0  0  0  0  0  0  0  0  0  0  0
   23.4073   -9.5996  -16.7309 C   0  0  0  0  0  0  0  0  0  0  0  0
   23.3524   -9.1639  -17.8980 O   0  0  0  0  0  0  0  0  0  0  0  0
   16.3962   -7.1584  -17.3148 C   0  0  0  0  0  0  0  0  0  0  0  0
   17.6155   -8.4446  -16.8535 S   0  0  0  0  0  0  0  0  0  0  0  0
   19.2130   -7.5922  -16.6305 C   0  0  0  0  0  0  0  0  0  0  0  0
   20.2559   -8.6432  -16.3613 C   0  0  0  0  0  0  0  0  0  0  0  0
   21.5803   -7.9851  -16.0911 C   0  0  2  0  0  0  0  0  0  0  0  0
   22.5443   -9.0367  -15.7687 N   0  0  0  0  0  0  0  0  0  0  0  0
   21.5274   -6.9711  -15.0314 C   0  0  0  0  0  0  0  0  0  0  0  0
   20.9324   -5.8847  -15.2220 O   0  0  0  0  0  0  0  0  0  0  0  0
   22.1349   -7.2173  -13.8243 O   0  0  0  0  0  0  0  0  0  0  0  0
  2  1  1  1
  3  2  1  0
  4  2  1  0
  4  5  1  0
  5  6  1  6
  5  7  1  0
  7  8  2  0
 10  9  1  6
 10 11  1  0
 12 10  1  0
 13  7  1  0
 12 13  1  6
 14 12  1  0
 14 15  2  0
 16 17  1  0
 17 18  1  0
 18 19  1  0
 20 19  1  1
 20 21  1  0
 21 14  1  0
 22 24  1  0
 22 20  1  0
 23 22  2  0
M  END
$$$$
