LVM.pdb
     RDKit          3D

 24 23  0  0  1  0  0  0  0  0999 V2000
   26.7003  -15.4668  -17.2424 C   0  0  0  0  0  0  0  0  0  0  0  0
   27.4931  -16.6287  -16.6818 C   0  0  1  0  0  0  0  0  0  0  0  0
   28.3143  -16.1587  -15.4843 C   0  0  0  0  0  0  0  0  0  0  0  0
   26.6240  -17.7744  -16.3298 C   0  0  0  0  0  0  0  0  0  0  0  0
   27.3476  -18.8782  -15.6029 C   0  0  2  0  0  0  0  0  0  0  0  0
   27.9595  -19.7220  -16.6700 N   0  0  0  0  0  0  0  0  0  0  0  0
   26.4071  -19.7913  -14.8672 C   0  0  0  0  0  0  0  0  0  0  0  0
   25.6663  -20.5729  -15.5323 O   0  0  0  0  0  0  0  0  0  0  0  0
   24.9206  -21.8868  -10.6011 C   0  0  0  0  0  0  0  0  0  0  0  0
   25.8540  -21.0490  -11.3993 C   0  0  2  0  0  0  0  0  0  0  0  0
   26.1253  -19.7704  -10.5919 C   0  0  0  0  0  0  0  0  0  0  0  0
   25.3975  -20.6364  -12.7370 C   0  0  2  0  0  0  0  0  0  0  0  0
   26.3272  -19.8052  -13.4524 N   0  0  0  0  0  0  0  0  0  0  0  0
   24.0078  -20.1703  -12.8661 C   0  0  0  0  0  0  0  0  0  0  0  0
   23.7969  -18.9857  -13.1934 O   0  0  0  0  0  0  0  0  0  0  0  0
   21.4645  -19.4664  -17.0532 C   0  0  0  0  0  0  0  0  0  0  0  0
   19.7686  -19.5845  -16.3722 S   0  0  0  0  0  0  0  0  0  0  0  0
   19.9445  -19.7872  -14.5677 C   0  0  0  0  0  0  0  0  0  0  0  0
   21.3686  -20.1881  -14.2915 C   0  0  0  0  0  0  0  0  0  0  0  0
   21.5178  -20.5615  -12.8429 C   0  0  2  0  0  0  0  0  0  0  0  0
   22.8958  -21.0056  -12.6356 N   0  0  0  0  0  0  0  0  0  0  0  0
   20.5596  -21.5797  -12.3966 C   0  0  0  0  0  0  0  0  0  0  0  0
   19.3623  -21.2752  -12.1858 O   0  0  0  0  0  0  0  0  0  0  0  0
   20.9808  -22.8737  -12.2098 O   0  0  0  0  0  0  0  0  0  0  0  0
  2  1  1  1
  3  2  1  0
  4  2  1  0
  4  5  1  0
  5  6  1  6
  5  7  1  0
  7  8  2  0
 10  9  1  1
 10 11  1  0
 12 10  1  0
 13  7  1  0
 12 13  1  1
 14 12  1  0
 14 15  2  0
 16 17  1  0
 17 18  1  0
 18 19  1  0
 20 19  1  6
 20 21  1  0
 21 14  1  0
 22 24  1  0
 22 20  1  0
 23 22  2  0
M  END
$$$$
