LVM.pdb
     RDKit          3D

 24 23  0  0  1  0  0  0  0  0999 V2000
   18.7941  -13.4954  -22.1020 C   0  0  0  0  0  0  0  0  0  0  0  0
   19.8968  -12.9960  -21.1923 C   0  0  1  0  0  0  0  0  0  0  0  0
   21.1818  -12.8153  -21.9957 C   0  0  0  0  0  0  0  0  0  0  0  0
   19.5143  -11.7502  -20.4899 C   0  0  0  0  0  0  0  0  0  0  0  0
   20.5949  -11.2109  -19.5886 C   0  0  2  0  0  0  0  0  0  0  0  0
   20.9069  -12.3166  -18.6372 N   0  0  0  0  0  0  0  0  0  0  0  0
   20.1107  -10.0756  -18.7307 C   0  0  0  0  0  0  0  0  0  0  0  0
   19.7023   -9.0160  -19.2898 O   0  0  0  0  0  0  0  0  0  0  0  0
   18.1254   -8.2985  -14.6558 C   0  0  0  0  0  0  0  0  0  0  0  0
   18.4914   -9.3265  -15.6655 C   0  0  2  0  0  0  0  0  0  0  0  0
   18.7338  -10.6427  -14.9111 C   0  0  0  0  0  0  0  0  0  0  0  0
   19.6880   -9.0597  -16.4812 C   0  0  2  0  0  0  0  0  0  0  0  0
   20.0951  -10.1571  -17.3160 N   0  0  0  0  0  0  0  0  0  0  0  0
   20.8255   -8.3992  -15.8218 C   0  0  0  0  0  0  0  0  0  0  0  0
   21.6434   -9.0957  -15.1889 O   0  0  0  0  0  0  0  0  0  0  0  0
   25.8813   -6.0048  -17.9013 C   0  0  0  0  0  0  0  0  0  0  0  0
   25.3141   -4.5076  -17.0122 S   0  0  0  0  0  0  0  0  0  0  0  0
   24.2271   -5.0823  -15.6643 C   0  0  0  0  0  0  0  0  0  0  0  0
   23.0669   -5.8062  -16.2927 C   0  0  0  0  0  0  0  0  0  0  0  0
   22.1698   -6.3542  -15.2180 C   0  0  2  0  0  0  0  0  0  0  0  0
   21.0357   -7.0061  -15.8721 N   0  0  0  0  0  0  0  0  0  0  0  0
   21.7174   -5.3413  -14.2571 C   0  0  0  0  0  0  0  0  0  0  0  0
   20.6728   -4.6835  -14.4732 O   0  0  0  0  0  0  0  0  0  0  0  0
   22.4456   -5.1153  -13.1145 O   0  0  0  0  0  0  0  0  0  0  0  0
  2  1  1  6
  3  2  1  0
  4  2  1  0
  4  5  1  0
  5  6  1  1
  5  7  1  0
  7  8  2  0
 10  9  1  1
 10 11  1  0
 12 10  1  0
 13  7  1  0
 12 13  1  1
 14 12  1  0
 14 15  2  0
 16 17  1  0
 17 18  1  0
 18 19  1  0
 20 19  1  6
 20 21  1  0
 21 14  1  0
 22 24  1  0
 22 20  1  0
 23 22  2  0
M  END
$$$$
