LVM.pdb
     RDKit          3D

 24 23  0  0  1  0  0  0  0  0999 V2000
   29.3229  -19.3711  -16.2351 C   0  0  0  0  0  0  0  0  0  0  0  0
   28.1434  -18.4391  -16.4164 C   0  0  1  0  0  0  0  0  0  0  0  0
   27.3237  -18.8789  -17.6264 C   0  0  0  0  0  0  0  0  0  0  0  0
   27.3100  -18.3557  -15.1956 C   0  0  0  0  0  0  0  0  0  0  0  0
   27.5940  -19.4476  -14.1968 C   0  0  2  0  0  0  0  0  0  0  0  0
   27.0205  -20.6893  -14.7920 N   0  0  0  0  0  0  0  0  0  0  0  0
   26.8516  -19.2486  -12.9050 C   0  0  0  0  0  0  0  0  0  0  0  0
   27.0490  -18.1889  -12.2417 O   0  0  0  0  0  0  0  0  0  0  0  0
   22.8503  -19.8733  -10.2168 C   0  0  0  0  0  0  0  0  0  0  0  0
   23.7033  -20.0663  -11.4191 C   0  0  2  0  0  0  0  0  0  0  0  0
   23.3822  -21.4562  -11.9894 C   0  0  0  0  0  0  0  0  0  0  0  0
   25.1603  -19.9989  -11.2175 C   0  0  2  0  0  0  0  0  0  0  0  0
   25.9358  -20.2100  -12.4095 N   0  0  0  0  0  0  0  0  0  0  0  0
   25.7170  -20.7000  -10.0497 C   0  0  0  0  0  0  0  0  0  0  0  0
   25.9624  -21.9193  -10.1387 O   0  0  0  0  0  0  0  0  0  0  0  0
   29.2400  -18.1926   -5.6684 C   0  0  0  0  0  0  0  0  0  0  0  0
   28.5613  -19.4175   -4.4883 S   0  0  0  0  0  0  0  0  0  0  0  0
   27.5205  -20.5572   -5.4609 C   0  0  0  0  0  0  0  0  0  0  0  0
   27.1706  -19.8653   -6.7508 C   0  0  0  0  0  0  0  0  0  0  0  0
   26.3462  -20.7828   -7.6102 C   0  0  2  0  0  0  0  0  0  0  0  0
   25.9879  -20.0537   -8.8265 N   0  0  0  0  0  0  0  0  0  0  0  0
   25.1531  -21.3065   -6.9349 C   0  0  0  0  0  0  0  0  0  0  0  0
   25.2588  -22.1984   -6.0608 O   0  0  0  0  0  0  0  0  0  0  0  0
   23.9141  -20.8140   -7.2652 O   0  0  0  0  0  0  0  0  0  0  0  0
  2  1  1  1
  3  2  1  0
  4  2  1  0
  4  5  1  0
  5  6  1  6
  5  7  1  0
  7  8  2  0
 10  9  1  1
 10 11  1  0
 12 10  1  0
 13  7  1  0
 12 13  1  6
 14 12  1  0
 14 15  2  0
 16 17  1  0
 17 18  1  0
 18 19  1  0
 20 19  1  1
 20 21  1  0
 21 14  1  0
 22 24  1  0
 22 20  1  0
 23 22  2  0
M  END
$$$$
