LVM.pdb
     RDKit          3D

 24 23  0  0  1  0  0  0  0  0999 V2000
   28.5355  -18.5528   -6.7953 C   0  0  0  0  0  0  0  0  0  0  0  0
   27.6329  -19.6818   -7.2465 C   0  0  1  0  0  0  0  0  0  0  0  0
   26.6157  -19.9936   -6.1523 C   0  0  0  0  0  0  0  0  0  0  0  0
   26.9703  -19.3804   -8.5357 C   0  0  0  0  0  0  0  0  0  0  0  0
   26.0339  -20.4660   -8.9998 C   0  0  2  0  0  0  0  0  0  0  0  0
   26.9076  -21.6277   -9.3347 N   0  0  0  0  0  0  0  0  0  0  0  0
   25.3382  -20.1110  -10.2841 C   0  0  0  0  0  0  0  0  0  0  0  0
   24.6085  -19.0774  -10.3203 O   0  0  0  0  0  0  0  0  0  0  0  0
   26.6466  -21.5848  -14.1925 C   0  0  0  0  0  0  0  0  0  0  0  0
   25.8836  -20.3677  -13.8091 C   0  0  2  0  0  0  0  0  0  0  0  0
   26.9049  -19.3062  -13.3727 C   0  0  0  0  0  0  0  0  0  0  0  0
   24.9060  -20.5131  -12.7177 C   0  0  2  0  0  0  0  0  0  0  0  0
   25.4769  -20.8967  -11.4553 N   0  0  0  0  0  0  0  0  0  0  0  0
   23.6582  -21.2338  -13.0158 C   0  0  0  0  0  0  0  0  0  0  0  0
   23.4544  -22.3373  -12.4723 O   0  0  0  0  0  0  0  0  0  0  0  0
   19.9494  -23.4300  -10.2996 C   0  0  0  0  0  0  0  0  0  0  0  0
   18.7099  -22.4388  -11.2133 S   0  0  0  0  0  0  0  0  0  0  0  0
   19.3839  -22.1770  -12.8883 C   0  0  0  0  0  0  0  0  0  0  0  0
   20.7194  -21.4991  -12.7406 C   0  0  0  0  0  0  0  0  0  0  0  0
   21.3809  -21.3848  -14.0857 C   0  0  2  0  0  0  0  0  0  0  0  0
   22.6753  -20.7319  -13.8930 N   0  0  0  0  0  0  0  0  0  0  0  0
   20.5705  -20.6725  -15.0807 C   0  0  0  0  0  0  0  0  0  0  0  0
   20.7685  -19.4559  -15.3069 O   0  0  0  0  0  0  0  0  0  0  0  0
   19.5895  -21.3464  -15.7665 O   0  0  0  0  0  0  0  0  0  0  0  0
  2  1  1  1
  3  2  1  0
  4  2  1  0
  4  5  1  0
  5  6  1  6
  5  7  1  0
  7  8  2  0
 10  9  1  1
 10 11  1  0
 12 10  1  0
 13  7  1  0
 12 13  1  1
 14 12  1  0
 14 15  2  0
 16 17  1  0
 17 18  1  0
 18 19  1  0
 20 19  1  1
 20 21  1  0
 21 14  1  0
 22 24  1  0
 22 20  1  0
 23 22  2  0
M  END
$$$$
