LVM.pdb
     RDKit          3D

 24 23  0  0  1  0  0  0  0  0999 V2000
   28.3988  -13.0756  -16.2580 C   0  0  0  0  0  0  0  0  0  0  0  0
   26.9690  -13.5658  -16.3499 C   0  0  1  0  0  0  0  0  0  0  0  0
   26.5708  -14.2340  -15.0368 C   0  0  0  0  0  0  0  0  0  0  0  0
   26.0324  -12.4783  -16.7131 C   0  0  0  0  0  0  0  0  0  0  0  0
   24.5908  -12.9148  -16.7574 C   0  0  2  0  0  0  0  0  0  0  0  0
   24.4965  -13.8574  -17.9097 N   0  0  0  0  0  0  0  0  0  0  0  0
   23.6605  -11.7834  -17.0947 C   0  0  0  0  0  0  0  0  0  0  0  0
   23.6667  -11.3146  -18.2704 O   0  0  0  0  0  0  0  0  0  0  0  0
   19.5207   -9.3623  -16.7366 C   0  0  0  0  0  0  0  0  0  0  0  0
   20.4781  -10.4791  -16.5211 C   0  0  2  0  0  0  0  0  0  0  0  0
   20.0947  -11.1615  -15.1991 C   0  0  0  0  0  0  0  0  0  0  0  0
   21.9045  -10.1240  -16.4359 C   0  0  2  0  0  0  0  0  0  0  0  0
   22.7753  -11.2283  -16.1373 N   0  0  0  0  0  0  0  0  0  0  0  0
   22.2575   -8.9076  -15.6870 C   0  0  0  0  0  0  0  0  0  0  0  0
   22.4499   -8.9904  -14.4578 O   0  0  0  0  0  0  0  0  0  0  0  0
   22.7472   -3.0653  -18.3988 C   0  0  0  0  0  0  0  0  0  0  0  0
   23.9992   -2.8846  -17.0746 S   0  0  0  0  0  0  0  0  0  0  0  0
   23.6184   -4.1539  -15.8207 C   0  0  0  0  0  0  0  0  0  0  0  0
   23.1276   -5.3776  -16.5464 C   0  0  0  0  0  0  0  0  0  0  0  0
   22.7499   -6.4391  -15.5511 C   0  0  2  0  0  0  0  0  0  0  0  0
   22.3895   -7.6439  -16.2980 N   0  0  0  0  0  0  0  0  0  0  0  0
   21.6702   -6.0357  -14.6426 C   0  0  0  0  0  0  0  0  0  0  0  0
   20.4737   -6.1033  -15.0094 O   0  0  0  0  0  0  0  0  0  0  0  0
   21.9762   -5.5815  -13.3829 O   0  0  0  0  0  0  0  0  0  0  0  0
  2  1  1  1
  3  2  1  0
  4  2  1  0
  4  5  1  0
  5  6  1  6
  5  7  1  0
  7  8  2  0
 10  9  1  1
 10 11  1  0
 12 10  1  0
 13  7  1  0
 12 13  1  1
 14 12  1  0
 14 15  2  0
 16 17  1  0
 17 18  1  0
 18 19  1  0
 20 19  1  6
 20 21  1  0
 21 14  1  0
 22 24  1  0
 22 20  1  0
 23 22  2  0
M  END
$$$$
