LVM.pdb
     RDKit          3D

 24 23  0  0  1  0  0  0  0  0999 V2000
   29.7170  -19.8515  -12.0286 C   0  0  0  0  0  0  0  0  0  0  0  0
   28.7237  -20.7372  -11.3062 C   0  0  1  0  0  0  0  0  0  0  0  0
   28.7013  -20.3789   -9.8229 C   0  0  0  0  0  0  0  0  0  0  0  0
   27.3723  -20.6584  -11.9057 C   0  0  0  0  0  0  0  0  0  0  0  0
   26.3228  -21.4071  -11.1256 C   0  0  2  0  0  0  0  0  0  0  0  0
   26.7372  -22.8392  -11.1755 N   0  0  0  0  0  0  0  0  0  0  0  0
   24.9752  -21.3618  -11.7899 C   0  0  0  0  0  0  0  0  0  0  0  0
   24.7922  -22.0276  -12.8507 O   0  0  0  0  0  0  0  0  0  0  0  0
   20.1117  -20.5145  -11.4473 C   0  0  0  0  0  0  0  0  0  0  0  0
   21.4917  -20.3913  -10.9082 C   0  0  2  0  0  0  0  0  0  0  0  0
   21.6290  -18.9783  -10.3210 C   0  0  0  0  0  0  0  0  0  0  0  0
   22.5969  -20.5809  -11.8624 C   0  0  2  0  0  0  0  0  0  0  0  0
   23.9036  -20.5988  -11.2629 N   0  0  0  0  0  0  0  0  0  0  0  0
   22.5582  -19.8011  -13.1096 C   0  0  0  0  0  0  0  0  0  0  0  0
   22.8556  -18.5907  -13.0736 O   0  0  0  0  0  0  0  0  0  0  0  0
   25.4975  -21.1550  -17.8148 C   0  0  0  0  0  0  0  0  0  0  0  0
   24.5122  -20.0240  -18.8655 S   0  0  0  0  0  0  0  0  0  0  0  0
   23.1794  -19.3612  -17.8107 C   0  0  0  0  0  0  0  0  0  0  0  0
   23.2335  -20.0919  -16.4961 C   0  0  0  0  0  0  0  0  0  0  0  0
   22.1508  -19.5802  -15.5873 C   0  0  2  0  0  0  0  0  0  0  0  0
   22.1980  -20.3617  -14.3519 N   0  0  0  0  0  0  0  0  0  0  0  0
   20.8123  -19.6183  -16.1881 C   0  0  0  0  0  0  0  0  0  0  0  0
   20.5356  -18.8874  -17.1679 O   0  0  0  0  0  0  0  0  0  0  0  0
   19.8591  -20.4613  -15.6710 O   0  0  0  0  0  0  0  0  0  0  0  0
  2  1  1  6
  3  2  1  0
  4  2  1  0
  4  5  1  0
  5  6  1  6
  5  7  1  0
  7  8  2  0
 10  9  1  6
 10 11  1  0
 12 10  1  0
 13  7  1  0
 12 13  1  1
 14 12  1  0
 14 15  2  0
 16 17  1  0
 17 18  1  0
 18 19  1  0
 20 19  1  6
 20 21  1  0
 21 14  1  0
 22 24  1  0
 22 20  1  0
 23 22  2  0
M  END
$$$$
