YWK.pdb
     RDKit          3D

 36 38  0  0  1  0  0  0  0  0999 V2000
   25.7479  -17.4940  -20.8947 O   0  0  0  0  0  0  0  0  0  0  0  0
   25.5285  -18.1266  -19.6557 C   0  0  0  0  0  0  0  0  0  0  0  0
   26.1861  -19.2890  -19.3173 C   0  0  0  0  0  0  0  0  0  0  0  0
   25.9892  -19.9253  -18.1144 C   0  0  0  0  0  0  0  0  0  0  0  0
   25.1097  -19.4009  -17.2021 C   0  0  0  0  0  0  0  0  0  0  0  0
   24.8467  -20.0354  -15.8813 C   0  0  0  0  0  0  0  0  0  0  0  0
   25.2589  -19.1487  -14.7302 C   0  0  2  0  0  0  0  0  0  0  0  0
   26.6360  -18.7747  -14.8179 N   0  0  0  0  0  0  0  0  0  0  0  0
   24.9830  -19.9317  -13.4802 C   0  0  0  0  0  0  0  0  0  0  0  0
   24.0373  -20.7236  -13.3759 O   0  0  0  0  0  0  0  0  0  0  0  0
   24.4453  -18.2389  -17.5274 C   0  0  0  0  0  0  0  0  0  0  0  0
   24.6463  -17.6047  -18.7349 C   0  0  0  0  0  0  0  0  0  0  0  0
   25.8410  -19.7562  -12.3757 N   0  0  0  0  0  0  0  0  0  0  0  0
   25.6244  -20.3577  -11.0767 C   0  0  1  0  0  0  0  0  0  0  0  0
   26.7748  -20.1627  -10.1465 C   0  0  0  0  0  0  0  0  0  0  0  0
   26.3764  -20.6155   -8.7903 C   0  0  0  0  0  0  0  0  0  0  0  0
   25.3723  -21.5236   -8.4409 C   0  0  0  0  0  0  0  0  0  0  0  0
   25.3214  -21.6628   -7.1081 N   0  0  0  0  0  0  0  0  0  0  0  0
   26.2526  -20.8833   -6.5475 C   0  0  0  0  0  0  0  0  0  0  0  0
   26.5997  -20.6711   -5.2316 C   0  0  0  0  0  0  0  0  0  0  0  0
   27.6096  -19.8087   -4.8610 C   0  0  0  0  0  0  0  0  0  0  0  0
   28.2680  -19.1562   -5.8936 C   0  0  0  0  0  0  0  0  0  0  0  0
   27.9213  -19.3670   -7.2250 C   0  0  0  0  0  0  0  0  0  0  0  0
   26.9185  -20.2258   -7.5604 C   0  0  0  0  0  0  0  0  0  0  0  0
   24.3271  -19.9413  -10.4866 C   0  0  0  0  0  0  0  0  0  0  0  0
   24.0145  -18.7284  -10.3680 O   0  0  0  0  0  0  0  0  0  0  0  0
   23.3589  -20.8688  -10.0199 N   0  0  0  0  0  0  0  0  0  0  0  0
   21.9094  -20.5445  -10.0031 C   0  0  1  0  0  0  0  0  0  0  0  0
   21.2403  -21.1843  -11.1702 C   0  0  0  0  0  0  0  0  0  0  0  0
   19.7821  -20.8674  -11.2191 C   0  0  0  0  0  0  0  0  0  0  0  0
   19.0485  -22.1957  -10.9810 C   0  0  0  0  0  0  0  0  0  0  0  0
   17.5517  -21.9919  -11.0459 C   0  0  0  0  0  0  0  0  0  0  0  0
   16.8499  -23.2039  -10.7048 N   0  0  0  0  0  0  0  0  0  0  0  0
   21.3985  -21.0772   -8.7382 C   0  0  0  0  0  0  0  0  0  0  0  0
   21.7468  -22.1855   -8.2860 O   0  0  0  0  0  0  0  0  0  0  0  0
   20.4930  -20.3546   -7.9850 O   0  0  0  0  0  0  0  0  0  0  0  0
  2  1  1  0
  2 12  2  0
  3  2  1  0
  4  3  2  0
  4  5  1  0
  5 11  2  0
  6  5  1  0
  7  6  1  0
  7  8  1  6
  9 13  1  0
  9  7  1  0
 10  9  2  0
 11 12  1  0
 14 15  1  1
 14 13  1  0
 16 15  1  0
 17 16  2  0
 18 17  1  0
 19 24  2  0
 19 18  1  0
 20 19  1  0
 21 20  2  0
 21 22  1  0
 22 23  2  0
 23 24  1  0
 24 16  1  0
 25 14  1  0
 25 27  1  0
 26 25  2  0
 28 27  1  0
 28 29  1  6
 30 29  1  0
 31 32  1  0
 31 30  1  0
 32 33  1  0
 34 28  1  0
 35 34  2  0
 36 34  1  0
M  END
$$$$
