YWK.pdb
     RDKit          3D

 36 38  0  0  1  0  0  0  0  0999 V2000
   13.1084  -16.9446  -22.6791 O   0  0  0  0  0  0  0  0  0  0  0  0
   14.1959  -17.4729  -21.9570 C   0  0  0  0  0  0  0  0  0  0  0  0
   15.0562  -16.6564  -21.2562 C   0  0  0  0  0  0  0  0  0  0  0  0
   16.1247  -17.1478  -20.5438 C   0  0  0  0  0  0  0  0  0  0  0  0
   16.3618  -18.4983  -20.5158 C   0  0  0  0  0  0  0  0  0  0  0  0
   17.4986  -19.1003  -19.7665 C   0  0  0  0  0  0  0  0  0  0  0  0
   18.7201  -19.2858  -20.6353 C   0  0  2  0  0  0  0  0  0  0  0  0
   18.5002  -20.2638  -21.6546 N   0  0  0  0  0  0  0  0  0  0  0  0
   19.8302  -19.6968  -19.7130 C   0  0  0  0  0  0  0  0  0  0  0  0
   20.0892  -20.8796  -19.4554 O   0  0  0  0  0  0  0  0  0  0  0  0
   15.5093  -19.3266  -21.2121 C   0  0  0  0  0  0  0  0  0  0  0  0
   14.4393  -18.8288  -21.9250 C   0  0  0  0  0  0  0  0  0  0  0  0
   20.6123  -18.6889  -19.1139 N   0  0  0  0  0  0  0  0  0  0  0  0
   21.7007  -18.9457  -18.1943 C   0  0  1  0  0  0  0  0  0  0  0  0
   22.6341  -17.7892  -18.0606 C   0  0  0  0  0  0  0  0  0  0  0  0
   23.8116  -18.2137  -17.2628 C   0  0  0  0  0  0  0  0  0  0  0  0
   24.4465  -19.4593  -17.2517 C   0  0  0  0  0  0  0  0  0  0  0  0
   25.4738  -19.4443  -16.3898 N   0  0  0  0  0  0  0  0  0  0  0  0
   25.5544  -18.2366  -15.8207 C   0  0  0  0  0  0  0  0  0  0  0  0
   26.4220  -17.7207  -14.8836 C   0  0  0  0  0  0  0  0  0  0  0  0
   26.3295  -16.4249  -14.4217 C   0  0  0  0  0  0  0  0  0  0  0  0
   25.3052  -15.6558  -14.9551 C   0  0  0  0  0  0  0  0  0  0  0  0
   24.4257  -16.1721  -15.9024 C   0  0  0  0  0  0  0  0  0  0  0  0
   24.5422  -17.4569  -16.3397 C   0  0  0  0  0  0  0  0  0  0  0  0
   21.2093  -19.4460  -16.8856 C   0  0  0  0  0  0  0  0  0  0  0  0
   20.3628  -18.8061  -16.2096 O   0  0  0  0  0  0  0  0  0  0  0  0
   21.6528  -20.6657  -16.3102 N   0  0  0  0  0  0  0  0  0  0  0  0
   21.1929  -21.1111  -14.9698 C   0  0  1  0  0  0  0  0  0  0  0  0
   21.6036  -22.5252  -14.7447 C   0  0  0  0  0  0  0  0  0  0  0  0
   21.0587  -23.0666  -13.4644 C   0  0  0  0  0  0  0  0  0  0  0  0
   21.6499  -24.4760  -13.3111 C   0  0  0  0  0  0  0  0  0  0  0  0
   21.1098  -25.1432  -12.0664 C   0  0  0  0  0  0  0  0  0  0  0  0
   21.6193  -26.4854  -11.9372 N   0  0  0  0  0  0  0  0  0  0  0  0
   21.8358  -20.2105  -14.0105 C   0  0  0  0  0  0  0  0  0  0  0  0
   21.5676  -20.2225  -12.7931 O   0  0  0  0  0  0  0  0  0  0  0  0
   22.7832  -19.2961  -14.4299 O   0  0  0  0  0  0  0  0  0  0  0  0
  2  1  1  0
  2 12  2  0
  3  2  1  0
  4  3  2  0
  4  5  1  0
  5 11  2  0
  6  5  1  0
  7  6  1  0
  7  8  1  6
  9 13  1  0
  9  7  1  0
 10  9  2  0
 11 12  1  0
 14 15  1  1
 14 13  1  0
 16 15  1  0
 17 16  2  0
 18 17  1  0
 19 24  2  0
 19 18  1  0
 20 19  1  0
 21 20  2  0
 21 22  1  0
 22 23  2  0
 23 24  1  0
 24 16  1  0
 25 14  1  0
 25 27  1  0
 26 25  2  0
 28 27  1  0
 28 29  1  1
 30 29  1  0
 31 32  1  0
 31 30  1  0
 32 33  1  0
 34 28  1  0
 35 34  2  0
 36 34  1  0
M  END
$$$$
