YWK.pdb
     RDKit          3D

 36 38  0  0  1  0  0  0  0  0999 V2000
   22.1468  -15.8449  -17.2814 O   0  0  0  0  0  0  0  0  0  0  0  0
   22.2505  -16.7454  -16.2036 C   0  0  0  0  0  0  0  0  0  0  0  0
   22.9307  -16.4118  -15.0530 C   0  0  0  0  0  0  0  0  0  0  0  0
   23.0460  -17.2730  -13.9873 C   0  0  0  0  0  0  0  0  0  0  0  0
   22.4701  -18.5161  -14.0505 C   0  0  0  0  0  0  0  0  0  0  0  0
   22.5545  -19.4996  -12.9361 C   0  0  0  0  0  0  0  0  0  0  0  0
   23.9831  -19.8251  -12.5696 C   0  0  2  0  0  0  0  0  0  0  0  0
   24.7265  -20.2877  -13.6997 N   0  0  0  0  0  0  0  0  0  0  0  0
   23.9111  -20.8715  -11.4964 C   0  0  0  0  0  0  0  0  0  0  0  0
   23.1792  -21.8668  -11.5738 O   0  0  0  0  0  0  0  0  0  0  0  0
   21.7868  -18.8629  -15.1952 C   0  0  0  0  0  0  0  0  0  0  0  0
   21.6741  -17.9956  -16.2610 C   0  0  0  0  0  0  0  0  0  0  0  0
   24.7140  -20.7119  -10.3490 N   0  0  0  0  0  0  0  0  0  0  0  0
   24.7165  -21.6270   -9.2271 C   0  0  1  0  0  0  0  0  0  0  0  0
   26.0682  -21.7962   -8.6178 C   0  0  0  0  0  0  0  0  0  0  0  0
   26.4561  -20.5271   -7.9529 C   0  0  0  0  0  0  0  0  0  0  0  0
   26.0422  -19.2273   -8.2595 C   0  0  0  0  0  0  0  0  0  0  0  0
   26.6233  -18.3511   -7.4270 N   0  0  0  0  0  0  0  0  0  0  0  0
   27.4122  -19.0115   -6.5723 C   0  0  0  0  0  0  0  0  0  0  0  0
   28.2131  -18.5756   -5.5400 C   0  0  0  0  0  0  0  0  0  0  0  0
   28.9601  -19.4382   -4.7662 C   0  0  0  0  0  0  0  0  0  0  0  0
   28.8638  -20.7856   -5.0832 C   0  0  0  0  0  0  0  0  0  0  0  0
   28.0560  -21.2315   -6.1253 C   0  0  0  0  0  0  0  0  0  0  0  0
   27.3291  -20.3548   -6.8727 C   0  0  0  0  0  0  0  0  0  0  0  0
   23.6727  -21.2789   -8.2302 C   0  0  0  0  0  0  0  0  0  0  0  0
   23.3192  -20.0877   -8.0329 O   0  0  0  0  0  0  0  0  0  0  0  0
   23.0072  -22.2513   -7.4385 N   0  0  0  0  0  0  0  0  0  0  0  0
   21.5854  -22.0944   -7.0381 C   0  0  1  0  0  0  0  0  0  0  0  0
   20.7813  -23.2161   -7.5987 C   0  0  0  0  0  0  0  0  0  0  0  0
   19.3668  -23.1802   -7.1222 C   0  0  0  0  0  0  0  0  0  0  0  0
   18.6677  -24.3849   -7.7699 C   0  0  0  0  0  0  0  0  0  0  0  0
   17.2431  -24.4976   -7.2759 C   0  0  0  0  0  0  0  0  0  0  0  0
   16.5850  -25.6426   -7.8536 N   0  0  0  0  0  0  0  0  0  0  0  0
   21.5811  -22.1157   -5.5738 C   0  0  0  0  0  0  0  0  0  0  0  0
   20.5665  -21.8490   -4.9005 O   0  0  0  0  0  0  0  0  0  0  0  0
   22.7264  -22.4395   -4.8716 O   0  0  0  0  0  0  0  0  0  0  0  0
  2  1  1  0
  2 12  2  0
  3  2  1  0
  4  3  2  0
  4  5  1  0
  5 11  2  0
  6  5  1  0
  7  6  1  0
  7  8  1  6
  9 13  1  0
  9  7  1  0
 10  9  2  0
 11 12  1  0
 14 15  1  1
 14 13  1  0
 16 15  1  0
 17 16  2  0
 18 17  1  0
 19 24  2  0
 19 18  1  0
 20 19  1  0
 21 20  2  0
 21 22  1  0
 22 23  2  0
 23 24  1  0
 24 16  1  0
 25 14  1  0
 25 27  1  0
 26 25  2  0
 28 27  1  0
 28 29  1  6
 30 29  1  0
 31 32  1  0
 31 30  1  0
 32 33  1  0
 34 28  1  0
 35 34  2  0
 36 34  1  0
M  END
$$$$
