YWK.pdb
     RDKit          3D

 36 38  0  0  1  0  0  0  0  0999 V2000
   17.2983  -25.6177   -8.1383 O   0  0  0  0  0  0  0  0  0  0  0  0
   18.3404  -24.7719   -8.5646 C   0  0  0  0  0  0  0  0  0  0  0  0
   18.2387  -24.0372   -9.7256 C   0  0  0  0  0  0  0  0  0  0  0  0
   19.2418  -23.2047  -10.1629 C   0  0  0  0  0  0  0  0  0  0  0  0
   20.3959  -23.0857   -9.4315 C   0  0  0  0  0  0  0  0  0  0  0  0
   21.5226  -22.2045   -9.8440 C   0  0  0  0  0  0  0  0  0  0  0  0
   22.0044  -21.3274   -8.7127 C   0  0  2  0  0  0  0  0  0  0  0  0
   20.9254  -20.6226   -8.0938 N   0  0  0  0  0  0  0  0  0  0  0  0
   23.0026  -20.3816   -9.3134 C   0  0  0  0  0  0  0  0  0  0  0  0
   22.6892  -19.2800   -9.7831 O   0  0  0  0  0  0  0  0  0  0  0  0
   20.5111  -23.8146   -8.2684 C   0  0  0  0  0  0  0  0  0  0  0  0
   19.5023  -24.6480   -7.8342 C   0  0  0  0  0  0  0  0  0  0  0  0
   24.3581  -20.7669   -9.3431 N   0  0  0  0  0  0  0  0  0  0  0  0
   25.3966  -20.0279  -10.0298 C   0  0  1  0  0  0  0  0  0  0  0  0
   26.5766  -19.7409   -9.1626 C   0  0  0  0  0  0  0  0  0  0  0  0
   26.3320  -20.3148   -7.8157 C   0  0  0  0  0  0  0  0  0  0  0  0
   25.2120  -21.0203   -7.3655 C   0  0  0  0  0  0  0  0  0  0  0  0
   25.3729  -21.3669   -6.0800 N   0  0  0  0  0  0  0  0  0  0  0  0
   26.5579  -20.9217   -5.6483 C   0  0  0  0  0  0  0  0  0  0  0  0
   27.1828  -21.0174   -4.4246 C   0  0  0  0  0  0  0  0  0  0  0  0
   28.4288  -20.4783   -4.1842 C   0  0  0  0  0  0  0  0  0  0  0  0
   29.0303  -19.8256   -5.2508 C   0  0  0  0  0  0  0  0  0  0  0  0
   28.4033  -19.7260   -6.4895 C   0  0  0  0  0  0  0  0  0  0  0  0
   27.1714  -20.2692   -6.6969 C   0  0  0  0  0  0  0  0  0  0  0  0
   25.7677  -20.6674  -11.3175 C   0  0  0  0  0  0  0  0  0  0  0  0
   25.5606  -21.8897  -11.5316 O   0  0  0  0  0  0  0  0  0  0  0  0
   26.3745  -19.9557  -12.3855 N   0  0  0  0  0  0  0  0  0  0  0  0
   26.6432  -20.5954  -13.6989 C   0  0  1  0  0  0  0  0  0  0  0  0
   26.9644  -19.5483  -14.7087 C   0  0  0  0  0  0  0  0  0  0  0  0
   27.1682  -20.1297  -16.0687 C   0  0  0  0  0  0  0  0  0  0  0  0
   27.4944  -18.9475  -16.9936 C   0  0  0  0  0  0  0  0  0  0  0  0
   27.7559  -19.4341  -18.4011 C   0  0  0  0  0  0  0  0  0  0  0  0
   27.8892  -18.3268  -19.3142 N   0  0  0  0  0  0  0  0  0  0  0  0
   27.7815  -21.4901  -13.4787 C   0  0  0  0  0  0  0  0  0  0  0  0
   28.6222  -21.2994  -12.5782 O   0  0  0  0  0  0  0  0  0  0  0  0
   27.9677  -22.6016  -14.2785 O   0  0  0  0  0  0  0  0  0  0  0  0
  2  1  1  0
  2 12  2  0
  3  2  1  0
  4  3  2  0
  4  5  1  0
  5 11  2  0
  6  5  1  0
  7  6  1  0
  7  8  1  6
  9 13  1  0
  9  7  1  0
 10  9  2  0
 11 12  1  0
 14 15  1  1
 14 13  1  0
 16 15  1  0
 17 16  2  0
 18 17  1  0
 19 24  2  0
 19 18  1  0
 20 19  1  0
 21 20  2  0
 21 22  1  0
 22 23  2  0
 23 24  1  0
 24 16  1  0
 25 14  1  0
 25 27  1  0
 26 25  2  0
 28 27  1  0
 28 29  1  6
 30 29  1  0
 31 32  1  0
 31 30  1  0
 32 33  1  0
 34 28  1  0
 35 34  2  0
 36 34  1  0
M  END
$$$$
