YWK.pdb
     RDKit          3D

 36 38  0  0  1  0  0  0  0  0999 V2000
   24.4914  -16.9940  -19.7001 O   0  0  0  0  0  0  0  0  0  0  0  0
   24.3144  -17.7464  -18.5229 C   0  0  0  0  0  0  0  0  0  0  0  0
   24.3225  -17.1488  -17.2815 C   0  0  0  0  0  0  0  0  0  0  0  0
   24.1519  -17.8613  -16.1180 C   0  0  0  0  0  0  0  0  0  0  0  0
   23.9652  -19.2190  -16.1715 C   0  0  0  0  0  0  0  0  0  0  0  0
   23.7746  -20.0536  -14.9536 C   0  0  0  0  0  0  0  0  0  0  0  0
   25.0742  -20.3087  -14.2276 C   0  0  2  0  0  0  0  0  0  0  0  0
   25.9846  -21.0697  -15.0251 N   0  0  0  0  0  0  0  0  0  0  0  0
   24.7122  -21.0358  -12.9659 C   0  0  0  0  0  0  0  0  0  0  0  0
   24.5527  -22.2624  -12.9172 O   0  0  0  0  0  0  0  0  0  0  0  0
   23.9549  -19.8296  -17.4062 C   0  0  0  0  0  0  0  0  0  0  0  0
   24.1264  -19.1106  -18.5701 C   0  0  0  0  0  0  0  0  0  0  0  0
   24.5470  -20.2864  -11.7837 N   0  0  0  0  0  0  0  0  0  0  0  0
   24.1620  -20.8559  -10.5094 C   0  0  1  0  0  0  0  0  0  0  0  0
   24.7659  -20.1412   -9.3469 C   0  0  0  0  0  0  0  0  0  0  0  0
   26.1868  -20.5509   -9.2183 C   0  0  0  0  0  0  0  0  0  0  0  0
   26.9417  -21.3430  -10.0886 C   0  0  0  0  0  0  0  0  0  0  0  0
   28.1879  -21.4878   -9.6149 N   0  0  0  0  0  0  0  0  0  0  0  0
   28.3003  -20.8235   -8.4595 C   0  0  0  0  0  0  0  0  0  0  0  0
   29.3589  -20.6640   -7.5928 C   0  0  0  0  0  0  0  0  0  0  0  0
   29.2627  -19.9248   -6.4330 C   0  0  0  0  0  0  0  0  0  0  0  0
   28.0296  -19.3415   -6.1786 C   0  0  0  0  0  0  0  0  0  0  0  0
   26.9566  -19.4995   -7.0509 C   0  0  0  0  0  0  0  0  0  0  0  0
   27.0821  -20.2361   -8.1898 C   0  0  0  0  0  0  0  0  0  0  0  0
   22.6890  -21.0040  -10.3950 C   0  0  0  0  0  0  0  0  0  0  0  0
   21.9035  -20.0896  -10.7551 O   0  0  0  0  0  0  0  0  0  0  0  0
   22.0691  -22.1718   -9.8782 N   0  0  0  0  0  0  0  0  0  0  0  0
   20.5916  -22.3024   -9.7968 C   0  0  1  0  0  0  0  0  0  0  0  0
   20.2150  -23.7435   -9.8196 C   0  0  0  0  0  0  0  0  0  0  0  0
   18.7377  -23.9350   -9.7185 C   0  0  0  0  0  0  0  0  0  0  0  0
   18.5063  -25.4528   -9.6735 C   0  0  0  0  0  0  0  0  0  0  0  0
   17.0293  -25.7594   -9.5708 C   0  0  0  0  0  0  0  0  0  0  0  0
   16.7815  -27.1696   -9.7375 N   0  0  0  0  0  0  0  0  0  0  0  0
   20.2068  -21.6711   -8.5327 C   0  0  0  0  0  0  0  0  0  0  0  0
   20.9897  -21.5652   -7.5684 O   0  0  0  0  0  0  0  0  0  0  0  0
   18.9348  -21.1592   -8.3605 O   0  0  0  0  0  0  0  0  0  0  0  0
  2  1  1  0
  2 12  2  0
  3  2  1  0
  4  3  2  0
  4  5  1  0
  5 11  2  0
  6  5  1  0
  7  6  1  0
  7  8  1  6
  9 13  1  0
  9  7  1  0
 10  9  2  0
 11 12  1  0
 14 15  1  1
 14 13  1  0
 16 15  1  0
 17 16  2  0
 18 17  1  0
 19 24  2  0
 19 18  1  0
 20 19  1  0
 21 20  2  0
 21 22  1  0
 22 23  2  0
 23 24  1  0
 24 16  1  0
 25 14  1  0
 25 27  1  0
 26 25  2  0
 28 27  1  0
 28 29  1  1
 30 29  1  0
 31 32  1  0
 31 30  1  0
 32 33  1  0
 34 28  1  0
 35 34  2  0
 36 34  1  0
M  END
$$$$
