YWK.pdb
     RDKit          3D

 36 38  0  0  1  0  0  0  0  0999 V2000
   26.0092  -15.8676  -16.8712 O   0  0  0  0  0  0  0  0  0  0  0  0
   25.5790  -16.6957  -15.8166 C   0  0  0  0  0  0  0  0  0  0  0  0
   26.3402  -16.8647  -14.6808 C   0  0  0  0  0  0  0  0  0  0  0  0
   25.9421  -17.6675  -13.6379 C   0  0  0  0  0  0  0  0  0  0  0  0
   24.7460  -18.3346  -13.7095 C   0  0  0  0  0  0  0  0  0  0  0  0
   24.2520  -19.2201  -12.6195 C   0  0  0  0  0  0  0  0  0  0  0  0
   25.3014  -20.2075  -12.1669 C   0  0  2  0  0  0  0  0  0  0  0  0
   25.8186  -20.9681  -13.2614 N   0  0  0  0  0  0  0  0  0  0  0  0
   24.6344  -21.0908  -11.1535 C   0  0  0  0  0  0  0  0  0  0  0  0
   23.8268  -21.9775  -11.4601 O   0  0  0  0  0  0  0  0  0  0  0  0
   23.9746  -18.1747  -14.8395 C   0  0  0  0  0  0  0  0  0  0  0  0
   24.3783  -17.3685  -15.8826 C   0  0  0  0  0  0  0  0  0  0  0  0
   24.9431  -20.9007   -9.7915 N   0  0  0  0  0  0  0  0  0  0  0  0
   24.3739  -21.6825   -8.7140 C   0  0  1  0  0  0  0  0  0  0  0  0
   25.3379  -21.9284   -7.6018 C   0  0  0  0  0  0  0  0  0  0  0  0
   26.1004  -20.6812   -7.3443 C   0  0  0  0  0  0  0  0  0  0  0  0
   26.0141  -19.4590   -8.0178 C   0  0  0  0  0  0  0  0  0  0  0  0
   26.8748  -18.5789   -7.4856 N   0  0  0  0  0  0  0  0  0  0  0  0
   27.5366  -19.1620   -6.4802 C   0  0  0  0  0  0  0  0  0  0  0  0
   28.5114  -18.6908   -5.6288 C   0  0  0  0  0  0  0  0  0  0  0  0
   29.0731  -19.4711   -4.6407 C   0  0  0  0  0  0  0  0  0  0  0  0
   28.6013  -20.7725   -4.5450 C   0  0  0  0  0  0  0  0  0  0  0  0
   27.6164  -21.2538   -5.4027 C   0  0  0  0  0  0  0  0  0  0  0  0
   27.0800  -20.4586   -6.3700 C   0  0  0  0  0  0  0  0  0  0  0  0
   23.0833  -21.1171   -8.2456 C   0  0  0  0  0  0  0  0  0  0  0  0
   22.6516  -20.0150   -8.6723 O   0  0  0  0  0  0  0  0  0  0  0  0
   22.2545  -21.7700   -7.2958 N   0  0  0  0  0  0  0  0  0  0  0  0
   20.7743  -21.6521   -7.3371 C   0  0  1  0  0  0  0  0  0  0  0  0
   20.2586  -22.2669   -8.5922 C   0  0  0  0  0  0  0  0  0  0  0  0
   19.4698  -23.5056   -8.3226 C   0  0  0  0  0  0  0  0  0  0  0  0
   19.0834  -24.0729   -9.6967 C   0  0  0  0  0  0  0  0  0  0  0  0
   18.3853  -25.4050   -9.5412 C   0  0  0  0  0  0  0  0  0  0  0  0
   17.9883  -25.9329  -10.8224 N   0  0  0  0  0  0  0  0  0  0  0  0
   20.2866  -22.3656   -6.1549 C   0  0  0  0  0  0  0  0  0  0  0  0
   20.9568  -23.2421   -5.5746 O   0  0  0  0  0  0  0  0  0  0  0  0
   19.0395  -22.0863   -5.6293 O   0  0  0  0  0  0  0  0  0  0  0  0
  2  1  1  0
  2 12  2  0
  3  2  1  0
  4  3  2  0
  4  5  1  0
  5 11  2  0
  6  5  1  0
  7  6  1  0
  7  8  1  6
  9 13  1  0
  9  7  1  0
 10  9  2  0
 11 12  1  0
 14 15  1  1
 14 13  1  0
 16 15  1  0
 17 16  2  0
 18 17  1  0
 19 24  2  0
 19 18  1  0
 20 19  1  0
 21 20  2  0
 21 22  1  0
 22 23  2  0
 23 24  1  0
 24 16  1  0
 25 14  1  0
 25 27  1  0
 26 25  2  0
 28 27  1  0
 28 29  1  6
 30 29  1  0
 31 32  1  0
 31 30  1  0
 32 33  1  0
 34 28  1  0
 35 34  2  0
 36 34  1  0
M  END
$$$$
