YWK.pdb
     RDKit          3D

 36 38  0  0  1  0  0  0  0  0999 V2000
   26.8508  -12.9128  -21.8965 O   0  0  0  0  0  0  0  0  0  0  0  0
   26.5264  -14.0091  -21.0743 C   0  0  0  0  0  0  0  0  0  0  0  0
   26.9783  -14.0903  -19.7754 C   0  0  0  0  0  0  0  0  0  0  0  0
   26.6753  -15.1498  -18.9531 C   0  0  0  0  0  0  0  0  0  0  0  0
   25.8956  -16.1757  -19.4227 C   0  0  0  0  0  0  0  0  0  0  0  0
   25.5281  -17.3535  -18.5897 C   0  0  0  0  0  0  0  0  0  0  0  0
   26.6751  -18.3241  -18.4365 C   0  0  2  0  0  0  0  0  0  0  0  0
   26.9919  -18.9674  -19.6733 N   0  0  0  0  0  0  0  0  0  0  0  0
   26.2457  -19.3176  -17.3971 C   0  0  0  0  0  0  0  0  0  0  0  0
   25.6645  -20.3747  -17.6749 O   0  0  0  0  0  0  0  0  0  0  0  0
   25.4368  -16.1075  -20.7198 C   0  0  0  0  0  0  0  0  0  0  0  0
   25.7434  -15.0428  -21.5403 C   0  0  0  0  0  0  0  0  0  0  0  0
   26.5175  -19.0324  -16.0438 N   0  0  0  0  0  0  0  0  0  0  0  0
   26.1800  -19.9134  -14.9456 C   0  0  1  0  0  0  0  0  0  0  0  0
   27.1097  -19.7796  -13.7860 C   0  0  0  0  0  0  0  0  0  0  0  0
   26.7111  -20.7521  -12.7379 C   0  0  0  0  0  0  0  0  0  0  0  0
   26.7435  -22.1487  -12.7952 C   0  0  0  0  0  0  0  0  0  0  0  0
   26.2956  -22.6669  -11.6422 N   0  0  0  0  0  0  0  0  0  0  0  0
   25.9632  -21.6726  -10.8116 C   0  0  0  0  0  0  0  0  0  0  0  0
   25.4609  -21.6786   -9.5291 C   0  0  0  0  0  0  0  0  0  0  0  0
   25.1815  -20.5194   -8.8369 C   0  0  0  0  0  0  0  0  0  0  0  0
   25.4347  -19.3302   -9.5056 C   0  0  0  0  0  0  0  0  0  0  0  0
   25.9423  -19.3184  -10.8015 C   0  0  0  0  0  0  0  0  0  0  0  0
   26.2088  -20.4807  -11.4602 C   0  0  0  0  0  0  0  0  0  0  0  0
   24.7519  -19.7888  -14.5586 C   0  0  0  0  0  0  0  0  0  0  0  0
   24.2122  -18.6668  -14.3778 O   0  0  0  0  0  0  0  0  0  0  0  0
   23.9038  -20.9111  -14.3674 N   0  0  0  0  0  0  0  0  0  0  0  0
   22.4780  -20.7572  -13.9802 C   0  0  1  0  0  0  0  0  0  0  0  0
   21.6986  -21.9301  -14.4660 C   0  0  0  0  0  0  0  0  0  0  0  0
   20.2288  -21.7331  -14.2920 C   0  0  0  0  0  0  0  0  0  0  0  0
   19.7747  -22.7880  -13.2719 C   0  0  0  0  0  0  0  0  0  0  0  0
   18.2829  -22.6951  -13.0442 C   0  0  0  0  0  0  0  0  0  0  0  0
   17.5807  -23.6983  -13.8047 N   0  0  0  0  0  0  0  0  0  0  0  0
   22.4703  -20.6813  -12.5177 C   0  0  0  0  0  0  0  0  0  0  0  0
   23.1409  -21.4499  -11.8010 O   0  0  0  0  0  0  0  0  0  0  0  0
   21.7030  -19.7344  -11.8664 O   0  0  0  0  0  0  0  0  0  0  0  0
  2  1  1  0
  2 12  2  0
  3  2  1  0
  4  3  2  0
  4  5  1  0
  5 11  2  0
  6  5  1  0
  7  6  1  0
  7  8  1  6
  9 13  1  0
  9  7  1  0
 10  9  2  0
 11 12  1  0
 14 15  1  1
 14 13  1  0
 16 15  1  0
 17 16  2  0
 18 17  1  0
 19 24  2  0
 19 18  1  0
 20 19  1  0
 21 20  2  0
 21 22  1  0
 22 23  2  0
 23 24  1  0
 24 16  1  0
 25 14  1  0
 25 27  1  0
 26 25  2  0
 28 27  1  0
 28 29  1  1
 30 29  1  0
 31 32  1  0
 31 30  1  0
 32 33  1  0
 34 28  1  0
 35 34  2  0
 36 34  1  0
M  END
$$$$
