YWK.pdb
     RDKit          3D

 36 38  0  0  1  0  0  0  0  0999 V2000
   30.1914  -16.2504  -18.2456 O   0  0  0  0  0  0  0  0  0  0  0  0
   29.5464  -16.9256  -17.1915 C   0  0  0  0  0  0  0  0  0  0  0  0
   30.2580  -17.4584  -16.1389 C   0  0  0  0  0  0  0  0  0  0  0  0
   29.6516  -18.1216  -15.0983 C   0  0  0  0  0  0  0  0  0  0  0  0
   28.2882  -18.2702  -15.0870 C   0  0  0  0  0  0  0  0  0  0  0  0
   27.5647  -18.9761  -13.9942 C   0  0  0  0  0  0  0  0  0  0  0  0
   28.0601  -20.3900  -13.8024 C   0  0  2  0  0  0  0  0  0  0  0  0
   28.1125  -21.1042  -15.0397 N   0  0  0  0  0  0  0  0  0  0  0  0
   27.1118  -21.0376  -12.8364 C   0  0  0  0  0  0  0  0  0  0  0  0
   26.0869  -21.6323  -13.1946 O   0  0  0  0  0  0  0  0  0  0  0  0
   27.5642  -17.7422  -16.1332 C   0  0  0  0  0  0  0  0  0  0  0  0
   28.1771  -17.0780  -17.1744 C   0  0  0  0  0  0  0  0  0  0  0  0
   27.4030  -20.9643  -11.4593 N   0  0  0  0  0  0  0  0  0  0  0  0
   26.5500  -21.5015  -10.4201 C   0  0  1  0  0  0  0  0  0  0  0  0
   27.2873  -21.7947   -9.1564 C   0  0  0  0  0  0  0  0  0  0  0  0
   27.2950  -20.5740   -8.3120 C   0  0  0  0  0  0  0  0  0  0  0  0
   26.6612  -19.3511   -8.5522 C   0  0  0  0  0  0  0  0  0  0  0  0
   26.9154  -18.4966   -7.5504 N   0  0  0  0  0  0  0  0  0  0  0  0
   27.6958  -19.0977   -6.6455 C   0  0  0  0  0  0  0  0  0  0  0  0
   28.2277  -18.6548   -5.4547 C   0  0  0  0  0  0  0  0  0  0  0  0
   29.0225  -19.4498   -4.6565 C   0  0  0  0  0  0  0  0  0  0  0  0
   29.2632  -20.7358   -5.1185 C   0  0  0  0  0  0  0  0  0  0  0  0
   28.7282  -21.1886   -6.3210 C   0  0  0  0  0  0  0  0  0  0  0  0
   27.9460  -20.3794   -7.0885 C   0  0  0  0  0  0  0  0  0  0  0  0
   25.3467  -20.6586  -10.2049 C   0  0  0  0  0  0  0  0  0  0  0  0
   25.4358  -19.4201  -10.0022 O   0  0  0  0  0  0  0  0  0  0  0  0
   24.0271  -21.1818  -10.2121 N   0  0  0  0  0  0  0  0  0  0  0  0
   22.8940  -20.4380  -10.8201 C   0  0  1  0  0  0  0  0  0  0  0  0
   22.6963  -20.8896  -12.2258 C   0  0  0  0  0  0  0  0  0  0  0  0
   21.5363  -20.2073  -12.8723 C   0  0  0  0  0  0  0  0  0  0  0  0
   21.4816  -20.7331  -14.3145 C   0  0  0  0  0  0  0  0  0  0  0  0
   20.3218  -20.1121  -15.0598 C   0  0  0  0  0  0  0  0  0  0  0  0
   20.1544  -20.7217  -16.3552 N   0  0  0  0  0  0  0  0  0  0  0  0
   21.7266  -20.7476   -9.9919 C   0  0  0  0  0  0  0  0  0  0  0  0
   21.5044  -21.8892   -9.5430 O   0  0  0  0  0  0  0  0  0  0  0  0
   20.8104  -19.7639   -9.6716 O   0  0  0  0  0  0  0  0  0  0  0  0
  2  1  1  0
  2 12  2  0
  3  2  1  0
  4  3  2  0
  4  5  1  0
  5 11  2  0
  6  5  1  0
  7  6  1  0
  7  8  1  6
  9 13  1  0
  9  7  1  0
 10  9  2  0
 11 12  1  0
 14 15  1  1
 14 13  1  0
 16 15  1  0
 17 16  2  0
 18 17  1  0
 19 24  2  0
 19 18  1  0
 20 19  1  0
 21 20  2  0
 21 22  1  0
 22 23  2  0
 23 24  1  0
 24 16  1  0
 25 14  1  0
 25 27  1  0
 26 25  2  0
 28 27  1  0
 28 29  1  6
 30 29  1  0
 31 32  1  0
 31 30  1  0
 32 33  1  0
 34 28  1  0
 35 34  2  0
 36 34  1  0
M  END
$$$$
