YWK.pdb
     RDKit          3D

 36 38  0  0  1  0  0  0  0  0999 V2000
   29.2772  -16.7376  -21.3477 O   0  0  0  0  0  0  0  0  0  0  0  0
   28.6396  -17.5653  -20.4036 C   0  0  0  0  0  0  0  0  0  0  0  0
   28.3860  -18.8932  -20.6689 C   0  0  0  0  0  0  0  0  0  0  0  0
   27.7652  -19.7216  -19.7639 C   0  0  0  0  0  0  0  0  0  0  0  0
   27.3751  -19.2286  -18.5450 C   0  0  0  0  0  0  0  0  0  0  0  0
   26.6984  -20.0665  -17.5173 C   0  0  0  0  0  0  0  0  0  0  0  0
   27.5950  -20.3566  -16.3370 C   0  0  2  0  0  0  0  0  0  0  0  0
   28.6356  -21.2761  -16.6770 N   0  0  0  0  0  0  0  0  0  0  0  0
   26.7054  -20.9099  -15.2626 C   0  0  0  0  0  0  0  0  0  0  0  0
   26.5756  -22.1231  -15.0538 O   0  0  0  0  0  0  0  0  0  0  0  0
   27.6225  -17.9025  -18.2663 C   0  0  0  0  0  0  0  0  0  0  0  0
   28.2454  -17.0760  -19.1773 C   0  0  0  0  0  0  0  0  0  0  0  0
   25.9859  -20.0055  -14.4558 N   0  0  0  0  0  0  0  0  0  0  0  0
   25.1773  -20.3974  -13.3205 C   0  0  1  0  0  0  0  0  0  0  0  0
   25.3931  -19.5297  -12.1258 C   0  0  0  0  0  0  0  0  0  0  0  0
   26.2507  -20.2551  -11.1555 C   0  0  0  0  0  0  0  0  0  0  0  0
   25.9072  -20.7399   -9.8899 C   0  0  0  0  0  0  0  0  0  0  0  0
   26.9666  -21.3346   -9.3220 N   0  0  0  0  0  0  0  0  0  0  0  0
   28.0094  -21.2684  -10.1569 C   0  0  0  0  0  0  0  0  0  0  0  0
   29.3045  -21.7236  -10.0442 C   0  0  0  0  0  0  0  0  0  0  0  0
   30.2412  -21.5488  -11.0407 C   0  0  0  0  0  0  0  0  0  0  0  0
   29.8086  -20.8824  -12.1784 C   0  0  0  0  0  0  0  0  0  0  0  0
   28.5011  -20.4205  -12.2975 C   0  0  0  0  0  0  0  0  0  0  0  0
   27.5976  -20.6083  -11.2955 C   0  0  0  0  0  0  0  0  0  0  0  0
   23.7444  -20.5325  -13.6855 C   0  0  0  0  0  0  0  0  0  0  0  0
   23.1302  -19.6211  -14.2979 O   0  0  0  0  0  0  0  0  0  0  0  0
   22.9744  -21.6837  -13.3742 N   0  0  0  0  0  0  0  0  0  0  0  0
   21.5289  -21.7709  -13.7051 C   0  0  1  0  0  0  0  0  0  0  0  0
   21.0925  -23.1948  -13.6683 C   0  0  0  0  0  0  0  0  0  0  0  0
   19.6423  -23.3417  -13.9917 C   0  0  0  0  0  0  0  0  0  0  0  0
   19.3565  -24.8509  -13.9948 C   0  0  0  0  0  0  0  0  0  0  0  0
   17.8934  -25.1111  -14.2737 C   0  0  0  0  0  0  0  0  0  0  0  0
   17.6047  -26.5230  -14.2422 N   0  0  0  0  0  0  0  0  0  0  0  0
   20.8402  -20.9762  -12.6859 C   0  0  0  0  0  0  0  0  0  0  0  0
   19.8631  -20.2477  -12.9481 O   0  0  0  0  0  0  0  0  0  0  0  0
   21.2579  -21.0067  -11.3690 O   0  0  0  0  0  0  0  0  0  0  0  0
  2  1  1  0
  2 12  2  0
  3  2  1  0
  4  3  2  0
  4  5  1  0
  5 11  2  0
  6  5  1  0
  7  6  1  0
  7  8  1  6
  9 13  1  0
  9  7  1  0
 10  9  2  0
 11 12  1  0
 14 15  1  1
 14 13  1  0
 16 15  1  0
 17 16  2  0
 18 17  1  0
 19 24  2  0
 19 18  1  0
 20 19  1  0
 21 20  2  0
 21 22  1  0
 22 23  2  0
 23 24  1  0
 24 16  1  0
 25 14  1  0
 25 27  1  0
 26 25  2  0
 28 27  1  0
 28 29  1  1
 30 29  1  0
 31 32  1  0
 31 30  1  0
 32 33  1  0
 34 28  1  0
 35 34  2  0
 36 34  1  0
M  END
$$$$
