YWK.pdb
     RDKit          3D

 36 38  0  0  1  0  0  0  0  0999 V2000
   30.2323  -16.5731  -19.0425 O   0  0  0  0  0  0  0  0  0  0  0  0
   29.5170  -17.2459  -18.0331 C   0  0  0  0  0  0  0  0  0  0  0  0
   28.3755  -17.9625  -18.3188 C   0  0  0  0  0  0  0  0  0  0  0  0
   27.6598  -18.6277  -17.3514 C   0  0  0  0  0  0  0  0  0  0  0  0
   28.0797  -18.5900  -16.0463 C   0  0  0  0  0  0  0  0  0  0  0  0
   27.3552  -19.2856  -14.9475 C   0  0  0  0  0  0  0  0  0  0  0  0
   28.0286  -20.5771  -14.5482 C   0  0  2  0  0  0  0  0  0  0  0  0
   27.9734  -21.5481  -15.5960 N   0  0  0  0  0  0  0  0  0  0  0  0
   27.3149  -21.0577  -13.3187 C   0  0  0  0  0  0  0  0  0  0  0  0
   26.3137  -21.7843  -13.3615 O   0  0  0  0  0  0  0  0  0  0  0  0
   29.2196  -17.8771  -15.7464 C   0  0  0  0  0  0  0  0  0  0  0  0
   29.9338  -17.2118  -16.7202 C   0  0  0  0  0  0  0  0  0  0  0  0
   27.8088  -20.6627  -12.0590 N   0  0  0  0  0  0  0  0  0  0  0  0
   27.1362  -20.9278  -10.8046 C   0  0  1  0  0  0  0  0  0  0  0  0
   27.9454  -20.5301   -9.6156 C   0  0  0  0  0  0  0  0  0  0  0  0
   27.0842  -20.5903   -8.4082 C   0  0  0  0  0  0  0  0  0  0  0  0
   25.7389  -20.9615   -8.3218 C   0  0  0  0  0  0  0  0  0  0  0  0
   25.3200  -20.8801   -7.0505 N   0  0  0  0  0  0  0  0  0  0  0  0
   26.3316  -20.4685   -6.2784 C   0  0  0  0  0  0  0  0  0  0  0  0
   26.4135  -20.2308   -4.9242 C   0  0  0  0  0  0  0  0  0  0  0  0
   27.5740  -19.8023   -4.3155 C   0  0  0  0  0  0  0  0  0  0  0  0
   28.6705  -19.6200   -5.1462 C   0  0  0  0  0  0  0  0  0  0  0  0
   28.5933  -19.8588   -6.5152 C   0  0  0  0  0  0  0  0  0  0  0  0
   27.4321  -20.2819   -7.0882 C   0  0  0  0  0  0  0  0  0  0  0  0
   25.7637  -20.3615  -10.7853 C   0  0  0  0  0  0  0  0  0  0  0  0
   25.5621  -19.1208  -10.7322 O   0  0  0  0  0  0  0  0  0  0  0  0
   24.5960  -21.1678  -10.8247 N   0  0  0  0  0  0  0  0  0  0  0  0
   23.2950  -20.6373  -11.3070 C   0  0  1  0  0  0  0  0  0  0  0  0
   22.7401  -21.5456  -12.3492 C   0  0  0  0  0  0  0  0  0  0  0  0
   21.3711  -21.1314  -12.7777 C   0  0  0  0  0  0  0  0  0  0  0  0
   20.9110  -22.1766  -13.8049 C   0  0  0  0  0  0  0  0  0  0  0  0
   19.5149  -21.8604  -14.2917 C   0  0  0  0  0  0  0  0  0  0  0  0
   19.0560  -22.8562  -15.2273 N   0  0  0  0  0  0  0  0  0  0  0  0
   22.4268  -20.5852  -10.1288 C   0  0  0  0  0  0  0  0  0  0  0  0
   22.6127  -21.3000   -9.1245 O   0  0  0  0  0  0  0  0  0  0  0  0
   21.3477  -19.7229  -10.0877 O   0  0  0  0  0  0  0  0  0  0  0  0
  2  1  1  0
  2 12  2  0
  3  2  1  0
  4  3  2  0
  4  5  1  0
  5 11  2  0
  6  5  1  0
  7  6  1  0
  7  8  1  6
  9 13  1  0
  9  7  1  0
 10  9  2  0
 11 12  1  0
 14 15  1  1
 14 13  1  0
 16 15  1  0
 17 16  2  0
 18 17  1  0
 19 24  2  0
 19 18  1  0
 20 19  1  0
 21 20  2  0
 21 22  1  0
 22 23  2  0
 23 24  1  0
 24 16  1  0
 25 14  1  0
 25 27  1  0
 26 25  2  0
 28 27  1  0
 28 29  1  6
 30 29  1  0
 31 32  1  0
 31 30  1  0
 32 33  1  0
 34 28  1  0
 35 34  2  0
 36 34  1  0
M  END
$$$$
