YWK.pdb
     RDKit          3D

 36 38  0  0  1  0  0  0  0  0999 V2000
   29.8931  -18.8019  -20.3399 O   0  0  0  0  0  0  0  0  0  0  0  0
   29.2292  -19.1935  -19.1613 C   0  0  0  0  0  0  0  0  0  0  0  0
   29.5175  -18.6093  -17.9475 C   0  0  0  0  0  0  0  0  0  0  0  0
   28.8834  -18.9741  -16.7832 C   0  0  0  0  0  0  0  0  0  0  0  0
   27.9244  -19.9542  -16.8079 C   0  0  0  0  0  0  0  0  0  0  0  0
   27.1978  -20.3999  -15.5874 C   0  0  0  0  0  0  0  0  0  0  0  0
   28.0280  -21.3330  -14.7381 C   0  0  2  0  0  0  0  0  0  0  0  0
   28.2725  -22.5754  -15.4020 N   0  0  0  0  0  0  0  0  0  0  0  0
   27.2591  -21.5348  -13.4653 C   0  0  0  0  0  0  0  0  0  0  0  0
   26.2378  -22.2310  -13.3982 O   0  0  0  0  0  0  0  0  0  0  0  0
   27.6260  -20.5470  -18.0150 C   0  0  0  0  0  0  0  0  0  0  0  0
   28.2648  -20.1776  -19.1796 C   0  0  0  0  0  0  0  0  0  0  0  0
   27.7226  -20.9021  -12.2942 N   0  0  0  0  0  0  0  0  0  0  0  0
   27.0023  -20.8919  -11.0384 C   0  0  1  0  0  0  0  0  0  0  0  0
   27.8004  -20.3196   -9.9149 C   0  0  0  0  0  0  0  0  0  0  0  0
   26.9448  -20.2551   -8.7037 C   0  0  0  0  0  0  0  0  0  0  0  0
   25.5563  -20.3940   -8.6161 C   0  0  0  0  0  0  0  0  0  0  0  0
   25.1608  -20.2663   -7.3411 N   0  0  0  0  0  0  0  0  0  0  0  0
   26.2297  -20.0467   -6.5677 C   0  0  0  0  0  0  0  0  0  0  0  0
   26.3545  -19.8514   -5.2100 C   0  0  0  0  0  0  0  0  0  0  0  0
   27.5726  -19.6375   -4.6006 C   0  0  0  0  0  0  0  0  0  0  0  0
   28.6818  -19.6286   -5.4343 C   0  0  0  0  0  0  0  0  0  0  0  0
   28.5614  -19.8255   -6.8069 C   0  0  0  0  0  0  0  0  0  0  0  0
   27.3436  -20.0346   -7.3805 C   0  0  0  0  0  0  0  0  0  0  0  0
   25.6644  -20.2627  -11.1761 C   0  0  0  0  0  0  0  0  0  0  0  0
   25.5341  -19.0398  -11.4416 O   0  0  0  0  0  0  0  0  0  0  0  0
   24.4525  -20.9852  -11.0204 N   0  0  0  0  0  0  0  0  0  0  0  0
   23.1366  -20.3898  -11.3675 C   0  0  1  0  0  0  0  0  0  0  0  0
   22.6719  -20.9316  -12.6751 C   0  0  0  0  0  0  0  0  0  0  0  0
   21.9283  -22.2161  -12.5134 C   0  0  0  0  0  0  0  0  0  0  0  0
   21.5708  -22.6837  -13.9322 C   0  0  0  0  0  0  0  0  0  0  0  0
   20.7102  -23.9257  -13.8781 C   0  0  0  0  0  0  0  0  0  0  0  0
   20.3123  -24.3365  -15.2013 N   0  0  0  0  0  0  0  0  0  0  0  0
   22.2306  -20.7695  -10.2814 C   0  0  0  0  0  0  0  0  0  0  0  0
   22.5009  -21.6719   -9.4649 O   0  0  0  0  0  0  0  0  0  0  0  0
   21.0181  -20.1267  -10.1195 O   0  0  0  0  0  0  0  0  0  0  0  0
  2  1  1  0
  2 12  2  0
  3  2  1  0
  4  3  2  0
  4  5  1  0
  5 11  2  0
  6  5  1  0
  7  6  1  0
  7  8  1  6
  9 13  1  0
  9  7  1  0
 10  9  2  0
 11 12  1  0
 14 15  1  1
 14 13  1  0
 16 15  1  0
 17 16  2  0
 18 17  1  0
 19 24  2  0
 19 18  1  0
 20 19  1  0
 21 20  2  0
 21 22  1  0
 22 23  2  0
 23 24  1  0
 24 16  1  0
 25 14  1  0
 25 27  1  0
 26 25  2  0
 28 27  1  0
 28 29  1  6
 30 29  1  0
 31 32  1  0
 31 30  1  0
 32 33  1  0
 34 28  1  0
 35 34  2  0
 36 34  1  0
M  END
$$$$
