MYW.pdb
     RDKit          3D

 35 37  0  0  1  0  0  0  0  0999 V2000
   23.7335  -14.8770  -23.8756 C   0  0  0  0  0  0  0  0  0  0  0  0
   22.9269  -13.7605  -22.7009 S   0  0  0  0  0  0  0  0  0  0  0  0
   23.6105  -14.0004  -21.0310 C   0  0  0  0  0  0  0  0  0  0  0  0
   22.8554  -13.1154  -20.0696 C   0  0  0  0  0  0  0  0  0  0  0  0
   23.4269  -13.2409  -18.6687 C   0  0  2  0  0  0  0  0  0  0  0  0
   23.0903  -14.5695  -18.1296 N   0  0  0  0  0  0  0  0  0  0  0  0
   22.7906  -12.2541  -17.7558 C   0  0  0  0  0  0  0  0  0  0  0  0
   21.6863  -12.4788  -17.1991 O   0  0  0  0  0  0  0  0  0  0  0  0
   22.1892   -4.8676  -12.8449 O   0  0  0  0  0  0  0  0  0  0  0  0
   22.5702   -5.9969  -13.5543 C   0  0  0  0  0  0  0  0  0  0  0  0
   23.2706   -5.8615  -14.7355 C   0  0  0  0  0  0  0  0  0  0  0  0
   23.6828   -6.9287  -15.4947 C   0  0  0  0  0  0  0  0  0  0  0  0
   23.3634   -8.1986  -15.0230 C   0  0  0  0  0  0  0  0  0  0  0  0
   23.7479   -9.3977  -15.7486 C   0  0  0  0  0  0  0  0  0  0  0  0
   22.7312   -9.9565  -16.6997 C   0  0  2  0  0  0  0  0  0  0  0  0
   23.3940  -11.0000  -17.4603 N   0  0  0  0  0  0  0  0  0  0  0  0
   22.2838   -8.9266  -17.6747 C   0  0  0  0  0  0  0  0  0  0  0  0
   22.9791   -8.6511  -18.7071 O   0  0  0  0  0  0  0  0  0  0  0  0
   22.6599   -8.3482  -13.8371 C   0  0  0  0  0  0  0  0  0  0  0  0
   22.2633   -7.2557  -13.1033 C   0  0  0  0  0  0  0  0  0  0  0  0
   21.0810   -8.2275  -17.4852 N   0  0  0  0  0  0  0  0  0  0  0  0
   20.6638   -7.1474  -18.4049 C   0  0  1  0  0  0  0  0  0  0  0  0
   19.8885   -7.7744  -19.5143 C   0  0  0  0  0  0  0  0  0  0  0  0
   18.6189   -8.3691  -19.1154 C   0  0  0  0  0  0  0  0  0  0  0  0
   17.7692   -7.8809  -18.1252 C   0  0  0  0  0  0  0  0  0  0  0  0
   16.7213   -8.7143  -18.0233 N   0  0  0  0  0  0  0  0  0  0  0  0
   16.8624   -9.7211  -18.9110 C   0  0  0  0  0  0  0  0  0  0  0  0
   16.0633  -10.8039  -19.2076 C   0  0  0  0  0  0  0  0  0  0  0  0
   16.4163  -11.7020  -20.1895 C   0  0  0  0  0  0  0  0  0  0  0  0
   17.5864  -11.5330  -20.9006 C   0  0  0  0  0  0  0  0  0  0  0  0
   18.3588  -10.4410  -20.5761 C   0  0  0  0  0  0  0  0  0  0  0  0
   18.0440   -9.5200  -19.6022 C   0  0  0  0  0  0  0  0  0  0  0  0
   19.9490   -6.1226  -17.6734 C   0  0  0  0  0  0  0  0  0  0  0  0
   19.6183   -6.2388  -16.4819 O   0  0  0  0  0  0  0  0  0  0  0  0
   19.6010   -4.9304  -18.3167 O   0  0  0  0  0  0  0  0  0  0  0  0
  2  1  1  0
  3  2  1  0
  4  3  1  0
  5  4  1  0
  5  6  1  1
  7  5  1  0
  7  8  2  0
  9 10  1  0
 10 11  2  0
 10 20  1  0
 11 12  1  0
 12 13  2  0
 13 14  1  0
 15 14  1  1
 15 17  1  0
 15 16  1  0
 16  7  1  0
 17 21  1  0
 18 17  2  0
 19 13  1  0
 20 19  2  0
 21 22  1  0
 22 33  1  0
 23 24  1  0
 22 23  1  6
 24 25  2  0
 26 25  1  0
 27 26  1  0
 28 27  2  0
 29 28  1  0
 30 29  2  0
 30 31  1  0
 31 32  2  0
 32 27  1  0
 32 24  1  0
 33 34  2  0
 33 35  1  0
M  END
$$$$
