MYW.pdb
     RDKit          3D

 35 37  0  0  1  0  0  0  0  0999 V2000
   30.5979  -18.1241  -17.1808 C   0  0  0  0  0  0  0  0  0  0  0  0
   29.0970  -18.3328  -16.1903 S   0  0  0  0  0  0  0  0  0  0  0  0
   28.0582  -16.8418  -16.2970 C   0  0  0  0  0  0  0  0  0  0  0  0
   26.9163  -16.9793  -15.3199 C   0  0  0  0  0  0  0  0  0  0  0  0
   26.1134  -18.2344  -15.6116 C   0  0  2  0  0  0  0  0  0  0  0  0
   25.2327  -17.9842  -16.7652 N   0  0  0  0  0  0  0  0  0  0  0  0
   25.2147  -18.5553  -14.4708 C   0  0  0  0  0  0  0  0  0  0  0  0
   24.4287  -17.7041  -13.9835 O   0  0  0  0  0  0  0  0  0  0  0  0
   18.8166  -19.1749  -15.6254 O   0  0  0  0  0  0  0  0  0  0  0  0
   19.9531  -19.6697  -15.0030 C   0  0  0  0  0  0  0  0  0  0  0  0
   20.0706  -19.5968  -13.6300 C   0  0  0  0  0  0  0  0  0  0  0  0
   21.1624  -20.0634  -12.9405 C   0  0  0  0  0  0  0  0  0  0  0  0
   22.1860  -20.6335  -13.6918 C   0  0  0  0  0  0  0  0  0  0  0  0
   23.3883  -21.1562  -13.0648 C   0  0  0  0  0  0  0  0  0  0  0  0
   24.4273  -20.1483  -12.6708 C   0  0  2  0  0  0  0  0  0  0  0  0
   25.1927  -19.8426  -13.8655 N   0  0  0  0  0  0  0  0  0  0  0  0
   25.3790  -20.7165  -11.6794 C   0  0  0  0  0  0  0  0  0  0  0  0
   26.0617  -21.7598  -11.9449 O   0  0  0  0  0  0  0  0  0  0  0  0
   22.0800  -20.7126  -15.0724 C   0  0  0  0  0  0  0  0  0  0  0  0
   20.9711  -20.2345  -15.7288 C   0  0  0  0  0  0  0  0  0  0  0  0
   25.5526  -20.1187  -10.4209 N   0  0  0  0  0  0  0  0  0  0  0  0
   26.4562  -20.7041   -9.4072 C   0  0  1  0  0  0  0  0  0  0  0  0
   27.2313  -19.5863   -8.7951 C   0  0  0  0  0  0  0  0  0  0  0  0
   28.1939  -19.9922   -7.7785 C   0  0  0  0  0  0  0  0  0  0  0  0
   29.2110  -20.9284   -7.9514 C   0  0  0  0  0  0  0  0  0  0  0  0
   29.8638  -21.0587   -6.7852 N   0  0  0  0  0  0  0  0  0  0  0  0
   29.3068  -20.2412   -5.8669 C   0  0  0  0  0  0  0  0  0  0  0  0
   29.6159  -19.9960   -4.5466 C   0  0  0  0  0  0  0  0  0  0  0  0
   28.9005  -19.0826   -3.8053 C   0  0  0  0  0  0  0  0  0  0  0  0
   27.8523  -18.3903   -4.3755 C   0  0  0  0  0  0  0  0  0  0  0  0
   27.5726  -18.6622   -5.6955 C   0  0  0  0  0  0  0  0  0  0  0  0
   28.2611  -19.5669   -6.4721 C   0  0  0  0  0  0  0  0  0  0  0  0
   25.6955  -21.4977   -8.4650 C   0  0  0  0  0  0  0  0  0  0  0  0
   24.5414  -21.2115   -8.1061 O   0  0  0  0  0  0  0  0  0  0  0  0
   26.2648  -22.6512   -7.9157 O   0  0  0  0  0  0  0  0  0  0  0  0
  2  1  1  0
  3  2  1  0
  4  3  1  0
  5  4  1  0
  5  6  1  6
  7  5  1  0
  7  8  2  0
  9 10  1  0
 10 11  2  0
 10 20  1  0
 11 12  1  0
 12 13  2  0
 13 14  1  0
 15 14  1  6
 15 17  1  0
 15 16  1  0
 16  7  1  0
 17 21  1  0
 18 17  2  0
 19 13  1  0
 20 19  2  0
 21 22  1  0
 22 33  1  0
 23 24  1  0
 22 23  1  1
 24 25  2  0
 26 25  1  0
 27 26  1  0
 28 27  2  0
 29 28  1  0
 30 29  2  0
 30 31  1  0
 31 32  2  0
 32 27  1  0
 32 24  1  0
 33 34  2  0
 33 35  1  0
M  END
$$$$
