MYW.pdb
     RDKit          3D

 35 37  0  0  1  0  0  0  0  0999 V2000
   31.1696  -24.5123  -20.2495 C   0  0  0  0  0  0  0  0  0  0  0  0
   29.9406  -23.4449  -19.4574 S   0  0  0  0  0  0  0  0  0  0  0  0
   30.7263  -22.4245  -18.1710 C   0  0  0  0  0  0  0  0  0  0  0  0
   29.6597  -21.6023  -17.4900 C   0  0  0  0  0  0  0  0  0  0  0  0
   29.0855  -22.3529  -16.3018 C   0  0  2  0  0  0  0  0  0  0  0  0
   28.1754  -23.4026  -16.7907 N   0  0  0  0  0  0  0  0  0  0  0  0
   28.2551  -21.4468  -15.4644 C   0  0  0  0  0  0  0  0  0  0  0  0
   28.7134  -20.3799  -14.9831 O   0  0  0  0  0  0  0  0  0  0  0  0
   25.3925  -17.0868  -19.5978 O   0  0  0  0  0  0  0  0  0  0  0  0
   25.2516  -17.9677  -18.5357 C   0  0  0  0  0  0  0  0  0  0  0  0
   24.9130  -17.4884  -17.2869 C   0  0  0  0  0  0  0  0  0  0  0  0
   24.7550  -18.2947  -16.1868 C   0  0  0  0  0  0  0  0  0  0  0  0
   24.9529  -19.6599  -16.3722 C   0  0  0  0  0  0  0  0  0  0  0  0
   24.8148  -20.6036  -15.2757 C   0  0  0  0  0  0  0  0  0  0  0  0
   26.0330  -20.8247  -14.4285 C   0  0  2  0  0  0  0  0  0  0  0  0
   26.8956  -21.7347  -15.1596 N   0  0  0  0  0  0  0  0  0  0  0  0
   25.6829  -21.4939  -13.1474 C   0  0  0  0  0  0  0  0  0  0  0  0
   24.8444  -22.4535  -13.1135 O   0  0  0  0  0  0  0  0  0  0  0  0
   25.2936  -20.1541  -17.6225 C   0  0  0  0  0  0  0  0  0  0  0  0
   25.4433  -19.3159  -18.7015 C   0  0  0  0  0  0  0  0  0  0  0  0
   26.2671  -21.0868  -11.9373 N   0  0  0  0  0  0  0  0  0  0  0  0
   25.8774  -21.6987  -10.6488 C   0  0  1  0  0  0  0  0  0  0  0  0
   27.0640  -21.6434   -9.7465 C   0  0  0  0  0  0  0  0  0  0  0  0
   27.0177  -20.5937   -8.7361 C   0  0  0  0  0  0  0  0  0  0  0  0
   25.9664  -19.7007   -8.5408 C   0  0  0  0  0  0  0  0  0  0  0  0
   26.3050  -18.8653   -7.5456 N   0  0  0  0  0  0  0  0  0  0  0  0
   27.5347  -19.1863   -7.0909 C   0  0  0  0  0  0  0  0  0  0  0  0
   28.3110  -18.6530   -6.0850 C   0  0  0  0  0  0  0  0  0  0  0  0
   29.5493  -19.1760   -5.7876 C   0  0  0  0  0  0  0  0  0  0  0  0
   30.0398  -20.2527   -6.4970 C   0  0  0  0  0  0  0  0  0  0  0  0
   29.2369  -20.7579   -7.4943 C   0  0  0  0  0  0  0  0  0  0  0  0
   27.9943  -20.2655   -7.8249 C   0  0  0  0  0  0  0  0  0  0  0  0
   24.6934  -21.0473  -10.1291 C   0  0  0  0  0  0  0  0  0  0  0  0
   24.0103  -21.5111   -9.2013 O   0  0  0  0  0  0  0  0  0  0  0  0
   24.2750  -19.8323  -10.6813 O   0  0  0  0  0  0  0  0  0  0  0  0
  2  1  1  0
  3  2  1  0
  4  3  1  0
  5  4  1  0
  5  6  1  6
  7  5  1  0
  7  8  2  0
  9 10  1  0
 10 11  2  0
 10 20  1  0
 11 12  1  0
 12 13  2  0
 13 14  1  0
 15 14  1  6
 15 17  1  0
 15 16  1  0
 16  7  1  0
 17 21  1  0
 18 17  2  0
 19 13  1  0
 20 19  2  0
 21 22  1  0
 22 33  1  0
 23 24  1  0
 22 23  1  1
 24 25  2  0
 26 25  1  0
 27 26  1  0
 28 27  2  0
 29 28  1  0
 30 29  2  0
 30 31  1  0
 31 32  2  0
 32 27  1  0
 32 24  1  0
 33 34  2  0
 33 35  1  0
M  END
$$$$
