MYW.pdb
     RDKit          3D

 35 37  0  0  1  0  0  0  0  0999 V2000
   30.7065  -23.6914  -15.0322 C   0  0  0  0  0  0  0  0  0  0  0  0
   30.3099  -23.7511  -16.7974 S   0  0  0  0  0  0  0  0  0  0  0  0
   29.9697  -22.0766  -17.4247 C   0  0  0  0  0  0  0  0  0  0  0  0
   29.4367  -21.2361  -16.2902 C   0  0  0  0  0  0  0  0  0  0  0  0
   28.0595  -20.6946  -16.6293 C   0  0  2  0  0  0  0  0  0  0  0  0
   28.2014  -19.5898  -17.5929 N   0  0  0  0  0  0  0  0  0  0  0  0
   27.4185  -20.1071  -15.4226 C   0  0  0  0  0  0  0  0  0  0  0  0
   27.6831  -18.9431  -15.0291 O   0  0  0  0  0  0  0  0  0  0  0  0
   22.1478  -15.9437  -16.5825 O   0  0  0  0  0  0  0  0  0  0  0  0
   22.6786  -17.0199  -15.8870 C   0  0  0  0  0  0  0  0  0  0  0  0
   23.3739  -17.9999  -16.5654 C   0  0  0  0  0  0  0  0  0  0  0  0
   23.9287  -19.0947  -15.9498 C   0  0  0  0  0  0  0  0  0  0  0  0
   23.7648  -19.1930  -14.5711 C   0  0  0  0  0  0  0  0  0  0  0  0
   24.3080  -20.3118  -13.8192 C   0  0  0  0  0  0  0  0  0  0  0  0
   25.7742  -20.2560  -13.5065 C   0  0  2  0  0  0  0  0  0  0  0  0
   26.4702  -20.8279  -14.6446 N   0  0  0  0  0  0  0  0  0  0  0  0
   26.1049  -21.0996  -12.3272 C   0  0  0  0  0  0  0  0  0  0  0  0
   26.3669  -22.3403  -12.4578 O   0  0  0  0  0  0  0  0  0  0  0  0
   23.0680  -18.2147  -13.8777 C   0  0  0  0  0  0  0  0  0  0  0  0
   22.5260  -17.1319  -14.5282 C   0  0  0  0  0  0  0  0  0  0  0  0
   26.1380  -20.5520  -11.0347 N   0  0  0  0  0  0  0  0  0  0  0  0
   26.3023  -21.4067   -9.8393 C   0  0  1  0  0  0  0  0  0  0  0  0
   27.6570  -21.1380   -9.2758 C   0  0  0  0  0  0  0  0  0  0  0  0
   27.6938  -20.1342   -8.2196 C   0  0  0  0  0  0  0  0  0  0  0  0
   26.9174  -18.9784   -8.1707 C   0  0  0  0  0  0  0  0  0  0  0  0
   27.2581  -18.2906   -7.0689 N   0  0  0  0  0  0  0  0  0  0  0  0
   28.2242  -18.9595   -6.4047 C   0  0  0  0  0  0  0  0  0  0  0  0
   28.8881  -18.6874   -5.2283 C   0  0  0  0  0  0  0  0  0  0  0  0
   29.8389  -19.5499   -4.7310 C   0  0  0  0  0  0  0  0  0  0  0  0
   30.1472  -20.7123   -5.4072 C   0  0  0  0  0  0  0  0  0  0  0  0
   29.4644  -20.9498   -6.5785 C   0  0  0  0  0  0  0  0  0  0  0  0
   28.5080  -20.1149   -7.1111 C   0  0  0  0  0  0  0  0  0  0  0  0
   25.2096  -21.1826   -8.9163 C   0  0  0  0  0  0  0  0  0  0  0  0
   25.0206  -21.8727   -7.9011 O   0  0  0  0  0  0  0  0  0  0  0  0
   24.3058  -20.1422   -9.1554 O   0  0  0  0  0  0  0  0  0  0  0  0
  2  1  1  0
  3  2  1  0
  4  3  1  0
  5  4  1  0
  5  6  1  6
  7  5  1  0
  7  8  2  0
  9 10  1  0
 10 11  2  0
 10 20  1  0
 11 12  1  0
 12 13  2  0
 13 14  1  0
 15 14  1  6
 15 17  1  0
 15 16  1  0
 16  7  1  0
 17 21  1  0
 18 17  2  0
 19 13  1  0
 20 19  2  0
 21 22  1  0
 22 33  1  0
 23 24  1  0
 22 23  1  1
 24 25  2  0
 26 25  1  0
 27 26  1  0
 28 27  2  0
 29 28  1  0
 30 29  2  0
 30 31  1  0
 31 32  2  0
 32 27  1  0
 32 24  1  0
 33 34  2  0
 33 35  1  0
M  END
$$$$
