MYW.pdb
     RDKit          3D

 35 37  0  0  1  0  0  0  0  0999 V2000
   27.9627  -14.5076  -21.5900 C   0  0  0  0  0  0  0  0  0  0  0  0
   27.3220  -16.1606  -21.2239 S   0  0  0  0  0  0  0  0  0  0  0  0
   27.2850  -16.4390  -19.4254 C   0  0  0  0  0  0  0  0  0  0  0  0
   26.6055  -17.7594  -19.1562 C   0  0  0  0  0  0  0  0  0  0  0  0
   27.4159  -18.5853  -18.1733 C   0  0  2  0  0  0  0  0  0  0  0  0
   28.5490  -19.2022  -18.8837 N   0  0  0  0  0  0  0  0  0  0  0  0
   26.6018  -19.7112  -17.6427 C   0  0  0  0  0  0  0  0  0  0  0  0
   25.7534  -20.3100  -18.3509 O   0  0  0  0  0  0  0  0  0  0  0  0
   30.3058  -25.4820  -18.0315 O   0  0  0  0  0  0  0  0  0  0  0  0
   29.4713  -24.6647  -17.2836 C   0  0  0  0  0  0  0  0  0  0  0  0
   29.9122  -23.4220  -16.8769 C   0  0  0  0  0  0  0  0  0  0  0  0
   29.1475  -22.5557  -16.1353 C   0  0  0  0  0  0  0  0  0  0  0  0
   27.8672  -22.9806  -15.7920 C   0  0  0  0  0  0  0  0  0  0  0  0
   26.9744  -22.1452  -15.0066 C   0  0  0  0  0  0  0  0  0  0  0  0
   25.9965  -21.3069  -15.7759 C   0  0  2  0  0  0  0  0  0  0  0  0
   26.7357  -20.1750  -16.3045 N   0  0  0  0  0  0  0  0  0  0  0  0
   24.9411  -20.7574  -14.8840 C   0  0  0  0  0  0  0  0  0  0  0  0
   25.2270  -19.9294  -13.9578 O   0  0  0  0  0  0  0  0  0  0  0  0
   27.4123  -24.2274  -16.1947 C   0  0  0  0  0  0  0  0  0  0  0  0
   28.2068  -25.0684  -16.9368 C   0  0  0  0  0  0  0  0  0  0  0  0
   23.5976  -21.1356  -15.0373 N   0  0  0  0  0  0  0  0  0  0  0  0
   22.5371  -20.5841  -14.1669 C   0  0  1  0  0  0  0  0  0  0  0  0
   22.6517  -19.0972  -14.2037 C   0  0  0  0  0  0  0  0  0  0  0  0
   21.5680  -18.3821  -13.5414 C   0  0  0  0  0  0  0  0  0  0  0  0
   21.2556  -18.4563  -12.1857 C   0  0  0  0  0  0  0  0  0  0  0  0
   20.1780  -17.6873  -11.9608 N   0  0  0  0  0  0  0  0  0  0  0  0
   19.7840  -17.1192  -13.1201 C   0  0  0  0  0  0  0  0  0  0  0  0
   18.7580  -16.2478  -13.4145 C   0  0  0  0  0  0  0  0  0  0  0  0
   18.5652  -15.7812  -14.6954 C   0  0  0  0  0  0  0  0  0  0  0  0
   19.4027  -16.1810  -15.7161 C   0  0  0  0  0  0  0  0  0  0  0  0
   20.4153  -17.0522  -15.3843 C   0  0  0  0  0  0  0  0  0  0  0  0
   20.6430  -17.5433  -14.1184 C   0  0  0  0  0  0  0  0  0  0  0  0
   21.2462  -21.0999  -14.5715 C   0  0  0  0  0  0  0  0  0  0  0  0
   20.2411  -21.0732  -13.8424 O   0  0  0  0  0  0  0  0  0  0  0  0
   21.0948  -21.6621  -15.8432 O   0  0  0  0  0  0  0  0  0  0  0  0
  2  1  1  0
  3  2  1  0
  4  3  1  0
  5  4  1  0
  5  6  1  6
  7  5  1  0
  7  8  2  0
  9 10  1  0
 10 11  2  0
 10 20  1  0
 11 12  1  0
 12 13  2  0
 13 14  1  0
 15 14  1  1
 15 17  1  0
 15 16  1  0
 16  7  1  0
 17 21  1  0
 18 17  2  0
 19 13  1  0
 20 19  2  0
 21 22  1  0
 22 33  1  0
 23 24  1  0
 22 23  1  6
 24 25  2  0
 26 25  1  0
 27 26  1  0
 28 27  2  0
 29 28  1  0
 30 29  2  0
 30 31  1  0
 31 32  2  0
 32 27  1  0
 32 24  1  0
 33 34  2  0
 33 35  1  0
M  END
$$$$
