MYW.pdb
     RDKit          3D

 35 37  0  0  1  0  0  0  0  0999 V2000
   23.4581   -2.7872  -23.1922 C   0  0  0  0  0  0  0  0  0  0  0  0
   24.4966   -4.1446  -23.7889 S   0  0  0  0  0  0  0  0  0  0  0  0
   25.2506   -5.0259  -22.3859 C   0  0  0  0  0  0  0  0  0  0  0  0
   24.1712   -5.3430  -21.3799 C   0  0  0  0  0  0  0  0  0  0  0  0
   24.7326   -6.1735  -20.2398 C   0  0  2  0  0  0  0  0  0  0  0  0
   25.1897   -7.4697  -20.7691 N   0  0  0  0  0  0  0  0  0  0  0  0
   23.6681   -6.4868  -19.2494 C   0  0  0  0  0  0  0  0  0  0  0  0
   23.2405   -7.6565  -19.0803 O   0  0  0  0  0  0  0  0  0  0  0  0
   20.0387   -7.8524  -11.6769 O   0  0  0  0  0  0  0  0  0  0  0  0
   20.7422   -7.5347  -12.8293 C   0  0  0  0  0  0  0  0  0  0  0  0
   21.2911   -6.2769  -12.9735 C   0  0  0  0  0  0  0  0  0  0  0  0
   22.0002   -5.8859  -14.0823 C   0  0  0  0  0  0  0  0  0  0  0  0
   22.1564   -6.8278  -15.0951 C   0  0  0  0  0  0  0  0  0  0  0  0
   22.8860   -6.5194  -16.3136 C   0  0  0  0  0  0  0  0  0  0  0  0
   22.1301   -5.7727  -17.3727 C   0  0  2  0  0  0  0  0  0  0  0  0
   23.0725   -5.4817  -18.4375 N   0  0  0  0  0  0  0  0  0  0  0  0
   21.6366   -4.4664  -16.8612 C   0  0  0  0  0  0  0  0  0  0  0  0
   22.4470   -3.5665  -16.4631 O   0  0  0  0  0  0  0  0  0  0  0  0
   21.6095   -8.0954  -14.9623 C   0  0  0  0  0  0  0  0  0  0  0  0
   20.9052   -8.4513  -13.8369 C   0  0  0  0  0  0  0  0  0  0  0  0
   20.2618   -4.1872  -16.8023 N   0  0  0  0  0  0  0  0  0  0  0  0
   19.7570   -2.9129  -16.2475 C   0  0  1  0  0  0  0  0  0  0  0  0
   18.8475   -2.3079  -17.2634 C   0  0  0  0  0  0  0  0  0  0  0  0
   17.6807   -3.1143  -17.5994 C   0  0  0  0  0  0  0  0  0  0  0  0
   16.6737   -3.4936  -16.7145 C   0  0  0  0  0  0  0  0  0  0  0  0
   15.7935   -4.2566  -17.3826 N   0  0  0  0  0  0  0  0  0  0  0  0
   16.1943   -4.3830  -18.6653 C   0  0  0  0  0  0  0  0  0  0  0  0
   15.6381   -5.0395  -19.7416 C   0  0  0  0  0  0  0  0  0  0  0  0
   16.2341   -5.0057  -20.9822 C   0  0  0  0  0  0  0  0  0  0  0  0
   17.4090   -4.3081  -21.1721 C   0  0  0  0  0  0  0  0  0  0  0  0
   17.9350   -3.6658  -20.0743 C   0  0  0  0  0  0  0  0  0  0  0  0
   17.3729   -3.6743  -18.8175 C   0  0  0  0  0  0  0  0  0  0  0  0
   19.1488   -3.1424  -14.9538 C   0  0  0  0  0  0  0  0  0  0  0  0
   18.8654   -4.2724  -14.5231 O   0  0  0  0  0  0  0  0  0  0  0  0
   18.8552   -2.0541  -14.1258 O   0  0  0  0  0  0  0  0  0  0  0  0
  2  1  1  0
  3  2  1  0
  4  3  1  0
  5  4  1  0
  5  6  1  6
  7  5  1  0
  7  8  2  0
  9 10  1  0
 10 11  2  0
 10 20  1  0
 11 12  1  0
 12 13  2  0
 13 14  1  0
 15 14  1  1
 15 17  1  0
 15 16  1  0
 16  7  1  0
 17 21  1  0
 18 17  2  0
 19 13  1  0
 20 19  2  0
 21 22  1  0
 22 33  1  0
 23 24  1  0
 22 23  1  6
 24 25  2  0
 26 25  1  0
 27 26  1  0
 28 27  2  0
 29 28  1  0
 30 29  2  0
 30 31  1  0
 31 32  2  0
 32 27  1  0
 32 24  1  0
 33 34  2  0
 33 35  1  0
M  END
$$$$
