MYW.pdb
     RDKit          3D

 35 37  0  0  1  0  0  0  0  0999 V2000
   35.6283  -27.7082  -21.5345 C   0  0  0  0  0  0  0  0  0  0  0  0
   37.0951  -28.6952  -21.1451 S   0  0  0  0  0  0  0  0  0  0  0  0
   37.8228  -28.1491  -19.5685 C   0  0  0  0  0  0  0  0  0  0  0  0
   39.0143  -29.0224  -19.2597 C   0  0  0  0  0  0  0  0  0  0  0  0
   39.5543  -28.7168  -17.8742 C   0  0  2  0  0  0  0  0  0  0  0  0
   40.3331  -27.4678  -17.9266 N   0  0  0  0  0  0  0  0  0  0  0  0
   40.5046  -29.7753  -17.4398 C   0  0  0  0  0  0  0  0  0  0  0  0
   41.6199  -29.9368  -17.9963 O   0  0  0  0  0  0  0  0  0  0  0  0
   44.0378  -35.6612  -11.8113 O   0  0  0  0  0  0  0  0  0  0  0  0
   43.3094  -34.6716  -12.4546 C   0  0  0  0  0  0  0  0  0  0  0  0
   41.9713  -34.8711  -12.7261 C   0  0  0  0  0  0  0  0  0  0  0  0
   41.1831  -33.9416  -13.3586 C   0  0  0  0  0  0  0  0  0  0  0  0
   41.7931  -32.7477  -13.7324 C   0  0  0  0  0  0  0  0  0  0  0  0
   41.0534  -31.6963  -14.4104 C   0  0  0  0  0  0  0  0  0  0  0  0
   41.1237  -31.6912  -15.9089 C   0  0  2  0  0  0  0  0  0  0  0  0
   40.2066  -30.6653  -16.3707 N   0  0  0  0  0  0  0  0  0  0  0  0
   40.6499  -32.9827  -16.4738 C   0  0  0  0  0  0  0  0  0  0  0  0
   39.4459  -33.1272  -16.8672 O   0  0  0  0  0  0  0  0  0  0  0  0
   43.1373  -32.5350  -13.4653 C   0  0  0  0  0  0  0  0  0  0  0  0
   43.8954  -33.4893  -12.8299 C   0  0  0  0  0  0  0  0  0  0  0  0
   41.5168  -34.0811  -16.5899 N   0  0  0  0  0  0  0  0  0  0  0  0
   41.0452  -35.3846  -17.1046 C   0  0  1  0  0  0  0  0  0  0  0  0
   40.4144  -35.1425  -18.4345 C   0  0  0  0  0  0  0  0  0  0  0  0
   39.8925  -36.3343  -19.0917 C   0  0  0  0  0  0  0  0  0  0  0  0
   38.7386  -37.0238  -18.7257 C   0  0  0  0  0  0  0  0  0  0  0  0
   38.6060  -38.0823  -19.5412 N   0  0  0  0  0  0  0  0  0  0  0  0
   39.6302  -38.1011  -20.4201 C   0  0  0  0  0  0  0  0  0  0  0  0
   39.9375  -38.9569  -21.4554 C   0  0  0  0  0  0  0  0  0  0  0  0
   41.0490  -38.7533  -22.2420 C   0  0  0  0  0  0  0  0  0  0  0  0
   41.8825  -37.6796  -22.0060 C   0  0  0  0  0  0  0  0  0  0  0  0
   41.5441  -36.8473  -20.9633 C   0  0  0  0  0  0  0  0  0  0  0  0
   40.4439  -37.0144  -20.1526 C   0  0  0  0  0  0  0  0  0  0  0  0
   42.1367  -36.3357  -17.1188 C   0  0  0  0  0  0  0  0  0  0  0  0
   43.3172  -36.0175  -17.3375 O   0  0  0  0  0  0  0  0  0  0  0  0
   41.8771  -37.6885  -16.8765 O   0  0  0  0  0  0  0  0  0  0  0  0
  2  1  1  0
  3  2  1  0
  4  3  1  0
  5  4  1  0
  5  6  1  6
  7  5  1  0
  7  8  2  0
  9 10  1  0
 10 11  2  0
 10 20  1  0
 11 12  1  0
 12 13  2  0
 13 14  1  0
 15 14  1  1
 15 17  1  0
 15 16  1  0
 16  7  1  0
 17 21  1  0
 18 17  2  0
 19 13  1  0
 20 19  2  0
 21 22  1  0
 22 33  1  0
 23 24  1  0
 22 23  1  6
 24 25  2  0
 26 25  1  0
 27 26  1  0
 28 27  2  0
 29 28  1  0
 30 29  2  0
 30 31  1  0
 31 32  2  0
 32 27  1  0
 32 24  1  0
 33 34  2  0
 33 35  1  0
M  END
$$$$
