MYW.pdb
     RDKit          3D

 35 37  0  0  1  0  0  0  0  0999 V2000
   26.0427  -19.7345  -20.7507 C   0  0  0  0  0  0  0  0  0  0  0  0
   27.7096  -19.1612  -20.3384 S   0  0  0  0  0  0  0  0  0  0  0  0
   28.5147  -20.3296  -19.1983 C   0  0  0  0  0  0  0  0  0  0  0  0
   27.5141  -20.7441  -18.1472 C   0  0  0  0  0  0  0  0  0  0  0  0
   28.1715  -21.6327  -17.1065 C   0  0  2  0  0  0  0  0  0  0  0  0
   28.4168  -22.9607  -17.6942 N   0  0  0  0  0  0  0  0  0  0  0  0
   27.2545  -21.8554  -15.9569 C   0  0  0  0  0  0  0  0  0  0  0  0
   26.3508  -22.7285  -15.9865 O   0  0  0  0  0  0  0  0  0  0  0  0
   24.4450  -20.5075   -7.5576 O   0  0  0  0  0  0  0  0  0  0  0  0
   25.1472  -20.5952   -8.7506 C   0  0  0  0  0  0  0  0  0  0  0  0
   24.5118  -20.3155   -9.9431 C   0  0  0  0  0  0  0  0  0  0  0  0
   25.1367  -20.3796  -11.1640 C   0  0  0  0  0  0  0  0  0  0  0  0
   26.4789  -20.7481  -11.1665 C   0  0  0  0  0  0  0  0  0  0  0  0
   27.2364  -20.8507  -12.4025 C   0  0  0  0  0  0  0  0  0  0  0  0
   26.4760  -21.2988  -13.6156 C   0  0  2  0  0  0  0  0  0  0  0  0
   27.3468  -21.0940  -14.7586 N   0  0  0  0  0  0  0  0  0  0  0  0
   25.2686  -20.4585  -13.8340 C   0  0  0  0  0  0  0  0  0  0  0  0
   25.3693  -19.2522  -14.2337 O   0  0  0  0  0  0  0  0  0  0  0  0
   27.1289  -21.0319   -9.9746 C   0  0  0  0  0  0  0  0  0  0  0  0
   26.4703  -20.9571   -8.7705 C   0  0  0  0  0  0  0  0  0  0  0  0
   23.9816  -20.9713  -13.6059 N   0  0  0  0  0  0  0  0  0  0  0  0
   22.7854  -20.1036  -13.6587 C   0  0  1  0  0  0  0  0  0  0  0  0
   22.5955  -19.6836  -15.0774 C   0  0  0  0  0  0  0  0  0  0  0  0
   22.4202  -20.7790  -16.0230 C   0  0  0  0  0  0  0  0  0  0  0  0
   21.6693  -21.9313  -15.8005 C   0  0  0  0  0  0  0  0  0  0  0  0
   21.7760  -22.7173  -16.8840 N   0  0  0  0  0  0  0  0  0  0  0  0
   22.5667  -22.1151  -17.7973 C   0  0  0  0  0  0  0  0  0  0  0  0
   22.9667  -22.4952  -19.0600 C   0  0  0  0  0  0  0  0  0  0  0  0
   23.7753  -21.6851  -19.8251 C   0  0  0  0  0  0  0  0  0  0  0  0
   24.2035  -20.4677  -19.3375 C   0  0  0  0  0  0  0  0  0  0  0  0
   23.7846  -20.1224  -18.0727 C   0  0  0  0  0  0  0  0  0  0  0  0
   22.9777  -20.9018  -17.2745 C   0  0  0  0  0  0  0  0  0  0  0  0
   21.6508  -20.7881  -13.0752 C   0  0  0  0  0  0  0  0  0  0  0  0
   21.6934  -21.9637  -12.6768 O   0  0  0  0  0  0  0  0  0  0  0  0
   20.4324  -20.1146  -12.9405 O   0  0  0  0  0  0  0  0  0  0  0  0
  2  1  1  0
  3  2  1  0
  4  3  1  0
  5  4  1  0
  5  6  1  6
  7  5  1  0
  7  8  2  0
  9 10  1  0
 10 11  2  0
 10 20  1  0
 11 12  1  0
 12 13  2  0
 13 14  1  0
 15 14  1  1
 15 17  1  0
 15 16  1  0
 16  7  1  0
 17 21  1  0
 18 17  2  0
 19 13  1  0
 20 19  2  0
 21 22  1  0
 22 33  1  0
 23 24  1  0
 22 23  1  6
 24 25  2  0
 26 25  1  0
 27 26  1  0
 28 27  2  0
 29 28  1  0
 30 29  2  0
 30 31  1  0
 31 32  2  0
 32 27  1  0
 32 24  1  0
 33 34  2  0
 33 35  1  0
M  END
$$$$
