MYW.pdb
     RDKit          3D

 35 37  0  0  1  0  0  0  0  0999 V2000
   27.9643  -20.0581  -17.1016 C   0  0  0  0  0  0  0  0  0  0  0  0
   29.1927  -21.2304  -17.7290 S   0  0  0  0  0  0  0  0  0  0  0  0
   28.8146  -22.9129  -17.1462 C   0  0  0  0  0  0  0  0  0  0  0  0
   27.3285  -23.1438  -17.2722 C   0  0  0  0  0  0  0  0  0  0  0  0
   26.9568  -24.5199  -16.7497 C   0  0  2  0  0  0  0  0  0  0  0  0
   27.4719  -25.5415  -17.6772 N   0  0  0  0  0  0  0  0  0  0  0  0
   25.4792  -24.6892  -16.7318 C   0  0  0  0  0  0  0  0  0  0  0  0
   24.8022  -24.7345  -17.7898 O   0  0  0  0  0  0  0  0  0  0  0  0
   17.5205  -25.9078  -12.8727 O   0  0  0  0  0  0  0  0  0  0  0  0
   18.8644  -25.8479  -13.2107 C   0  0  0  0  0  0  0  0  0  0  0  0
   19.3701  -26.7034  -14.1680 C   0  0  0  0  0  0  0  0  0  0  0  0
   20.6868  -26.7063  -14.5573 C   0  0  0  0  0  0  0  0  0  0  0  0
   21.5294  -25.7883  -13.9371 C   0  0  0  0  0  0  0  0  0  0  0  0
   22.9416  -25.7073  -14.2705 C   0  0  0  0  0  0  0  0  0  0  0  0
   23.2983  -24.8708  -15.4637 C   0  0  2  0  0  0  0  0  0  0  0  0
   24.7474  -24.8093  -15.5177 N   0  0  0  0  0  0  0  0  0  0  0  0
   22.8104  -23.4747  -15.3069 C   0  0  0  0  0  0  0  0  0  0  0  0
   23.4009  -22.6541  -14.5303 O   0  0  0  0  0  0  0  0  0  0  0  0
   21.0334  -24.9230  -12.9733 C   0  0  0  0  0  0  0  0  0  0  0  0
   19.7084  -24.9492  -12.6089 C   0  0  0  0  0  0  0  0  0  0  0  0
   21.6838  -23.0205  -16.0111 N   0  0  0  0  0  0  0  0  0  0  0  0
   21.1543  -21.6532  -15.8193 C   0  0  1  0  0  0  0  0  0  0  0  0
   21.5910  -20.8330  -16.9863 C   0  0  0  0  0  0  0  0  0  0  0  0
   21.1426  -21.3244  -18.2833 C   0  0  0  0  0  0  0  0  0  0  0  0
   19.8193  -21.5622  -18.6481 C   0  0  0  0  0  0  0  0  0  0  0  0
   19.8095  -22.0401  -19.9029 N   0  0  0  0  0  0  0  0  0  0  0  0
   21.0765  -22.1187  -20.3616 C   0  0  0  0  0  0  0  0  0  0  0  0
   21.5917  -22.5226  -21.5742 C   0  0  0  0  0  0  0  0  0  0  0  0
   22.9464  -22.4930  -21.8179 C   0  0  0  0  0  0  0  0  0  0  0  0
   23.8202  -22.0549  -20.8445 C   0  0  0  0  0  0  0  0  0  0  0  0
   23.2693  -21.6604  -19.6464 C   0  0  0  0  0  0  0  0  0  0  0  0
   21.9225  -21.6746  -19.3609 C   0  0  0  0  0  0  0  0  0  0  0  0
   19.7213  -21.7008  -15.6178 C   0  0  0  0  0  0  0  0  0  0  0  0
   19.0539  -20.7287  -15.2276 O   0  0  0  0  0  0  0  0  0  0  0  0
   19.0278  -22.8893  -15.8681 O   0  0  0  0  0  0  0  0  0  0  0  0
  2  1  1  0
  3  2  1  0
  4  3  1  0
  5  4  1  0
  5  6  1  6
  7  5  1  0
  7  8  2  0
  9 10  1  0
 10 11  2  0
 10 20  1  0
 11 12  1  0
 12 13  2  0
 13 14  1  0
 15 14  1  1
 15 17  1  0
 15 16  1  0
 16  7  1  0
 17 21  1  0
 18 17  2  0
 19 13  1  0
 20 19  2  0
 21 22  1  0
 22 33  1  0
 23 24  1  0
 22 23  1  6
 24 25  2  0
 26 25  1  0
 27 26  1  0
 28 27  2  0
 29 28  1  0
 30 29  2  0
 30 31  1  0
 31 32  2  0
 32 27  1  0
 32 24  1  0
 33 34  2  0
 33 35  1  0
M  END
$$$$
