MYW.pdb
     RDKit          3D

 35 37  0  0  1  0  0  0  0  0999 V2000
   33.3059  -22.0262   -9.5707 C   0  0  0  0  0  0  0  0  0  0  0  0
   33.5049  -23.2734  -10.8676 S   0  0  0  0  0  0  0  0  0  0  0  0
   33.0474  -22.5787  -12.4867 C   0  0  0  0  0  0  0  0  0  0  0  0
   32.0103  -21.5031  -12.2738 C   0  0  0  0  0  0  0  0  0  0  0  0
   30.6178  -22.0447  -12.5429 C   0  0  2  0  0  0  0  0  0  0  0  0
   30.4390  -22.2105  -13.9954 N   0  0  0  0  0  0  0  0  0  0  0  0
   29.5850  -21.0653  -12.1112 C   0  0  0  0  0  0  0  0  0  0  0  0
   29.8405  -20.1471  -11.2919 O   0  0  0  0  0  0  0  0  0  0  0  0
   28.8208  -16.4777  -17.1051 O   0  0  0  0  0  0  0  0  0  0  0  0
   28.2211  -17.3234  -16.1836 C   0  0  0  0  0  0  0  0  0  0  0  0
   27.6034  -16.7956  -15.0683 C   0  0  0  0  0  0  0  0  0  0  0  0
   26.9884  -17.5649  -14.1116 C   0  0  0  0  0  0  0  0  0  0  0  0
   27.0053  -18.9433  -14.3045 C   0  0  0  0  0  0  0  0  0  0  0  0
   26.3873  -19.8513  -13.3528 C   0  0  0  0  0  0  0  0  0  0  0  0
   27.2044  -20.2115  -12.1473 C   0  0  2  0  0  0  0  0  0  0  0  0
   28.2497  -21.1112  -12.5998 N   0  0  0  0  0  0  0  0  0  0  0  0
   26.3916  -20.9575  -11.1501 C   0  0  0  0  0  0  0  0  0  0  0  0
   25.9774  -22.1391  -11.3897 O   0  0  0  0  0  0  0  0  0  0  0  0
   27.6229  -19.4861  -15.4214 C   0  0  0  0  0  0  0  0  0  0  0  0
   28.2289  -18.6840  -16.3587 C   0  0  0  0  0  0  0  0  0  0  0  0
   26.0572  -20.3804   -9.9146 N   0  0  0  0  0  0  0  0  0  0  0  0
   25.1915  -21.0840   -8.9440 C   0  0  1  0  0  0  0  0  0  0  0  0
   26.0280  -21.4216   -7.7560 C   0  0  0  0  0  0  0  0  0  0  0  0
   26.7183  -20.2896   -7.1504 C   0  0  0  0  0  0  0  0  0  0  0  0
   26.7641  -18.9962   -7.6661 C   0  0  0  0  0  0  0  0  0  0  0  0
   27.5204  -18.2454   -6.8491 N   0  0  0  0  0  0  0  0  0  0  0  0
   27.9635  -19.0055   -5.8255 C   0  0  0  0  0  0  0  0  0  0  0  0
   28.7458  -18.7076   -4.7309 C   0  0  0  0  0  0  0  0  0  0  0  0
   29.0518  -19.6668   -3.7918 C   0  0  0  0  0  0  0  0  0  0  0  0
   28.5770  -20.9545   -3.9307 C   0  0  0  0  0  0  0  0  0  0  0  0
   27.7998  -21.2147   -5.0365 C   0  0  0  0  0  0  0  0  0  0  0  0
   27.4706  -20.2867   -5.9988 C   0  0  0  0  0  0  0  0  0  0  0  0
   24.0226  -20.2817   -8.6505 C   0  0  0  0  0  0  0  0  0  0  0  0
   23.2485  -20.5213   -7.7092 O   0  0  0  0  0  0  0  0  0  0  0  0
   23.7263  -19.1740   -9.4514 O   0  0  0  0  0  0  0  0  0  0  0  0
  2  1  1  0
  3  2  1  0
  4  3  1  0
  5  4  1  0
  5  6  1  6
  7  5  1  0
  7  8  2  0
  9 10  1  0
 10 11  2  0
 10 20  1  0
 11 12  1  0
 12 13  2  0
 13 14  1  0
 15 14  1  6
 15 17  1  0
 15 16  1  0
 16  7  1  0
 17 21  1  0
 18 17  2  0
 19 13  1  0
 20 19  2  0
 21 22  1  0
 22 33  1  0
 23 24  1  0
 22 23  1  1
 24 25  2  0
 26 25  1  0
 27 26  1  0
 28 27  2  0
 29 28  1  0
 30 29  2  0
 30 31  1  0
 31 32  2  0
 32 27  1  0
 32 24  1  0
 33 34  2  0
 33 35  1  0
M  END
$$$$
