MYW.pdb
     RDKit          3D

 35 37  0  0  1  0  0  0  0  0999 V2000
   30.1843  -20.6439  -18.4254 C   0  0  0  0  0  0  0  0  0  0  0  0
   29.0926  -20.2798  -17.0280 S   0  0  0  0  0  0  0  0  0  0  0  0
   28.6834  -18.5065  -16.9922 C   0  0  0  0  0  0  0  0  0  0  0  0
   27.8379  -18.2317  -15.7726 C   0  0  0  0  0  0  0  0  0  0  0  0
   26.5702  -19.0663  -15.8039 C   0  0  2  0  0  0  0  0  0  0  0  0
   25.6346  -18.4829  -16.7804 N   0  0  0  0  0  0  0  0  0  0  0  0
   25.8777  -19.0121  -14.4887 C   0  0  0  0  0  0  0  0  0  0  0  0
   25.6988  -17.9297  -13.8754 O   0  0  0  0  0  0  0  0  0  0  0  0
   19.2430  -18.6124  -15.7268 O   0  0  0  0  0  0  0  0  0  0  0  0
   20.2679  -19.2042  -15.0035 C   0  0  0  0  0  0  0  0  0  0  0  0
   21.1610  -18.4155  -14.3076 C   0  0  0  0  0  0  0  0  0  0  0  0
   22.2008  -18.9244  -13.5694 C   0  0  0  0  0  0  0  0  0  0  0  0
   22.3346  -20.3096  -13.5406 C   0  0  0  0  0  0  0  0  0  0  0  0
   23.4014  -20.9545  -12.7934 C   0  0  0  0  0  0  0  0  0  0  0  0
   24.6535  -20.1532  -12.5921 C   0  0  2  0  0  0  0  0  0  0  0  0
   25.3786  -20.1809  -13.8492 N   0  0  0  0  0  0  0  0  0  0  0  0
   25.5338  -20.7788  -11.5698 C   0  0  0  0  0  0  0  0  0  0  0  0
   26.0664  -21.9198  -11.7688 O   0  0  0  0  0  0  0  0  0  0  0  0
   21.4435  -21.1133  -14.2359 C   0  0  0  0  0  0  0  0  0  0  0  0
   20.4139  -20.5677  -14.9649 C   0  0  0  0  0  0  0  0  0  0  0  0
   25.8035  -20.1292  -10.3546 N   0  0  0  0  0  0  0  0  0  0  0  0
   26.5853  -20.7869   -9.2857 C   0  0  1  0  0  0  0  0  0  0  0  0
   27.6273  -19.8215   -8.8303 C   0  0  0  0  0  0  0  0  0  0  0  0
   28.4377  -20.2780   -7.7080 C   0  0  0  0  0  0  0  0  0  0  0  0
   29.2136  -21.4349   -7.6845 C   0  0  0  0  0  0  0  0  0  0  0  0
   29.7826  -21.5339   -6.4723 N   0  0  0  0  0  0  0  0  0  0  0  0
   29.4038  -20.4840   -5.7132 C   0  0  0  0  0  0  0  0  0  0  0  0
   29.7215  -20.1208   -4.4225 C   0  0  0  0  0  0  0  0  0  0  0  0
   29.2165  -18.9692   -3.8618 C   0  0  0  0  0  0  0  0  0  0  0  0
   28.3761  -18.1510   -4.5879 C   0  0  0  0  0  0  0  0  0  0  0  0
   28.0807  -18.5465   -5.8728 C   0  0  0  0  0  0  0  0  0  0  0  0
   28.5627  -19.6889   -6.4714 C   0  0  0  0  0  0  0  0  0  0  0  0
   25.6993  -21.2556   -8.2409 C   0  0  0  0  0  0  0  0  0  0  0  0
   24.6044  -20.7276   -7.9861 O   0  0  0  0  0  0  0  0  0  0  0  0
   26.0701  -22.3579   -7.4638 O   0  0  0  0  0  0  0  0  0  0  0  0
  2  1  1  0
  3  2  1  0
  4  3  1  0
  5  4  1  0
  5  6  1  6
  7  5  1  0
  7  8  2  0
  9 10  1  0
 10 11  2  0
 10 20  1  0
 11 12  1  0
 12 13  2  0
 13 14  1  0
 15 14  1  6
 15 17  1  0
 15 16  1  0
 16  7  1  0
 17 21  1  0
 18 17  2  0
 19 13  1  0
 20 19  2  0
 21 22  1  0
 22 33  1  0
 23 24  1  0
 22 23  1  1
 24 25  2  0
 26 25  1  0
 27 26  1  0
 28 27  2  0
 29 28  1  0
 30 29  2  0
 30 31  1  0
 31 32  2  0
 32 27  1  0
 32 24  1  0
 33 34  2  0
 33 35  1  0
M  END
$$$$
