MYW.pdb
     RDKit          3D

 35 37  0  0  1  0  0  0  0  0999 V2000
   27.7805  -12.3286  -16.0468 C   0  0  0  0  0  0  0  0  0  0  0  0
   28.0656  -14.0295  -16.5971 S   0  0  0  0  0  0  0  0  0  0  0  0
   27.3099  -15.2051  -15.4308 C   0  0  0  0  0  0  0  0  0  0  0  0
   26.0296  -15.7277  -16.0352 C   0  0  0  0  0  0  0  0  0  0  0  0
   26.3131  -16.4563  -17.3366 C   0  0  2  0  0  0  0  0  0  0  0  0
   26.5894  -15.4662  -18.3914 N   0  0  0  0  0  0  0  0  0  0  0  0
   25.1115  -17.2095  -17.7849 C   0  0  0  0  0  0  0  0  0  0  0  0
   24.1401  -16.6403  -18.3438 O   0  0  0  0  0  0  0  0  0  0  0  0
   25.4429  -19.3966  -24.1820 O   0  0  0  0  0  0  0  0  0  0  0  0
   25.1412  -19.6761  -22.8573 C   0  0  0  0  0  0  0  0  0  0  0  0
   26.1487  -19.7027  -21.9148 C   0  0  0  0  0  0  0  0  0  0  0  0
   25.9316  -19.9710  -20.5859 C   0  0  0  0  0  0  0  0  0  0  0  0
   24.6185  -20.2251  -20.2004 C   0  0  0  0  0  0  0  0  0  0  0  0
   24.2761  -20.5237  -18.8200 C   0  0  0  0  0  0  0  0  0  0  0  0
   23.8094  -19.3688  -17.9838 C   0  0  2  0  0  0  0  0  0  0  0  0
   24.9918  -18.6159  -17.6072 N   0  0  0  0  0  0  0  0  0  0  0  0
   23.1750  -19.8391  -16.7237 C   0  0  0  0  0  0  0  0  0  0  0  0
   23.8062  -20.5890  -15.9086 O   0  0  0  0  0  0  0  0  0  0  0  0
   23.5969  -20.2014  -21.1382 C   0  0  0  0  0  0  0  0  0  0  0  0
   23.8523  -19.9288  -22.4609 C   0  0  0  0  0  0  0  0  0  0  0  0
   21.8607  -19.4695  -16.3957 N   0  0  0  0  0  0  0  0  0  0  0  0
   21.2236  -19.9206  -15.1399 C   0  0  1  0  0  0  0  0  0  0  0  0
   20.5277  -18.7454  -14.5401 C   0  0  0  0  0  0  0  0  0  0  0  0
   19.3085  -18.3382  -15.2276 C   0  0  0  0  0  0  0  0  0  0  0  0
   18.0427  -18.8847  -15.0278 C   0  0  0  0  0  0  0  0  0  0  0  0
   17.1863  -18.2762  -15.8643 N   0  0  0  0  0  0  0  0  0  0  0  0
   17.8519  -17.3573  -16.5953 C   0  0  0  0  0  0  0  0  0  0  0  0
   17.4303  -16.4721  -17.5637 C   0  0  0  0  0  0  0  0  0  0  0  0
   18.3106  -15.6000  -18.1635 C   0  0  0  0  0  0  0  0  0  0  0  0
   19.6422  -15.5961  -17.8030 C   0  0  0  0  0  0  0  0  0  0  0  0
   20.0264  -16.4943  -16.8334 C   0  0  0  0  0  0  0  0  0  0  0  0
   19.1803  -17.3832  -16.2092 C   0  0  0  0  0  0  0  0  0  0  0  0
   20.3688  -21.0600  -15.3997 C   0  0  0  0  0  0  0  0  0  0  0  0
   19.9671  -21.3680  -16.5338 O   0  0  0  0  0  0  0  0  0  0  0  0
   19.9599  -21.8730  -14.3375 O   0  0  0  0  0  0  0  0  0  0  0  0
  2  1  1  0
  3  2  1  0
  4  3  1  0
  5  4  1  0
  5  6  1  6
  7  5  1  0
  7  8  2  0
  9 10  1  0
 10 11  2  0
 10 20  1  0
 11 12  1  0
 12 13  2  0
 13 14  1  0
 15 14  1  6
 15 17  1  0
 15 16  1  0
 16  7  1  0
 17 21  1  0
 18 17  2  0
 19 13  1  0
 20 19  2  0
 21 22  1  0
 22 33  1  0
 23 24  1  0
 22 23  1  6
 24 25  2  0
 26 25  1  0
 27 26  1  0
 28 27  2  0
 29 28  1  0
 30 29  2  0
 30 31  1  0
 31 32  2  0
 32 27  1  0
 32 24  1  0
 33 34  2  0
 33 35  1  0
M  END
$$$$
