WDD.pdb
     RDKit          3D

 31 32  0  0  1  0  0  0  0  0999 V2000
    9.2889  -18.0447   20.2141 N   0  0  0  0  0  0  0  0  0  0  0  0
   10.0907  -16.8099   20.1594 C   0  0  1  0  0  0  0  0  0  0  0  0
    9.7258  -15.9334   21.3589 C   0  0  0  0  0  0  0  0  0  0  0  0
    8.4712  -15.2153   21.0006 C   0  0  0  0  0  0  0  0  0  0  0  0
    7.1778  -15.6587   21.2356 C   0  0  0  0  0  0  0  0  0  0  0  0
    6.3529  -14.7426   20.7570 N   0  0  0  0  0  0  0  0  0  0  0  0
    7.0565  -13.7177   20.2185 C   0  0  0  0  0  0  0  0  0  0  0  0
    6.7177  -12.5263   19.5953 C   0  0  0  0  0  0  0  0  0  0  0  0
    7.7170  -11.6987   19.1615 C   0  0  0  0  0  0  0  0  0  0  0  0
    9.0601  -11.9906   19.3124 C   0  0  0  0  0  0  0  0  0  0  0  0
    9.4045  -13.1624   19.9251 C   0  0  0  0  0  0  0  0  0  0  0  0
    8.3983  -14.0122   20.3707 C   0  0  0  0  0  0  0  0  0  0  0  0
   11.5178  -17.1605   20.3458 C   0  0  0  0  0  0  0  0  0  0  0  0
   11.8020  -18.2525   20.8741 O   0  0  0  0  0  0  0  0  0  0  0  0
   12.5218  -16.2678   19.9282 N   0  0  0  0  0  0  0  0  0  0  0  0
   13.9512  -16.5353   20.1204 C   0  0  1  0  0  0  0  0  0  0  0  0
   14.6372  -15.2548   19.6197 C   0  0  0  0  0  0  0  0  0  0  0  0
   14.7779  -15.1770   18.1707 C   0  0  0  0  0  0  0  0  0  0  0  0
   14.6763  -14.0338   17.5951 O   0  0  0  0  0  0  0  0  0  0  0  0
   14.2631  -16.6700   21.5518 C   0  0  0  0  0  0  0  0  0  0  0  0
   14.1784  -15.6303   22.3010 O   0  0  0  0  0  0  0  0  0  0  0  0
   15.0168  -16.2432   17.3327 O   0  0  0  0  0  0  0  0  0  0  0  0
   14.6526  -17.8699   22.1981 N   0  0  0  0  0  0  0  0  0  0  0  0
   14.8767  -17.9025   23.6532 C   0  0  1  0  0  0  0  0  0  0  0  0
   14.1622  -19.1371   24.2133 C   0  0  0  0  0  0  0  0  0  0  0  0
   14.4087  -19.3637   25.6345 C   0  0  0  0  0  0  0  0  0  0  0  0
   15.1951  -18.6593   26.2902 O   0  0  0  0  0  0  0  0  0  0  0  0
   16.3252  -17.9431   23.8758 C   0  0  0  0  0  0  0  0  0  0  0  0
   17.1218  -18.3720   23.0347 O   0  0  0  0  0  0  0  0  0  0  0  0
   13.7666  -20.3895   26.3246 O   0  0  0  0  0  0  0  0  0  0  0  0
   16.8653  -17.4846   25.0782 O   0  0  0  0  0  0  0  0  0  0  0  0
  2  1  1  1
  2 13  1  0
  2  3  1  0
  3  4  1  0
  4  5  2  0
  5  6  1  0
  7  6  1  0
  8  7  2  0
  9  8  1  0
 10 11  1  0
 10  9  2  0
 11 12  2  0
 12  4  1  0
 12  7  1  0
 13 15  1  0
 14 13  2  0
 15 16  1  0
 16 17  1  1
 17 18  1  0
 18 19  2  0
 18 22  1  0
 20 16  1  0
 21 20  2  0
 23 20  1  0
 24 23  1  0
 24 25  1  6
 26 25  1  0
 26 27  2  0
 28 24  1  0
 28 31  1  0
 29 28  2  0
 30 26  1  0
M  END
$$$$
