WDD.pdb
     RDKit          3D

 31 32  0  0  1  0  0  0  0  0999 V2000
    6.9608  -17.4762   24.1443 N   0  0  0  0  0  0  0  0  0  0  0  0
    7.9915  -16.4521   23.9003 C   0  0  1  0  0  0  0  0  0  0  0  0
    8.4317  -15.8678   25.2438 C   0  0  0  0  0  0  0  0  0  0  0  0
    7.2880  -15.0648   25.7586 C   0  0  0  0  0  0  0  0  0  0  0  0
    6.1075  -15.5659   26.2876 C   0  0  0  0  0  0  0  0  0  0  0  0
    5.3501  -14.5319   26.6135 N   0  0  0  0  0  0  0  0  0  0  0  0
    5.9896  -13.3746   26.3182 C   0  0  0  0  0  0  0  0  0  0  0  0
    5.6757  -12.0299   26.4446 C   0  0  0  0  0  0  0  0  0  0  0  0
    6.5868  -11.0961   26.0329 C   0  0  0  0  0  0  0  0  0  0  0  0
    7.8156  -11.4253   25.4912 C   0  0  0  0  0  0  0  0  0  0  0  0
    8.1344  -12.7477   25.3621 C   0  0  0  0  0  0  0  0  0  0  0  0
    7.2172  -13.7068   25.7770 C   0  0  0  0  0  0  0  0  0  0  0  0
    9.1951  -17.1117   23.3429 C   0  0  0  0  0  0  0  0  0  0  0  0
    9.5275  -18.2266   23.7888 O   0  0  0  0  0  0  0  0  0  0  0  0
    9.9377  -16.4796   22.3289 N   0  0  0  0  0  0  0  0  0  0  0  0
   11.1859  -17.0357   21.7957 C   0  0  1  0  0  0  0  0  0  0  0  0
   11.4779  -16.1700   20.5603 C   0  0  0  0  0  0  0  0  0  0  0  0
   10.7163  -16.5414   19.3739 C   0  0  0  0  0  0  0  0  0  0  0  0
   10.5179  -17.7853   19.1248 O   0  0  0  0  0  0  0  0  0  0  0  0
   12.2896  -16.8312   22.7465 C   0  0  0  0  0  0  0  0  0  0  0  0
   12.5193  -15.6432   23.1771 O   0  0  0  0  0  0  0  0  0  0  0  0
   10.1719  -15.6610   18.4659 O   0  0  0  0  0  0  0  0  0  0  0  0
   13.1406  -17.8478   23.2481 N   0  0  0  0  0  0  0  0  0  0  0  0
   14.2397  -17.5213   24.1722 C   0  0  1  0  0  0  0  0  0  0  0  0
   14.4626  -18.7307   25.0867 C   0  0  0  0  0  0  0  0  0  0  0  0
   13.3969  -18.9319   26.0643 C   0  0  0  0  0  0  0  0  0  0  0  0
   13.0138  -18.0241   26.8218 O   0  0  0  0  0  0  0  0  0  0  0  0
   15.4194  -17.2061   23.3608 C   0  0  0  0  0  0  0  0  0  0  0  0
   16.3827  -16.5673   23.7967 O   0  0  0  0  0  0  0  0  0  0  0  0
   12.7561  -20.1622   26.1917 O   0  0  0  0  0  0  0  0  0  0  0  0
   15.4940  -17.6304   22.0334 O   0  0  0  0  0  0  0  0  0  0  0  0
  2  1  1  1
  2 13  1  0
  2  3  1  0
  3  4  1  0
  4  5  2  0
  5  6  1  0
  7  6  1  0
  8  7  2  0
  9  8  1  0
 10 11  1  0
 10  9  2  0
 11 12  2  0
 12  4  1  0
 12  7  1  0
 13 15  1  0
 14 13  2  0
 15 16  1  0
 16 17  1  6
 17 18  1  0
 18 19  2  0
 18 22  1  0
 20 16  1  0
 21 20  2  0
 23 20  1  0
 24 23  1  0
 24 25  1  1
 26 25  1  0
 26 27  2  0
 28 24  1  0
 28 31  1  0
 29 28  2  0
 30 26  1  0
M  END
$$$$
