WDD.pdb
     RDKit          3D

 31 32  0  0  1  0  0  0  0  0999 V2000
    7.1803  -16.2212   22.9861 N   0  0  0  0  0  0  0  0  0  0  0  0
    8.5922  -16.1005   23.3893 C   0  0  1  0  0  0  0  0  0  0  0  0
    8.6666  -16.0744   24.9171 C   0  0  0  0  0  0  0  0  0  0  0  0
    7.5335  -15.2305   25.3881 C   0  0  0  0  0  0  0  0  0  0  0  0
    6.2519  -15.6710   25.6847 C   0  0  0  0  0  0  0  0  0  0  0  0
    5.5462  -14.6149   26.0526 N   0  0  0  0  0  0  0  0  0  0  0  0
    6.3165  -13.5012   26.0080 C   0  0  0  0  0  0  0  0  0  0  0  0
    6.1027  -12.1587   26.2810 C   0  0  0  0  0  0  0  0  0  0  0  0
    7.1385  -11.2786   26.1256 C   0  0  0  0  0  0  0  0  0  0  0  0
    8.3993  -11.6604   25.7059 C   0  0  0  0  0  0  0  0  0  0  0  0
    8.6203  -12.9812   25.4341 C   0  0  0  0  0  0  0  0  0  0  0  0
    7.5759  -13.8860   25.5882 C   0  0  0  0  0  0  0  0  0  0  0  0
    9.3108  -17.3295   22.9797 C   0  0  0  0  0  0  0  0  0  0  0  0
    9.1025  -18.3834   23.6109 O   0  0  0  0  0  0  0  0  0  0  0  0
   10.2072  -17.2921   21.8960 N   0  0  0  0  0  0  0  0  0  0  0  0
   10.9868  -18.4596   21.4707 C   0  0  1  0  0  0  0  0  0  0  0  0
   11.3836  -18.1313   20.0231 C   0  0  0  0  0  0  0  0  0  0  0  0
   10.2569  -18.0030   19.1067 C   0  0  0  0  0  0  0  0  0  0  0  0
    9.2598  -18.8026   19.2291 O   0  0  0  0  0  0  0  0  0  0  0  0
   12.2279  -18.5643   22.2536 C   0  0  0  0  0  0  0  0  0  0  0  0
   13.0955  -19.4494   21.9170 O   0  0  0  0  0  0  0  0  0  0  0  0
   10.1544  -17.0791   18.0909 O   0  0  0  0  0  0  0  0  0  0  0  0
   12.5664  -17.7567   23.3682 N   0  0  0  0  0  0  0  0  0  0  0  0
   13.5747  -18.2046   24.3436 C   0  0  1  0  0  0  0  0  0  0  0  0
   14.9314  -17.6347   23.9156 C   0  0  0  0  0  0  0  0  0  0  0  0
   14.8905  -16.2161   23.5727 C   0  0  0  0  0  0  0  0  0  0  0  0
   13.8375  -15.5568   23.6082 O   0  0  0  0  0  0  0  0  0  0  0  0
   13.1554  -17.7243   25.6638 C   0  0  0  0  0  0  0  0  0  0  0  0
   12.2610  -16.8867   25.8205 O   0  0  0  0  0  0  0  0  0  0  0  0
   16.0415  -15.5325   23.1873 O   0  0  0  0  0  0  0  0  0  0  0  0
   13.7699  -18.2125   26.8178 O   0  0  0  0  0  0  0  0  0  0  0  0
  2  1  1  1
  2 13  1  0
  2  3  1  0
  3  4  1  0
  4  5  2  0
  5  6  1  0
  7  6  1  0
  8  7  2  0
  9  8  1  0
 10 11  1  0
 10  9  2  0
 11 12  2  0
 12  4  1  0
 12  7  1  0
 13 15  1  0
 14 13  2  0
 15 16  1  0
 16 17  1  6
 17 18  1  0
 18 19  2  0
 18 22  1  0
 20 16  1  0
 21 20  2  0
 23 20  1  0
 24 23  1  0
 24 25  1  6
 26 25  1  0
 26 27  2  0
 28 24  1  0
 28 31  1  0
 29 28  2  0
 30 26  1  0
M  END
$$$$
