WDD.pdb
     RDKit          3D

 31 32  0  0  1  0  0  0  0  0999 V2000
    7.1820  -16.9991   23.4310 N   0  0  0  0  0  0  0  0  0  0  0  0
    8.3563  -16.1193   23.5643 C   0  0  1  0  0  0  0  0  0  0  0  0
    8.6139  -15.8652   25.0507 C   0  0  0  0  0  0  0  0  0  0  0  0
    7.4638  -15.0648   25.5555 C   0  0  0  0  0  0  0  0  0  0  0  0
    6.2193  -15.5580   25.9193 C   0  0  0  0  0  0  0  0  0  0  0  0
    5.4809  -14.5280   26.2971 N   0  0  0  0  0  0  0  0  0  0  0  0
    6.1943  -13.3808   26.1944 C   0  0  0  0  0  0  0  0  0  0  0  0
    5.9289  -12.0439   26.4490 C   0  0  0  0  0  0  0  0  0  0  0  0
    6.9134  -11.1199   26.2284 C   0  0  0  0  0  0  0  0  0  0  0  0
    8.1711  -11.4517   25.7595 C   0  0  0  0  0  0  0  0  0  0  0  0
    8.4427  -12.7666   25.5053 C   0  0  0  0  0  0  0  0  0  0  0  0
    7.4507  -13.7155   25.7256 C   0  0  0  0  0  0  0  0  0  0  0  0
    9.5518  -16.8440   23.0744 C   0  0  0  0  0  0  0  0  0  0  0  0
    9.6442  -18.0663   23.2973 O   0  0  0  0  0  0  0  0  0  0  0  0
   10.5548  -16.1519   22.3713 N   0  0  0  0  0  0  0  0  0  0  0  0
   11.8107  -16.7840   21.9532 C   0  0  1  0  0  0  0  0  0  0  0  0
   12.4882  -15.7171   21.0793 C   0  0  0  0  0  0  0  0  0  0  0  0
   12.2169  -15.8492   19.6530 C   0  0  0  0  0  0  0  0  0  0  0  0
   11.7429  -16.9567   19.2087 O   0  0  0  0  0  0  0  0  0  0  0  0
   12.6821  -17.0186   23.1150 C   0  0  0  0  0  0  0  0  0  0  0  0
   12.8373  -16.0723   23.9694 O   0  0  0  0  0  0  0  0  0  0  0  0
   12.4259  -14.8717   18.7060 O   0  0  0  0  0  0  0  0  0  0  0  0
   13.3791  -18.2220   23.3892 N   0  0  0  0  0  0  0  0  0  0  0  0
   14.2038  -18.3545   24.6020 C   0  0  1  0  0  0  0  0  0  0  0  0
   14.1503  -19.8186   25.0516 C   0  0  0  0  0  0  0  0  0  0  0  0
   15.0664  -20.1310   26.1448 C   0  0  0  0  0  0  0  0  0  0  0  0
   15.8388  -19.2831   26.6235 O   0  0  0  0  0  0  0  0  0  0  0  0
   15.5623  -17.9212   24.2614 C   0  0  0  0  0  0  0  0  0  0  0  0
   16.0368  -18.0301   23.1260 O   0  0  0  0  0  0  0  0  0  0  0  0
   15.1149  -21.4055   26.7050 O   0  0  0  0  0  0  0  0  0  0  0  0
   16.3853  -17.3552   25.2361 O   0  0  0  0  0  0  0  0  0  0  0  0
  2  1  1  1
  2 13  1  0
  2  3  1  0
  3  4  1  0
  4  5  2  0
  5  6  1  0
  7  6  1  0
  8  7  2  0
  9  8  1  0
 10 11  1  0
 10  9  2  0
 11 12  2  0
 12  4  1  0
 12  7  1  0
 13 15  1  0
 14 13  2  0
 15 16  1  0
 16 17  1  6
 17 18  1  0
 18 19  2  0
 18 22  1  0
 20 16  1  0
 21 20  2  0
 23 20  1  0
 24 23  1  0
 24 25  1  6
 26 25  1  0
 26 27  2  0
 28 24  1  0
 28 31  1  0
 29 28  2  0
 30 26  1  0
M  END
$$$$
