WDD.pdb
     RDKit          3D

 31 32  0  0  1  0  0  0  0  0999 V2000
    6.6694  -17.4936   24.2980 N   0  0  0  0  0  0  0  0  0  0  0  0
    7.7248  -16.5000   24.0345 C   0  0  1  0  0  0  0  0  0  0  0  0
    8.1678  -15.8888   25.3651 C   0  0  0  0  0  0  0  0  0  0  0  0
    7.1059  -14.9266   25.7707 C   0  0  0  0  0  0  0  0  0  0  0  0
    5.8250  -15.2505   26.1940 C   0  0  0  0  0  0  0  0  0  0  0  0
    5.1930  -14.1163   26.4450 N   0  0  0  0  0  0  0  0  0  0  0  0
    6.0108  -13.0637   26.2024 C   0  0  0  0  0  0  0  0  0  0  0  0
    5.8771  -11.6866   26.2929 C   0  0  0  0  0  0  0  0  0  0  0  0
    6.9419  -10.8948   25.9599 C   0  0  0  0  0  0  0  0  0  0  0  0
    8.1560  -11.4001   25.5327 C   0  0  0  0  0  0  0  0  0  0  0  0
    8.2979  -12.7560   25.4398 C   0  0  0  0  0  0  0  0  0  0  0  0
    7.2233  -13.5717   25.7755 C   0  0  0  0  0  0  0  0  0  0  0  0
    8.9174  -17.2015   23.5055 C   0  0  0  0  0  0  0  0  0  0  0  0
    9.1755  -18.3451   23.9273 O   0  0  0  0  0  0  0  0  0  0  0  0
    9.7328  -16.5761   22.5446 N   0  0  0  0  0  0  0  0  0  0  0  0
   11.0045  -17.1484   22.0897 C   0  0  1  0  0  0  0  0  0  0  0  0
   11.5447  -16.1064   21.0981 C   0  0  0  0  0  0  0  0  0  0  0  0
   12.6898  -16.5587   20.3172 C   0  0  0  0  0  0  0  0  0  0  0  0
   13.2287  -17.6896   20.5988 O   0  0  0  0  0  0  0  0  0  0  0  0
   11.9610  -17.2317   23.2043 C   0  0  0  0  0  0  0  0  0  0  0  0
   12.4367  -16.1422   23.6902 O   0  0  0  0  0  0  0  0  0  0  0  0
   13.2681  -15.8700   19.2745 O   0  0  0  0  0  0  0  0  0  0  0  0
   12.4136  -18.4304   23.8103 N   0  0  0  0  0  0  0  0  0  0  0  0
   13.4186  -18.3970   24.8861 C   0  0  1  0  0  0  0  0  0  0  0  0
   12.9531  -19.3450   25.9966 C   0  0  0  0  0  0  0  0  0  0  0  0
   11.8984  -18.7891   26.8394 C   0  0  0  0  0  0  0  0  0  0  0  0
   11.7248  -17.5644   26.9605 O   0  0  0  0  0  0  0  0  0  0  0  0
   14.7019  -18.8017   24.3039 C   0  0  0  0  0  0  0  0  0  0  0  0
   15.7561  -18.8166   24.9475 O   0  0  0  0  0  0  0  0  0  0  0  0
   11.0316  -19.6152   27.5513 O   0  0  0  0  0  0  0  0  0  0  0  0
   14.7748  -19.1948   22.9668 O   0  0  0  0  0  0  0  0  0  0  0  0
  2  1  1  1
  2 13  1  0
  2  3  1  0
  3  4  1  0
  4  5  2  0
  5  6  1  0
  7  6  1  0
  8  7  2  0
  9  8  1  0
 10 11  1  0
 10  9  2  0
 11 12  2  0
 12  4  1  0
 12  7  1  0
 13 15  1  0
 14 13  2  0
 15 16  1  0
 16 17  1  6
 17 18  1  0
 18 19  2  0
 18 22  1  0
 20 16  1  0
 21 20  2  0
 23 20  1  0
 24 23  1  0
 24 25  1  1
 26 25  1  0
 26 27  2  0
 28 24  1  0
 28 31  1  0
 29 28  2  0
 30 26  1  0
M  END
$$$$
