WDD.pdb
     RDKit          3D

 31 32  0  0  1  0  0  0  0  0999 V2000
    7.1850  -17.0011   23.4867 N   0  0  0  0  0  0  0  0  0  0  0  0
    8.3700  -16.1526   23.7028 C   0  0  1  0  0  0  0  0  0  0  0  0
    8.4946  -15.8540   25.1981 C   0  0  0  0  0  0  0  0  0  0  0  0
    7.3434  -14.9810   25.5594 C   0  0  0  0  0  0  0  0  0  0  0  0
    6.0403  -15.3972   25.7900 C   0  0  0  0  0  0  0  0  0  0  0  0
    5.3246  -14.3203   26.0675 N   0  0  0  0  0  0  0  0  0  0  0  0
    6.1091  -13.2165   26.0273 C   0  0  0  0  0  0  0  0  0  0  0  0
    5.8938  -11.8618   26.2303 C   0  0  0  0  0  0  0  0  0  0  0  0
    6.9477  -10.9983   26.1065 C   0  0  0  0  0  0  0  0  0  0  0  0
    8.2285  -11.4087   25.7856 C   0  0  0  0  0  0  0  0  0  0  0  0
    8.4511  -12.7416   25.5833 C   0  0  0  0  0  0  0  0  0  0  0  0
    7.3884  -13.6297   25.7063 C   0  0  0  0  0  0  0  0  0  0  0  0
    9.5817  -16.9293   23.3527 C   0  0  0  0  0  0  0  0  0  0  0  0
    9.5159  -18.1735   23.3518 O   0  0  0  0  0  0  0  0  0  0  0  0
   10.7764  -16.2609   23.0284 N   0  0  0  0  0  0  0  0  0  0  0  0
   12.0704  -16.9462   22.9409 C   0  0  1  0  0  0  0  0  0  0  0  0
   13.0323  -15.8569   22.4420 C   0  0  0  0  0  0  0  0  0  0  0  0
   14.3317  -16.3565   22.0090 C   0  0  0  0  0  0  0  0  0  0  0  0
   14.4922  -17.6205   21.8508 O   0  0  0  0  0  0  0  0  0  0  0  0
   12.5277  -17.3579   24.2771 C   0  0  0  0  0  0  0  0  0  0  0  0
   12.9893  -16.4620   25.0731 O   0  0  0  0  0  0  0  0  0  0  0  0
   15.4384  -15.5809   21.7448 O   0  0  0  0  0  0  0  0  0  0  0  0
   12.5009  -18.6819   24.7825 N   0  0  0  0  0  0  0  0  0  0  0  0
   12.9771  -18.9774   26.1444 C   0  0  1  0  0  0  0  0  0  0  0  0
   12.0714  -20.0630   26.7360 C   0  0  0  0  0  0  0  0  0  0  0  0
   11.8037  -19.8919   28.1610 C   0  0  0  0  0  0  0  0  0  0  0  0
   12.3497  -19.0014   28.8346 O   0  0  0  0  0  0  0  0  0  0  0  0
   14.3746  -19.4081   26.0394 C   0  0  0  0  0  0  0  0  0  0  0  0
   14.7725  -20.1899   25.1696 O   0  0  0  0  0  0  0  0  0  0  0  0
   10.9155  -20.7272   28.8347 O   0  0  0  0  0  0  0  0  0  0  0  0
   15.3264  -18.9345   26.9434 O   0  0  0  0  0  0  0  0  0  0  0  0
  2  1  1  1
  2 13  1  0
  2  3  1  0
  3  4  1  0
  4  5  2  0
  5  6  1  0
  7  6  1  0
  8  7  2  0
  9  8  1  0
 10 11  1  0
 10  9  2  0
 11 12  2  0
 12  4  1  0
 12  7  1  0
 13 15  1  0
 14 13  2  0
 15 16  1  0
 16 17  1  1
 17 18  1  0
 18 19  2  0
 18 22  1  0
 20 16  1  0
 21 20  2  0
 23 20  1  0
 24 23  1  0
 24 25  1  6
 26 25  1  0
 26 27  2  0
 28 24  1  0
 28 31  1  0
 29 28  2  0
 30 26  1  0
M  END
$$$$
