WDD.pdb
     RDKit          3D

 31 32  0  0  1  0  0  0  0  0999 V2000
    6.8808  -17.5708   24.5587 N   0  0  0  0  0  0  0  0  0  0  0  0
    7.7824  -16.5665   23.9677 C   0  0  1  0  0  0  0  0  0  0  0  0
    8.3924  -15.7302   25.0940 C   0  0  0  0  0  0  0  0  0  0  0  0
    7.3018  -14.8678   25.6280 C   0  0  0  0  0  0  0  0  0  0  0  0
    6.1266  -15.3062   26.2205 C   0  0  0  0  0  0  0  0  0  0  0  0
    5.4225  -14.2341   26.5425 N   0  0  0  0  0  0  0  0  0  0  0  0
    6.0917  -13.1121   26.1836 C   0  0  0  0  0  0  0  0  0  0  0  0
    5.8337  -11.7530   26.2781 C   0  0  0  0  0  0  0  0  0  0  0  0
    6.7609  -10.8684   25.7992 C   0  0  0  0  0  0  0  0  0  0  0  0
    7.9529  -11.2616   25.2194 C   0  0  0  0  0  0  0  0  0  0  0  0
    8.2166  -12.5988   25.1213 C   0  0  0  0  0  0  0  0  0  0  0  0
    7.2825  -13.5082   25.6044 C   0  0  0  0  0  0  0  0  0  0  0  0
    8.9233  -17.2664   23.3329 C   0  0  0  0  0  0  0  0  0  0  0  0
    9.2067  -18.4181   23.7146 O   0  0  0  0  0  0  0  0  0  0  0  0
    9.6626  -16.6303   22.3189 N   0  0  0  0  0  0  0  0  0  0  0  0
   10.8481  -17.2358   21.7028 C   0  0  1  0  0  0  0  0  0  0  0  0
   11.1197  -16.3508   20.4764 C   0  0  0  0  0  0  0  0  0  0  0  0
   12.1440  -16.8691   19.5777 C   0  0  0  0  0  0  0  0  0  0  0  0
   12.4705  -16.1826   18.5429 O   0  0  0  0  0  0  0  0  0  0  0  0
   12.0110  -17.1179   22.5960 C   0  0  0  0  0  0  0  0  0  0  0  0
   12.3593  -15.9505   23.0027 O   0  0  0  0  0  0  0  0  0  0  0  0
   12.8167  -18.0601   19.7351 O   0  0  0  0  0  0  0  0  0  0  0  0
   12.7989  -18.1987   23.0654 N   0  0  0  0  0  0  0  0  0  0  0  0
   13.8719  -17.9762   24.0492 C   0  0  1  0  0  0  0  0  0  0  0  0
   14.0145  -19.2505   24.8885 C   0  0  0  0  0  0  0  0  0  0  0  0
   13.0546  -19.3419   25.9849 C   0  0  0  0  0  0  0  0  0  0  0  0
   12.3542  -18.3762   26.3333 O   0  0  0  0  0  0  0  0  0  0  0  0
   15.0934  -17.6548   23.3048 C   0  0  0  0  0  0  0  0  0  0  0  0
   16.0478  -17.0536   23.8083 O   0  0  0  0  0  0  0  0  0  0  0  0
   12.8798  -20.5274   26.6952 O   0  0  0  0  0  0  0  0  0  0  0  0
   15.2205  -18.0292   21.9664 O   0  0  0  0  0  0  0  0  0  0  0  0
  2  1  1  1
  2 13  1  0
  2  3  1  0
  3  4  1  0
  4  5  2  0
  5  6  1  0
  7  6  1  0
  8  7  2  0
  9  8  1  0
 10 11  1  0
 10  9  2  0
 11 12  2  0
 12  4  1  0
 12  7  1  0
 13 15  1  0
 14 13  2  0
 15 16  1  0
 16 17  1  6
 17 18  1  0
 18 19  2  0
 18 22  1  0
 20 16  1  0
 21 20  2  0
 23 20  1  0
 24 23  1  0
 24 25  1  6
 26 25  1  0
 26 27  2  0
 28 24  1  0
 28 31  1  0
 29 28  2  0
 30 26  1  0
M  END
$$$$
