WDD.pdb
     RDKit          3D

 31 32  0  0  1  0  0  0  0  0999 V2000
    6.6546  -17.3250   24.0664 N   0  0  0  0  0  0  0  0  0  0  0  0
    7.7922  -16.3992   23.9266 C   0  0  1  0  0  0  0  0  0  0  0  0
    8.1876  -15.8932   25.3151 C   0  0  0  0  0  0  0  0  0  0  0  0
    7.1259  -14.9409   25.7440 C   0  0  0  0  0  0  0  0  0  0  0  0
    5.8528  -15.2760   26.1813 C   0  0  0  0  0  0  0  0  0  0  0  0
    5.2179  -14.1478   26.4514 N   0  0  0  0  0  0  0  0  0  0  0  0
    6.0264  -13.0883   26.2077 C   0  0  0  0  0  0  0  0  0  0  0  0
    5.8862  -11.7129   26.3129 C   0  0  0  0  0  0  0  0  0  0  0  0
    6.9420  -10.9121   25.9730 C   0  0  0  0  0  0  0  0  0  0  0  0
    8.1531  -11.4064   25.5248 C   0  0  0  0  0  0  0  0  0  0  0  0
    8.3013  -12.7605   25.4174 C   0  0  0  0  0  0  0  0  0  0  0  0
    7.2358  -13.5854   25.7599 C   0  0  0  0  0  0  0  0  0  0  0  0
    8.9652  -17.1577   23.4337 C   0  0  0  0  0  0  0  0  0  0  0  0
    9.0280  -18.3803   23.6651 O   0  0  0  0  0  0  0  0  0  0  0  0
    9.9803  -16.4966   22.7183 N   0  0  0  0  0  0  0  0  0  0  0  0
   11.2739  -17.1196   22.4180 C   0  0  1  0  0  0  0  0  0  0  0  0
   12.0275  -16.0416   21.6237 C   0  0  0  0  0  0  0  0  0  0  0  0
   13.1154  -16.5544   20.7995 C   0  0  0  0  0  0  0  0  0  0  0  0
   13.6336  -17.6928   21.0894 O   0  0  0  0  0  0  0  0  0  0  0  0
   12.0299  -17.3620   23.6565 C   0  0  0  0  0  0  0  0  0  0  0  0
   12.4573  -16.3519   24.3246 O   0  0  0  0  0  0  0  0  0  0  0  0
   13.6584  -15.9172   19.7064 O   0  0  0  0  0  0  0  0  0  0  0  0
   12.3335  -18.6365   24.1973 N   0  0  0  0  0  0  0  0  0  0  0  0
   13.0488  -18.7594   25.4786 C   0  0  1  0  0  0  0  0  0  0  0  0
   12.3262  -19.8143   26.3234 C   0  0  0  0  0  0  0  0  0  0  0  0
   11.7425  -19.2837   27.5520 C   0  0  0  0  0  0  0  0  0  0  0  0
   11.9563  -18.1218   27.9380 O   0  0  0  0  0  0  0  0  0  0  0  0
   14.4336  -19.1343   25.1767 C   0  0  0  0  0  0  0  0  0  0  0  0
   14.7276  -20.0352   24.3843 O   0  0  0  0  0  0  0  0  0  0  0  0
   10.9119  -20.0640   28.3531 O   0  0  0  0  0  0  0  0  0  0  0  0
   15.4933  -18.4659   25.7915 O   0  0  0  0  0  0  0  0  0  0  0  0
  2  1  1  1
  2 13  1  0
  2  3  1  0
  3  4  1  0
  4  5  2  0
  5  6  1  0
  7  6  1  0
  8  7  2  0
  9  8  1  0
 10 11  1  0
 10  9  2  0
 11 12  2  0
 12  4  1  0
 12  7  1  0
 13 15  1  0
 14 13  2  0
 15 16  1  0
 16 17  1  6
 17 18  1  0
 18 19  2  0
 18 22  1  0
 20 16  1  0
 21 20  2  0
 23 20  1  0
 24 23  1  0
 24 25  1  1
 26 25  1  0
 26 27  2  0
 28 24  1  0
 28 31  1  0
 29 28  2  0
 30 26  1  0
M  END
$$$$
