WDD.pdb
     RDKit          3D

 31 32  0  0  1  0  0  0  0  0999 V2000
    8.5432  -16.4446   25.0343 N   0  0  0  0  0  0  0  0  0  0  0  0
    8.0009  -16.7634   23.7020 C   0  0  1  0  0  0  0  0  0  0  0  0
    7.1241  -15.5993   23.2367 C   0  0  0  0  0  0  0  0  0  0  0  0
    6.6508  -14.9006   24.4639 C   0  0  0  0  0  0  0  0  0  0  0  0
    5.8526  -15.4443   25.4598 C   0  0  0  0  0  0  0  0  0  0  0  0
    5.6477  -14.4993   26.3620 N   0  0  0  0  0  0  0  0  0  0  0  0
    6.2809  -13.3592   25.9945 C   0  0  0  0  0  0  0  0  0  0  0  0
    6.4038  -12.0933   26.5466 C   0  0  0  0  0  0  0  0  0  0  0  0
    7.1448  -11.1521   25.8858 C   0  0  0  0  0  0  0  0  0  0  0  0
    7.7831  -11.3985   24.6843 C   0  0  0  0  0  0  0  0  0  0  0  0
    7.6679  -12.6429   24.1317 C   0  0  0  0  0  0  0  0  0  0  0  0
    6.9178  -13.6085   24.7935 C   0  0  0  0  0  0  0  0  0  0  0  0
    9.1211  -16.8255   22.7347 C   0  0  0  0  0  0  0  0  0  0  0  0
    8.9186  -17.3348   21.6159 O   0  0  0  0  0  0  0  0  0  0  0  0
   10.3835  -16.3138   23.0867 N   0  0  0  0  0  0  0  0  0  0  0  0
   11.6228  -17.0830   22.9309 C   0  0  1  0  0  0  0  0  0  0  0  0
   12.6039  -16.0798   22.3048 C   0  0  0  0  0  0  0  0  0  0  0  0
   13.7361  -16.6943   21.6222 C   0  0  0  0  0  0  0  0  0  0  0  0
   14.7885  -16.9846   22.2980 O   0  0  0  0  0  0  0  0  0  0  0  0
   12.1626  -17.4635   24.2454 C   0  0  0  0  0  0  0  0  0  0  0  0
   12.6282  -16.5426   25.0100 O   0  0  0  0  0  0  0  0  0  0  0  0
   13.7888  -17.0035   20.2815 O   0  0  0  0  0  0  0  0  0  0  0  0
   12.2134  -18.7826   24.7618 N   0  0  0  0  0  0  0  0  0  0  0  0
   12.9187  -19.0709   26.0219 C   0  0  1  0  0  0  0  0  0  0  0  0
   12.0232  -19.9844   26.8658 C   0  0  0  0  0  0  0  0  0  0  0  0
   10.7196  -19.4048   27.1762 C   0  0  0  0  0  0  0  0  0  0  0  0
    9.7198  -19.6062   26.4659 O   0  0  0  0  0  0  0  0  0  0  0  0
   14.1973  -19.7004   25.6779 C   0  0  0  0  0  0  0  0  0  0  0  0
   14.4722  -20.0811   24.5354 O   0  0  0  0  0  0  0  0  0  0  0  0
   10.5374  -18.5929   28.2935 O   0  0  0  0  0  0  0  0  0  0  0  0
   15.1722  -19.8939   26.6577 O   0  0  0  0  0  0  0  0  0  0  0  0
  2  1  1  1
  2 13  1  0
  2  3  1  0
  3  4  1  0
  4  5  2  0
  5  6  1  0
  7  6  1  0
  8  7  2  0
  9  8  1  0
 10 11  1  0
 10  9  2  0
 11 12  2  0
 12  4  1  0
 12  7  1  0
 13 15  1  0
 14 13  2  0
 15 16  1  0
 16 17  1  1
 17 18  1  0
 18 19  2  0
 18 22  1  0
 20 16  1  0
 21 20  2  0
 23 20  1  0
 24 23  1  0
 24 25  1  1
 26 25  1  0
 26 27  2  0
 28 24  1  0
 28 31  1  0
 29 28  2  0
 30 26  1  0
M  END
$$$$
