WDD.pdb
     RDKit          3D

 31 32  0  0  1  0  0  0  0  0999 V2000
    7.0498  -17.5121   24.0230 N   0  0  0  0  0  0  0  0  0  0  0  0
    7.9789  -16.4493   23.6010 C   0  0  1  0  0  0  0  0  0  0  0  0
    8.4978  -15.7272   24.8458 C   0  0  0  0  0  0  0  0  0  0  0  0
    7.3503  -14.9628   25.4089 C   0  0  0  0  0  0  0  0  0  0  0  0
    6.1744  -15.5015   25.9106 C   0  0  0  0  0  0  0  0  0  0  0  0
    5.4113  -14.4931   26.2975 N   0  0  0  0  0  0  0  0  0  0  0  0
    6.0425  -13.3164   26.0683 C   0  0  0  0  0  0  0  0  0  0  0  0
    5.7204  -11.9835   26.2731 C   0  0  0  0  0  0  0  0  0  0  0  0
    6.6243  -11.0214   25.9141 C   0  0  0  0  0  0  0  0  0  0  0  0
    7.8538  -11.3106   25.3515 C   0  0  0  0  0  0  0  0  0  0  0  0
    8.1807  -12.6212   25.1453 C   0  0  0  0  0  0  0  0  0  0  0  0
    7.2708  -13.6087   25.5060 C   0  0  0  0  0  0  0  0  0  0  0  0
    9.1700  -17.0766   22.9828 C   0  0  0  0  0  0  0  0  0  0  0  0
    9.6172  -18.1291   23.4774 O   0  0  0  0  0  0  0  0  0  0  0  0
    9.7732  -16.4840   21.8583 N   0  0  0  0  0  0  0  0  0  0  0  0
   10.9842  -17.0239   21.2309 C   0  0  1  0  0  0  0  0  0  0  0  0
   11.0548  -16.2976   19.8787 C   0  0  0  0  0  0  0  0  0  0  0  0
   10.1103  -16.7902   18.8832 C   0  0  0  0  0  0  0  0  0  0  0  0
   10.0097  -18.0559   18.6922 O   0  0  0  0  0  0  0  0  0  0  0  0
   12.1786  -16.6395   21.9990 C   0  0  0  0  0  0  0  0  0  0  0  0
   12.4560  -15.3916   22.1225 O   0  0  0  0  0  0  0  0  0  0  0  0
    9.2899  -16.0062   18.1034 O   0  0  0  0  0  0  0  0  0  0  0  0
   13.0704  -17.5389   22.6353 N   0  0  0  0  0  0  0  0  0  0  0  0
   14.2300  -17.0391   23.3930 C   0  0  1  0  0  0  0  0  0  0  0  0
   14.7372  -18.1773   24.2850 C   0  0  0  0  0  0  0  0  0  0  0  0
   13.8260  -18.5216   25.3726 C   0  0  0  0  0  0  0  0  0  0  0  0
   13.3178  -17.6583   26.1084 O   0  0  0  0  0  0  0  0  0  0  0  0
   15.2349  -16.5972   22.4211 C   0  0  0  0  0  0  0  0  0  0  0  0
   16.0445  -15.6943   22.6561 O   0  0  0  0  0  0  0  0  0  0  0  0
   13.4824  -19.8457   25.6356 O   0  0  0  0  0  0  0  0  0  0  0  0
   15.3113  -17.2003   21.1649 O   0  0  0  0  0  0  0  0  0  0  0  0
  2  1  1  1
  2 13  1  0
  2  3  1  0
  3  4  1  0
  4  5  2  0
  5  6  1  0
  7  6  1  0
  8  7  2  0
  9  8  1  0
 10 11  1  0
 10  9  2  0
 11 12  2  0
 12  4  1  0
 12  7  1  0
 13 15  1  0
 14 13  2  0
 15 16  1  0
 16 17  1  6
 17 18  1  0
 18 19  2  0
 18 22  1  0
 20 16  1  0
 21 20  2  0
 23 20  1  0
 24 23  1  0
 24 25  1  6
 26 25  1  0
 26 27  2  0
 28 24  1  0
 28 31  1  0
 29 28  2  0
 30 26  1  0
M  END
$$$$
