WDD.pdb
     RDKit          3D

 31 32  0  0  1  0  0  0  0  0999 V2000
   13.0293  -14.5919   19.4870 N   0  0  0  0  0  0  0  0  0  0  0  0
   11.9994  -14.9328   20.4839 C   0  0  1  0  0  0  0  0  0  0  0  0
   10.8956  -15.7373   19.7948 C   0  0  0  0  0  0  0  0  0  0  0  0
   10.0298  -14.7567   19.0828 C   0  0  0  0  0  0  0  0  0  0  0  0
   10.0119  -14.5208   17.7158 C   0  0  0  0  0  0  0  0  0  0  0  0
    9.1199  -13.5709   17.4902 N   0  0  0  0  0  0  0  0  0  0  0  0
    8.5541  -13.1767   18.6565 C   0  0  0  0  0  0  0  0  0  0  0  0
    7.5890  -12.2435   19.0031 C   0  0  0  0  0  0  0  0  0  0  0  0
    7.2459  -12.1040   20.3201 C   0  0  0  0  0  0  0  0  0  0  0  0
    7.8169  -12.8511   21.3339 C   0  0  0  0  0  0  0  0  0  0  0  0
    8.7692  -13.7734   21.0027 C   0  0  0  0  0  0  0  0  0  0  0  0
    9.1267  -13.9250   19.6677 C   0  0  0  0  0  0  0  0  0  0  0  0
   12.5912  -15.8507   21.4846 C   0  0  0  0  0  0  0  0  0  0  0  0
   13.7874  -16.1776   21.3638 O   0  0  0  0  0  0  0  0  0  0  0  0
   11.8053  -16.3349   22.5464 N   0  0  0  0  0  0  0  0  0  0  0  0
   12.3547  -17.1590   23.6284 C   0  0  1  0  0  0  0  0  0  0  0  0
   11.1825  -17.3083   24.6105 C   0  0  0  0  0  0  0  0  0  0  0  0
   10.5386  -16.0512   24.9717 C   0  0  0  0  0  0  0  0  0  0  0  0
   11.0565  -14.9475   24.5689 O   0  0  0  0  0  0  0  0  0  0  0  0
   12.6882  -18.5039   23.1343 C   0  0  0  0  0  0  0  0  0  0  0  0
   12.8199  -18.6800   21.8690 O   0  0  0  0  0  0  0  0  0  0  0  0
    9.3934  -15.9279   25.7262 O   0  0  0  0  0  0  0  0  0  0  0  0
   12.8879  -19.6501   23.9439 N   0  0  0  0  0  0  0  0  0  0  0  0
   14.2070  -20.3009   24.0149 C   0  0  1  0  0  0  0  0  0  0  0  0
   15.2567  -19.2940   23.5323 C   0  0  0  0  0  0  0  0  0  0  0  0
   15.7632  -19.5711   22.1912 C   0  0  0  0  0  0  0  0  0  0  0  0
   15.2734  -20.4559   21.4688 O   0  0  0  0  0  0  0  0  0  0  0  0
   14.4217  -20.7124   25.4056 C   0  0  0  0  0  0  0  0  0  0  0  0
   14.1723  -19.9800   26.3686 O   0  0  0  0  0  0  0  0  0  0  0  0
   16.8277  -18.8485   21.6573 O   0  0  0  0  0  0  0  0  0  0  0  0
   14.9279  -21.9807   25.6937 O   0  0  0  0  0  0  0  0  0  0  0  0
  2  1  1  6
  2 13  1  0
  2  3  1  0
  3  4  1  0
  4  5  2  0
  5  6  1  0
  7  6  1  0
  8  7  2  0
  9  8  1  0
 10 11  1  0
 10  9  2  0
 11 12  2  0
 12  4  1  0
 12  7  1  0
 13 15  1  0
 14 13  2  0
 15 16  1  0
 16 17  1  1
 17 18  1  0
 18 19  2  0
 18 22  1  0
 20 16  1  0
 21 20  2  0
 23 20  1  0
 24 23  1  0
 24 25  1  1
 26 25  1  0
 26 27  2  0
 28 24  1  0
 28 31  1  0
 29 28  2  0
 30 26  1  0
M  END
$$$$
