EWA.pdb
     RDKit          3D

 29 30  0  0  1  0  0  0  0  0999 V2000
   28.5431  -21.0354  -15.4893 N   0  0  0  0  0  0  0  0  0  0  0  0
   28.3316  -20.0278  -14.4833 C   0  0  1  0  0  0  0  0  0  0  0  0
   27.6179  -18.8111  -15.0431 C   0  0  0  0  0  0  0  0  0  0  0  0
   28.5284  -18.0403  -15.9898 C   0  0  0  0  0  0  0  0  0  0  0  0
   28.5290  -18.7529  -17.2948 C   0  0  0  0  0  0  0  0  0  0  0  0
   27.5171  -18.8310  -18.0145 O   0  0  0  0  0  0  0  0  0  0  0  0
   27.4669  -20.5647  -13.3978 C   0  0  0  0  0  0  0  0  0  0  0  0
   26.4238  -21.1998  -13.6805 O   0  0  0  0  0  0  0  0  0  0  0  0
   29.6980  -19.3597  -17.7402 O   0  0  0  0  0  0  0  0  0  0  0  0
   27.8229  -20.3588  -12.0495 N   0  0  0  0  0  0  0  0  0  0  0  0
   26.9901  -20.9223  -10.9725 C   0  0  1  0  0  0  0  0  0  0  0  0
   27.7520  -20.6923   -9.7186 C   0  0  0  0  0  0  0  0  0  0  0  0
   27.0073  -20.7312   -8.4623 C   0  0  0  0  0  0  0  0  0  0  0  0
   25.6802  -21.0944   -8.2408 C   0  0  0  0  0  0  0  0  0  0  0  0
   25.4239  -20.9751   -6.9282 N   0  0  0  0  0  0  0  0  0  0  0  0
   26.5240  -20.5491   -6.2715 C   0  0  0  0  0  0  0  0  0  0  0  0
   26.7874  -20.2915   -4.9471 C   0  0  0  0  0  0  0  0  0  0  0  0
   28.0526  -19.8748   -4.5595 C   0  0  0  0  0  0  0  0  0  0  0  0
   29.0212  -19.7260   -5.5060 C   0  0  0  0  0  0  0  0  0  0  0  0
   28.7800  -19.9752   -6.8195 C   0  0  0  0  0  0  0  0  0  0  0  0
   27.5040  -20.3945   -7.2004 C   0  0  0  0  0  0  0  0  0  0  0  0
   25.6252  -20.4199  -11.0526 C   0  0  0  0  0  0  0  0  0  0  0  0
   25.4092  -19.1628  -10.9866 O   0  0  0  0  0  0  0  0  0  0  0  0
   22.5157  -21.7282  -12.4247 C   0  0  0  0  0  0  0  0  0  0  0  0
   23.1925  -20.7253  -11.4498 C   0  0  2  0  0  0  0  0  0  0  0  0
   24.5125  -21.2817  -11.2120 N   0  0  0  0  0  0  0  0  0  0  0  0
   22.3192  -20.7342  -10.2590 C   0  0  0  0  0  0  0  0  0  0  0  0
   22.5328  -21.3837   -9.2275 O   0  0  0  0  0  0  0  0  0  0  0  0
   21.1720  -19.9551  -10.2992 O   0  0  0  0  0  0  0  0  0  0  0  0
  2  3  1  0
  2  1  1  6
  4  5  1  0
  4  3  1  0
  5  6  2  0
  7  2  1  0
  8  7  2  0
  9  5  1  0
 10  7  1  0
 11 10  1  0
 11 12  1  1
 12 13  1  0
 13 14  2  0
 14 15  1  0
 16 15  1  0
 17 16  2  0
 18 17  1  0
 19 20  1  0
 19 18  2  0
 20 21  2  0
 21 13  1  0
 21 16  1  0
 22 26  1  0
 22 11  1  0
 23 22  2  0
 25 24  1  6
 25 27  1  0
 25 26  1  0
 27 29  1  0
 28 27  2  0
M  END
$$$$
