EWA.pdb
     RDKit          3D

 29 30  0  0  1  0  0  0  0  0999 V2000
   28.4441  -21.3713  -15.3987 N   0  0  0  0  0  0  0  0  0  0  0  0
   28.3416  -20.3293  -14.4110 C   0  0  1  0  0  0  0  0  0  0  0  0
   27.7120  -19.0711  -14.9796 C   0  0  0  0  0  0  0  0  0  0  0  0
   28.6595  -18.3886  -15.9571 C   0  0  0  0  0  0  0  0  0  0  0  0
   28.4495  -19.0050  -17.2938 C   0  0  0  0  0  0  0  0  0  0  0  0
   29.3732  -19.5318  -17.9397 O   0  0  0  0  0  0  0  0  0  0  0  0
   27.4675  -20.7724  -13.2912 C   0  0  0  0  0  0  0  0  0  0  0  0
   26.3554  -21.2987  -13.5317 O   0  0  0  0  0  0  0  0  0  0  0  0
   27.1776  -18.9996  -17.8554 O   0  0  0  0  0  0  0  0  0  0  0  0
   27.8921  -20.6003  -11.9582 N   0  0  0  0  0  0  0  0  0  0  0  0
   27.0107  -20.9976  -10.8463 C   0  0  1  0  0  0  0  0  0  0  0  0
   27.8169  -20.8105   -9.6131 C   0  0  0  0  0  0  0  0  0  0  0  0
   27.0972  -20.7351   -8.3440 C   0  0  0  0  0  0  0  0  0  0  0  0
   25.7348  -20.8948   -8.0980 C   0  0  0  0  0  0  0  0  0  0  0  0
   25.5225  -20.7360   -6.7817 N   0  0  0  0  0  0  0  0  0  0  0  0
   26.6855  -20.4785   -6.1460 C   0  0  0  0  0  0  0  0  0  0  0  0
   27.0080  -20.2608   -4.8275 C   0  0  0  0  0  0  0  0  0  0  0  0
   28.3280  -20.0378   -4.4636 C   0  0  0  0  0  0  0  0  0  0  0  0
   29.2910  -20.0376   -5.4274 C   0  0  0  0  0  0  0  0  0  0  0  0
   28.9920  -20.2503   -6.7354 C   0  0  0  0  0  0  0  0  0  0  0  0
   27.6610  -20.4743   -7.0923 C   0  0  0  0  0  0  0  0  0  0  0  0
   25.7222  -20.3244  -10.9370 C   0  0  0  0  0  0  0  0  0  0  0  0
   25.6610  -19.0554  -10.8052 O   0  0  0  0  0  0  0  0  0  0  0  0
   22.5632  -20.8592  -12.5220 C   0  0  0  0  0  0  0  0  0  0  0  0
   23.2575  -20.3121  -11.2442 C   0  0  2  0  0  0  0  0  0  0  0  0
   24.5179  -21.0301  -11.1778 N   0  0  0  0  0  0  0  0  0  0  0  0
   22.3219  -20.6493  -10.1525 C   0  0  0  0  0  0  0  0  0  0  0  0
   22.5157  -21.5214   -9.2962 O   0  0  0  0  0  0  0  0  0  0  0  0
   21.1353  -19.9340  -10.0811 O   0  0  0  0  0  0  0  0  0  0  0  0
  2  3  1  0
  2  1  1  6
  4  5  1  0
  4  3  1  0
  5  6  2  0
  7  2  1  0
  8  7  2  0
  9  5  1  0
 10  7  1  0
 11 10  1  0
 11 12  1  1
 12 13  1  0
 13 14  2  0
 14 15  1  0
 16 15  1  0
 17 16  2  0
 18 17  1  0
 19 20  1  0
 19 18  2  0
 20 21  2  0
 21 13  1  0
 21 16  1  0
 22 26  1  0
 22 11  1  0
 23 22  2  0
 25 24  1  6
 25 27  1  0
 25 26  1  0
 27 29  1  0
 28 27  2  0
M  END
$$$$
