EWA.pdb
     RDKit          3D

 29 30  0  0  1  0  0  0  0  0999 V2000
   27.1331  -20.3295  -16.4809 N   0  0  0  0  0  0  0  0  0  0  0  0
   27.2452  -21.7031  -16.0656 C   0  0  1  0  0  0  0  0  0  0  0  0
   28.6799  -22.0828  -15.7488 C   0  0  0  0  0  0  0  0  0  0  0  0
   29.3659  -22.6685  -16.9759 C   0  0  0  0  0  0  0  0  0  0  0  0
   29.3680  -21.6233  -18.0334 C   0  0  0  0  0  0  0  0  0  0  0  0
   29.6802  -20.4409  -17.8043 O   0  0  0  0  0  0  0  0  0  0  0  0
   26.4627  -21.9244  -14.8193 C   0  0  0  0  0  0  0  0  0  0  0  0
   26.3150  -23.0842  -14.3669 O   0  0  0  0  0  0  0  0  0  0  0  0
   29.0093  -21.9662  -19.3322 O   0  0  0  0  0  0  0  0  0  0  0  0
   25.8877  -20.8272  -14.1467 N   0  0  0  0  0  0  0  0  0  0  0  0
   25.1194  -21.0417  -12.9079 C   0  0  1  0  0  0  0  0  0  0  0  0
   25.7068  -20.1125  -11.9094 C   0  0  0  0  0  0  0  0  0  0  0  0
   26.9667  -20.5067  -11.2834 C   0  0  0  0  0  0  0  0  0  0  0  0
   28.1253  -21.0002  -11.8801 C   0  0  0  0  0  0  0  0  0  0  0  0
   29.0309  -21.2306  -10.9159 N   0  0  0  0  0  0  0  0  0  0  0  0
   28.5218  -20.9106   -9.7071 C   0  0  0  0  0  0  0  0  0  0  0  0
   29.0352  -20.9432   -8.4322 C   0  0  0  0  0  0  0  0  0  0  0  0
   28.2609  -20.5212   -7.3613 C   0  0  0  0  0  0  0  0  0  0  0  0
   26.9935  -20.0782   -7.5927 C   0  0  0  0  0  0  0  0  0  0  0  0
   26.4685  -20.0390   -8.8450 C   0  0  0  0  0  0  0  0  0  0  0  0
   27.2550  -20.4652   -9.9168 C   0  0  0  0  0  0  0  0  0  0  0  0
   23.6874  -20.9648  -13.1633 C   0  0  0  0  0  0  0  0  0  0  0  0
   23.1880  -19.8936  -13.6475 O   0  0  0  0  0  0  0  0  0  0  0  0
   20.8646  -23.3348  -13.3480 C   0  0  0  0  0  0  0  0  0  0  0  0
   21.3845  -21.8929  -13.0938 C   0  0  2  0  0  0  0  0  0  0  0  0
   22.8151  -22.0495  -12.9005 N   0  0  0  0  0  0  0  0  0  0  0  0
   20.6639  -21.4579  -11.8804 C   0  0  0  0  0  0  0  0  0  0  0  0
   21.1607  -21.3800  -10.7498 O   0  0  0  0  0  0  0  0  0  0  0  0
   19.3280  -21.1097  -12.0182 O   0  0  0  0  0  0  0  0  0  0  0  0
  2  3  1  0
  2  1  1  1
  4  5  1  0
  4  3  1  0
  5  6  2  0
  7  2  1  0
  8  7  2  0
  9  5  1  0
 10  7  1  0
 11 10  1  0
 11 12  1  1
 12 13  1  0
 13 14  2  0
 14 15  1  0
 16 15  1  0
 17 16  2  0
 18 17  1  0
 19 20  1  0
 19 18  2  0
 20 21  2  0
 21 13  1  0
 21 16  1  0
 22 26  1  0
 22 11  1  0
 23 22  2  0
 25 24  1  1
 25 27  1  0
 25 26  1  0
 27 29  1  0
 28 27  2  0
M  END
$$$$
