EWA.pdb
     RDKit          3D

 29 30  0  0  1  0  0  0  0  0999 V2000
   16.0238  -19.4299    3.3811 N   0  0  0  0  0  0  0  0  0  0  0  0
   15.8106  -19.0007    4.7384 C   0  0  1  0  0  0  0  0  0  0  0  0
   15.6750  -20.1764    5.6884 C   0  0  0  0  0  0  0  0  0  0  0  0
   14.2448  -20.6994    5.6981 C   0  0  0  0  0  0  0  0  0  0  0  0
   13.4548  -19.8354    6.6149 C   0  0  0  0  0  0  0  0  0  0  0  0
   13.9769  -18.9464    7.3114 O   0  0  0  0  0  0  0  0  0  0  0  0
   16.9763  -18.2057    5.2108 C   0  0  0  0  0  0  0  0  0  0  0  0
   18.0751  -18.2838    4.6125 O   0  0  0  0  0  0  0  0  0  0  0  0
   12.0795  -20.0169    6.7074 O   0  0  0  0  0  0  0  0  0  0  0  0
   16.8434  -17.3629    6.3329 N   0  0  0  0  0  0  0  0  0  0  0  0
   17.9845  -16.5452    6.7805 C   0  0  1  0  0  0  0  0  0  0  0  0
   17.4081  -15.2289    7.1553 C   0  0  0  0  0  0  0  0  0  0  0  0
   17.8561  -14.0596    6.4028 C   0  0  0  0  0  0  0  0  0  0  0  0
   17.2180  -13.3912    5.3596 C   0  0  0  0  0  0  0  0  0  0  0  0
   18.0020  -12.3737    4.9686 N   0  0  0  0  0  0  0  0  0  0  0  0
   19.1311  -12.3396    5.7081 C   0  0  0  0  0  0  0  0  0  0  0  0
   20.2228  -11.5041    5.7191 C   0  0  0  0  0  0  0  0  0  0  0  0
   21.2461  -11.7115    6.6326 C   0  0  0  0  0  0  0  0  0  0  0  0
   21.1516  -12.7488    7.5108 C   0  0  0  0  0  0  0  0  0  0  0  0
   20.0812  -13.5853    7.5149 C   0  0  0  0  0  0  0  0  0  0  0  0
   19.0560  -13.3689    6.5924 C   0  0  0  0  0  0  0  0  0  0  0  0
   18.7790  -17.2581    7.7716 C   0  0  0  0  0  0  0  0  0  0  0  0
   18.1958  -17.8620    8.7342 O   0  0  0  0  0  0  0  0  0  0  0  0
   22.4259  -17.8624    8.3144 C   0  0  0  0  0  0  0  0  0  0  0  0
   20.9426  -17.9662    8.7651 C   0  0  2  0  0  0  0  0  0  0  0  0
   20.1927  -17.3167    7.7047 N   0  0  0  0  0  0  0  0  0  0  0  0
   20.9045  -17.2416   10.0512 C   0  0  0  0  0  0  0  0  0  0  0  0
   20.4802  -16.0892   10.2040 O   0  0  0  0  0  0  0  0  0  0  0  0
   21.3802  -17.9030   11.1742 O   0  0  0  0  0  0  0  0  0  0  0  0
  2  3  1  0
  2  1  1  6
  4  5  1  0
  4  3  1  0
  5  6  2  0
  7  2  1  0
  8  7  2  0
  9  5  1  0
 10  7  1  0
 11 10  1  0
 11 12  1  1
 12 13  1  0
 13 14  2  0
 14 15  1  0
 16 15  1  0
 17 16  2  0
 18 17  1  0
 19 20  1  0
 19 18  2  0
 20 21  2  0
 21 13  1  0
 21 16  1  0
 22 26  1  0
 22 11  1  0
 23 22  2  0
 25 24  1  6
 25 27  1  0
 25 26  1  0
 27 29  1  0
 28 27  2  0
M  END
$$$$
