EWA.pdb
     RDKit          3D

 29 30  0  0  1  0  0  0  0  0999 V2000
   28.5795  -21.9923  -16.5598 N   0  0  0  0  0  0  0  0  0  0  0  0
   28.2525  -20.8553  -15.7399 C   0  0  1  0  0  0  0  0  0  0  0  0
   27.4792  -19.8037  -16.5141 C   0  0  0  0  0  0  0  0  0  0  0  0
   27.7728  -19.9073  -18.0048 C   0  0  0  0  0  0  0  0  0  0  0  0
   28.5276  -18.6892  -18.4016 C   0  0  0  0  0  0  0  0  0  0  0  0
   28.0905  -17.8729  -19.2325 O   0  0  0  0  0  0  0  0  0  0  0  0
   27.3814  -21.2757  -14.6092 C   0  0  0  0  0  0  0  0  0  0  0  0
   26.4349  -22.0735  -14.8071 O   0  0  0  0  0  0  0  0  0  0  0  0
   29.7705  -18.4405  -17.8303 O   0  0  0  0  0  0  0  0  0  0  0  0
   27.6224  -20.7760  -13.3133 N   0  0  0  0  0  0  0  0  0  0  0  0
   26.7559  -21.1827  -12.1931 C   0  0  1  0  0  0  0  0  0  0  0  0
   27.5461  -20.9202  -10.9633 C   0  0  0  0  0  0  0  0  0  0  0  0
   26.8129  -20.8021   -9.7052 C   0  0  0  0  0  0  0  0  0  0  0  0
   25.4432  -20.9156   -9.4748 C   0  0  0  0  0  0  0  0  0  0  0  0
   25.2192  -20.7292   -8.1641 N   0  0  0  0  0  0  0  0  0  0  0  0
   26.3814  -20.4977   -7.5171 C   0  0  0  0  0  0  0  0  0  0  0  0
   26.6936  -20.2690   -6.1980 C   0  0  0  0  0  0  0  0  0  0  0  0
   28.0152  -20.0811   -5.8202 C   0  0  0  0  0  0  0  0  0  0  0  0
   28.9900  -20.1263   -6.7710 C   0  0  0  0  0  0  0  0  0  0  0  0
   28.7012  -20.3505   -8.0793 C   0  0  0  0  0  0  0  0  0  0  0  0
   27.3686  -20.5389   -8.4504 C   0  0  0  0  0  0  0  0  0  0  0  0
   25.4367  -20.5760  -12.3082 C   0  0  0  0  0  0  0  0  0  0  0  0
   25.3298  -19.3061  -12.3933 O   0  0  0  0  0  0  0  0  0  0  0  0
   22.2234  -21.6500  -13.5459 C   0  0  0  0  0  0  0  0  0  0  0  0
   22.9694  -20.7049  -12.5638 C   0  0  2  0  0  0  0  0  0  0  0  0
   24.2507  -21.3500  -12.3390 N   0  0  0  0  0  0  0  0  0  0  0  0
   22.1028  -20.6693  -11.3686 C   0  0  0  0  0  0  0  0  0  0  0  0
   22.3442  -21.2447  -10.2999 O   0  0  0  0  0  0  0  0  0  0  0  0
   20.9286  -19.9349  -11.4495 O   0  0  0  0  0  0  0  0  0  0  0  0
  2  3  1  0
  2  1  1  6
  4  5  1  0
  4  3  1  0
  5  6  2  0
  7  2  1  0
  8  7  2  0
  9  5  1  0
 10  7  1  0
 11 10  1  0
 11 12  1  1
 12 13  1  0
 13 14  2  0
 14 15  1  0
 16 15  1  0
 17 16  2  0
 18 17  1  0
 19 20  1  0
 19 18  2  0
 20 21  2  0
 21 13  1  0
 21 16  1  0
 22 26  1  0
 22 11  1  0
 23 22  2  0
 25 24  1  6
 25 27  1  0
 25 26  1  0
 27 29  1  0
 28 27  2  0
M  END
$$$$
