EWA.pdb
     RDKit          3D

 29 30  0  0  1  0  0  0  0  0999 V2000
   28.3826  -22.0781  -15.3288 N   0  0  0  0  0  0  0  0  0  0  0  0
   27.5762  -20.9521  -14.9365 C   0  0  1  0  0  0  0  0  0  0  0  0
   26.7597  -20.4103  -16.0953 C   0  0  0  0  0  0  0  0  0  0  0  0
   27.5260  -19.3190  -16.8309 C   0  0  0  0  0  0  0  0  0  0  0  0
   28.2409  -19.9578  -17.9675 C   0  0  0  0  0  0  0  0  0  0  0  0
   29.4797  -20.0682  -18.0009 O   0  0  0  0  0  0  0  0  0  0  0  0
   26.6037  -21.3623  -13.8875 C   0  0  0  0  0  0  0  0  0  0  0  0
   26.0123  -22.4642  -13.9743 O   0  0  0  0  0  0  0  0  0  0  0  0
   27.5098  -20.4548  -19.0406 O   0  0  0  0  0  0  0  0  0  0  0  0
   26.3484  -20.5098  -12.7944 N   0  0  0  0  0  0  0  0  0  0  0  0
   25.3703  -20.9031  -11.7650 C   0  0  1  0  0  0  0  0  0  0  0  0
   25.8198  -20.2396  -10.5147 C   0  0  0  0  0  0  0  0  0  0  0  0
   27.0786  -20.6928   -9.9278 C   0  0  0  0  0  0  0  0  0  0  0  0
   28.0739  -21.4873  -10.4938 C   0  0  0  0  0  0  0  0  0  0  0  0
   29.0493  -21.6519   -9.5859 N   0  0  0  0  0  0  0  0  0  0  0  0
   28.7428  -21.0004   -8.4438 C   0  0  0  0  0  0  0  0  0  0  0  0
   29.3990  -20.8431   -7.2460 C   0  0  0  0  0  0  0  0  0  0  0  0
   28.8294  -20.0793   -6.2377 C   0  0  0  0  0  0  0  0  0  0  0  0
   27.6185  -19.4931   -6.4529 C   0  0  0  0  0  0  0  0  0  0  0  0
   26.9546  -19.6372   -7.6293 C   0  0  0  0  0  0  0  0  0  0  0  0
   27.5355  -20.4073   -8.6385 C   0  0  0  0  0  0  0  0  0  0  0  0
   24.0082  -20.6633  -12.2221 C   0  0  0  0  0  0  0  0  0  0  0  0
   23.6399  -19.4764  -12.5173 O   0  0  0  0  0  0  0  0  0  0  0  0
   21.2466  -22.7800  -13.4618 C   0  0  0  0  0  0  0  0  0  0  0  0
   21.7375  -21.4259  -12.8791 C   0  0  2  0  0  0  0  0  0  0  0  0
   23.0646  -21.7103  -12.3630 N   0  0  0  0  0  0  0  0  0  0  0  0
   20.7477  -21.1034  -11.8317 C   0  0  0  0  0  0  0  0  0  0  0  0
   20.9553  -21.1735  -10.6138 O   0  0  0  0  0  0  0  0  0  0  0  0
   19.4892  -20.6902  -12.2441 O   0  0  0  0  0  0  0  0  0  0  0  0
  2  3  1  0
  2  1  1  6
  4  5  1  0
  4  3  1  0
  5  6  2  0
  7  2  1  0
  8  7  2  0
  9  5  1  0
 10  7  1  0
 11 10  1  0
 11 12  1  1
 12 13  1  0
 13 14  2  0
 14 15  1  0
 16 15  1  0
 17 16  2  0
 18 17  1  0
 19 20  1  0
 19 18  2  0
 20 21  2  0
 21 13  1  0
 21 16  1  0
 22 26  1  0
 22 11  1  0
 23 22  2  0
 25 24  1  1
 25 27  1  0
 25 26  1  0
 27 29  1  0
 28 27  2  0
M  END
$$$$
