EWA.pdb
     RDKit          3D

 29 30  0  0  1  0  0  0  0  0999 V2000
   28.5385  -20.6503  -15.8963 N   0  0  0  0  0  0  0  0  0  0  0  0
   28.1094  -19.9044  -14.7425 C   0  0  1  0  0  0  0  0  0  0  0  0
   27.3294  -18.6617  -15.1305 C   0  0  0  0  0  0  0  0  0  0  0  0
   28.2086  -17.6964  -15.9143 C   0  0  0  0  0  0  0  0  0  0  0  0
   27.7257  -17.6869  -17.3206 C   0  0  0  0  0  0  0  0  0  0  0  0
   28.4722  -17.9311  -18.2855 O   0  0  0  0  0  0  0  0  0  0  0  0
   27.1980  -20.7342  -13.9088 C   0  0  0  0  0  0  0  0  0  0  0  0
   26.3101  -21.4328  -14.4521 O   0  0  0  0  0  0  0  0  0  0  0  0
   26.3916  -17.3955  -17.5819 O   0  0  0  0  0  0  0  0  0  0  0  0
   27.3347  -20.7347  -12.5059 N   0  0  0  0  0  0  0  0  0  0  0  0
   26.3702  -21.4721  -11.6710 C   0  0  1  0  0  0  0  0  0  0  0  0
   27.0885  -21.7758  -10.4072 C   0  0  0  0  0  0  0  0  0  0  0  0
   26.9547  -20.8194   -9.3109 C   0  0  0  0  0  0  0  0  0  0  0  0
   25.9284  -19.9104   -9.0610 C   0  0  0  0  0  0  0  0  0  0  0  0
   26.2293  -19.2318   -7.9422 N   0  0  0  0  0  0  0  0  0  0  0  0
   27.4102  -19.6526   -7.4408 C   0  0  0  0  0  0  0  0  0  0  0  0
   28.1383  -19.3009   -6.3290 C   0  0  0  0  0  0  0  0  0  0  0  0
   29.3384  -19.9404   -6.0546 C   0  0  0  0  0  0  0  0  0  0  0  0
   29.7795  -20.9144   -6.8991 C   0  0  0  0  0  0  0  0  0  0  0  0
   29.0745  -21.2754   -8.0027 C   0  0  0  0  0  0  0  0  0  0  0  0
   27.8677  -20.6268   -8.2708 C   0  0  0  0  0  0  0  0  0  0  0  0
   25.1014  -20.7613  -11.5899 C   0  0  0  0  0  0  0  0  0  0  0  0
   25.0954  -19.4940  -11.4314 O   0  0  0  0  0  0  0  0  0  0  0  0
   22.6687  -20.5772  -13.5674 C   0  0  0  0  0  0  0  0  0  0  0  0
   22.6559  -20.6782  -12.0170 C   0  0  2  0  0  0  0  0  0  0  0  0
   23.8557  -21.4281  -11.6902 N   0  0  0  0  0  0  0  0  0  0  0  0
   21.4027  -21.3974  -11.7124 C   0  0  0  0  0  0  0  0  0  0  0  0
   20.2691  -20.9051  -11.7746 O   0  0  0  0  0  0  0  0  0  0  0  0
   21.5035  -22.7264  -11.3272 O   0  0  0  0  0  0  0  0  0  0  0  0
  2  3  1  0
  2  1  1  6
  4  5  1  0
  4  3  1  0
  5  6  2  0
  7  2  1  0
  8  7  2  0
  9  5  1  0
 10  7  1  0
 11 10  1  0
 11 12  1  1
 12 13  1  0
 13 14  2  0
 14 15  1  0
 16 15  1  0
 17 16  2  0
 18 17  1  0
 19 20  1  0
 19 18  2  0
 20 21  2  0
 21 13  1  0
 21 16  1  0
 22 26  1  0
 22 11  1  0
 23 22  2  0
 25 24  1  6
 25 27  1  0
 25 26  1  0
 27 29  1  0
 28 27  2  0
M  END
$$$$
