EWA.pdb
     RDKit          3D

 29 30  0  0  1  0  0  0  0  0999 V2000
   20.3242   -9.3235  -20.9559 N   0  0  0  0  0  0  0  0  0  0  0  0
   19.5885   -9.5969  -19.7494 C   0  0  1  0  0  0  0  0  0  0  0  0
   19.2829  -11.0755  -19.5962 C   0  0  0  0  0  0  0  0  0  0  0  0
   20.5379  -11.9105  -19.8130 C   0  0  0  0  0  0  0  0  0  0  0  0
   20.1453  -13.3426  -19.7383 C   0  0  0  0  0  0  0  0  0  0  0  0
   20.9647  -14.2493  -19.5050 O   0  0  0  0  0  0  0  0  0  0  0  0
   20.3938   -9.2048  -18.5611 C   0  0  0  0  0  0  0  0  0  0  0  0
   19.9326   -9.3680  -17.4069 O   0  0  0  0  0  0  0  0  0  0  0  0
   18.8151  -13.6965  -19.9349 O   0  0  0  0  0  0  0  0  0  0  0  0
   21.6779   -8.6497  -18.7349 N   0  0  0  0  0  0  0  0  0  0  0  0
   22.4931   -8.2948  -17.5600 C   0  0  1  0  0  0  0  0  0  0  0  0
   23.8826   -8.6884  -17.9063 C   0  0  0  0  0  0  0  0  0  0  0  0
   24.3107  -10.0367  -17.5411 C   0  0  0  0  0  0  0  0  0  0  0  0
   23.9219  -11.2581  -18.0879 C   0  0  0  0  0  0  0  0  0  0  0  0
   24.5692  -12.2372  -17.4359 N   0  0  0  0  0  0  0  0  0  0  0  0
   25.3698  -11.7166  -16.4816 C   0  0  0  0  0  0  0  0  0  0  0  0
   26.2355  -12.2766  -15.5722 C   0  0  0  0  0  0  0  0  0  0  0  0
   26.9569  -11.4643  -14.7095 C   0  0  0  0  0  0  0  0  0  0  0  0
   26.7936  -10.1134  -14.7780 C   0  0  0  0  0  0  0  0  0  0  0  0
   25.9428   -9.5415  -15.6693 C   0  0  0  0  0  0  0  0  0  0  0  0
   25.2213  -10.3666  -16.5339 C   0  0  0  0  0  0  0  0  0  0  0  0
   22.2472   -6.9183  -17.1521 C   0  0  0  0  0  0  0  0  0  0  0  0
   22.5440   -5.9613  -17.9441 O   0  0  0  0  0  0  0  0  0  0  0  0
   20.1937   -5.2496  -14.6115 C   0  0  0  0  0  0  0  0  0  0  0  0
   21.4331   -5.2059  -15.5475 C   0  0  2  0  0  0  0  0  0  0  0  0
   21.6755   -6.5943  -15.8972 N   0  0  0  0  0  0  0  0  0  0  0  0
   22.4948   -4.6080  -14.7133 C   0  0  0  0  0  0  0  0  0  0  0  0
   23.4318   -5.2336  -14.2014 O   0  0  0  0  0  0  0  0  0  0  0  0
   22.4379   -3.2406  -14.4859 O   0  0  0  0  0  0  0  0  0  0  0  0
  2  3  1  0
  2  1  1  6
  4  5  1  0
  4  3  1  0
  5  6  2  0
  7  2  1  0
  8  7  2  0
  9  5  1  0
 10  7  1  0
 11 10  1  0
 11 12  1  6
 12 13  1  0
 13 14  2  0
 14 15  1  0
 16 15  1  0
 17 16  2  0
 18 17  1  0
 19 20  1  0
 19 18  2  0
 20 21  2  0
 21 13  1  0
 21 16  1  0
 22 26  1  0
 22 11  1  0
 23 22  2  0
 25 24  1  1
 25 27  1  0
 25 26  1  0
 27 29  1  0
 28 27  2  0
M  END
$$$$
