EWA.pdb
     RDKit          3D

 29 30  0  0  1  0  0  0  0  0999 V2000
   28.5771  -21.7525  -15.7292 N   0  0  0  0  0  0  0  0  0  0  0  0
   28.9354  -20.9832  -14.5666 C   0  0  1  0  0  0  0  0  0  0  0  0
   29.0181  -19.4994  -14.8738 C   0  0  0  0  0  0  0  0  0  0  0  0
   28.0749  -19.1311  -16.0113 C   0  0  0  0  0  0  0  0  0  0  0  0
   26.8726  -18.4939  -15.4119 C   0  0  0  0  0  0  0  0  0  0  0  0
   25.7191  -18.9077  -15.6271 O   0  0  0  0  0  0  0  0  0  0  0  0
   27.8982  -21.1409  -13.5113 C   0  0  0  0  0  0  0  0  0  0  0  0
   26.7837  -21.6402  -13.7944 O   0  0  0  0  0  0  0  0  0  0  0  0
   27.0284  -17.3928  -14.5774 O   0  0  0  0  0  0  0  0  0  0  0  0
   28.1707  -20.7284  -12.1913 N   0  0  0  0  0  0  0  0  0  0  0  0
   27.1753  -20.9522  -11.1283 C   0  0  1  0  0  0  0  0  0  0  0  0
   27.8442  -20.5485   -9.8653 C   0  0  0  0  0  0  0  0  0  0  0  0
   27.0290  -20.5144   -8.6535 C   0  0  0  0  0  0  0  0  0  0  0  0
   25.6435  -20.5946   -8.5265 C   0  0  0  0  0  0  0  0  0  0  0  0
   25.3344  -20.5170   -7.2221 N   0  0  0  0  0  0  0  0  0  0  0  0
   26.4554  -20.3893   -6.4805 C   0  0  0  0  0  0  0  0  0  0  0  0
   26.6817  -20.2912   -5.1281 C   0  0  0  0  0  0  0  0  0  0  0  0
   27.9790  -20.1892   -4.6472 C   0  0  0  0  0  0  0  0  0  0  0  0
   29.0160  -20.1874   -5.5309 C   0  0  0  0  0  0  0  0  0  0  0  0
   28.8124  -20.2830   -6.8706 C   0  0  0  0  0  0  0  0  0  0  0  0
   27.5037  -20.3857   -7.3455 C   0  0  0  0  0  0  0  0  0  0  0  0
   25.9035  -20.3274  -11.4658 C   0  0  0  0  0  0  0  0  0  0  0  0
   25.8450  -19.0625  -11.6329 O   0  0  0  0  0  0  0  0  0  0  0  0
   22.7768  -21.2694  -12.9945 C   0  0  0  0  0  0  0  0  0  0  0  0
   23.4595  -20.4001  -11.9025 C   0  0  2  0  0  0  0  0  0  0  0  0
   24.7135  -21.0785  -11.6271 N   0  0  0  0  0  0  0  0  0  0  0  0
   22.5081  -20.4260  -10.7734 C   0  0  0  0  0  0  0  0  0  0  0  0
   22.6925  -21.0203   -9.7038 O   0  0  0  0  0  0  0  0  0  0  0  0
   21.3167  -19.7310  -10.9227 O   0  0  0  0  0  0  0  0  0  0  0  0
  2  3  1  0
  2  1  1  6
  4  5  1  0
  4  3  1  0
  5  6  2  0
  7  2  1  0
  8  7  2  0
  9  5  1  0
 10  7  1  0
 11 10  1  0
 11 12  1  1
 12 13  1  0
 13 14  2  0
 14 15  1  0
 16 15  1  0
 17 16  2  0
 18 17  1  0
 19 20  1  0
 19 18  2  0
 20 21  2  0
 21 13  1  0
 21 16  1  0
 22 26  1  0
 22 11  1  0
 23 22  2  0
 25 24  1  6
 25 27  1  0
 25 26  1  0
 27 29  1  0
 28 27  2  0
M  END
$$$$
