EWA.pdb
     RDKit          3D

 29 30  0  0  1  0  0  0  0  0999 V2000
   28.3947  -21.8544  -14.7879 N   0  0  0  0  0  0  0  0  0  0  0  0
   27.5390  -20.7631  -14.4022 C   0  0  1  0  0  0  0  0  0  0  0  0
   26.7161  -20.2501  -15.5696 C   0  0  0  0  0  0  0  0  0  0  0  0
   27.5350  -19.2951  -16.4278 C   0  0  0  0  0  0  0  0  0  0  0  0
   27.7343  -18.0453  -15.6473 C   0  0  0  0  0  0  0  0  0  0  0  0
   28.8637  -17.6028  -15.3703 O   0  0  0  0  0  0  0  0  0  0  0  0
   26.5706  -21.2158  -13.3670 C   0  0  0  0  0  0  0  0  0  0  0  0
   25.9925  -22.3216  -13.4871 O   0  0  0  0  0  0  0  0  0  0  0  0
   26.6252  -17.3339  -15.2035 O   0  0  0  0  0  0  0  0  0  0  0  0
   26.3043  -20.3992  -12.2493 N   0  0  0  0  0  0  0  0  0  0  0  0
   25.3313  -20.8352  -11.2324 C   0  0  1  0  0  0  0  0  0  0  0  0
   25.7876  -20.2251   -9.9576 C   0  0  0  0  0  0  0  0  0  0  0  0
   27.0596  -20.6877   -9.4079 C   0  0  0  0  0  0  0  0  0  0  0  0
   27.9966  -21.5509   -9.9728 C   0  0  0  0  0  0  0  0  0  0  0  0
   29.0125  -21.6957   -9.1068 N   0  0  0  0  0  0  0  0  0  0  0  0
   28.7885  -20.9653   -7.9936 C   0  0  0  0  0  0  0  0  0  0  0  0
   29.5119  -20.7598   -6.8428 C   0  0  0  0  0  0  0  0  0  0  0  0
   29.0221  -19.9158   -5.8567 C   0  0  0  0  0  0  0  0  0  0  0  0
   27.8218  -19.2998   -6.0466 C   0  0  0  0  0  0  0  0  0  0  0  0
   27.0924  -19.4907   -7.1766 C   0  0  0  0  0  0  0  0  0  0  0  0
   27.5932  -20.3414   -8.1637 C   0  0  0  0  0  0  0  0  0  0  0  0
   23.9670  -20.5760  -11.6720 C   0  0  0  0  0  0  0  0  0  0  0  0
   23.4745  -19.4041  -11.5480 O   0  0  0  0  0  0  0  0  0  0  0  0
   21.4499  -22.4358  -13.6700 C   0  0  0  0  0  0  0  0  0  0  0  0
   21.8252  -21.2576  -12.7291 C   0  0  2  0  0  0  0  0  0  0  0  0
   23.1559  -21.5842  -12.2483 N   0  0  0  0  0  0  0  0  0  0  0  0
   20.7879  -21.2901  -11.6785 C   0  0  0  0  0  0  0  0  0  0  0  0
   19.6128  -20.9331  -11.8305 O   0  0  0  0  0  0  0  0  0  0  0  0
   21.1586  -21.7565  -10.4256 O   0  0  0  0  0  0  0  0  0  0  0  0
  2  3  1  0
  2  1  1  6
  4  5  1  0
  4  3  1  0
  5  6  2  0
  7  2  1  0
  8  7  2  0
  9  5  1  0
 10  7  1  0
 11 10  1  0
 11 12  1  1
 12 13  1  0
 13 14  2  0
 14 15  1  0
 16 15  1  0
 17 16  2  0
 18 17  1  0
 19 20  1  0
 19 18  2  0
 20 21  2  0
 21 13  1  0
 21 16  1  0
 22 26  1  0
 22 11  1  0
 23 22  2  0
 25 24  1  6
 25 27  1  0
 25 26  1  0
 27 29  1  0
 28 27  2  0
M  END
$$$$
