EWA.pdb
     RDKit          3D

 29 30  0  0  1  0  0  0  0  0999 V2000
   28.6606  -22.9932  -16.0354 N   0  0  0  0  0  0  0  0  0  0  0  0
   28.2100  -21.6752  -15.6724 C   0  0  1  0  0  0  0  0  0  0  0  0
   27.4541  -21.0043  -16.8046 C   0  0  0  0  0  0  0  0  0  0  0  0
   27.0455  -19.5897  -16.4160 C   0  0  0  0  0  0  0  0  0  0  0  0
   28.1378  -18.6730  -16.8372 C   0  0  0  0  0  0  0  0  0  0  0  0
   28.8830  -18.9199  -17.8024 O   0  0  0  0  0  0  0  0  0  0  0  0
   27.2682  -21.7568  -14.5232 C   0  0  0  0  0  0  0  0  0  0  0  0
   26.1764  -22.3604  -14.6463 O   0  0  0  0  0  0  0  0  0  0  0  0
   28.3458  -17.4914  -16.1346 O   0  0  0  0  0  0  0  0  0  0  0  0
   27.6058  -21.1545  -13.2943 N   0  0  0  0  0  0  0  0  0  0  0  0
   26.6899  -21.2603  -12.1449 C   0  0  1  0  0  0  0  0  0  0  0  0
   27.4817  -20.8304  -10.9643 C   0  0  0  0  0  0  0  0  0  0  0  0
   26.7541  -20.5739   -9.7237 C   0  0  0  0  0  0  0  0  0  0  0  0
   25.3786  -20.4914   -9.5151 C   0  0  0  0  0  0  0  0  0  0  0  0
   25.1640  -20.2355   -8.2146 N   0  0  0  0  0  0  0  0  0  0  0  0
   26.3378  -20.1454   -7.5535 C   0  0  0  0  0  0  0  0  0  0  0  0
   26.6599  -19.9209   -6.2361 C   0  0  0  0  0  0  0  0  0  0  0  0
   27.9893  -19.9043   -5.8398 C   0  0  0  0  0  0  0  0  0  0  0  0
   28.9619  -20.1121   -6.7710 C   0  0  0  0  0  0  0  0  0  0  0  0
   28.6634  -20.3351   -8.0774 C   0  0  0  0  0  0  0  0  0  0  0  0
   27.3230  -20.3505   -8.4671 C   0  0  0  0  0  0  0  0  0  0  0  0
   25.4316  -20.5790  -12.4172 C   0  0  0  0  0  0  0  0  0  0  0  0
   25.4354  -19.3339  -12.7020 O   0  0  0  0  0  0  0  0  0  0  0  0
   22.2098  -21.3780  -13.7038 C   0  0  0  0  0  0  0  0  0  0  0  0
   22.9589  -20.5225  -12.6449 C   0  0  2  0  0  0  0  0  0  0  0  0
   24.1866  -21.2538  -12.3870 N   0  0  0  0  0  0  0  0  0  0  0  0
   22.0356  -20.4841  -11.4931 C   0  0  0  0  0  0  0  0  0  0  0  0
   21.0781  -19.7087  -11.3769 O   0  0  0  0  0  0  0  0  0  0  0  0
   22.2580  -21.3860  -10.4626 O   0  0  0  0  0  0  0  0  0  0  0  0
  2  3  1  0
  2  1  1  6
  4  5  1  0
  4  3  1  0
  5  6  2  0
  7  2  1  0
  8  7  2  0
  9  5  1  0
 10  7  1  0
 11 10  1  0
 11 12  1  1
 12 13  1  0
 13 14  2  0
 14 15  1  0
 16 15  1  0
 17 16  2  0
 18 17  1  0
 19 20  1  0
 19 18  2  0
 20 21  2  0
 21 13  1  0
 21 16  1  0
 22 26  1  0
 22 11  1  0
 23 22  2  0
 25 24  1  6
 25 27  1  0
 25 26  1  0
 27 29  1  0
 28 27  2  0
M  END
$$$$
