EWA.pdb
     RDKit          3D

 29 30  0  0  1  0  0  0  0  0999 V2000
   26.8852  -20.1562  -17.2556 N   0  0  0  0  0  0  0  0  0  0  0  0
   27.2687  -21.4395  -16.7284 C   0  0  1  0  0  0  0  0  0  0  0  0
   28.7542  -21.5053  -16.4251 C   0  0  0  0  0  0  0  0  0  0  0  0
   29.5692  -21.4644  -17.7109 C   0  0  0  0  0  0  0  0  0  0  0  0
   29.4473  -20.0957  -18.2789 C   0  0  0  0  0  0  0  0  0  0  0  0
   28.7270  -19.8409  -19.2608 O   0  0  0  0  0  0  0  0  0  0  0  0
   26.5617  -21.6951  -15.4442 C   0  0  0  0  0  0  0  0  0  0  0  0
   26.7811  -22.7507  -14.8047 O   0  0  0  0  0  0  0  0  0  0  0  0
   30.1600  -19.0512  -17.7007 O   0  0  0  0  0  0  0  0  0  0  0  0
   25.6445  -20.7474  -14.9466 N   0  0  0  0  0  0  0  0  0  0  0  0
   24.9973  -20.9626  -13.6405 C   0  0  1  0  0  0  0  0  0  0  0  0
   25.5223  -19.8922  -12.7551 C   0  0  0  0  0  0  0  0  0  0  0  0
   26.0714  -20.2971  -11.4632 C   0  0  0  0  0  0  0  0  0  0  0  0
   25.4245  -20.4179  -10.2347 C   0  0  0  0  0  0  0  0  0  0  0  0
   26.3248  -20.8154   -9.3213 N   0  0  0  0  0  0  0  0  0  0  0  0
   27.5393  -20.9631   -9.8922 C   0  0  0  0  0  0  0  0  0  0  0  0
   28.7637  -21.3587   -9.4082 C   0  0  0  0  0  0  0  0  0  0  0  0
   29.8550  -21.4365  -10.2613 C   0  0  0  0  0  0  0  0  0  0  0  0
   29.6938  -21.1163  -11.5757 C   0  0  0  0  0  0  0  0  0  0  0  0
   28.4922  -20.7230  -12.0725 C   0  0  0  0  0  0  0  0  0  0  0  0
   27.3995  -20.6480  -11.2068 C   0  0  0  0  0  0  0  0  0  0  0  0
   23.5538  -21.0890  -13.7892 C   0  0  0  0  0  0  0  0  0  0  0  0
   22.8950  -20.1648  -14.3750 O   0  0  0  0  0  0  0  0  0  0  0  0
   21.0486  -23.7706  -13.1535 C   0  0  0  0  0  0  0  0  0  0  0  0
   21.4035  -22.2961  -13.4911 C   0  0  2  0  0  0  0  0  0  0  0  0
   22.8422  -22.2165  -13.3108 N   0  0  0  0  0  0  0  0  0  0  0  0
   20.6356  -21.5057  -12.5081 C   0  0  0  0  0  0  0  0  0  0  0  0
   21.1151  -20.9608  -11.5059 O   0  0  0  0  0  0  0  0  0  0  0  0
   19.2727  -21.3628  -12.7245 O   0  0  0  0  0  0  0  0  0  0  0  0
  2  3  1  0
  2  1  1  1
  4  5  1  0
  4  3  1  0
  5  6  2  0
  7  2  1  0
  8  7  2  0
  9  5  1  0
 10  7  1  0
 11 10  1  0
 11 12  1  1
 12 13  1  0
 13 14  2  0
 14 15  1  0
 16 15  1  0
 17 16  2  0
 18 17  1  0
 19 20  1  0
 19 18  2  0
 20 21  2  0
 21 13  1  0
 21 16  1  0
 22 26  1  0
 22 11  1  0
 23 22  2  0
 25 24  1  1
 25 27  1  0
 25 26  1  0
 27 29  1  0
 28 27  2  0
M  END
$$$$
