EWA.pdb
     RDKit          3D

 29 30  0  0  1  0  0  0  0  0999 V2000
   19.6372  -13.8980  -16.6232 N   0  0  0  0  0  0  0  0  0  0  0  0
   20.2364  -12.8125  -17.3544 C   0  0  1  0  0  0  0  0  0  0  0  0
   19.6108  -12.6418  -18.7265 C   0  0  0  0  0  0  0  0  0  0  0  0
   20.0310  -13.7734  -19.6550 C   0  0  0  0  0  0  0  0  0  0  0  0
   21.3216  -13.3856  -20.2833 C   0  0  0  0  0  0  0  0  0  0  0  0
   21.4644  -12.3249  -20.9177 O   0  0  0  0  0  0  0  0  0  0  0  0
   20.0244  -11.5307  -16.6290 C   0  0  0  0  0  0  0  0  0  0  0  0
   18.8933  -11.2482  -16.1683 O   0  0  0  0  0  0  0  0  0  0  0  0
   22.4190  -14.2312  -20.1656 O   0  0  0  0  0  0  0  0  0  0  0  0
   21.0984  -10.6337  -16.4594 N   0  0  0  0  0  0  0  0  0  0  0  0
   20.8716   -9.3229  -15.8258 C   0  0  1  0  0  0  0  0  0  0  0  0
   22.1366   -8.9985  -15.1186 C   0  0  0  0  0  0  0  0  0  0  0  0
   22.3371   -7.6132  -14.7002 C   0  0  0  0  0  0  0  0  0  0  0  0
   21.7593   -6.9272  -13.6336 C   0  0  0  0  0  0  0  0  0  0  0  0
   22.2340   -5.6712  -13.6332 N   0  0  0  0  0  0  0  0  0  0  0  0
   23.1013   -5.4966  -14.6532 C   0  0  0  0  0  0  0  0  0  0  0  0
   23.8575   -4.4274  -15.0715 C   0  0  0  0  0  0  0  0  0  0  0  0
   24.6947   -4.5572  -16.1701 C   0  0  0  0  0  0  0  0  0  0  0  0
   24.7536   -5.7520  -16.8221 C   0  0  0  0  0  0  0  0  0  0  0  0
   24.0137   -6.8196  -16.4241 C   0  0  0  0  0  0  0  0  0  0  0  0
   23.1744   -6.6801  -15.3173 C   0  0  0  0  0  0  0  0  0  0  0  0
   20.3538   -8.3612  -16.7896 C   0  0  0  0  0  0  0  0  0  0  0  0
   20.8373   -8.3272  -17.9713 O   0  0  0  0  0  0  0  0  0  0  0  0
   17.4196   -6.2844  -17.3016 C   0  0  0  0  0  0  0  0  0  0  0  0
   18.9672   -6.3901  -17.3909 C   0  0  2  0  0  0  0  0  0  0  0  0
   19.3141   -7.4550  -16.4666 N   0  0  0  0  0  0  0  0  0  0  0  0
   19.4450   -5.0576  -16.9704 C   0  0  0  0  0  0  0  0  0  0  0  0
   20.0148   -4.8137  -15.8994 O   0  0  0  0  0  0  0  0  0  0  0  0
   19.2398   -3.9983  -17.8425 O   0  0  0  0  0  0  0  0  0  0  0  0
  2  3  1  0
  2  1  1  1
  4  5  1  0
  4  3  1  0
  5  6  2  0
  7  2  1  0
  8  7  2  0
  9  5  1  0
 10  7  1  0
 11 10  1  0
 11 12  1  6
 12 13  1  0
 13 14  2  0
 14 15  1  0
 16 15  1  0
 17 16  2  0
 18 17  1  0
 19 20  1  0
 19 18  2  0
 20 21  2  0
 21 13  1  0
 21 16  1  0
 22 26  1  0
 22 11  1  0
 23 22  2  0
 25 24  1  1
 25 27  1  0
 25 26  1  0
 27 29  1  0
 28 27  2  0
M  END
$$$$
