EWA.pdb
     RDKit          3D

 29 30  0  0  1  0  0  0  0  0999 V2000
   29.5156  -20.9837  -12.7326 N   0  0  0  0  0  0  0  0  0  0  0  0
   28.3233  -20.1946  -12.5658 C   0  0  1  0  0  0  0  0  0  0  0  0
   27.4785  -20.1733  -13.8263 C   0  0  0  0  0  0  0  0  0  0  0  0
   28.3128  -19.7477  -15.0271 C   0  0  0  0  0  0  0  0  0  0  0  0
   28.2621  -18.2639  -15.1084 C   0  0  0  0  0  0  0  0  0  0  0  0
   29.2868  -17.5583  -15.0967 O   0  0  0  0  0  0  0  0  0  0  0  0
   27.4717  -20.7780  -11.4940 C   0  0  0  0  0  0  0  0  0  0  0  0
   27.5356  -22.0032  -11.2367 O   0  0  0  0  0  0  0  0  0  0  0  0
   27.0295  -17.6274  -15.2012 O   0  0  0  0  0  0  0  0  0  0  0  0
   26.5923  -19.9502  -10.7670 N   0  0  0  0  0  0  0  0  0  0  0  0
   25.4394  -20.5379  -10.0624 C   0  0  1  0  0  0  0  0  0  0  0  0
   25.3252  -19.7838   -8.7881 C   0  0  0  0  0  0  0  0  0  0  0  0
   26.5569  -19.5280   -8.0453 C   0  0  0  0  0  0  0  0  0  0  0  0
   27.5346  -18.5618   -8.2751 C   0  0  0  0  0  0  0  0  0  0  0  0
   28.4914  -18.7001   -7.3433 N   0  0  0  0  0  0  0  0  0  0  0  0
   28.1891  -19.7157   -6.5066 C   0  0  0  0  0  0  0  0  0  0  0  0
   28.8156  -20.2420   -5.4019 C   0  0  0  0  0  0  0  0  0  0  0  0
   28.2386  -21.3004   -4.7153 C   0  0  0  0  0  0  0  0  0  0  0  0
   27.0507  -21.8054   -5.1513 C   0  0  0  0  0  0  0  0  0  0  0  0
   26.4167  -21.2992   -6.2409 C   0  0  0  0  0  0  0  0  0  0  0  0
   27.0044  -20.2339   -6.9255 C   0  0  0  0  0  0  0  0  0  0  0  0
   24.2737  -20.6011  -10.9336 C   0  0  0  0  0  0  0  0  0  0  0  0
   23.8776  -19.5477  -11.5375 O   0  0  0  0  0  0  0  0  0  0  0  0
   22.1390  -23.3070  -12.3258 C   0  0  0  0  0  0  0  0  0  0  0  0
   22.3853  -21.8066  -12.0061 C   0  0  2  0  0  0  0  0  0  0  0  0
   23.5566  -21.8038  -11.1478 N   0  0  0  0  0  0  0  0  0  0  0  0
   21.1478  -21.3745  -11.3260 C   0  0  0  0  0  0  0  0  0  0  0  0
   21.0676  -21.0584  -10.1323 O   0  0  0  0  0  0  0  0  0  0  0  0
   19.9863  -21.3183  -12.0827 O   0  0  0  0  0  0  0  0  0  0  0  0
  2  3  1  0
  2  1  1  6
  4  5  1  0
  4  3  1  0
  5  6  2  0
  7  2  1  0
  8  7  2  0
  9  5  1  0
 10  7  1  0
 11 10  1  0
 11 12  1  1
 12 13  1  0
 13 14  2  0
 14 15  1  0
 16 15  1  0
 17 16  2  0
 18 17  1  0
 19 20  1  0
 19 18  2  0
 20 21  2  0
 21 13  1  0
 21 16  1  0
 22 26  1  0
 22 11  1  0
 23 22  2  0
 25 24  1  1
 25 27  1  0
 25 26  1  0
 27 29  1  0
 28 27  2  0
M  END
$$$$
