KDV.pdb
     RDKit          3D

 25 24  0  0  1  0  0  0  0  0999 V2000
    6.7695  -17.0468   20.6228 N   0  0  0  0  0  0  0  0  0  0  0  0
    7.9055  -16.1636   20.9246 C   0  0  1  0  0  0  0  0  0  0  0  0
    7.6467  -14.7258   20.6895 C   0  0  0  0  0  0  0  0  0  0  0  0
    7.9614  -14.1712   19.3588 C   0  0  0  0  0  0  0  0  0  0  0  0
    7.6367  -12.7570   19.0797 C   0  0  0  0  0  0  0  0  0  0  0  0
    7.9096  -12.2471   17.7048 C   0  0  0  0  0  0  0  0  0  0  0  0
    7.9404  -13.4385   16.8299 N   0  0  0  0  0  0  0  0  0  0  0  0
    8.3516  -16.4647   22.3190 C   0  0  0  0  0  0  0  0  0  0  0  0
    7.6020  -16.6395   23.2883 O   0  0  0  0  0  0  0  0  0  0  0  0
    9.7721  -16.5647   22.5813 N   0  0  0  0  0  0  0  0  0  0  0  0
   10.2528  -16.8509   23.9136 C   0  0  1  0  0  0  0  0  0  0  0  0
   11.5799  -17.5058   23.9347 C   0  0  0  0  0  0  0  0  0  0  0  0
   11.6266  -18.7473   23.1180 C   0  0  0  0  0  0  0  0  0  0  0  0
   12.5384  -18.8575   22.2641 O   0  0  0  0  0  0  0  0  0  0  0  0
   10.1316  -15.6605   24.8058 C   0  0  0  0  0  0  0  0  0  0  0  0
   11.0079  -14.7677   24.7178 O   0  0  0  0  0  0  0  0  0  0  0  0
   10.7224  -19.7862   23.2466 O   0  0  0  0  0  0  0  0  0  0  0  0
    6.4614  -14.4269   26.5822 C   0  0  0  0  0  0  0  0  0  0  0  0
    7.7253  -13.6121   26.5124 C   0  0  1  0  0  0  0  0  0  0  0  0
    7.6483  -12.4785   27.4776 C   0  0  0  0  0  0  0  0  0  0  0  0
    8.9470  -14.4889   26.7322 C   0  0  2  0  0  0  0  0  0  0  0  0
    9.0958  -15.4840   25.7265 N   0  0  0  0  0  0  0  0  0  0  0  0
    9.0528  -14.9385   28.1279 C   0  0  0  0  0  0  0  0  0  0  0  0
    8.9432  -16.1312   28.4534 O   0  0  0  0  0  0  0  0  0  0  0  0
    9.2795  -13.9962   29.1099 O   0  0  0  0  0  0  0  0  0  0  0  0
  2  8  1  0
  2  1  1  1
  3  2  1  0
  4  3  1  0
  5  4  1  0
  6  5  1  0
  7  6  1  0
  8  9  2  0
 10 11  1  0
 10  8  1  0
 11 12  1  6
 12 13  1  0
 13 14  2  0
 15 11  1  0
 16 15  2  0
 17 13  1  0
 19 18  1  1
 19 21  1  0
 20 19  1  0
 21 23  1  0
 21 22  1  6
 22 15  1  0
 23 25  1  0
 24 23  2  0
M  END
$$$$
