KDV.pdb
     RDKit          3D

 25 24  0  0  1  0  0  0  0  0999 V2000
    9.6637  -13.7500   19.4031 N   0  0  0  0  0  0  0  0  0  0  0  0
    8.3644  -13.3853   19.9867 C   0  0  1  0  0  0  0  0  0  0  0  0
    7.2415  -13.3631   19.0233 C   0  0  0  0  0  0  0  0  0  0  0  0
    7.5608  -13.3772   17.5828 C   0  0  0  0  0  0  0  0  0  0  0  0
    8.4077  -14.4645   17.0499 C   0  0  0  0  0  0  0  0  0  0  0  0
    8.5915  -14.5314   15.5713 C   0  0  0  0  0  0  0  0  0  0  0  0
    7.2914  -14.9706   15.0212 N   0  0  0  0  0  0  0  0  0  0  0  0
    8.1258  -14.2883   21.1535 C   0  0  0  0  0  0  0  0  0  0  0  0
    7.0586  -14.3919   21.7720 O   0  0  0  0  0  0  0  0  0  0  0  0
    9.2177  -15.1191   21.6162 N   0  0  0  0  0  0  0  0  0  0  0  0
    9.0772  -15.9131   22.8153 C   0  0  1  0  0  0  0  0  0  0  0  0
    9.8097  -17.1981   22.7621 C   0  0  0  0  0  0  0  0  0  0  0  0
    9.7153  -17.9717   24.0284 C   0  0  0  0  0  0  0  0  0  0  0  0
    9.0590  -19.0402   24.0189 O   0  0  0  0  0  0  0  0  0  0  0  0
    9.3326  -15.1011   24.0414 C   0  0  0  0  0  0  0  0  0  0  0  0
   10.5143  -14.7596   24.2852 O   0  0  0  0  0  0  0  0  0  0  0  0
   10.3097  -17.5800   25.2143 O   0  0  0  0  0  0  0  0  0  0  0  0
    7.2516  -11.9755   25.0741 C   0  0  0  0  0  0  0  0  0  0  0  0
    7.2959  -12.9142   26.2501 C   0  0  1  0  0  0  0  0  0  0  0  0
    5.9709  -13.5768   26.4166 C   0  0  0  0  0  0  0  0  0  0  0  0
    8.4361  -13.9086   26.1057 C   0  0  2  0  0  0  0  0  0  0  0  0
    8.3299  -14.6970   24.9264 N   0  0  0  0  0  0  0  0  0  0  0  0
    8.6955  -14.6284   27.3610 C   0  0  0  0  0  0  0  0  0  0  0  0
    9.0182  -14.0457   28.4083 O   0  0  0  0  0  0  0  0  0  0  0  0
    8.5775  -16.0030   27.3706 O   0  0  0  0  0  0  0  0  0  0  0  0
  2  8  1  0
  2  1  1  6
  3  2  1  0
  4  3  1  0
  5  4  1  0
  6  5  1  0
  7  6  1  0
  8  9  2  0
 10 11  1  0
 10  8  1  0
 11 12  1  6
 12 13  1  0
 13 14  2  0
 15 11  1  0
 16 15  2  0
 17 13  1  0
 19 18  1  6
 19 21  1  0
 20 19  1  0
 21 23  1  0
 21 22  1  6
 22 15  1  0
 23 25  1  0
 24 23  2  0
M  END
$$$$
