KDV.pdb
     RDKit          3D

 25 24  0  0  1  0  0  0  0  0999 V2000
    9.9533  -13.6084   19.3674 N   0  0  0  0  0  0  0  0  0  0  0  0
    8.6976  -13.0649   19.9055 C   0  0  1  0  0  0  0  0  0  0  0  0
    7.6069  -12.9378   18.9136 C   0  0  0  0  0  0  0  0  0  0  0  0
    7.2978  -14.1059   18.0666 C   0  0  0  0  0  0  0  0  0  0  0  0
    8.2780  -14.5255   17.0436 C   0  0  0  0  0  0  0  0  0  0  0  0
    7.9179  -15.6888   16.1824 C   0  0  0  0  0  0  0  0  0  0  0  0
    6.9283  -15.1806   15.2087 N   0  0  0  0  0  0  0  0  0  0  0  0
    8.3233  -13.8893   21.0947 C   0  0  0  0  0  0  0  0  0  0  0  0
    7.2386  -13.8377   21.6887 O   0  0  0  0  0  0  0  0  0  0  0  0
    9.2929  -14.8320   21.6120 N   0  0  0  0  0  0  0  0  0  0  0  0
    8.9590  -15.6896   22.7261 C   0  0  1  0  0  0  0  0  0  0  0  0
    9.4812  -17.0675   22.5881 C   0  0  0  0  0  0  0  0  0  0  0  0
    9.2045  -17.9140   23.7788 C   0  0  0  0  0  0  0  0  0  0  0  0
    8.0485  -17.8887   24.2644 O   0  0  0  0  0  0  0  0  0  0  0  0
    9.2672  -15.0346   24.0314 C   0  0  0  0  0  0  0  0  0  0  0  0
   10.4723  -14.8679   24.3358 O   0  0  0  0  0  0  0  0  0  0  0  0
   10.1486  -18.7266   24.3801 O   0  0  0  0  0  0  0  0  0  0  0  0
    7.5414  -11.8052   25.5750 C   0  0  0  0  0  0  0  0  0  0  0  0
    7.4134  -12.9617   26.5300 C   0  0  1  0  0  0  0  0  0  0  0  0
    6.0177  -13.4851   26.5038 C   0  0  0  0  0  0  0  0  0  0  0  0
    8.4481  -14.0323   26.2249 C   0  0  2  0  0  0  0  0  0  0  0  0
    8.2901  -14.5934   24.9272 N   0  0  0  0  0  0  0  0  0  0  0  0
    8.6009  -14.9780   27.3400 C   0  0  0  0  0  0  0  0  0  0  0  0
    8.3396  -16.1863   27.2290 O   0  0  0  0  0  0  0  0  0  0  0  0
    9.0490  -14.5003   28.5544 O   0  0  0  0  0  0  0  0  0  0  0  0
  2  8  1  0
  2  1  1  6
  3  2  1  0
  4  3  1  0
  5  4  1  0
  6  5  1  0
  7  6  1  0
  8  9  2  0
 10 11  1  0
 10  8  1  0
 11 12  1  6
 12 13  1  0
 13 14  2  0
 15 11  1  0
 16 15  2  0
 17 13  1  0
 19 18  1  6
 19 21  1  0
 20 19  1  0
 21 23  1  0
 21 22  1  6
 22 15  1  0
 23 25  1  0
 24 23  2  0
M  END
$$$$
