KDV.pdb
     RDKit          3D

 25 24  0  0  1  0  0  0  0  0999 V2000
    9.1578  -15.5568   19.6481 N   0  0  0  0  0  0  0  0  0  0  0  0
    8.3265  -14.7033   20.5097 C   0  0  1  0  0  0  0  0  0  0  0  0
    6.9544  -14.4716   20.0065 C   0  0  0  0  0  0  0  0  0  0  0  0
    6.7969  -13.8465   18.6792 C   0  0  0  0  0  0  0  0  0  0  0  0
    7.9662  -13.7796   17.7783 C   0  0  0  0  0  0  0  0  0  0  0  0
    7.7571  -13.1945   16.4223 C   0  0  0  0  0  0  0  0  0  0  0  0
    9.0594  -13.3002   15.7306 N   0  0  0  0  0  0  0  0  0  0  0  0
    8.3622  -15.2834   21.8867 C   0  0  0  0  0  0  0  0  0  0  0  0
    7.4921  -15.1253   22.7527 O   0  0  0  0  0  0  0  0  0  0  0  0
    9.4977  -16.1002   22.2608 N   0  0  0  0  0  0  0  0  0  0  0  0
    9.6163  -16.6189   23.6043 C   0  0  1  0  0  0  0  0  0  0  0  0
   10.6676  -17.6506   23.7485 C   0  0  0  0  0  0  0  0  0  0  0  0
   10.7547  -18.5574   22.5734 C   0  0  0  0  0  0  0  0  0  0  0  0
    9.8622  -19.4270   22.4322 O   0  0  0  0  0  0  0  0  0  0  0  0
    9.6812  -15.5188   24.6110 C   0  0  0  0  0  0  0  0  0  0  0  0
   10.7401  -14.8511   24.6852 O   0  0  0  0  0  0  0  0  0  0  0  0
   11.7630  -18.4959   21.6285 O   0  0  0  0  0  0  0  0  0  0  0  0
    7.2700  -12.4807   27.6994 C   0  0  0  0  0  0  0  0  0  0  0  0
    7.2300  -13.5719   26.6632 C   0  0  1  0  0  0  0  0  0  0  0  0
    6.7158  -13.0254   25.3750 C   0  0  0  0  0  0  0  0  0  0  0  0
    8.5915  -14.2318   26.5197 C   0  0  2  0  0  0  0  0  0  0  0  0
    8.6285  -15.1895   25.4684 N   0  0  0  0  0  0  0  0  0  0  0  0
    9.1330  -14.6553   27.8191 C   0  0  0  0  0  0  0  0  0  0  0  0
    9.2384  -15.8499   28.1393 O   0  0  0  0  0  0  0  0  0  0  0  0
    9.5355  -13.6859   28.7146 O   0  0  0  0  0  0  0  0  0  0  0  0
  2  8  1  0
  2  1  1  6
  3  2  1  0
  4  3  1  0
  5  4  1  0
  6  5  1  0
  7  6  1  0
  8  9  2  0
 10 11  1  0
 10  8  1  0
 11 12  1  6
 12 13  1  0
 13 14  2  0
 15 11  1  0
 16 15  2  0
 17 13  1  0
 19 18  1  1
 19 21  1  0
 20 19  1  0
 21 23  1  0
 21 22  1  6
 22 15  1  0
 23 25  1  0
 24 23  2  0
M  END
$$$$
