KDV.pdb
     RDKit          3D

 25 24  0  0  1  0  0  0  0  0999 V2000
    6.1448  -16.0193   20.3042 N   0  0  0  0  0  0  0  0  0  0  0  0
    7.4366  -15.4121   20.6566 C   0  0  1  0  0  0  0  0  0  0  0  0
    7.4691  -13.9358   20.5617 C   0  0  0  0  0  0  0  0  0  0  0  0
    7.2773  -13.3200   19.2346 C   0  0  0  0  0  0  0  0  0  0  0  0
    8.2403  -13.6302   18.1577 C   0  0  0  0  0  0  0  0  0  0  0  0
    8.0060  -13.0043   16.8242 C   0  0  0  0  0  0  0  0  0  0  0  0
    9.0183  -13.5889   15.9191 N   0  0  0  0  0  0  0  0  0  0  0  0
    7.8232  -15.9275   22.0052 C   0  0  0  0  0  0  0  0  0  0  0  0
    7.0546  -16.0673   22.9654 O   0  0  0  0  0  0  0  0  0  0  0  0
    9.2041  -16.2999   22.2305 N   0  0  0  0  0  0  0  0  0  0  0  0
    9.6274  -16.8004   23.5183 C   0  0  1  0  0  0  0  0  0  0  0  0
   10.7596  -17.7504   23.4398 C   0  0  0  0  0  0  0  0  0  0  0  0
   11.1131  -18.3407   24.7579 C   0  0  0  0  0  0  0  0  0  0  0  0
   11.3936  -17.5593   25.6978 O   0  0  0  0  0  0  0  0  0  0  0  0
    9.8111  -15.6926   24.5016 C   0  0  0  0  0  0  0  0  0  0  0  0
   10.8587  -15.0074   24.4269 O   0  0  0  0  0  0  0  0  0  0  0  0
   11.1499  -19.7011   25.0055 O   0  0  0  0  0  0  0  0  0  0  0  0
    6.4518  -14.2498   26.7787 C   0  0  0  0  0  0  0  0  0  0  0  0
    7.6828  -13.4553   26.4331 C   0  0  1  0  0  0  0  0  0  0  0  0
    7.7915  -12.2750   27.3374 C   0  0  0  0  0  0  0  0  0  0  0  0
    8.9213  -14.3356   26.4647 C   0  0  2  0  0  0  0  0  0  0  0  0
    8.8804  -15.3745   25.4939 N   0  0  0  0  0  0  0  0  0  0  0  0
    9.2793  -14.7259   27.8361 C   0  0  0  0  0  0  0  0  0  0  0  0
    9.2642  -15.9069   28.2177 O   0  0  0  0  0  0  0  0  0  0  0  0
    9.6423  -13.7397   28.7301 O   0  0  0  0  0  0  0  0  0  0  0  0
  2  8  1  0
  2  1  1  1
  3  2  1  0
  4  3  1  0
  5  4  1  0
  6  5  1  0
  7  6  1  0
  8  9  2  0
 10 11  1  0
 10  8  1  0
 11 12  1  6
 12 13  1  0
 13 14  2  0
 15 11  1  0
 16 15  2  0
 17 13  1  0
 19 18  1  1
 19 21  1  0
 20 19  1  0
 21 23  1  0
 21 22  1  6
 22 15  1  0
 23 25  1  0
 24 23  2  0
M  END
$$$$
