KDV.pdb
     RDKit          3D

 25 24  0  0  1  0  0  0  0  0999 V2000
    9.9964  -15.3124   19.4135 N   0  0  0  0  0  0  0  0  0  0  0  0
    9.1221  -14.2245   19.8758 C   0  0  1  0  0  0  0  0  0  0  0  0
    8.0613  -13.8385   18.9191 C   0  0  0  0  0  0  0  0  0  0  0  0
    8.0983  -14.4257   17.5659 C   0  0  0  0  0  0  0  0  0  0  0  0
    7.8178  -13.5580   16.4033 C   0  0  0  0  0  0  0  0  0  0  0  0
    7.7989  -14.1981   15.0561 C   0  0  0  0  0  0  0  0  0  0  0  0
    7.4859  -13.1162   14.0983 N   0  0  0  0  0  0  0  0  0  0  0  0
    8.5952  -14.6111   21.2200 C   0  0  0  0  0  0  0  0  0  0  0  0
    7.7102  -14.0093   21.8420 O   0  0  0  0  0  0  0  0  0  0  0  0
    9.1503  -15.7814   21.8670 N   0  0  0  0  0  0  0  0  0  0  0  0
    8.6341  -16.2290   23.1403 C   0  0  1  0  0  0  0  0  0  0  0  0
    8.9467  -17.6442   23.4399 C   0  0  0  0  0  0  0  0  0  0  0  0
   10.4044  -17.9351   23.4073 C   0  0  0  0  0  0  0  0  0  0  0  0
   10.9507  -18.3297   24.4649 O   0  0  0  0  0  0  0  0  0  0  0  0
    8.9724  -15.2715   24.2342 C   0  0  0  0  0  0  0  0  0  0  0  0
   10.1796  -14.9804   24.4087 O   0  0  0  0  0  0  0  0  0  0  0  0
   11.1908  -17.7954   22.2780 O   0  0  0  0  0  0  0  0  0  0  0  0
    7.1801  -11.9537   24.8867 C   0  0  0  0  0  0  0  0  0  0  0  0
    7.2169  -12.6676   26.2114 C   0  0  1  0  0  0  0  0  0  0  0  0
    5.8428  -13.1090   26.5847 C   0  0  0  0  0  0  0  0  0  0  0  0
    8.2142  -13.8141   26.1805 C   0  0  2  0  0  0  0  0  0  0  0  0
    8.0206  -14.6792   25.0679 N   0  0  0  0  0  0  0  0  0  0  0  0
    8.3542  -14.4520   27.4975 C   0  0  0  0  0  0  0  0  0  0  0  0
    8.0995  -15.6520   27.6867 O   0  0  0  0  0  0  0  0  0  0  0  0
    8.7822  -13.6844   28.5611 O   0  0  0  0  0  0  0  0  0  0  0  0
  2  8  1  0
  2  1  1  6
  3  2  1  0
  4  3  1  0
  5  4  1  0
  6  5  1  0
  7  6  1  0
  8  9  2  0
 10 11  1  0
 10  8  1  0
 11 12  1  1
 12 13  1  0
 13 14  2  0
 15 11  1  0
 16 15  2  0
 17 13  1  0
 19 18  1  6
 19 21  1  0
 20 19  1  0
 21 23  1  0
 21 22  1  6
 22 15  1  0
 23 25  1  0
 24 23  2  0
M  END
$$$$
