KDV.pdb
     RDKit          3D

 25 24  0  0  1  0  0  0  0  0999 V2000
    6.5433  -17.2789   19.9599 N   0  0  0  0  0  0  0  0  0  0  0  0
    7.8866  -16.9458   20.4565 C   0  0  1  0  0  0  0  0  0  0  0  0
    8.4528  -15.6939   19.9073 C   0  0  0  0  0  0  0  0  0  0  0  0
    7.7451  -14.4296   20.1865 C   0  0  0  0  0  0  0  0  0  0  0  0
    8.3094  -13.1661   19.6683 C   0  0  0  0  0  0  0  0  0  0  0  0
    7.5828  -11.9044   19.9922 C   0  0  0  0  0  0  0  0  0  0  0  0
    8.3072  -10.8271   19.2849 N   0  0  0  0  0  0  0  0  0  0  0  0
    7.8320  -16.9660   21.9500 C   0  0  0  0  0  0  0  0  0  0  0  0
    6.8024  -16.8679   22.6300 O   0  0  0  0  0  0  0  0  0  0  0  0
    9.0724  -17.1109   22.6827 N   0  0  0  0  0  0  0  0  0  0  0  0
    9.0632  -17.2307   24.1227 C   0  0  1  0  0  0  0  0  0  0  0  0
    9.8674  -18.3665   24.6262 C   0  0  0  0  0  0  0  0  0  0  0  0
    9.9184  -18.4273   26.1109 C   0  0  0  0  0  0  0  0  0  0  0  0
    8.8358  -18.3658   26.7410 O   0  0  0  0  0  0  0  0  0  0  0  0
    9.3517  -15.9228   24.7817 C   0  0  0  0  0  0  0  0  0  0  0  0
   10.5126  -15.4587   24.6845 O   0  0  0  0  0  0  0  0  0  0  0  0
   11.0905  -18.5479   26.8353 O   0  0  0  0  0  0  0  0  0  0  0  0
    7.4993  -12.5454   24.6872 C   0  0  0  0  0  0  0  0  0  0  0  0
    7.5318  -12.9861   26.1262 C   0  0  1  0  0  0  0  0  0  0  0  0
    6.1713  -13.4239   26.5503 C   0  0  0  0  0  0  0  0  0  0  0  0
    8.5872  -14.0587   26.3397 C   0  0  2  0  0  0  0  0  0  0  0  0
    8.4011  -15.1870   25.4937 N   0  0  0  0  0  0  0  0  0  0  0  0
    8.8075  -14.3319   27.7673 C   0  0  0  0  0  0  0  0  0  0  0  0
    8.6538  -15.4603   28.2608 O   0  0  0  0  0  0  0  0  0  0  0  0
    9.1969  -13.2920   28.5863 O   0  0  0  0  0  0  0  0  0  0  0  0
  2  8  1  0
  2  1  1  6
  3  2  1  0
  4  3  1  0
  5  4  1  0
  6  5  1  0
  7  6  1  0
  8  9  2  0
 10 11  1  0
 10  8  1  0
 11 12  1  6
 12 13  1  0
 13 14  2  0
 15 11  1  0
 16 15  2  0
 17 13  1  0
 19 18  1  6
 19 21  1  0
 20 19  1  0
 21 23  1  0
 21 22  1  6
 22 15  1  0
 23 25  1  0
 24 23  2  0
M  END
$$$$
