KDV.pdb
     RDKit          3D

 25 24  0  0  1  0  0  0  0  0999 V2000
    8.6549  -12.6834   20.0056 N   0  0  0  0  0  0  0  0  0  0  0  0
    7.4464  -13.5001   19.8202 C   0  0  1  0  0  0  0  0  0  0  0  0
    7.1916  -13.9138   18.4225 C   0  0  0  0  0  0  0  0  0  0  0  0
    8.2306  -14.7000   17.7298 C   0  0  0  0  0  0  0  0  0  0  0  0
    7.9927  -15.1252   16.3348 C   0  0  0  0  0  0  0  0  0  0  0  0
    9.1142  -15.8018   15.6213 C   0  0  0  0  0  0  0  0  0  0  0  0
    8.6366  -16.0300   14.2409 N   0  0  0  0  0  0  0  0  0  0  0  0
    7.5295  -14.6493   20.7722 C   0  0  0  0  0  0  0  0  0  0  0  0
    7.3071  -15.8330   20.4865 O   0  0  0  0  0  0  0  0  0  0  0  0
    7.8982  -14.3802   22.1463 N   0  0  0  0  0  0  0  0  0  0  0  0
    8.6470  -15.3534   22.9081 C   0  0  1  0  0  0  0  0  0  0  0  0
    9.7134  -16.0205   22.1282 C   0  0  0  0  0  0  0  0  0  0  0  0
   10.4557  -17.0401   22.9156 C   0  0  0  0  0  0  0  0  0  0  0  0
    9.8551  -18.0956   23.2285 O   0  0  0  0  0  0  0  0  0  0  0  0
    9.0907  -14.7965   24.2199 C   0  0  0  0  0  0  0  0  0  0  0  0
   10.1768  -15.2050   24.6953 O   0  0  0  0  0  0  0  0  0  0  0  0
   11.7694  -16.8904   23.3219 O   0  0  0  0  0  0  0  0  0  0  0  0
    7.3278  -11.3892   25.8119 C   0  0  0  0  0  0  0  0  0  0  0  0
    7.3140  -12.5679   26.7482 C   0  0  1  0  0  0  0  0  0  0  0  0
    5.9399  -13.1421   26.8158 C   0  0  0  0  0  0  0  0  0  0  0  0
    8.3598  -13.5933   26.3425 C   0  0  2  0  0  0  0  0  0  0  0  0
    8.3675  -13.8440   24.9422 N   0  0  0  0  0  0  0  0  0  0  0  0
    8.3431  -14.7691   27.2246 C   0  0  0  0  0  0  0  0  0  0  0  0
    7.9958  -15.8933   26.8292 O   0  0  0  0  0  0  0  0  0  0  0  0
    8.7255  -14.6128   28.5410 O   0  0  0  0  0  0  0  0  0  0  0  0
  2  8  1  0
  2  1  1  6
  3  2  1  0
  4  3  1  0
  5  4  1  0
  6  5  1  0
  7  6  1  0
  8  9  2  0
 10 11  1  0
 10  8  1  0
 11 12  1  6
 12 13  1  0
 13 14  2  0
 15 11  1  0
 16 15  2  0
 17 13  1  0
 19 18  1  6
 19 21  1  0
 20 19  1  0
 21 23  1  0
 21 22  1  6
 22 15  1  0
 23 25  1  0
 24 23  2  0
M  END
$$$$
