KDV.pdb
     RDKit          3D

 25 24  0  0  1  0  0  0  0  0999 V2000
   10.4011  -17.7555   20.7944 N   0  0  0  0  0  0  0  0  0  0  0  0
    9.7644  -18.5496   21.8553 C   0  0  1  0  0  0  0  0  0  0  0  0
    9.9712  -20.0102   21.7392 C   0  0  0  0  0  0  0  0  0  0  0  0
   10.8870  -20.5016   20.6917 C   0  0  0  0  0  0  0  0  0  0  0  0
   11.0375  -21.9591   20.5013 C   0  0  0  0  0  0  0  0  0  0  0  0
   11.9769  -22.4206   19.4386 C   0  0  0  0  0  0  0  0  0  0  0  0
   11.9738  -23.8973   19.5089 N   0  0  0  0  0  0  0  0  0  0  0  0
   10.2132  -17.9905   23.1668 C   0  0  0  0  0  0  0  0  0  0  0  0
    9.8894  -18.4262   24.2792 O   0  0  0  0  0  0  0  0  0  0  0  0
   11.0993  -16.8454   23.1604 N   0  0  0  0  0  0  0  0  0  0  0  0
   11.5856  -16.2881   24.4018 C   0  0  1  0  0  0  0  0  0  0  0  0
   12.7749  -15.4231   24.2353 C   0  0  0  0  0  0  0  0  0  0  0  0
   13.9457  -16.1491   23.6761 C   0  0  0  0  0  0  0  0  0  0  0  0
   14.5743  -15.6153   22.7313 O   0  0  0  0  0  0  0  0  0  0  0  0
   10.4794  -15.6794   25.1979 C   0  0  0  0  0  0  0  0  0  0  0  0
    9.5412  -15.1275   24.5752 O   0  0  0  0  0  0  0  0  0  0  0  0
   14.3802  -17.3783   24.1384 O   0  0  0  0  0  0  0  0  0  0  0  0
    9.9514  -16.9145   29.0875 C   0  0  0  0  0  0  0  0  0  0  0  0
    9.7253  -15.4351   28.9256 C   0  0  1  0  0  0  0  0  0  0  0  0
   10.8642  -14.6824   29.5247 C   0  0  0  0  0  0  0  0  0  0  0  0
    9.4893  -15.0804   27.4668 C   0  0  2  0  0  0  0  0  0  0  0  0
   10.4291  -15.6957   26.5940 N   0  0  0  0  0  0  0  0  0  0  0  0
    9.2630  -13.6393   27.2846 C   0  0  0  0  0  0  0  0  0  0  0  0
   10.0423  -12.9190   26.6409 O   0  0  0  0  0  0  0  0  0  0  0  0
    8.1431  -13.0694   27.8544 O   0  0  0  0  0  0  0  0  0  0  0  0
  2  8  1  0
  2  1  1  6
  3  2  1  0
  4  3  1  0
  5  4  1  0
  6  5  1  0
  7  6  1  0
  8  9  2  0
 10 11  1  0
 10  8  1  0
 11 12  1  6
 12 13  1  0
 13 14  2  0
 15 11  1  0
 16 15  2  0
 17 13  1  0
 19 18  1  6
 19 21  1  0
 20 19  1  0
 21 23  1  0
 21 22  1  6
 22 15  1  0
 23 25  1  0
 24 23  2  0
M  END
$$$$
