KDV.pdb
     RDKit          3D

 25 24  0  0  1  0  0  0  0  0999 V2000
   10.3012  -13.8996   19.3976 N   0  0  0  0  0  0  0  0  0  0  0  0
    8.9969  -13.4057   19.8630 C   0  0  1  0  0  0  0  0  0  0  0  0
    7.9235  -13.4496   18.8455 C   0  0  0  0  0  0  0  0  0  0  0  0
    8.1979  -14.1481   17.5750 C   0  0  0  0  0  0  0  0  0  0  0  0
    7.1744  -14.1206   16.5097 C   0  0  0  0  0  0  0  0  0  0  0  0
    7.4703  -14.8663   15.2523 C   0  0  0  0  0  0  0  0  0  0  0  0
    6.2919  -14.6739   14.3806 N   0  0  0  0  0  0  0  0  0  0  0  0
    8.6561  -14.1463   21.1157 C   0  0  0  0  0  0  0  0  0  0  0  0
    7.6004  -14.0299   21.7514 O   0  0  0  0  0  0  0  0  0  0  0  0
    9.6247  -15.0817   21.6481 N   0  0  0  0  0  0  0  0  0  0  0  0
    9.3108  -15.8787   22.8118 C   0  0  1  0  0  0  0  0  0  0  0  0
    9.9819  -17.1978   22.8228 C   0  0  0  0  0  0  0  0  0  0  0  0
    9.6514  -18.0261   21.6330 C   0  0  0  0  0  0  0  0  0  0  0  0
   10.5980  -18.4459   20.9256 O   0  0  0  0  0  0  0  0  0  0  0  0
    9.4640  -15.0917   24.0707 C   0  0  0  0  0  0  0  0  0  0  0  0
   10.5935  -14.6136   24.3319 O   0  0  0  0  0  0  0  0  0  0  0  0
    8.3609  -18.3591   21.2629 O   0  0  0  0  0  0  0  0  0  0  0  0
    7.5378  -12.0986   25.3187 C   0  0  0  0  0  0  0  0  0  0  0  0
    7.3947  -13.1446   26.3917 C   0  0  1  0  0  0  0  0  0  0  0  0
    6.0093  -13.6951   26.3776 C   0  0  0  0  0  0  0  0  0  0  0  0
    8.4564  -14.2218   26.2421 C   0  0  2  0  0  0  0  0  0  0  0  0
    8.4201  -14.8542   24.9684 N   0  0  0  0  0  0  0  0  0  0  0  0
    8.5090  -15.1038   27.4170 C   0  0  0  0  0  0  0  0  0  0  0  0
    8.3058  -16.3260   27.3417 O   0  0  0  0  0  0  0  0  0  0  0  0
    8.7923  -14.5484   28.6478 O   0  0  0  0  0  0  0  0  0  0  0  0
  2  8  1  0
  2  1  1  6
  3  2  1  0
  4  3  1  0
  5  4  1  0
  6  5  1  0
  7  6  1  0
  8  9  2  0
 10 11  1  0
 10  8  1  0
 11 12  1  1
 12 13  1  0
 13 14  2  0
 15 11  1  0
 16 15  2  0
 17 13  1  0
 19 18  1  6
 19 21  1  0
 20 19  1  0
 21 23  1  0
 21 22  1  6
 22 15  1  0
 23 25  1  0
 24 23  2  0
M  END
$$$$
