KDV.pdb
     RDKit          3D

 25 24  0  0  1  0  0  0  0  0999 V2000
   10.3263  -14.8539   19.3837 N   0  0  0  0  0  0  0  0  0  0  0  0
    9.3410  -13.9303   19.9650 C   0  0  1  0  0  0  0  0  0  0  0  0
    8.2188  -13.5818   19.0658 C   0  0  0  0  0  0  0  0  0  0  0  0
    8.1742  -14.2129   17.7327 C   0  0  0  0  0  0  0  0  0  0  0  0
    7.2304  -13.6867   16.7249 C   0  0  0  0  0  0  0  0  0  0  0  0
    7.1835  -14.3738   15.4018 C   0  0  0  0  0  0  0  0  0  0  0  0
    6.2008  -13.6239   14.5909 N   0  0  0  0  0  0  0  0  0  0  0  0
    8.8967  -14.5089   21.2696 C   0  0  0  0  0  0  0  0  0  0  0  0
    7.9522  -14.0925   21.9527 O   0  0  0  0  0  0  0  0  0  0  0  0
    9.6150  -15.6501   21.7972 N   0  0  0  0  0  0  0  0  0  0  0  0
    9.1533  -16.3176   22.9928 C   0  0  1  0  0  0  0  0  0  0  0  0
    9.7181  -17.6744   23.1673 C   0  0  0  0  0  0  0  0  0  0  0  0
    9.4352  -18.5722   22.0164 C   0  0  0  0  0  0  0  0  0  0  0  0
    8.2366  -18.8118   21.7362 O   0  0  0  0  0  0  0  0  0  0  0  0
    9.2707  -15.4354   24.1911 C   0  0  0  0  0  0  0  0  0  0  0  0
   10.4147  -15.0430   24.5228 O   0  0  0  0  0  0  0  0  0  0  0  0
   10.4180  -19.1572   21.2385 O   0  0  0  0  0  0  0  0  0  0  0  0
    6.9478  -12.4853   27.4547 C   0  0  0  0  0  0  0  0  0  0  0  0
    6.9423  -13.3016   26.1899 C   0  0  1  0  0  0  0  0  0  0  0  0
    6.8363  -12.3993   25.0079 C   0  0  0  0  0  0  0  0  0  0  0  0
    8.1586  -14.2108   26.1277 C   0  0  2  0  0  0  0  0  0  0  0  0
    8.1792  -15.0195   24.9575 N   0  0  0  0  0  0  0  0  0  0  0  0
    8.3961  -14.8938   27.4076 C   0  0  0  0  0  0  0  0  0  0  0  0
    8.2783  -16.1224   27.5387 O   0  0  0  0  0  0  0  0  0  0  0  0
    8.7608  -14.1372   28.5022 O   0  0  0  0  0  0  0  0  0  0  0  0
  2  8  1  0
  2  1  1  6
  3  2  1  0
  4  3  1  0
  5  4  1  0
  6  5  1  0
  7  6  1  0
  8  9  2  0
 10 11  1  0
 10  8  1  0
 11 12  1  1
 12 13  1  0
 13 14  2  0
 15 11  1  0
 16 15  2  0
 17 13  1  0
 19 18  1  1
 19 21  1  0
 20 19  1  0
 21 23  1  0
 21 22  1  6
 22 15  1  0
 23 25  1  0
 24 23  2  0
M  END
$$$$
