KDV.pdb
     RDKit          3D

 25 24  0  0  1  0  0  0  0  0999 V2000
    5.5866  -16.6379   20.9793 N   0  0  0  0  0  0  0  0  0  0  0  0
    7.0515  -16.7596   21.0078 C   0  0  1  0  0  0  0  0  0  0  0  0
    7.7651  -15.8142   20.1209 C   0  0  0  0  0  0  0  0  0  0  0  0
    7.4897  -14.3728   20.2757 C   0  0  0  0  0  0  0  0  0  0  0  0
    8.1254  -13.4202   19.3421 C   0  0  0  0  0  0  0  0  0  0  0  0
    7.8765  -11.9668   19.5672 C   0  0  0  0  0  0  0  0  0  0  0  0
    8.6351  -11.2584   18.5143 N   0  0  0  0  0  0  0  0  0  0  0  0
    7.4827  -16.6718   22.4362 C   0  0  0  0  0  0  0  0  0  0  0  0
    6.7500  -16.3726   23.3879 O   0  0  0  0  0  0  0  0  0  0  0  0
    8.8658  -16.9555   22.7569 N   0  0  0  0  0  0  0  0  0  0  0  0
    9.3045  -17.0010   24.1330 C   0  0  1  0  0  0  0  0  0  0  0  0
   10.5053  -17.8404   24.3428 C   0  0  0  0  0  0  0  0  0  0  0  0
   10.3540  -19.2150   23.7965 C   0  0  0  0  0  0  0  0  0  0  0  0
    9.2231  -19.7532   23.8591 O   0  0  0  0  0  0  0  0  0  0  0  0
    9.3897  -15.6334   24.7248 C   0  0  0  0  0  0  0  0  0  0  0  0
   10.2335  -14.8376   24.2481 O   0  0  0  0  0  0  0  0  0  0  0  0
   11.3887  -19.9325   23.2240 O   0  0  0  0  0  0  0  0  0  0  0  0
    7.4480  -12.5783   25.1082 C   0  0  0  0  0  0  0  0  0  0  0  0
    7.6013  -13.0733   26.5215 C   0  0  1  0  0  0  0  0  0  0  0  0
    6.3073  -13.6370   27.0015 C   0  0  0  0  0  0  0  0  0  0  0  0
    8.7487  -14.0644   26.6260 C   0  0  2  0  0  0  0  0  0  0  0  0
    8.5797  -15.1906   25.7735 N   0  0  0  0  0  0  0  0  0  0  0  0
    9.1052  -14.3418   28.0250 C   0  0  0  0  0  0  0  0  0  0  0  0
    9.0311  -15.4784   28.5183 O   0  0  0  0  0  0  0  0  0  0  0  0
    9.5351  -13.2968   28.8166 O   0  0  0  0  0  0  0  0  0  0  0  0
  2  8  1  0
  2  1  1  1
  3  2  1  0
  4  3  1  0
  5  4  1  0
  6  5  1  0
  7  6  1  0
  8  9  2  0
 10 11  1  0
 10  8  1  0
 11 12  1  6
 12 13  1  0
 13 14  2  0
 15 11  1  0
 16 15  2  0
 17 13  1  0
 19 18  1  6
 19 21  1  0
 20 19  1  0
 21 23  1  0
 21 22  1  1
 22 15  1  0
 23 25  1  0
 24 23  2  0
M  END
$$$$
