KDV.pdb
     RDKit          3D

 25 24  0  0  1  0  0  0  0  0999 V2000
    9.3321  -16.7595   19.2918 N   0  0  0  0  0  0  0  0  0  0  0  0
    8.0297  -16.4231   19.8853 C   0  0  1  0  0  0  0  0  0  0  0  0
    6.8849  -17.1736   19.3233 C   0  0  0  0  0  0  0  0  0  0  0  0
    7.1032  -17.9538   18.0900 C   0  0  0  0  0  0  0  0  0  0  0  0
    6.7671  -17.3406   16.7883 C   0  0  0  0  0  0  0  0  0  0  0  0
    7.0010  -18.1575   15.5625 C   0  0  0  0  0  0  0  0  0  0  0  0
    6.6695  -17.2784   14.4209 N   0  0  0  0  0  0  0  0  0  0  0  0
    8.1604  -16.5649   21.3675 C   0  0  0  0  0  0  0  0  0  0  0  0
    7.2336  -16.4595   22.1811 O   0  0  0  0  0  0  0  0  0  0  0  0
    9.4685  -16.8486   21.9195 N   0  0  0  0  0  0  0  0  0  0  0  0
    9.6555  -16.9441   23.3492 C   0  0  1  0  0  0  0  0  0  0  0  0
   10.7865  -17.8150   23.7402 C   0  0  0  0  0  0  0  0  0  0  0  0
   11.0348  -17.8192   25.2062 C   0  0  0  0  0  0  0  0  0  0  0  0
   11.9416  -17.0769   25.6528 O   0  0  0  0  0  0  0  0  0  0  0  0
    9.6561  -15.5967   23.9914 C   0  0  0  0  0  0  0  0  0  0  0  0
   10.6276  -14.8371   23.7639 O   0  0  0  0  0  0  0  0  0  0  0  0
   10.3231  -18.5943   26.1039 O   0  0  0  0  0  0  0  0  0  0  0  0
    6.0863  -13.8862   25.8219 C   0  0  0  0  0  0  0  0  0  0  0  0
    7.2920  -13.1442   25.3103 C   0  0  1  0  0  0  0  0  0  0  0  0
    7.3267  -11.7738   25.8963 C   0  0  0  0  0  0  0  0  0  0  0  0
    8.5649  -13.9302   25.5785 C   0  0  2  0  0  0  0  0  0  0  0  0
    8.6344  -15.1347   24.8248 N   0  0  0  0  0  0  0  0  0  0  0  0
    8.8508  -14.0328   27.0168 C   0  0  0  0  0  0  0  0  0  0  0  0
    8.8628  -15.1189   27.6175 O   0  0  0  0  0  0  0  0  0  0  0  0
    9.1123  -12.8763   27.7224 O   0  0  0  0  0  0  0  0  0  0  0  0
  2  8  1  0
  2  1  1  6
  3  2  1  0
  4  3  1  0
  5  4  1  0
  6  5  1  0
  7  6  1  0
  8  9  2  0
 10 11  1  0
 10  8  1  0
 11 12  1  6
 12 13  1  0
 13 14  2  0
 15 11  1  0
 16 15  2  0
 17 13  1  0
 19 18  1  1
 19 21  1  0
 20 19  1  0
 21 23  1  0
 21 22  1  1
 22 15  1  0
 23 25  1  0
 24 23  2  0
M  END
$$$$
