KDV.pdb
     RDKit          3D

 25 24  0  0  1  0  0  0  0  0999 V2000
    9.4750  -15.1755   19.1559 N   0  0  0  0  0  0  0  0  0  0  0  0
    8.7436  -14.2111   19.9906 C   0  0  1  0  0  0  0  0  0  0  0  0
    7.4790  -13.7203   19.3996 C   0  0  0  0  0  0  0  0  0  0  0  0
    7.5222  -13.1515   18.0388 C   0  0  0  0  0  0  0  0  0  0  0  0
    7.2934  -14.0447   16.8841 C   0  0  0  0  0  0  0  0  0  0  0  0
    7.3443  -13.4362   15.5232 C   0  0  0  0  0  0  0  0  0  0  0  0
    7.0624  -14.5366   14.5770 N   0  0  0  0  0  0  0  0  0  0  0  0
    8.5663  -14.8279   21.3405 C   0  0  0  0  0  0  0  0  0  0  0  0
    7.6662  -14.5480   22.1427 O   0  0  0  0  0  0  0  0  0  0  0  0
    9.5128  -15.8376   21.7661 N   0  0  0  0  0  0  0  0  0  0  0  0
    9.3547  -16.4991   23.0411 C   0  0  1  0  0  0  0  0  0  0  0  0
   10.1744  -17.7239   23.1767 C   0  0  0  0  0  0  0  0  0  0  0  0
   10.0224  -18.3790   24.5029 C   0  0  0  0  0  0  0  0  0  0  0  0
    8.8659  -18.4965   24.9733 O   0  0  0  0  0  0  0  0  0  0  0  0
    9.4804  -15.5370   24.1752 C   0  0  0  0  0  0  0  0  0  0  0  0
   10.6140  -15.0589   24.4182 O   0  0  0  0  0  0  0  0  0  0  0  0
   11.0830  -18.8653   25.2457 O   0  0  0  0  0  0  0  0  0  0  0  0
    7.1276  -12.3605   27.1720 C   0  0  0  0  0  0  0  0  0  0  0  0
    7.0851  -13.3953   26.0796 C   0  0  1  0  0  0  0  0  0  0  0  0
    6.7646  -12.7420   24.7784 C   0  0  0  0  0  0  0  0  0  0  0  0
    8.3806  -14.1887   26.0352 C   0  0  2  0  0  0  0  0  0  0  0  0
    8.4070  -15.1366   24.9748 N   0  0  0  0  0  0  0  0  0  0  0  0
    8.7691  -14.6754   27.3669 C   0  0  0  0  0  0  0  0  0  0  0  0
    9.0921  -13.9087   28.2880 O   0  0  0  0  0  0  0  0  0  0  0  0
    8.7763  -16.0358   27.5967 O   0  0  0  0  0  0  0  0  0  0  0  0
  2  8  1  0
  2  1  1  6
  3  2  1  0
  4  3  1  0
  5  4  1  0
  6  5  1  0
  7  6  1  0
  8  9  2  0
 10 11  1  0
 10  8  1  0
 11 12  1  1
 12 13  1  0
 13 14  2  0
 15 11  1  0
 16 15  2  0
 17 13  1  0
 19 18  1  1
 19 21  1  0
 20 19  1  0
 21 23  1  0
 21 22  1  6
 22 15  1  0
 23 25  1  0
 24 23  2  0
M  END
$$$$
