KDV.pdb
     RDKit          3D

 25 24  0  0  1  0  0  0  0  0999 V2000
   10.3749  -13.9831   19.2978 N   0  0  0  0  0  0  0  0  0  0  0  0
    9.1132  -13.3822   19.7547 C   0  0  1  0  0  0  0  0  0  0  0  0
    8.0550  -13.3133   18.7228 C   0  0  0  0  0  0  0  0  0  0  0  0
    7.9416  -14.4322   17.7675 C   0  0  0  0  0  0  0  0  0  0  0  0
    7.6270  -14.1355   16.3546 C   0  0  0  0  0  0  0  0  0  0  0  0
    7.4229  -15.2940   15.4375 C   0  0  0  0  0  0  0  0  0  0  0  0
    6.9290  -14.7222   14.1667 N   0  0  0  0  0  0  0  0  0  0  0  0
    8.6896  -14.1098   20.9897 C   0  0  0  0  0  0  0  0  0  0  0  0
    7.6610  -13.8796   21.6387 O   0  0  0  0  0  0  0  0  0  0  0  0
    9.5356  -15.1747   21.4863 N   0  0  0  0  0  0  0  0  0  0  0  0
    9.1656  -15.9117   22.6728 C   0  0  1  0  0  0  0  0  0  0  0  0
    9.8011  -17.2454   22.7620 C   0  0  0  0  0  0  0  0  0  0  0  0
    9.5230  -17.9348   24.0497 C   0  0  0  0  0  0  0  0  0  0  0  0
    8.3265  -18.1528   24.3554 O   0  0  0  0  0  0  0  0  0  0  0  0
    9.3009  -15.0741   23.9008 C   0  0  0  0  0  0  0  0  0  0  0  0
   10.4506  -14.7008   24.2345 O   0  0  0  0  0  0  0  0  0  0  0  0
   10.5081  -18.3488   24.9281 O   0  0  0  0  0  0  0  0  0  0  0  0
    5.7307  -13.5467   26.0015 C   0  0  0  0  0  0  0  0  0  0  0  0
    7.0381  -12.8327   25.7850 C   0  0  1  0  0  0  0  0  0  0  0  0
    7.1819  -11.7314   26.7795 C   0  0  0  0  0  0  0  0  0  0  0  0
    8.2008  -13.8108   25.8194 C   0  0  2  0  0  0  0  0  0  0  0  0
    8.2199  -14.6796   24.6931 N   0  0  0  0  0  0  0  0  0  0  0  0
    8.3481  -14.4381   27.1408 C   0  0  0  0  0  0  0  0  0  0  0  0
    8.5386  -13.7773   28.1740 O   0  0  0  0  0  0  0  0  0  0  0  0
    8.2741  -15.8128   27.2312 O   0  0  0  0  0  0  0  0  0  0  0  0
  2  8  1  0
  2  1  1  6
  3  2  1  0
  4  3  1  0
  5  4  1  0
  6  5  1  0
  7  6  1  0
  8  9  2  0
 10 11  1  0
 10  8  1  0
 11 12  1  1
 12 13  1  0
 13 14  2  0
 15 11  1  0
 16 15  2  0
 17 13  1  0
 19 18  1  1
 19 21  1  0
 20 19  1  0
 21 23  1  0
 21 22  1  6
 22 15  1  0
 23 25  1  0
 24 23  2  0
M  END
$$$$
