LIV.pdb
     RDKit          3D

 24 23  0  0  1  0  0  0  0  0999 V2000
    6.0939  -19.0087   19.9177 C   0  0  0  0  0  0  0  0  0  0  0  0
    6.4157  -17.5474   19.8992 C   0  0  1  0  0  0  0  0  0  0  0  0
    5.1270  -16.7850   19.6849 C   0  0  0  0  0  0  0  0  0  0  0  0
    7.1241  -17.1050   21.1627 C   0  0  0  0  0  0  0  0  0  0  0  0
    7.3519  -15.6150   21.1757 C   0  0  2  0  0  0  0  0  0  0  0  0
    8.1446  -15.2803   20.0080 N   0  0  0  0  0  0  0  0  0  0  0  0
    8.0122  -15.1357   22.3871 C   0  0  0  0  0  0  0  0  0  0  0  0
    9.2850  -15.2123   22.4891 O   0  0  0  0  0  0  0  0  0  0  0  0
    7.3596  -11.4707   27.3252 C   0  0  0  0  0  0  0  0  0  0  0  0
    8.0505  -12.5805   26.5944 C   0  0  0  0  0  0  0  0  0  0  0  0
    7.2577  -13.0502   25.3886 C   0  0  2  0  0  0  0  0  0  0  0  0
    5.9257  -13.5171   25.8726 C   0  0  0  0  0  0  0  0  0  0  0  0
    8.0261  -14.1269   24.7070 C   0  0  2  0  0  0  0  0  0  0  0  0
    7.3523  -14.5711   23.5063 N   0  0  0  0  0  0  0  0  0  0  0  0
    8.3893  -15.2561   25.5929 C   0  0  0  0  0  0  0  0  0  0  0  0
    7.4654  -15.9855   26.0373 O   0  0  0  0  0  0  0  0  0  0  0  0
   10.7686  -17.8486   24.5257 C   0  0  0  0  0  0  0  0  0  0  0  0
   11.1780  -17.5390   25.9559 C   0  0  1  0  0  0  0  0  0  0  0  0
   12.4475  -16.7181   25.8951 C   0  0  0  0  0  0  0  0  0  0  0  0
   10.1037  -16.7575   26.6770 C   0  0  2  0  0  0  0  0  0  0  0  0
    9.7259  -15.5635   25.9708 N   0  0  0  0  0  0  0  0  0  0  0  0
   10.4864  -16.5044   28.0754 C   0  0  0  0  0  0  0  0  0  0  0  0
   10.7010  -17.4601   28.8424 O   0  0  0  0  0  0  0  0  0  0  0  0
   10.6069  -15.2157   28.5340 O   0  0  0  0  0  0  0  0  0  0  0  0
  2  3  1  1
  2  1  1  0
  4  2  1  0
  5  4  1  0
  5  6  1  6
  7  5  1  0
  7 14  1  0
  8  7  2  0
 10  9  1  0
 11 10  1  0
 11 12  1  1
 13 14  1  6
 13 11  1  0
 15 13  1  0
 16 15  2  0
 18 17  1  6
 18 20  1  0
 19 18  1  0
 20 22  1  0
 20 21  1  6
 21 15  1  0
 22 24  1  0
 23 22  2  0
M  END
$$$$
