LIV.pdb
     RDKit          3D

 24 23  0  0  1  0  0  0  0  0999 V2000
    7.5439  -12.1214   18.6867 C   0  0  0  0  0  0  0  0  0  0  0  0
    7.7355  -13.4797   19.2847 C   0  0  1  0  0  0  0  0  0  0  0  0
    9.1646  -13.9068   19.0329 C   0  0  0  0  0  0  0  0  0  0  0  0
    7.3959  -13.5044   20.7605 C   0  0  0  0  0  0  0  0  0  0  0  0
    7.7089  -14.8439   21.3772 C   0  0  2  0  0  0  0  0  0  0  0  0
    6.4732  -15.6009   21.4371 N   0  0  0  0  0  0  0  0  0  0  0  0
    8.3068  -14.7493   22.7064 C   0  0  0  0  0  0  0  0  0  0  0  0
    9.5797  -14.7245   22.8297 O   0  0  0  0  0  0  0  0  0  0  0  0
    6.0411  -11.6216   26.2734 C   0  0  0  0  0  0  0  0  0  0  0  0
    6.9970  -12.4419   25.4633 C   0  0  0  0  0  0  0  0  0  0  0  0
    7.3469  -13.7510   26.1467 C   0  0  2  0  0  0  0  0  0  0  0  0
    8.0395  -13.4256   27.4277 C   0  0  0  0  0  0  0  0  0  0  0  0
    8.1980  -14.5528   25.2262 C   0  0  2  0  0  0  0  0  0  0  0  0
    7.5836  -14.6797   23.9226 N   0  0  0  0  0  0  0  0  0  0  0  0
    8.6084  -15.8633   25.7792 C   0  0  0  0  0  0  0  0  0  0  0  0
    7.7091  -16.6640   26.1439 O   0  0  0  0  0  0  0  0  0  0  0  0
   11.3388  -18.0095   24.0705 C   0  0  0  0  0  0  0  0  0  0  0  0
   11.5678  -18.0904   25.5704 C   0  0  1  0  0  0  0  0  0  0  0  0
   12.7713  -17.2313   25.8909 C   0  0  0  0  0  0  0  0  0  0  0  0
   10.3668  -17.5855   26.3368 C   0  0  2  0  0  0  0  0  0  0  0  0
    9.9646  -16.2690   25.9217 N   0  0  0  0  0  0  0  0  0  0  0  0
   10.5866  -17.6911   27.7883 C   0  0  0  0  0  0  0  0  0  0  0  0
   10.6648  -16.6604   28.4804 O   0  0  0  0  0  0  0  0  0  0  0  0
   10.7053  -18.9252   28.3787 O   0  0  0  0  0  0  0  0  0  0  0  0
  2  3  1  1
  2  1  1  0
  4  2  1  0
  5  4  1  0
  5  6  1  1
  7  5  1  0
  7 14  1  0
  8  7  2  0
 10  9  1  0
 11 10  1  0
 11 12  1  1
 13 14  1  6
 13 11  1  0
 15 13  1  0
 16 15  2  0
 18 17  1  6
 18 20  1  0
 19 18  1  0
 20 22  1  0
 20 21  1  1
 21 15  1  0
 22 24  1  0
 23 22  2  0
M  END
$$$$
