LIV.pdb
     RDKit          3D

 24 23  0  0  1  0  0  0  0  0999 V2000
    6.7106  -15.4910   18.1194 C   0  0  0  0  0  0  0  0  0  0  0  0
    7.3864  -14.3750   18.8523 C   0  0  1  0  0  0  0  0  0  0  0  0
    6.5272  -13.1372   18.7195 C   0  0  0  0  0  0  0  0  0  0  0  0
    7.6463  -14.7227   20.3034 C   0  0  0  0  0  0  0  0  0  0  0  0
    8.1896  -13.5412   21.0659 C   0  0  2  0  0  0  0  0  0  0  0  0
    9.3922  -13.0951   20.3888 N   0  0  0  0  0  0  0  0  0  0  0  0
    8.4795  -13.8339   22.4672 C   0  0  0  0  0  0  0  0  0  0  0  0
    9.6263  -14.2958   22.7952 O   0  0  0  0  0  0  0  0  0  0  0  0
    5.9164  -11.1230   26.4766 C   0  0  0  0  0  0  0  0  0  0  0  0
    6.9434  -11.8313   25.6481 C   0  0  0  0  0  0  0  0  0  0  0  0
    6.8983  -13.3353   25.8464 C   0  0  2  0  0  0  0  0  0  0  0  0
    7.2033  -13.6153   27.2799 C   0  0  0  0  0  0  0  0  0  0  0  0
    7.8796  -13.9643   24.9214 C   0  0  2  0  0  0  0  0  0  0  0  0
    7.5762  -13.6481   23.5426 N   0  0  0  0  0  0  0  0  0  0  0  0
    8.0560  -15.4187   25.1341 C   0  0  0  0  0  0  0  0  0  0  0  0
    7.0436  -16.1606   25.0470 O   0  0  0  0  0  0  0  0  0  0  0  0
   10.0004  -17.9215   23.2614 C   0  0  0  0  0  0  0  0  0  0  0  0
   10.4679  -18.0581   24.7008 C   0  0  1  0  0  0  0  0  0  0  0  0
   11.7994  -17.3484   24.8129 C   0  0  0  0  0  0  0  0  0  0  0  0
    9.4797  -17.4350   25.6600 C   0  0  2  0  0  0  0  0  0  0  0  0
    9.3076  -16.0258   25.4323 N   0  0  0  0  0  0  0  0  0  0  0  0
    9.8255  -17.7565   27.0540 C   0  0  0  0  0  0  0  0  0  0  0  0
   10.1475  -16.8467   27.8388 O   0  0  0  0  0  0  0  0  0  0  0  0
    9.7929  -19.0587   27.4887 O   0  0  0  0  0  0  0  0  0  0  0  0
  2  3  1  1
  2  1  1  0
  4  2  1  0
  5  4  1  0
  5  6  1  6
  7  5  1  0
  7 14  1  0
  8  7  2  0
 10  9  1  0
 11 10  1  0
 11 12  1  1
 13 14  1  6
 13 11  1  0
 15 13  1  0
 16 15  2  0
 18 17  1  6
 18 20  1  0
 19 18  1  0
 20 22  1  0
 20 21  1  1
 21 15  1  0
 22 24  1  0
 23 22  2  0
M  END
$$$$
