LIV.pdb
     RDKit          3D

 24 23  0  0  1  0  0  0  0  0999 V2000
    8.6824  -15.3183   17.6672 C   0  0  0  0  0  0  0  0  0  0  0  0
    8.3607  -16.0793   18.9148 C   0  0  1  0  0  0  0  0  0  0  0  0
    9.1412  -17.3748   18.8896 C   0  0  0  0  0  0  0  0  0  0  0  0
    8.6533  -15.2739   20.1637 C   0  0  0  0  0  0  0  0  0  0  0  0
    8.3407  -16.0580   21.4127 C   0  0  2  0  0  0  0  0  0  0  0  0
    6.9159  -16.3295   21.4174 N   0  0  0  0  0  0  0  0  0  0  0  0
    8.7274  -15.3737   22.6438 C   0  0  0  0  0  0  0  0  0  0  0  0
    9.9573  -15.0923   22.8542 O   0  0  0  0  0  0  0  0  0  0  0  0
    6.7931  -11.5819   27.0599 C   0  0  0  0  0  0  0  0  0  0  0  0
    7.7407  -12.6399   26.5852 C   0  0  0  0  0  0  0  0  0  0  0  0
    7.1857  -13.4151   25.4044 C   0  0  2  0  0  0  0  0  0  0  0  0
    5.9747  -14.1513   25.8712 C   0  0  0  0  0  0  0  0  0  0  0  0
    8.2463  -14.3266   24.8959 C   0  0  2  0  0  0  0  0  0  0  0  0
    7.8354  -14.9750   23.6695 N   0  0  0  0  0  0  0  0  0  0  0  0
    8.7359  -15.2959   25.9021 C   0  0  0  0  0  0  0  0  0  0  0  0
    7.9400  -16.1779   26.3162 O   0  0  0  0  0  0  0  0  0  0  0  0
   12.0187  -17.2190   25.4064 C   0  0  0  0  0  0  0  0  0  0  0  0
   11.9906  -16.7354   26.8466 C   0  0  1  0  0  0  0  0  0  0  0  0
   12.9165  -15.5426   26.9411 C   0  0  0  0  0  0  0  0  0  0  0  0
   10.5954  -16.3275   27.2611 C   0  0  2  0  0  0  0  0  0  0  0  0
   10.0577  -15.2862   26.4282 N   0  0  0  0  0  0  0  0  0  0  0  0
   10.5469  -16.0021   28.6957 C   0  0  0  0  0  0  0  0  0  0  0  0
   10.2433  -14.8524   29.0610 O   0  0  0  0  0  0  0  0  0  0  0  0
   10.8361  -16.9656   29.6304 O   0  0  0  0  0  0  0  0  0  0  0  0
  2  3  1  1
  2  1  1  0
  4  2  1  0
  5  4  1  0
  5  6  1  1
  7  5  1  0
  7 14  1  0
  8  7  2  0
 10  9  1  0
 11 10  1  0
 11 12  1  1
 13 14  1  6
 13 11  1  0
 15 13  1  0
 16 15  2  0
 18 17  1  6
 18 20  1  0
 19 18  1  0
 20 22  1  0
 20 21  1  6
 21 15  1  0
 22 24  1  0
 23 22  2  0
M  END
$$$$
