LIV.pdb
     RDKit          3D

 24 23  0  0  1  0  0  0  0  0999 V2000
    7.3214  -19.6072   20.3220 C   0  0  0  0  0  0  0  0  0  0  0  0
    7.4894  -18.1203   20.3204 C   0  0  1  0  0  0  0  0  0  0  0  0
    6.1326  -17.4942   20.0853 C   0  0  0  0  0  0  0  0  0  0  0  0
    8.1230  -17.6181   21.6011 C   0  0  0  0  0  0  0  0  0  0  0  0
    8.1377  -16.1117   21.6567 C   0  0  2  0  0  0  0  0  0  0  0  0
    8.9410  -15.6376   20.5461 N   0  0  0  0  0  0  0  0  0  0  0  0
    8.6532  -15.5788   22.9151 C   0  0  0  0  0  0  0  0  0  0  0  0
    9.9157  -15.4651   23.0865 O   0  0  0  0  0  0  0  0  0  0  0  0
    6.1699  -11.8423   25.8952 C   0  0  0  0  0  0  0  0  0  0  0  0
    7.1846  -12.7385   25.2548 C   0  0  0  0  0  0  0  0  0  0  0  0
    7.4556  -13.9791   26.0859 C   0  0  2  0  0  0  0  0  0  0  0  0
    8.0306  -13.5374   27.3900 C   0  0  0  0  0  0  0  0  0  0  0  0
    8.3790  -14.8651   25.3266 C   0  0  2  0  0  0  0  0  0  0  0  0
    7.8577  -15.1585   24.0093 N   0  0  0  0  0  0  0  0  0  0  0  0
    8.7684  -16.0919   26.0581 C   0  0  0  0  0  0  0  0  0  0  0  0
    7.8560  -16.8317   26.5088 O   0  0  0  0  0  0  0  0  0  0  0  0
   11.2887  -18.6620   24.8148 C   0  0  0  0  0  0  0  0  0  0  0  0
   11.6172  -18.4224   26.2789 C   0  0  1  0  0  0  0  0  0  0  0  0
   12.8837  -17.5962   26.3287 C   0  0  0  0  0  0  0  0  0  0  0  0
   10.5008  -17.6802   26.9772 C   0  0  2  0  0  0  0  0  0  0  0  0
   10.1183  -16.4821   26.2806 N   0  0  0  0  0  0  0  0  0  0  0  0
   10.8301  -17.4452   28.3923 C   0  0  0  0  0  0  0  0  0  0  0  0
   10.9340  -16.2816   28.8199 O   0  0  0  0  0  0  0  0  0  0  0  0
   11.0225  -18.5080   29.2403 O   0  0  0  0  0  0  0  0  0  0  0  0
  2  3  1  1
  2  1  1  0
  4  2  1  0
  5  4  1  0
  5  6  1  6
  7  5  1  0
  7 14  1  0
  8  7  2  0
 10  9  1  0
 11 10  1  0
 11 12  1  1
 13 14  1  6
 13 11  1  0
 15 13  1  0
 16 15  2  0
 18 17  1  6
 18 20  1  0
 19 18  1  0
 20 22  1  0
 20 21  1  6
 21 15  1  0
 22 24  1  0
 23 22  2  0
M  END
$$$$
