LIV.pdb
     RDKit          3D

 24 23  0  0  1  0  0  0  0  0999 V2000
    7.3787  -20.6479   21.2628 C   0  0  0  0  0  0  0  0  0  0  0  0
    7.2920  -19.1776   20.9985 C   0  0  1  0  0  0  0  0  0  0  0  0
    5.8295  -18.7992   20.9219 C   0  0  0  0  0  0  0  0  0  0  0  0
    8.0255  -18.3670   22.0468 C   0  0  0  0  0  0  0  0  0  0  0  0
    7.8242  -16.8872   21.8419 C   0  0  2  0  0  0  0  0  0  0  0  0
    8.4311  -16.5315   20.5735 N   0  0  0  0  0  0  0  0  0  0  0  0
    8.3820  -16.0680   22.9147 C   0  0  0  0  0  0  0  0  0  0  0  0
    9.6459  -15.8822   22.9799 O   0  0  0  0  0  0  0  0  0  0  0  0
    7.0614  -11.5390   26.8660 C   0  0  0  0  0  0  0  0  0  0  0  0
    7.9589  -12.6338   26.3772 C   0  0  0  0  0  0  0  0  0  0  0  0
    7.2264  -13.6143   25.4800 C   0  0  2  0  0  0  0  0  0  0  0  0
    6.1281  -14.2311   26.2798 C   0  0  0  0  0  0  0  0  0  0  0  0
    8.2030  -14.6205   24.9817 C   0  0  2  0  0  0  0  0  0  0  0  0
    7.6278  -15.4330   23.9319 N   0  0  0  0  0  0  0  0  0  0  0  0
    8.8147  -15.4418   26.0508 C   0  0  0  0  0  0  0  0  0  0  0  0
    8.0772  -16.2408   26.6838 O   0  0  0  0  0  0  0  0  0  0  0  0
   12.4923  -16.9284   25.5895 C   0  0  0  0  0  0  0  0  0  0  0  0
   12.2868  -16.4876   27.0290 C   0  0  1  0  0  0  0  0  0  0  0  0
   13.0366  -15.1867   27.2149 C   0  0  0  0  0  0  0  0  0  0  0  0
   10.8215  -16.2754   27.3339 C   0  0  2  0  0  0  0  0  0  0  0  0
   10.1915  -15.3786   26.4034 N   0  0  0  0  0  0  0  0  0  0  0  0
   10.6285  -15.8794   28.7382 C   0  0  0  0  0  0  0  0  0  0  0  0
   10.1911  -14.7467   29.0087 O   0  0  0  0  0  0  0  0  0  0  0  0
   10.9303  -16.7583   29.7492 O   0  0  0  0  0  0  0  0  0  0  0  0
  2  3  1  1
  2  1  1  0
  4  2  1  0
  5  4  1  0
  5  6  1  6
  7  5  1  0
  7 14  1  0
  8  7  2  0
 10  9  1  0
 11 10  1  0
 11 12  1  1
 13 14  1  6
 13 11  1  0
 15 13  1  0
 16 15  2  0
 18 17  1  6
 18 20  1  0
 19 18  1  0
 20 22  1  0
 20 21  1  6
 21 15  1  0
 22 24  1  0
 23 22  2  0
M  END
$$$$
