LIV.pdb
     RDKit          3D

 24 23  0  0  1  0  0  0  0  0999 V2000
    7.6341  -19.5723   20.3139 C   0  0  0  0  0  0  0  0  0  0  0  0
    7.7576  -18.0889   20.1605 C   0  0  1  0  0  0  0  0  0  0  0  0
    6.3677  -17.5163   19.9922 C   0  0  0  0  0  0  0  0  0  0  0  0
    8.4862  -17.4551   21.3273 C   0  0  0  0  0  0  0  0  0  0  0  0
    8.3017  -15.9592   21.3473 C   0  0  2  0  0  0  0  0  0  0  0  0
    9.0487  -15.4081   20.2329 N   0  0  0  0  0  0  0  0  0  0  0  0
    8.7276  -15.3350   22.5972 C   0  0  0  0  0  0  0  0  0  0  0  0
    9.9739  -15.2536   22.8737 O   0  0  0  0  0  0  0  0  0  0  0  0
    7.0104  -11.4413   27.0654 C   0  0  0  0  0  0  0  0  0  0  0  0
    7.9068  -12.5210   26.5422 C   0  0  0  0  0  0  0  0  0  0  0  0
    7.3052  -13.2311   25.3434 C   0  0  2  0  0  0  0  0  0  0  0  0
    6.0440  -13.8914   25.7905 C   0  0  0  0  0  0  0  0  0  0  0  0
    8.3028  -14.2031   24.8194 C   0  0  2  0  0  0  0  0  0  0  0  0
    7.8584  -14.7885   23.5732 N   0  0  0  0  0  0  0  0  0  0  0  0
    8.7120  -15.2305   25.8036 C   0  0  0  0  0  0  0  0  0  0  0  0
    7.8351  -16.0200   26.2401 O   0  0  0  0  0  0  0  0  0  0  0  0
   11.7652  -17.4833   25.2821 C   0  0  0  0  0  0  0  0  0  0  0  0
   11.7966  -17.0298   26.7319 C   0  0  1  0  0  0  0  0  0  0  0  0
   12.8786  -15.9792   26.8536 C   0  0  0  0  0  0  0  0  0  0  0  0
   10.4693  -16.4405   27.1513 C   0  0  2  0  0  0  0  0  0  0  0  0
   10.0431  -15.3756   26.2845 N   0  0  0  0  0  0  0  0  0  0  0  0
   10.4901  -16.0555   28.5717 C   0  0  0  0  0  0  0  0  0  0  0  0
   10.6734  -16.9209   29.4463 O   0  0  0  0  0  0  0  0  0  0  0  0
   10.3075  -14.7431   28.9321 O   0  0  0  0  0  0  0  0  0  0  0  0
  2  3  1  1
  2  1  1  0
  4  2  1  0
  5  4  1  0
  5  6  1  6
  7  5  1  0
  7 14  1  0
  8  7  2  0
 10  9  1  0
 11 10  1  0
 11 12  1  1
 13 14  1  6
 13 11  1  0
 15 13  1  0
 16 15  2  0
 18 17  1  6
 18 20  1  0
 19 18  1  0
 20 22  1  0
 20 21  1  6
 21 15  1  0
 22 24  1  0
 23 22  2  0
M  END
$$$$
