LIV.pdb
     RDKit          3D

 24 23  0  0  1  0  0  0  0  0999 V2000
    6.6935  -19.3315   20.0511 C   0  0  0  0  0  0  0  0  0  0  0  0
    6.8472  -17.8438   20.0000 C   0  0  1  0  0  0  0  0  0  0  0  0
    5.4708  -17.2339   19.8529 C   0  0  0  0  0  0  0  0  0  0  0  0
    7.5711  -17.3047   21.2162 C   0  0  0  0  0  0  0  0  0  0  0  0
    7.6195  -15.7980   21.2076 C   0  0  2  0  0  0  0  0  0  0  0  0
    8.3861  -15.3885   20.0464 N   0  0  0  0  0  0  0  0  0  0  0  0
    8.1977  -15.2255   22.4206 C   0  0  0  0  0  0  0  0  0  0  0  0
    9.4686  -15.1796   22.5576 O   0  0  0  0  0  0  0  0  0  0  0  0
    6.9678  -11.6018   27.2979 C   0  0  0  0  0  0  0  0  0  0  0  0
    7.8175  -12.6121   26.5907 C   0  0  0  0  0  0  0  0  0  0  0  0
    7.1158  -13.2013   25.3809 C   0  0  2  0  0  0  0  0  0  0  0  0
    5.8773  -13.8823   25.8592 C   0  0  0  0  0  0  0  0  0  0  0  0
    8.0524  -14.1348   24.6985 C   0  0  2  0  0  0  0  0  0  0  0  0
    7.4566  -14.6942   23.5047 N   0  0  0  0  0  0  0  0  0  0  0  0
    8.6086  -15.1805   25.5867 C   0  0  0  0  0  0  0  0  0  0  0  0
    7.8380  -16.0880   25.9937 O   0  0  0  0  0  0  0  0  0  0  0  0
   12.5421  -17.8138   26.9987 C   0  0  0  0  0  0  0  0  0  0  0  0
   11.9446  -16.6505   26.2251 C   0  0  1  0  0  0  0  0  0  0  0  0
   11.8801  -17.0606   24.7702 C   0  0  0  0  0  0  0  0  0  0  0  0
   10.5553  -16.3186   26.7197 C   0  0  2  0  0  0  0  0  0  0  0  0
    9.9673  -15.2172   26.0067 N   0  0  0  0  0  0  0  0  0  0  0  0
   10.5474  -16.1314   28.1795 C   0  0  0  0  0  0  0  0  0  0  0  0
   10.4267  -14.9894   28.6577 O   0  0  0  0  0  0  0  0  0  0  0  0
   10.6729  -17.2152   29.0134 O   0  0  0  0  0  0  0  0  0  0  0  0
  2  3  1  1
  2  1  1  0
  4  2  1  0
  5  4  1  0
  5  6  1  6
  7  5  1  0
  7 14  1  0
  8  7  2  0
 10  9  1  0
 11 10  1  0
 11 12  1  1
 13 14  1  6
 13 11  1  0
 15 13  1  0
 16 15  2  0
 18 17  1  1
 18 20  1  0
 19 18  1  0
 20 22  1  0
 20 21  1  6
 21 15  1  0
 22 24  1  0
 23 22  2  0
M  END
$$$$
