LIV.pdb
     RDKit          3D

 24 23  0  0  1  0  0  0  0  0999 V2000
    6.2092  -17.8694   19.3606 C   0  0  0  0  0  0  0  0  0  0  0  0
    6.5213  -16.4245   19.5938 C   0  0  1  0  0  0  0  0  0  0  0  0
    5.2229  -15.6498   19.5468 C   0  0  0  0  0  0  0  0  0  0  0  0
    7.2569  -16.2050   20.8995 C   0  0  0  0  0  0  0  0  0  0  0  0
    7.4462  -14.7374   21.1871 C   0  0  2  0  0  0  0  0  0  0  0  0
    8.2480  -14.1784   20.1155 N   0  0  0  0  0  0  0  0  0  0  0  0
    8.0752  -14.4719   22.4782 C   0  0  0  0  0  0  0  0  0  0  0  0
    9.3490  -14.5190   22.5855 O   0  0  0  0  0  0  0  0  0  0  0  0
    6.0516  -11.1707   26.3331 C   0  0  0  0  0  0  0  0  0  0  0  0
    6.9606  -11.9686   25.4499 C   0  0  0  0  0  0  0  0  0  0  0  0
    7.1495  -13.3863   25.9575 C   0  0  2  0  0  0  0  0  0  0  0  0
    7.7730  -13.3067   27.3107 C   0  0  0  0  0  0  0  0  0  0  0  0
    7.9943  -14.1292   24.9834 C   0  0  2  0  0  0  0  0  0  0  0  0
    7.3827  -14.1541   23.6725 N   0  0  0  0  0  0  0  0  0  0  0  0
    8.3879  -15.4810   25.4408 C   0  0  0  0  0  0  0  0  0  0  0  0
    7.4798  -16.2830   25.7801 O   0  0  0  0  0  0  0  0  0  0  0  0
   10.8269  -17.7323   23.5422 C   0  0  0  0  0  0  0  0  0  0  0  0
   11.2107  -17.8175   25.0099 C   0  0  1  0  0  0  0  0  0  0  0  0
   12.4768  -17.0098   25.1937 C   0  0  0  0  0  0  0  0  0  0  0  0
   10.1205  -17.2587   25.8954 C   0  0  2  0  0  0  0  0  0  0  0  0
    9.7372  -15.9251   25.5188 N   0  0  0  0  0  0  0  0  0  0  0  0
   10.4859  -17.3748   27.3163 C   0  0  0  0  0  0  0  0  0  0  0  0
   10.6504  -16.3488   28.0003 O   0  0  0  0  0  0  0  0  0  0  0  0
   10.6452  -18.6134   27.8874 O   0  0  0  0  0  0  0  0  0  0  0  0
  2  3  1  1
  2  1  1  0
  4  2  1  0
  5  4  1  0
  5  6  1  6
  7  5  1  0
  7 14  1  0
  8  7  2  0
 10  9  1  0
 11 10  1  0
 11 12  1  1
 13 14  1  6
 13 11  1  0
 15 13  1  0
 16 15  2  0
 18 17  1  6
 18 20  1  0
 19 18  1  0
 20 22  1  0
 20 21  1  6
 21 15  1  0
 22 24  1  0
 23 22  2  0
M  END
$$$$
