LIV.pdb
     RDKit          3D

 24 23  0  0  1  0  0  0  0  0999 V2000
    7.6700  -19.8413   20.5189 C   0  0  0  0  0  0  0  0  0  0  0  0
    7.9591  -18.3828   20.3496 C   0  0  1  0  0  0  0  0  0  0  0  0
    6.6810  -17.6970   19.9204 C   0  0  0  0  0  0  0  0  0  0  0  0
    8.5289  -17.7660   21.6101 C   0  0  0  0  0  0  0  0  0  0  0  0
    8.6260  -16.2659   21.4961 C   0  0  2  0  0  0  0  0  0  0  0  0
    9.6504  -15.9640   20.5147 N   0  0  0  0  0  0  0  0  0  0  0  0
    8.9293  -15.6026   22.7615 C   0  0  0  0  0  0  0  0  0  0  0  0
   10.1372  -15.5555   23.1799 O   0  0  0  0  0  0  0  0  0  0  0  0
    6.6944  -11.6679   27.0031 C   0  0  0  0  0  0  0  0  0  0  0  0
    7.6758  -12.7083   26.5587 C   0  0  0  0  0  0  0  0  0  0  0  0
    7.2281  -13.4100   25.2897 C   0  0  2  0  0  0  0  0  0  0  0  0
    5.9363  -14.0976   25.5806 C   0  0  0  0  0  0  0  0  0  0  0  0
    8.2965  -14.3573   24.8706 C   0  0  2  0  0  0  0  0  0  0  0  0
    7.9761  -14.9808   23.6050 N   0  0  0  0  0  0  0  0  0  0  0  0
    8.6555  -15.3515   25.9070 C   0  0  0  0  0  0  0  0  0  0  0  0
    7.7987  -16.2162   26.2253 O   0  0  0  0  0  0  0  0  0  0  0  0
   11.5853  -17.5938   25.7023 C   0  0  0  0  0  0  0  0  0  0  0  0
   11.6197  -17.0575   27.1235 C   0  0  1  0  0  0  0  0  0  0  0  0
   12.7305  -16.0327   27.1932 C   0  0  0  0  0  0  0  0  0  0  0  0
   10.3070  -16.4074   27.4965 C   0  0  2  0  0  0  0  0  0  0  0  0
    9.9167  -15.3845   26.5646 N   0  0  0  0  0  0  0  0  0  0  0  0
   10.3296  -15.9392   28.8917 C   0  0  0  0  0  0  0  0  0  0  0  0
   10.1456  -14.7353   29.1449 O   0  0  0  0  0  0  0  0  0  0  0  0
   10.5534  -16.8293   29.9131 O   0  0  0  0  0  0  0  0  0  0  0  0
  2  3  1  1
  2  1  1  0
  4  2  1  0
  5  4  1  0
  5  6  1  6
  7  5  1  0
  7 14  1  0
  8  7  2  0
 10  9  1  0
 11 10  1  0
 11 12  1  1
 13 14  1  6
 13 11  1  0
 15 13  1  0
 16 15  2  0
 18 17  1  6
 18 20  1  0
 19 18  1  0
 20 22  1  0
 20 21  1  6
 21 15  1  0
 22 24  1  0
 23 22  2  0
M  END
$$$$
