LIV.pdb
     RDKit          3D

 24 23  0  0  1  0  0  0  0  0999 V2000
    6.4599  -19.1950   20.0994 C   0  0  0  0  0  0  0  0  0  0  0  0
    6.6071  -17.7066   20.0495 C   0  0  1  0  0  0  0  0  0  0  0  0
    5.2270  -17.1020   19.9157 C   0  0  0  0  0  0  0  0  0  0  0  0
    7.3397  -17.1666   21.2601 C   0  0  0  0  0  0  0  0  0  0  0  0
    7.4003  -15.6605   21.2429 C   0  0  2  0  0  0  0  0  0  0  0  0
    8.0974  -15.2614   20.0352 N   0  0  0  0  0  0  0  0  0  0  0  0
    8.0568  -15.0891   22.4158 C   0  0  0  0  0  0  0  0  0  0  0  0
    9.3329  -15.0100   22.4535 O   0  0  0  0  0  0  0  0  0  0  0  0
    7.2877  -11.3351   27.2415 C   0  0  0  0  0  0  0  0  0  0  0  0
    8.0220  -12.4480   26.5593 C   0  0  0  0  0  0  0  0  0  0  0  0
    7.2204  -13.0447   25.4171 C   0  0  2  0  0  0  0  0  0  0  0  0
    5.9759  -13.6334   25.9925 C   0  0  0  0  0  0  0  0  0  0  0  0
    8.0634  -14.0575   24.7257 C   0  0  2  0  0  0  0  0  0  0  0  0
    7.3896  -14.5936   23.5631 N   0  0  0  0  0  0  0  0  0  0  0  0
    8.5701  -15.1246   25.6180 C   0  0  0  0  0  0  0  0  0  0  0  0
    7.7436  -15.9442   26.0955 O   0  0  0  0  0  0  0  0  0  0  0  0
   12.3424  -18.0644   26.8678 C   0  0  0  0  0  0  0  0  0  0  0  0
   11.8262  -16.8339   26.1411 C   0  0  1  0  0  0  0  0  0  0  0  0
   11.7201  -17.1868   24.6736 C   0  0  0  0  0  0  0  0  0  0  0  0
   10.4691  -16.4185   26.6613 C   0  0  2  0  0  0  0  0  0  0  0  0
    9.9411  -15.2759   25.9665 N   0  0  0  0  0  0  0  0  0  0  0  0
   10.4968  -16.2437   28.1224 C   0  0  0  0  0  0  0  0  0  0  0  0
   10.5801  -15.1019   28.6090 O   0  0  0  0  0  0  0  0  0  0  0  0
   10.4309  -17.3388   28.9483 O   0  0  0  0  0  0  0  0  0  0  0  0
  2  3  1  1
  2  1  1  0
  4  2  1  0
  5  4  1  0
  5  6  1  6
  7  5  1  0
  7 14  1  0
  8  7  2  0
 10  9  1  0
 11 10  1  0
 11 12  1  1
 13 14  1  6
 13 11  1  0
 15 13  1  0
 16 15  2  0
 18 17  1  1
 18 20  1  0
 19 18  1  0
 20 22  1  0
 20 21  1  6
 21 15  1  0
 22 24  1  0
 23 22  2  0
M  END
$$$$
