LIV.pdb
     RDKit          3D

 24 23  0  0  1  0  0  0  0  0999 V2000
    6.5908  -18.7404   19.9079 C   0  0  0  0  0  0  0  0  0  0  0  0
    6.9000  -17.2778   19.9753 C   0  0  1  0  0  0  0  0  0  0  0  0
    5.5909  -16.5199   19.9701 C   0  0  0  0  0  0  0  0  0  0  0  0
    7.7432  -16.9298   21.1843 C   0  0  0  0  0  0  0  0  0  0  0  0
    7.7841  -15.4414   21.4196 C   0  0  2  0  0  0  0  0  0  0  0  0
    8.5415  -14.8447   20.3361 N   0  0  0  0  0  0  0  0  0  0  0  0
    8.3668  -15.0694   22.7062 C   0  0  0  0  0  0  0  0  0  0  0  0
    9.6378  -15.0670   22.8506 O   0  0  0  0  0  0  0  0  0  0  0  0
    6.1473  -11.4743   26.1010 C   0  0  0  0  0  0  0  0  0  0  0  0
    7.0948  -12.3469   25.3370 C   0  0  0  0  0  0  0  0  0  0  0  0
    7.3359  -13.6739   26.0330 C   0  0  2  0  0  0  0  0  0  0  0  0
    7.9502  -13.3865   27.3621 C   0  0  0  0  0  0  0  0  0  0  0  0
    8.2126  -14.5094   25.1684 C   0  0  2  0  0  0  0  0  0  0  0  0
    7.6303  -14.6957   23.8572 N   0  0  0  0  0  0  0  0  0  0  0  0
    8.6161  -15.7925   25.7869 C   0  0  0  0  0  0  0  0  0  0  0  0
    7.7131  -16.5609   26.2077 O   0  0  0  0  0  0  0  0  0  0  0  0
   11.2732  -18.1230   24.2387 C   0  0  0  0  0  0  0  0  0  0  0  0
   11.5304  -18.0868   25.7358 C   0  0  1  0  0  0  0  0  0  0  0  0
   12.7691  -17.2479   25.9615 C   0  0  0  0  0  0  0  0  0  0  0  0
   10.3636  -17.4768   26.4783 C   0  0  2  0  0  0  0  0  0  0  0  0
    9.9694  -16.2064   25.9325 N   0  0  0  0  0  0  0  0  0  0  0  0
   10.6292  -17.4263   27.9250 C   0  0  0  0  0  0  0  0  0  0  0  0
   10.7224  -16.3273   28.5005 O   0  0  0  0  0  0  0  0  0  0  0  0
   10.7742  -18.5899   28.6396 O   0  0  0  0  0  0  0  0  0  0  0  0
  2  3  1  1
  2  1  1  0
  4  2  1  0
  5  4  1  0
  5  6  1  6
  7  5  1  0
  7 14  1  0
  8  7  2  0
 10  9  1  0
 11 10  1  0
 11 12  1  1
 13 14  1  6
 13 11  1  0
 15 13  1  0
 16 15  2  0
 18 17  1  6
 18 20  1  0
 19 18  1  0
 20 22  1  0
 20 21  1  6
 21 15  1  0
 22 24  1  0
 23 22  2  0
M  END
$$$$
