LIV.pdb
     RDKit          3D

 24 23  0  0  1  0  0  0  0  0999 V2000
    6.4896  -18.9571   20.0628 C   0  0  0  0  0  0  0  0  0  0  0  0
    6.6620  -17.4732   20.1485 C   0  0  1  0  0  0  0  0  0  0  0  0
    5.2887  -16.8392   20.1406 C   0  0  0  0  0  0  0  0  0  0  0  0
    7.4607  -17.0629   21.3682 C   0  0  0  0  0  0  0  0  0  0  0  0
    7.4817  -15.5650   21.5368 C   0  0  2  0  0  0  0  0  0  0  0  0
    8.1417  -15.0002   20.3753 N   0  0  0  0  0  0  0  0  0  0  0  0
    8.1486  -15.1243   22.7592 C   0  0  0  0  0  0  0  0  0  0  0  0
    9.4251  -15.0494   22.7944 O   0  0  0  0  0  0  0  0  0  0  0  0
    6.0570  -11.4944   26.1886 C   0  0  0  0  0  0  0  0  0  0  0  0
    6.9694  -12.3631   25.3788 C   0  0  0  0  0  0  0  0  0  0  0  0
    7.3294  -13.6461   26.1052 C   0  0  2  0  0  0  0  0  0  0  0  0
    8.0349  -13.2733   27.3661 C   0  0  0  0  0  0  0  0  0  0  0  0
    8.1723  -14.4791   25.2052 C   0  0  2  0  0  0  0  0  0  0  0  0
    7.4915  -14.7566   23.9591 N   0  0  0  0  0  0  0  0  0  0  0  0
    8.6933  -15.7097   25.8421 C   0  0  0  0  0  0  0  0  0  0  0  0
    7.8749  -16.4805   26.4069 O   0  0  0  0  0  0  0  0  0  0  0  0
   11.4638  -18.0378   24.2389 C   0  0  0  0  0  0  0  0  0  0  0  0
   11.7742  -17.8271   25.7114 C   0  0  1  0  0  0  0  0  0  0  0  0
   12.9201  -16.8428   25.7955 C   0  0  0  0  0  0  0  0  0  0  0  0
   10.5770  -17.2749   26.4508 C   0  0  2  0  0  0  0  0  0  0  0  0
   10.0695  -16.0705   25.8517 N   0  0  0  0  0  0  0  0  0  0  0  0
   10.8674  -17.1277   27.8862 C   0  0  0  0  0  0  0  0  0  0  0  0
   10.8474  -15.9999   28.4105 O   0  0  0  0  0  0  0  0  0  0  0  0
   11.1599  -18.2332   28.6464 O   0  0  0  0  0  0  0  0  0  0  0  0
  2  3  1  1
  2  1  1  0
  4  2  1  0
  5  4  1  0
  5  6  1  6
  7  5  1  0
  7 14  1  0
  8  7  2  0
 10  9  1  0
 11 10  1  0
 11 12  1  1
 13 14  1  6
 13 11  1  0
 15 13  1  0
 16 15  2  0
 18 17  1  6
 18 20  1  0
 19 18  1  0
 20 22  1  0
 20 21  1  6
 21 15  1  0
 22 24  1  0
 23 22  2  0
M  END
$$$$
