WNR.pdb
     RDKit          3D

 34 35  0  0  1  0  0  0  0  0999 V2000
   26.8395  -20.7004  -15.5320 N   0  0  0  0  0  0  0  0  0  0  0  0
   26.2770  -21.2240  -14.3175 C   0  0  1  0  0  0  0  0  0  0  0  0
   26.3294  -20.2331  -13.1815 C   0  0  0  0  0  0  0  0  0  0  0  0
   27.7302  -19.8775  -12.8419 C   0  0  0  0  0  0  0  0  0  0  0  0
   28.4927  -18.8108  -13.2582 C   0  0  0  0  0  0  0  0  0  0  0  0
   29.7124  -18.8931  -12.6961 N   0  0  0  0  0  0  0  0  0  0  0  0
   29.7791  -19.9857  -11.9183 C   0  0  0  0  0  0  0  0  0  0  0  0
   30.7611  -20.5378  -11.1314 C   0  0  0  0  0  0  0  0  0  0  0  0
   30.5303  -21.6912  -10.4348 C   0  0  0  0  0  0  0  0  0  0  0  0
   29.3118  -22.3335  -10.4990 C   0  0  0  0  0  0  0  0  0  0  0  0
   28.3326  -21.7635  -11.2967 C   0  0  0  0  0  0  0  0  0  0  0  0
   28.5574  -20.6102  -11.9958 C   0  0  0  0  0  0  0  0  0  0  0  0
   24.9434  -21.7850  -14.5603 C   0  0  0  0  0  0  0  0  0  0  0  0
   24.1626  -21.0983  -15.3139 O   0  0  0  0  0  0  0  0  0  0  0  0
   21.7584  -26.8284  -13.4939 N   0  0  0  0  0  0  0  0  0  0  0  0
   21.9243  -25.6925  -14.3938 C   0  0  0  0  0  0  0  0  0  0  0  0
   20.9857  -25.4802  -15.1759 O   0  0  0  0  0  0  0  0  0  0  0  0
   23.1466  -24.9406  -14.2859 C   0  0  0  0  0  0  0  0  0  0  0  0
   23.0818  -23.4329  -14.3486 C   0  0  2  0  0  0  0  0  0  0  0  0
   24.4888  -23.0064  -14.0226 N   0  0  0  0  0  0  0  0  0  0  0  0
   22.2085  -22.8439  -13.3207 C   0  0  0  0  0  0  0  0  0  0  0  0
   22.6480  -22.8600  -12.1060 O   0  0  0  0  0  0  0  0  0  0  0  0
   15.1002  -20.8673  -14.6637 N   0  0  0  0  0  0  0  0  0  0  0  0
   15.8668  -20.6084  -15.8376 C   0  0  0  0  0  0  0  0  0  0  0  0
   15.3581  -20.9659  -16.9506 N   0  0  0  0  0  0  0  0  0  0  0  0
   17.1257  -19.9855  -15.7438 N   0  0  0  0  0  0  0  0  0  0  0  0
   17.7560  -19.8023  -14.4707 C   0  0  0  0  0  0  0  0  0  0  0  0
   18.6404  -20.9792  -14.1185 C   0  0  0  0  0  0  0  0  0  0  0  0
   19.3404  -20.6158  -12.8240 C   0  0  0  0  0  0  0  0  0  0  0  0
   20.1335  -21.8114  -12.3419 C   0  0  2  0  0  0  0  0  0  0  0  0
   20.9530  -22.2533  -13.4658 N   0  0  0  0  0  0  0  0  0  0  0  0
   19.1554  -22.8414  -11.9431 C   0  0  0  0  0  0  0  0  0  0  0  0
   18.4623  -22.7259  -10.7644 O   0  0  0  0  0  0  0  0  0  0  0  0
   18.9638  -23.8186  -12.6877 O   0  0  0  0  0  0  0  0  0  0  0  0
  2  1  1  6
  3  4  1  0
  3  2  1  0
  4  5  2  0
  5  6  1  0
  7  6  1  0
  8  7  2  0
  9  8  1  0
 10 11  1  0
 10  9  2  0
 11 12  2  0
 12  4  1  0
 12  7  1  0
 13  2  1  0
 14 13  2  0
 16 15  1  0
 17 16  2  0
 18 16  1  0
 19 20  1  0
 19 18  1  1
 20 13  1  0
 21 19  1  0
 22 21  2  0
 24 23  1  0
 24 25  2  0
 26 27  1  0
 26 24  1  0
 27 28  1  0
 28 29  1  0
 30 29  1  6
 30 31  1  0
 31 21  1  0
 32 30  1  0
 33 32  1  0
 34 32  2  0
M  END
$$$$
