WNR.pdb
     RDKit          3D

 34 35  0  0  1  0  0  0  0  0999 V2000
   26.2631  -22.8355  -11.4360 N   0  0  0  0  0  0  0  0  0  0  0  0
   25.6620  -21.5482  -11.2191 C   0  0  1  0  0  0  0  0  0  0  0  0
   26.6091  -20.4111  -11.5103 C   0  0  0  0  0  0  0  0  0  0  0  0
   27.7875  -20.4478  -10.6081 C   0  0  0  0  0  0  0  0  0  0  0  0
   29.0988  -20.7575  -10.8859 C   0  0  0  0  0  0  0  0  0  0  0  0
   29.8242  -20.6625   -9.7567 N   0  0  0  0  0  0  0  0  0  0  0  0
   29.0291  -20.2980   -8.7377 C   0  0  0  0  0  0  0  0  0  0  0  0
   29.2405  -20.0603   -7.4008 C   0  0  0  0  0  0  0  0  0  0  0  0
   28.2065  -19.6919   -6.5860 C   0  0  0  0  0  0  0  0  0  0  0  0
   26.9260  -19.5476   -7.0768 C   0  0  0  0  0  0  0  0  0  0  0  0
   26.7302  -19.7908   -8.4268 C   0  0  0  0  0  0  0  0  0  0  0  0
   27.7603  -20.1596   -9.2468 C   0  0  0  0  0  0  0  0  0  0  0  0
   24.3759  -21.4490  -11.9180 C   0  0  0  0  0  0  0  0  0  0  0  0
   24.1557  -22.3191  -12.8364 O   0  0  0  0  0  0  0  0  0  0  0  0
   19.1481  -18.5032  -11.9817 N   0  0  0  0  0  0  0  0  0  0  0  0
   19.7227  -19.8398  -11.8771 C   0  0  0  0  0  0  0  0  0  0  0  0
   18.9635  -20.7787  -12.1594 O   0  0  0  0  0  0  0  0  0  0  0  0
   21.0971  -19.9344  -11.4612 C   0  0  0  0  0  0  0  0  0  0  0  0
   22.1046  -20.5407  -12.4094 C   0  0  2  0  0  0  0  0  0  0  0  0
   23.3971  -20.4734  -11.6396 N   0  0  0  0  0  0  0  0  0  0  0  0
   22.2976  -19.7518  -13.6368 C   0  0  0  0  0  0  0  0  0  0  0  0
   22.7363  -18.5457  -13.4896 O   0  0  0  0  0  0  0  0  0  0  0  0
   24.1920  -24.7985  -16.0207 N   0  0  0  0  0  0  0  0  0  0  0  0
   25.3235  -23.9360  -16.1133 C   0  0  0  0  0  0  0  0  0  0  0  0
   26.4496  -24.4202  -15.7631 N   0  0  0  0  0  0  0  0  0  0  0  0
   25.1759  -22.6136  -16.5729 N   0  0  0  0  0  0  0  0  0  0  0  0
   23.8781  -22.0150  -16.6687 C   0  0  0  0  0  0  0  0  0  0  0  0
   23.9557  -20.6207  -17.2529 C   0  0  0  0  0  0  0  0  0  0  0  0
   22.5330  -20.0999  -17.3064 C   0  0  0  0  0  0  0  0  0  0  0  0
   22.2844  -19.2247  -16.0969 C   0  0  2  0  0  0  0  0  0  0  0  0
   22.0785  -20.1215  -14.9640 N   0  0  0  0  0  0  0  0  0  0  0  0
   21.0773  -18.4272  -16.3863 C   0  0  0  0  0  0  0  0  0  0  0  0
   21.1763  -17.2238  -17.0384 O   0  0  0  0  0  0  0  0  0  0  0  0
   19.9655  -18.8570  -16.0329 O   0  0  0  0  0  0  0  0  0  0  0  0
  2  1  1  6
  3  4  1  0
  3  2  1  0
  4  5  2  0
  5  6  1  0
  7  6  1  0
  8  7  2  0
  9  8  1  0
 10 11  1  0
 10  9  2  0
 11 12  2  0
 12  4  1  0
 12  7  1  0
 13  2  1  0
 14 13  2  0
 16 15  1  0
 17 16  2  0
 18 16  1  0
 19 20  1  0
 19 18  1  1
 20 13  1  0
 21 19  1  0
 22 21  2  0
 24 23  1  0
 24 25  2  0
 26 27  1  0
 26 24  1  0
 27 28  1  0
 28 29  1  0
 30 29  1  6
 30 31  1  0
 31 21  1  0
 32 30  1  0
 33 32  1  0
 34 32  2  0
M  END
$$$$
