WNR.pdb
     RDKit          3D

 34 35  0  0  1  0  0  0  0  0999 V2000
   19.6595  -23.9002  -13.3439 N   0  0  0  0  0  0  0  0  0  0  0  0
   19.6282  -24.9844  -12.4009 C   0  0  1  0  0  0  0  0  0  0  0  0
   20.9927  -25.5797  -12.1585 C   0  0  0  0  0  0  0  0  0  0  0  0
   21.4823  -26.3083  -13.3557 C   0  0  0  0  0  0  0  0  0  0  0  0
   21.9202  -25.8197  -14.5649 C   0  0  0  0  0  0  0  0  0  0  0  0
   22.2672  -26.8495  -15.3584 N   0  0  0  0  0  0  0  0  0  0  0  0
   22.0712  -28.0077  -14.7077 C   0  0  0  0  0  0  0  0  0  0  0  0
   22.2551  -29.3293  -15.0364 C   0  0  0  0  0  0  0  0  0  0  0  0
   21.9588  -30.3185  -14.1406 C   0  0  0  0  0  0  0  0  0  0  0  0
   21.4690  -30.0234  -12.8858 C   0  0  0  0  0  0  0  0  0  0  0  0
   21.2897  -28.6861  -12.5704 C   0  0  0  0  0  0  0  0  0  0  0  0
   21.5841  -27.6923  -13.4621 C   0  0  0  0  0  0  0  0  0  0  0  0
   18.9218  -24.5904  -11.1770 C   0  0  0  0  0  0  0  0  0  0  0  0
   19.3948  -23.5778  -10.5446 O   0  0  0  0  0  0  0  0  0  0  0  0
   15.9090  -23.0298   -7.5545 N   0  0  0  0  0  0  0  0  0  0  0  0
   15.2086  -23.3386   -8.7961 C   0  0  0  0  0  0  0  0  0  0  0  0
   14.0921  -22.8163   -8.9318 O   0  0  0  0  0  0  0  0  0  0  0  0
   15.8752  -24.2087   -9.7287 C   0  0  0  0  0  0  0  0  0  0  0  0
   17.2246  -24.7768   -9.3576 C   0  0  2  0  0  0  0  0  0  0  0  0
   17.7815  -25.2496  -10.6745 N   0  0  0  0  0  0  0  0  0  0  0  0
   17.1392  -25.9569   -8.4822 C   0  0  0  0  0  0  0  0  0  0  0  0
   16.8785  -27.0862   -9.0529 O   0  0  0  0  0  0  0  0  0  0  0  0
   19.0873  -27.1926   -0.1732 N   0  0  0  0  0  0  0  0  0  0  0  0
   19.9189  -27.4013   -1.3124 C   0  0  0  0  0  0  0  0  0  0  0  0
   21.1755  -27.2683   -1.1429 N   0  0  0  0  0  0  0  0  0  0  0  0
   19.3523  -27.7372   -2.5565 N   0  0  0  0  0  0  0  0  0  0  0  0
   17.9340  -27.8789   -2.6979 C   0  0  0  0  0  0  0  0  0  0  0  0
   17.5561  -28.2591   -4.1135 C   0  0  0  0  0  0  0  0  0  0  0  0
   17.6283  -26.9852   -4.9321 C   0  0  0  0  0  0  0  0  0  0  0  0
   17.1689  -27.2816   -6.3435 C   0  0  2  0  0  0  0  0  0  0  0  0
   17.3068  -26.0410   -7.0998 N   0  0  0  0  0  0  0  0  0  0  0  0
   15.7602  -27.7109   -6.2540 C   0  0  0  0  0  0  0  0  0  0  0  0
   15.4279  -29.0384   -6.3557 O   0  0  0  0  0  0  0  0  0  0  0  0
   14.8736  -26.8558   -6.0847 O   0  0  0  0  0  0  0  0  0  0  0  0
  2  1  1  6
  3  4  1  0
  3  2  1  0
  4  5  2  0
  5  6  1  0
  7  6  1  0
  8  7  2  0
  9  8  1  0
 10 11  1  0
 10  9  2  0
 11 12  2  0
 12  4  1  0
 12  7  1  0
 13  2  1  0
 14 13  2  0
 16 15  1  0
 17 16  2  0
 18 16  1  0
 19 20  1  0
 19 18  1  6
 20 13  1  0
 21 19  1  0
 22 21  2  0
 24 23  1  0
 24 25  2  0
 26 27  1  0
 26 24  1  0
 27 28  1  0
 28 29  1  0
 30 29  1  1
 30 31  1  0
 31 21  1  0
 32 30  1  0
 33 32  1  0
 34 32  2  0
M  END
$$$$
