WNR.pdb
     RDKit          3D

 34 35  0  0  1  0  0  0  0  0999 V2000
   25.2684  -18.7410  -16.5607 N   0  0  0  0  0  0  0  0  0  0  0  0
   25.6858  -18.6768  -15.1870 C   0  0  1  0  0  0  0  0  0  0  0  0
   25.6645  -17.2710  -14.6410 C   0  0  0  0  0  0  0  0  0  0  0  0
   26.5296  -16.3693  -15.4425 C   0  0  0  0  0  0  0  0  0  0  0  0
   26.3552  -15.0444  -15.7696 C   0  0  0  0  0  0  0  0  0  0  0  0
   27.3950  -14.6333  -16.5181 N   0  0  0  0  0  0  0  0  0  0  0  0
   28.2542  -15.6500  -16.6958 C   0  0  0  0  0  0  0  0  0  0  0  0
   29.4503  -15.7830  -17.3592 C   0  0  0  0  0  0  0  0  0  0  0  0
   30.1158  -16.9771  -17.3644 C   0  0  0  0  0  0  0  0  0  0  0  0
   29.6111  -18.0797  -16.7078 C   0  0  0  0  0  0  0  0  0  0  0  0
   28.4044  -17.9285  -16.0439 C   0  0  0  0  0  0  0  0  0  0  0  0
   27.7340  -16.7368  -16.0351 C   0  0  0  0  0  0  0  0  0  0  0  0
   24.9458  -19.6462  -14.3715 C   0  0  0  0  0  0  0  0  0  0  0  0
   24.2436  -20.5119  -15.0091 O   0  0  0  0  0  0  0  0  0  0  0  0
   26.7988  -19.9768   -9.7365 N   0  0  0  0  0  0  0  0  0  0  0  0
   26.1183  -20.9384  -10.5966 C   0  0  0  0  0  0  0  0  0  0  0  0
   26.8184  -21.8643  -11.0327 O   0  0  0  0  0  0  0  0  0  0  0  0
   24.7190  -20.7190  -10.8506 C   0  0  0  0  0  0  0  0  0  0  0  0
   24.2183  -20.7851  -12.2741 C   0  0  2  0  0  0  0  0  0  0  0  0
   24.9664  -19.6739  -12.9622 N   0  0  0  0  0  0  0  0  0  0  0  0
   22.7847  -20.4773  -12.4023 C   0  0  0  0  0  0  0  0  0  0  0  0
   22.3378  -19.4878  -11.7024 O   0  0  0  0  0  0  0  0  0  0  0  0
   16.6185  -25.2870  -15.7717 N   0  0  0  0  0  0  0  0  0  0  0  0
   17.2333  -24.1486  -16.3709 C   0  0  0  0  0  0  0  0  0  0  0  0
   17.3116  -24.1367  -17.6433 N   0  0  0  0  0  0  0  0  0  0  0  0
   17.7240  -23.0997  -15.5705 N   0  0  0  0  0  0  0  0  0  0  0  0
   17.5626  -23.1308  -14.1476 C   0  0  0  0  0  0  0  0  0  0  0  0
   18.1918  -21.9188  -13.4946 C   0  0  0  0  0  0  0  0  0  0  0  0
   19.6923  -22.1142  -13.5865 C   0  0  0  0  0  0  0  0  0  0  0  0
   20.3825  -20.8891  -13.0265 C   0  0  2  0  0  0  0  0  0  0  0  0
   21.8170  -21.1042  -13.1877 N   0  0  0  0  0  0  0  0  0  0  0  0
   20.0024  -20.7963  -11.6040 C   0  0  0  0  0  0  0  0  0  0  0  0
   19.1072  -19.8458  -11.1818 O   0  0  0  0  0  0  0  0  0  0  0  0
   20.5022  -21.5904  -10.7880 O   0  0  0  0  0  0  0  0  0  0  0  0
  2  1  1  6
  3  4  1  0
  3  2  1  0
  4  5  2  0
  5  6  1  0
  7  6  1  0
  8  7  2  0
  9  8  1  0
 10 11  1  0
 10  9  2  0
 11 12  2  0
 12  4  1  0
 12  7  1  0
 13  2  1  0
 14 13  2  0
 16 15  1  0
 17 16  2  0
 18 16  1  0
 19 20  1  0
 19 18  1  1
 20 13  1  0
 21 19  1  0
 22 21  2  0
 24 23  1  0
 24 25  2  0
 26 27  1  0
 26 24  1  0
 27 28  1  0
 28 29  1  0
 30 29  1  1
 30 31  1  0
 31 21  1  0
 32 30  1  0
 33 32  1  0
 34 32  2  0
M  END
$$$$
