WNR.pdb
     RDKit          3D

 34 35  0  0  1  0  0  0  0  0999 V2000
   29.1140  -22.0081   -9.9590 N   0  0  0  0  0  0  0  0  0  0  0  0
   27.9986  -21.1224   -9.7660 C   0  0  1  0  0  0  0  0  0  0  0  0
   28.3912  -19.8393   -9.0772 C   0  0  0  0  0  0  0  0  0  0  0  0
   29.1848  -20.1077   -7.8515 C   0  0  0  0  0  0  0  0  0  0  0  0
   30.4019  -20.7333   -7.7109 C   0  0  0  0  0  0  0  0  0  0  0  0
   30.7401  -20.7548   -6.4087 N   0  0  0  0  0  0  0  0  0  0  0  0
   29.7800  -20.1601   -5.6823 C   0  0  0  0  0  0  0  0  0  0  0  0
   29.6155  -19.9107   -4.3409 C   0  0  0  0  0  0  0  0  0  0  0  0
   28.5002  -19.2661   -3.8832 C   0  0  0  0  0  0  0  0  0  0  0  0
   27.5107  -18.8480   -4.7478 C   0  0  0  0  0  0  0  0  0  0  0  0
   27.6923  -19.1071   -6.0968 C   0  0  0  0  0  0  0  0  0  0  0  0
   28.8055  -19.7514   -6.5607 C   0  0  0  0  0  0  0  0  0  0  0  0
   27.2652  -20.9267  -11.0214 C   0  0  0  0  0  0  0  0  0  0  0  0
   27.9741  -20.8132  -12.0862 O   0  0  0  0  0  0  0  0  0  0  0  0
   24.4815  -24.0768  -14.3050 N   0  0  0  0  0  0  0  0  0  0  0  0
   24.9913  -22.7118  -14.2370 C   0  0  0  0  0  0  0  0  0  0  0  0
   24.8910  -22.0444  -15.2773 O   0  0  0  0  0  0  0  0  0  0  0  0
   25.5537  -22.2811  -12.9844 C   0  0  0  0  0  0  0  0  0  0  0  0
   25.2490  -20.8864  -12.4908 C   0  0  2  0  0  0  0  0  0  0  0  0
   25.8602  -20.8588  -11.1147 N   0  0  0  0  0  0  0  0  0  0  0  0
   23.8096  -20.6291  -12.3235 C   0  0  0  0  0  0  0  0  0  0  0  0
   23.2156  -21.2533  -11.3609 O   0  0  0  0  0  0  0  0  0  0  0  0
   20.5060  -16.8094  -17.1573 N   0  0  0  0  0  0  0  0  0  0  0  0
   19.8939  -18.0891  -17.3000 C   0  0  0  0  0  0  0  0  0  0  0  0
   20.0355  -18.6755  -18.4232 N   0  0  0  0  0  0  0  0  0  0  0  0
   19.1708  -18.6562  -16.2337 N   0  0  0  0  0  0  0  0  0  0  0  0
   18.9867  -17.9333  -15.0109 C   0  0  0  0  0  0  0  0  0  0  0  0
   19.4822  -18.7269  -13.8210 C   0  0  0  0  0  0  0  0  0  0  0  0
   20.9803  -18.8749  -13.9997 C   0  0  0  0  0  0  0  0  0  0  0  0
   21.5298  -19.7134  -12.8657 C   0  0  2  0  0  0  0  0  0  0  0  0
   22.9742  -19.7898  -13.0609 N   0  0  0  0  0  0  0  0  0  0  0  0
   20.8955  -21.0414  -12.9688 C   0  0  0  0  0  0  0  0  0  0  0  0
   19.9200  -21.4192  -12.0807 O   0  0  0  0  0  0  0  0  0  0  0  0
   21.2540  -21.8181  -13.8712 O   0  0  0  0  0  0  0  0  0  0  0  0
  2  1  1  6
  3  4  1  0
  3  2  1  0
  4  5  2  0
  5  6  1  0
  7  6  1  0
  8  7  2  0
  9  8  1  0
 10 11  1  0
 10  9  2  0
 11 12  2  0
 12  4  1  0
 12  7  1  0
 13  2  1  0
 14 13  2  0
 16 15  1  0
 17 16  2  0
 18 16  1  0
 19 20  1  0
 19 18  1  1
 20 13  1  0
 21 19  1  0
 22 21  2  0
 24 23  1  0
 24 25  2  0
 26 27  1  0
 26 24  1  0
 27 28  1  0
 28 29  1  0
 30 29  1  6
 30 31  1  0
 31 21  1  0
 32 30  1  0
 33 32  1  0
 34 32  2  0
M  END
$$$$
