WNR.pdb
     RDKit          3D

 34 35  0  0  1  0  0  0  0  0999 V2000
   28.6191  -21.0370  -16.4891 N   0  0  0  0  0  0  0  0  0  0  0  0
   28.7064  -20.1453  -15.3652 C   0  0  1  0  0  0  0  0  0  0  0  0
   27.9300  -18.8698  -15.5771 C   0  0  0  0  0  0  0  0  0  0  0  0
   28.2966  -18.2239  -16.8626 C   0  0  0  0  0  0  0  0  0  0  0  0
   27.4935  -17.8144  -17.9018 C   0  0  0  0  0  0  0  0  0  0  0  0
   28.2608  -17.2808  -18.8698 N   0  0  0  0  0  0  0  0  0  0  0  0
   29.5511  -17.3254  -18.5001 C   0  0  0  0  0  0  0  0  0  0  0  0
   30.7266  -16.9282  -19.0906 C   0  0  0  0  0  0  0  0  0  0  0  0
   31.9227  -17.1081  -18.4534 C   0  0  0  0  0  0  0  0  0  0  0  0
   31.9872  -17.6904  -17.2052 C   0  0  0  0  0  0  0  0  0  0  0  0
   30.7928  -18.0849  -16.6239 C   0  0  0  0  0  0  0  0  0  0  0  0
   29.5935  -17.9078  -17.2562 C   0  0  0  0  0  0  0  0  0  0  0  0
   28.3782  -20.8449  -14.1182 C   0  0  0  0  0  0  0  0  0  0  0  0
   27.4770  -21.7566  -14.1942 O   0  0  0  0  0  0  0  0  0  0  0  0
   31.9499  -21.4396  -10.8845 N   0  0  0  0  0  0  0  0  0  0  0  0
   30.6257  -22.0419  -10.7784 C   0  0  0  0  0  0  0  0  0  0  0  0
   30.5897  -23.2807  -10.8211 O   0  0  0  0  0  0  0  0  0  0  0  0
   29.5061  -21.1489  -10.6368 C   0  0  0  0  0  0  0  0  0  0  0  0
   28.3887  -21.2159  -11.6508 C   0  0  2  0  0  0  0  0  0  0  0  0
   28.9857  -20.5738  -12.8753 N   0  0  0  0  0  0  0  0  0  0  0  0
   27.2140  -20.4116  -11.2772 C   0  0  0  0  0  0  0  0  0  0  0  0
   27.1644  -19.2060  -11.7388 O   0  0  0  0  0  0  0  0  0  0  0  0
   19.8490  -20.9556  -14.3078 N   0  0  0  0  0  0  0  0  0  0  0  0
   19.9952  -21.8466  -13.2044 C   0  0  0  0  0  0  0  0  0  0  0  0
   18.9914  -22.5773  -12.9145 N   0  0  0  0  0  0  0  0  0  0  0  0
   21.2035  -21.8967  -12.4840 N   0  0  0  0  0  0  0  0  0  0  0  0
   22.3466  -21.1542  -12.9241 C   0  0  0  0  0  0  0  0  0  0  0  0
   23.5623  -21.4586  -12.0752 C   0  0  0  0  0  0  0  0  0  0  0  0
   24.3140  -20.1513  -11.9203 C   0  0  0  0  0  0  0  0  0  0  0  0
   24.8458  -20.0548  -10.5065 C   0  0  2  0  0  0  0  0  0  0  0  0
   26.1201  -20.7659  -10.4872 N   0  0  0  0  0  0  0  0  0  0  0  0
   23.8495  -20.6990   -9.6294 C   0  0  0  0  0  0  0  0  0  0  0  0
   22.6999  -20.0380   -9.2765 O   0  0  0  0  0  0  0  0  0  0  0  0
   24.0617  -21.8507   -9.2116 O   0  0  0  0  0  0  0  0  0  0  0  0
  2  1  1  6
  3  4  1  0
  3  2  1  0
  4  5  2  0
  5  6  1  0
  7  6  1  0
  8  7  2  0
  9  8  1  0
 10 11  1  0
 10  9  2  0
 11 12  2  0
 12  4  1  0
 12  7  1  0
 13  2  1  0
 14 13  2  0
 16 15  1  0
 17 16  2  0
 18 16  1  0
 19 20  1  0
 19 18  1  1
 20 13  1  0
 21 19  1  0
 22 21  2  0
 24 23  1  0
 24 25  2  0
 26 27  1  0
 26 24  1  0
 27 28  1  0
 28 29  1  0
 30 29  1  6
 30 31  1  0
 31 21  1  0
 32 30  1  0
 33 32  1  0
 34 32  2  0
M  END
$$$$
