WNR.pdb
     RDKit          3D

 34 35  0  0  1  0  0  0  0  0999 V2000
   15.3107  -14.8040    3.7148 N   0  0  0  0  0  0  0  0  0  0  0  0
   16.4692  -15.6527    3.7719 C   0  0  1  0  0  0  0  0  0  0  0  0
   17.6185  -15.1183    2.9545 C   0  0  0  0  0  0  0  0  0  0  0  0
   18.2105  -16.1787    2.1006 C   0  0  0  0  0  0  0  0  0  0  0  0
   17.6140  -17.2705    1.5135 C   0  0  0  0  0  0  0  0  0  0  0  0
   18.5402  -17.9647    0.8274 N   0  0  0  0  0  0  0  0  0  0  0  0
   19.7347  -17.3623    0.9438 C   0  0  0  0  0  0  0  0  0  0  0  0
   20.9916  -17.6349    0.4595 C   0  0  0  0  0  0  0  0  0  0  0  0
   22.0454  -16.8155    0.7544 C   0  0  0  0  0  0  0  0  0  0  0  0
   21.8816  -15.6958    1.5423 C   0  0  0  0  0  0  0  0  0  0  0  0
   20.6082  -15.4353    2.0222 C   0  0  0  0  0  0  0  0  0  0  0  0
   19.5503  -16.2511    1.7309 C   0  0  0  0  0  0  0  0  0  0  0  0
   16.8186  -15.9649    5.1621 C   0  0  0  0  0  0  0  0  0  0  0  0
   16.9989  -14.9632    5.9452 O   0  0  0  0  0  0  0  0  0  0  0  0
   17.8457  -18.4232    9.7179 N   0  0  0  0  0  0  0  0  0  0  0  0
   16.9612  -19.2076    8.8636 C   0  0  0  0  0  0  0  0  0  0  0  0
   16.4727  -20.2242    9.3790 O   0  0  0  0  0  0  0  0  0  0  0  0
   16.7465  -18.7293    7.5234 C   0  0  0  0  0  0  0  0  0  0  0  0
   17.3828  -17.4249    7.1052 C   0  0  2  0  0  0  0  0  0  0  0  0
   16.9622  -17.2732    5.6672 N   0  0  0  0  0  0  0  0  0  0  0  0
   18.8541  -17.4640    7.1174 C   0  0  0  0  0  0  0  0  0  0  0  0
   19.4237  -18.1889    6.2125 O   0  0  0  0  0  0  0  0  0  0  0  0
   21.6576  -10.5154    7.9423 N   0  0  0  0  0  0  0  0  0  0  0  0
   21.1940  -11.0083    9.1972 C   0  0  0  0  0  0  0  0  0  0  0  0
   21.0255  -10.1530   10.1276 N   0  0  0  0  0  0  0  0  0  0  0  0
   20.9423  -12.3819    9.3745 N   0  0  0  0  0  0  0  0  0  0  0  0
   21.5930  -13.3553    8.5493 C   0  0  0  0  0  0  0  0  0  0  0  0
   21.1304  -14.7578    8.8816 C   0  0  0  0  0  0  0  0  0  0  0  0
   21.8432  -15.6832    7.9153 C   0  0  0  0  0  0  0  0  0  0  0  0
   21.1858  -17.0457    7.9646 C   0  0  2  0  0  0  0  0  0  0  0  0
   19.7444  -16.8170    7.9747 N   0  0  0  0  0  0  0  0  0  0  0  0
   21.6425  -17.6967    9.2073 C   0  0  0  0  0  0  0  0  0  0  0  0
   22.8870  -18.2707    9.2773 O   0  0  0  0  0  0  0  0  0  0  0  0
   20.8868  -17.7204   10.1944 O   0  0  0  0  0  0  0  0  0  0  0  0
  2  1  1  1
  3  4  1  0
  3  2  1  0
  4  5  2  0
  5  6  1  0
  7  6  1  0
  8  7  2  0
  9  8  1  0
 10 11  1  0
 10  9  2  0
 11 12  2  0
 12  4  1  0
 12  7  1  0
 13  2  1  0
 14 13  2  0
 16 15  1  0
 17 16  2  0
 18 16  1  0
 19 20  1  0
 19 18  1  6
 20 13  1  0
 21 19  1  0
 22 21  2  0
 24 23  1  0
 24 25  2  0
 26 27  1  0
 26 24  1  0
 27 28  1  0
 28 29  1  0
 30 29  1  1
 30 31  1  0
 31 21  1  0
 32 30  1  0
 33 32  1  0
 34 32  2  0
M  END
$$$$
