WNR.pdb
     RDKit          3D

 34 35  0  0  1  0  0  0  0  0999 V2000
   27.0884  -22.6508  -12.8720 N   0  0  0  0  0  0  0  0  0  0  0  0
   26.6545  -21.6192  -11.9702 C   0  0  1  0  0  0  0  0  0  0  0  0
   27.5482  -20.4048  -12.0073 C   0  0  0  0  0  0  0  0  0  0  0  0
   28.9503  -20.7582  -11.6710 C   0  0  0  0  0  0  0  0  0  0  0  0
   30.0654  -20.7956  -12.4759 C   0  0  0  0  0  0  0  0  0  0  0  0
   31.1277  -21.1749  -11.7423 N   0  0  0  0  0  0  0  0  0  0  0  0
   30.7468  -21.3898  -10.4726 C   0  0  0  0  0  0  0  0  0  0  0  0
   31.4063  -21.7815   -9.3324 C   0  0  0  0  0  0  0  0  0  0  0  0
   30.7339  -21.9181   -8.1500 C   0  0  0  0  0  0  0  0  0  0  0  0
   29.3805  -21.6686   -8.0643 C   0  0  0  0  0  0  0  0  0  0  0  0
   28.7309  -21.2744   -9.2230 C   0  0  0  0  0  0  0  0  0  0  0  0
   29.3978  -21.1361  -10.4085 C   0  0  0  0  0  0  0  0  0  0  0  0
   25.2316  -21.3205  -12.1660 C   0  0  0  0  0  0  0  0  0  0  0  0
   24.7284  -21.6519  -13.3001 O   0  0  0  0  0  0  0  0  0  0  0  0
   20.1242  -20.3312  -11.2038 N   0  0  0  0  0  0  0  0  0  0  0  0
   20.9344  -19.9724  -10.0451 C   0  0  0  0  0  0  0  0  0  0  0  0
   20.3095  -19.5787   -9.0490 O   0  0  0  0  0  0  0  0  0  0  0  0
   22.3613  -20.1091  -10.1722 C   0  0  0  0  0  0  0  0  0  0  0  0
   22.9259  -20.6981  -11.4433 C   0  0  2  0  0  0  0  0  0  0  0  0
   24.4118  -20.7049  -11.1983 N   0  0  0  0  0  0  0  0  0  0  0  0
   22.6929  -19.8575  -12.6287 C   0  0  0  0  0  0  0  0  0  0  0  0
   23.4652  -18.8323  -12.7750 O   0  0  0  0  0  0  0  0  0  0  0  0
   25.2143  -23.2182  -15.6008 N   0  0  0  0  0  0  0  0  0  0  0  0
   24.6128  -23.3621  -16.8855 C   0  0  0  0  0  0  0  0  0  0  0  0
   24.4642  -24.5498  -17.3243 N   0  0  0  0  0  0  0  0  0  0  0  0
   24.2111  -22.2275  -17.6155 N   0  0  0  0  0  0  0  0  0  0  0  0
   24.1552  -20.9399  -16.9906 C   0  0  0  0  0  0  0  0  0  0  0  0
   22.8468  -20.7396  -16.2561 C   0  0  0  0  0  0  0  0  0  0  0  0
   22.9206  -19.3666  -15.6179 C   0  0  0  0  0  0  0  0  0  0  0  0
   21.6638  -19.1334  -14.8073 C   0  0  2  0  0  0  0  0  0  0  0  0
   21.7464  -20.0087  -13.6424 N   0  0  0  0  0  0  0  0  0  0  0  0
   20.5235  -19.4869  -15.6742 C   0  0  0  0  0  0  0  0  0  0  0  0
   20.2115  -18.7155  -16.7653 O   0  0  0  0  0  0  0  0  0  0  0  0
   19.8455  -20.4941  -15.4062 O   0  0  0  0  0  0  0  0  0  0  0  0
  2  1  1  6
  3  4  1  0
  3  2  1  0
  4  5  2  0
  5  6  1  0
  7  6  1  0
  8  7  2  0
  9  8  1  0
 10 11  1  0
 10  9  2  0
 11 12  2  0
 12  4  1  0
 12  7  1  0
 13  2  1  0
 14 13  2  0
 16 15  1  0
 17 16  2  0
 18 16  1  0
 19 20  1  0
 19 18  1  1
 20 13  1  0
 21 19  1  0
 22 21  2  0
 24 23  1  0
 24 25  2  0
 26 27  1  0
 26 24  1  0
 27 28  1  0
 28 29  1  0
 30 29  1  6
 30 31  1  0
 31 21  1  0
 32 30  1  0
 33 32  1  0
 34 32  2  0
M  END
$$$$
