WNR.pdb
     RDKit          3D

 34 35  0  0  1  0  0  0  0  0999 V2000
   26.4087  -18.1442  -21.2276 N   0  0  0  0  0  0  0  0  0  0  0  0
   26.5908  -18.2749  -19.8079 C   0  0  1  0  0  0  0  0  0  0  0  0
   25.8152  -17.2431  -19.0278 C   0  0  0  0  0  0  0  0  0  0  0  0
   26.1732  -15.8663  -19.4525 C   0  0  0  0  0  0  0  0  0  0  0  0
   27.4108  -15.2799  -19.5836 C   0  0  0  0  0  0  0  0  0  0  0  0
   27.2561  -14.0083  -19.9953 N   0  0  0  0  0  0  0  0  0  0  0  0
   25.9492  -13.7360  -20.1409 C   0  0  0  0  0  0  0  0  0  0  0  0
   25.2446  -12.6215  -20.5280 C   0  0  0  0  0  0  0  0  0  0  0  0
   23.8788  -12.6441  -20.5826 C   0  0  0  0  0  0  0  0  0  0  0  0
   23.1688  -13.7794  -20.2531 C   0  0  0  0  0  0  0  0  0  0  0  0
   23.8945  -14.8942  -19.8652 C   0  0  0  0  0  0  0  0  0  0  0  0
   25.2606  -14.8777  -19.8085 C   0  0  0  0  0  0  0  0  0  0  0  0
   26.3496  -19.6562  -19.3765 C   0  0  0  0  0  0  0  0  0  0  0  0
   25.2548  -20.1967  -19.7748 O   0  0  0  0  0  0  0  0  0  0  0  0
   26.7940  -24.4618  -17.2176 N   0  0  0  0  0  0  0  0  0  0  0  0
   28.0598  -23.7432  -17.1233 C   0  0  0  0  0  0  0  0  0  0  0  0
   28.9926  -24.3586  -16.5859 O   0  0  0  0  0  0  0  0  0  0  0  0
   28.0993  -22.4072  -17.6565 C   0  0  0  0  0  0  0  0  0  0  0  0
   26.8219  -21.7940  -18.1797 C   0  0  2  0  0  0  0  0  0  0  0  0
   27.2348  -20.3992  -18.5692 N   0  0  0  0  0  0  0  0  0  0  0  0
   25.7772  -21.6582  -17.1519 C   0  0  0  0  0  0  0  0  0  0  0  0
   25.9035  -20.6771  -16.3210 O   0  0  0  0  0  0  0  0  0  0  0  0
   17.8717  -20.8406  -15.2594 N   0  0  0  0  0  0  0  0  0  0  0  0
   18.1339  -21.6419  -16.4092 C   0  0  0  0  0  0  0  0  0  0  0  0
   17.2394  -21.6597  -17.3175 N   0  0  0  0  0  0  0  0  0  0  0  0
   19.3337  -22.3710  -16.5113 N   0  0  0  0  0  0  0  0  0  0  0  0
   20.5452  -21.8665  -15.9372 C   0  0  0  0  0  0  0  0  0  0  0  0
   21.5979  -21.6221  -16.9971 C   0  0  0  0  0  0  0  0  0  0  0  0
   22.8107  -21.0686  -16.2755 C   0  0  0  0  0  0  0  0  0  0  0  0
   23.6978  -22.2194  -15.8516 C   0  0  2  0  0  0  0  0  0  0  0  0
   24.6440  -22.4438  -16.9398 N   0  0  0  0  0  0  0  0  0  0  0  0
   22.8175  -23.3855  -15.6464 C   0  0  0  0  0  0  0  0  0  0  0  0
   21.9664  -23.4362  -14.5711 O   0  0  0  0  0  0  0  0  0  0  0  0
   22.8537  -24.3252  -16.4598 O   0  0  0  0  0  0  0  0  0  0  0  0
  2  1  1  6
  3  4  1  0
  3  2  1  0
  4  5  2  0
  5  6  1  0
  7  6  1  0
  8  7  2  0
  9  8  1  0
 10 11  1  0
 10  9  2  0
 11 12  2  0
 12  4  1  0
 12  7  1  0
 13  2  1  0
 14 13  2  0
 16 15  1  0
 17 16  2  0
 18 16  1  0
 19 20  1  0
 19 18  1  1
 20 13  1  0
 21 19  1  0
 22 21  2  0
 24 23  1  0
 24 25  2  0
 26 27  1  0
 26 24  1  0
 27 28  1  0
 28 29  1  0
 30 29  1  6
 30 31  1  0
 31 21  1  0
 32 30  1  0
 33 32  1  0
 34 32  2  0
M  END
$$$$
