WNR.pdb
     RDKit          3D

 34 35  0  0  1  0  0  0  0  0999 V2000
   25.5398  -17.5887  -18.6532 N   0  0  0  0  0  0  0  0  0  0  0  0
   25.2173  -17.3509  -17.2729 C   0  0  1  0  0  0  0  0  0  0  0  0
   24.3265  -16.1482  -17.0859 C   0  0  0  0  0  0  0  0  0  0  0  0
   25.0367  -14.8927  -17.4375 C   0  0  0  0  0  0  0  0  0  0  0  0
   24.7555  -13.9673  -18.4158 C   0  0  0  0  0  0  0  0  0  0  0  0
   25.6735  -12.9845  -18.3717 N   0  0  0  0  0  0  0  0  0  0  0  0
   26.5557  -13.2335  -17.3903 C   0  0  0  0  0  0  0  0  0  0  0  0
   27.6663  -12.5770  -16.9171 C   0  0  0  0  0  0  0  0  0  0  0  0
   28.3865  -13.0879  -15.8735 C   0  0  0  0  0  0  0  0  0  0  0  0
   28.0234  -14.2713  -15.2658 C   0  0  0  0  0  0  0  0  0  0  0  0
   26.9011  -14.9203  -15.7550 C   0  0  0  0  0  0  0  0  0  0  0  0
   26.1768  -14.4144  -16.7985 C   0  0  0  0  0  0  0  0  0  0  0  0
   24.7126  -18.5731  -16.6376 C   0  0  0  0  0  0  0  0  0  0  0  0
   24.1355  -19.4222  -17.4090 O   0  0  0  0  0  0  0  0  0  0  0  0
   26.7250  -22.6168  -14.9239 N   0  0  0  0  0  0  0  0  0  0  0  0
   26.6964  -21.1952  -14.5984 C   0  0  0  0  0  0  0  0  0  0  0  0
   27.7013  -20.5454  -14.9234 O   0  0  0  0  0  0  0  0  0  0  0  0
   25.5189  -20.6946  -13.9397 C   0  0  0  0  0  0  0  0  0  0  0  0
   24.3652  -20.2058  -14.7831 C   0  0  2  0  0  0  0  0  0  0  0  0
   24.8264  -18.8542  -15.2608 N   0  0  0  0  0  0  0  0  0  0  0  0
   23.1310  -19.9873  -14.0115 C   0  0  0  0  0  0  0  0  0  0  0  0
   23.2212  -19.2200  -12.9761 O   0  0  0  0  0  0  0  0  0  0  0  0
   18.6268  -25.9326  -11.3504 N   0  0  0  0  0  0  0  0  0  0  0  0
   17.4660  -25.1100  -11.2589 C   0  0  0  0  0  0  0  0  0  0  0  0
   16.5536  -25.4854  -10.4514 N   0  0  0  0  0  0  0  0  0  0  0  0
   17.3571  -23.9418  -12.0369 N   0  0  0  0  0  0  0  0  0  0  0  0
   18.3960  -23.5756  -12.9525 C   0  0  0  0  0  0  0  0  0  0  0  0
   19.1667  -22.3700  -12.4586 C   0  0  0  0  0  0  0  0  0  0  0  0
   20.2048  -22.0622  -13.5196 C   0  0  0  0  0  0  0  0  0  0  0  0
   20.8852  -20.7544  -13.1764 C   0  0  2  0  0  0  0  0  0  0  0  0
   21.8501  -20.4909  -14.2392 N   0  0  0  0  0  0  0  0  0  0  0  0
   21.5495  -20.9465  -11.8732 C   0  0  0  0  0  0  0  0  0  0  0  0
   21.0849  -20.3056  -10.7523 O   0  0  0  0  0  0  0  0  0  0  0  0
   22.5378  -21.6974  -11.7994 O   0  0  0  0  0  0  0  0  0  0  0  0
  2  1  1  6
  3  4  1  0
  3  2  1  0
  4  5  2  0
  5  6  1  0
  7  6  1  0
  8  7  2  0
  9  8  1  0
 10 11  1  0
 10  9  2  0
 11 12  2  0
 12  4  1  0
 12  7  1  0
 13  2  1  0
 14 13  2  0
 16 15  1  0
 17 16  2  0
 18 16  1  0
 19 20  1  0
 19 18  1  1
 20 13  1  0
 21 19  1  0
 22 21  2  0
 24 23  1  0
 24 25  2  0
 26 27  1  0
 26 24  1  0
 27 28  1  0
 28 29  1  0
 30 29  1  6
 30 31  1  0
 31 21  1  0
 32 30  1  0
 33 32  1  0
 34 32  2  0
M  END
$$$$
