WNR.pdb
     RDKit          3D

 34 35  0  0  1  0  0  0  0  0999 V2000
   23.4197  -20.9819  -16.9891 N   0  0  0  0  0  0  0  0  0  0  0  0
   23.5365  -21.4139  -15.6233 C   0  0  1  0  0  0  0  0  0  0  0  0
   23.7207  -20.2628  -14.6662 C   0  0  0  0  0  0  0  0  0  0  0  0
   24.9281  -19.4685  -15.0058 C   0  0  0  0  0  0  0  0  0  0  0  0
   25.0425  -18.1364  -15.3296 C   0  0  0  0  0  0  0  0  0  0  0  0
   26.3355  -17.8482  -15.5656 N   0  0  0  0  0  0  0  0  0  0  0  0
   27.0814  -18.9535  -15.4067 C   0  0  0  0  0  0  0  0  0  0  0  0
   28.4244  -19.2220  -15.5193 C   0  0  0  0  0  0  0  0  0  0  0  0
   28.9054  -20.4809  -15.2899 C   0  0  0  0  0  0  0  0  0  0  0  0
   28.0633  -21.5153  -14.9399 C   0  0  0  0  0  0  0  0  0  0  0  0
   26.7123  -21.2274  -14.8305 C   0  0  0  0  0  0  0  0  0  0  0  0
   26.2252  -19.9704  -15.0588 C   0  0  0  0  0  0  0  0  0  0  0  0
   22.4375  -22.3178  -15.2667 C   0  0  0  0  0  0  0  0  0  0  0  0
   21.2591  -21.9545  -15.6252 O   0  0  0  0  0  0  0  0  0  0  0  0
   19.5616  -26.5316  -14.0796 N   0  0  0  0  0  0  0  0  0  0  0  0
   20.9734  -26.8731  -14.2129 C   0  0  0  0  0  0  0  0  0  0  0  0
   21.2438  -28.0826  -14.1709 O   0  0  0  0  0  0  0  0  0  0  0  0
   21.9008  -25.7851  -14.3773 C   0  0  0  0  0  0  0  0  0  0  0  0
   21.3794  -24.3687  -14.3182 C   0  0  2  0  0  0  0  0  0  0  0  0
   22.6056  -23.5315  -14.5696 N   0  0  0  0  0  0  0  0  0  0  0  0
   20.8695  -23.9905  -12.9903 C   0  0  0  0  0  0  0  0  0  0  0  0
   21.7466  -23.8258  -12.0563 O   0  0  0  0  0  0  0  0  0  0  0  0
   14.9337  -21.4575  -15.1960 N   0  0  0  0  0  0  0  0  0  0  0  0
   15.7382  -20.3689  -14.7482 C   0  0  0  0  0  0  0  0  0  0  0  0
   15.4101  -19.2042  -15.1499 N   0  0  0  0  0  0  0  0  0  0  0  0
   16.8398  -20.5975  -13.9022 N   0  0  0  0  0  0  0  0  0  0  0  0
   16.9880  -21.8476  -13.2189 C   0  0  0  0  0  0  0  0  0  0  0  0
   17.6288  -21.6611  -11.8603 C   0  0  0  0  0  0  0  0  0  0  0  0
   17.7225  -23.0406  -11.2387 C   0  0  0  0  0  0  0  0  0  0  0  0
   19.1743  -23.4673  -11.2065 C   0  0  2  0  0  0  0  0  0  0  0  0
   19.5533  -23.7733  -12.5823 N   0  0  0  0  0  0  0  0  0  0  0  0
   19.2506  -24.6609  -10.3425 C   0  0  0  0  0  0  0  0  0  0  0  0
   19.0331  -24.5590   -8.9915 O   0  0  0  0  0  0  0  0  0  0  0  0
   19.5145  -25.7641  -10.8517 O   0  0  0  0  0  0  0  0  0  0  0  0
  2  1  1  6
  3  4  1  0
  3  2  1  0
  4  5  2  0
  5  6  1  0
  7  6  1  0
  8  7  2  0
  9  8  1  0
 10 11  1  0
 10  9  2  0
 11 12  2  0
 12  4  1  0
 12  7  1  0
 13  2  1  0
 14 13  2  0
 16 15  1  0
 17 16  2  0
 18 16  1  0
 19 20  1  0
 19 18  1  1
 20 13  1  0
 21 19  1  0
 22 21  2  0
 24 23  1  0
 24 25  2  0
 26 27  1  0
 26 24  1  0
 27 28  1  0
 28 29  1  0
 30 29  1  6
 30 31  1  0
 31 21  1  0
 32 30  1  0
 33 32  1  0
 34 32  2  0
M  END
$$$$
