WNR.pdb
     RDKit          3D

 34 35  0  0  1  0  0  0  0  0999 V2000
   25.9109  -21.3383  -15.9311 N   0  0  0  0  0  0  0  0  0  0  0  0
   24.5629  -20.9396  -16.2308 C   0  0  1  0  0  0  0  0  0  0  0  0
   24.1028  -21.4258  -17.5823 C   0  0  0  0  0  0  0  0  0  0  0  0
   24.9150  -20.8308  -18.6733 C   0  0  0  0  0  0  0  0  0  0  0  0
   26.0450  -21.3132  -19.2922 C   0  0  0  0  0  0  0  0  0  0  0  0
   26.4458  -20.4339  -20.2285 N   0  0  0  0  0  0  0  0  0  0  0  0
   25.6118  -19.3816  -20.2471 C   0  0  0  0  0  0  0  0  0  0  0  0
   25.5518  -18.2251  -20.9870 C   0  0  0  0  0  0  0  0  0  0  0  0
   24.5563  -17.3125  -20.7750 C   0  0  0  0  0  0  0  0  0  0  0  0
   23.5861  -17.5223  -19.8179 C   0  0  0  0  0  0  0  0  0  0  0  0
   23.6610  -18.6933  -19.0810 C   0  0  0  0  0  0  0  0  0  0  0  0
   24.6543  -19.6098  -19.2882 C   0  0  0  0  0  0  0  0  0  0  0  0
   23.6588  -21.2899  -15.1298 C   0  0  0  0  0  0  0  0  0  0  0  0
   23.8653  -22.4212  -14.5583 O   0  0  0  0  0  0  0  0  0  0  0  0
   20.3990  -21.1144  -11.0548 N   0  0  0  0  0  0  0  0  0  0  0  0
   20.4268  -19.8165  -11.7197 C   0  0  0  0  0  0  0  0  0  0  0  0
   19.7899  -18.9096  -11.1632 O   0  0  0  0  0  0  0  0  0  0  0  0
   21.1814  -19.7190  -12.9412 C   0  0  0  0  0  0  0  0  0  0  0  0
   21.7590  -20.9784  -13.5426 C   0  0  2  0  0  0  0  0  0  0  0  0
   22.6042  -20.4695  -14.6804 N   0  0  0  0  0  0  0  0  0  0  0  0
   20.7406  -21.8635  -14.1304 C   0  0  0  0  0  0  0  0  0  0  0  0
   19.9294  -21.3305  -14.9829 O   0  0  0  0  0  0  0  0  0  0  0  0
   16.2668  -25.7035   -8.9814 N   0  0  0  0  0  0  0  0  0  0  0  0
   16.3929  -26.9488   -9.6641 C   0  0  0  0  0  0  0  0  0  0  0  0
   15.5065  -27.8327   -9.4226 N   0  0  0  0  0  0  0  0  0  0  0  0
   17.4581  -27.1668  -10.5582 N   0  0  0  0  0  0  0  0  0  0  0  0
   18.4300  -26.1424  -10.7989 C   0  0  0  0  0  0  0  0  0  0  0  0
   18.2299  -25.5000  -12.1548 C   0  0  0  0  0  0  0  0  0  0  0  0
   19.2455  -24.3787  -12.2506 C   0  0  0  0  0  0  0  0  0  0  0  0
   19.2014  -23.7938  -13.6459 C   0  0  2  0  0  0  0  0  0  0  0  0
   20.5192  -23.2222  -13.9041 N   0  0  0  0  0  0  0  0  0  0  0  0
   18.1500  -22.7586  -13.6431 C   0  0  0  0  0  0  0  0  0  0  0  0
   17.0564  -22.8731  -14.4641 O   0  0  0  0  0  0  0  0  0  0  0  0
   18.2642  -21.7781  -12.8872 O   0  0  0  0  0  0  0  0  0  0  0  0
  2  1  1  1
  3  4  1  0
  3  2  1  0
  4  5  2  0
  5  6  1  0
  7  6  1  0
  8  7  2  0
  9  8  1  0
 10 11  1  0
 10  9  2  0
 11 12  2  0
 12  4  1  0
 12  7  1  0
 13  2  1  0
 14 13  2  0
 16 15  1  0
 17 16  2  0
 18 16  1  0
 19 20  1  0
 19 18  1  6
 20 13  1  0
 21 19  1  0
 22 21  2  0
 24 23  1  0
 24 25  2  0
 26 27  1  0
 26 24  1  0
 27 28  1  0
 28 29  1  0
 30 29  1  1
 30 31  1  0
 31 21  1  0
 32 30  1  0
 33 32  1  0
 34 32  2  0
M  END
$$$$
