WNR.pdb
     RDKit          3D

 34 35  0  0  1  0  0  0  0  0999 V2000
   25.4817  -20.1768  -16.3116 N   0  0  0  0  0  0  0  0  0  0  0  0
   24.1175  -19.7399  -16.4285 C   0  0  1  0  0  0  0  0  0  0  0  0
   23.5318  -20.0296  -17.7879 C   0  0  0  0  0  0  0  0  0  0  0  0
   24.0729  -19.1045  -18.8152 C   0  0  0  0  0  0  0  0  0  0  0  0
   25.2811  -19.1294  -19.4726 C   0  0  0  0  0  0  0  0  0  0  0  0
   25.3446  -18.0866  -20.3206 N   0  0  0  0  0  0  0  0  0  0  0  0
   24.2108  -17.3712  -20.2432 C   0  0  0  0  0  0  0  0  0  0  0  0
   23.7536  -16.2377  -20.8714 C   0  0  0  0  0  0  0  0  0  0  0  0
   22.5196  -15.7276  -20.5782 C   0  0  0  0  0  0  0  0  0  0  0  0
   21.6991  -16.3309  -19.6486 C   0  0  0  0  0  0  0  0  0  0  0  0
   22.1751  -17.4729  -19.0248 C   0  0  0  0  0  0  0  0  0  0  0  0
   23.4084  -17.9877  -19.3135 C   0  0  0  0  0  0  0  0  0  0  0  0
   23.3115  -20.2430  -15.3107 C   0  0  0  0  0  0  0  0  0  0  0  0
   23.8624  -21.1286  -14.5615 O   0  0  0  0  0  0  0  0  0  0  0  0
   19.3272  -19.2612  -11.3883 N   0  0  0  0  0  0  0  0  0  0  0  0
   20.7694  -19.4370  -11.5181 C   0  0  0  0  0  0  0  0  0  0  0  0
   21.3728  -19.7430  -10.4789 O   0  0  0  0  0  0  0  0  0  0  0  0
   21.3414  -19.2398  -12.8238 C   0  0  0  0  0  0  0  0  0  0  0  0
   21.3263  -20.3871  -13.8061 C   0  0  2  0  0  0  0  0  0  0  0  0
   21.9988  -19.8148  -15.0260 N   0  0  0  0  0  0  0  0  0  0  0  0
   19.9698  -20.7864  -14.2147 C   0  0  0  0  0  0  0  0  0  0  0  0
   19.2069  -19.8558  -14.6847 O   0  0  0  0  0  0  0  0  0  0  0  0
   15.3520  -27.8406  -15.6487 N   0  0  0  0  0  0  0  0  0  0  0  0
   16.7139  -27.5345  -15.3578 C   0  0  0  0  0  0  0  0  0  0  0  0
   17.5920  -28.3662  -15.7611 N   0  0  0  0  0  0  0  0  0  0  0  0
   17.0462  -26.3610  -14.6550 N   0  0  0  0  0  0  0  0  0  0  0  0
   16.0208  -25.4955  -14.1539 C   0  0  0  0  0  0  0  0  0  0  0  0
   16.2608  -24.0592  -14.5671 C   0  0  0  0  0  0  0  0  0  0  0  0
   17.6715  -23.7183  -14.1292 C   0  0  0  0  0  0  0  0  0  0  0  0
   17.9829  -22.2951  -14.5396 C   0  0  2  0  0  0  0  0  0  0  0  0
   19.3742  -22.0472  -14.1749 N   0  0  0  0  0  0  0  0  0  0  0  0
   17.0597  -21.4217  -13.7902 C   0  0  0  0  0  0  0  0  0  0  0  0
   15.9284  -20.9262  -14.3882 O   0  0  0  0  0  0  0  0  0  0  0  0
   17.3169  -21.1379  -12.6072 O   0  0  0  0  0  0  0  0  0  0  0  0
  2  1  1  6
  3  4  1  0
  3  2  1  0
  4  5  2  0
  5  6  1  0
  7  6  1  0
  8  7  2  0
  9  8  1  0
 10 11  1  0
 10  9  2  0
 11 12  2  0
 12  4  1  0
 12  7  1  0
 13  2  1  0
 14 13  2  0
 16 15  1  0
 17 16  2  0
 18 16  1  0
 19 20  1  0
 19 18  1  1
 20 13  1  0
 21 19  1  0
 22 21  2  0
 24 23  1  0
 24 25  2  0
 26 27  1  0
 26 24  1  0
 27 28  1  0
 28 29  1  0
 30 29  1  1
 30 31  1  0
 31 21  1  0
 32 30  1  0
 33 32  1  0
 34 32  2  0
M  END
$$$$
