EYP.pdb
     RDKit          3D

 29 30  0  0  1  0  0  0  0  0999 V2000
   25.2979  -18.1866  -16.0159 N   0  0  0  0  0  0  0  0  0  0  0  0
   26.2071  -19.1226  -15.3282 C   0  0  1  0  0  0  0  0  0  0  0  0
   27.5822  -18.5155  -15.4920 C   0  0  0  0  0  0  0  0  0  0  0  0
   28.2217  -18.7733  -16.8092 C   0  0  0  0  0  0  0  0  0  0  0  0
   28.1921  -20.1992  -17.2035 C   0  0  0  0  0  0  0  0  0  0  0  0
   27.5735  -20.6609  -18.1953 O   0  0  0  0  0  0  0  0  0  0  0  0
   25.7984  -19.2000  -13.9129 C   0  0  0  0  0  0  0  0  0  0  0  0
   25.6195  -18.1747  -13.2088 O   0  0  0  0  0  0  0  0  0  0  0  0
   28.8893  -21.1700  -16.4544 O   0  0  0  0  0  0  0  0  0  0  0  0
   19.2130  -18.9625  -13.0576 O   0  0  0  0  0  0  0  0  0  0  0  0
   20.4025  -19.6142  -12.7838 C   0  0  0  0  0  0  0  0  0  0  0  0
   21.0730  -20.3574  -13.7273 C   0  0  0  0  0  0  0  0  0  0  0  0
   22.2556  -21.0002  -13.4400 C   0  0  0  0  0  0  0  0  0  0  0  0
   22.7796  -20.8933  -12.1681 C   0  0  0  0  0  0  0  0  0  0  0  0
   24.0519  -21.5627  -11.7906 C   0  0  0  0  0  0  0  0  0  0  0  0
   25.2003  -20.5726  -11.9240 C   0  0  2  0  0  0  0  0  0  0  0  0
   25.5916  -20.4634  -13.2945 N   0  0  0  0  0  0  0  0  0  0  0  0
   26.2643  -20.8856  -10.9548 C   0  0  0  0  0  0  0  0  0  0  0  0
   27.1343  -21.7287  -11.4518 O   0  0  0  0  0  0  0  0  0  0  0  0
   22.1339  -20.1571  -11.1998 C   0  0  0  0  0  0  0  0  0  0  0  0
   20.9375  -19.5214  -11.5329 C   0  0  0  0  0  0  0  0  0  0  0  0
   26.4415  -20.4158   -9.6493 N   0  0  0  0  0  0  0  0  0  0  0  0
   25.5127  -19.5039   -9.0088 C   0  0  0  0  0  0  0  0  0  0  0  0
   26.3369  -18.7819   -7.9783 C   0  0  0  0  0  0  0  0  0  0  0  0
   27.7490  -19.2941   -8.1337 C   0  0  0  0  0  0  0  0  0  0  0  0
   27.4554  -20.6994   -8.7035 C   0  0  1  0  0  0  0  0  0  0  0  0
   26.9437  -21.4817   -7.5325 C   0  0  0  0  0  0  0  0  0  0  0  0
   25.7320  -21.8149   -7.4305 O   0  0  0  0  0  0  0  0  0  0  0  0
   27.7994  -21.8676   -6.5127 O   0  0  0  0  0  0  0  0  0  0  0  0
  2  1  1  6
  3  2  1  0
  4  3  1  0
  4  5  1  0
  5  9  1  0
  5  6  2  0
  7  2  1  0
  7  8  2  0
 10 11  1  0
 11 12  2  0
 12 13  1  0
 14 15  1  0
 14 13  2  0
 16 17  1  0
 16 15  1  6
 17  7  1  0
 18 16  1  0
 19 18  2  0
 20 14  1  0
 21 11  1  0
 21 20  2  0
 22 18  1  0
 22 26  1  0
 23 22  1  0
 24 23  1  0
 24 25  1  0
 25 26  1  0
 26 27  1  1
 27 29  1  0
 28 27  2  0
M  END
$$$$
