EYP.pdb
     RDKit          3D

 29 30  0  0  1  0  0  0  0  0999 V2000
   15.8833  -11.3460  -14.3202 N   0  0  0  0  0  0  0  0  0  0  0  0
   17.3264  -11.1188  -14.1168 C   0  0  1  0  0  0  0  0  0  0  0  0
   17.9599  -11.4410  -15.4515 C   0  0  0  0  0  0  0  0  0  0  0  0
   17.2854  -10.8234  -16.6238 C   0  0  0  0  0  0  0  0  0  0  0  0
   17.9278  -11.1628  -17.9128 C   0  0  0  0  0  0  0  0  0  0  0  0
   18.9196  -11.9232  -18.0465 O   0  0  0  0  0  0  0  0  0  0  0  0
   17.5177   -9.7062  -13.7371 C   0  0  0  0  0  0  0  0  0  0  0  0
   16.7984   -8.7842  -14.1969 O   0  0  0  0  0  0  0  0  0  0  0  0
   17.4422  -10.6283  -19.1244 O   0  0  0  0  0  0  0  0  0  0  0  0
   14.0413   -7.2143   -8.3992 O   0  0  0  0  0  0  0  0  0  0  0  0
   15.2701   -7.3356   -9.0237 C   0  0  0  0  0  0  0  0  0  0  0  0
   16.1291   -6.2726   -9.1791 C   0  0  0  0  0  0  0  0  0  0  0  0
   17.3485   -6.4086   -9.8028 C   0  0  0  0  0  0  0  0  0  0  0  0
   17.7153   -7.6486  -10.2843 C   0  0  0  0  0  0  0  0  0  0  0  0
   19.0168   -7.8649  -10.9686 C   0  0  0  0  0  0  0  0  0  0  0  0
   18.7839   -7.9785  -12.4686 C   0  0  2  0  0  0  0  0  0  0  0  0
   18.5427   -9.3425  -12.8214 N   0  0  0  0  0  0  0  0  0  0  0  0
   19.8500   -7.2820  -13.2088 C   0  0  0  0  0  0  0  0  0  0  0  0
   20.8423   -8.0875  -13.4938 O   0  0  0  0  0  0  0  0  0  0  0  0
   16.8790   -8.7339  -10.1453 C   0  0  0  0  0  0  0  0  0  0  0  0
   15.6519   -8.5524   -9.5068 C   0  0  0  0  0  0  0  0  0  0  0  0
   19.9197   -5.9459  -13.6167 N   0  0  0  0  0  0  0  0  0  0  0  0
   18.9197   -4.9597  -13.2538 C   0  0  0  0  0  0  0  0  0  0  0  0
   18.9901   -3.9262  -14.3444 C   0  0  0  0  0  0  0  0  0  0  0  0
   20.0163   -4.4263  -15.3331 C   0  0  0  0  0  0  0  0  0  0  0  0
   20.8970   -5.2737  -14.3887 C   0  0  1  0  0  0  0  0  0  0  0  0
   21.6672   -4.2683  -13.5881 C   0  0  0  0  0  0  0  0  0  0  0  0
   21.3388   -3.9595  -12.4106 O   0  0  0  0  0  0  0  0  0  0  0  0
   22.7791   -3.6393  -14.1259 O   0  0  0  0  0  0  0  0  0  0  0  0
  2  1  1  6
  3  2  1  0
  4  3  1  0
  4  5  1  0
  5  9  1  0
  5  6  2  0
  7  2  1  0
  7  8  2  0
 10 11  1  0
 11 12  2  0
 12 13  1  0
 14 15  1  0
 14 13  2  0
 16 17  1  0
 16 15  1  1
 17  7  1  0
 18 16  1  0
 19 18  2  0
 20 14  1  0
 21 11  1  0
 21 20  2  0
 22 18  1  0
 22 26  1  0
 23 22  1  0
 24 23  1  0
 24 25  1  0
 25 26  1  0
 26 27  1  1
 27 29  1  0
 28 27  2  0
M  END
$$$$
