EYP.pdb
     RDKit          3D

 29 30  0  0  1  0  0  0  0  0999 V2000
   29.5081  -22.0301  -18.7785 N   0  0  0  0  0  0  0  0  0  0  0  0
   28.7221  -20.8846  -18.2827 C   0  0  1  0  0  0  0  0  0  0  0  0
   27.6947  -20.6255  -19.3615 C   0  0  0  0  0  0  0  0  0  0  0  0
   28.2277  -19.9589  -20.5790 C   0  0  0  0  0  0  0  0  0  0  0  0
   29.3853  -19.0794  -20.3037 C   0  0  0  0  0  0  0  0  0  0  0  0
   29.3914  -18.1320  -19.4777 O   0  0  0  0  0  0  0  0  0  0  0  0
   28.0992  -21.2767  -17.0043 C   0  0  0  0  0  0  0  0  0  0  0  0
   27.5055  -22.3742  -16.8556 O   0  0  0  0  0  0  0  0  0  0  0  0
   30.6077  -19.2608  -20.9836 O   0  0  0  0  0  0  0  0  0  0  0  0
   24.8227  -20.9229   -8.9521 O   0  0  0  0  0  0  0  0  0  0  0  0
   25.5611  -20.6331  -10.0858 C   0  0  0  0  0  0  0  0  0  0  0  0
   25.2486  -19.5894  -10.9254 C   0  0  0  0  0  0  0  0  0  0  0  0
   25.9927  -19.3133  -12.0499 C   0  0  0  0  0  0  0  0  0  0  0  0
   27.0823  -20.1089  -12.3390 C   0  0  0  0  0  0  0  0  0  0  0  0
   27.9277  -19.8670  -13.5374 C   0  0  0  0  0  0  0  0  0  0  0  0
   27.3441  -20.6193  -14.7251 C   0  0  2  0  0  0  0  0  0  0  0  0
   28.1550  -20.4050  -15.8825 N   0  0  0  0  0  0  0  0  0  0  0  0
   25.9064  -20.3295  -14.8613 C   0  0  0  0  0  0  0  0  0  0  0  0
   25.7021  -19.1630  -15.4199 O   0  0  0  0  0  0  0  0  0  0  0  0
   27.4230  -21.1620  -11.5195 C   0  0  0  0  0  0  0  0  0  0  0  0
   26.6420  -21.4072  -10.3898 C   0  0  0  0  0  0  0  0  0  0  0  0
   24.8054  -21.1069  -14.4875 N   0  0  0  0  0  0  0  0  0  0  0  0
   24.9231  -22.2869  -13.6519 C   0  0  0  0  0  0  0  0  0  0  0  0
   23.7338  -23.1325  -14.0166 C   0  0  0  0  0  0  0  0  0  0  0  0
   23.0134  -22.3933  -15.1189 C   0  0  0  0  0  0  0  0  0  0  0  0
   23.4295  -20.9456  -14.7773 C   0  0  1  0  0  0  0  0  0  0  0  0
   22.6250  -20.5988  -13.5618 C   0  0  0  0  0  0  0  0  0  0  0  0
   23.1039  -20.6816  -12.3984 O   0  0  0  0  0  0  0  0  0  0  0  0
   21.3122  -20.1707  -13.6822 O   0  0  0  0  0  0  0  0  0  0  0  0
  2  1  1  6
  3  2  1  0
  4  3  1  0
  4  5  1  0
  5  9  1  0
  5  6  2  0
  7  2  1  0
  7  8  2  0
 10 11  1  0
 11 12  2  0
 12 13  1  0
 14 15  1  0
 14 13  2  0
 16 17  1  0
 16 15  1  1
 17  7  1  0
 18 16  1  0
 19 18  2  0
 20 14  1  0
 21 11  1  0
 21 20  2  0
 22 18  1  0
 22 26  1  0
 23 22  1  0
 24 23  1  0
 24 25  1  0
 25 26  1  0
 26 27  1  1
 27 29  1  0
 28 27  2  0
M  END
$$$$
