EYP.pdb
     RDKit          3D

 29 30  0  0  1  0  0  0  0  0999 V2000
   16.5450   -1.8268   -9.8891 N   0  0  0  0  0  0  0  0  0  0  0  0
   16.2985   -2.7032  -11.0496 C   0  0  1  0  0  0  0  0  0  0  0  0
   17.5180   -2.5335  -11.9273 C   0  0  0  0  0  0  0  0  0  0  0  0
   17.5716   -1.2488  -12.6737 C   0  0  0  0  0  0  0  0  0  0  0  0
   18.5814   -1.2435  -13.7552 C   0  0  0  0  0  0  0  0  0  0  0  0
   19.3890   -2.1767  -13.9929 O   0  0  0  0  0  0  0  0  0  0  0  0
   16.1568   -4.0861  -10.5560 C   0  0  0  0  0  0  0  0  0  0  0  0
   16.6807   -4.4723   -9.4812 O   0  0  0  0  0  0  0  0  0  0  0  0
   18.7030   -0.1390  -14.6241 O   0  0  0  0  0  0  0  0  0  0  0  0
   11.6840  -11.3288   -8.9916 O   0  0  0  0  0  0  0  0  0  0  0  0
   12.2730  -10.0877   -9.1565 C   0  0  0  0  0  0  0  0  0  0  0  0
   13.4086   -9.7116   -8.4774 C   0  0  0  0  0  0  0  0  0  0  0  0
   13.9831   -8.4732   -8.6518 C   0  0  0  0  0  0  0  0  0  0  0  0
   13.3999   -7.5870   -9.5340 C   0  0  0  0  0  0  0  0  0  0  0  0
   13.9679   -6.2337   -9.7688 C   0  0  0  0  0  0  0  0  0  0  0  0
   15.1084   -6.3337  -10.7719 C   0  0  2  0  0  0  0  0  0  0  0  0
   15.4076   -5.0391  -11.2989 N   0  0  0  0  0  0  0  0  0  0  0  0
   14.8401   -7.4010  -11.7509 C   0  0  0  0  0  0  0  0  0  0  0  0
   13.9100   -7.0491  -12.6027 O   0  0  0  0  0  0  0  0  0  0  0  0
   12.2627   -7.9315  -10.2301 C   0  0  0  0  0  0  0  0  0  0  0  0
   11.7125   -9.1968  -10.0237 C   0  0  0  0  0  0  0  0  0  0  0  0
   15.4270   -8.6652  -11.8683 N   0  0  0  0  0  0  0  0  0  0  0  0
   16.1563   -9.2974  -10.7853 C   0  0  0  0  0  0  0  0  0  0  0  0
   17.1108  -10.2390  -11.4671 C   0  0  0  0  0  0  0  0  0  0  0  0
   16.9099  -10.0414  -12.9507 C   0  0  0  0  0  0  0  0  0  0  0  0
   15.4383   -9.5725  -12.9545 C   0  0  1  0  0  0  0  0  0  0  0  0
   14.6465  -10.8130  -12.6728 C   0  0  0  0  0  0  0  0  0  0  0  0
   14.4012  -11.6660  -13.5682 O   0  0  0  0  0  0  0  0  0  0  0  0
   14.1537  -11.0628  -11.4016 O   0  0  0  0  0  0  0  0  0  0  0  0
  2  1  1  1
  3  2  1  0
  4  3  1  0
  4  5  1  0
  5  9  1  0
  5  6  2  0
  7  2  1  0
  7  8  2  0
 10 11  1  0
 11 12  2  0
 12 13  1  0
 14 15  1  0
 14 13  2  0
 16 17  1  0
 16 15  1  1
 17  7  1  0
 18 16  1  0
 19 18  2  0
 20 14  1  0
 21 11  1  0
 21 20  2  0
 22 18  1  0
 22 26  1  0
 23 22  1  0
 24 23  1  0
 24 25  1  0
 25 26  1  0
 26 27  1  1
 27 29  1  0
 28 27  2  0
M  END
$$$$
