EYP.pdb
     RDKit          3D

 29 30  0  0  1  0  0  0  0  0999 V2000
   29.8366  -22.8386  -18.2800 N   0  0  0  0  0  0  0  0  0  0  0  0
   29.4716  -21.5197  -17.7298 C   0  0  1  0  0  0  0  0  0  0  0  0
   28.8450  -20.7779  -18.8889 C   0  0  0  0  0  0  0  0  0  0  0  0
   28.9891  -21.4505  -20.2070 C   0  0  0  0  0  0  0  0  0  0  0  0
   27.7969  -22.2362  -20.5950 C   0  0  0  0  0  0  0  0  0  0  0  0
   27.8007  -23.4605  -20.8792 O   0  0  0  0  0  0  0  0  0  0  0  0
   28.5173  -21.7334  -16.6253 C   0  0  0  0  0  0  0  0  0  0  0  0
   27.8279  -22.7793  -16.5268 O   0  0  0  0  0  0  0  0  0  0  0  0
   26.5260  -21.6292  -20.6722 O   0  0  0  0  0  0  0  0  0  0  0  0
   23.8550  -20.5289   -9.3641 O   0  0  0  0  0  0  0  0  0  0  0  0
   24.8308  -20.4224  -10.3393 C   0  0  0  0  0  0  0  0  0  0  0  0
   25.9748  -21.1861  -10.3277 C   0  0  0  0  0  0  0  0  0  0  0  0
   26.9369  -21.0688  -11.3049 C   0  0  0  0  0  0  0  0  0  0  0  0
   26.7440  -20.1579  -12.3231 C   0  0  0  0  0  0  0  0  0  0  0  0
   27.7431  -19.9799  -13.4090 C   0  0  0  0  0  0  0  0  0  0  0  0
   27.3828  -20.8860  -14.5779 C   0  0  2  0  0  0  0  0  0  0  0  0
   28.3486  -20.7407  -15.6216 N   0  0  0  0  0  0  0  0  0  0  0  0
   25.9702  -20.7041  -14.9531 C   0  0  0  0  0  0  0  0  0  0  0  0
   25.7971  -19.6155  -15.6599 O   0  0  0  0  0  0  0  0  0  0  0  0
   25.6100  -19.3776  -12.3649 C   0  0  0  0  0  0  0  0  0  0  0  0
   24.6598  -19.5281  -11.3546 C   0  0  0  0  0  0  0  0  0  0  0  0
   24.8639  -21.5086  -14.6610 N   0  0  0  0  0  0  0  0  0  0  0  0
   24.9280  -22.6311  -13.7443 C   0  0  0  0  0  0  0  0  0  0  0  0
   23.8243  -23.5508  -14.1901 C   0  0  0  0  0  0  0  0  0  0  0  0
   23.2111  -22.9112  -15.4130 C   0  0  0  0  0  0  0  0  0  0  0  0
   23.5268  -21.4283  -15.1178 C   0  0  1  0  0  0  0  0  0  0  0  0
   22.5710  -21.0490  -14.0281 C   0  0  0  0  0  0  0  0  0  0  0  0
   22.9144  -21.0321  -12.8150 O   0  0  0  0  0  0  0  0  0  0  0  0
   21.2630  -20.7003  -14.3257 O   0  0  0  0  0  0  0  0  0  0  0  0
  2  1  1  6
  3  2  1  0
  4  3  1  0
  4  5  1  0
  5  9  1  0
  5  6  2  0
  7  2  1  0
  7  8  2  0
 10 11  1  0
 11 12  2  0
 12 13  1  0
 14 15  1  0
 14 13  2  0
 16 17  1  0
 16 15  1  1
 17  7  1  0
 18 16  1  0
 19 18  2  0
 20 14  1  0
 21 11  1  0
 21 20  2  0
 22 18  1  0
 22 26  1  0
 23 22  1  0
 24 23  1  0
 24 25  1  0
 25 26  1  0
 26 27  1  1
 27 29  1  0
 28 27  2  0
M  END
$$$$
