EYP.pdb
     RDKit          3D

 29 30  0  0  1  0  0  0  0  0999 V2000
   19.3343   -1.1167  -16.5337 N   0  0  0  0  0  0  0  0  0  0  0  0
   18.5795   -2.3446  -16.8473 C   0  0  1  0  0  0  0  0  0  0  0  0
   19.1672   -2.8367  -18.1507 C   0  0  0  0  0  0  0  0  0  0  0  0
   18.6252   -4.1378  -18.6239 C   0  0  0  0  0  0  0  0  0  0  0  0
   17.1969   -4.0715  -19.0046 C   0  0  0  0  0  0  0  0  0  0  0  0
   16.3049   -4.8591  -18.5998 O   0  0  0  0  0  0  0  0  0  0  0  0
   18.7885   -3.3034  -15.7460 C   0  0  0  0  0  0  0  0  0  0  0  0
   19.9258   -3.5353  -15.2646 O   0  0  0  0  0  0  0  0  0  0  0  0
   16.7300   -3.0737  -19.8854 O   0  0  0  0  0  0  0  0  0  0  0  0
   17.2635   -9.1453   -9.4586 O   0  0  0  0  0  0  0  0  0  0  0  0
   17.1393   -8.1035  -10.3608 C   0  0  0  0  0  0  0  0  0  0  0  0
   17.6808   -6.8596  -10.1337 C   0  0  0  0  0  0  0  0  0  0  0  0
   17.5488   -5.8329  -11.0408 C   0  0  0  0  0  0  0  0  0  0  0  0
   16.8528   -6.0626  -12.2097 C   0  0  0  0  0  0  0  0  0  0  0  0
   16.6720   -4.9979  -13.2310 C   0  0  0  0  0  0  0  0  0  0  0  0
   17.8636   -5.0016  -14.1782 C   0  0  2  0  0  0  0  0  0  0  0  0
   17.6854   -4.0057  -15.1879 N   0  0  0  0  0  0  0  0  0  0  0  0
   18.1479   -6.3706  -14.6416 C   0  0  0  0  0  0  0  0  0  0  0  0
   17.4445   -6.6742  -15.7035 O   0  0  0  0  0  0  0  0  0  0  0  0
   16.2981   -7.2962  -12.4685 C   0  0  0  0  0  0  0  0  0  0  0  0
   16.4552   -8.3094  -11.5225 C   0  0  0  0  0  0  0  0  0  0  0  0
   19.0264   -7.3218  -14.1127 N   0  0  0  0  0  0  0  0  0  0  0  0
   19.6954   -7.1509  -12.8369 C   0  0  0  0  0  0  0  0  0  0  0  0
   20.9432   -7.9837  -12.9462 C   0  0  0  0  0  0  0  0  0  0  0  0
   20.9484   -8.5533  -14.3449 C   0  0  0  0  0  0  0  0  0  0  0  0
   19.4291   -8.5796  -14.6214 C   0  0  1  0  0  0  0  0  0  0  0  0
   18.9157   -9.7214  -13.7981 C   0  0  0  0  0  0  0  0  0  0  0  0
   18.2716   -9.5375  -12.7299 O   0  0  0  0  0  0  0  0  0  0  0  0
   19.1368  -11.0317  -14.1921 O   0  0  0  0  0  0  0  0  0  0  0  0
  2  1  1  1
  3  2  1  0
  4  3  1  0
  4  5  1  0
  5  9  1  0
  5  6  2  0
  7  2  1  0
  7  8  2  0
 10 11  1  0
 11 12  2  0
 12 13  1  0
 14 15  1  0
 14 13  2  0
 16 17  1  0
 16 15  1  6
 17  7  1  0
 18 16  1  0
 19 18  2  0
 20 14  1  0
 21 11  1  0
 21 20  2  0
 22 18  1  0
 22 26  1  0
 23 22  1  0
 24 23  1  0
 24 25  1  0
 25 26  1  0
 26 27  1  1
 27 29  1  0
 28 27  2  0
M  END
$$$$
