EYP.pdb
     RDKit          3D

 29 30  0  0  1  0  0  0  0  0999 V2000
   21.2992  -17.2499  -16.2646 N   0  0  0  0  0  0  0  0  0  0  0  0
   21.7736  -18.5557  -15.7693 C   0  0  1  0  0  0  0  0  0  0  0  0
   21.0745  -19.5758  -16.6396 C   0  0  0  0  0  0  0  0  0  0  0  0
   21.3246  -20.9913  -16.2597 C   0  0  0  0  0  0  0  0  0  0  0  0
   20.7446  -21.3550  -14.9479 C   0  0  0  0  0  0  0  0  0  0  0  0
   21.3538  -21.9660  -14.0340 O   0  0  0  0  0  0  0  0  0  0  0  0
   23.2394  -18.6000  -15.9288 C   0  0  0  0  0  0  0  0  0  0  0  0
   23.8072  -18.2879  -17.0055 O   0  0  0  0  0  0  0  0  0  0  0  0
   19.4112  -21.0217  -14.6307 O   0  0  0  0  0  0  0  0  0  0  0  0
   23.6453  -22.1097   -9.7962 O   0  0  0  0  0  0  0  0  0  0  0  0
   24.2852  -21.3052  -10.7224 C   0  0  0  0  0  0  0  0  0  0  0  0
   25.6081  -21.4732  -11.0596 C   0  0  0  0  0  0  0  0  0  0  0  0
   26.2311  -20.6648  -11.9829 C   0  0  0  0  0  0  0  0  0  0  0  0
   25.5039  -19.6586  -12.5850 C   0  0  0  0  0  0  0  0  0  0  0  0
   26.1151  -18.7493  -13.5894 C   0  0  0  0  0  0  0  0  0  0  0  0
   25.4918  -19.0138  -14.9527 C   0  0  2  0  0  0  0  0  0  0  0  0
   24.0665  -19.0054  -14.8458 N   0  0  0  0  0  0  0  0  0  0  0  0
   26.1018  -20.2011  -15.5755 C   0  0  0  0  0  0  0  0  0  0  0  0
   25.2679  -21.2102  -15.6050 O   0  0  0  0  0  0  0  0  0  0  0  0
   24.1775  -19.4629  -12.2704 C   0  0  0  0  0  0  0  0  0  0  0  0
   23.5846  -20.3048  -11.3291 C   0  0  0  0  0  0  0  0  0  0  0  0
   27.3860  -20.3641  -16.1053 N   0  0  0  0  0  0  0  0  0  0  0  0
   28.5190  -19.5632  -15.6819 C   0  0  0  0  0  0  0  0  0  0  0  0
   29.4575  -19.5789  -16.8573 C   0  0  0  0  0  0  0  0  0  0  0  0
   28.7592  -20.3620  -17.9435 C   0  0  0  0  0  0  0  0  0  0  0  0
   27.8681  -21.2762  -17.0742 C   0  0  1  0  0  0  0  0  0  0  0  0
   28.8139  -22.2824  -16.4928 C   0  0  0  0  0  0  0  0  0  0  0  0
   29.1666  -22.2459  -15.2829 O   0  0  0  0  0  0  0  0  0  0  0  0
   29.3362  -23.2973  -17.2791 O   0  0  0  0  0  0  0  0  0  0  0  0
  2  1  1  6
  3  2  1  0
  4  3  1  0
  4  5  1  0
  5  9  1  0
  5  6  2  0
  7  2  1  0
  7  8  2  0
 10 11  1  0
 11 12  2  0
 12 13  1  0
 14 15  1  0
 14 13  2  0
 16 17  1  0
 16 15  1  1
 17  7  1  0
 18 16  1  0
 19 18  2  0
 20 14  1  0
 21 11  1  0
 21 20  2  0
 22 18  1  0
 22 26  1  0
 23 22  1  0
 24 23  1  0
 24 25  1  0
 25 26  1  0
 26 27  1  1
 27 29  1  0
 28 27  2  0
M  END
$$$$
