EYP.pdb
     RDKit          3D

 29 30  0  0  1  0  0  0  0  0999 V2000
   26.3649  -21.5894  -13.1769 N   0  0  0  0  0  0  0  0  0  0  0  0
   27.6823  -20.9381  -13.0510 C   0  0  1  0  0  0  0  0  0  0  0  0
   27.8388  -20.1347  -14.3224 C   0  0  0  0  0  0  0  0  0  0  0  0
   28.3394  -20.9094  -15.4885 C   0  0  0  0  0  0  0  0  0  0  0  0
   27.3656  -21.9042  -15.9899 C   0  0  0  0  0  0  0  0  0  0  0  0
   26.1529  -21.6720  -16.2249 O   0  0  0  0  0  0  0  0  0  0  0  0
   27.6553  -20.0804  -11.8510 C   0  0  0  0  0  0  0  0  0  0  0  0
   27.9239  -18.8537  -11.8965 O   0  0  0  0  0  0  0  0  0  0  0  0
   27.7592  -23.2343  -16.2461 O   0  0  0  0  0  0  0  0  0  0  0  0
   21.5912  -21.6567  -11.4210 O   0  0  0  0  0  0  0  0  0  0  0  0
   22.6901  -20.9974  -10.8992 C   0  0  0  0  0  0  0  0  0  0  0  0
   23.1212  -21.1860   -9.6067 C   0  0  0  0  0  0  0  0  0  0  0  0
   24.2163  -20.5227   -9.1016 C   0  0  0  0  0  0  0  0  0  0  0  0
   24.8979  -19.6445   -9.9188 C   0  0  0  0  0  0  0  0  0  0  0  0
   26.0876  -18.8951   -9.4367 C   0  0  0  0  0  0  0  0  0  0  0  0
   27.2898  -19.8281   -9.4015 C   0  0  2  0  0  0  0  0  0  0  0  0
   27.3176  -20.6304  -10.5842 N   0  0  0  0  0  0  0  0  0  0  0  0
   27.3483  -20.5432   -8.1151 C   0  0  0  0  0  0  0  0  0  0  0  0
   26.9626  -21.7883   -8.2395 O   0  0  0  0  0  0  0  0  0  0  0  0
   24.4931  -19.4323  -11.2179 C   0  0  0  0  0  0  0  0  0  0  0  0
   23.3780  -20.1250  -11.6902 C   0  0  0  0  0  0  0  0  0  0  0  0
   27.7435  -20.0758   -6.8575 N   0  0  0  0  0  0  0  0  0  0  0  0
   27.9417  -18.6681   -6.5682 C   0  0  0  0  0  0  0  0  0  0  0  0
   28.9235  -18.6476   -5.4289 C   0  0  0  0  0  0  0  0  0  0  0  0
   29.2900  -20.0882   -5.1625 C   0  0  0  0  0  0  0  0  0  0  0  0
   28.0015  -20.7810   -5.6578 C   0  0  1  0  0  0  0  0  0  0  0  0
   26.9859  -20.4929   -4.5945 C   0  0  0  0  0  0  0  0  0  0  0  0
   26.0526  -19.6636   -4.7699 O   0  0  0  0  0  0  0  0  0  0  0  0
   27.0433  -21.1389   -3.3695 O   0  0  0  0  0  0  0  0  0  0  0  0
  2  1  1  6
  3  2  1  0
  4  3  1  0
  4  5  1  0
  5  9  1  0
  5  6  2  0
  7  2  1  0
  7  8  2  0
 10 11  1  0
 11 12  2  0
 12 13  1  0
 14 15  1  0
 14 13  2  0
 16 17  1  0
 16 15  1  1
 17  7  1  0
 18 16  1  0
 19 18  2  0
 20 14  1  0
 21 11  1  0
 21 20  2  0
 22 18  1  0
 22 26  1  0
 23 22  1  0
 24 23  1  0
 24 25  1  0
 25 26  1  0
 26 27  1  1
 27 29  1  0
 28 27  2  0
M  END
$$$$
