EYP.pdb
     RDKit          3D

 29 30  0  0  1  0  0  0  0  0999 V2000
   20.1738  -18.0848  -16.1318 N   0  0  0  0  0  0  0  0  0  0  0  0
   20.2423  -19.1579  -15.1223 C   0  0  1  0  0  0  0  0  0  0  0  0
   19.7904  -20.4032  -15.8513 C   0  0  0  0  0  0  0  0  0  0  0  0
   20.5158  -20.6774  -17.1199 C   0  0  0  0  0  0  0  0  0  0  0  0
   21.4760  -21.7981  -17.0129 C   0  0  0  0  0  0  0  0  0  0  0  0
   21.1928  -22.9551  -16.6116 O   0  0  0  0  0  0  0  0  0  0  0  0
   21.6390  -19.2610  -14.6588 C   0  0  0  0  0  0  0  0  0  0  0  0
   22.5630  -18.5670  -15.1522 O   0  0  0  0  0  0  0  0  0  0  0  0
   22.8292  -21.6263  -17.3719 O   0  0  0  0  0  0  0  0  0  0  0  0
   28.1863  -20.4583   -9.1068 O   0  0  0  0  0  0  0  0  0  0  0  0
   27.0227  -20.6630   -9.8269 C   0  0  0  0  0  0  0  0  0  0  0  0
   26.9967  -21.3730  -11.0047 C   0  0  0  0  0  0  0  0  0  0  0  0
   25.8312  -21.5684  -11.7101 C   0  0  0  0  0  0  0  0  0  0  0  0
   24.6578  -21.0349  -11.2179 C   0  0  0  0  0  0  0  0  0  0  0  0
   23.3645  -21.2074  -11.9298 C   0  0  0  0  0  0  0  0  0  0  0  0
   23.3239  -20.2755  -13.1326 C   0  0  2  0  0  0  0  0  0  0  0  0
   21.9843  -20.1675  -13.6193 N   0  0  0  0  0  0  0  0  0  0  0  0
   24.3556  -20.6557  -14.1128 C   0  0  0  0  0  0  0  0  0  0  0  0
   23.9625  -21.6561  -14.8606 O   0  0  0  0  0  0  0  0  0  0  0  0
   24.6483  -20.3188  -10.0416 C   0  0  0  0  0  0  0  0  0  0  0  0
   25.8519  -20.1442   -9.3579 C   0  0  0  0  0  0  0  0  0  0  0  0
   25.6245  -20.1064  -14.3236 N   0  0  0  0  0  0  0  0  0  0  0  0
   26.2906  -19.2672  -13.3455 C   0  0  0  0  0  0  0  0  0  0  0  0
   27.2291  -18.4125  -14.1525 C   0  0  0  0  0  0  0  0  0  0  0  0
   26.9954  -18.7798  -15.5986 C   0  0  0  0  0  0  0  0  0  0  0  0
   26.5071  -20.2345  -15.4225 C   0  0  1  0  0  0  0  0  0  0  0  0
   27.7430  -21.0080  -15.0773 C   0  0  0  0  0  0  0  0  0  0  0  0
   28.6201  -21.2847  -15.9398 O   0  0  0  0  0  0  0  0  0  0  0  0
   27.9616  -21.4484  -13.7813 O   0  0  0  0  0  0  0  0  0  0  0  0
  2  1  1  6
  3  2  1  0
  4  3  1  0
  4  5  1  0
  5  9  1  0
  5  6  2  0
  7  2  1  0
  7  8  2  0
 10 11  1  0
 11 12  2  0
 12 13  1  0
 14 15  1  0
 14 13  2  0
 16 17  1  0
 16 15  1  1
 17  7  1  0
 18 16  1  0
 19 18  2  0
 20 14  1  0
 21 11  1  0
 21 20  2  0
 22 18  1  0
 22 26  1  0
 23 22  1  0
 24 23  1  0
 24 25  1  0
 25 26  1  0
 26 27  1  1
 27 29  1  0
 28 27  2  0
M  END
$$$$
