EYP.pdb
     RDKit          3D

 29 30  0  0  1  0  0  0  0  0999 V2000
   28.8232  -20.4646  -19.1635 N   0  0  0  0  0  0  0  0  0  0  0  0
   28.6254  -19.4734  -18.0892 C   0  0  1  0  0  0  0  0  0  0  0  0
   27.7592  -18.4001  -18.7090 C   0  0  0  0  0  0  0  0  0  0  0  0
   26.5147  -18.9005  -19.3504 C   0  0  0  0  0  0  0  0  0  0  0  0
   26.5585  -18.8496  -20.8285 C   0  0  0  0  0  0  0  0  0  0  0  0
   27.4152  -18.2255  -21.5040 O   0  0  0  0  0  0  0  0  0  0  0  0
   27.9536  -20.1484  -16.9626 C   0  0  0  0  0  0  0  0  0  0  0  0
   27.1233  -21.0758  -17.1343 O   0  0  0  0  0  0  0  0  0  0  0  0
   25.5964  -19.5306  -21.6032 O   0  0  0  0  0  0  0  0  0  0  0  0
   24.7020  -21.3205   -8.9510 O   0  0  0  0  0  0  0  0  0  0  0  0
   25.5164  -20.9279   -9.9985 C   0  0  0  0  0  0  0  0  0  0  0  0
   26.5705  -21.6919  -10.4426 C   0  0  0  0  0  0  0  0  0  0  0  0
   27.3721  -21.2880  -11.4860 C   0  0  0  0  0  0  0  0  0  0  0  0
   27.1069  -20.0817  -12.1010 C   0  0  0  0  0  0  0  0  0  0  0  0
   27.9333  -19.5855  -13.2323 C   0  0  0  0  0  0  0  0  0  0  0  0
   27.3923  -20.1523  -14.5373 C   0  0  2  0  0  0  0  0  0  0  0  0
   28.2336  -19.7595  -15.6241 N   0  0  0  0  0  0  0  0  0  0  0  0
   25.9559  -19.8546  -14.6710 C   0  0  0  0  0  0  0  0  0  0  0  0
   25.7549  -18.6184  -15.0528 O   0  0  0  0  0  0  0  0  0  0  0  0
   26.0593  -19.2923  -11.6813 C   0  0  0  0  0  0  0  0  0  0  0  0
   25.2715  -19.7390  -10.6201 C   0  0  0  0  0  0  0  0  0  0  0  0
   24.8533  -20.6868  -14.4520 N   0  0  0  0  0  0  0  0  0  0  0  0
   24.9711  -22.0134  -13.8769 C   0  0  0  0  0  0  0  0  0  0  0  0
   23.7723  -22.7607  -14.3936 C   0  0  0  0  0  0  0  0  0  0  0  0
   23.0461  -21.8080  -15.3131 C   0  0  0  0  0  0  0  0  0  0  0  0
   23.4757  -20.4629  -14.6872 C   0  0  1  0  0  0  0  0  0  0  0  0
   22.6859  -20.3685  -13.4175 C   0  0  0  0  0  0  0  0  0  0  0  0
   23.0970  -20.8709  -12.3366 O   0  0  0  0  0  0  0  0  0  0  0  0
   21.4628  -19.7167  -13.3934 O   0  0  0  0  0  0  0  0  0  0  0  0
  2  1  1  6
  3  2  1  0
  4  3  1  0
  4  5  1  0
  5  9  1  0
  5  6  2  0
  7  2  1  0
  7  8  2  0
 10 11  1  0
 11 12  2  0
 12 13  1  0
 14 15  1  0
 14 13  2  0
 16 17  1  0
 16 15  1  1
 17  7  1  0
 18 16  1  0
 19 18  2  0
 20 14  1  0
 21 11  1  0
 21 20  2  0
 22 18  1  0
 22 26  1  0
 23 22  1  0
 24 23  1  0
 24 25  1  0
 25 26  1  0
 26 27  1  1
 27 29  1  0
 28 27  2  0
M  END
$$$$
