EYP.pdb
     RDKit          3D

 29 30  0  0  1  0  0  0  0  0999 V2000
    7.0459   -8.6742   -5.7500 N   0  0  0  0  0  0  0  0  0  0  0  0
    8.4049   -8.4537   -5.2209 C   0  0  1  0  0  0  0  0  0  0  0  0
    8.9220   -7.2493   -5.9748 C   0  0  0  0  0  0  0  0  0  0  0  0
    9.4006   -7.5380   -7.3525 C   0  0  0  0  0  0  0  0  0  0  0  0
    8.4964   -7.0231   -8.4046 C   0  0  0  0  0  0  0  0  0  0  0  0
    7.4015   -6.4430   -8.1945 O   0  0  0  0  0  0  0  0  0  0  0  0
    8.2955   -8.1980   -3.7722 C   0  0  0  0  0  0  0  0  0  0  0  0
    7.5221   -7.3270   -3.3008 O   0  0  0  0  0  0  0  0  0  0  0  0
    8.8255   -7.1592   -9.7694 O   0  0  0  0  0  0  0  0  0  0  0  0
    6.0319  -13.8091   -3.6023 O   0  0  0  0  0  0  0  0  0  0  0  0
    6.4079  -12.6419   -2.9614 C   0  0  0  0  0  0  0  0  0  0  0  0
    5.8790  -11.4150   -3.2885 C   0  0  0  0  0  0  0  0  0  0  0  0
    6.2630  -10.2622   -2.6419 C   0  0  0  0  0  0  0  0  0  0  0  0
    7.2057  -10.3447   -1.6377 C   0  0  0  0  0  0  0  0  0  0  0  0
    7.6657   -9.1392   -0.8999 C   0  0  0  0  0  0  0  0  0  0  0  0
    9.0184   -8.7019   -1.4439 C   0  0  2  0  0  0  0  0  0  0  0  0
    9.0787   -8.9460   -2.8510 N   0  0  0  0  0  0  0  0  0  0  0  0
   10.1074   -9.2647   -0.6272 C   0  0  0  0  0  0  0  0  0  0  0  0
   10.6799  -10.2801   -1.2237 O   0  0  0  0  0  0  0  0  0  0  0  0
    7.7553  -11.5572   -1.2852 C   0  0  0  0  0  0  0  0  0  0  0  0
    7.3382  -12.7012   -1.9660 C   0  0  0  0  0  0  0  0  0  0  0  0
   10.5709   -8.8648    0.6304 N   0  0  0  0  0  0  0  0  0  0  0  0
    9.9989   -7.7501    1.3615 C   0  0  0  0  0  0  0  0  0  0  0  0
   11.1096   -7.2700    2.2550 C   0  0  0  0  0  0  0  0  0  0  0  0
   12.3110   -8.1253    1.9303 C   0  0  0  0  0  0  0  0  0  0  0  0
   11.5963   -9.4048    1.4429 C   0  0  1  0  0  0  0  0  0  0  0  0
   11.0635  -10.0382    2.6919 C   0  0  0  0  0  0  0  0  0  0  0  0
   11.8164  -10.6215    3.5180 O   0  0  0  0  0  0  0  0  0  0  0  0
    9.7082  -10.0009    2.9798 O   0  0  0  0  0  0  0  0  0  0  0  0
  2  1  1  6
  3  2  1  0
  4  3  1  0
  4  5  1  0
  5  9  1  0
  5  6  2  0
  7  2  1  0
  7  8  2  0
 10 11  1  0
 11 12  2  0
 12 13  1  0
 14 15  1  0
 14 13  2  0
 16 17  1  0
 16 15  1  1
 17  7  1  0
 18 16  1  0
 19 18  2  0
 20 14  1  0
 21 11  1  0
 21 20  2  0
 22 18  1  0
 22 26  1  0
 23 22  1  0
 24 23  1  0
 24 25  1  0
 25 26  1  0
 26 27  1  1
 27 29  1  0
 28 27  2  0
M  END
$$$$
