EYP.pdb
     RDKit          3D

 29 30  0  0  1  0  0  0  0  0999 V2000
   21.5725  -10.5703  -18.7991 N   0  0  0  0  0  0  0  0  0  0  0  0
   22.3163   -9.3509  -18.4310 C   0  0  1  0  0  0  0  0  0  0  0  0
   22.8366   -8.8056  -19.7419 C   0  0  0  0  0  0  0  0  0  0  0  0
   23.9594   -9.5796  -20.3341 C   0  0  0  0  0  0  0  0  0  0  0  0
   24.4663   -8.9993  -21.5973 C   0  0  0  0  0  0  0  0  0  0  0  0
   25.3276   -8.0876  -21.6780 O   0  0  0  0  0  0  0  0  0  0  0  0
   21.3758   -8.4218  -17.7765 C   0  0  0  0  0  0  0  0  0  0  0  0
   20.2212   -8.2093  -18.2244 O   0  0  0  0  0  0  0  0  0  0  0  0
   23.9907   -9.4566  -22.8440 O   0  0  0  0  0  0  0  0  0  0  0  0
   16.7668  -11.6011  -14.8635 O   0  0  0  0  0  0  0  0  0  0  0  0
   17.7346  -10.6163  -14.7732 C   0  0  0  0  0  0  0  0  0  0  0  0
   19.0793  -10.9025  -14.7286 C   0  0  0  0  0  0  0  0  0  0  0  0
   20.0306   -9.9119  -14.6386 C   0  0  0  0  0  0  0  0  0  0  0  0
   19.6189   -8.5958  -14.5921 C   0  0  0  0  0  0  0  0  0  0  0  0
   20.5932   -7.4776  -14.4939 C   0  0  0  0  0  0  0  0  0  0  0  0
   20.8382   -6.9003  -15.8809 C   0  0  2  0  0  0  0  0  0  0  0  0
   21.7586   -7.7275  -16.5963 N   0  0  0  0  0  0  0  0  0  0  0  0
   21.1680   -5.4676  -15.7907 C   0  0  0  0  0  0  0  0  0  0  0  0
   22.4236   -5.2828  -15.4685 O   0  0  0  0  0  0  0  0  0  0  0  0
   18.2805   -8.2744  -14.6348 C   0  0  0  0  0  0  0  0  0  0  0  0
   17.3491   -9.3090  -14.7260 C   0  0  0  0  0  0  0  0  0  0  0  0
   20.3476   -4.3537  -15.9969 N   0  0  0  0  0  0  0  0  0  0  0  0
   18.9222   -4.4616  -16.2437 C   0  0  0  0  0  0  0  0  0  0  0  0
   18.5734   -3.2178  -17.0143 C   0  0  0  0  0  0  0  0  0  0  0  0
   19.8711   -2.4746  -17.2244 C   0  0  0  0  0  0  0  0  0  0  0  0
   20.6595   -2.9732  -15.9933 C   0  0  1  0  0  0  0  0  0  0  0  0
   20.0448   -2.2502  -14.8338 C   0  0  0  0  0  0  0  0  0  0  0  0
   19.2587   -2.8224  -14.0311 O   0  0  0  0  0  0  0  0  0  0  0  0
   20.3264   -0.9123  -14.6062 O   0  0  0  0  0  0  0  0  0  0  0  0
  2  1  1  6
  3  2  1  0
  4  3  1  0
  4  5  1  0
  5  9  1  0
  5  6  2  0
  7  2  1  0
  7  8  2  0
 10 11  1  0
 11 12  2  0
 12 13  1  0
 14 15  1  0
 14 13  2  0
 16 17  1  0
 16 15  1  1
 17  7  1  0
 18 16  1  0
 19 18  2  0
 20 14  1  0
 21 11  1  0
 21 20  2  0
 22 18  1  0
 22 26  1  0
 23 22  1  0
 24 23  1  0
 24 25  1  0
 25 26  1  0
 26 27  1  1
 27 29  1  0
 28 27  2  0
M  END
$$$$
