RRF.pdb
     RDKit          3D

 34 34  0  0  1  0  0  0  0  0999 V2000
    7.6848  -12.4296   16.4695 N   0  0  0  0  0  0  0  0  0  0  0  0
    8.3564  -13.3549   17.3272 C   0  0  0  0  0  0  0  0  0  0  0  0
    9.2481  -12.8745   18.1142 N   0  0  0  0  0  0  0  0  0  0  0  0
    8.0138  -14.7227   17.2667 N   0  0  0  0  0  0  0  0  0  0  0  0
    6.8781  -15.2019   18.0728 C   0  0  0  0  0  0  0  0  0  0  0  0
    7.0366  -14.6485   19.4438 C   0  0  0  0  0  0  0  0  0  0  0  0
    6.5161  -15.5548   20.5006 C   0  0  0  0  0  0  0  0  0  0  0  0
    7.3018  -16.8054   20.7370 C   0  0  2  0  0  0  0  0  0  0  0  0
    7.0690  -17.8625   19.8125 N   0  0  0  0  0  0  0  0  0  0  0  0
    7.0303  -17.2476   22.1384 C   0  0  0  0  0  0  0  0  0  0  0  0
    5.9808  -17.8801   22.3698 O   0  0  0  0  0  0  0  0  0  0  0  0
    9.8468  -13.4504   18.7196 N   0  0  0  0  0  0  0  0  0  0  0  0
   10.3908  -21.6178   22.5443 C   0  0  0  0  0  0  0  0  0  0  0  0
   10.7770  -21.9418   23.8752 N   0  0  0  0  0  0  0  0  0  0  0  0
   11.9656  -22.3649   24.1488 N   0  0  0  0  0  0  0  0  0  0  0  0
    9.8887  -21.8192   24.9778 C   0  0  0  0  0  0  0  0  0  0  0  0
    8.6382  -21.1386   24.8479 C   0  0  0  0  0  0  0  0  0  0  0  0
    8.7988  -19.6333   24.7979 C   0  0  0  0  0  0  0  0  0  0  0  0
    7.4834  -18.9314   24.6193 C   0  0  1  0  0  0  0  0  0  0  0  0
    7.6818  -17.4582   24.5212 N   0  0  0  0  0  0  0  0  0  0  0  0
    7.9254  -16.9675   23.1921 C   0  0  0  0  0  0  0  0  0  0  0  0
    8.7708  -17.0038   25.4645 O   0  0  0  0  0  0  0  0  0  0  0  0
    9.9702  -17.3521   25.3157 N   0  0  0  0  0  0  0  0  0  0  0  0
   12.1805  -22.5686   25.1502 C   0  0  1  0  0  0  0  0  0  0  0  0
    8.4750  -16.1564   26.5668 C   0  0  0  0  0  0  0  0  0  0  0  0
    9.5168  -15.5824   27.3864 C   0  0  0  0  0  0  0  0  0  0  0  0
    9.1104  -14.2466   27.9609 C   0  0  0  0  0  0  0  0  0  0  0  0
    8.4633  -13.3809   26.9491 C   0  0  0  0  0  0  0  0  0  0  0  0
    9.2541  -12.8015   25.9786 C   0  0  0  0  0  0  0  0  0  0  0  0
    8.7365  -11.9849   24.9934 C   0  0  0  0  0  0  0  0  0  0  0  0
    7.3552  -11.7687   25.0241 C   0  0  0  0  0  0  0  0  0  0  0  0
    6.5663  -12.3480   25.9944 C   0  0  0  0  0  0  0  0  0  0  0  0
    7.1061  -13.1641   26.9736 O   0  0  0  0  0  0  0  0  0  0  0  0
    9.9279  -16.5419   28.4434 O   0  0  0  0  0  0  0  0  0  0  0  0
  2  1  1  0
  2  3  2  0
  4  2  1  0
  5  4  1  0
  6  5  1  0
  7  8  1  0
  7  6  1  0
  8  9  1  6
 10 20  1  0
 10  8  1  0
 11 10  2  0
 13 12  1  0
 14 13  2  0
 15 13  1  0
 16 15  1  0
 17 18  1  0
 17 16  1  0
 19 18  1  6
 19 21  1  0
 19 20  1  0
 21 22  2  0
 23 24  1  0
 23 21  1  0
 24 25  1  1
 25 26  1  0
 26 31  2  0
 27 26  1  0
 27 28  2  0
 28 29  1  0
 29 30  2  0
 31 30  1  0
 32 24  1  0
 33 32  1  0
 34 32  2  0
M  END
$$$$
