RRF.pdb
     RDKit          3D

 34 34  0  0  1  0  0  0  0  0999 V2000
    8.9308  -14.2306   14.8594 N   0  0  0  0  0  0  0  0  0  0  0  0
    8.2003  -13.9565   16.0569 C   0  0  0  0  0  0  0  0  0  0  0  0
    8.5463  -12.9159   16.7224 N   0  0  0  0  0  0  0  0  0  0  0  0
    7.1571  -14.8260   16.4410 N   0  0  0  0  0  0  0  0  0  0  0  0
    7.5033  -16.0889   17.1151 C   0  0  0  0  0  0  0  0  0  0  0  0
    7.0343  -15.9887   18.5226 C   0  0  0  0  0  0  0  0  0  0  0  0
    8.0860  -16.3399   19.5124 C   0  0  0  0  0  0  0  0  0  0  0  0
    7.8127  -17.5409   20.3610 C   0  0  2  0  0  0  0  0  0  0  0  0
    6.7494  -18.3778   19.9190 N   0  0  0  0  0  0  0  0  0  0  0  0
    7.5739  -17.0599   21.7556 C   0  0  0  0  0  0  0  0  0  0  0  0
    7.5548  -15.8309   21.9658 O   0  0  0  0  0  0  0  0  0  0  0  0
    8.1031  -12.6271   17.6037 N   0  0  0  0  0  0  0  0  0  0  0  0
    5.9529  -24.3533   25.0033 C   0  0  0  0  0  0  0  0  0  0  0  0
    6.4743  -23.3155   24.1808 N   0  0  0  0  0  0  0  0  0  0  0  0
    6.5106  -23.4273   22.8952 N   0  0  0  0  0  0  0  0  0  0  0  0
    6.9810  -22.1005   24.7163 C   0  0  0  0  0  0  0  0  0  0  0  0
    6.2926  -20.8626   24.5220 C   0  0  0  0  0  0  0  0  0  0  0  0
    6.9872  -19.6994   25.1992 C   0  0  0  0  0  0  0  0  0  0  0  0
    6.2592  -18.4041   24.9823 C   0  0  1  0  0  0  0  0  0  0  0  0
    7.0727  -17.4763   24.1476 N   0  0  0  0  0  0  0  0  0  0  0  0
    7.3725  -17.9562   22.8261 C   0  0  0  0  0  0  0  0  0  0  0  0
    8.3390  -17.0815   24.8707 O   0  0  0  0  0  0  0  0  0  0  0  0
    9.4457  -17.6257   24.6232 N   0  0  0  0  0  0  0  0  0  0  0  0
    6.7805  -22.5785   22.3500 C   0  0  1  0  0  0  0  0  0  0  0  0
    8.3245  -16.0690   25.8684 C   0  0  0  0  0  0  0  0  0  0  0  0
    9.5405  -15.5878   26.4819 C   0  0  0  0  0  0  0  0  0  0  0  0
    9.7321  -14.1057   26.2667 C   0  0  0  0  0  0  0  0  0  0  0  0
    8.4929  -13.3411   26.5342 C   0  0  0  0  0  0  0  0  0  0  0  0
    7.5652  -13.2189   25.5206 C   0  0  0  0  0  0  0  0  0  0  0  0
    6.3805  -12.5291   25.6818 C   0  0  0  0  0  0  0  0  0  0  0  0
    6.1603  -11.9518   26.9364 C   0  0  0  0  0  0  0  0  0  0  0  0
    7.0880  -12.0744   27.9481 C   0  0  0  0  0  0  0  0  0  0  0  0
    8.2702  -12.7709   27.7651 O   0  0  0  0  0  0  0  0  0  0  0  0
    9.5689  -15.9501   27.9222 O   0  0  0  0  0  0  0  0  0  0  0  0
  2  1  1  0
  2  3  2  0
  4  2  1  0
  5  4  1  0
  6  5  1  0
  7  8  1  0
  7  6  1  0
  8  9  1  6
 10 20  1  0
 10  8  1  0
 11 10  2  0
 13 12  1  0
 14 13  2  0
 15 13  1  0
 16 15  1  0
 17 18  1  0
 17 16  1  0
 19 18  1  6
 19 21  1  0
 19 20  1  0
 21 22  2  0
 23 24  1  0
 23 21  1  0
 24 25  1  1
 25 26  1  0
 26 31  2  0
 27 26  1  0
 27 28  2  0
 28 29  1  0
 29 30  2  0
 31 30  1  0
 32 24  1  0
 33 32  1  0
 34 32  2  0
M  END
$$$$
