RRF.pdb
     RDKit          3D

 34 34  0  0  1  0  0  0  0  0999 V2000
    9.0038  -13.5364   15.0603 N   0  0  0  0  0  0  0  0  0  0  0  0
    8.7566  -13.0694   16.3883 C   0  0  0  0  0  0  0  0  0  0  0  0
    7.5680  -12.6637   16.6490 N   0  0  0  0  0  0  0  0  0  0  0  0
    9.8101  -13.0763   17.3275 N   0  0  0  0  0  0  0  0  0  0  0  0
    9.5940  -13.7380   18.6255 C   0  0  0  0  0  0  0  0  0  0  0  0
    8.4301  -13.0797   19.2756 C   0  0  0  0  0  0  0  0  0  0  0  0
    7.3613  -14.0376   19.6621 C   0  0  0  0  0  0  0  0  0  0  0  0
    7.7697  -15.4735   19.7538 C   0  0  2  0  0  0  0  0  0  0  0  0
    7.1997  -16.3391   18.7780 N   0  0  0  0  0  0  0  0  0  0  0  0
    7.4547  -15.9420   21.1375 C   0  0  0  0  0  0  0  0  0  0  0  0
    6.2728  -15.8824   21.5310 O   0  0  0  0  0  0  0  0  0  0  0  0
    7.2896  -12.2479   17.5469 N   0  0  0  0  0  0  0  0  0  0  0  0
    9.1825  -23.3944   21.0770 C   0  0  0  0  0  0  0  0  0  0  0  0
    9.3681  -22.6554   22.2790 N   0  0  0  0  0  0  0  0  0  0  0  0
    8.9913  -23.1214   23.4225 N   0  0  0  0  0  0  0  0  0  0  0  0
    9.9762  -21.3711   22.2979 C   0  0  0  0  0  0  0  0  0  0  0  0
    9.2912  -20.2209   21.7960 C   0  0  0  0  0  0  0  0  0  0  0  0
    9.4890  -18.9999   22.6701 C   0  0  0  0  0  0  0  0  0  0  0  0
    8.2018  -18.5328   23.2861 C   0  0  1  0  0  0  0  0  0  0  0  0
    8.1133  -17.0459   23.2574 N   0  0  0  0  0  0  0  0  0  0  0  0
    8.4541  -16.4437   21.9973 C   0  0  0  0  0  0  0  0  0  0  0  0
    8.9316  -16.4423   24.3746 O   0  0  0  0  0  0  0  0  0  0  0  0
   10.1206  -16.0691   24.2039 N   0  0  0  0  0  0  0  0  0  0  0  0
    9.1214  -22.5046   24.2551 C   0  0  2  0  0  0  0  0  0  0  0  0
    8.3804  -16.2730   25.6739 C   0  0  0  0  0  0  0  0  0  0  0  0
    9.1892  -15.8544   26.7951 C   0  0  0  0  0  0  0  0  0  0  0  0
    8.3861  -15.0779   27.8108 C   0  0  0  0  0  0  0  0  0  0  0  0
    7.9039  -13.7875   27.2682 C   0  0  0  0  0  0  0  0  0  0  0  0
    6.6522  -13.7453   26.6899 C   0  0  0  0  0  0  0  0  0  0  0  0
    6.1199  -12.5859   26.1630 C   0  0  0  0  0  0  0  0  0  0  0  0
    6.9178  -11.4402   26.2433 C   0  0  0  0  0  0  0  0  0  0  0  0
    8.1682  -11.4837   26.8212 C   0  0  0  0  0  0  0  0  0  0  0  0
    8.6832  -12.6576   27.3438 O   0  0  0  0  0  0  0  0  0  0  0  0
    9.8731  -17.0251   27.4022 O   0  0  0  0  0  0  0  0  0  0  0  0
  2  1  1  0
  2  3  2  0
  4  2  1  0
  5  4  1  0
  6  5  1  0
  7  8  1  0
  7  6  1  0
  8  9  1  6
 10 20  1  0
 10  8  1  0
 11 10  2  0
 13 12  1  0
 14 13  2  0
 15 13  1  0
 16 15  1  0
 17 18  1  0
 17 16  1  0
 19 18  1  6
 19 21  1  0
 19 20  1  0
 21 22  2  0
 23 24  1  0
 23 21  1  0
 24 25  1  1
 25 26  1  0
 26 31  2  0
 27 26  1  0
 27 28  2  0
 28 29  1  0
 29 30  2  0
 31 30  1  0
 32 24  1  0
 33 32  1  0
 34 32  2  0
M  END
$$$$
