RRF.pdb
     RDKit          3D

 34 34  0  0  1  0  0  0  0  0999 V2000
    9.5521  -12.9941   20.8327 N   0  0  0  0  0  0  0  0  0  0  0  0
    8.4999  -12.5636   19.9664 C   0  0  0  0  0  0  0  0  0  0  0  0
    8.4234  -11.3058   19.7268 N   0  0  0  0  0  0  0  0  0  0  0  0
    7.6147  -13.5228   19.4294 N   0  0  0  0  0  0  0  0  0  0  0  0
    7.7937  -14.9359   19.8040 C   0  0  0  0  0  0  0  0  0  0  0  0
    7.0787  -15.1527   21.0896 C   0  0  0  0  0  0  0  0  0  0  0  0
    6.0487  -16.2212   21.0092 C   0  0  0  0  0  0  0  0  0  0  0  0
    6.5582  -17.6270   21.0478 C   0  0  2  0  0  0  0  0  0  0  0  0
    5.6045  -18.6361   20.7340 N   0  0  0  0  0  0  0  0  0  0  0  0
    7.1531  -17.8516   22.4002 C   0  0  0  0  0  0  0  0  0  0  0  0
    6.4352  -18.3484   23.2907 O   0  0  0  0  0  0  0  0  0  0  0  0
    7.7061  -10.8805   19.1259 N   0  0  0  0  0  0  0  0  0  0  0  0
   12.4670  -23.5204   22.8815 C   0  0  0  0  0  0  0  0  0  0  0  0
   12.8193  -22.4321   22.0349 N   0  0  0  0  0  0  0  0  0  0  0  0
   13.7066  -22.5596   21.1059 N   0  0  0  0  0  0  0  0  0  0  0  0
   12.2211  -21.1485   22.1548 C   0  0  0  0  0  0  0  0  0  0  0  0
   11.2259  -20.8861   23.1472 C   0  0  0  0  0  0  0  0  0  0  0  0
   10.6934  -19.4700   23.0752 C   0  0  0  0  0  0  0  0  0  0  0  0
    9.6035  -19.2257   24.0788 C   0  0  1  0  0  0  0  0  0  0  0  0
    9.0801  -17.8360   23.9599 N   0  0  0  0  0  0  0  0  0  0  0  0
    8.4931  -17.5171   22.6870 C   0  0  0  0  0  0  0  0  0  0  0  0
   10.1499  -16.8318   24.3194 O   0  0  0  0  0  0  0  0  0  0  0  0
   11.3734  -17.0735   24.1562 N   0  0  0  0  0  0  0  0  0  0  0  0
   13.9127  -21.7172   20.5243 C   0  0  1  0  0  0  0  0  0  0  0  0
    9.8076  -15.5631   24.8616 C   0  0  0  0  0  0  0  0  0  0  0  0
    9.6478  -15.3609   26.2829 C   0  0  0  0  0  0  0  0  0  0  0  0
    8.2022  -15.1480   26.6630 C   0  0  0  0  0  0  0  0  0  0  0  0
    7.7049  -13.8213   26.2334 C   0  0  0  0  0  0  0  0  0  0  0  0
    7.9240  -13.4290   24.9292 C   0  0  0  0  0  0  0  0  0  0  0  0
    7.4917  -12.2126   24.4405 C   0  0  0  0  0  0  0  0  0  0  0  0
    6.8122  -11.3847   25.3398 C   0  0  0  0  0  0  0  0  0  0  0  0
    6.5941  -11.7779   26.6425 C   0  0  0  0  0  0  0  0  0  0  0  0
    7.0363  -13.0026   27.1123 O   0  0  0  0  0  0  0  0  0  0  0  0
   10.2623  -16.4849   27.0352 O   0  0  0  0  0  0  0  0  0  0  0  0
  2  1  1  0
  2  3  2  0
  4  2  1  0
  5  4  1  0
  6  5  1  0
  7  8  1  0
  7  6  1  0
  8  9  1  1
 10 20  1  0
 10  8  1  0
 11 10  2  0
 13 12  1  0
 14 13  2  0
 15 13  1  0
 16 15  1  0
 17 18  1  0
 17 16  1  0
 19 18  1  1
 19 21  1  0
 19 20  1  0
 21 22  2  0
 23 24  1  0
 23 21  1  0
 24 25  1  1
 25 26  1  0
 26 31  2  0
 27 26  1  0
 27 28  2  0
 28 29  1  0
 29 30  2  0
 31 30  1  0
 32 24  1  0
 33 32  1  0
 34 32  2  0
M  END
$$$$
