RRF.pdb
     RDKit          3D

 34 34  0  0  1  0  0  0  0  0999 V2000
    8.7587  -14.8250   17.8778 N   0  0  0  0  0  0  0  0  0  0  0  0
    7.8660  -14.5379   16.7991 C   0  0  0  0  0  0  0  0  0  0  0  0
    7.7405  -13.3068   16.4617 N   0  0  0  0  0  0  0  0  0  0  0  0
    7.1802  -15.6002   16.1721 N   0  0  0  0  0  0  0  0  0  0  0  0
    7.2619  -16.9436   16.7704 C   0  0  0  0  0  0  0  0  0  0  0  0
    6.2520  -17.0110   17.8597 C   0  0  0  0  0  0  0  0  0  0  0  0
    6.6297  -17.9533   18.9454 C   0  0  0  0  0  0  0  0  0  0  0  0
    6.4259  -17.4593   20.3425 C   0  0  2  0  0  0  0  0  0  0  0  0
    5.6303  -16.2860   20.4705 N   0  0  0  0  0  0  0  0  0  0  0  0
    7.7769  -17.2617   20.9499 C   0  0  0  0  0  0  0  0  0  0  0  0
    8.6128  -18.1821   20.8536 O   0  0  0  0  0  0  0  0  0  0  0  0
    7.1336  -12.9820   15.6982 N   0  0  0  0  0  0  0  0  0  0  0  0
   15.5724  -13.4502   20.3523 C   0  0  0  0  0  0  0  0  0  0  0  0
   14.9726  -14.7265   20.5435 N   0  0  0  0  0  0  0  0  0  0  0  0
   15.6390  -15.7192   21.0303 N   0  0  0  0  0  0  0  0  0  0  0  0
   13.6142  -14.9869   20.2166 C   0  0  0  0  0  0  0  0  0  0  0  0
   12.5648  -14.1359   20.6839 C   0  0  0  0  0  0  0  0  0  0  0  0
   11.6751  -14.8171   21.7029 C   0  0  0  0  0  0  0  0  0  0  0  0
   10.2403  -14.8569   21.2618 C   0  0  2  0  0  0  0  0  0  0  0  0
    9.4668  -15.8376   22.0737 N   0  0  0  0  0  0  0  0  0  0  0  0
    8.1220  -16.0704   21.6219 C   0  0  0  0  0  0  0  0  0  0  0  0
    9.4780  -15.4470   23.5330 O   0  0  0  0  0  0  0  0  0  0  0  0
    9.1779  -14.2868   23.9151 N   0  0  0  0  0  0  0  0  0  0  0  0
   15.1300  -16.6234   21.1482 C   0  0  2  0  0  0  0  0  0  0  0  0
    9.8325  -16.3879   24.5378 C   0  0  0  0  0  0  0  0  0  0  0  0
    9.5610  -16.1468   25.9359 C   0  0  0  0  0  0  0  0  0  0  0  0
    8.0891  -15.9328   26.1955 C   0  0  0  0  0  0  0  0  0  0  0  0
    7.7357  -14.4956   26.2360 C   0  0  0  0  0  0  0  0  0  0  0  0
    8.6787  -13.6006   26.6971 C   0  0  0  0  0  0  0  0  0  0  0  0
    8.4385  -12.2430   26.7650 C   0  0  0  0  0  0  0  0  0  0  0  0
    7.1786  -11.8102   26.3394 C   0  0  0  0  0  0  0  0  0  0  0  0
    6.2374  -12.7055   25.8791 C   0  0  0  0  0  0  0  0  0  0  0  0
    6.4991  -14.0635   25.8192 O   0  0  0  0  0  0  0  0  0  0  0  0
   10.1195  -17.2450   26.7658 O   0  0  0  0  0  0  0  0  0  0  0  0
  2  1  1  0
  2  3  2  0
  4  2  1  0
  5  4  1  0
  6  5  1  0
  7  8  1  0
  7  6  1  0
  8  9  1  6
 10 20  1  0
 10  8  1  0
 11 10  2  0
 13 12  1  0
 14 13  2  0
 15 13  1  0
 16 15  1  0
 17 18  1  0
 17 16  1  0
 19 18  1  6
 19 21  1  0
 19 20  1  0
 21 22  2  0
 23 24  1  0
 23 21  1  0
 24 25  1  6
 25 26  1  0
 26 31  2  0
 27 26  1  0
 27 28  2  0
 28 29  1  0
 29 30  2  0
 31 30  1  0
 32 24  1  0
 33 32  1  0
 34 32  2  0
M  END
$$$$
