RRF.pdb
     RDKit          3D

 34 34  0  0  1  0  0  0  0  0999 V2000
    1.0081  -21.0675   23.5324 N   0  0  0  0  0  0  0  0  0  0  0  0
    1.4746  -21.4448   22.2352 C   0  0  0  0  0  0  0  0  0  0  0  0
    0.6314  -22.0232   21.4607 N   0  0  0  0  0  0  0  0  0  0  0  0
    2.8120  -21.1695   21.8778 N   0  0  0  0  0  0  0  0  0  0  0  0
    3.7022  -20.5685   22.8855 C   0  0  0  0  0  0  0  0  0  0  0  0
    3.3670  -19.1226   22.9742 C   0  0  0  0  0  0  0  0  0  0  0  0
    4.5627  -18.2428   22.9000 C   0  0  0  0  0  0  0  0  0  0  0  0
    5.2269  -18.1507   21.5630 C   0  0  2  0  0  0  0  0  0  0  0  0
    5.4366  -19.3892   20.8933 N   0  0  0  0  0  0  0  0  0  0  0  0
    6.5150  -17.4168   21.7516 C   0  0  0  0  0  0  0  0  0  0  0  0
    7.4902  -18.0375   22.2194 O   0  0  0  0  0  0  0  0  0  0  0  0
    0.8523  -22.3369   20.5071 N   0  0  0  0  0  0  0  0  0  0  0  0
   10.2707  -12.7521   19.0054 C   0  0  0  0  0  0  0  0  0  0  0  0
    9.5756  -12.9302   17.7764 N   0  0  0  0  0  0  0  0  0  0  0  0
   10.2063  -13.1120   16.6647 N   0  0  0  0  0  0  0  0  0  0  0  0
    8.1568  -12.9220   17.6951 C   0  0  0  0  0  0  0  0  0  0  0  0
    7.3497  -12.7791   18.8664 C   0  0  0  0  0  0  0  0  0  0  0  0
    7.2149  -14.0742   19.6402 C   0  0  0  0  0  0  0  0  0  0  0  0
    8.0057  -14.0536   20.9164 C   0  0  2  0  0  0  0  0  0  0  0  0
    7.8876  -15.3559   21.6302 N   0  0  0  0  0  0  0  0  0  0  0  0
    6.6489  -16.0533   21.4159 C   0  0  0  0  0  0  0  0  0  0  0  0
    8.1503  -15.1790   23.1073 O   0  0  0  0  0  0  0  0  0  0  0  0
    7.4371  -14.4336   23.8269 N   0  0  0  0  0  0  0  0  0  0  0  0
    9.6293  -13.2165   15.8006 C   0  0  2  0  0  0  0  0  0  0  0  0
    9.2256  -15.8566   23.7438 C   0  0  0  0  0  0  0  0  0  0  0  0
    9.6176  -15.5560   25.1011 C   0  0  0  0  0  0  0  0  0  0  0  0
    8.4973  -15.8102   26.0809 C   0  0  0  0  0  0  0  0  0  0  0  0
    8.8782  -15.4498   27.4654 C   0  0  0  0  0  0  0  0  0  0  0  0
    9.4529  -16.4189   28.2615 C   0  0  0  0  0  0  0  0  0  0  0  0
    9.8437  -16.1712   29.5619 C   0  0  0  0  0  0  0  0  0  0  0  0
    9.6277  -14.8758   30.0425 C   0  0  0  0  0  0  0  0  0  0  0  0
    9.0532  -13.9087   29.2462 C   0  0  0  0  0  0  0  0  0  0  0  0
    8.6685  -14.1784   27.9441 O   0  0  0  0  0  0  0  0  0  0  0  0
   10.8508  -16.3031   25.4585 O   0  0  0  0  0  0  0  0  0  0  0  0
  2  1  1  0
  2  3  2  0
  4  2  1  0
  5  4  1  0
  6  5  1  0
  7  8  1  0
  7  6  1  0
  8  9  1  1
 10 20  1  0
 10  8  1  0
 11 10  2  0
 13 12  1  0
 14 13  2  0
 15 13  1  0
 16 15  1  0
 17 18  1  0
 17 16  1  0
 19 18  1  6
 19 21  1  0
 19 20  1  0
 21 22  2  0
 23 24  1  0
 23 21  1  0
 24 25  1  1
 25 26  1  0
 26 31  2  0
 27 26  1  0
 27 28  2  0
 28 29  1  0
 29 30  2  0
 31 30  1  0
 32 24  1  0
 33 32  1  0
 34 32  2  0
M  END
$$$$
