RRF.pdb
     RDKit          3D

 34 34  0  0  1  0  0  0  0  0999 V2000
    9.7178  -15.0235   17.6274 N   0  0  0  0  0  0  0  0  0  0  0  0
    8.9330  -14.1583   16.8038 C   0  0  0  0  0  0  0  0  0  0  0  0
    8.8623  -14.4507   15.5569 N   0  0  0  0  0  0  0  0  0  0  0  0
    8.2891  -13.0475   17.3900 N   0  0  0  0  0  0  0  0  0  0  0  0
    8.5213  -12.7697   18.8176 C   0  0  0  0  0  0  0  0  0  0  0  0
    7.3985  -13.3766   19.5806 C   0  0  0  0  0  0  0  0  0  0  0  0
    7.8490  -14.1170   20.7880 C   0  0  0  0  0  0  0  0  0  0  0  0
    7.6361  -15.5974   20.7666 C   0  0  2  0  0  0  0  0  0  0  0  0
    6.4955  -16.0447   20.0419 N   0  0  0  0  0  0  0  0  0  0  0  0
    7.5886  -16.0644   22.1854 C   0  0  0  0  0  0  0  0  0  0  0  0
    6.4764  -16.1727   22.7389 O   0  0  0  0  0  0  0  0  0  0  0  0
    8.4699  -13.8232   14.8436 N   0  0  0  0  0  0  0  0  0  0  0  0
   12.9091  -22.2950   23.7837 C   0  0  0  0  0  0  0  0  0  0  0  0
   13.3418  -21.0530   23.2400 N   0  0  0  0  0  0  0  0  0  0  0  0
   14.3890  -20.9733   22.4892 N   0  0  0  0  0  0  0  0  0  0  0  0
   12.6544  -19.8333   23.4842 C   0  0  0  0  0  0  0  0  0  0  0  0
   11.2518  -19.8174   23.7607 C   0  0  0  0  0  0  0  0  0  0  0  0
   10.7040  -18.4125   23.9034 C   0  0  0  0  0  0  0  0  0  0  0  0
    9.2374  -18.4090   24.2254 C   0  0  1  0  0  0  0  0  0  0  0  0
    8.6932  -17.0227   24.1873 N   0  0  0  0  0  0  0  0  0  0  0  0
    8.7612  -16.3810   22.9027 C   0  0  0  0  0  0  0  0  0  0  0  0
    9.3461  -16.1654   25.2460 O   0  0  0  0  0  0  0  0  0  0  0  0
   10.4091  -15.5296   25.0272 N   0  0  0  0  0  0  0  0  0  0  0  0
   14.6688  -20.0225   22.1603 C   0  0  1  0  0  0  0  0  0  0  0  0
    8.7755  -16.0455   26.5424 C   0  0  0  0  0  0  0  0  0  0  0  0
    9.4513  -15.3446   27.6094 C   0  0  0  0  0  0  0  0  0  0  0  0
    8.6145  -14.2152   28.1608 C   0  0  0  0  0  0  0  0  0  0  0  0
    8.2673  -13.2220   27.1192 C   0  0  0  0  0  0  0  0  0  0  0  0
    6.9346  -12.9470   26.8926 C   0  0  0  0  0  0  0  0  0  0  0  0
    6.5190  -12.0326   25.9458 C   0  0  0  0  0  0  0  0  0  0  0  0
    7.5238  -11.3886   25.2169 C   0  0  0  0  0  0  0  0  0  0  0  0
    8.8548  -11.6644   25.4442 C   0  0  0  0  0  0  0  0  0  0  0  0
    9.2501  -12.5854   26.3990 O   0  0  0  0  0  0  0  0  0  0  0  0
    9.8677  -16.2986   28.6693 O   0  0  0  0  0  0  0  0  0  0  0  0
  2  1  1  0
  2  3  2  0
  4  2  1  0
  5  4  1  0
  6  5  1  0
  7  8  1  0
  7  6  1  0
  8  9  1  1
 10 20  1  0
 10  8  1  0
 11 10  2  0
 13 12  1  0
 14 13  2  0
 15 13  1  0
 16 15  1  0
 17 18  1  0
 17 16  1  0
 19 18  1  6
 19 21  1  0
 19 20  1  0
 21 22  2  0
 23 24  1  0
 23 21  1  0
 24 25  1  6
 25 26  1  0
 26 31  2  0
 27 26  1  0
 27 28  2  0
 28 29  1  0
 29 30  2  0
 31 30  1  0
 32 24  1  0
 33 32  1  0
 34 32  2  0
M  END
$$$$
