RRF.pdb
     RDKit          3D

 34 34  0  0  1  0  0  0  0  0999 V2000
    8.5495  -15.6444   14.9382 N   0  0  0  0  0  0  0  0  0  0  0  0
    8.1913  -14.4210   14.2920 C   0  0  0  0  0  0  0  0  0  0  0  0
    8.4192  -14.3417   13.0321 N   0  0  0  0  0  0  0  0  0  0  0  0
    7.6177  -13.3816   15.0553 N   0  0  0  0  0  0  0  0  0  0  0  0
    7.3268  -13.6289   16.4779 C   0  0  0  0  0  0  0  0  0  0  0  0
    8.6247  -13.8502   17.1688 C   0  0  0  0  0  0  0  0  0  0  0  0
    8.4712  -14.1194   18.6224 C   0  0  0  0  0  0  0  0  0  0  0  0
    9.7364  -14.3706   19.3798 C   0  0  2  0  0  0  0  0  0  0  0  0
   10.7968  -14.9539   18.6304 N   0  0  0  0  0  0  0  0  0  0  0  0
    9.3900  -15.2116   20.5654 C   0  0  0  0  0  0  0  0  0  0  0  0
    8.4788  -14.8244   21.3236 O   0  0  0  0  0  0  0  0  0  0  0  0
    8.2897  -13.4843   12.4802 N   0  0  0  0  0  0  0  0  0  0  0  0
   13.5539  -21.3959   24.5708 C   0  0  0  0  0  0  0  0  0  0  0  0
   12.4003  -21.3381   25.4023 N   0  0  0  0  0  0  0  0  0  0  0  0
   12.4218  -21.7739   26.6173 N   0  0  0  0  0  0  0  0  0  0  0  0
   11.1637  -20.8001   24.9538 C   0  0  0  0  0  0  0  0  0  0  0  0
   10.9641  -20.4485   23.5825 C   0  0  0  0  0  0  0  0  0  0  0  0
   10.1781  -19.1639   23.4209 C   0  0  0  0  0  0  0  0  0  0  0  0
   10.6690  -18.3444   22.2624 C   0  0  2  0  0  0  0  0  0  0  0  0
    9.7820  -17.1692   22.0354 N   0  0  0  0  0  0  0  0  0  0  0  0
   10.0644  -16.4195   20.8417 C   0  0  0  0  0  0  0  0  0  0  0  0
    9.7783  -16.2636   23.2445 O   0  0  0  0  0  0  0  0  0  0  0  0
   10.7677  -15.5470   23.5441 N   0  0  0  0  0  0  0  0  0  0  0  0
   11.5338  -21.7093   27.1629 C   0  0  2  0  0  0  0  0  0  0  0  0
    8.6432  -16.1885   24.0968 C   0  0  0  0  0  0  0  0  0  0  0  0
    8.5095  -15.1547   25.0968 C   0  0  0  0  0  0  0  0  0  0  0  0
    7.4409  -14.1523   24.7321 C   0  0  0  0  0  0  0  0  0  0  0  0
    7.2476  -13.1367   25.7918 C   0  0  0  0  0  0  0  0  0  0  0  0
    6.1302  -13.2310   26.5953 C   0  0  0  0  0  0  0  0  0  0  0  0
    5.8716  -12.3321   27.6105 C   0  0  0  0  0  0  0  0  0  0  0  0
    6.8065  -11.3076   27.7900 C   0  0  0  0  0  0  0  0  0  0  0  0
    7.9223  -11.2146   26.9864 C   0  0  0  0  0  0  0  0  0  0  0  0
    8.1626  -12.1270   25.9736 O   0  0  0  0  0  0  0  0  0  0  0  0
    8.2743  -15.7586   26.4335 O   0  0  0  0  0  0  0  0  0  0  0  0
  2  1  1  0
  2  3  2  0
  4  2  1  0
  5  4  1  0
  6  5  1  0
  7  8  1  0
  7  6  1  0
  8  9  1  6
 10 20  1  0
 10  8  1  0
 11 10  2  0
 13 12  1  0
 14 13  2  0
 15 13  1  0
 16 15  1  0
 17 18  1  0
 17 16  1  0
 19 18  1  6
 19 21  1  0
 19 20  1  0
 21 22  2  0
 23 24  1  0
 23 21  1  0
 24 25  1  1
 25 26  1  0
 26 31  2  0
 27 26  1  0
 27 28  2  0
 28 29  1  0
 29 30  2  0
 31 30  1  0
 32 24  1  0
 33 32  1  0
 34 32  2  0
M  END
$$$$
