RRF.pdb
     RDKit          3D

 34 34  0  0  1  0  0  0  0  0999 V2000
    8.7828  -16.1568   15.2138 N   0  0  0  0  0  0  0  0  0  0  0  0
    9.0904  -14.8095   14.8493 C   0  0  0  0  0  0  0  0  0  0  0  0
    9.9409  -14.6440   13.9034 N   0  0  0  0  0  0  0  0  0  0  0  0
    8.4578  -13.7498   15.5338 N   0  0  0  0  0  0  0  0  0  0  0  0
    8.5715  -13.6899   17.0011 C   0  0  0  0  0  0  0  0  0  0  0  0
    7.2778  -14.1520   17.5700 C   0  0  0  0  0  0  0  0  0  0  0  0
    7.1325  -13.8372   19.0153 C   0  0  0  0  0  0  0  0  0  0  0  0
    8.4056  -13.7162   19.7911 C   0  0  2  0  0  0  0  0  0  0  0  0
    9.6029  -13.7941   19.0252 N   0  0  0  0  0  0  0  0  0  0  0  0
    8.3815  -14.7618   20.8586 C   0  0  0  0  0  0  0  0  0  0  0  0
    7.2909  -15.0370   21.3970 O   0  0  0  0  0  0  0  0  0  0  0  0
   10.2211  -13.7240   13.5407 N   0  0  0  0  0  0  0  0  0  0  0  0
   10.0427  -21.6376   17.9623 C   0  0  0  0  0  0  0  0  0  0  0  0
   10.1894  -20.9193   19.1820 N   0  0  0  0  0  0  0  0  0  0  0  0
    9.3182  -21.0142   20.1300 N   0  0  0  0  0  0  0  0  0  0  0  0
   11.2947  -20.0620   19.4334 C   0  0  0  0  0  0  0  0  0  0  0  0
   11.4245  -19.3678   20.6765 C   0  0  0  0  0  0  0  0  0  0  0  0
   10.3260  -18.3468   20.8888 C   0  0  0  0  0  0  0  0  0  0  0  0
   10.5541  -17.5212   22.1221 C   0  0  2  0  0  0  0  0  0  0  0  0
    9.5026  -16.4745   22.2571 N   0  0  0  0  0  0  0  0  0  0  0  0
    9.5524  -15.4352   21.2652 C   0  0  0  0  0  0  0  0  0  0  0  0
    9.5145  -15.8844   23.6477 O   0  0  0  0  0  0  0  0  0  0  0  0
   10.4009  -15.0737   24.0206 N   0  0  0  0  0  0  0  0  0  0  0  0
    9.5448  -20.5445   21.0347 C   0  0  1  0  0  0  0  0  0  0  0  0
    8.5125  -16.2286   24.5954 C   0  0  0  0  0  0  0  0  0  0  0  0
    8.5307  -15.7115   25.9440 C   0  0  0  0  0  0  0  0  0  0  0  0
    7.1625  -15.2565   26.3918 C   0  0  0  0  0  0  0  0  0  0  0  0
    7.0311  -13.7821   26.3641 C   0  0  0  0  0  0  0  0  0  0  0  0
    8.1766  -13.0233   26.2409 C   0  0  0  0  0  0  0  0  0  0  0  0
    8.1488  -11.6438   26.2014 C   0  0  0  0  0  0  0  0  0  0  0  0
    6.8897  -11.0421   26.2931 C   0  0  0  0  0  0  0  0  0  0  0  0
    5.7462  -11.8014   26.4163 C   0  0  0  0  0  0  0  0  0  0  0  0
    5.7965  -13.1842   26.4539 O   0  0  0  0  0  0  0  0  0  0  0  0
    9.1163  -16.7131   26.8717 O   0  0  0  0  0  0  0  0  0  0  0  0
  2  1  1  0
  2  3  2  0
  4  2  1  0
  5  4  1  0
  6  5  1  0
  7  8  1  0
  7  6  1  0
  8  9  1  6
 10 20  1  0
 10  8  1  0
 11 10  2  0
 13 12  1  0
 14 13  2  0
 15 13  1  0
 16 15  1  0
 17 18  1  0
 17 16  1  0
 19 18  1  6
 19 21  1  0
 19 20  1  0
 21 22  2  0
 23 24  1  0
 23 21  1  0
 24 25  1  1
 25 26  1  0
 26 31  2  0
 27 26  1  0
 27 28  2  0
 28 29  1  0
 29 30  2  0
 31 30  1  0
 32 24  1  0
 33 32  1  0
 34 32  2  0
M  END
$$$$
