RRF.pdb
     RDKit          3D

 34 34  0  0  1  0  0  0  0  0999 V2000
   10.0077  -14.2248   18.1203 N   0  0  0  0  0  0  0  0  0  0  0  0
    8.7835  -13.4977   17.9951 C   0  0  0  0  0  0  0  0  0  0  0  0
    8.8604  -12.2184   18.0474 N   0  0  0  0  0  0  0  0  0  0  0  0
    7.5757  -14.2078   17.8248 N   0  0  0  0  0  0  0  0  0  0  0  0
    6.6115  -14.2371   18.9378 C   0  0  0  0  0  0  0  0  0  0  0  0
    7.3894  -14.2229   20.2049 C   0  0  0  0  0  0  0  0  0  0  0  0
    6.6717  -14.8681   21.3353 C   0  0  0  0  0  0  0  0  0  0  0  0
    6.9109  -16.3340   21.5124 C   0  0  2  0  0  0  0  0  0  0  0  0
    5.9470  -17.1919   20.9114 N   0  0  0  0  0  0  0  0  0  0  0  0
    7.0233  -16.5961   22.9793 C   0  0  0  0  0  0  0  0  0  0  0  0
    6.1218  -16.1731   23.7300 O   0  0  0  0  0  0  0  0  0  0  0  0
    8.0454  -11.5939   17.9991 N   0  0  0  0  0  0  0  0  0  0  0  0
    7.2954  -22.6738   23.9893 C   0  0  0  0  0  0  0  0  0  0  0  0
    5.9580  -22.2379   23.7736 N   0  0  0  0  0  0  0  0  0  0  0  0
    5.1239  -22.9376   23.0798 N   0  0  0  0  0  0  0  0  0  0  0  0
    5.4589  -21.0178   24.3048 C   0  0  0  0  0  0  0  0  0  0  0  0
    6.3014  -20.1371   25.0521 C   0  0  0  0  0  0  0  0  0  0  0  0
    7.6860  -20.0093   24.4516 C   0  0  0  0  0  0  0  0  0  0  0  0
    8.5465  -19.0466   25.2179 C   0  0  2  0  0  0  0  0  0  0  0  0
    8.1544  -17.6400   24.9229 N   0  0  0  0  0  0  0  0  0  0  0  0
    8.1149  -17.3030   23.5259 C   0  0  0  0  0  0  0  0  0  0  0  0
    9.0342  -16.6724   25.6792 O   0  0  0  0  0  0  0  0  0  0  0  0
   10.1024  -16.2214   25.1918 N   0  0  0  0  0  0  0  0  0  0  0  0
    4.1723  -22.5344   22.9298 C   0  0  1  0  0  0  0  0  0  0  0  0
    8.6818  -16.2323   26.9841 C   0  0  0  0  0  0  0  0  0  0  0  0
    9.5777  -15.4303   27.7845 C   0  0  0  0  0  0  0  0  0  0  0  0
    8.8496  -14.3218   28.5062 C   0  0  0  0  0  0  0  0  0  0  0  0
    8.0334  -13.5010   27.5832 C   0  0  0  0  0  0  0  0  0  0  0  0
    8.6828  -12.6547   26.7085 C   0  0  0  0  0  0  0  0  0  0  0  0
    8.0035  -11.8569   25.8100 C   0  0  0  0  0  0  0  0  0  0  0  0
    6.6080  -11.9468   25.8267 C   0  0  0  0  0  0  0  0  0  0  0  0
    5.9604  -12.7926   26.7011 C   0  0  0  0  0  0  0  0  0  0  0  0
    6.6612  -13.5844   27.5944 O   0  0  0  0  0  0  0  0  0  0  0  0
   10.3458  -16.2931   28.7186 O   0  0  0  0  0  0  0  0  0  0  0  0
  2  1  1  0
  2  3  2  0
  4  2  1  0
  5  4  1  0
  6  5  1  0
  7  8  1  0
  7  6  1  0
  8  9  1  1
 10 20  1  0
 10  8  1  0
 11 10  2  0
 13 12  1  0
 14 13  2  0
 15 13  1  0
 16 15  1  0
 17 18  1  0
 17 16  1  0
 19 18  1  6
 19 21  1  0
 19 20  1  0
 21 22  2  0
 23 24  1  0
 23 21  1  0
 24 25  1  1
 25 26  1  0
 26 31  2  0
 27 26  1  0
 27 28  2  0
 28 29  1  0
 29 30  2  0
 31 30  1  0
 32 24  1  0
 33 32  1  0
 34 32  2  0
M  END
$$$$
