RRF.pdb
     RDKit          3D

 34 34  0  0  1  0  0  0  0  0999 V2000
    9.2096  -15.1476   17.8354 N   0  0  0  0  0  0  0  0  0  0  0  0
    8.4947  -13.9107   17.8772 C   0  0  0  0  0  0  0  0  0  0  0  0
    8.7246  -13.0753   16.9314 N   0  0  0  0  0  0  0  0  0  0  0  0
    7.5911  -13.6735   18.9352 N   0  0  0  0  0  0  0  0  0  0  0  0
    8.0405  -13.9208   20.3158 C   0  0  0  0  0  0  0  0  0  0  0  0
    7.8057  -15.3587   20.6127 C   0  0  0  0  0  0  0  0  0  0  0  0
    6.6611  -15.5830   21.5340 C   0  0  0  0  0  0  0  0  0  0  0  0
    6.4022  -17.0036   21.9241 C   0  0  2  0  0  0  0  0  0  0  0  0
    5.1319  -17.5237   21.5472 N   0  0  0  0  0  0  0  0  0  0  0  0
    6.6093  -17.1082   23.4004 C   0  0  0  0  0  0  0  0  0  0  0  0
    5.6854  -16.7501   24.1575 O   0  0  0  0  0  0  0  0  0  0  0  0
    8.2577  -12.1634   16.8477 N   0  0  0  0  0  0  0  0  0  0  0  0
    8.8549  -22.6477   23.7277 C   0  0  0  0  0  0  0  0  0  0  0  0
    7.4484  -22.8395   23.6252 N   0  0  0  0  0  0  0  0  0  0  0  0
    6.9423  -23.6952   22.8017 N   0  0  0  0  0  0  0  0  0  0  0  0
    6.5201  -22.1104   24.4168 C   0  0  0  0  0  0  0  0  0  0  0  0
    6.9628  -21.1553   25.3842 C   0  0  0  0  0  0  0  0  0  0  0  0
    7.9271  -20.1430   24.8016 C   0  0  0  0  0  0  0  0  0  0  0  0
    8.3507  -19.1193   25.8152 C   0  0  2  0  0  0  0  0  0  0  0  0
    7.9729  -17.7490   25.3693 N   0  0  0  0  0  0  0  0  0  0  0  0
    7.8136  -17.5972   23.9486 C   0  0  0  0  0  0  0  0  0  0  0  0
    8.9460  -16.7268   25.9080 O   0  0  0  0  0  0  0  0  0  0  0  0
    9.9739  -16.3831   25.2696 N   0  0  0  0  0  0  0  0  0  0  0  0
    5.9007  -23.7493   22.7504 C   0  0  1  0  0  0  0  0  0  0  0  0
    8.7321  -16.1098   27.1707 C   0  0  0  0  0  0  0  0  0  0  0  0
    9.6579  -15.1418   27.7113 C   0  0  0  0  0  0  0  0  0  0  0  0
    8.9442  -13.9736   28.3480 C   0  0  0  0  0  0  0  0  0  0  0  0
    7.9995  -13.3231   27.4119 C   0  0  0  0  0  0  0  0  0  0  0  0
    8.4863  -12.8510   26.2105 C   0  0  0  0  0  0  0  0  0  0  0  0
    7.6781  -12.2360   25.2757 C   0  0  0  0  0  0  0  0  0  0  0  0
    6.3249  -12.1115   25.6062 C   0  0  0  0  0  0  0  0  0  0  0  0
    5.8399  -12.5833   26.8068 C   0  0  0  0  0  0  0  0  0  0  0  0
    6.6682  -13.1973   27.7305 O   0  0  0  0  0  0  0  0  0  0  0  0
   10.5997  -15.8000   28.6529 O   0  0  0  0  0  0  0  0  0  0  0  0
  2  1  1  0
  2  3  2  0
  4  2  1  0
  5  4  1  0
  6  5  1  0
  7  8  1  0
  7  6  1  0
  8  9  1  1
 10 20  1  0
 10  8  1  0
 11 10  2  0
 13 12  1  0
 14 13  2  0
 15 13  1  0
 16 15  1  0
 17 18  1  0
 17 16  1  0
 19 18  1  1
 19 21  1  0
 19 20  1  0
 21 22  2  0
 23 24  1  0
 23 21  1  0
 24 25  1  1
 25 26  1  0
 26 31  2  0
 27 26  1  0
 27 28  2  0
 28 29  1  0
 29 30  2  0
 31 30  1  0
 32 24  1  0
 33 32  1  0
 34 32  2  0
M  END
$$$$
