RRF.pdb
     RDKit          3D

 34 34  0  0  1  0  0  0  0  0999 V2000
    5.4163  -23.2319   26.1682 N   0  0  0  0  0  0  0  0  0  0  0  0
    6.3291  -23.8422   27.0832 C   0  0  0  0  0  0  0  0  0  0  0  0
    6.1759  -25.0960   27.3063 N   0  0  0  0  0  0  0  0  0  0  0  0
    7.3322  -23.0521   27.6845 N   0  0  0  0  0  0  0  0  0  0  0  0
    7.5565  -21.6885   27.1748 C   0  0  0  0  0  0  0  0  0  0  0  0
    7.7324  -21.7843   25.7014 C   0  0  0  0  0  0  0  0  0  0  0  0
    8.0602  -20.4798   25.0689 C   0  0  0  0  0  0  0  0  0  0  0  0
    7.0164  -19.9107   24.1613 C   0  0  2  0  0  0  0  0  0  0  0  0
    6.4831  -20.8107   23.1959 N   0  0  0  0  0  0  0  0  0  0  0  0
    7.6030  -18.7034   23.5043 C   0  0  0  0  0  0  0  0  0  0  0  0
    8.7891  -18.7515   23.1222 O   0  0  0  0  0  0  0  0  0  0  0  0
    6.7523  -25.6343   27.9655 N   0  0  0  0  0  0  0  0  0  0  0  0
    8.5328  -14.4061   17.5600 C   0  0  0  0  0  0  0  0  0  0  0  0
    8.6534  -13.2434   18.3717 N   0  0  0  0  0  0  0  0  0  0  0  0
    9.0988  -12.1300   17.8936 N   0  0  0  0  0  0  0  0  0  0  0  0
    8.2924  -13.2327   19.7463 C   0  0  0  0  0  0  0  0  0  0  0  0
    7.5497  -14.3089   20.3243 C   0  0  0  0  0  0  0  0  0  0  0  0
    7.2723  -14.0971   21.7982 C   0  0  0  0  0  0  0  0  0  0  0  0
    6.5291  -15.2527   22.4039 C   0  0  2  0  0  0  0  0  0  0  0  0
    7.4752  -16.3200   22.8339 N   0  0  0  0  0  0  0  0  0  0  0  0
    6.8524  -17.5250   23.3102 C   0  0  0  0  0  0  0  0  0  0  0  0
    8.4516  -15.7858   23.8554 O   0  0  0  0  0  0  0  0  0  0  0  0
    9.3166  -14.9208   23.5626 N   0  0  0  0  0  0  0  0  0  0  0  0
    9.2212  -11.3383   18.5636 C   0  0  1  0  0  0  0  0  0  0  0  0
    8.4272  -16.2474   25.1997 C   0  0  0  0  0  0  0  0  0  0  0  0
    9.2636  -15.6609   26.2210 C   0  0  0  0  0  0  0  0  0  0  0  0
    8.4519  -15.1304   27.3783 C   0  0  0  0  0  0  0  0  0  0  0  0
    7.6004  -13.9863   26.9810 C   0  0  0  0  0  0  0  0  0  0  0  0
    8.2126  -12.7912   26.6645 C   0  0  0  0  0  0  0  0  0  0  0  0
    7.4989  -11.6744   26.2790 C   0  0  0  0  0  0  0  0  0  0  0  0
    6.1082  -11.8110   26.2231 C   0  0  0  0  0  0  0  0  0  0  0  0
    5.4980  -13.0055   26.5398 C   0  0  0  0  0  0  0  0  0  0  0  0
    6.2329  -14.1138   26.9241 O   0  0  0  0  0  0  0  0  0  0  0  0
   10.2952  -16.6339   26.6633 O   0  0  0  0  0  0  0  0  0  0  0  0
  2  1  1  0
  2  3  2  0
  4  2  1  0
  5  4  1  0
  6  5  1  0
  7  8  1  0
  7  6  1  0
  8  9  1  6
 10 20  1  0
 10  8  1  0
 11 10  2  0
 13 12  1  0
 14 13  2  0
 15 13  1  0
 16 15  1  0
 17 18  1  0
 17 16  1  0
 19 18  1  6
 19 21  1  0
 19 20  1  0
 21 22  2  0
 23 24  1  0
 23 21  1  0
 24 25  1  6
 25 26  1  0
 26 31  2  0
 27 26  1  0
 27 28  2  0
 28 29  1  0
 29 30  2  0
 31 30  1  0
 32 24  1  0
 33 32  1  0
 34 32  2  0
M  END
$$$$
