RRF.pdb
     RDKit          3D

 34 34  0  0  1  0  0  0  0  0999 V2000
    8.9621  -15.0337   17.1080 N   0  0  0  0  0  0  0  0  0  0  0  0
    8.3421  -13.8640   16.5693 C   0  0  0  0  0  0  0  0  0  0  0  0
    7.9852  -13.9110   15.3381 N   0  0  0  0  0  0  0  0  0  0  0  0
    8.1579  -12.7380   17.4001 N   0  0  0  0  0  0  0  0  0  0  0  0
    8.4934  -12.8535   18.8296 C   0  0  0  0  0  0  0  0  0  0  0  0
    7.4057  -13.6280   19.4839 C   0  0  0  0  0  0  0  0  0  0  0  0
    7.8694  -14.3930   20.6709 C   0  0  0  0  0  0  0  0  0  0  0  0
    7.9358  -15.8784   20.5085 C   0  0  2  0  0  0  0  0  0  0  0  0
    6.8702  -16.4650   19.7691 N   0  0  0  0  0  0  0  0  0  0  0  0
    8.0341  -16.4751   21.8751 C   0  0  0  0  0  0  0  0  0  0  0  0
    6.9816  -16.8026   22.4582 O   0  0  0  0  0  0  0  0  0  0  0  0
    7.6527  -13.0959   14.8074 N   0  0  0  0  0  0  0  0  0  0  0  0
   15.4493  -18.5958   23.6115 C   0  0  0  0  0  0  0  0  0  0  0  0
   14.4931  -19.2181   22.7607 N   0  0  0  0  0  0  0  0  0  0  0  0
   14.6847  -19.3153   21.4877 N   0  0  0  0  0  0  0  0  0  0  0  0
   13.2792  -19.7692   23.2532 C   0  0  0  0  0  0  0  0  0  0  0  0
   12.0890  -19.7628   22.4611 C   0  0  0  0  0  0  0  0  0  0  0  0
   11.2840  -18.4913   22.6330 C   0  0  0  0  0  0  0  0  0  0  0  0
   10.2115  -18.6392   23.6735 C   0  0  1  0  0  0  0  0  0  0  0  0
    9.3709  -17.4112   23.7414 N   0  0  0  0  0  0  0  0  0  0  0  0
    9.2774  -16.6729   22.5114 C   0  0  0  0  0  0  0  0  0  0  0  0
    9.8291  -16.5141   24.8673 O   0  0  0  0  0  0  0  0  0  0  0  0
   10.8114  -15.7383   24.7442 N   0  0  0  0  0  0  0  0  0  0  0  0
   13.9251  -19.7570   20.9235 C   0  0  1  0  0  0  0  0  0  0  0  0
    9.1583  -16.5152   26.1206 C   0  0  0  0  0  0  0  0  0  0  0  0
    9.6263  -15.7240   27.2348 C   0  0  0  0  0  0  0  0  0  0  0  0
    8.4903  -15.0410   27.9577 C   0  0  0  0  0  0  0  0  0  0  0  0
    7.8592  -13.9879   27.1303 C   0  0  0  0  0  0  0  0  0  0  0  0
    8.6454  -12.9477   26.6799 C   0  0  0  0  0  0  0  0  0  0  0  0
    8.1434  -11.9257   25.8996 C   0  0  0  0  0  0  0  0  0  0  0  0
    6.7832  -11.9935   25.5819 C   0  0  0  0  0  0  0  0  0  0  0  0
    5.9989  -13.0332   26.0326 C   0  0  0  0  0  0  0  0  0  0  0  0
    6.5226  -14.0484   26.8144 O   0  0  0  0  0  0  0  0  0  0  0  0
   10.4477  -16.5580   28.1495 O   0  0  0  0  0  0  0  0  0  0  0  0
  2  1  1  0
  2  3  2  0
  4  2  1  0
  5  4  1  0
  6  5  1  0
  7  8  1  0
  7  6  1  0
  8  9  1  1
 10 20  1  0
 10  8  1  0
 11 10  2  0
 13 12  1  0
 14 13  2  0
 15 13  1  0
 16 15  1  0
 17 18  1  0
 17 16  1  0
 19 18  1  6
 19 21  1  0
 19 20  1  0
 21 22  2  0
 23 24  1  0
 23 21  1  0
 24 25  1  1
 25 26  1  0
 26 31  2  0
 27 26  1  0
 27 28  2  0
 28 29  1  0
 29 30  2  0
 31 30  1  0
 32 24  1  0
 33 32  1  0
 34 32  2  0
M  END
$$$$
