RRF.pdb
     RDKit          3D

 34 34  0  0  1  0  0  0  0  0999 V2000
   11.7385  -15.4024   20.1553 N   0  0  0  0  0  0  0  0  0  0  0  0
   12.2846  -14.2255   19.5558 C   0  0  0  0  0  0  0  0  0  0  0  0
   13.4230  -13.8268   19.9920 N   0  0  0  0  0  0  0  0  0  0  0  0
   11.5595  -13.5728   18.5359 N   0  0  0  0  0  0  0  0  0  0  0  0
   10.0888  -13.6494   18.5560 C   0  0  0  0  0  0  0  0  0  0  0  0
    9.6637  -13.7296   19.9787 C   0  0  0  0  0  0  0  0  0  0  0  0
    8.1959  -13.9002   20.1384 C   0  0  0  0  0  0  0  0  0  0  0  0
    7.6765  -15.2935   19.9768 C   0  0  2  0  0  0  0  0  0  0  0  0
    6.6547  -15.4601   18.9999 N   0  0  0  0  0  0  0  0  0  0  0  0
    7.2167  -15.7595   21.3202 C   0  0  0  0  0  0  0  0  0  0  0  0
    6.2159  -15.2157   21.8280 O   0  0  0  0  0  0  0  0  0  0  0  0
   13.9081  -12.9902   19.6435 N   0  0  0  0  0  0  0  0  0  0  0  0
    8.3893  -21.7518   25.0122 C   0  0  0  0  0  0  0  0  0  0  0  0
    7.2310  -21.2757   25.6883 N   0  0  0  0  0  0  0  0  0  0  0  0
    7.0399  -21.5066   26.9440 N   0  0  0  0  0  0  0  0  0  0  0  0
    6.2216  -20.5208   25.0316 C   0  0  0  0  0  0  0  0  0  0  0  0
    6.2576  -20.3098   23.6181 C   0  0  0  0  0  0  0  0  0  0  0  0
    6.4218  -18.8490   23.2531 C   0  0  0  0  0  0  0  0  0  0  0  0
    7.5431  -18.2005   24.0126 C   0  0  2  0  0  0  0  0  0  0  0  0
    7.8484  -16.8539   23.4532 N   0  0  0  0  0  0  0  0  0  0  0  0
    7.8833  -16.7887   22.0175 C   0  0  0  0  0  0  0  0  0  0  0  0
    9.1291  -16.3108   24.0421 O   0  0  0  0  0  0  0  0  0  0  0  0
   10.2197  -16.9313   23.9535 N   0  0  0  0  0  0  0  0  0  0  0  0
    6.1659  -21.1270   27.3711 C   0  0  2  0  0  0  0  0  0  0  0  0
    9.1474  -15.0645   24.7256 C   0  0  0  0  0  0  0  0  0  0  0  0
    8.9837  -14.9798   26.1583 C   0  0  0  0  0  0  0  0  0  0  0  0
    7.6145  -14.4708   26.5401 C   0  0  0  0  0  0  0  0  0  0  0  0
    7.4990  -13.0050   26.3665 C   0  0  0  0  0  0  0  0  0  0  0  0
    6.2916  -12.4030   26.6546 C   0  0  0  0  0  0  0  0  0  0  0  0
    6.0945  -11.0429   26.5266 C   0  0  0  0  0  0  0  0  0  0  0  0
    7.1892  -10.2924   26.0858 C   0  0  0  0  0  0  0  0  0  0  0  0
    8.3948  -10.8951   25.7983 C   0  0  0  0  0  0  0  0  0  0  0  0
    8.5711  -12.2614   25.9335 O   0  0  0  0  0  0  0  0  0  0  0  0
    9.2874  -16.2898   26.7896 O   0  0  0  0  0  0  0  0  0  0  0  0
  2  1  1  0
  2  3  2  0
  4  2  1  0
  5  4  1  0
  6  5  1  0
  7  8  1  0
  7  6  1  0
  8  9  1  6
 10 20  1  0
 10  8  1  0
 11 10  2  0
 13 12  1  0
 14 13  2  0
 15 13  1  0
 16 15  1  0
 17 18  1  0
 17 16  1  0
 19 18  1  6
 19 21  1  0
 19 20  1  0
 21 22  2  0
 23 24  1  0
 23 21  1  0
 24 25  1  1
 25 26  1  0
 26 31  2  0
 27 26  1  0
 27 28  2  0
 28 29  1  0
 29 30  2  0
 31 30  1  0
 32 24  1  0
 33 32  1  0
 34 32  2  0
M  END
$$$$
