RRF.pdb
     RDKit          3D

 34 34  0  0  1  0  0  0  0  0999 V2000
    9.6618  -13.4258   18.4141 N   0  0  0  0  0  0  0  0  0  0  0  0
    8.3631  -13.0855   18.9044 C   0  0  0  0  0  0  0  0  0  0  0  0
    8.2155  -11.9061   19.3866 N   0  0  0  0  0  0  0  0  0  0  0  0
    7.3291  -14.0437   18.8366 N   0  0  0  0  0  0  0  0  0  0  0  0
    7.5254  -15.3421   19.5038 C   0  0  0  0  0  0  0  0  0  0  0  0
    7.1462  -15.1739   20.9317 C   0  0  0  0  0  0  0  0  0  0  0  0
    5.9638  -15.9870   21.3191 C   0  0  0  0  0  0  0  0  0  0  0  0
    6.2011  -17.4554   21.4764 C   0  0  2  0  0  0  0  0  0  0  0  0
    5.1929  -18.3031   20.9368 N   0  0  0  0  0  0  0  0  0  0  0  0
    6.4059  -17.7233   22.9323 C   0  0  0  0  0  0  0  0  0  0  0  0
    5.4026  -17.9002   23.6514 O   0  0  0  0  0  0  0  0  0  0  0  0
    7.3172  -11.5318   19.7176 N   0  0  0  0  0  0  0  0  0  0  0  0
    7.5618  -23.5897   27.1112 C   0  0  0  0  0  0  0  0  0  0  0  0
    6.8554  -22.4814   27.6572 N   0  0  0  0  0  0  0  0  0  0  0  0
    5.5683  -22.4844   27.7568 N   0  0  0  0  0  0  0  0  0  0  0  0
    7.5151  -21.3130   28.1257 C   0  0  0  0  0  0  0  0  0  0  0  0
    7.2220  -20.0269   27.5744 C   0  0  0  0  0  0  0  0  0  0  0  0
    8.3941  -19.4392   26.8163 C   0  0  0  0  0  0  0  0  0  0  0  0
    8.1321  -19.3683   25.3394 C   0  0  1  0  0  0  0  0  0  0  0  0
    7.8710  -17.9635   24.9178 N   0  0  0  0  0  0  0  0  0  0  0  0
    7.6947  -17.7791   23.5031 C   0  0  0  0  0  0  0  0  0  0  0  0
    8.9448  -17.0411   25.4453 O   0  0  0  0  0  0  0  0  0  0  0  0
   10.1502  -17.3932   25.5169 N   0  0  0  0  0  0  0  0  0  0  0  0
    5.1076  -21.5825   28.0116 C   0  0  2  0  0  0  0  0  0  0  0  0
    8.6272  -15.7271   25.8846 C   0  0  0  0  0  0  0  0  0  0  0  0
    9.5258  -14.9666   26.7218 C   0  0  0  0  0  0  0  0  0  0  0  0
    8.8053  -13.8753   27.4764 C   0  0  0  0  0  0  0  0  0  0  0  0
    7.9603  -13.0487   26.5849 C   0  0  0  0  0  0  0  0  0  0  0  0
    7.9872  -13.3068   25.2301 C   0  0  0  0  0  0  0  0  0  0  0  0
    7.2292  -12.5905   24.3258 C   0  0  0  0  0  0  0  0  0  0  0  0
    6.4215  -11.5776   24.8527 C   0  0  0  0  0  0  0  0  0  0  0  0
    6.3957  -11.3208   26.2064 C   0  0  0  0  0  0  0  0  0  0  0  0
    7.1642  -12.0514   27.0962 O   0  0  0  0  0  0  0  0  0  0  0  0
   10.2735  -15.8728   27.6309 O   0  0  0  0  0  0  0  0  0  0  0  0
  2  1  1  0
  2  3  2  0
  4  2  1  0
  5  4  1  0
  6  5  1  0
  7  8  1  0
  7  6  1  0
  8  9  1  1
 10 20  1  0
 10  8  1  0
 11 10  2  0
 13 12  1  0
 14 13  2  0
 15 13  1  0
 16 15  1  0
 17 18  1  0
 17 16  1  0
 19 18  1  1
 19 21  1  0
 19 20  1  0
 21 22  2  0
 23 24  1  0
 23 21  1  0
 24 25  1  1
 25 26  1  0
 26 31  2  0
 27 26  1  0
 27 28  2  0
 28 29  1  0
 29 30  2  0
 31 30  1  0
 32 24  1  0
 33 32  1  0
 34 32  2  0
M  END
$$$$
