YAK.pdb
     RDKit          3D

 27 27  0  0  1  0  0  0  0  0999 V2000
   10.8603  -13.6550   28.3723 O   0  0  0  0  0  0  0  0  0  0  0  0
    9.7558  -14.2713   27.8221 C   0  0  0  0  0  0  0  0  0  0  0  0
    9.4232  -15.5409   28.2575 C   0  0  0  0  0  0  0  0  0  0  0  0
    8.3113  -16.1809   27.7145 C   0  0  0  0  0  0  0  0  0  0  0  0
    7.5357  -15.5739   26.7516 C   0  0  0  0  0  0  0  0  0  0  0  0
    6.3561  -16.2633   26.1812 C   0  0  0  0  0  0  0  0  0  0  0  0
    6.8317  -17.1515   25.0581 C   0  0  2  0  0  0  0  0  0  0  0  0
    8.2182  -17.4760   25.3180 N   0  0  0  0  0  0  0  0  0  0  0  0
    6.7136  -16.5453   23.7338 C   0  0  0  0  0  0  0  0  0  0  0  0
    6.0772  -17.1352   22.8296 O   0  0  0  0  0  0  0  0  0  0  0  0
    7.8884  -14.3153   26.3384 C   0  0  0  0  0  0  0  0  0  0  0  0
    8.9993  -13.6540   26.8688 C   0  0  0  0  0  0  0  0  0  0  0  0
    7.4939  -13.4501   21.7559 C   0  0  0  0  0  0  0  0  0  0  0  0
    7.5879  -14.9343   22.0251 C   0  0  2  0  0  0  0  0  0  0  0  0
    7.2839  -15.2925   23.3742 N   0  0  0  0  0  0  0  0  0  0  0  0
    8.9360  -15.4291   21.6102 C   0  0  0  0  0  0  0  0  0  0  0  0
    9.2895  -15.2766   20.4191 O   0  0  0  0  0  0  0  0  0  0  0  0
    9.8213  -16.0615   22.5170 N   0  0  0  0  0  0  0  0  0  0  0  0
   11.1696  -16.4937   22.1719 C   0  0  1  0  0  0  0  0  0  0  0  0
   11.9833  -16.7889   23.3838 C   0  0  0  0  0  0  0  0  0  0  0  0
   11.5571  -17.9382   24.2118 C   0  0  0  0  0  0  0  0  0  0  0  0
   12.3745  -18.2995   25.3884 C   0  0  0  0  0  0  0  0  0  0  0  0
   11.8241  -19.4034   26.2500 C   0  0  0  0  0  0  0  0  0  0  0  0
   12.9328  -20.2568   26.7325 N   0  0  0  0  0  0  0  0  0  0  0  0
   11.1750  -17.5107   21.1170 C   0  0  0  0  0  0  0  0  0  0  0  0
   10.1136  -18.0979   20.8152 O   0  0  0  0  0  0  0  0  0  0  0  0
   12.3310  -17.8613   20.4204 O   0  0  0  0  0  0  0  0  0  0  0  0
  2  1  1  0
  3  2  2  0
  4  3  1  0
  5  4  2  0
  5 11  1  0
  6  5  1  0
  7  9  1  0
  7  8  1  1
  7  6  1  0
  9 15  1  0
 10  9  2  0
 11 12  2  0
 12  2  1  0
 14 13  1  1
 15 14  1  0
 16 18  1  0
 16 14  1  0
 17 16  2  0
 19 18  1  0
 19 25  1  0
 19 20  1  1
 21 20  1  0
 22 23  1  0
 22 21  1  0
 24 23  1  0
 25 27  1  0
 26 25  2  0
M  END
$$$$
