YAK.pdb
     RDKit          3D

 27 27  0  0  1  0  0  0  0  0999 V2000
    7.9668  -11.4352   26.4128 O   0  0  0  0  0  0  0  0  0  0  0  0
    7.6903  -12.7748   26.2358 C   0  0  0  0  0  0  0  0  0  0  0  0
    6.4499  -13.2492   26.6215 C   0  0  0  0  0  0  0  0  0  0  0  0
    6.1506  -14.5992   26.4512 C   0  0  0  0  0  0  0  0  0  0  0  0
    7.0661  -15.4718   25.9059 C   0  0  0  0  0  0  0  0  0  0  0  0
    6.7375  -16.9046   25.7295 C   0  0  0  0  0  0  0  0  0  0  0  0
    6.2111  -17.0942   24.3282 C   0  0  2  0  0  0  0  0  0  0  0  0
    5.7879  -18.4731   24.2059 N   0  0  0  0  0  0  0  0  0  0  0  0
    7.1865  -16.7899   23.2836 C   0  0  0  0  0  0  0  0  0  0  0  0
    7.9651  -17.6827   22.8746 O   0  0  0  0  0  0  0  0  0  0  0  0
    8.2878  -14.9746   25.5324 C   0  0  0  0  0  0  0  0  0  0  0  0
    8.6102  -13.6244   25.6936 C   0  0  0  0  0  0  0  0  0  0  0  0
    7.9091  -13.9715   20.8422 C   0  0  0  0  0  0  0  0  0  0  0  0
    8.1776  -15.2827   21.5443 C   0  0  2  0  0  0  0  0  0  0  0  0
    7.3293  -15.5143   22.6701 N   0  0  0  0  0  0  0  0  0  0  0  0
    9.6238  -15.3599   21.9144 C   0  0  0  0  0  0  0  0  0  0  0  0
   10.4776  -15.0008   21.0723 O   0  0  0  0  0  0  0  0  0  0  0  0
   10.0564  -15.8240   23.1807 N   0  0  0  0  0  0  0  0  0  0  0  0
   11.4521  -15.8732   23.5971 C   0  0  1  0  0  0  0  0  0  0  0  0
   11.5846  -16.1032   25.0626 C   0  0  0  0  0  0  0  0  0  0  0  0
   10.8102  -15.2105   25.9523 C   0  0  0  0  0  0  0  0  0  0  0  0
   10.6659  -15.5862   27.3739 C   0  0  0  0  0  0  0  0  0  0  0  0
    9.9341  -14.5959   28.2386 C   0  0  0  0  0  0  0  0  0  0  0  0
    9.8698  -15.1017   29.6279 N   0  0  0  0  0  0  0  0  0  0  0  0
   12.2631  -16.7272   22.7254 C   0  0  0  0  0  0  0  0  0  0  0  0
   13.5061  -16.7464   22.8569 O   0  0  0  0  0  0  0  0  0  0  0  0
   11.7028  -17.5352   21.7365 O   0  0  0  0  0  0  0  0  0  0  0  0
  2  1  1  0
  3  2  2  0
  4  3  1  0
  5  4  2  0
  5 11  1  0
  6  5  1  0
  7  9  1  0
  7  8  1  1
  7  6  1  0
  9 15  1  0
 10  9  2  0
 11 12  2  0
 12  2  1  0
 14 13  1  1
 15 14  1  0
 16 18  1  0
 16 14  1  0
 17 16  2  0
 19 18  1  0
 19 25  1  0
 19 20  1  1
 21 20  1  0
 22 23  1  0
 22 21  1  0
 24 23  1  0
 25 27  1  0
 26 25  2  0
M  END
$$$$
