YAK.pdb
     RDKit          3D

 27 27  0  0  1  0  0  0  0  0999 V2000
    9.0700  -20.4731   30.0711 O   0  0  0  0  0  0  0  0  0  0  0  0
    8.5830  -20.3419   28.7873 C   0  0  0  0  0  0  0  0  0  0  0  0
    9.0042  -19.2654   28.0285 C   0  0  0  0  0  0  0  0  0  0  0  0
    8.5242  -19.1146   26.7293 C   0  0  0  0  0  0  0  0  0  0  0  0
    7.6376  -20.0171   26.1849 C   0  0  0  0  0  0  0  0  0  0  0  0
    7.1338  -19.8472   24.8030 C   0  0  0  0  0  0  0  0  0  0  0  0
    5.9487  -18.9145   24.8491 C   0  0  2  0  0  0  0  0  0  0  0  0
    4.8828  -19.5283   24.0859 N   0  0  0  0  0  0  0  0  0  0  0  0
    6.2235  -17.5818   24.3167 C   0  0  0  0  0  0  0  0  0  0  0  0
    6.3344  -17.4122   23.0799 O   0  0  0  0  0  0  0  0  0  0  0  0
    7.2369  -21.0749   26.9594 C   0  0  0  0  0  0  0  0  0  0  0  0
    7.7049  -21.2465   28.2648 C   0  0  0  0  0  0  0  0  0  0  0  0
    7.0861  -14.1266   25.6782 C   0  0  0  0  0  0  0  0  0  0  0  0
    6.9775  -15.2132   24.6334 C   0  0  2  0  0  0  0  0  0  0  0  0
    6.3815  -16.4174   25.1186 N   0  0  0  0  0  0  0  0  0  0  0  0
    8.3246  -15.4628   24.0357 C   0  0  0  0  0  0  0  0  0  0  0  0
    9.0893  -16.2768   24.6012 O   0  0  0  0  0  0  0  0  0  0  0  0
    8.7610  -14.8112   22.8563 N   0  0  0  0  0  0  0  0  0  0  0  0
    9.9779  -15.1612   22.1348 C   0  0  1  0  0  0  0  0  0  0  0  0
   10.1311  -14.3616   20.8877 C   0  0  0  0  0  0  0  0  0  0  0  0
    8.9085  -14.1284   20.0884 C   0  0  0  0  0  0  0  0  0  0  0  0
    9.0033  -13.2660   18.8924 C   0  0  0  0  0  0  0  0  0  0  0  0
    7.7243  -13.0759   18.1231 C   0  0  0  0  0  0  0  0  0  0  0  0
    7.9800  -12.2310   16.9353 N   0  0  0  0  0  0  0  0  0  0  0  0
   11.1469  -15.2293   23.0156 C   0  0  0  0  0  0  0  0  0  0  0  0
   12.2464  -15.6114   22.5597 O   0  0  0  0  0  0  0  0  0  0  0  0
   11.0897  -14.8814   24.3647 O   0  0  0  0  0  0  0  0  0  0  0  0
  2  1  1  0
  3  2  2  0
  4  3  1  0
  5  4  2  0
  5 11  1  0
  6  5  1  0
  7  9  1  0
  7  8  1  6
  7  6  1  0
  9 15  1  0
 10  9  2  0
 11 12  2  0
 12  2  1  0
 14 13  1  1
 15 14  1  0
 16 18  1  0
 16 14  1  0
 17 16  2  0
 19 18  1  0
 19 25  1  0
 19 20  1  6
 21 20  1  0
 22 23  1  0
 22 21  1  0
 24 23  1  0
 25 27  1  0
 26 25  2  0
M  END
$$$$
