YAK.pdb
     RDKit          3D

 27 27  0  0  1  0  0  0  0  0999 V2000
    7.6577  -11.8931   23.3974 O   0  0  0  0  0  0  0  0  0  0  0  0
    7.4248  -12.9135   22.4991 C   0  0  0  0  0  0  0  0  0  0  0  0
    6.9583  -14.1229   22.9806 C   0  0  0  0  0  0  0  0  0  0  0  0
    6.7166  -15.1665   22.0899 C   0  0  0  0  0  0  0  0  0  0  0  0
    6.9331  -15.0178   20.7378 C   0  0  0  0  0  0  0  0  0  0  0  0
    6.6729  -16.1335   19.8000 C   0  0  0  0  0  0  0  0  0  0  0  0
    8.0030  -16.6811   19.3445 C   0  0  2  0  0  0  0  0  0  0  0  0
    7.7343  -17.7680   18.4271 N   0  0  0  0  0  0  0  0  0  0  0  0
    8.8494  -17.1618   20.4343 C   0  0  0  0  0  0  0  0  0  0  0  0
    9.5409  -18.1957   20.2807 O   0  0  0  0  0  0  0  0  0  0  0  0
    7.3957  -13.8083   20.2880 C   0  0  0  0  0  0  0  0  0  0  0  0
    7.6452  -12.7474   21.1627 C   0  0  0  0  0  0  0  0  0  0  0  0
   11.1657  -15.4879   22.0119 C   0  0  0  0  0  0  0  0  0  0  0  0
   10.1612  -16.5198   22.4706 C   0  0  2  0  0  0  0  0  0  0  0  0
    8.9563  -16.5275   21.7032 N   0  0  0  0  0  0  0  0  0  0  0  0
    9.8892  -16.3333   23.9284 C   0  0  0  0  0  0  0  0  0  0  0  0
   10.8551  -16.1192   24.6955 O   0  0  0  0  0  0  0  0  0  0  0  0
    8.5803  -16.3907   24.4668 N   0  0  0  0  0  0  0  0  0  0  0  0
    8.0572  -17.5248   25.2177 C   0  0  1  0  0  0  0  0  0  0  0  0
    7.1939  -18.3966   24.3734 C   0  0  0  0  0  0  0  0  0  0  0  0
    6.7150  -19.6560   24.9839 C   0  0  0  0  0  0  0  0  0  0  0  0
    5.9272  -20.5872   24.1500 C   0  0  0  0  0  0  0  0  0  0  0  0
    5.4334  -21.8264   24.8460 C   0  0  0  0  0  0  0  0  0  0  0  0
    4.7123  -22.6849   23.8798 N   0  0  0  0  0  0  0  0  0  0  0  0
    9.0943  -18.1971   26.0048 C   0  0  0  0  0  0  0  0  0  0  0  0
   10.0262  -18.7937   25.4232 O   0  0  0  0  0  0  0  0  0  0  0  0
    9.0906  -18.2031   27.3992 O   0  0  0  0  0  0  0  0  0  0  0  0
  2  1  1  0
  3  2  2  0
  4  3  1  0
  5  4  2  0
  5 11  1  0
  6  5  1  0
  7  9  1  0
  7  8  1  6
  7  6  1  0
  9 15  1  0
 10  9  2  0
 11 12  2  0
 12  2  1  0
 14 13  1  6
 15 14  1  0
 16 18  1  0
 16 14  1  0
 17 16  2  0
 19 18  1  0
 19 25  1  0
 19 20  1  6
 21 20  1  0
 22 23  1  0
 22 21  1  0
 24 23  1  0
 25 27  1  0
 26 25  2  0
M  END
$$$$
