YAK.pdb
     RDKit          3D

 27 27  0  0  1  0  0  0  0  0999 V2000
    7.4801  -11.7784   26.5942 O   0  0  0  0  0  0  0  0  0  0  0  0
    7.2719  -13.1243   26.3759 C   0  0  0  0  0  0  0  0  0  0  0  0
    6.1353  -13.5139   25.6915 C   0  0  0  0  0  0  0  0  0  0  0  0
    5.9064  -14.8686   25.4605 C   0  0  0  0  0  0  0  0  0  0  0  0
    6.7903  -15.8288   25.9006 C   0  0  0  0  0  0  0  0  0  0  0  0
    6.5371  -17.2658   25.6497 C   0  0  0  0  0  0  0  0  0  0  0  0
    6.0010  -17.4078   24.2465 C   0  0  2  0  0  0  0  0  0  0  0  0
    5.6332  -18.7954   24.0602 N   0  0  0  0  0  0  0  0  0  0  0  0
    6.9495  -17.0119   23.2079 C   0  0  0  0  0  0  0  0  0  0  0  0
    7.9064  -17.7659   22.9134 O   0  0  0  0  0  0  0  0  0  0  0  0
    7.9087  -15.4145   26.5764 C   0  0  0  0  0  0  0  0  0  0  0  0
    8.1592  -14.0614   26.8197 C   0  0  0  0  0  0  0  0  0  0  0  0
    7.6148  -14.0382   20.9200 C   0  0  0  0  0  0  0  0  0  0  0  0
    7.8076  -15.4375   21.4573 C   0  0  2  0  0  0  0  0  0  0  0  0
    6.8720  -15.7943   22.4762 N   0  0  0  0  0  0  0  0  0  0  0  0
    9.2198  -15.6011   21.9192 C   0  0  0  0  0  0  0  0  0  0  0  0
   10.1061  -15.8329   21.0660 O   0  0  0  0  0  0  0  0  0  0  0  0
    9.5851  -15.5028   23.2841 N   0  0  0  0  0  0  0  0  0  0  0  0
   10.9616  -15.5190   23.7624 C   0  0  1  0  0  0  0  0  0  0  0  0
   11.0562  -15.1065   25.1903 C   0  0  0  0  0  0  0  0  0  0  0  0
   11.0366  -16.1864   26.2010 C   0  0  0  0  0  0  0  0  0  0  0  0
   11.1402  -15.8168   27.6279 C   0  0  0  0  0  0  0  0  0  0  0  0
   11.0453  -16.9572   28.6048 C   0  0  0  0  0  0  0  0  0  0  0  0
   11.1040  -16.4329   29.9876 N   0  0  0  0  0  0  0  0  0  0  0  0
   11.6660  -16.7483   23.3889 C   0  0  0  0  0  0  0  0  0  0  0  0
   11.0133  -17.7624   23.0597 O   0  0  0  0  0  0  0  0  0  0  0  0
   13.0573  -16.8423   23.3833 O   0  0  0  0  0  0  0  0  0  0  0  0
  2  1  1  0
  3  2  2  0
  4  3  1  0
  5  4  2  0
  5 11  1  0
  6  5  1  0
  7  9  1  0
  7  8  1  6
  7  6  1  0
  9 15  1  0
 10  9  2  0
 11 12  2  0
 12  2  1  0
 14 13  1  1
 15 14  1  0
 16 18  1  0
 16 14  1  0
 17 16  2  0
 19 18  1  0
 19 25  1  0
 19 20  1  1
 21 20  1  0
 22 23  1  0
 22 21  1  0
 24 23  1  0
 25 27  1  0
 26 25  2  0
M  END
$$$$
