YAK.pdb
     RDKit          3D

 27 27  0  0  1  0  0  0  0  0999 V2000
   10.4937  -14.1613   30.8101 O   0  0  0  0  0  0  0  0  0  0  0  0
   10.3113  -14.6110   29.5191 C   0  0  0  0  0  0  0  0  0  0  0  0
    9.4920  -13.8827   28.6761 C   0  0  0  0  0  0  0  0  0  0  0  0
    9.2946  -14.3199   27.3681 C   0  0  0  0  0  0  0  0  0  0  0  0
    9.8997  -15.4640   26.8971 C   0  0  0  0  0  0  0  0  0  0  0  0
    9.6829  -15.9195   25.5051 C   0  0  0  0  0  0  0  0  0  0  0  0
    8.4325  -16.7634   25.4788 C   0  0  2  0  0  0  0  0  0  0  0  0
    8.7209  -17.9897   26.1918 N   0  0  0  0  0  0  0  0  0  0  0  0
    7.9619  -17.0821   24.1327 C   0  0  0  0  0  0  0  0  0  0  0  0
    8.3492  -18.1305   23.5658 O   0  0  0  0  0  0  0  0  0  0  0  0
   10.7067  -16.1664   27.7542 C   0  0  0  0  0  0  0  0  0  0  0  0
   10.9193  -15.7472   29.0701 C   0  0  0  0  0  0  0  0  0  0  0  0
    5.4801  -15.7571   21.5738 C   0  0  0  0  0  0  0  0  0  0  0  0
    6.6445  -16.5896   22.0587 C   0  0  2  0  0  0  0  0  0  0  0  0
    7.0659  -16.2680   23.3853 N   0  0  0  0  0  0  0  0  0  0  0  0
    7.7691  -16.4873   21.0795 C   0  0  0  0  0  0  0  0  0  0  0  0
    7.6199  -16.9874   19.9416 O   0  0  0  0  0  0  0  0  0  0  0  0
    8.9915  -15.8459   21.3962 N   0  0  0  0  0  0  0  0  0  0  0  0
   10.1055  -15.7105   20.4664 C   0  0  1  0  0  0  0  0  0  0  0  0
   10.0264  -14.4426   19.6890 C   0  0  0  0  0  0  0  0  0  0  0  0
    8.8997  -14.3092   18.7400 C   0  0  0  0  0  0  0  0  0  0  0  0
    9.0022  -13.3034   17.6626 C   0  0  0  0  0  0  0  0  0  0  0  0
    7.8588  -13.2768   16.6849 C   0  0  0  0  0  0  0  0  0  0  0  0
    8.1296  -12.2737   15.6310 N   0  0  0  0  0  0  0  0  0  0  0  0
   11.3943  -16.0133   21.0942 C   0  0  0  0  0  0  0  0  0  0  0  0
   11.4658  -16.1392   22.3358 O   0  0  0  0  0  0  0  0  0  0  0  0
   12.5678  -16.1705   20.3575 O   0  0  0  0  0  0  0  0  0  0  0  0
  2  1  1  0
  3  2  2  0
  4  3  1  0
  5  4  2  0
  5 11  1  0
  6  5  1  0
  7  9  1  0
  7  8  1  1
  7  6  1  0
  9 15  1  0
 10  9  2  0
 11 12  2  0
 12  2  1  0
 14 13  1  6
 15 14  1  0
 16 18  1  0
 16 14  1  0
 17 16  2  0
 19 18  1  0
 19 25  1  0
 19 20  1  1
 21 20  1  0
 22 23  1  0
 22 21  1  0
 24 23  1  0
 25 27  1  0
 26 25  2  0
M  END
$$$$
