YAK.pdb
     RDKit          3D

 27 27  0  0  1  0  0  0  0  0999 V2000
    8.9218  -11.5904   17.5781 O   0  0  0  0  0  0  0  0  0  0  0  0
    8.2767  -12.4082   18.4823 C   0  0  0  0  0  0  0  0  0  0  0  0
    8.2636  -12.0379   19.8145 C   0  0  0  0  0  0  0  0  0  0  0  0
    7.6174  -12.8500   20.7440 C   0  0  0  0  0  0  0  0  0  0  0  0
    6.9908  -14.0156   20.3622 C   0  0  0  0  0  0  0  0  0  0  0  0
    6.3070  -14.8713   21.3585 C   0  0  0  0  0  0  0  0  0  0  0  0
    7.3311  -15.8066   21.9526 C   0  0  2  0  0  0  0  0  0  0  0  0
    6.9575  -17.1542   21.5788 N   0  0  0  0  0  0  0  0  0  0  0  0
    7.4405  -15.7174   23.4070 C   0  0  0  0  0  0  0  0  0  0  0  0
    6.7225  -14.9088   24.0405 O   0  0  0  0  0  0  0  0  0  0  0  0
    7.0194  -14.3585   19.0353 C   0  0  0  0  0  0  0  0  0  0  0  0
    7.6612  -13.5596   18.0853 C   0  0  0  0  0  0  0  0  0  0  0  0
    6.9987  -16.6649   26.2560 C   0  0  0  0  0  0  0  0  0  0  0  0
    8.3539  -16.4593   25.6194 C   0  0  2  0  0  0  0  0  0  0  0  0
    8.3292  -16.5038   24.1917 N   0  0  0  0  0  0  0  0  0  0  0  0
    9.3236  -17.4444   26.1882 C   0  0  0  0  0  0  0  0  0  0  0  0
    9.3872  -17.5725   27.4319 O   0  0  0  0  0  0  0  0  0  0  0  0
   10.1682  -18.2332   25.3693 N   0  0  0  0  0  0  0  0  0  0  0  0
   11.1379  -19.1918   25.8837 C   0  0  1  0  0  0  0  0  0  0  0  0
   11.3290  -20.3389   24.9532 C   0  0  0  0  0  0  0  0  0  0  0  0
   10.1228  -20.8524   24.2680 C   0  0  0  0  0  0  0  0  0  0  0  0
   10.2906  -21.8940   23.2337 C   0  0  0  0  0  0  0  0  0  0  0  0
    9.0211  -22.3894   22.5959 C   0  0  0  0  0  0  0  0  0  0  0  0
    9.3398  -23.4477   21.6116 N   0  0  0  0  0  0  0  0  0  0  0  0
   12.3541  -18.5419   26.3788 C   0  0  0  0  0  0  0  0  0  0  0  0
   12.5588  -17.3344   26.1284 O   0  0  0  0  0  0  0  0  0  0  0  0
   13.3129  -19.2200   27.1308 O   0  0  0  0  0  0  0  0  0  0  0  0
  2  1  1  0
  3  2  2  0
  4  3  1  0
  5  4  2  0
  5 11  1  0
  6  5  1  0
  7  9  1  0
  7  8  1  1
  7  6  1  0
  9 15  1  0
 10  9  2  0
 11 12  2  0
 12  2  1  0
 14 13  1  1
 15 14  1  0
 16 18  1  0
 16 14  1  0
 17 16  2  0
 19 18  1  0
 19 25  1  0
 19 20  1  6
 21 20  1  0
 22 23  1  0
 22 21  1  0
 24 23  1  0
 25 27  1  0
 26 25  2  0
M  END
$$$$
