YAK.pdb
     RDKit          3D

 27 27  0  0  1  0  0  0  0  0999 V2000
    4.8259  -10.3645   27.1740 O   0  0  0  0  0  0  0  0  0  0  0  0
    5.6376  -11.3566   26.6649 C   0  0  0  0  0  0  0  0  0  0  0  0
    6.2428  -12.2320   27.5478 C   0  0  0  0  0  0  0  0  0  0  0  0
    7.0664  -13.2413   27.0540 C   0  0  0  0  0  0  0  0  0  0  0  0
    7.2903  -13.3850   25.7026 C   0  0  0  0  0  0  0  0  0  0  0  0
    8.1676  -14.4612   25.1886 C   0  0  0  0  0  0  0  0  0  0  0  0
    7.3316  -15.3730   24.3247 C   0  0  2  0  0  0  0  0  0  0  0  0
    6.5577  -16.2194   25.2080 N   0  0  0  0  0  0  0  0  0  0  0  0
    8.1135  -16.2061   23.4139 C   0  0  0  0  0  0  0  0  0  0  0  0
    8.1965  -17.4411   23.6101 O   0  0  0  0  0  0  0  0  0  0  0  0
    6.6778  -12.5034   24.8501 C   0  0  0  0  0  0  0  0  0  0  0  0
    5.8476  -11.4834   25.3225 C   0  0  0  0  0  0  0  0  0  0  0  0
    9.8881  -15.9149   20.0743 C   0  0  0  0  0  0  0  0  0  0  0  0
    9.5837  -16.5462   21.4133 C   0  0  2  0  0  0  0  0  0  0  0  0
    8.8146  -15.7102   22.2796 N   0  0  0  0  0  0  0  0  0  0  0  0
   10.8597  -16.9858   22.0558 C   0  0  0  0  0  0  0  0  0  0  0  0
   11.6171  -17.7534   21.4200 O   0  0  0  0  0  0  0  0  0  0  0  0
   11.2372  -16.5637   23.3541 N   0  0  0  0  0  0  0  0  0  0  0  0
   12.4541  -16.9957   24.0296 C   0  0  1  0  0  0  0  0  0  0  0  0
   12.1570  -17.8584   25.2068 C   0  0  0  0  0  0  0  0  0  0  0  0
   13.3097  -18.5090   25.8669 C   0  0  0  0  0  0  0  0  0  0  0  0
   13.0492  -19.4215   26.9995 C   0  0  0  0  0  0  0  0  0  0  0  0
   14.2675  -20.0274   27.6416 C   0  0  0  0  0  0  0  0  0  0  0  0
   13.8526  -20.9536   28.7189 N   0  0  0  0  0  0  0  0  0  0  0  0
   13.4640  -17.4939   23.0922 C   0  0  0  0  0  0  0  0  0  0  0  0
   14.5048  -16.8314   22.8910 O   0  0  0  0  0  0  0  0  0  0  0  0
   13.3160  -18.6955   22.4003 O   0  0  0  0  0  0  0  0  0  0  0  0
  2  1  1  0
  3  2  2  0
  4  3  1  0
  5  4  2  0
  5 11  1  0
  6  5  1  0
  7  9  1  0
  7  8  1  1
  7  6  1  0
  9 15  1  0
 10  9  2  0
 11 12  2  0
 12  2  1  0
 14 13  1  6
 15 14  1  0
 16 18  1  0
 16 14  1  0
 17 16  2  0
 19 18  1  0
 19 25  1  0
 19 20  1  1
 21 20  1  0
 22 23  1  0
 22 21  1  0
 24 23  1  0
 25 27  1  0
 26 25  2  0
M  END
$$$$
