YAK.pdb
     RDKit          3D

 27 27  0  0  1  0  0  0  0  0999 V2000
    7.3106  -12.2427   17.2122 O   0  0  0  0  0  0  0  0  0  0  0  0
    7.7719  -12.9551   18.2995 C   0  0  0  0  0  0  0  0  0  0  0  0
    7.5054  -12.4710   19.5670 C   0  0  0  0  0  0  0  0  0  0  0  0
    7.9625  -13.1756   20.6786 C   0  0  0  0  0  0  0  0  0  0  0  0
    8.6753  -14.3461   20.5402 C   0  0  0  0  0  0  0  0  0  0  0  0
    9.1564  -15.0869   21.7284 C   0  0  0  0  0  0  0  0  0  0  0  0
    8.7314  -16.5275   21.5846 C   0  0  2  0  0  0  0  0  0  0  0  0
    7.3825  -16.6360   22.0983 N   0  0  0  0  0  0  0  0  0  0  0  0
    9.5971  -17.4726   22.2863 C   0  0  0  0  0  0  0  0  0  0  0  0
    9.4149  -17.7029   23.5047 O   0  0  0  0  0  0  0  0  0  0  0  0
    8.9251  -14.8030   19.2721 C   0  0  0  0  0  0  0  0  0  0  0  0
    8.4766  -14.1131   18.1427 C   0  0  0  0  0  0  0  0  0  0  0  0
   12.0789  -20.1855   21.4566 C   0  0  0  0  0  0  0  0  0  0  0  0
   11.4537  -19.1536   22.3668 C   0  0  2  0  0  0  0  0  0  0  0  0
   10.6704  -18.1792   21.6757 N   0  0  0  0  0  0  0  0  0  0  0  0
   12.5186  -18.5185   23.2016 C   0  0  0  0  0  0  0  0  0  0  0  0
   12.8903  -17.3575   22.9169 O   0  0  0  0  0  0  0  0  0  0  0  0
   13.1174  -19.1850   24.2987 N   0  0  0  0  0  0  0  0  0  0  0  0
   14.1232  -18.5852   25.1660 C   0  0  1  0  0  0  0  0  0  0  0  0
   14.1754  -19.2523   26.4965 C   0  0  0  0  0  0  0  0  0  0  0  0
   13.0092  -19.0616   27.3863 C   0  0  0  0  0  0  0  0  0  0  0  0
   13.0227  -19.7115   28.7132 C   0  0  0  0  0  0  0  0  0  0  0  0
   11.7762  -19.5358   29.5374 C   0  0  0  0  0  0  0  0  0  0  0  0
   11.9708  -20.1505   30.8696 N   0  0  0  0  0  0  0  0  0  0  0  0
   15.4040  -18.3909   24.4813 C   0  0  0  0  0  0  0  0  0  0  0  0
   16.1852  -17.4950   24.8680 O   0  0  0  0  0  0  0  0  0  0  0  0
   15.8003  -19.1736   23.3973 O   0  0  0  0  0  0  0  0  0  0  0  0
  2  1  1  0
  3  2  2  0
  4  3  1  0
  5  4  2  0
  5 11  1  0
  6  5  1  0
  7  9  1  0
  7  8  1  1
  7  6  1  0
  9 15  1  0
 10  9  2  0
 11 12  2  0
 12  2  1  0
 14 13  1  6
 15 14  1  0
 16 18  1  0
 16 14  1  0
 17 16  2  0
 19 18  1  0
 19 25  1  0
 19 20  1  1
 21 20  1  0
 22 23  1  0
 22 21  1  0
 24 23  1  0
 25 27  1  0
 26 25  2  0
M  END
$$$$
