YAK.pdb
     RDKit          3D

 27 27  0  0  1  0  0  0  0  0999 V2000
    8.7840  -12.3249   18.1331 O   0  0  0  0  0  0  0  0  0  0  0  0
    8.3420  -12.9413   19.2850 C   0  0  0  0  0  0  0  0  0  0  0  0
    9.2815  -13.4192   20.1800 C   0  0  0  0  0  0  0  0  0  0  0  0
    8.8558  -14.0451   21.3496 C   0  0  0  0  0  0  0  0  0  0  0  0
    7.5166  -14.1975   21.6329 C   0  0  0  0  0  0  0  0  0  0  0  0
    7.0753  -14.8642   22.8790 C   0  0  0  0  0  0  0  0  0  0  0  0
    7.2325  -16.3532   22.6933 C   0  0  2  0  0  0  0  0  0  0  0  0
    6.1789  -16.7939   21.8039 N   0  0  0  0  0  0  0  0  0  0  0  0
    7.1686  -17.1149   23.9387 C   0  0  0  0  0  0  0  0  0  0  0  0
    6.0976  -17.1652   24.5876 O   0  0  0  0  0  0  0  0  0  0  0  0
    6.6070  -13.7143   20.7283 C   0  0  0  0  0  0  0  0  0  0  0  0
    7.0106  -13.0831   19.5486 C   0  0  0  0  0  0  0  0  0  0  0  0
    8.1806  -19.9976   25.6595 C   0  0  0  0  0  0  0  0  0  0  0  0
    8.2017  -18.4898   25.7612 C   0  0  2  0  0  0  0  0  0  0  0  0
    8.2648  -17.8308   24.4953 N   0  0  0  0  0  0  0  0  0  0  0  0
    9.3181  -18.0692   26.6617 C   0  0  0  0  0  0  0  0  0  0  0  0
   10.4264  -17.7894   26.1513 O   0  0  0  0  0  0  0  0  0  0  0  0
    9.1628  -17.9775   28.0665 N   0  0  0  0  0  0  0  0  0  0  0  0
   10.2505  -17.6772   28.9887 C   0  0  1  0  0  0  0  0  0  0  0  0
   11.1467  -18.8499   29.1880 C   0  0  0  0  0  0  0  0  0  0  0  0
   10.5158  -20.1003   29.6641 C   0  0  0  0  0  0  0  0  0  0  0  0
   11.3817  -21.2661   29.9363 C   0  0  0  0  0  0  0  0  0  0  0  0
   10.6734  -22.5091   30.4023 C   0  0  0  0  0  0  0  0  0  0  0  0
   11.6533  -23.6052   30.5718 N   0  0  0  0  0  0  0  0  0  0  0  0
   10.9022  -16.4007   28.6837 C   0  0  0  0  0  0  0  0  0  0  0  0
   10.3486  -15.5904   27.9093 O   0  0  0  0  0  0  0  0  0  0  0  0
   12.1348  -16.0403   29.2270 O   0  0  0  0  0  0  0  0  0  0  0  0
  2  1  1  0
  3  2  2  0
  4  3  1  0
  5  4  2  0
  5 11  1  0
  6  5  1  0
  7  9  1  0
  7  8  1  6
  7  6  1  0
  9 15  1  0
 10  9  2  0
 11 12  2  0
 12  2  1  0
 14 13  1  6
 15 14  1  0
 16 18  1  0
 16 14  1  0
 17 16  2  0
 19 18  1  0
 19 25  1  0
 19 20  1  6
 21 20  1  0
 22 23  1  0
 22 21  1  0
 24 23  1  0
 25 27  1  0
 26 25  2  0
M  END
$$$$
