YAK.pdb
     RDKit          3D

 27 27  0  0  1  0  0  0  0  0999 V2000
    5.0571  -10.5735   27.6212 O   0  0  0  0  0  0  0  0  0  0  0  0
    5.9631  -11.5386   27.2339 C   0  0  0  0  0  0  0  0  0  0  0  0
    5.7162  -12.2477   26.0727 C   0  0  0  0  0  0  0  0  0  0  0  0
    6.6190  -13.2269   25.6639 C   0  0  0  0  0  0  0  0  0  0  0  0
    7.7538  -13.5033   26.3939 C   0  0  0  0  0  0  0  0  0  0  0  0
    8.7066  -14.5461   25.9502 C   0  0  0  0  0  0  0  0  0  0  0  0
    8.0096  -15.4125   24.9304 C   0  0  2  0  0  0  0  0  0  0  0  0
    7.1179  -16.2977   25.6490 N   0  0  0  0  0  0  0  0  0  0  0  0
    8.9198  -16.2034   24.1049 C   0  0  0  0  0  0  0  0  0  0  0  0
    9.2015  -17.3794   24.4339 O   0  0  0  0  0  0  0  0  0  0  0  0
    7.9737  -12.7853   27.5407 C   0  0  0  0  0  0  0  0  0  0  0  0
    7.0822  -11.7985   27.9702 C   0  0  0  0  0  0  0  0  0  0  0  0
   10.5649  -16.0987   20.7087 C   0  0  0  0  0  0  0  0  0  0  0  0
   10.4763  -16.4987   22.1634 C   0  0  2  0  0  0  0  0  0  0  0  0
    9.5352  -15.7288   22.9133 N   0  0  0  0  0  0  0  0  0  0  0  0
   11.8400  -16.4551   22.7737 C   0  0  0  0  0  0  0  0  0  0  0  0
   12.2997  -15.3480   23.1346 O   0  0  0  0  0  0  0  0  0  0  0  0
   12.6246  -17.6202   22.9557 N   0  0  0  0  0  0  0  0  0  0  0  0
   13.9842  -17.6132   23.4805 C   0  0  1  0  0  0  0  0  0  0  0  0
   14.5196  -18.9928   23.6482 C   0  0  0  0  0  0  0  0  0  0  0  0
   15.8416  -19.1224   24.2991 C   0  0  0  0  0  0  0  0  0  0  0  0
   16.3637  -20.4782   24.5681 C   0  0  0  0  0  0  0  0  0  0  0  0
   17.7077  -20.5370   25.2418 C   0  0  0  0  0  0  0  0  0  0  0  0
   18.1066  -21.9495   25.4321 N   0  0  0  0  0  0  0  0  0  0  0  0
   14.8463  -16.6579   22.7796 C   0  0  0  0  0  0  0  0  0  0  0  0
   15.5284  -15.8405   23.4347 O   0  0  0  0  0  0  0  0  0  0  0  0
   14.9434  -16.6167   21.3891 O   0  0  0  0  0  0  0  0  0  0  0  0
  2  1  1  0
  3  2  2  0
  4  3  1  0
  5  4  2  0
  5 11  1  0
  6  5  1  0
  7  9  1  0
  7  8  1  1
  7  6  1  0
  9 15  1  0
 10  9  2  0
 11 12  2  0
 12  2  1  0
 14 13  1  6
 15 14  1  0
 16 18  1  0
 16 14  1  0
 17 16  2  0
 19 18  1  0
 19 25  1  0
 19 20  1  6
 21 20  1  0
 22 23  1  0
 22 21  1  0
 24 23  1  0
 25 27  1  0
 26 25  2  0
M  END
$$$$
