YAK.pdb
     RDKit          3D

 27 27  0  0  1  0  0  0  0  0999 V2000
    5.2944   -9.9271   25.9648 O   0  0  0  0  0  0  0  0  0  0  0  0
    5.9843  -11.1214   25.9684 C   0  0  0  0  0  0  0  0  0  0  0  0
    6.8482  -11.3877   24.9220 C   0  0  0  0  0  0  0  0  0  0  0  0
    7.5546  -12.5884   24.9067 C   0  0  0  0  0  0  0  0  0  0  0  0
    7.4098  -13.5166   25.9140 C   0  0  0  0  0  0  0  0  0  0  0  0
    8.1656  -14.7895   25.8878 C   0  0  0  0  0  0  0  0  0  0  0  0
    7.5735  -15.6623   24.8088 C   0  0  2  0  0  0  0  0  0  0  0  0
    6.3310  -16.2017   25.3193 N   0  0  0  0  0  0  0  0  0  0  0  0
    8.4444  -16.7584   24.3903 C   0  0  0  0  0  0  0  0  0  0  0  0
    8.5074  -17.8052   25.0765 O   0  0  0  0  0  0  0  0  0  0  0  0
    6.5469  -13.2267   26.9389 C   0  0  0  0  0  0  0  0  0  0  0  0
    5.8278  -12.0290   26.9754 C   0  0  0  0  0  0  0  0  0  0  0  0
   10.9514  -17.5179   21.6195 C   0  0  0  0  0  0  0  0  0  0  0  0
   10.2219  -17.7431   22.9238 C   0  0  2  0  0  0  0  0  0  0  0  0
    9.2573  -16.7327   23.2230 N   0  0  0  0  0  0  0  0  0  0  0  0
   11.2173  -17.9036   24.0273 C   0  0  0  0  0  0  0  0  0  0  0  0
   11.7838  -16.8816   24.4764 O   0  0  0  0  0  0  0  0  0  0  0  0
   11.5382  -19.1684   24.5781 N   0  0  0  0  0  0  0  0  0  0  0  0
   12.4340  -19.3600   25.7115 C   0  0  1  0  0  0  0  0  0  0  0  0
   11.8390  -20.2557   26.7419 C   0  0  0  0  0  0  0  0  0  0  0  0
   12.6408  -20.4976   27.9612 C   0  0  0  0  0  0  0  0  0  0  0  0
   12.1063  -21.4211   28.9833 C   0  0  0  0  0  0  0  0  0  0  0  0
   12.9545  -21.5921   30.2142 C   0  0  0  0  0  0  0  0  0  0  0  0
   12.3361  -22.5966   31.1080 N   0  0  0  0  0  0  0  0  0  0  0  0
   13.8044  -19.6656   25.2922 C   0  0  0  0  0  0  0  0  0  0  0  0
   14.0018  -20.3316   24.2529 O   0  0  0  0  0  0  0  0  0  0  0  0
   14.9204  -19.2404   26.0119 O   0  0  0  0  0  0  0  0  0  0  0  0
  2  1  1  0
  3  2  2  0
  4  3  1  0
  5  4  2  0
  5 11  1  0
  6  5  1  0
  7  9  1  0
  7  8  1  1
  7  6  1  0
  9 15  1  0
 10  9  2  0
 11 12  2  0
 12  2  1  0
 14 13  1  6
 15 14  1  0
 16 18  1  0
 16 14  1  0
 17 16  2  0
 19 18  1  0
 19 25  1  0
 19 20  1  1
 21 20  1  0
 22 23  1  0
 22 21  1  0
 24 23  1  0
 25 27  1  0
 26 25  2  0
M  END
$$$$
