TFG.pdb
     RDKit          3D

 23 23  0  0  1  0  0  0  0  0999 V2000
   22.1546   -8.4320  -21.5294 C   0  0  0  0  0  0  0  0  0  0  0  0
   21.4708   -7.8605  -20.3062 C   0  0  1  0  0  0  0  0  0  0  0  0
   20.1150   -8.1741  -20.3865 O   0  0  0  0  0  0  0  0  0  0  0  0
   22.0116   -8.4998  -19.0493 C   0  0  2  0  0  0  0  0  0  0  0  0
   21.7433   -9.9208  -19.0805 N   0  0  0  0  0  0  0  0  0  0  0  0
   21.4910   -7.8510  -17.8200 C   0  0  0  0  0  0  0  0  0  0  0  0
   20.6218   -8.4526  -17.1645 O   0  0  0  0  0  0  0  0  0  0  0  0
   21.9189   -6.5919  -17.3440 N   0  0  0  0  0  0  0  0  0  0  0  0
   21.5005   -5.9865  -16.1232 C   0  0  1  0  0  0  0  0  0  0  0  0
   22.7197   -5.8817  -15.2126 C   0  0  0  0  0  0  0  0  0  0  0  0
   23.2897   -7.2076  -14.9028 C   0  0  0  0  0  0  0  0  0  0  0  0
   24.3786   -7.7186  -15.5753 C   0  0  0  0  0  0  0  0  0  0  0  0
   24.9159   -8.9557  -15.2916 C   0  0  0  0  0  0  0  0  0  0  0  0
   24.3382   -9.7152  -14.2907 C   0  0  0  0  0  0  0  0  0  0  0  0
   23.2373   -9.2364  -13.5870 C   0  0  0  0  0  0  0  0  0  0  0  0
   22.7243   -7.9753  -13.9079 C   0  0  0  0  0  0  0  0  0  0  0  0
   20.9147   -4.6657  -16.2458 C   0  0  0  0  0  0  0  0  0  0  0  0
   21.4895   -3.7615  -16.8876 O   0  0  0  0  0  0  0  0  0  0  0  0
   19.6723   -4.3787  -15.6350 N   0  0  0  0  0  0  0  0  0  0  0  0
   19.0804   -3.0627  -15.8343 C   0  0  0  0  0  0  0  0  0  0  0  0
   19.8108   -2.0539  -15.0481 C   0  0  0  0  0  0  0  0  0  0  0  0
   20.1409   -0.9574  -15.5640 O   0  0  0  0  0  0  0  0  0  0  0  0
   20.1364   -2.3071  -13.7409 O   0  0  0  0  0  0  0  0  0  0  0  0
  2  1  1  6
  2  4  1  0
  3  2  1  0
  4  5  1  1
  6  4  1  0
  7  6  2  0
  8  6  1  0
  9  8  1  0
  9 10  1  1
 10 11  1  0
 11 12  2  0
 11 16  1  0
 12 13  1  0
 13 14  2  0
 15 14  1  0
 16 15  2  0
 17 19  1  0
 17  9  1  0
 18 17  2  0
 20 19  1  0
 21 20  1  0
 21 23  1  0
 22 21  2  0
M  END
$$$$
