TFG.pdb
     RDKit          3D

 23 23  0  0  1  0  0  0  0  0999 V2000
   12.1919  -12.8818    5.4030 C   0  0  0  0  0  0  0  0  0  0  0  0
   13.4008  -13.6376    5.9107 C   0  0  1  0  0  0  0  0  0  0  0  0
   13.3683  -14.9181    5.3612 O   0  0  0  0  0  0  0  0  0  0  0  0
   14.6749  -12.9746    5.4438 C   0  0  2  0  0  0  0  0  0  0  0  0
   14.6280  -12.8031    4.0083 N   0  0  0  0  0  0  0  0  0  0  0  0
   15.8860  -13.7089    5.8882 C   0  0  0  0  0  0  0  0  0  0  0  0
   16.5933  -14.2500    5.0199 O   0  0  0  0  0  0  0  0  0  0  0  0
   16.2894  -13.8340    7.2360 N   0  0  0  0  0  0  0  0  0  0  0  0
   17.4459  -14.5334    7.6888 C   0  0  1  0  0  0  0  0  0  0  0  0
   18.2424  -13.5885    8.5829 C   0  0  0  0  0  0  0  0  0  0  0  0
   19.2350  -12.8116    7.8149 C   0  0  0  0  0  0  0  0  0  0  0  0
   20.5927  -12.9921    7.9678 C   0  0  0  0  0  0  0  0  0  0  0  0
   21.5252  -12.2703    7.2544 C   0  0  0  0  0  0  0  0  0  0  0  0
   21.0796  -11.3259    6.3477 C   0  0  0  0  0  0  0  0  0  0  0  0
   19.7171  -11.1122    6.1626 C   0  0  0  0  0  0  0  0  0  0  0  0
   18.8055  -11.8673    6.9079 C   0  0  0  0  0  0  0  0  0  0  0  0
   17.1916  -15.7513    8.4337 C   0  0  0  0  0  0  0  0  0  0  0  0
   16.1916  -15.8584    9.1741 O   0  0  0  0  0  0  0  0  0  0  0  0
   18.0803  -16.8463    8.3320 N   0  0  0  0  0  0  0  0  0  0  0  0
   17.8074  -18.0455    9.1127 C   0  0  0  0  0  0  0  0  0  0  0  0
   16.9429  -18.9616    8.3493 C   0  0  0  0  0  0  0  0  0  0  0  0
   16.1927  -18.5251    7.4415 O   0  0  0  0  0  0  0  0  0  0  0  0
   16.9519  -20.3039    8.6268 O   0  0  0  0  0  0  0  0  0  0  0  0
  2  1  1  6
  2  4  1  0
  3  2  1  0
  4  5  1  6
  6  4  1  0
  7  6  2  0
  8  6  1  0
  9  8  1  0
  9 10  1  1
 10 11  1  0
 11 12  2  0
 11 16  1  0
 12 13  1  0
 13 14  2  0
 15 14  1  0
 16 15  2  0
 17 19  1  0
 17  9  1  0
 18 17  2  0
 20 19  1  0
 21 20  1  0
 21 23  1  0
 22 21  2  0
M  END
$$$$
