TFG.pdb
     RDKit          3D

 23 23  0  0  1  0  0  0  0  0999 V2000
   14.6994  -17.4674   10.0142 C   0  0  0  0  0  0  0  0  0  0  0  0
   14.0409  -16.1128   10.1619 C   0  0  1  0  0  0  0  0  0  0  0  0
   13.9399  -15.8308   11.5232 O   0  0  0  0  0  0  0  0  0  0  0  0
   14.8963  -15.0365    9.5368 C   0  0  2  0  0  0  0  0  0  0  0  0
   14.3756  -13.7375    9.9026 N   0  0  0  0  0  0  0  0  0  0  0  0
   15.0245  -15.2031    8.0674 C   0  0  0  0  0  0  0  0  0  0  0  0
   13.9817  -15.2478    7.3908 O   0  0  0  0  0  0  0  0  0  0  0  0
   16.2560  -15.3144    7.3849 N   0  0  0  0  0  0  0  0  0  0  0  0
   16.4054  -15.5450    5.9862 C   0  0  1  0  0  0  0  0  0  0  0  0
   17.6213  -14.7564    5.5106 C   0  0  0  0  0  0  0  0  0  0  0  0
   17.7785  -14.8203    4.0443 C   0  0  0  0  0  0  0  0  0  0  0  0
   18.5407  -15.7869    3.4248 C   0  0  0  0  0  0  0  0  0  0  0  0
   18.6920  -15.8525    2.0565 C   0  0  0  0  0  0  0  0  0  0  0  0
   18.0524  -14.9092    1.2732 C   0  0  0  0  0  0  0  0  0  0  0  0
   17.2731  -13.9160    1.8586 C   0  0  0  0  0  0  0  0  0  0  0  0
   17.1469  -13.8869    3.2514 C   0  0  0  0  0  0  0  0  0  0  0  0
   16.5845  -16.9295    5.5938 C   0  0  0  0  0  0  0  0  0  0  0  0
   16.4781  -17.2813    4.4002 O   0  0  0  0  0  0  0  0  0  0  0  0
   16.8851  -17.9114    6.5657 N   0  0  0  0  0  0  0  0  0  0  0  0
   17.0212  -19.2985    6.1421 C   0  0  0  0  0  0  0  0  0  0  0  0
   15.8077  -20.0567    6.4914 C   0  0  0  0  0  0  0  0  0  0  0  0
   14.8382  -19.4885    7.0524 O   0  0  0  0  0  0  0  0  0  0  0  0
   15.7288  -21.3947    6.2047 O   0  0  0  0  0  0  0  0  0  0  0  0
  2  1  1  1
  2  4  1  0
  3  2  1  0
  4  5  1  6
  6  4  1  0
  7  6  2  0
  8  6  1  0
  9  8  1  0
  9 10  1  1
 10 11  1  0
 11 12  2  0
 11 16  1  0
 12 13  1  0
 13 14  2  0
 15 14  1  0
 16 15  2  0
 17 19  1  0
 17  9  1  0
 18 17  2  0
 20 19  1  0
 21 20  1  0
 21 23  1  0
 22 21  2  0
M  END
$$$$
