TFG.pdb
     RDKit          3D

 23 23  0  0  1  0  0  0  0  0999 V2000
   26.5976  -18.2931  -14.3627 C   0  0  0  0  0  0  0  0  0  0  0  0
   27.6035  -19.3456  -14.7756 C   0  0  1  0  0  0  0  0  0  0  0  0
   28.6555  -18.7024  -15.4256 O   0  0  0  0  0  0  0  0  0  0  0  0
   28.1750  -20.0382  -13.5611 C   0  0  2  0  0  0  0  0  0  0  0  0
   29.2426  -20.9234  -13.9720 N   0  0  0  0  0  0  0  0  0  0  0  0
   27.1316  -20.7369  -12.7696 C   0  0  0  0  0  0  0  0  0  0  0  0
   26.8252  -21.8961  -13.1003 O   0  0  0  0  0  0  0  0  0  0  0  0
   26.4619  -20.1705  -11.6626 N   0  0  0  0  0  0  0  0  0  0  0  0
   25.4116  -20.7937  -10.9275 C   0  0  1  0  0  0  0  0  0  0  0  0
   25.2796  -20.0652   -9.5938 C   0  0  0  0  0  0  0  0  0  0  0  0
   26.5282  -20.1257   -8.8089 C   0  0  0  0  0  0  0  0  0  0  0  0
   27.4659  -21.1194   -8.9885 C   0  0  0  0  0  0  0  0  0  0  0  0
   28.6337  -21.1823   -8.2592 C   0  0  0  0  0  0  0  0  0  0  0  0
   28.8740  -20.2077   -7.3080 C   0  0  0  0  0  0  0  0  0  0  0  0
   27.9530  -19.1865   -7.0948 C   0  0  0  0  0  0  0  0  0  0  0  0
   26.7808  -19.1613   -7.8576 C   0  0  0  0  0  0  0  0  0  0  0  0
   24.1115  -20.7966  -11.5699 C   0  0  0  0  0  0  0  0  0  0  0  0
   23.7554  -19.8566  -12.3110 O   0  0  0  0  0  0  0  0  0  0  0  0
   23.2191  -21.8739  -11.3651 N   0  0  0  0  0  0  0  0  0  0  0  0
   22.0686  -22.0089  -12.2485 C   0  0  0  0  0  0  0  0  0  0  0  0
   21.0201  -21.0477  -11.8660 C   0  0  0  0  0  0  0  0  0  0  0  0
   20.3213  -21.2387  -10.8400 O   0  0  0  0  0  0  0  0  0  0  0  0
   20.7995  -19.9326  -12.6319 O   0  0  0  0  0  0  0  0  0  0  0  0
  2  1  1  1
  2  4  1  0
  3  2  1  0
  4  5  1  6
  6  4  1  0
  7  6  2  0
  8  6  1  0
  9  8  1  0
  9 10  1  1
 10 11  1  0
 11 12  2  0
 11 16  1  0
 12 13  1  0
 13 14  2  0
 15 14  1  0
 16 15  2  0
 17 19  1  0
 17  9  1  0
 18 17  2  0
 20 19  1  0
 21 20  1  0
 21 23  1  0
 22 21  2  0
M  END
$$$$
