TFG.pdb
     RDKit          3D

 23 23  0  0  1  0  0  0  0  0999 V2000
   25.1549  -19.3173  -12.9546 C   0  0  0  0  0  0  0  0  0  0  0  0
   26.0205  -20.3845  -13.5887 C   0  0  1  0  0  0  0  0  0  0  0  0
   26.2564  -20.0156  -14.9120 O   0  0  0  0  0  0  0  0  0  0  0  0
   27.3588  -20.4640  -12.8933 C   0  0  2  0  0  0  0  0  0  0  0  0
   28.2442  -21.3185  -13.6538 N   0  0  0  0  0  0  0  0  0  0  0  0
   27.2323  -20.8940  -11.4783 C   0  0  0  0  0  0  0  0  0  0  0  0
   27.1604  -22.1130  -11.2417 O   0  0  0  0  0  0  0  0  0  0  0  0
   27.1881  -20.0077  -10.3795 N   0  0  0  0  0  0  0  0  0  0  0  0
   27.0673  -20.3943   -9.0129 C   0  0  1  0  0  0  0  0  0  0  0  0
   27.5197  -19.2181   -8.1535 C   0  0  0  0  0  0  0  0  0  0  0  0
   27.7365  -19.6154   -6.7486 C   0  0  0  0  0  0  0  0  0  0  0  0
   26.8244  -19.3379   -5.7535 C   0  0  0  0  0  0  0  0  0  0  0  0
   27.0202  -19.7056   -4.4398 C   0  0  0  0  0  0  0  0  0  0  0  0
   28.1802  -20.3809   -4.1067 C   0  0  0  0  0  0  0  0  0  0  0  0
   29.1274  -20.6809   -5.0811 C   0  0  0  0  0  0  0  0  0  0  0  0
   28.8878  -20.2888   -6.4022 C   0  0  0  0  0  0  0  0  0  0  0  0
   25.7365  -20.7797   -8.5846 C   0  0  0  0  0  0  0  0  0  0  0  0
   25.5346  -21.2437   -7.4429 O   0  0  0  0  0  0  0  0  0  0  0  0
   24.6370  -20.6346   -9.4616 N   0  0  0  0  0  0  0  0  0  0  0  0
   23.3053  -20.9735   -8.9782 C   0  0  0  0  0  0  0  0  0  0  0  0
   22.3079  -20.7448  -10.0376 C   0  0  0  0  0  0  0  0  0  0  0  0
   21.0796  -20.8186   -9.7859 O   0  0  0  0  0  0  0  0  0  0  0  0
   22.7166  -20.4483  -11.3119 O   0  0  0  0  0  0  0  0  0  0  0  0
  2  1  1  1
  2  4  1  0
  3  2  1  0
  4  5  1  6
  6  4  1  0
  7  6  2  0
  8  6  1  0
  9  8  1  0
  9 10  1  1
 10 11  1  0
 11 12  2  0
 11 16  1  0
 12 13  1  0
 13 14  2  0
 15 14  1  0
 16 15  2  0
 17 19  1  0
 17  9  1  0
 18 17  2  0
 20 19  1  0
 21 20  1  0
 21 23  1  0
 22 21  2  0
M  END
$$$$
