TFG.pdb
     RDKit          3D

 23 23  0  0  1  0  0  0  0  0999 V2000
   28.5401  -18.2672  -15.6256 C   0  0  0  0  0  0  0  0  0  0  0  0
   27.4810  -19.1099  -14.9485 C   0  0  1  0  0  0  0  0  0  0  0  0
   26.7471  -19.7564  -15.9415 O   0  0  0  0  0  0  0  0  0  0  0  0
   28.1203  -20.1749  -14.0893 C   0  0  2  0  0  0  0  0  0  0  0  0
   28.8747  -21.0794  -14.9291 N   0  0  0  0  0  0  0  0  0  0  0  0
   27.1290  -20.8823  -13.2406 C   0  0  0  0  0  0  0  0  0  0  0  0
   26.8298  -22.0514  -13.5419 O   0  0  0  0  0  0  0  0  0  0  0  0
   26.5013  -20.3138  -12.1103 N   0  0  0  0  0  0  0  0  0  0  0  0
   25.4560  -20.9212  -11.3552 C   0  0  1  0  0  0  0  0  0  0  0  0
   25.3364  -20.1680  -10.0342 C   0  0  0  0  0  0  0  0  0  0  0  0
   26.5157  -20.3800   -9.1722 C   0  0  0  0  0  0  0  0  0  0  0  0
   26.6094  -19.8468   -7.9049 C   0  0  0  0  0  0  0  0  0  0  0  0
   27.7074  -20.0403   -7.0946 C   0  0  0  0  0  0  0  0  0  0  0  0
   28.7584  -20.8009   -7.5736 C   0  0  0  0  0  0  0  0  0  0  0  0
   28.7042  -21.3575   -8.8478 C   0  0  0  0  0  0  0  0  0  0  0  0
   27.5704  -21.1356   -9.6364 C   0  0  0  0  0  0  0  0  0  0  0  0
   24.1507  -20.9334  -11.9868 C   0  0  0  0  0  0  0  0  0  0  0  0
   23.8368  -20.0744  -12.8372 O   0  0  0  0  0  0  0  0  0  0  0  0
   23.2047  -21.9274  -11.6461 N   0  0  0  0  0  0  0  0  0  0  0  0
   21.9526  -21.9873  -12.3882 C   0  0  0  0  0  0  0  0  0  0  0  0
   21.1733  -20.7570  -12.1680 C   0  0  0  0  0  0  0  0  0  0  0  0
   20.4468  -20.6339  -11.1509 O   0  0  0  0  0  0  0  0  0  0  0  0
   21.2366  -19.7331  -13.0771 O   0  0  0  0  0  0  0  0  0  0  0  0
  2  1  1  6
  2  4  1  0
  3  2  1  0
  4  5  1  6
  6  4  1  0
  7  6  2  0
  8  6  1  0
  9  8  1  0
  9 10  1  1
 10 11  1  0
 11 12  2  0
 11 16  1  0
 12 13  1  0
 13 14  2  0
 15 14  1  0
 16 15  2  0
 17 19  1  0
 17  9  1  0
 18 17  2  0
 20 19  1  0
 21 20  1  0
 21 23  1  0
 22 21  2  0
M  END
$$$$
