TFG.pdb
     RDKit          3D

 23 23  0  0  1  0  0  0  0  0999 V2000
   31.0877    3.9542   -4.0736 C   0  0  0  0  0  0  0  0  0  0  0  0
   31.3102    2.9202   -5.1559 C   0  0  1  0  0  0  0  0  0  0  0  0
   32.6745    2.6399   -5.2078 O   0  0  0  0  0  0  0  0  0  0  0  0
   30.5945    1.6344   -4.8158 C   0  0  2  0  0  0  0  0  0  0  0  0
   30.9157    0.6305   -5.8064 N   0  0  0  0  0  0  0  0  0  0  0  0
   29.1313    1.8299   -4.6599 C   0  0  0  0  0  0  0  0  0  0  0  0
   28.3928    1.4939   -5.6027 O   0  0  0  0  0  0  0  0  0  0  0  0
   28.5207    2.3737   -3.5084 N   0  0  0  0  0  0  0  0  0  0  0  0
   27.1250    2.6187   -3.3531 C   0  0  1  0  0  0  0  0  0  0  0  0
   26.7726    2.3958   -1.8859 C   0  0  0  0  0  0  0  0  0  0  0  0
   26.2290    1.0438   -1.6507 C   0  0  0  0  0  0  0  0  0  0  0  0
   24.8995    0.7382   -1.8464 C   0  0  0  0  0  0  0  0  0  0  0  0
   24.3849   -0.5216   -1.6286 C   0  0  0  0  0  0  0  0  0  0  0  0
   25.2382   -1.5202   -1.1959 C   0  0  0  0  0  0  0  0  0  0  0  0
   26.5879   -1.2539   -0.9859 C   0  0  0  0  0  0  0  0  0  0  0  0
   27.0676    0.0391   -1.2194 C   0  0  0  0  0  0  0  0  0  0  0  0
   26.6749    3.9452   -3.7282 C   0  0  0  0  0  0  0  0  0  0  0  0
   27.2340    4.9678   -3.2793 O   0  0  0  0  0  0  0  0  0  0  0  0
   25.5859    4.1024   -4.6161 N   0  0  0  0  0  0  0  0  0  0  0  0
   25.1866    5.4484   -5.0043 C   0  0  0  0  0  0  0  0  0  0  0  0
   24.0316    5.3914   -5.9166 C   0  0  0  0  0  0  0  0  0  0  0  0
   23.5811    4.2867   -6.3093 O   0  0  0  0  0  0  0  0  0  0  0  0
   23.4380    6.5503   -6.3448 O   0  0  0  0  0  0  0  0  0  0  0  0
  2  1  1  1
  2  4  1  0
  3  2  1  0
  4  5  1  6
  6  4  1  0
  7  6  2  0
  8  6  1  0
  9  8  1  0
  9 10  1  1
 10 11  1  0
 11 12  2  0
 11 16  1  0
 12 13  1  0
 13 14  2  0
 15 14  1  0
 16 15  2  0
 17 19  1  0
 17  9  1  0
 18 17  2  0
 20 19  1  0
 21 20  1  0
 21 23  1  0
 22 21  2  0
M  END
$$$$
