TFG.pdb
     RDKit          3D

 23 23  0  0  1  0  0  0  0  0999 V2000
   20.6920  -12.2672  -19.9529 C   0  0  0  0  0  0  0  0  0  0  0  0
   20.8405  -11.3210  -18.7812 C   0  0  1  0  0  0  0  0  0  0  0  0
   19.7148  -11.4606  -17.9713 O   0  0  0  0  0  0  0  0  0  0  0  0
   22.0467  -11.6906  -17.9509 C   0  0  2  0  0  0  0  0  0  0  0  0
   21.8499  -13.0040  -17.3776 N   0  0  0  0  0  0  0  0  0  0  0  0
   22.3584  -10.6645  -16.9245 C   0  0  0  0  0  0  0  0  0  0  0  0
   22.1281  -10.9398  -15.7336 O   0  0  0  0  0  0  0  0  0  0  0  0
   22.9008   -9.3925  -17.2119 N   0  0  0  0  0  0  0  0  0  0  0  0
   23.3303   -8.4411  -16.2413 C   0  0  1  0  0  0  0  0  0  0  0  0
   24.7652   -8.0473  -16.5770 C   0  0  0  0  0  0  0  0  0  0  0  0
   25.6913   -9.1902  -16.4559 C   0  0  0  0  0  0  0  0  0  0  0  0
   26.0869   -9.6939  -15.2356 C   0  0  0  0  0  0  0  0  0  0  0  0
   26.9513  -10.7605  -15.1148 C   0  0  0  0  0  0  0  0  0  0  0  0
   27.4418  -11.3494  -16.2660 C   0  0  0  0  0  0  0  0  0  0  0  0
   27.0676  -10.8717  -17.5183 C   0  0  0  0  0  0  0  0  0  0  0  0
   26.1879   -9.7868  -17.5944 C   0  0  0  0  0  0  0  0  0  0  0  0
   22.5385   -7.2292  -16.1567 C   0  0  0  0  0  0  0  0  0  0  0  0
   22.3312   -6.5216  -17.1647 O   0  0  0  0  0  0  0  0  0  0  0  0
   21.9838   -6.8265  -14.9201 N   0  0  0  0  0  0  0  0  0  0  0  0
   21.1213   -5.6530  -14.8875 C   0  0  0  0  0  0  0  0  0  0  0  0
   19.7505   -6.0201  -15.2820 C   0  0  0  0  0  0  0  0  0  0  0  0
   19.2062   -5.4822  -16.2779 O   0  0  0  0  0  0  0  0  0  0  0  0
   19.0567   -6.9565  -14.5605 O   0  0  0  0  0  0  0  0  0  0  0  0
  2  1  1  6
  2  4  1  0
  3  2  1  0
  4  5  1  1
  6  4  1  0
  7  6  2  0
  8  6  1  0
  9  8  1  0
  9 10  1  6
 10 11  1  0
 11 12  2  0
 11 16  1  0
 12 13  1  0
 13 14  2  0
 15 14  1  0
 16 15  2  0
 17 19  1  0
 17  9  1  0
 18 17  2  0
 20 19  1  0
 21 20  1  0
 21 23  1  0
 22 21  2  0
M  END
$$$$
