TFG.pdb
     RDKit          3D

 23 23  0  0  1  0  0  0  0  0999 V2000
   27.2418  -21.0681  -19.1015 C   0  0  0  0  0  0  0  0  0  0  0  0
   26.4999  -21.1214  -17.7836 C   0  0  1  0  0  0  0  0  0  0  0  0
   25.1827  -21.4934  -18.0472 O   0  0  0  0  0  0  0  0  0  0  0  0
   27.0978  -22.1744  -16.8809 C   0  0  2  0  0  0  0  0  0  0  0  0
   27.0814  -23.4523  -17.5586 N   0  0  0  0  0  0  0  0  0  0  0  0
   26.4285  -22.2257  -15.5570 C   0  0  0  0  0  0  0  0  0  0  0  0
   25.7516  -23.2325  -15.2826 O   0  0  0  0  0  0  0  0  0  0  0  0
   26.5099  -21.2038  -14.5855 N   0  0  0  0  0  0  0  0  0  0  0  0
   25.8109  -21.1898  -13.3433 C   0  0  1  0  0  0  0  0  0  0  0  0
   26.6299  -20.3638  -12.3565 C   0  0  0  0  0  0  0  0  0  0  0  0
   26.1059  -20.4731  -10.9809 C   0  0  0  0  0  0  0  0  0  0  0  0
   26.6390  -21.3430  -10.0545 C   0  0  0  0  0  0  0  0  0  0  0  0
   26.1548  -21.4505   -8.7686 C   0  0  0  0  0  0  0  0  0  0  0  0
   25.0899  -20.6522   -8.3928 C   0  0  0  0  0  0  0  0  0  0  0  0
   24.5221  -19.7602   -9.2975 C   0  0  0  0  0  0  0  0  0  0  0  0
   25.0452  -19.6838  -10.5926 C   0  0  0  0  0  0  0  0  0  0  0  0
   24.4688  -20.6423  -13.3842 C   0  0  0  0  0  0  0  0  0  0  0  0
   24.2397  -19.5327  -13.9096 O   0  0  0  0  0  0  0  0  0  0  0  0
   23.3889  -21.3632  -12.8246 N   0  0  0  0  0  0  0  0  0  0  0  0
   22.0816  -20.7245  -12.7531 C   0  0  0  0  0  0  0  0  0  0  0  0
   21.1086  -21.4679  -13.5718 C   0  0  0  0  0  0  0  0  0  0  0  0
   19.8915  -21.1582  -13.5565 O   0  0  0  0  0  0  0  0  0  0  0  0
   21.5281  -22.5080  -14.3597 O   0  0  0  0  0  0  0  0  0  0  0  0
  2  1  1  6
  2  4  1  0
  3  2  1  0
  4  5  1  6
  6  4  1  0
  7  6  2  0
  8  6  1  0
  9  8  1  0
  9 10  1  1
 10 11  1  0
 11 12  2  0
 11 16  1  0
 12 13  1  0
 13 14  2  0
 15 14  1  0
 16 15  2  0
 17 19  1  0
 17  9  1  0
 18 17  2  0
 20 19  1  0
 21 20  1  0
 21 23  1  0
 22 21  2  0
M  END
$$$$
