TFG.pdb
     RDKit          3D

 23 23  0  0  1  0  0  0  0  0999 V2000
   27.8560  -18.0436  -15.0093 C   0  0  0  0  0  0  0  0  0  0  0  0
   26.9641  -18.8356  -14.0779 C   0  0  1  0  0  0  0  0  0  0  0  0
   26.0082  -19.4905  -14.8527 O   0  0  0  0  0  0  0  0  0  0  0  0
   27.7618  -19.8921  -13.3510 C   0  0  2  0  0  0  0  0  0  0  0  0
   28.3946  -20.7638  -14.3164 N   0  0  0  0  0  0  0  0  0  0  0  0
   26.9397  -20.6385  -12.3659 C   0  0  0  0  0  0  0  0  0  0  0  0
   26.7551  -21.8533  -12.5592 O   0  0  0  0  0  0  0  0  0  0  0  0
   26.3517  -20.0586  -11.2202 N   0  0  0  0  0  0  0  0  0  0  0  0
   25.5655  -20.7538  -10.2556 C   0  0  1  0  0  0  0  0  0  0  0  0
   25.6406  -19.9770   -8.9450 C   0  0  0  0  0  0  0  0  0  0  0  0
   26.9693  -20.0933   -8.3127 C   0  0  0  0  0  0  0  0  0  0  0  0
   27.9315  -20.9667   -8.7716 C   0  0  0  0  0  0  0  0  0  0  0  0
   29.1740  -21.0808   -8.1862 C   0  0  0  0  0  0  0  0  0  0  0  0
   29.4669  -20.2859   -7.0931 C   0  0  0  0  0  0  0  0  0  0  0  0
   28.5236  -19.3907   -6.5978 C   0  0  0  0  0  0  0  0  0  0  0  0
   27.2749  -19.3075   -7.2228 C   0  0  0  0  0  0  0  0  0  0  0  0
   24.1669  -20.9307  -10.5951 C   0  0  0  0  0  0  0  0  0  0  0  0
   23.2880  -20.9762   -9.7090 O   0  0  0  0  0  0  0  0  0  0  0  0
   23.7732  -21.0555  -11.9473 N   0  0  0  0  0  0  0  0  0  0  0  0
   22.3983  -20.7384  -12.3094 C   0  0  0  0  0  0  0  0  0  0  0  0
   22.2420  -20.7590  -13.7738 C   0  0  0  0  0  0  0  0  0  0  0  0
   23.2132  -21.0466  -14.5164 O   0  0  0  0  0  0  0  0  0  0  0  0
   21.0285  -20.4628  -14.3382 O   0  0  0  0  0  0  0  0  0  0  0  0
  2  1  1  6
  2  4  1  0
  3  2  1  0
  4  5  1  6
  6  4  1  0
  7  6  2  0
  8  6  1  0
  9  8  1  0
  9 10  1  1
 10 11  1  0
 11 12  2  0
 11 16  1  0
 12 13  1  0
 13 14  2  0
 15 14  1  0
 16 15  2  0
 17 19  1  0
 17  9  1  0
 18 17  2  0
 20 19  1  0
 21 20  1  0
 21 23  1  0
 22 21  2  0
M  END
$$$$
