TFG.pdb
     RDKit          3D

 23 23  0  0  1  0  0  0  0  0999 V2000
   26.1534  -21.3584  -15.9694 C   0  0  0  0  0  0  0  0  0  0  0  0
   25.9380  -21.2088  -14.4789 C   0  0  1  0  0  0  0  0  0  0  0  0
   24.5650  -21.1445  -14.2479 O   0  0  0  0  0  0  0  0  0  0  0  0
   26.4668  -22.4170  -13.7430 C   0  0  2  0  0  0  0  0  0  0  0  0
   25.8315  -23.6093  -14.2599 N   0  0  0  0  0  0  0  0  0  0  0  0
   26.3192  -22.2879  -12.2716 C   0  0  0  0  0  0  0  0  0  0  0  0
   25.5420  -23.0667  -11.6914 O   0  0  0  0  0  0  0  0  0  0  0  0
   27.0051  -21.3365  -11.4847 N   0  0  0  0  0  0  0  0  0  0  0  0
   26.8055  -21.1227  -10.0896 C   0  0  1  0  0  0  0  0  0  0  0  0
   27.9408  -20.2372   -9.5863 C   0  0  0  0  0  0  0  0  0  0  0  0
   27.8494  -20.0000   -8.1323 C   0  0  0  0  0  0  0  0  0  0  0  0
   27.1408  -18.9450   -7.5993 C   0  0  0  0  0  0  0  0  0  0  0  0
   27.0512  -18.7173   -6.2430 C   0  0  0  0  0  0  0  0  0  0  0  0
   27.6993  -19.5836   -5.3815 C   0  0  0  0  0  0  0  0  0  0  0  0
   28.4258  -20.6616   -5.8783 C   0  0  0  0  0  0  0  0  0  0  0  0
   28.4901  -20.8551   -7.2621 C   0  0  0  0  0  0  0  0  0  0  0  0
   25.5496  -20.4969   -9.7237 C   0  0  0  0  0  0  0  0  0  0  0  0
   25.2179  -20.3664   -8.5267 O   0  0  0  0  0  0  0  0  0  0  0  0
   24.6734  -20.0205  -10.7258 N   0  0  0  0  0  0  0  0  0  0  0  0
   23.4070  -19.4234  -10.3238 C   0  0  0  0  0  0  0  0  0  0  0  0
   22.2830  -20.1945  -10.8820 C   0  0  0  0  0  0  0  0  0  0  0  0
   22.4937  -21.1874  -11.6216 O   0  0  0  0  0  0  0  0  0  0  0  0
   20.9928  -19.8308  -10.5959 O   0  0  0  0  0  0  0  0  0  0  0  0
  2  1  1  6
  2  4  1  0
  3  2  1  0
  4  5  1  6
  6  4  1  0
  7  6  2  0
  8  6  1  0
  9  8  1  0
  9 10  1  6
 10 11  1  0
 11 12  2  0
 11 16  1  0
 12 13  1  0
 13 14  2  0
 15 14  1  0
 16 15  2  0
 17 19  1  0
 17  9  1  0
 18 17  2  0
 20 19  1  0
 21 20  1  0
 21 23  1  0
 22 21  2  0
M  END
$$$$
