TFG.pdb
     RDKit          3D

 23 23  0  0  1  0  0  0  0  0999 V2000
   21.8377   -6.4708  -21.6276 C   0  0  0  0  0  0  0  0  0  0  0  0
   21.5722   -7.9455  -21.8396 C   0  0  1  0  0  0  0  0  0  0  0  0
   22.1094   -8.3052  -23.0745 O   0  0  0  0  0  0  0  0  0  0  0  0
   22.2715   -8.7674  -20.7829 C   0  0  2  0  0  0  0  0  0  0  0  0
   22.1551  -10.1710  -21.1124 N   0  0  0  0  0  0  0  0  0  0  0  0
   21.7787   -8.4626  -19.4164 C   0  0  0  0  0  0  0  0  0  0  0  0
   20.6350   -8.8429  -19.1089 O   0  0  0  0  0  0  0  0  0  0  0  0
   22.5248   -7.7672  -18.4394 N   0  0  0  0  0  0  0  0  0  0  0  0
   22.0344   -7.3561  -17.1657 C   0  0  1  0  0  0  0  0  0  0  0  0
   23.1992   -7.3975  -16.1817 C   0  0  0  0  0  0  0  0  0  0  0  0
   22.7500   -7.1979  -14.7899 C   0  0  0  0  0  0  0  0  0  0  0  0
   22.5943   -5.9453  -14.2368 C   0  0  0  0  0  0  0  0  0  0  0  0
   22.1755   -5.7513  -12.9381 C   0  0  0  0  0  0  0  0  0  0  0  0
   21.9004   -6.8597  -12.1581 C   0  0  0  0  0  0  0  0  0  0  0  0
   22.0447   -8.1424  -12.6779 C   0  0  0  0  0  0  0  0  0  0  0  0
   22.4723   -8.2931  -14.0012 C   0  0  0  0  0  0  0  0  0  0  0  0
   21.4496   -6.0301  -17.1162 C   0  0  0  0  0  0  0  0  0  0  0  0
   22.0927   -5.0264  -17.4885 O   0  0  0  0  0  0  0  0  0  0  0  0
   20.1299   -5.8517  -16.6411 N   0  0  0  0  0  0  0  0  0  0  0  0
   19.5750   -4.5054  -16.6014 C   0  0  0  0  0  0  0  0  0  0  0  0
   19.8396   -3.8864  -15.2914 C   0  0  0  0  0  0  0  0  0  0  0  0
   20.6787   -2.9584  -15.1806 O   0  0  0  0  0  0  0  0  0  0  0  0
   19.1676   -4.3218  -14.1789 O   0  0  0  0  0  0  0  0  0  0  0  0
  2  1  1  1
  2  4  1  0
  3  2  1  0
  4  5  1  6
  6  4  1  0
  7  6  2  0
  8  6  1  0
  9  8  1  0
  9 10  1  1
 10 11  1  0
 11 12  2  0
 11 16  1  0
 12 13  1  0
 13 14  2  0
 15 14  1  0
 16 15  2  0
 17 19  1  0
 17  9  1  0
 18 17  2  0
 20 19  1  0
 21 20  1  0
 21 23  1  0
 22 21  2  0
M  END
$$$$
