TFG.pdb
     RDKit          3D

 23 23  0  0  1  0  0  0  0  0999 V2000
   27.0955    6.0994   -8.3059 C   0  0  0  0  0  0  0  0  0  0  0  0
   28.1133    5.1430   -8.8885 C   0  0  1  0  0  0  0  0  0  0  0  0
   29.3383    5.8051   -8.9503 O   0  0  0  0  0  0  0  0  0  0  0  0
   28.2897    3.9434   -7.9881 C   0  0  2  0  0  0  0  0  0  0  0  0
   29.3036    3.0731   -8.5421 N   0  0  0  0  0  0  0  0  0  0  0  0
   27.0093    3.2354   -7.7376 C   0  0  0  0  0  0  0  0  0  0  0  0
   26.4565    2.6698   -8.6976 O   0  0  0  0  0  0  0  0  0  0  0  0
   26.3756    3.1615   -6.4776 N   0  0  0  0  0  0  0  0  0  0  0  0
   25.0901    2.5960   -6.2333 C   0  0  1  0  0  0  0  0  0  0  0  0
   25.2719    1.4185   -5.2809 C   0  0  0  0  0  0  0  0  0  0  0  0
   26.2010    0.4094   -5.8259 C   0  0  0  0  0  0  0  0  0  0  0  0
   27.4520    0.1918   -5.2901 C   0  0  0  0  0  0  0  0  0  0  0  0
   28.3247   -0.7484   -5.7938 C   0  0  0  0  0  0  0  0  0  0  0  0
   27.9285   -1.5045   -6.8819 C   0  0  0  0  0  0  0  0  0  0  0  0
   26.6736   -1.3166   -7.4531 C   0  0  0  0  0  0  0  0  0  0  0  0
   25.8195   -0.3512   -6.9097 C   0  0  0  0  0  0  0  0  0  0  0  0
   24.1083    3.4943   -5.6572 C   0  0  0  0  0  0  0  0  0  0  0  0
   24.2830    4.0057   -4.5313 O   0  0  0  0  0  0  0  0  0  0  0  0
   22.9270    3.8077   -6.3681 N   0  0  0  0  0  0  0  0  0  0  0  0
   21.9968    4.7698   -5.7927 C   0  0  0  0  0  0  0  0  0  0  0  0
   22.1405    6.0752   -6.4596 C   0  0  0  0  0  0  0  0  0  0  0  0
   21.2213    6.5261   -7.1870 O   0  0  0  0  0  0  0  0  0  0  0  0
   23.2850    6.8100   -6.2894 O   0  0  0  0  0  0  0  0  0  0  0  0
  2  1  1  1
  2  4  1  0
  3  2  1  0
  4  5  1  6
  6  4  1  0
  7  6  2  0
  8  6  1  0
  9  8  1  0
  9 10  1  1
 10 11  1  0
 11 12  2  0
 11 16  1  0
 12 13  1  0
 13 14  2  0
 15 14  1  0
 16 15  2  0
 17 19  1  0
 17  9  1  0
 18 17  2  0
 20 19  1  0
 21 20  1  0
 21 23  1  0
 22 21  2  0
M  END
$$$$
