TFG.pdb
     RDKit          3D

 23 23  0  0  1  0  0  0  0  0999 V2000
   12.7531  -20.4903    1.7561 C   0  0  0  0  0  0  0  0  0  0  0  0
   13.8952  -20.0234    2.6322 C   0  0  1  0  0  0  0  0  0  0  0  0
   14.1388  -21.0127    3.5834 O   0  0  0  0  0  0  0  0  0  0  0  0
   15.1554  -19.8569    1.8165 C   0  0  2  0  0  0  0  0  0  0  0  0
   15.5184  -21.1285    1.2303 N   0  0  0  0  0  0  0  0  0  0  0  0
   16.2613  -19.2597    2.6062 C   0  0  0  0  0  0  0  0  0  0  0  0
   17.2216  -19.9889    2.9117 O   0  0  0  0  0  0  0  0  0  0  0  0
   16.2953  -17.9144    3.0346 N   0  0  0  0  0  0  0  0  0  0  0  0
   17.3549  -17.3108    3.7727 C   0  0  1  0  0  0  0  0  0  0  0  0
   17.7540  -16.0275    3.0513 C   0  0  0  0  0  0  0  0  0  0  0  0
   19.0423  -16.1720    2.3454 C   0  0  0  0  0  0  0  0  0  0  0  0
   19.5040  -17.3891    1.8929 C   0  0  0  0  0  0  0  0  0  0  0  0
   20.7057  -17.5315    1.2334 C   0  0  0  0  0  0  0  0  0  0  0  0
   21.4801  -16.4063    1.0170 C   0  0  0  0  0  0  0  0  0  0  0  0
   21.0509  -15.1581    1.4577 C   0  0  0  0  0  0  0  0  0  0  0  0
   19.8243  -15.0594    2.1228 C   0  0  0  0  0  0  0  0  0  0  0  0
   17.0497  -16.9770    5.1505 C   0  0  0  0  0  0  0  0  0  0  0  0
   16.2760  -16.0376    5.4311 O   0  0  0  0  0  0  0  0  0  0  0  0
   17.6288  -17.7169    6.2070 N   0  0  0  0  0  0  0  0  0  0  0  0
   17.2977  -17.3566    7.5790 C   0  0  0  0  0  0  0  0  0  0  0  0
   17.9625  -18.2753    8.5190 C   0  0  0  0  0  0  0  0  0  0  0  0
   18.6212  -19.2572    8.0953 O   0  0  0  0  0  0  0  0  0  0  0  0
   17.8658  -18.0629    9.8696 O   0  0  0  0  0  0  0  0  0  0  0  0
  2  1  1  6
  2  4  1  0
  3  2  1  0
  4  5  1  1
  6  4  1  0
  7  6  2  0
  8  6  1  0
  9  8  1  0
  9 10  1  6
 10 11  1  0
 11 12  2  0
 11 16  1  0
 12 13  1  0
 13 14  2  0
 15 14  1  0
 16 15  2  0
 17 19  1  0
 17  9  1  0
 18 17  2  0
 20 19  1  0
 21 20  1  0
 21 23  1  0
 22 21  2  0
M  END
$$$$
