MWL.pdb
     RDKit          3D

 31 32  0  0  1  0  0  0  0  0999 V2000
   21.3261  -17.8567  -18.8736 C   0  0  0  0  0  0  0  0  0  0  0  0
   22.4401  -17.2432  -20.1623 S   0  0  0  0  0  0  0  0  0  0  0  0
   24.0910  -17.0062  -19.4638 C   0  0  0  0  0  0  0  0  0  0  0  0
   24.6008  -18.3399  -18.9530 C   0  0  0  0  0  0  0  0  0  0  0  0
   24.6019  -18.3310  -17.4236 C   0  0  2  0  0  0  0  0  0  0  0  0
   25.4265  -17.1953  -17.0434 N   0  0  0  0  0  0  0  0  0  0  0  0
   25.1743  -19.5921  -16.8905 C   0  0  0  0  0  0  0  0  0  0  0  0
   24.7689  -20.7145  -17.2571 O   0  0  0  0  0  0  0  0  0  0  0  0
   26.2283  -19.5746  -15.9222 N   0  0  0  0  0  0  0  0  0  0  0  0
   26.7771  -20.7892  -15.3648 C   0  0  1  0  0  0  0  0  0  0  0  0
   28.1404  -20.6122  -14.7759 C   0  0  0  0  0  0  0  0  0  0  0  0
   28.2230  -19.8873  -13.5134 C   0  0  0  0  0  0  0  0  0  0  0  0
   27.7050  -18.6868  -13.0912 C   0  0  0  0  0  0  0  0  0  0  0  0
   28.0884  -18.5112  -11.8218 N   0  0  0  0  0  0  0  0  0  0  0  0
   28.8324  -19.5423  -11.3972 C   0  0  0  0  0  0  0  0  0  0  0  0
   29.4612  -19.8490  -10.1961 C   0  0  0  0  0  0  0  0  0  0  0  0
   30.1865  -21.0162  -10.0199 C   0  0  0  0  0  0  0  0  0  0  0  0
   30.2896  -21.9074  -11.0734 C   0  0  0  0  0  0  0  0  0  0  0  0
   29.6678  -21.5932  -12.2451 C   0  0  0  0  0  0  0  0  0  0  0  0
   28.9387  -20.4271  -12.4330 C   0  0  0  0  0  0  0  0  0  0  0  0
   25.8327  -21.4812  -14.4667 C   0  0  0  0  0  0  0  0  0  0  0  0
   26.0091  -22.6979  -14.2298 O   0  0  0  0  0  0  0  0  0  0  0  0
   25.7406  -22.1790  -10.3610 C   0  0  0  0  0  0  0  0  0  0  0  0
   25.2131  -20.8729  -10.8204 C   0  0  2  0  0  0  0  0  0  0  0  0
   25.0955  -19.9654   -9.5643 C   0  0  0  0  0  0  0  0  0  0  0  0
   23.9542  -20.8028  -11.5824 C   0  0  0  0  0  0  0  0  0  0  0  0
   23.8653  -21.5279  -12.8582 C   0  0  2  0  0  0  0  0  0  0  0  0
   24.7359  -20.8371  -13.8594 N   0  0  0  0  0  0  0  0  0  0  0  0
   22.5440  -21.5417  -13.4659 C   0  0  0  0  0  0  0  0  0  0  0  0
   21.5467  -22.1885  -13.0837 O   0  0  0  0  0  0  0  0  0  0  0  0
   22.2797  -20.7597  -14.6231 O   0  0  0  0  0  0  0  0  0  0  0  0
  2  1  1  0
  3  2  1  0
  4  3  1  0
  5  4  1  0
  5  6  1  6
  7  5  1  0
  7  8  2  0
  9  7  1  0
 10 11  1  1
 10  9  1  0
 12 11  1  0
 12 13  2  0
 14 13  1  0
 15 14  1  0
 16 15  2  0
 17 16  1  0
 18 17  2  0
 18 19  1  0
 19 20  2  0
 20 15  1  0
 20 12  1  0
 21 10  1  0
 22 21  2  0
 24 23  1  1
 24 25  1  0
 24 26  1  0
 27 26  1  1
 27 28  1  0
 28 21  1  0
 29 27  1  0
 29 31  1  0
 30 29  2  0
M  END
$$$$
