MWL.pdb
     RDKit          3D

 31 32  0  0  1  0  0  0  0  0999 V2000
   31.3877  -23.0058  -17.6075 C   0  0  0  0  0  0  0  0  0  0  0  0
   30.2646  -24.0961  -18.5176 S   0  0  0  0  0  0  0  0  0  0  0  0
   28.7723  -23.1790  -18.9661 C   0  0  0  0  0  0  0  0  0  0  0  0
   28.4791  -22.1626  -17.8795 C   0  0  0  0  0  0  0  0  0  0  0  0
   27.7072  -22.8395  -16.7459 C   0  0  2  0  0  0  0  0  0  0  0  0
   26.4617  -23.2939  -17.3426 N   0  0  0  0  0  0  0  0  0  0  0  0
   27.4385  -21.8802  -15.6460 C   0  0  0  0  0  0  0  0  0  0  0  0
   28.3540  -21.2678  -15.0583 O   0  0  0  0  0  0  0  0  0  0  0  0
   26.1024  -21.6131  -15.2078 N   0  0  0  0  0  0  0  0  0  0  0  0
   25.8086  -20.6062  -14.2141 C   0  0  1  0  0  0  0  0  0  0  0  0
   24.9682  -19.4834  -14.7333 C   0  0  0  0  0  0  0  0  0  0  0  0
   25.3643  -18.9002  -16.0096 C   0  0  0  0  0  0  0  0  0  0  0  0
   24.7121  -18.7501  -17.2094 C   0  0  0  0  0  0  0  0  0  0  0  0
   25.5518  -18.1291  -18.0451 N   0  0  0  0  0  0  0  0  0  0  0  0
   26.7215  -17.8674  -17.4449 C   0  0  0  0  0  0  0  0  0  0  0  0
   27.9008  -17.2557  -17.8538 C   0  0  0  0  0  0  0  0  0  0  0  0
   28.9883  -17.1100  -17.0079 C   0  0  0  0  0  0  0  0  0  0  0  0
   28.8994  -17.5885  -15.7126 C   0  0  0  0  0  0  0  0  0  0  0  0
   27.7369  -18.1859  -15.3258 C   0  0  0  0  0  0  0  0  0  0  0  0
   26.6412  -18.3375  -16.1644 C   0  0  0  0  0  0  0  0  0  0  0  0
   25.3079  -21.1817  -12.9511 C   0  0  0  0  0  0  0  0  0  0  0  0
   24.7668  -22.3105  -12.9767 O   0  0  0  0  0  0  0  0  0  0  0  0
   27.3021  -21.9298   -8.7754 C   0  0  0  0  0  0  0  0  0  0  0  0
   26.7659  -20.5797   -9.0668 C   0  0  2  0  0  0  0  0  0  0  0  0
   27.2138  -19.6540   -7.9016 C   0  0  0  0  0  0  0  0  0  0  0  0
   25.3258  -20.3847   -9.3082 C   0  0  0  0  0  0  0  0  0  0  0  0
   24.7185  -21.0256  -10.4835 C   0  0  2  0  0  0  0  0  0  0  0  0
   25.4086  -20.5201  -11.7106 N   0  0  0  0  0  0  0  0  0  0  0  0
   23.3138  -20.7139  -10.6958 C   0  0  0  0  0  0  0  0  0  0  0  0
   22.8361  -19.9356  -11.5472 O   0  0  0  0  0  0  0  0  0  0  0  0
   22.3152  -21.3213   -9.8868 O   0  0  0  0  0  0  0  0  0  0  0  0
  2  1  1  0
  3  2  1  0
  4  3  1  0
  5  4  1  0
  5  6  1  6
  7  5  1  0
  7  8  2  0
  9  7  1  0
 10 11  1  6
 10  9  1  0
 12 11  1  0
 12 13  2  0
 14 13  1  0
 15 14  1  0
 16 15  2  0
 17 16  1  0
 18 17  2  0
 18 19  1  0
 19 20  2  0
 20 15  1  0
 20 12  1  0
 21 10  1  0
 22 21  2  0
 24 23  1  1
 24 25  1  0
 24 26  1  0
 27 26  1  1
 27 28  1  0
 28 21  1  0
 29 27  1  0
 29 31  1  0
 30 29  2  0
M  END
$$$$
