MWL.pdb
     RDKit          3D

 31 32  0  0  1  0  0  0  0  0999 V2000
   27.8817  -21.9361  -17.8869 C   0  0  0  0  0  0  0  0  0  0  0  0
   28.8804  -20.4382  -18.0794 S   0  0  0  0  0  0  0  0  0  0  0  0
   29.1607  -19.6926  -16.4562 C   0  0  0  0  0  0  0  0  0  0  0  0
   28.4291  -20.5113  -15.4102 C   0  0  0  0  0  0  0  0  0  0  0  0
   27.2043  -19.7354  -14.9235 C   0  0  2  0  0  0  0  0  0  0  0  0
   27.7325  -18.5569  -14.2556 N   0  0  0  0  0  0  0  0  0  0  0  0
   26.4036  -20.5542  -13.9797 C   0  0  0  0  0  0  0  0  0  0  0  0
   26.0056  -21.7022  -14.2665 O   0  0  0  0  0  0  0  0  0  0  0  0
   26.0501  -20.0565  -12.6851 N   0  0  0  0  0  0  0  0  0  0  0  0
   25.1595  -20.7763  -11.8043 C   0  0  1  0  0  0  0  0  0  0  0  0
   25.5203  -20.6502  -10.3584 C   0  0  0  0  0  0  0  0  0  0  0  0
   26.8877  -20.9957   -9.9886 C   0  0  0  0  0  0  0  0  0  0  0  0
   27.8617  -21.7410  -10.6078 C   0  0  0  0  0  0  0  0  0  0  0  0
   28.9424  -21.7188   -9.8199 N   0  0  0  0  0  0  0  0  0  0  0  0
   28.7176  -20.9930   -8.7156 C   0  0  0  0  0  0  0  0  0  0  0  0
   29.4860  -20.6597   -7.6063 C   0  0  0  0  0  0  0  0  0  0  0  0
   28.9952  -19.8708   -6.5787 C   0  0  0  0  0  0  0  0  0  0  0  0
   27.6971  -19.3979   -6.6574 C   0  0  0  0  0  0  0  0  0  0  0  0
   26.9556  -19.7328   -7.7510 C   0  0  0  0  0  0  0  0  0  0  0  0
   27.4367  -20.5223   -8.7863 C   0  0  0  0  0  0  0  0  0  0  0  0
   23.7370  -20.5001  -12.0827 C   0  0  0  0  0  0  0  0  0  0  0  0
   23.3369  -19.3141  -12.0517 O   0  0  0  0  0  0  0  0  0  0  0  0
   21.4237  -20.6454  -15.9781 C   0  0  0  0  0  0  0  0  0  0  0  0
   21.6564  -21.8940  -15.2151 C   0  0  2  0  0  0  0  0  0  0  0  0
   21.2658  -23.0737  -16.1484 C   0  0  0  0  0  0  0  0  0  0  0  0
   21.0243  -22.0935  -13.8995 C   0  0  0  0  0  0  0  0  0  0  0  0
   21.3991  -21.1950  -12.7978 C   0  0  2  0  0  0  0  0  0  0  0  0
   22.8012  -21.5104  -12.3831 N   0  0  0  0  0  0  0  0  0  0  0  0
   20.6122  -21.3497  -11.5846 C   0  0  0  0  0  0  0  0  0  0  0  0
   19.5616  -20.7442  -11.2867 O   0  0  0  0  0  0  0  0  0  0  0  0
   21.0171  -22.2712  -10.5808 O   0  0  0  0  0  0  0  0  0  0  0  0
  2  1  1  0
  3  2  1  0
  4  3  1  0
  5  4  1  0
  5  6  1  1
  7  5  1  0
  7  8  2  0
  9  7  1  0
 10 11  1  1
 10  9  1  0
 12 11  1  0
 12 13  2  0
 14 13  1  0
 15 14  1  0
 16 15  2  0
 17 16  1  0
 18 17  2  0
 18 19  1  0
 19 20  2  0
 20 15  1  0
 20 12  1  0
 21 10  1  0
 22 21  2  0
 24 23  1  6
 24 25  1  0
 24 26  1  0
 27 26  1  6
 27 28  1  0
 28 21  1  0
 29 27  1  0
 29 31  1  0
 30 29  2  0
M  END
$$$$
