MWL.pdb
     RDKit          3D

 31 32  0  0  1  0  0  0  0  0999 V2000
   31.0915  -23.7027  -17.3637 C   0  0  0  0  0  0  0  0  0  0  0  0
   29.6196  -24.4732  -18.0835 S   0  0  0  0  0  0  0  0  0  0  0  0
   28.2660  -23.2745  -18.1050 C   0  0  0  0  0  0  0  0  0  0  0  0
   27.4966  -23.3840  -16.8029 C   0  0  0  0  0  0  0  0  0  0  0  0
   27.5084  -22.0304  -16.0909 C   0  0  2  0  0  0  0  0  0  0  0  0
   28.9101  -21.7371  -15.8394 N   0  0  0  0  0  0  0  0  0  0  0  0
   26.7536  -22.1004  -14.8150 C   0  0  0  0  0  0  0  0  0  0  0  0
   25.6221  -22.6221  -14.7388 O   0  0  0  0  0  0  0  0  0  0  0  0
   27.2980  -21.5667  -13.6037 N   0  0  0  0  0  0  0  0  0  0  0  0
   26.5296  -21.5004  -12.3820 C   0  0  1  0  0  0  0  0  0  0  0  0
   27.3571  -21.2030  -11.1724 C   0  0  0  0  0  0  0  0  0  0  0  0
   26.6410  -20.8017   -9.9673 C   0  0  0  0  0  0  0  0  0  0  0  0
   25.3098  -20.5935   -9.6988 C   0  0  0  0  0  0  0  0  0  0  0  0
   25.2123  -20.2450   -8.4111 N   0  0  0  0  0  0  0  0  0  0  0  0
   26.4190  -20.2166   -7.8279 C   0  0  0  0  0  0  0  0  0  0  0  0
   26.8638  -19.9262   -6.5434 C   0  0  0  0  0  0  0  0  0  0  0  0
   28.2047  -19.9752   -6.1982 C   0  0  0  0  0  0  0  0  0  0  0  0
   29.1333  -20.3246   -7.1626 C   0  0  0  0  0  0  0  0  0  0  0  0
   28.6824  -20.6068   -8.4176 C   0  0  0  0  0  0  0  0  0  0  0  0
   27.3419  -20.5610   -8.7749 C   0  0  0  0  0  0  0  0  0  0  0  0
   25.3367  -20.6408  -12.5056 C   0  0  0  0  0  0  0  0  0  0  0  0
   25.4912  -19.3990  -12.5462 O   0  0  0  0  0  0  0  0  0  0  0  0
   23.1049  -18.1637  -15.1505 C   0  0  0  0  0  0  0  0  0  0  0  0
   23.0371  -19.6432  -15.1946 C   0  0  2  0  0  0  0  0  0  0  0  0
   22.4165  -20.0267  -16.5668 C   0  0  0  0  0  0  0  0  0  0  0  0
   22.3462  -20.3908  -14.1297 C   0  0  0  0  0  0  0  0  0  0  0  0
   22.8356  -20.2595  -12.7497 C   0  0  2  0  0  0  0  0  0  0  0  0
   24.0248  -21.1508  -12.5802 N   0  0  0  0  0  0  0  0  0  0  0  0
   21.9010  -20.6925  -11.7230 C   0  0  0  0  0  0  0  0  0  0  0  0
   21.2211  -19.9654  -10.9692 O   0  0  0  0  0  0  0  0  0  0  0  0
   21.6820  -22.0779  -11.4919 O   0  0  0  0  0  0  0  0  0  0  0  0
  2  1  1  0
  3  2  1  0
  4  3  1  0
  5  4  1  0
  5  6  1  1
  7  5  1  0
  7  8  2  0
  9  7  1  0
 10 11  1  1
 10  9  1  0
 12 11  1  0
 12 13  2  0
 14 13  1  0
 15 14  1  0
 16 15  2  0
 17 16  1  0
 18 17  2  0
 18 19  1  0
 19 20  2  0
 20 15  1  0
 20 12  1  0
 21 10  1  0
 22 21  2  0
 24 23  1  1
 24 25  1  0
 24 26  1  0
 27 26  1  6
 27 28  1  0
 28 21  1  0
 29 27  1  0
 29 31  1  0
 30 29  2  0
M  END
$$$$
