MWL.pdb
     RDKit          3D

 31 32  0  0  1  0  0  0  0  0999 V2000
   28.3128  -16.3374  -15.7778 C   0  0  0  0  0  0  0  0  0  0  0  0
   28.9575  -17.8675  -16.4997 S   0  0  0  0  0  0  0  0  0  0  0  0
   27.7643  -19.2012  -16.2407 C   0  0  0  0  0  0  0  0  0  0  0  0
   27.0517  -18.9692  -14.9224 C   0  0  0  0  0  0  0  0  0  0  0  0
   27.7450  -19.7739  -13.8219 C   0  0  2  0  0  0  0  0  0  0  0  0
   27.6430  -21.1640  -14.2358 N   0  0  0  0  0  0  0  0  0  0  0  0
   27.0712  -19.5683  -12.5158 C   0  0  0  0  0  0  0  0  0  0  0  0
   26.8147  -18.4305  -12.0708 O   0  0  0  0  0  0  0  0  0  0  0  0
   26.6819  -20.6793  -11.7017 N   0  0  0  0  0  0  0  0  0  0  0  0
   26.0284  -20.5024  -10.4254 C   0  0  1  0  0  0  0  0  0  0  0  0
   24.7326  -21.2402  -10.3116 C   0  0  0  0  0  0  0  0  0  0  0  0
   23.6555  -20.8198  -11.2000 C   0  0  0  0  0  0  0  0  0  0  0  0
   23.5395  -20.7722  -12.5682 C   0  0  0  0  0  0  0  0  0  0  0  0
   22.3165  -20.3092  -12.8490 N   0  0  0  0  0  0  0  0  0  0  0  0
   21.6298  -20.0530  -11.7267 C   0  0  0  0  0  0  0  0  0  0  0  0
   20.3522  -19.5720  -11.4651 C   0  0  0  0  0  0  0  0  0  0  0  0
   19.8791  -19.3980  -10.1746 C   0  0  0  0  0  0  0  0  0  0  0  0
   20.7043  -19.7129   -9.1095 C   0  0  0  0  0  0  0  0  0  0  0  0
   21.9544  -20.1834   -9.3813 C   0  0  0  0  0  0  0  0  0  0  0  0
   22.4390  -20.3618  -10.6698 C   0  0  0  0  0  0  0  0  0  0  0  0
   26.9366  -20.7275   -9.2845 C   0  0  0  0  0  0  0  0  0  0  0  0
   27.8055  -21.6245   -9.3746 O   0  0  0  0  0  0  0  0  0  0  0  0
   28.3788  -19.5779   -3.8806 C   0  0  0  0  0  0  0  0  0  0  0  0
   29.0325  -19.0795   -5.1133 C   0  0  2  0  0  0  0  0  0  0  0  0
   29.5674  -17.6550   -4.7973 C   0  0  0  0  0  0  0  0  0  0  0  0
   28.2939  -19.0430   -6.3874 C   0  0  0  0  0  0  0  0  0  0  0  0
   27.7333  -20.2978   -6.9094 C   0  0  2  0  0  0  0  0  0  0  0  0
   26.8741  -19.9792   -8.0916 N   0  0  0  0  0  0  0  0  0  0  0  0
   26.8524  -21.0048   -5.9932 C   0  0  0  0  0  0  0  0  0  0  0  0
   25.6181  -20.8594   -5.8732 O   0  0  0  0  0  0  0  0  0  0  0  0
   27.3778  -21.9835   -5.1062 O   0  0  0  0  0  0  0  0  0  0  0  0
  2  1  1  0
  3  2  1  0
  4  3  1  0
  5  4  1  0
  5  6  1  6
  7  5  1  0
  7  8  2  0
  9  7  1  0
 10 11  1  1
 10  9  1  0
 12 11  1  0
 12 13  2  0
 14 13  1  0
 15 14  1  0
 16 15  2  0
 17 16  1  0
 18 17  2  0
 18 19  1  0
 19 20  2  0
 20 15  1  0
 20 12  1  0
 21 10  1  0
 22 21  2  0
 24 23  1  1
 24 25  1  0
 24 26  1  0
 27 26  1  1
 27 28  1  0
 28 21  1  0
 29 27  1  0
 29 31  1  0
 30 29  2  0
M  END
$$$$
