MWL.pdb
     RDKit          3D

 31 32  0  0  1  0  0  0  0  0999 V2000
   25.2500  -15.5510  -15.7119 C   0  0  0  0  0  0  0  0  0  0  0  0
   26.0668  -16.4562  -17.0504 S   0  0  0  0  0  0  0  0  0  0  0  0
   26.9818  -17.8532  -16.3573 C   0  0  0  0  0  0  0  0  0  0  0  0
   26.9491  -17.7556  -14.8444 C   0  0  0  0  0  0  0  0  0  0  0  0
   27.7718  -18.8966  -14.2440 C   0  0  2  0  0  0  0  0  0  0  0  0
   28.4895  -19.4868  -15.3624 N   0  0  0  0  0  0  0  0  0  0  0  0
   26.8881  -19.9019  -13.6031 C   0  0  0  0  0  0  0  0  0  0  0  0
   26.5556  -20.9589  -14.1782 O   0  0  0  0  0  0  0  0  0  0  0  0
   26.3743  -19.6998  -12.2826 N   0  0  0  0  0  0  0  0  0  0  0  0
   25.5157  -20.6667  -11.6381 C   0  0  1  0  0  0  0  0  0  0  0  0
   25.6827  -20.7157  -10.1527 C   0  0  0  0  0  0  0  0  0  0  0  0
   27.0435  -20.8529   -9.6474 C   0  0  0  0  0  0  0  0  0  0  0  0
   28.1830  -21.4104  -10.1751 C   0  0  0  0  0  0  0  0  0  0  0  0
   29.1604  -21.2459   -9.2770 N   0  0  0  0  0  0  0  0  0  0  0  0
   28.7104  -20.6066   -8.1881 C   0  0  0  0  0  0  0  0  0  0  0  0
   29.2985  -20.1968   -6.9972 C   0  0  0  0  0  0  0  0  0  0  0  0
   28.5849  -19.5346   -6.0114 C   0  0  0  0  0  0  0  0  0  0  0  0
   27.2422  -19.2715   -6.2174 C   0  0  0  0  0  0  0  0  0  0  0  0
   26.6792  -19.6793   -7.3899 C   0  0  0  0  0  0  0  0  0  0  0  0
   27.3841  -20.3432   -8.3844 C   0  0  0  0  0  0  0  0  0  0  0  0
   24.1090  -20.5561  -12.0695 C   0  0  0  0  0  0  0  0  0  0  0  0
   23.6207  -19.4165  -12.2438 O   0  0  0  0  0  0  0  0  0  0  0  0
   19.1284  -21.8682  -11.3700 C   0  0  0  0  0  0  0  0  0  0  0  0
   20.1770  -20.8959  -10.9823 C   0  0  2  0  0  0  0  0  0  0  0  0
   19.4468  -19.6254  -10.4649 C   0  0  0  0  0  0  0  0  0  0  0  0
   21.2150  -20.4933  -11.9472 C   0  0  0  0  0  0  0  0  0  0  0  0
   21.8658  -21.5363  -12.7532 C   0  0  2  0  0  0  0  0  0  0  0  0
   23.2831  -21.6757  -12.2958 N   0  0  0  0  0  0  0  0  0  0  0  0
   21.9642  -21.2423  -14.1742 C   0  0  0  0  0  0  0  0  0  0  0  0
   21.0217  -21.1148  -14.9832 O   0  0  0  0  0  0  0  0  0  0  0  0
   23.2367  -21.0666  -14.7828 O   0  0  0  0  0  0  0  0  0  0  0  0
  2  1  1  0
  3  2  1  0
  4  3  1  0
  5  4  1  0
  5  6  1  6
  7  5  1  0
  7  8  2  0
  9  7  1  0
 10 11  1  1
 10  9  1  0
 12 11  1  0
 12 13  2  0
 14 13  1  0
 15 14  1  0
 16 15  2  0
 17 16  1  0
 18 17  2  0
 18 19  1  0
 19 20  2  0
 20 15  1  0
 20 12  1  0
 21 10  1  0
 22 21  2  0
 24 23  1  6
 24 25  1  0
 24 26  1  0
 27 26  1  1
 27 28  1  0
 28 21  1  0
 29 27  1  0
 29 31  1  0
 30 29  2  0
M  END
$$$$
