MWL.pdb
     RDKit          3D

 31 32  0  0  1  0  0  0  0  0999 V2000
   25.1377  -16.8535  -16.1781 C   0  0  0  0  0  0  0  0  0  0  0  0
   26.7675  -16.1233  -15.8805 S   0  0  0  0  0  0  0  0  0  0  0  0
   27.8247  -17.3350  -15.0537 C   0  0  0  0  0  0  0  0  0  0  0  0
   26.9468  -18.3961  -14.4189 C   0  0  0  0  0  0  0  0  0  0  0  0
   27.8226  -19.3864  -13.6500 C   0  0  2  0  0  0  0  0  0  0  0  0
   28.1967  -20.4051  -14.6177 N   0  0  0  0  0  0  0  0  0  0  0  0
   27.0693  -19.9901  -12.5228 C   0  0  0  0  0  0  0  0  0  0  0  0
   26.3538  -21.0028  -12.6669 O   0  0  0  0  0  0  0  0  0  0  0  0
   27.1328  -19.4301  -11.2071 N   0  0  0  0  0  0  0  0  0  0  0  0
   26.3939  -19.9906  -10.0993 C   0  0  1  0  0  0  0  0  0  0  0  0
   26.8140  -19.4518   -8.7690 C   0  0  0  0  0  0  0  0  0  0  0  0
   27.6601  -20.3102   -7.9485 C   0  0  0  0  0  0  0  0  0  0  0  0
   28.2653  -21.5214   -8.1817 C   0  0  0  0  0  0  0  0  0  0  0  0
   28.9400  -21.8500   -7.0744 N   0  0  0  0  0  0  0  0  0  0  0  0
   28.8024  -20.9085   -6.1302 C   0  0  0  0  0  0  0  0  0  0  0  0
   29.2840  -20.7632   -4.8344 C   0  0  0  0  0  0  0  0  0  0  0  0
   28.9812  -19.6591   -4.0542 C   0  0  0  0  0  0  0  0  0  0  0  0
   28.1727  -18.6671   -4.5805 C   0  0  0  0  0  0  0  0  0  0  0  0
   27.7080  -18.8234   -5.8524 C   0  0  0  0  0  0  0  0  0  0  0  0
   28.0047  -19.9249   -6.6432 C   0  0  0  0  0  0  0  0  0  0  0  0
   24.9344  -19.9585  -10.3137 C   0  0  0  0  0  0  0  0  0  0  0  0
   24.3762  -18.8517  -10.4904 O   0  0  0  0  0  0  0  0  0  0  0  0
   21.6311  -20.8877  -13.7788 C   0  0  0  0  0  0  0  0  0  0  0  0
   22.5635  -21.8723  -13.1817 C   0  0  2  0  0  0  0  0  0  0  0  0
   22.4088  -23.1900  -13.9909 C   0  0  0  0  0  0  0  0  0  0  0  0
   22.5006  -22.1825  -11.7429 C   0  0  0  0  0  0  0  0  0  0  0  0
   22.7071  -21.0907  -10.7803 C   0  0  2  0  0  0  0  0  0  0  0  0
   24.1331  -21.1179  -10.3293 N   0  0  0  0  0  0  0  0  0  0  0  0
   21.9308  -21.1972   -9.5551 C   0  0  0  0  0  0  0  0  0  0  0  0
   20.7432  -20.8516   -9.3843 O   0  0  0  0  0  0  0  0  0  0  0  0
   22.5167  -21.7442   -8.3812 O   0  0  0  0  0  0  0  0  0  0  0  0
  2  1  1  0
  3  2  1  0
  4  3  1  0
  5  4  1  0
  5  6  1  6
  7  5  1  0
  7  8  2  0
  9  7  1  0
 10 11  1  1
 10  9  1  0
 12 11  1  0
 12 13  2  0
 14 13  1  0
 15 14  1  0
 16 15  2  0
 17 16  1  0
 18 17  2  0
 18 19  1  0
 19 20  2  0
 20 15  1  0
 20 12  1  0
 21 10  1  0
 22 21  2  0
 24 23  1  6
 24 25  1  0
 24 26  1  0
 27 26  1  6
 27 28  1  0
 28 21  1  0
 29 27  1  0
 29 31  1  0
 30 29  2  0
M  END
$$$$
