MWL.pdb
     RDKit          3D

 31 32  0  0  1  0  0  0  0  0999 V2000
   30.9667  -23.7104  -15.4323 C   0  0  0  0  0  0  0  0  0  0  0  0
   30.1601  -22.3615  -16.3312 S   0  0  0  0  0  0  0  0  0  0  0  0
   29.8520  -20.9867  -15.1979 C   0  0  0  0  0  0  0  0  0  0  0  0
   29.0035  -21.4858  -14.0444 C   0  0  0  0  0  0  0  0  0  0  0  0
   27.8073  -20.5522  -13.8528 C   0  0  2  0  0  0  0  0  0  0  0  0
   28.3737  -19.2735  -13.4554 N   0  0  0  0  0  0  0  0  0  0  0  0
   26.8992  -21.0699  -12.7994 C   0  0  0  0  0  0  0  0  0  0  0  0
   26.3563  -22.1911  -12.8806 O   0  0  0  0  0  0  0  0  0  0  0  0
   26.6046  -20.2964  -11.6317 N   0  0  0  0  0  0  0  0  0  0  0  0
   25.6063  -20.7078  -10.6718 C   0  0  1  0  0  0  0  0  0  0  0  0
   25.9620  -20.3691   -9.2592 C   0  0  0  0  0  0  0  0  0  0  0  0
   27.2414  -20.8648   -8.7657 C   0  0  0  0  0  0  0  0  0  0  0  0
   28.1820  -21.7125   -9.2988 C   0  0  0  0  0  0  0  0  0  0  0  0
   29.1782  -21.8116   -8.4117 N   0  0  0  0  0  0  0  0  0  0  0  0
   28.9301  -21.0673   -7.3248 C   0  0  0  0  0  0  0  0  0  0  0  0
   29.6209  -20.8233   -6.1435 C   0  0  0  0  0  0  0  0  0  0  0  0
   29.1239  -19.9866   -5.1574 C   0  0  0  0  0  0  0  0  0  0  0  0
   27.8995  -19.3726   -5.3531 C   0  0  0  0  0  0  0  0  0  0  0  0
   27.2336  -19.6212   -6.5162 C   0  0  0  0  0  0  0  0  0  0  0  0
   27.7216  -20.4574   -7.5109 C   0  0  0  0  0  0  0  0  0  0  0  0
   24.2435  -20.2894  -11.0526 C   0  0  0  0  0  0  0  0  0  0  0  0
   24.0640  -19.1174  -11.4547 O   0  0  0  0  0  0  0  0  0  0  0  0
   21.6167  -20.0264  -14.7871 C   0  0  0  0  0  0  0  0  0  0  0  0
   22.2225  -21.2240  -14.1593 C   0  0  2  0  0  0  0  0  0  0  0  0
   22.1374  -22.3732  -15.2020 C   0  0  0  0  0  0  0  0  0  0  0  0
   21.7295  -21.7163  -12.8613 C   0  0  0  0  0  0  0  0  0  0  0  0
   21.8444  -20.8376  -11.6883 C   0  0  2  0  0  0  0  0  0  0  0  0
   23.1278  -21.1481  -10.9854 N   0  0  0  0  0  0  0  0  0  0  0  0
   20.8157  -21.0252  -10.6775 C   0  0  0  0  0  0  0  0  0  0  0  0
   20.7080  -21.9815   -9.8819 O   0  0  0  0  0  0  0  0  0  0  0  0
   19.7863  -20.0585  -10.5151 O   0  0  0  0  0  0  0  0  0  0  0  0
  2  1  1  0
  3  2  1  0
  4  3  1  0
  5  4  1  0
  5  6  1  1
  7  5  1  0
  7  8  2  0
  9  7  1  0
 10 11  1  1
 10  9  1  0
 12 11  1  0
 12 13  2  0
 14 13  1  0
 15 14  1  0
 16 15  2  0
 17 16  1  0
 18 17  2  0
 18 19  1  0
 19 20  2  0
 20 15  1  0
 20 12  1  0
 21 10  1  0
 22 21  2  0
 24 23  1  6
 24 25  1  0
 24 26  1  0
 27 26  1  6
 27 28  1  0
 28 21  1  0
 29 27  1  0
 29 31  1  0
 30 29  2  0
M  END
$$$$
