MWL.pdb
     RDKit          3D

 31 32  0  0  1  0  0  0  0  0999 V2000
   27.8901  -22.5225  -20.8247 C   0  0  0  0  0  0  0  0  0  0  0  0
   27.0522  -22.2510  -19.2428 S   0  0  0  0  0  0  0  0  0  0  0  0
   26.3912  -23.8216  -18.6379 C   0  0  0  0  0  0  0  0  0  0  0  0
   25.7126  -23.5836  -17.3029 C   0  0  0  0  0  0  0  0  0  0  0  0
   26.7700  -23.5227  -16.1995 C   0  0  2  0  0  0  0  0  0  0  0  0
   27.3076  -24.8702  -16.1033 N   0  0  0  0  0  0  0  0  0  0  0  0
   26.1617  -23.1111  -14.9099 C   0  0  0  0  0  0  0  0  0  0  0  0
   25.4413  -23.8786  -14.2388 O   0  0  0  0  0  0  0  0  0  0  0  0
   26.3786  -21.8015  -14.3748 N   0  0  0  0  0  0  0  0  0  0  0  0
   25.6755  -21.3252  -13.2059 C   0  0  1  0  0  0  0  0  0  0  0  0
   26.4092  -20.2537  -12.4642 C   0  0  0  0  0  0  0  0  0  0  0  0
   27.4850  -20.6844  -11.5792 C   0  0  0  0  0  0  0  0  0  0  0  0
   28.7460  -21.1767  -11.8143 C   0  0  0  0  0  0  0  0  0  0  0  0
   29.3158  -21.3988  -10.6246 N   0  0  0  0  0  0  0  0  0  0  0  0
   28.4841  -21.0737   -9.6249 C   0  0  0  0  0  0  0  0  0  0  0  0
   28.5803  -21.1097   -8.2387 C   0  0  0  0  0  0  0  0  0  0  0  0
   27.5423  -20.7031   -7.4161 C   0  0  0  0  0  0  0  0  0  0  0  0
   26.3701  -20.2457   -7.9917 C   0  0  0  0  0  0  0  0  0  0  0  0
   26.2902  -20.2160   -9.3521 C   0  0  0  0  0  0  0  0  0  0  0  0
   27.3234  -20.6207  -10.1860 C   0  0  0  0  0  0  0  0  0  0  0  0
   24.2667  -20.9883  -13.4868 C   0  0  0  0  0  0  0  0  0  0  0  0
   24.0143  -20.1656  -14.3962 O   0  0  0  0  0  0  0  0  0  0  0  0
   18.5665  -23.3496  -12.4979 C   0  0  0  0  0  0  0  0  0  0  0  0
   19.4803  -22.3130  -13.0326 C   0  0  2  0  0  0  0  0  0  0  0  0
   19.2464  -22.2523  -14.5678 C   0  0  0  0  0  0  0  0  0  0  0  0
   20.9280  -22.3873  -12.7704 C   0  0  0  0  0  0  0  0  0  0  0  0
   21.7637  -21.2280  -13.1153 C   0  0  2  0  0  0  0  0  0  0  0  0
   23.1851  -21.5492  -12.7781 N   0  0  0  0  0  0  0  0  0  0  0  0
   21.4719  -20.0161  -12.3660 C   0  0  0  0  0  0  0  0  0  0  0  0
   20.5688  -19.1861  -12.5995 O   0  0  0  0  0  0  0  0  0  0  0  0
   22.2546  -19.6697  -11.2311 O   0  0  0  0  0  0  0  0  0  0  0  0
  2  1  1  0
  3  2  1  0
  4  3  1  0
  5  4  1  0
  5  6  1  1
  7  5  1  0
  7  8  2  0
  9  7  1  0
 10 11  1  6
 10  9  1  0
 12 11  1  0
 12 13  2  0
 14 13  1  0
 15 14  1  0
 16 15  2  0
 17 16  1  0
 18 17  2  0
 18 19  1  0
 19 20  2  0
 20 15  1  0
 20 12  1  0
 21 10  1  0
 22 21  2  0
 24 23  1  6
 24 25  1  0
 24 26  1  0
 27 26  1  1
 27 28  1  0
 28 21  1  0
 29 27  1  0
 29 31  1  0
 30 29  2  0
M  END
$$$$
