MWL.pdb
     RDKit          3D

 31 32  0  0  1  0  0  0  0  0999 V2000
   26.7901  -16.6256  -16.4279 C   0  0  0  0  0  0  0  0  0  0  0  0
   28.4840  -17.2321  -16.2255 S   0  0  0  0  0  0  0  0  0  0  0  0
   28.4862  -19.0387  -16.3013 C   0  0  0  0  0  0  0  0  0  0  0  0
   27.5343  -19.5725  -15.2485 C   0  0  0  0  0  0  0  0  0  0  0  0
   28.1853  -20.7537  -14.5274 C   0  0  2  0  0  0  0  0  0  0  0  0
   28.1943  -21.8402  -15.4937 N   0  0  0  0  0  0  0  0  0  0  0  0
   27.4024  -21.1324  -13.3249 C   0  0  0  0  0  0  0  0  0  0  0  0
   26.2865  -21.6864  -13.4043 O   0  0  0  0  0  0  0  0  0  0  0  0
   27.9001  -20.8759  -12.0077 N   0  0  0  0  0  0  0  0  0  0  0  0
   27.0757  -21.0367  -10.8322 C   0  0  1  0  0  0  0  0  0  0  0  0
   27.8298  -20.8850   -9.5496 C   0  0  0  0  0  0  0  0  0  0  0  0
   27.0394  -20.8009   -8.3273 C   0  0  0  0  0  0  0  0  0  0  0  0
   25.7241  -21.0808   -8.0455 C   0  0  0  0  0  0  0  0  0  0  0  0
   25.5331  -20.8326   -6.7451 N   0  0  0  0  0  0  0  0  0  0  0  0
   26.6636  -20.4040   -6.1662 C   0  0  0  0  0  0  0  0  0  0  0  0
   27.0009  -20.0204   -4.8735 C   0  0  0  0  0  0  0  0  0  0  0  0
   28.2800  -19.6092   -4.5358 C   0  0  0  0  0  0  0  0  0  0  0  0
   29.2556  -19.5786   -5.5166 C   0  0  0  0  0  0  0  0  0  0  0  0
   28.9102  -19.9575   -6.7796 C   0  0  0  0  0  0  0  0  0  0  0  0
   27.6322  -20.3712   -7.1294 C   0  0  0  0  0  0  0  0  0  0  0  0
   25.8407  -20.2312  -10.8883 C   0  0  0  0  0  0  0  0  0  0  0  0
   25.9366  -18.9923  -11.0415 O   0  0  0  0  0  0  0  0  0  0  0  0
   22.4433  -19.9440  -15.1447 C   0  0  0  0  0  0  0  0  0  0  0  0
   22.6170  -19.4614  -13.7547 C   0  0  2  0  0  0  0  0  0  0  0  0
   22.8411  -17.9256  -13.8337 C   0  0  0  0  0  0  0  0  0  0  0  0
   23.6470  -20.0523  -12.8827 C   0  0  0  0  0  0  0  0  0  0  0  0
   23.3615  -20.1790  -11.4462 C   0  0  2  0  0  0  0  0  0  0  0  0
   24.5515  -20.7901  -10.7769 N   0  0  0  0  0  0  0  0  0  0  0  0
   22.2570  -21.0654  -11.1155 C   0  0  0  0  0  0  0  0  0  0  0  0
   21.1770  -20.7520  -10.5728 O   0  0  0  0  0  0  0  0  0  0  0  0
   22.3392  -22.4534  -11.4112 O   0  0  0  0  0  0  0  0  0  0  0  0
  2  1  1  0
  3  2  1  0
  4  3  1  0
  5  4  1  0
  5  6  1  6
  7  5  1  0
  7  8  2  0
  9  7  1  0
 10 11  1  1
 10  9  1  0
 12 11  1  0
 12 13  2  0
 14 13  1  0
 15 14  1  0
 16 15  2  0
 17 16  1  0
 18 17  2  0
 18 19  1  0
 19 20  2  0
 20 15  1  0
 20 12  1  0
 21 10  1  0
 22 21  2  0
 24 23  1  6
 24 25  1  0
 24 26  1  0
 27 26  1  6
 27 28  1  0
 28 21  1  0
 29 27  1  0
 29 31  1  0
 30 29  2  0
M  END
$$$$
