MWL.pdb
     RDKit          3D

 31 32  0  0  1  0  0  0  0  0999 V2000
   25.4138  -25.5627  -21.0303 C   0  0  0  0  0  0  0  0  0  0  0  0
   26.5788  -24.1795  -21.1184 S   0  0  0  0  0  0  0  0  0  0  0  0
   27.6037  -24.1639  -19.6289 C   0  0  0  0  0  0  0  0  0  0  0  0
   26.7160  -24.4046  -18.4232 C   0  0  0  0  0  0  0  0  0  0  0  0
   27.5676  -24.3813  -17.1530 C   0  0  2  0  0  0  0  0  0  0  0  0
   28.2524  -25.6635  -17.1221 N   0  0  0  0  0  0  0  0  0  0  0  0
   26.7140  -24.2173  -15.9502 C   0  0  0  0  0  0  0  0  0  0  0  0
   26.1958  -25.1901  -15.3641 O   0  0  0  0  0  0  0  0  0  0  0  0
   26.4462  -22.9215  -15.4046 N   0  0  0  0  0  0  0  0  0  0  0  0
   25.5092  -22.7242  -14.3227 C   0  0  1  0  0  0  0  0  0  0  0  0
   25.7715  -21.4867  -13.5250 C   0  0  0  0  0  0  0  0  0  0  0  0
   24.9492  -21.2818  -12.3384 C   0  0  0  0  0  0  0  0  0  0  0  0
   25.0925  -21.6642  -11.0266 C   0  0  0  0  0  0  0  0  0  0  0  0
   24.0361  -21.1919  -10.3557 N   0  0  0  0  0  0  0  0  0  0  0  0
   23.2109  -20.5190  -11.1700 C   0  0  0  0  0  0  0  0  0  0  0  0
   22.0076  -19.8482  -10.9855 C   0  0  0  0  0  0  0  0  0  0  0  0
   21.3460  -19.2192  -12.0276 C   0  0  0  0  0  0  0  0  0  0  0  0
   21.8999  -19.2590  -13.2950 C   0  0  0  0  0  0  0  0  0  0  0  0
   23.0801  -19.9205  -13.4608 C   0  0  0  0  0  0  0  0  0  0  0  0
   23.7517  -20.5541  -12.4244 C   0  0  0  0  0  0  0  0  0  0  0  0
   24.1046  -22.8605  -14.7538 C   0  0  0  0  0  0  0  0  0  0  0  0
   23.7478  -22.3164  -15.8236 O   0  0  0  0  0  0  0  0  0  0  0  0
   19.5325  -26.9215  -14.6202 C   0  0  0  0  0  0  0  0  0  0  0  0
   20.1106  -25.6193  -15.0270 C   0  0  2  0  0  0  0  0  0  0  0  0
   20.1557  -25.6100  -16.5804 C   0  0  0  0  0  0  0  0  0  0  0  0
   21.4198  -25.1887  -14.5064 C   0  0  0  0  0  0  0  0  0  0  0  0
   21.7376  -23.7534  -14.5081 C   0  0  2  0  0  0  0  0  0  0  0  0
   23.1394  -23.5762  -14.0171 N   0  0  0  0  0  0  0  0  0  0  0  0
   20.9278  -22.9441  -13.6112 C   0  0  0  0  0  0  0  0  0  0  0  0
   20.8479  -23.0478  -12.3695 O   0  0  0  0  0  0  0  0  0  0  0  0
   20.1117  -21.9011  -14.1277 O   0  0  0  0  0  0  0  0  0  0  0  0
  2  1  1  0
  3  2  1  0
  4  3  1  0
  5  4  1  0
  5  6  1  1
  7  5  1  0
  7  8  2  0
  9  7  1  0
 10 11  1  6
 10  9  1  0
 12 11  1  0
 12 13  2  0
 14 13  1  0
 15 14  1  0
 16 15  2  0
 17 16  1  0
 18 17  2  0
 18 19  1  0
 19 20  2  0
 20 15  1  0
 20 12  1  0
 21 10  1  0
 22 21  2  0
 24 23  1  1
 24 25  1  0
 24 26  1  0
 27 26  1  1
 27 28  1  0
 28 21  1  0
 29 27  1  0
 29 31  1  0
 30 29  2  0
M  END
$$$$
