MET.pdb
     RDKit          3D

 25 24  0  0  1  0  0  0  0  0999 V2000
    7.9689  -11.7931   20.6830 C   0  0  0  0  0  0  0  0  0  0  0  0
    7.7404  -12.5900   19.0916 S   0  0  0  0  0  0  0  0  0  0  0  0
    7.0214  -14.2016   19.2627 C   0  0  0  0  0  0  0  0  0  0  0  0
    7.6742  -15.1120   20.2107 C   0  0  0  0  0  0  0  0  0  0  0  0
    8.4930  -16.2406   19.7221 C   0  0  2  0  0  0  0  0  0  0  0  0
    7.5580  -17.1811   19.0636 N   0  0  0  0  0  0  0  0  0  0  0  0
    9.0676  -17.0014   20.9151 C   0  0  0  0  0  0  0  0  0  0  0  0
    8.2700  -17.6750   21.5925 O   0  0  0  0  0  0  0  0  0  0  0  0
   10.4289  -16.9503   21.2413 N   0  0  0  0  0  0  0  0  0  0  0  0
   10.9790  -17.6876   22.3865 C   0  0  1  0  0  0  0  0  0  0  0  0
   12.4465  -17.8625   22.2541 C   0  0  0  0  0  0  0  0  0  0  0  0
   12.8373  -18.6522   21.0508 C   0  0  0  0  0  0  0  0  0  0  0  0
   14.2366  -18.4838   20.6193 C   0  0  0  0  0  0  0  0  0  0  0  0
   15.2445  -18.7951   21.2920 O   0  0  0  0  0  0  0  0  0  0  0  0
   10.6338  -16.9813   23.6410 C   0  0  0  0  0  0  0  0  0  0  0  0
   11.1094  -15.8678   23.9514 O   0  0  0  0  0  0  0  0  0  0  0  0
   14.5170  -17.9323   19.3560 O   0  0  0  0  0  0  0  0  0  0  0  0
    7.7015  -15.2821   24.9177 C   0  0  0  0  0  0  0  0  0  0  0  0
    7.9625  -16.4064   25.8893 C   0  0  1  0  0  0  0  0  0  0  0  0
    7.1337  -17.4839   25.6286 O   0  0  0  0  0  0  0  0  0  0  0  0
    9.3836  -16.8874   25.8416 C   0  0  2  0  0  0  0  0  0  0  0  0
    9.7172  -17.5418   24.5931 N   0  0  0  0  0  0  0  0  0  0  0  0
    9.7268  -17.7557   26.9980 C   0  0  0  0  0  0  0  0  0  0  0  0
    9.6050  -17.2592   28.2989 O   0  0  0  0  0  0  0  0  0  0  0  0
   10.1236  -18.9247   26.8480 O   0  0  0  0  0  0  0  0  0  0  0  0
  2  1  1  0
  3  4  1  0
  3  2  1  0
  4  5  1  0
  5  7  1  0
  5  6  1  1
  7  8  2  0
  9  7  1  0
  9 10  1  0
 10 15  1  0
 11 12  1  0
 10 11  1  6
 12 13  1  0
 13 14  2  0
 15 22  1  0
 15 16  2  0
 17 13  1  0
 19 21  1  0
 19 18  1  6
 20 19  1  0
 21 23  1  0
 21 22  1  6
 23 24  1  0
 25 23  2  0
M  END
$$$$
