MET.pdb
     RDKit          3D

 25 24  0  0  1  0  0  0  0  0999 V2000
    7.5411  -11.6155   21.4839 C   0  0  0  0  0  0  0  0  0  0  0  0
    7.8256  -11.9869   19.7515 S   0  0  0  0  0  0  0  0  0  0  0  0
    8.1910  -13.7037   19.5006 C   0  0  0  0  0  0  0  0  0  0  0  0
    8.6624  -14.4504   20.6726 C   0  0  0  0  0  0  0  0  0  0  0  0
    8.9744  -15.8907   20.5670 C   0  0  2  0  0  0  0  0  0  0  0  0
    7.7180  -16.5620   20.1630 N   0  0  0  0  0  0  0  0  0  0  0  0
    9.3049  -16.4389   21.9535 C   0  0  0  0  0  0  0  0  0  0  0  0
    8.3449  -16.6994   22.7013 O   0  0  0  0  0  0  0  0  0  0  0  0
   10.6252  -16.6430   22.3748 N   0  0  0  0  0  0  0  0  0  0  0  0
   10.9383  -17.2153   23.6910 C   0  0  1  0  0  0  0  0  0  0  0  0
   12.2418  -17.9238   23.6689 C   0  0  0  0  0  0  0  0  0  0  0  0
   12.2237  -19.1603   22.8352 C   0  0  0  0  0  0  0  0  0  0  0  0
   13.5504  -19.6787   22.4560 C   0  0  0  0  0  0  0  0  0  0  0  0
   14.5444  -19.7478   23.2127 O   0  0  0  0  0  0  0  0  0  0  0  0
   10.9278  -16.1427   24.7114 C   0  0  0  0  0  0  0  0  0  0  0  0
   11.5898  -15.0882   24.6013 O   0  0  0  0  0  0  0  0  0  0  0  0
   13.7703  -20.1464   21.1478 O   0  0  0  0  0  0  0  0  0  0  0  0
    8.6604  -13.3948   27.9207 C   0  0  0  0  0  0  0  0  0  0  0  0
    8.6942  -14.5948   27.0069 C   0  0  1  0  0  0  0  0  0  0  0  0
    8.2669  -14.2562   25.7347 O   0  0  0  0  0  0  0  0  0  0  0  0
   10.0667  -15.1924   26.8954 C   0  0  2  0  0  0  0  0  0  0  0  0
   10.1440  -16.2506   25.9094 N   0  0  0  0  0  0  0  0  0  0  0  0
   10.5905  -15.6566   28.2065 C   0  0  0  0  0  0  0  0  0  0  0  0
   10.8672  -14.7261   29.2122 O   0  0  0  0  0  0  0  0  0  0  0  0
   10.7942  -16.8601   28.4448 O   0  0  0  0  0  0  0  0  0  0  0  0
  2  1  1  0
  3  4  1  0
  3  2  1  0
  4  5  1  0
  5  7  1  0
  5  6  1  1
  7  8  2  0
  9  7  1  0
  9 10  1  0
 10 15  1  0
 11 12  1  0
 10 11  1  6
 12 13  1  0
 13 14  2  0
 15 22  1  0
 15 16  2  0
 17 13  1  0
 19 21  1  0
 19 18  1  1
 20 19  1  0
 21 23  1  0
 21 22  1  6
 23 24  1  0
 25 23  2  0
M  END
$$$$
