MET.pdb
     RDKit          3D

 25 24  0  0  1  0  0  0  0  0999 V2000
    7.0093  -11.1159   26.1409 C   0  0  0  0  0  0  0  0  0  0  0  0
    6.8243  -12.5758   27.1677 S   0  0  0  0  0  0  0  0  0  0  0  0
    6.3901  -14.0017   26.2076 C   0  0  0  0  0  0  0  0  0  0  0  0
    6.6489  -13.9230   24.7653 C   0  0  0  0  0  0  0  0  0  0  0  0
    7.0102  -15.1353   24.0021 C   0  0  2  0  0  0  0  0  0  0  0  0
    6.3329  -16.2686   24.6725 N   0  0  0  0  0  0  0  0  0  0  0  0
    8.5059  -15.4021   24.1563 C   0  0  0  0  0  0  0  0  0  0  0  0
    9.2821  -14.6056   23.5979 O   0  0  0  0  0  0  0  0  0  0  0  0
    8.9931  -16.4911   24.8905 N   0  0  0  0  0  0  0  0  0  0  0  0
   10.4174  -16.6250   25.2241 C   0  0  1  0  0  0  0  0  0  0  0  0
   10.6016  -17.3887   26.4829 C   0  0  0  0  0  0  0  0  0  0  0  0
   11.7431  -18.3468   26.4266 C   0  0  0  0  0  0  0  0  0  0  0  0
   11.9798  -19.1115   27.6642 C   0  0  0  0  0  0  0  0  0  0  0  0
   13.0975  -19.3109   28.1898 O   0  0  0  0  0  0  0  0  0  0  0  0
   11.1306  -17.2680   24.0972 C   0  0  0  0  0  0  0  0  0  0  0  0
   11.0103  -18.4796   23.8146 O   0  0  0  0  0  0  0  0  0  0  0  0
   10.8939  -19.6853   28.3499 O   0  0  0  0  0  0  0  0  0  0  0  0
   13.3502  -16.9530   19.7186 C   0  0  0  0  0  0  0  0  0  0  0  0
   12.4953  -16.4105   20.8370 C   0  0  1  0  0  0  0  0  0  0  0  0
   11.1513  -16.5109   20.5218 O   0  0  0  0  0  0  0  0  0  0  0  0
   12.7259  -17.1283   22.1351 C   0  0  2  0  0  0  0  0  0  0  0  0
   12.0186  -16.5268   23.2469 N   0  0  0  0  0  0  0  0  0  0  0  0
   14.1704  -17.2783   22.4506 C   0  0  0  0  0  0  0  0  0  0  0  0
   14.8834  -18.3661   21.9387 O   0  0  0  0  0  0  0  0  0  0  0  0
   14.7766  -16.4590   23.1634 O   0  0  0  0  0  0  0  0  0  0  0  0
  2  1  1  0
  3  4  1  0
  3  2  1  0
  4  5  1  0
  5  7  1  0
  5  6  1  1
  7  8  2  0
  9  7  1  0
  9 10  1  0
 10 15  1  0
 11 12  1  0
 10 11  1  1
 12 13  1  0
 13 14  2  0
 15 22  1  0
 15 16  2  0
 17 13  1  0
 19 21  1  0
 19 18  1  6
 20 19  1  0
 21 23  1  0
 21 22  1  1
 23 24  1  0
 25 23  2  0
M  END
$$$$
