MET.pdb
     RDKit          3D

 25 24  0  0  1  0  0  0  0  0999 V2000
    5.9849  -10.9544   26.1024 C   0  0  0  0  0  0  0  0  0  0  0  0
    7.0255  -12.3252   25.5944 S   0  0  0  0  0  0  0  0  0  0  0  0
    6.1124  -13.8421   25.5018 C   0  0  0  0  0  0  0  0  0  0  0  0
    6.8805  -15.0494   25.1764 C   0  0  0  0  0  0  0  0  0  0  0  0
    7.6567  -15.1276   23.9217 C   0  0  2  0  0  0  0  0  0  0  0  0
    6.7241  -15.6227   22.8835 N   0  0  0  0  0  0  0  0  0  0  0  0
    8.7292  -16.2062   24.0577 C   0  0  0  0  0  0  0  0  0  0  0  0
    8.3434  -17.3523   24.3512 O   0  0  0  0  0  0  0  0  0  0  0  0
   10.0885  -15.9290   23.8632 N   0  0  0  0  0  0  0  0  0  0  0  0
   11.1382  -16.8629   24.2917 C   0  0  1  0  0  0  0  0  0  0  0  0
   12.2944  -16.8298   23.3622 C   0  0  0  0  0  0  0  0  0  0  0  0
   12.0018  -17.4528   22.0391 C   0  0  0  0  0  0  0  0  0  0  0  0
   13.0403  -17.2563   21.0117 C   0  0  0  0  0  0  0  0  0  0  0  0
   14.2200  -17.6663   21.0867 O   0  0  0  0  0  0  0  0  0  0  0  0
   11.5529  -16.5392   25.6756 C   0  0  0  0  0  0  0  0  0  0  0  0
   11.8587  -15.3849   26.0450 O   0  0  0  0  0  0  0  0  0  0  0  0
   12.7319  -16.5571   19.8308 O   0  0  0  0  0  0  0  0  0  0  0  0
   11.1104  -14.8615   27.8664 C   0  0  0  0  0  0  0  0  0  0  0  0
   10.9465  -16.1647   28.6087 C   0  0  1  0  0  0  0  0  0  0  0  0
    9.6439  -16.6233   28.5153 O   0  0  0  0  0  0  0  0  0  0  0  0
   11.8584  -17.2385   28.0905 C   0  0  2  0  0  0  0  0  0  0  0  0
   11.6307  -17.5481   26.6940 N   0  0  0  0  0  0  0  0  0  0  0  0
   11.8075  -18.4725   28.9173 C   0  0  0  0  0  0  0  0  0  0  0  0
   11.2758  -19.6475   28.3785 O   0  0  0  0  0  0  0  0  0  0  0  0
   12.2270  -18.4979   30.0878 O   0  0  0  0  0  0  0  0  0  0  0  0
  2  1  1  0
  3  4  1  0
  3  2  1  0
  4  5  1  0
  5  7  1  0
  5  6  1  6
  7  8  2  0
  9  7  1  0
  9 10  1  0
 10 15  1  0
 11 12  1  0
 10 11  1  6
 12 13  1  0
 13 14  2  0
 15 22  1  0
 15 16  2  0
 17 13  1  0
 19 21  1  0
 19 18  1  6
 20 19  1  0
 21 23  1  0
 21 22  1  6
 23 24  1  0
 25 23  2  0
M  END
$$$$
