MET.pdb
     RDKit          3D

 25 24  0  0  1  0  0  0  0  0999 V2000
    7.4372  -11.5780   27.3510 C   0  0  0  0  0  0  0  0  0  0  0  0
    6.5061  -11.5221   25.8181 S   0  0  0  0  0  0  0  0  0  0  0  0
    5.9777  -13.1374   25.3128 C   0  0  0  0  0  0  0  0  0  0  0  0
    7.0135  -14.1750   25.2507 C   0  0  0  0  0  0  0  0  0  0  0  0
    7.2314  -14.9420   24.0068 C   0  0  2  0  0  0  0  0  0  0  0  0
    6.0001  -15.7333   23.7826 N   0  0  0  0  0  0  0  0  0  0  0  0
    8.3416  -15.9660   24.2328 C   0  0  0  0  0  0  0  0  0  0  0  0
    8.1004  -16.8948   25.0251 O   0  0  0  0  0  0  0  0  0  0  0  0
    9.5791  -15.8735   23.5830 N   0  0  0  0  0  0  0  0  0  0  0  0
   10.6659  -16.8257   23.8480 C   0  0  1  0  0  0  0  0  0  0  0  0
   11.6285  -16.8649   22.7195 C   0  0  0  0  0  0  0  0  0  0  0  0
   12.8094  -17.7362   22.9852 C   0  0  0  0  0  0  0  0  0  0  0  0
   13.7915  -17.8105   21.8887 C   0  0  0  0  0  0  0  0  0  0  0  0
   15.0125  -17.5574   21.9916 O   0  0  0  0  0  0  0  0  0  0  0  0
   11.3400  -16.4659   25.1160 C   0  0  0  0  0  0  0  0  0  0  0  0
   12.1946  -15.5578   25.2019 O   0  0  0  0  0  0  0  0  0  0  0  0
   13.3739  -18.1923   20.6009 O   0  0  0  0  0  0  0  0  0  0  0  0
   11.1923  -14.4829   27.7468 C   0  0  0  0  0  0  0  0  0  0  0  0
   11.1651  -15.8336   28.4184 C   0  0  1  0  0  0  0  0  0  0  0  0
    9.8662  -16.2094   28.7145 O   0  0  0  0  0  0  0  0  0  0  0  0
   11.7809  -16.9083   27.5705 C   0  0  2  0  0  0  0  0  0  0  0  0
   11.0486  -17.1497   26.3442 N   0  0  0  0  0  0  0  0  0  0  0  0
   11.9823  -18.1756   28.3203 C   0  0  0  0  0  0  0  0  0  0  0  0
   12.8507  -18.2037   29.4152 O   0  0  0  0  0  0  0  0  0  0  0  0
   11.3975  -19.2268   28.0047 O   0  0  0  0  0  0  0  0  0  0  0  0
  2  1  1  0
  3  4  1  0
  3  2  1  0
  4  5  1  0
  5  7  1  0
  5  6  1  1
  7  8  2  0
  9  7  1  0
  9 10  1  0
 10 15  1  0
 11 12  1  0
 10 11  1  6
 12 13  1  0
 13 14  2  0
 15 22  1  0
 15 16  2  0
 17 13  1  0
 19 21  1  0
 19 18  1  6
 20 19  1  0
 21 23  1  0
 21 22  1  6
 23 24  1  0
 25 23  2  0
M  END
$$$$
