MET.pdb
     RDKit          3D

 25 24  0  0  1  0  0  0  0  0999 V2000
    6.2646  -12.3562   26.9862 C   0  0  0  0  0  0  0  0  0  0  0  0
    6.9733  -12.9485   25.4478 S   0  0  0  0  0  0  0  0  0  0  0  0
    6.1301  -14.3889   24.8494 C   0  0  0  0  0  0  0  0  0  0  0  0
    6.6850  -15.0192   23.6460 C   0  0  0  0  0  0  0  0  0  0  0  0
    6.8464  -16.4861   23.5757 C   0  0  2  0  0  0  0  0  0  0  0  0
    6.0057  -17.0514   24.6557 N   0  0  0  0  0  0  0  0  0  0  0  0
    8.2833  -16.8541   23.9393 C   0  0  0  0  0  0  0  0  0  0  0  0
    8.4459  -17.8677   24.6428 O   0  0  0  0  0  0  0  0  0  0  0  0
    9.3762  -16.0924   23.5061 N   0  0  0  0  0  0  0  0  0  0  0  0
   10.7555  -16.5856   23.6147 C   0  0  1  0  0  0  0  0  0  0  0  0
   11.6624  -15.8396   22.7076 C   0  0  0  0  0  0  0  0  0  0  0  0
   13.0670  -16.3399   22.7402 C   0  0  0  0  0  0  0  0  0  0  0  0
   13.4257  -17.2688   21.6535 C   0  0  0  0  0  0  0  0  0  0  0  0
   13.6244  -16.9463   20.4611 O   0  0  0  0  0  0  0  0  0  0  0  0
   11.2056  -16.4892   25.0218 C   0  0  0  0  0  0  0  0  0  0  0  0
   12.3054  -16.9306   25.4192 O   0  0  0  0  0  0  0  0  0  0  0  0
   13.5688  -18.6414   21.9258 O   0  0  0  0  0  0  0  0  0  0  0  0
   10.7248  -14.1044   29.3757 C   0  0  0  0  0  0  0  0  0  0  0  0
   10.1563  -14.4455   28.0205 C   0  0  1  0  0  0  0  0  0  0  0  0
   10.2163  -13.3529   27.1729 O   0  0  0  0  0  0  0  0  0  0  0  0
   10.8802  -15.5857   27.3653 C   0  0  2  0  0  0  0  0  0  0  0  0
   10.3927  -15.8731   26.0320 N   0  0  0  0  0  0  0  0  0  0  0  0
   10.8772  -16.8140   28.2020 C   0  0  0  0  0  0  0  0  0  0  0  0
   11.5319  -16.8143   29.4369 O   0  0  0  0  0  0  0  0  0  0  0  0
   10.3048  -17.8564   27.8381 O   0  0  0  0  0  0  0  0  0  0  0  0
  2  1  1  0
  3  4  1  0
  3  2  1  0
  4  5  1  0
  5  7  1  0
  5  6  1  1
  7  8  2  0
  9  7  1  0
  9 10  1  0
 10 15  1  0
 11 12  1  0
 10 11  1  6
 12 13  1  0
 13 14  2  0
 15 22  1  0
 15 16  2  0
 17 13  1  0
 19 21  1  0
 19 18  1  1
 20 19  1  0
 21 23  1  0
 21 22  1  6
 23 24  1  0
 25 23  2  0
M  END
$$$$
