MET.pdb
     RDKit          3D

 25 24  0  0  1  0  0  0  0  0999 V2000
    8.1363  -11.3687   19.6020 C   0  0  0  0  0  0  0  0  0  0  0  0
    8.2015  -13.1160   20.0055 S   0  0  0  0  0  0  0  0  0  0  0  0
    6.7513  -13.6414   20.8797 C   0  0  0  0  0  0  0  0  0  0  0  0
    6.7463  -15.0258   21.3664 C   0  0  0  0  0  0  0  0  0  0  0  0
    7.7983  -15.9724   20.9422 C   0  0  2  0  0  0  0  0  0  0  0  0
    7.1037  -17.1001   20.2800 N   0  0  0  0  0  0  0  0  0  0  0  0
    8.4671  -16.5712   22.1777 C   0  0  0  0  0  0  0  0  0  0  0  0
    7.7815  -17.3429   22.8727 O   0  0  0  0  0  0  0  0  0  0  0  0
    9.7914  -16.2721   22.5224 N   0  0  0  0  0  0  0  0  0  0  0  0
   10.4494  -16.8928   23.6798 C   0  0  1  0  0  0  0  0  0  0  0  0
   11.7810  -17.4335   23.3106 C   0  0  0  0  0  0  0  0  0  0  0  0
   11.7384  -18.3429   22.1294 C   0  0  0  0  0  0  0  0  0  0  0  0
   13.0470  -18.8600   21.6903 C   0  0  0  0  0  0  0  0  0  0  0  0
   13.4064  -20.0574   21.7402 O   0  0  0  0  0  0  0  0  0  0  0  0
   10.5570  -15.9039   24.7763 C   0  0  0  0  0  0  0  0  0  0  0  0
   11.1827  -14.8275   24.6668 O   0  0  0  0  0  0  0  0  0  0  0  0
   14.0069  -17.9766   21.1643 O   0  0  0  0  0  0  0  0  0  0  0  0
    8.5857  -13.3988   26.2198 C   0  0  0  0  0  0  0  0  0  0  0  0
    8.8231  -14.3629   27.3557 C   0  0  1  0  0  0  0  0  0  0  0  0
    7.7471  -15.2206   27.5057 O   0  0  0  0  0  0  0  0  0  0  0  0
   10.0578  -15.1926   27.1553 C   0  0  2  0  0  0  0  0  0  0  0  0
    9.9393  -16.1252   26.0533 N   0  0  0  0  0  0  0  0  0  0  0  0
   10.4752  -15.8960   28.3962 C   0  0  0  0  0  0  0  0  0  0  0  0
   10.7976  -15.1569   29.5380 O   0  0  0  0  0  0  0  0  0  0  0  0
   10.5487  -17.1360   28.4566 O   0  0  0  0  0  0  0  0  0  0  0  0
  2  1  1  0
  3  4  1  0
  3  2  1  0
  4  5  1  0
  5  7  1  0
  5  6  1  1
  7  8  2  0
  9  7  1  0
  9 10  1  0
 10 15  1  0
 11 12  1  0
 10 11  1  6
 12 13  1  0
 13 14  2  0
 15 22  1  0
 15 16  2  0
 17 13  1  0
 19 21  1  0
 19 18  1  6
 20 19  1  0
 21 23  1  0
 21 22  1  6
 23 24  1  0
 25 23  2  0
M  END
$$$$
