MET.pdb
     RDKit          3D

 25 24  0  0  1  0  0  0  0  0999 V2000
    8.6726  -11.8679   20.7530 C   0  0  0  0  0  0  0  0  0  0  0  0
    7.8812  -12.4321   19.2446 S   0  0  0  0  0  0  0  0  0  0  0  0
    7.5801  -14.1790   19.2762 C   0  0  0  0  0  0  0  0  0  0  0  0
    7.9658  -14.8874   20.5021 C   0  0  0  0  0  0  0  0  0  0  0  0
    8.6817  -16.1777   20.4275 C   0  0  2  0  0  0  0  0  0  0  0  0
    7.7440  -17.1408   19.8065 N   0  0  0  0  0  0  0  0  0  0  0  0
    8.9298  -16.7000   21.8409 C   0  0  0  0  0  0  0  0  0  0  0  0
    7.9573  -17.1956   22.4386 O   0  0  0  0  0  0  0  0  0  0  0  0
   10.1908  -16.6294   22.4469 N   0  0  0  0  0  0  0  0  0  0  0  0
   10.4080  -17.0582   23.8350 C   0  0  1  0  0  0  0  0  0  0  0  0
   11.7018  -17.7706   23.9776 C   0  0  0  0  0  0  0  0  0  0  0  0
   11.9596  -18.2466   25.3673 C   0  0  0  0  0  0  0  0  0  0  0  0
   13.2760  -18.8750   25.5793 C   0  0  0  0  0  0  0  0  0  0  0  0
   14.3810  -18.3033   25.4476 O   0  0  0  0  0  0  0  0  0  0  0  0
   10.3414  -15.8821   24.7317 C   0  0  0  0  0  0  0  0  0  0  0  0
   10.9699  -14.8231   24.5177 O   0  0  0  0  0  0  0  0  0  0  0  0
   13.3520  -20.2264   25.9620 O   0  0  0  0  0  0  0  0  0  0  0  0
    8.0516  -12.8412   27.6297 C   0  0  0  0  0  0  0  0  0  0  0  0
    8.0907  -14.1111   26.8161 C   0  0  1  0  0  0  0  0  0  0  0  0
    7.7278  -13.8653   25.5031 O   0  0  0  0  0  0  0  0  0  0  0  0
    9.4494  -14.7492   26.8138 C   0  0  2  0  0  0  0  0  0  0  0  0
    9.5380  -15.8867   25.9215 N   0  0  0  0  0  0  0  0  0  0  0  0
    9.9048  -15.1164   28.1800 C   0  0  0  0  0  0  0  0  0  0  0  0
   10.2426  -16.4422   28.4662 O   0  0  0  0  0  0  0  0  0  0  0  0
    9.9981  -14.2747   29.0908 O   0  0  0  0  0  0  0  0  0  0  0  0
  2  1  1  0
  3  4  1  0
  3  2  1  0
  4  5  1  0
  5  7  1  0
  5  6  1  6
  7  8  2  0
  9  7  1  0
  9 10  1  0
 10 15  1  0
 11 12  1  0
 10 11  1  6
 12 13  1  0
 13 14  2  0
 15 22  1  0
 15 16  2  0
 17 13  1  0
 19 21  1  0
 19 18  1  1
 20 19  1  0
 21 23  1  0
 21 22  1  6
 23 24  1  0
 25 23  2  0
M  END
$$$$
