MET.pdb
     RDKit          3D

 25 24  0  0  1  0  0  0  0  0999 V2000
    8.2870  -11.3734   20.9829 C   0  0  0  0  0  0  0  0  0  0  0  0
    7.8166  -12.0326   19.3816 S   0  0  0  0  0  0  0  0  0  0  0  0
    8.0296  -13.7912   19.3084 C   0  0  0  0  0  0  0  0  0  0  0  0
    8.3574  -14.4637   20.5709 C   0  0  0  0  0  0  0  0  0  0  0  0
    8.6729  -15.9070   20.5906 C   0  0  2  0  0  0  0  0  0  0  0  0
    7.4850  -16.6020   20.0441 N   0  0  0  0  0  0  0  0  0  0  0  0
    8.7937  -16.3779   22.0383 C   0  0  0  0  0  0  0  0  0  0  0  0
    7.7330  -16.5742   22.6586 O   0  0  0  0  0  0  0  0  0  0  0  0
   10.0371  -16.5826   22.6501 N   0  0  0  0  0  0  0  0  0  0  0  0
   10.1529  -17.1745   23.9895 C   0  0  1  0  0  0  0  0  0  0  0  0
   11.1955  -18.2299   24.0187 C   0  0  0  0  0  0  0  0  0  0  0  0
   12.1989  -18.0942   22.9237 C   0  0  0  0  0  0  0  0  0  0  0  0
   13.2229  -19.1534   22.8786 C   0  0  0  0  0  0  0  0  0  0  0  0
   14.1506  -19.2288   22.0425 O   0  0  0  0  0  0  0  0  0  0  0  0
   10.4397  -16.1096   24.9773 C   0  0  0  0  0  0  0  0  0  0  0  0
   11.2359  -15.1711   24.7587 O   0  0  0  0  0  0  0  0  0  0  0  0
   13.2006  -20.1883   23.8310 O   0  0  0  0  0  0  0  0  0  0  0  0
    8.4166  -13.3403   26.3798 C   0  0  0  0  0  0  0  0  0  0  0  0
    8.8088  -14.2331   27.5309 C   0  0  1  0  0  0  0  0  0  0  0  0
    7.7845  -15.1098   27.8444 O   0  0  0  0  0  0  0  0  0  0  0  0
   10.0406  -15.0393   27.2377 C   0  0  2  0  0  0  0  0  0  0  0  0
    9.8108  -16.0901   26.2676 N   0  0  0  0  0  0  0  0  0  0  0  0
   10.6644  -15.5887   28.4697 C   0  0  0  0  0  0  0  0  0  0  0  0
   11.0648  -14.7223   29.4908 O   0  0  0  0  0  0  0  0  0  0  0  0
   10.8453  -16.8091   28.6275 O   0  0  0  0  0  0  0  0  0  0  0  0
  2  1  1  0
  3  4  1  0
  3  2  1  0
  4  5  1  0
  5  7  1  0
  5  6  1  1
  7  8  2  0
  9  7  1  0
  9 10  1  0
 10 15  1  0
 11 12  1  0
 10 11  1  6
 12 13  1  0
 13 14  2  0
 15 22  1  0
 15 16  2  0
 17 13  1  0
 19 21  1  0
 19 18  1  6
 20 19  1  0
 21 23  1  0
 21 22  1  6
 23 24  1  0
 25 23  2  0
M  END
$$$$
