MET.pdb
     RDKit          3D

 25 24  0  0  1  0  0  0  0  0999 V2000
    5.2592  -10.6327   26.0858 C   0  0  0  0  0  0  0  0  0  0  0  0
    6.5963  -11.8147   25.8989 S   0  0  0  0  0  0  0  0  0  0  0  0
    6.0146  -13.4857   26.0128 C   0  0  0  0  0  0  0  0  0  0  0  0
    7.0302  -14.5403   25.9135 C   0  0  0  0  0  0  0  0  0  0  0  0
    7.0936  -15.4088   24.7199 C   0  0  2  0  0  0  0  0  0  0  0  0
    5.9015  -16.2853   24.7770 N   0  0  0  0  0  0  0  0  0  0  0  0
    8.2958  -16.3431   24.8384 C   0  0  0  0  0  0  0  0  0  0  0  0
    8.2358  -17.2331   25.7061 O   0  0  0  0  0  0  0  0  0  0  0  0
    9.4201  -16.2132   24.0130 N   0  0  0  0  0  0  0  0  0  0  0  0
   10.6011  -17.0719   24.1725 C   0  0  1  0  0  0  0  0  0  0  0  0
   11.4867  -16.9881   22.9849 C   0  0  0  0  0  0  0  0  0  0  0  0
   12.6587  -17.9073   23.0605 C   0  0  0  0  0  0  0  0  0  0  0  0
   13.5519  -17.8801   21.8883 C   0  0  0  0  0  0  0  0  0  0  0  0
   14.2195  -18.8494   21.4638 O   0  0  0  0  0  0  0  0  0  0  0  0
   11.3237  -16.6942   25.4083 C   0  0  0  0  0  0  0  0  0  0  0  0
   12.1463  -15.7545   25.4587 O   0  0  0  0  0  0  0  0  0  0  0  0
   13.7019  -16.6915   21.1512 O   0  0  0  0  0  0  0  0  0  0  0  0
   11.0526  -14.7045   28.0725 C   0  0  0  0  0  0  0  0  0  0  0  0
   11.1178  -16.0684   28.7141 C   0  0  1  0  0  0  0  0  0  0  0  0
    9.8466  -16.5533   28.9687 O   0  0  0  0  0  0  0  0  0  0  0  0
   11.8378  -17.0706   27.8594 C   0  0  2  0  0  0  0  0  0  0  0  0
   11.1203  -17.3960   26.6440 N   0  0  0  0  0  0  0  0  0  0  0  0
   12.1895  -18.3051   28.6086 C   0  0  0  0  0  0  0  0  0  0  0  0
   13.0974  -18.2384   29.6693 O   0  0  0  0  0  0  0  0  0  0  0  0
   11.6980  -19.4110   28.3220 O   0  0  0  0  0  0  0  0  0  0  0  0
  2  1  1  0
  3  4  1  0
  3  2  1  0
  4  5  1  0
  5  7  1  0
  5  6  1  1
  7  8  2  0
  9  7  1  0
  9 10  1  0
 10 15  1  0
 11 12  1  0
 10 11  1  6
 12 13  1  0
 13 14  2  0
 15 22  1  0
 15 16  2  0
 17 13  1  0
 19 21  1  0
 19 18  1  6
 20 19  1  0
 21 23  1  0
 21 22  1  6
 23 24  1  0
 25 23  2  0
M  END
$$$$
