MET.pdb
     RDKit          3D

 25 24  0  0  1  0  0  0  0  0999 V2000
    9.7898  -12.8020   18.7101 C   0  0  0  0  0  0  0  0  0  0  0  0
    8.1207  -12.2149   19.0086 S   0  0  0  0  0  0  0  0  0  0  0  0
    7.4291  -12.9250   20.4786 C   0  0  0  0  0  0  0  0  0  0  0  0
    7.7191  -14.3433   20.7190 C   0  0  0  0  0  0  0  0  0  0  0  0
    6.9757  -15.0950   21.7511 C   0  0  2  0  0  0  0  0  0  0  0  0
    6.9108  -14.2175   22.9420 N   0  0  0  0  0  0  0  0  0  0  0  0
    7.7961  -16.3094   22.1806 C   0  0  0  0  0  0  0  0  0  0  0  0
    7.2775  -17.4284   22.0148 O   0  0  0  0  0  0  0  0  0  0  0  0
    9.0751  -16.1810   22.7371 N   0  0  0  0  0  0  0  0  0  0  0  0
    9.9026  -17.3525   23.0546 C   0  0  1  0  0  0  0  0  0  0  0  0
   11.2138  -17.2832   22.3635 C   0  0  0  0  0  0  0  0  0  0  0  0
   11.0945  -17.2824   20.8769 C   0  0  0  0  0  0  0  0  0  0  0  0
   12.3740  -17.2359   20.1465 C   0  0  0  0  0  0  0  0  0  0  0  0
   12.6676  -16.4120   19.2519 O   0  0  0  0  0  0  0  0  0  0  0  0
   10.0740  -17.4535   24.5216 C   0  0  0  0  0  0  0  0  0  0  0  0
   10.4783  -16.5059   25.2293 O   0  0  0  0  0  0  0  0  0  0  0  0
   13.3815  -18.1722   20.4410 O   0  0  0  0  0  0  0  0  0  0  0  0
    8.9299  -19.6564   28.7983 C   0  0  0  0  0  0  0  0  0  0  0  0
    8.7561  -19.4942   27.3085 C   0  0  1  0  0  0  0  0  0  0  0  0
    7.6048  -18.7811   27.0224 O   0  0  0  0  0  0  0  0  0  0  0  0
    9.9153  -18.7861   26.6696 C   0  0  2  0  0  0  0  0  0  0  0  0
    9.7818  -18.6663   25.2322 N   0  0  0  0  0  0  0  0  0  0  0  0
   11.2207  -19.4004   27.0266 C   0  0  0  0  0  0  0  0  0  0  0  0
   11.8353  -19.0698   28.2376 O   0  0  0  0  0  0  0  0  0  0  0  0
   11.7941  -20.2097   26.2763 O   0  0  0  0  0  0  0  0  0  0  0  0
  2  1  1  0
  3  4  1  0
  3  2  1  0
  4  5  1  0
  5  7  1  0
  5  6  1  1
  7  8  2  0
  9  7  1  0
  9 10  1  0
 10 15  1  0
 11 12  1  0
 10 11  1  6
 12 13  1  0
 13 14  2  0
 15 22  1  0
 15 16  2  0
 17 13  1  0
 19 21  1  0
 19 18  1  1
 20 19  1  0
 21 23  1  0
 21 22  1  6
 23 24  1  0
 25 23  2  0
M  END
$$$$
