MET.pdb
     RDKit          3D

 25 24  0  0  1  0  0  0  0  0999 V2000
    7.2946  -11.4597   19.8572 C   0  0  0  0  0  0  0  0  0  0  0  0
    8.0841  -12.8648   20.6461 S   0  0  0  0  0  0  0  0  0  0  0  0
    6.9400  -13.7888   21.6364 C   0  0  0  0  0  0  0  0  0  0  0  0
    7.4930  -14.9176   22.3936 C   0  0  0  0  0  0  0  0  0  0  0  0
    8.3181  -15.9401   21.7177 C   0  0  2  0  0  0  0  0  0  0  0  0
    7.3744  -16.8548   21.0356 N   0  0  0  0  0  0  0  0  0  0  0  0
    9.0278  -16.7916   22.7682 C   0  0  0  0  0  0  0  0  0  0  0  0
    8.3191  -17.5558   23.4484 O   0  0  0  0  0  0  0  0  0  0  0  0
   10.4129  -16.7236   22.9657 N   0  0  0  0  0  0  0  0  0  0  0  0
   11.0647  -17.3736   24.1105 C   0  0  1  0  0  0  0  0  0  0  0  0
   12.3390  -18.0166   23.7050 C   0  0  0  0  0  0  0  0  0  0  0  0
   12.4478  -18.2270   22.2325 C   0  0  0  0  0  0  0  0  0  0  0  0
   13.7955  -18.0273   21.6699 C   0  0  0  0  0  0  0  0  0  0  0  0
   14.8407  -18.5789   22.0804 O   0  0  0  0  0  0  0  0  0  0  0  0
   11.2837  -16.3789   25.1849 C   0  0  0  0  0  0  0  0  0  0  0  0
   12.0958  -15.4339   25.0860 O   0  0  0  0  0  0  0  0  0  0  0  0
   13.9763  -17.1551   20.5813 O   0  0  0  0  0  0  0  0  0  0  0  0
    8.3599  -14.8435   27.4550 C   0  0  0  0  0  0  0  0  0  0  0  0
    9.7896  -14.3629   27.4891 C   0  0  1  0  0  0  0  0  0  0  0  0
   10.0181  -13.5786   28.6065 O   0  0  0  0  0  0  0  0  0  0  0  0
   10.7751  -15.4950   27.5032 C   0  0  2  0  0  0  0  0  0  0  0  0
   10.5651  -16.4406   26.4262 N   0  0  0  0  0  0  0  0  0  0  0  0
   10.8171  -16.1931   28.8146 C   0  0  0  0  0  0  0  0  0  0  0  0
   11.1920  -15.4905   29.9633 O   0  0  0  0  0  0  0  0  0  0  0  0
   10.5262  -17.3969   28.9286 O   0  0  0  0  0  0  0  0  0  0  0  0
  2  1  1  0
  3  4  1  0
  3  2  1  0
  4  5  1  0
  5  7  1  0
  5  6  1  1
  7  8  2  0
  9  7  1  0
  9 10  1  0
 10 15  1  0
 11 12  1  0
 10 11  1  6
 12 13  1  0
 13 14  2  0
 15 22  1  0
 15 16  2  0
 17 13  1  0
 19 21  1  0
 19 18  1  1
 20 19  1  0
 21 23  1  0
 21 22  1  6
 23 24  1  0
 25 23  2  0
M  END
$$$$
