QQM.pdb
     RDKit          3D

 27 26  0  0  1  0  0  0  0  0999 V2000
    8.9070  -13.0527   17.8374 N   0  0  0  0  0  0  0  0  0  0  0  0
    8.5601  -14.0433   16.8699 C   0  0  0  0  0  0  0  0  0  0  0  0
    8.1827  -13.6323   15.7361 O   0  0  0  0  0  0  0  0  0  0  0  0
    8.6403  -15.5139   17.1858 C   0  0  0  0  0  0  0  0  0  0  0  0
    9.1179  -15.6873   18.5891 C   0  0  0  0  0  0  0  0  0  0  0  0
    8.7576  -16.9742   19.2443 C   0  0  2  0  0  0  0  0  0  0  0  0
    8.1000  -17.7896   18.2156 N   0  0  0  0  0  0  0  0  0  0  0  0
    7.8976  -16.8443   20.4411 C   0  0  0  0  0  0  0  0  0  0  0  0
    6.7979  -16.2416   20.3789 O   0  0  0  0  0  0  0  0  0  0  0  0
    6.3907  -20.8906   24.6851 N   0  0  0  0  0  0  0  0  0  0  0  0
    7.7688  -20.5757   24.6522 C   0  0  0  0  0  0  0  0  0  0  0  0
    8.5863  -21.3574   25.1724 O   0  0  0  0  0  0  0  0  0  0  0  0
    8.2354  -19.3350   24.0090 C   0  0  0  0  0  0  0  0  0  0  0  0
    7.0614  -18.5630   23.5114 C   0  0  0  0  0  0  0  0  0  0  0  0
    7.4485  -17.2345   22.8963 C   0  0  2  0  0  0  0  0  0  0  0  0
    8.2553  -17.3855   21.7194 N   0  0  0  0  0  0  0  0  0  0  0  0
    8.1703  -16.3886   23.8692 C   0  0  0  0  0  0  0  0  0  0  0  0
    9.4136  -16.4696   23.9645 O   0  0  0  0  0  0  0  0  0  0  0  0
    5.4904  -10.6035   26.2856 C   0  0  0  0  0  0  0  0  0  0  0  0
    6.1915  -11.5351   27.6050 S   0  0  0  0  0  0  0  0  0  0  0  0
    7.4696  -12.6816   27.1506 C   0  0  0  0  0  0  0  0  0  0  0  0
    7.0371  -13.6637   26.1148 C   0  0  0  0  0  0  0  0  0  0  0  0
    8.1171  -14.5783   25.6456 C   0  0  2  0  0  0  0  0  0  0  0  0
    7.4569  -15.4938   24.6856 N   0  0  0  0  0  0  0  0  0  0  0  0
    8.6745  -15.3919   26.7531 C   0  0  0  0  0  0  0  0  0  0  0  0
    8.1467  -16.5437   26.9488 O   0  0  0  0  0  0  0  0  0  0  0  0
    9.6922  -15.0063   27.5653 O   0  0  0  0  0  0  0  0  0  0  0  0
  2  1  1  0
  3  2  2  0
  4  2  1  0
  5  4  1  0
  6  5  1  0
  6  8  1  0
  6  7  1  6
  8  9  2  0
 11 12  2  0
 11 10  1  0
 13 11  1  0
 14 13  1  0
 15 14  1  1
 16  8  1  0
 16 15  1  0
 17 15  1  0
 17 18  2  0
 20 19  1  0
 20 21  1  0
 21 22  1  0
 23 22  1  1
 23 24  1  0
 24 17  1  0
 25 27  1  0
 25 23  1  0
 26 25  2  0
M  END
$$$$
