QQM.pdb
     RDKit          3D

 27 26  0  0  1  0  0  0  0  0999 V2000
    7.2258  -19.1514   17.2128 N   0  0  0  0  0  0  0  0  0  0  0  0
    6.9443  -20.3121   17.9943 C   0  0  0  0  0  0  0  0  0  0  0  0
    5.9108  -20.9729   17.6907 O   0  0  0  0  0  0  0  0  0  0  0  0
    7.8393  -20.7317   19.1308 C   0  0  0  0  0  0  0  0  0  0  0  0
    8.9183  -19.7154   19.3045 C   0  0  0  0  0  0  0  0  0  0  0  0
    9.0509  -19.1343   20.6683 C   0  0  2  0  0  0  0  0  0  0  0  0
    7.6939  -19.0802   21.2261 N   0  0  0  0  0  0  0  0  0  0  0  0
    9.6929  -17.8024   20.7180 C   0  0  0  0  0  0  0  0  0  0  0  0
   10.8598  -17.6358   20.2855 O   0  0  0  0  0  0  0  0  0  0  0  0
    7.5650  -12.2819   18.9590 N   0  0  0  0  0  0  0  0  0  0  0  0
    8.0969  -13.4128   18.2975 C   0  0  0  0  0  0  0  0  0  0  0  0
    7.7454  -13.6579   17.1286 O   0  0  0  0  0  0  0  0  0  0  0  0
    9.0582  -14.2943   18.9828 C   0  0  0  0  0  0  0  0  0  0  0  0
    8.7324  -14.3478   20.4363 C   0  0  0  0  0  0  0  0  0  0  0  0
    9.6034  -15.3239   21.1991 C   0  0  2  0  0  0  0  0  0  0  0  0
    9.0400  -16.6426   21.2505 N   0  0  0  0  0  0  0  0  0  0  0  0
    9.8493  -14.8518   22.5773 C   0  0  0  0  0  0  0  0  0  0  0  0
   10.2779  -13.6945   22.7732 O   0  0  0  0  0  0  0  0  0  0  0  0
    5.5958  -12.3826   27.8178 C   0  0  0  0  0  0  0  0  0  0  0  0
    6.1270  -13.1060   26.3029 S   0  0  0  0  0  0  0  0  0  0  0  0
    7.6601  -14.0004   26.3668 C   0  0  0  0  0  0  0  0  0  0  0  0
    8.1247  -14.4665   25.0284 C   0  0  0  0  0  0  0  0  0  0  0  0
    9.4160  -15.2117   25.0509 C   0  0  2  0  0  0  0  0  0  0  0  0
    9.6002  -15.7055   23.6660 N   0  0  0  0  0  0  0  0  0  0  0  0
    9.3636  -16.3841   25.9576 C   0  0  0  0  0  0  0  0  0  0  0  0
    9.2536  -17.5372   25.4083 O   0  0  0  0  0  0  0  0  0  0  0  0
    9.4223  -16.3222   27.3128 O   0  0  0  0  0  0  0  0  0  0  0  0
  2  1  1  0
  3  2  2  0
  4  2  1  0
  5  4  1  0
  6  5  1  0
  6  8  1  0
  6  7  1  6
  8  9  2  0
 11 12  2  0
 11 10  1  0
 13 11  1  0
 14 13  1  0
 15 14  1  1
 16  8  1  0
 16 15  1  0
 17 15  1  0
 17 18  2  0
 20 19  1  0
 20 21  1  0
 21 22  1  0
 23 22  1  6
 23 24  1  0
 24 17  1  0
 25 27  1  0
 25 23  1  0
 26 25  2  0
M  END
$$$$
