QQM.pdb
     RDKit          3D

 27 26  0  0  1  0  0  0  0  0999 V2000
   12.3693  -19.4015   16.9652 N   0  0  0  0  0  0  0  0  0  0  0  0
   11.3812  -20.2814   17.5008 C   0  0  0  0  0  0  0  0  0  0  0  0
   11.1016  -21.3117   16.8245 O   0  0  0  0  0  0  0  0  0  0  0  0
   10.7016  -19.9954   18.8142 C   0  0  0  0  0  0  0  0  0  0  0  0
   11.2358  -18.7190   19.3735 C   0  0  0  0  0  0  0  0  0  0  0  0
   10.5297  -18.1880   20.5712 C   0  0  2  0  0  0  0  0  0  0  0  0
    9.1249  -18.5917   20.4333 N   0  0  0  0  0  0  0  0  0  0  0  0
   10.6398  -16.7250   20.7613 C   0  0  0  0  0  0  0  0  0  0  0  0
   11.7077  -16.1215   20.4935 O   0  0  0  0  0  0  0  0  0  0  0  0
    7.3976  -12.3595   18.6184 N   0  0  0  0  0  0  0  0  0  0  0  0
    7.7143  -13.6991   18.2949 C   0  0  0  0  0  0  0  0  0  0  0  0
    7.2914  -14.1865   17.2303 O   0  0  0  0  0  0  0  0  0  0  0  0
    8.5369  -14.5124   19.2074 C   0  0  0  0  0  0  0  0  0  0  0  0
    8.8562  -13.7181   20.4276 C   0  0  0  0  0  0  0  0  0  0  0  0
    9.6555  -14.5018   21.4475 C   0  0  2  0  0  0  0  0  0  0  0  0
    9.5598  -15.9200   21.2520 N   0  0  0  0  0  0  0  0  0  0  0  0
    9.2264  -14.1758   22.8232 C   0  0  0  0  0  0  0  0  0  0  0  0
    8.7881  -13.0355   23.0863 O   0  0  0  0  0  0  0  0  0  0  0  0
    7.1798  -11.4439   27.8801 C   0  0  0  0  0  0  0  0  0  0  0  0
    6.3707  -12.4371   26.6721 S   0  0  0  0  0  0  0  0  0  0  0  0
    6.9434  -14.1129   26.5366 C   0  0  0  0  0  0  0  0  0  0  0  0
    7.5297  -14.4275   25.2018 C   0  0  0  0  0  0  0  0  0  0  0  0
    8.9501  -14.8787   25.2451 C   0  0  2  0  0  0  0  0  0  0  0  0
    9.3118  -15.1493   23.8338 N   0  0  0  0  0  0  0  0  0  0  0  0
    9.1087  -16.1374   26.0132 C   0  0  0  0  0  0  0  0  0  0  0  0
    8.9364  -16.0680   27.2817 O   0  0  0  0  0  0  0  0  0  0  0  0
    9.4207  -17.3437   25.4733 O   0  0  0  0  0  0  0  0  0  0  0  0
  2  1  1  0
  3  2  2  0
  4  2  1  0
  5  4  1  0
  6  5  1  0
  6  8  1  0
  6  7  1  6
  8  9  2  0
 11 12  2  0
 11 10  1  0
 13 11  1  0
 14 13  1  0
 15 14  1  6
 16  8  1  0
 16 15  1  0
 17 15  1  0
 17 18  2  0
 20 19  1  0
 20 21  1  0
 21 22  1  0
 23 22  1  6
 23 24  1  0
 24 17  1  0
 25 27  1  0
 25 23  1  0
 26 25  2  0
M  END
$$$$
