QQM.pdb
     RDKit          3D

 27 26  0  0  1  0  0  0  0  0999 V2000
   10.8376  -20.5890   17.0251 N   0  0  0  0  0  0  0  0  0  0  0  0
    9.5272  -21.0388   17.3688 C   0  0  0  0  0  0  0  0  0  0  0  0
    9.2001  -22.1993   16.9905 O   0  0  0  0  0  0  0  0  0  0  0  0
    8.5760  -20.1692   18.1484 C   0  0  0  0  0  0  0  0  0  0  0  0
    9.2238  -18.8512   18.4137 C   0  0  0  0  0  0  0  0  0  0  0  0
    9.4656  -18.5217   19.8448 C   0  0  2  0  0  0  0  0  0  0  0  0
    8.2161  -18.8247   20.5535 N   0  0  0  0  0  0  0  0  0  0  0  0
    9.8897  -17.1276   20.0998 C   0  0  0  0  0  0  0  0  0  0  0  0
   10.9261  -16.6637   19.5641 O   0  0  0  0  0  0  0  0  0  0  0  0
    8.2274  -12.1756   18.4426 N   0  0  0  0  0  0  0  0  0  0  0  0
    7.9180  -13.5337   18.1990 C   0  0  0  0  0  0  0  0  0  0  0  0
    7.7168  -13.9141   17.0307 O   0  0  0  0  0  0  0  0  0  0  0  0
    7.8340  -14.4916   19.3153 C   0  0  0  0  0  0  0  0  0  0  0  0
    8.5026  -13.9136   20.5155 C   0  0  0  0  0  0  0  0  0  0  0  0
    9.5099  -14.8566   21.1395 C   0  0  2  0  0  0  0  0  0  0  0  0
    9.1620  -16.2364   20.9550 N   0  0  0  0  0  0  0  0  0  0  0  0
    9.6648  -14.5886   22.5841 C   0  0  0  0  0  0  0  0  0  0  0  0
   10.0651  -13.4701   22.9717 O   0  0  0  0  0  0  0  0  0  0  0  0
    6.3612  -11.8531   27.8957 C   0  0  0  0  0  0  0  0  0  0  0  0
    6.8730  -12.3889   26.2985 S   0  0  0  0  0  0  0  0  0  0  0  0
    7.0690  -14.1424   26.0951 C   0  0  0  0  0  0  0  0  0  0  0  0
    7.6893  -14.5171   24.7915 C   0  0  0  0  0  0  0  0  0  0  0  0
    8.9540  -15.2972   24.9140 C   0  0  2  0  0  0  0  0  0  0  0  0
    9.3613  -15.5925   23.5202 N   0  0  0  0  0  0  0  0  0  0  0  0
    8.7446  -16.5855   25.6181 C   0  0  0  0  0  0  0  0  0  0  0  0
    8.8077  -17.6511   24.9081 O   0  0  0  0  0  0  0  0  0  0  0  0
    8.4927  -16.7138   26.9463 O   0  0  0  0  0  0  0  0  0  0  0  0
  2  1  1  0
  3  2  2  0
  4  2  1  0
  5  4  1  0
  6  5  1  0
  6  8  1  0
  6  7  1  1
  8  9  2  0
 11 12  2  0
 11 10  1  0
 13 11  1  0
 14 13  1  0
 15 14  1  1
 16  8  1  0
 16 15  1  0
 17 15  1  0
 17 18  2  0
 20 19  1  0
 20 21  1  0
 21 22  1  0
 23 22  1  6
 23 24  1  0
 24 17  1  0
 25 27  1  0
 25 23  1  0
 26 25  2  0
M  END
$$$$
