QQM.pdb
     RDKit          3D

 27 26  0  0  1  0  0  0  0  0999 V2000
    7.4895  -17.8025   15.5180 N   0  0  0  0  0  0  0  0  0  0  0  0
    8.5555  -17.6609   16.4567 C   0  0  0  0  0  0  0  0  0  0  0  0
    9.5117  -16.9017   16.1306 O   0  0  0  0  0  0  0  0  0  0  0  0
    8.5419  -18.3840   17.7779 C   0  0  0  0  0  0  0  0  0  0  0  0
    9.8297  -18.1296   18.4880 C   0  0  0  0  0  0  0  0  0  0  0  0
    9.7289  -17.8987   19.9548 C   0  0  2  0  0  0  0  0  0  0  0  0
    8.4574  -18.4976   20.3792 N   0  0  0  0  0  0  0  0  0  0  0  0
    9.8057  -16.4804   20.3687 C   0  0  0  0  0  0  0  0  0  0  0  0
   10.8444  -15.8064   20.1607 O   0  0  0  0  0  0  0  0  0  0  0  0
    8.9381  -12.4277   18.9176 N   0  0  0  0  0  0  0  0  0  0  0  0
    8.0043  -13.3648   18.4182 C   0  0  0  0  0  0  0  0  0  0  0  0
    7.9358  -13.5640   17.1912 O   0  0  0  0  0  0  0  0  0  0  0  0
    7.1198  -14.0999   19.3392 C   0  0  0  0  0  0  0  0  0  0  0  0
    7.4445  -13.7233   20.7443 C   0  0  0  0  0  0  0  0  0  0  0  0
    8.7085  -14.3839   21.2536 C   0  0  2  0  0  0  0  0  0  0  0  0
    8.7246  -15.7992   21.0186 N   0  0  0  0  0  0  0  0  0  0  0  0
    8.8940  -14.1338   22.6978 C   0  0  0  0  0  0  0  0  0  0  0  0
    9.0953  -12.9710   23.1088 O   0  0  0  0  0  0  0  0  0  0  0  0
    7.1015  -11.3846   27.7298 C   0  0  0  0  0  0  0  0  0  0  0  0
    6.1343  -12.4900   26.7588 S   0  0  0  0  0  0  0  0  0  0  0  0
    6.8009  -14.1227   26.5479 C   0  0  0  0  0  0  0  0  0  0  0  0
    7.2546  -14.3967   25.1538 C   0  0  0  0  0  0  0  0  0  0  0  0
    8.6064  -15.0183   25.0581 C   0  0  2  0  0  0  0  0  0  0  0  0
    8.8431  -15.2046   23.6072 N   0  0  0  0  0  0  0  0  0  0  0  0
    8.6515  -16.3499   25.7093 C   0  0  0  0  0  0  0  0  0  0  0  0
    8.4876  -16.3794   26.9805 O   0  0  0  0  0  0  0  0  0  0  0  0
    8.8529  -17.5260   25.0611 O   0  0  0  0  0  0  0  0  0  0  0  0
  2  1  1  0
  3  2  2  0
  4  2  1  0
  5  4  1  0
  6  5  1  0
  6  8  1  0
  6  7  1  6
  8  9  2  0
 11 12  2  0
 11 10  1  0
 13 11  1  0
 14 13  1  0
 15 14  1  1
 16  8  1  0
 16 15  1  0
 17 15  1  0
 17 18  2  0
 20 19  1  0
 20 21  1  0
 21 22  1  0
 23 22  1  6
 23 24  1  0
 24 17  1  0
 25 27  1  0
 25 23  1  0
 26 25  2  0
M  END
$$$$
