QQM.pdb
     RDKit          3D

 27 26  0  0  1  0  0  0  0  0999 V2000
    8.2560  -12.4010   17.7873 N   0  0  0  0  0  0  0  0  0  0  0  0
    7.8236  -13.4225   16.8889 C   0  0  0  0  0  0  0  0  0  0  0  0
    7.8715  -13.1598   15.6537 O   0  0  0  0  0  0  0  0  0  0  0  0
    7.3320  -14.7550   17.3902 C   0  0  0  0  0  0  0  0  0  0  0  0
    7.3218  -14.7427   18.8825 C   0  0  0  0  0  0  0  0  0  0  0  0
    8.6504  -14.8606   19.5428 C   0  0  2  0  0  0  0  0  0  0  0  0
    9.5309  -15.5318   18.5787 N   0  0  0  0  0  0  0  0  0  0  0  0
    8.6417  -15.5796   20.8357 C   0  0  0  0  0  0  0  0  0  0  0  0
    7.7103  -15.4071   21.6598 O   0  0  0  0  0  0  0  0  0  0  0  0
   12.8783  -19.6992   21.8154 N   0  0  0  0  0  0  0  0  0  0  0  0
   11.6731  -20.0355   21.1566 C   0  0  0  0  0  0  0  0  0  0  0  0
   11.6770  -20.9385   20.2996 O   0  0  0  0  0  0  0  0  0  0  0  0
   10.4231  -19.3255   21.4797 C   0  0  0  0  0  0  0  0  0  0  0  0
   10.6906  -18.3059   22.5336 C   0  0  0  0  0  0  0  0  0  0  0  0
    9.7098  -17.1526   22.4992 C   0  0  2  0  0  0  0  0  0  0  0  0
    9.6716  -16.4986   21.2226 N   0  0  0  0  0  0  0  0  0  0  0  0
   10.0261  -16.1547   23.5417 C   0  0  0  0  0  0  0  0  0  0  0  0
   10.5110  -15.0488   23.2201 O   0  0  0  0  0  0  0  0  0  0  0  0
    5.9593  -11.5735   27.2949 C   0  0  0  0  0  0  0  0  0  0  0  0
    6.5580  -12.7391   26.1189 S   0  0  0  0  0  0  0  0  0  0  0  0
    8.0161  -13.6369   26.5906 C   0  0  0  0  0  0  0  0  0  0  0  0
    8.4852  -14.5884   25.5423 C   0  0  0  0  0  0  0  0  0  0  0  0
    9.6665  -15.4071   25.9391 C   0  0  2  0  0  0  0  0  0  0  0  0
    9.7807  -16.4511   24.8938 N   0  0  0  0  0  0  0  0  0  0  0  0
    9.4613  -16.0796   27.2448 C   0  0  0  0  0  0  0  0  0  0  0  0
    8.9422  -17.2515   27.2181 O   0  0  0  0  0  0  0  0  0  0  0  0
    9.7802  -15.5468   28.4525 O   0  0  0  0  0  0  0  0  0  0  0  0
  2  1  1  0
  3  2  2  0
  4  2  1  0
  5  4  1  0
  6  5  1  0
  6  8  1  0
  6  7  1  6
  8  9  2  0
 11 12  2  0
 11 10  1  0
 13 11  1  0
 14 13  1  0
 15 14  1  6
 16  8  1  0
 16 15  1  0
 17 15  1  0
 17 18  2  0
 20 19  1  0
 20 21  1  0
 21 22  1  0
 23 22  1  6
 23 24  1  0
 24 17  1  0
 25 27  1  0
 25 23  1  0
 26 25  2  0
M  END
$$$$
