QQM.pdb
     RDKit          3D

 27 26  0  0  1  0  0  0  0  0999 V2000
    7.8503  -12.4458   17.6101 N   0  0  0  0  0  0  0  0  0  0  0  0
    7.7313  -13.5595   16.7252 C   0  0  0  0  0  0  0  0  0  0  0  0
    7.8066  -13.3203   15.4867 O   0  0  0  0  0  0  0  0  0  0  0  0
    7.5253  -14.9585   17.2441 C   0  0  0  0  0  0  0  0  0  0  0  0
    7.3488  -14.9097   18.7252 C   0  0  0  0  0  0  0  0  0  0  0  0
    8.5980  -14.9754   19.5315 C   0  0  2  0  0  0  0  0  0  0  0  0
    9.5795  -15.6962   18.7115 N   0  0  0  0  0  0  0  0  0  0  0  0
    8.4505  -15.6145   20.8576 C   0  0  0  0  0  0  0  0  0  0  0  0
    7.3852  -15.4973   21.5116 O   0  0  0  0  0  0  0  0  0  0  0  0
   11.5194  -20.6613   22.9090 N   0  0  0  0  0  0  0  0  0  0  0  0
   10.5641  -20.5535   21.8720 C   0  0  0  0  0  0  0  0  0  0  0  0
   10.4010  -21.5087   21.0904 O   0  0  0  0  0  0  0  0  0  0  0  0
    9.7680  -19.3237   21.7161 C   0  0  0  0  0  0  0  0  0  0  0  0
   10.1357  -18.3560   22.7885 C   0  0  0  0  0  0  0  0  0  0  0  0
    9.3364  -17.0715   22.7216 C   0  0  2  0  0  0  0  0  0  0  0  0
    9.4897  -16.3910   21.4677 N   0  0  0  0  0  0  0  0  0  0  0  0
    9.7131  -16.1536   23.8163 C   0  0  0  0  0  0  0  0  0  0  0  0
   10.7980  -15.5357   23.7669 O   0  0  0  0  0  0  0  0  0  0  0  0
    6.1113  -10.6685   25.4587 C   0  0  0  0  0  0  0  0  0  0  0  0
    6.3079  -12.2752   26.1516 S   0  0  0  0  0  0  0  0  0  0  0  0
    7.8502  -13.0852   25.8053 C   0  0  0  0  0  0  0  0  0  0  0  0
    7.9702  -14.4227   26.4541 C   0  0  0  0  0  0  0  0  0  0  0  0
    9.2115  -15.1688   26.0999 C   0  0  2  0  0  0  0  0  0  0  0  0
    8.8497  -15.9768   24.9116 N   0  0  0  0  0  0  0  0  0  0  0  0
    9.6289  -16.0951   27.1802 C   0  0  0  0  0  0  0  0  0  0  0  0
   10.1039  -15.5655   28.2466 O   0  0  0  0  0  0  0  0  0  0  0  0
    9.5448  -17.4491   27.1190 O   0  0  0  0  0  0  0  0  0  0  0  0
  2  1  1  0
  3  2  2  0
  4  2  1  0
  5  4  1  0
  6  5  1  0
  6  8  1  0
  6  7  1  6
  8  9  2  0
 11 12  2  0
 11 10  1  0
 13 11  1  0
 14 13  1  0
 15 14  1  6
 16  8  1  0
 16 15  1  0
 17 15  1  0
 17 18  2  0
 20 19  1  0
 20 21  1  0
 21 22  1  0
 23 22  1  1
 23 24  1  0
 24 17  1  0
 25 27  1  0
 25 23  1  0
 26 25  2  0
M  END
$$$$
