QQM.pdb
     RDKit          3D

 27 26  0  0  1  0  0  0  0  0999 V2000
    9.9233  -13.6370   18.2813 N   0  0  0  0  0  0  0  0  0  0  0  0
    8.6788  -13.2575   17.6941 C   0  0  0  0  0  0  0  0  0  0  0  0
    8.7218  -12.7286   16.5473 O   0  0  0  0  0  0  0  0  0  0  0  0
    7.3716  -13.4777   18.4093 C   0  0  0  0  0  0  0  0  0  0  0  0
    7.6402  -14.1014   19.7383 C   0  0  0  0  0  0  0  0  0  0  0  0
    7.9403  -15.5591   19.7238 C   0  0  2  0  0  0  0  0  0  0  0  0
    6.8000  -16.2073   19.0643 N   0  0  0  0  0  0  0  0  0  0  0  0
    8.1874  -16.1573   21.0542 C   0  0  0  0  0  0  0  0  0  0  0  0
    7.2307  -16.4910   21.7956 O   0  0  0  0  0  0  0  0  0  0  0  0
   12.8824  -19.8646   22.6311 N   0  0  0  0  0  0  0  0  0  0  0  0
   12.3970  -19.5323   23.9170 C   0  0  0  0  0  0  0  0  0  0  0  0
   12.9548  -20.0097   24.9224 O   0  0  0  0  0  0  0  0  0  0  0  0
   11.2423  -18.6297   24.0681 C   0  0  0  0  0  0  0  0  0  0  0  0
   10.9452  -17.9817   22.7591 C   0  0  0  0  0  0  0  0  0  0  0  0
    9.7589  -17.0427   22.8230 C   0  0  2  0  0  0  0  0  0  0  0  0
    9.5042  -16.3895   21.5711 N   0  0  0  0  0  0  0  0  0  0  0  0
    9.9479  -16.0182   23.8706 C   0  0  0  0  0  0  0  0  0  0  0  0
   10.9841  -15.3198   23.8804 O   0  0  0  0  0  0  0  0  0  0  0  0
    6.3889  -10.5362   26.3935 C   0  0  0  0  0  0  0  0  0  0  0  0
    6.2111  -12.1635   27.0419 S   0  0  0  0  0  0  0  0  0  0  0  0
    7.6957  -13.1357   27.1140 C   0  0  0  0  0  0  0  0  0  0  0  0
    7.8256  -14.0951   25.9795 C   0  0  0  0  0  0  0  0  0  0  0  0
    9.1055  -14.8598   25.9644 C   0  0  2  0  0  0  0  0  0  0  0  0
    8.9614  -15.8306   24.8543 N   0  0  0  0  0  0  0  0  0  0  0  0
    9.3117  -15.6202   27.2208 C   0  0  0  0  0  0  0  0  0  0  0  0
    9.5332  -14.9367   28.2825 O   0  0  0  0  0  0  0  0  0  0  0  0
    9.2834  -16.9739   27.3239 O   0  0  0  0  0  0  0  0  0  0  0  0
  2  1  1  0
  3  2  2  0
  4  2  1  0
  5  4  1  0
  6  5  1  0
  6  8  1  0
  6  7  1  1
  8  9  2  0
 11 12  2  0
 11 10  1  0
 13 11  1  0
 14 13  1  0
 15 14  1  6
 16  8  1  0
 16 15  1  0
 17 15  1  0
 17 18  2  0
 20 19  1  0
 20 21  1  0
 21 22  1  0
 23 22  1  1
 23 24  1  0
 24 17  1  0
 25 27  1  0
 25 23  1  0
 26 25  2  0
M  END
$$$$
