QQM.pdb
     RDKit          3D

 27 26  0  0  1  0  0  0  0  0999 V2000
    9.2144  -14.1918   17.1992 N   0  0  0  0  0  0  0  0  0  0  0  0
    8.5870  -13.5384   18.3023 C   0  0  0  0  0  0  0  0  0  0  0  0
    9.2951  -12.7349   18.9731 O   0  0  0  0  0  0  0  0  0  0  0  0
    7.1445  -13.7946   18.6519 C   0  0  0  0  0  0  0  0  0  0  0  0
    7.0159  -13.9251   20.1331 C   0  0  0  0  0  0  0  0  0  0  0  0
    7.8379  -14.9925   20.7655 C   0  0  2  0  0  0  0  0  0  0  0  0
    7.6735  -16.1882   19.9296 N   0  0  0  0  0  0  0  0  0  0  0  0
    7.4992  -15.2864   22.1753 C   0  0  0  0  0  0  0  0  0  0  0  0
    6.8393  -14.4674   22.8610 O   0  0  0  0  0  0  0  0  0  0  0  0
    7.1504  -20.9112   24.9348 N   0  0  0  0  0  0  0  0  0  0  0  0
    6.9789  -20.0495   26.0427 C   0  0  0  0  0  0  0  0  0  0  0  0
    6.7255  -20.5353   27.1607 O   0  0  0  0  0  0  0  0  0  0  0  0
    7.0985  -18.5902   25.8783 C   0  0  0  0  0  0  0  0  0  0  0  0
    7.4084  -18.2757   24.4547 C   0  0  0  0  0  0  0  0  0  0  0  0
    7.5754  -16.7919   24.2026 C   0  0  2  0  0  0  0  0  0  0  0  0
    7.8928  -16.4968   22.8348 N   0  0  0  0  0  0  0  0  0  0  0  0
    8.6226  -16.2195   25.0737 C   0  0  0  0  0  0  0  0  0  0  0  0
    9.8283  -16.4202   24.8143 O   0  0  0  0  0  0  0  0  0  0  0  0
    5.1415  -12.3143   27.7942 C   0  0  0  0  0  0  0  0  0  0  0  0
    6.7496  -11.5972   27.7843 S   0  0  0  0  0  0  0  0  0  0  0  0
    8.0197  -12.5533   26.9924 C   0  0  0  0  0  0  0  0  0  0  0  0
    8.4572  -13.7304   27.7970 C   0  0  0  0  0  0  0  0  0  0  0  0
    9.2500  -14.7365   27.0340 C   0  0  2  0  0  0  0  0  0  0  0  0
    8.2604  -15.4497   26.1928 N   0  0  0  0  0  0  0  0  0  0  0  0
    9.8967  -15.7268   27.9286 C   0  0  0  0  0  0  0  0  0  0  0  0
   10.7935  -15.2846   28.7309 O   0  0  0  0  0  0  0  0  0  0  0  0
    9.6093  -17.0537   27.9564 O   0  0  0  0  0  0  0  0  0  0  0  0
  2  1  1  0
  3  2  2  0
  4  2  1  0
  5  4  1  0
  6  5  1  0
  6  8  1  0
  6  7  1  6
  8  9  2  0
 11 12  2  0
 11 10  1  0
 13 11  1  0
 14 13  1  0
 15 14  1  6
 16  8  1  0
 16 15  1  0
 17 15  1  0
 17 18  2  0
 20 19  1  0
 20 21  1  0
 21 22  1  0
 23 22  1  1
 23 24  1  0
 24 17  1  0
 25 27  1  0
 25 23  1  0
 26 25  2  0
M  END
$$$$
