QQM.pdb
     RDKit          3D

 27 26  0  0  1  0  0  0  0  0999 V2000
    9.2648  -13.8120   15.8111 N   0  0  0  0  0  0  0  0  0  0  0  0
    7.8471  -13.8737   15.9652 C   0  0  0  0  0  0  0  0  0  0  0  0
    7.1649  -14.0964   14.9250 O   0  0  0  0  0  0  0  0  0  0  0  0
    7.1924  -13.6821   17.3081 C   0  0  0  0  0  0  0  0  0  0  0  0
    8.2452  -13.4162   18.3320 C   0  0  0  0  0  0  0  0  0  0  0  0
    9.0004  -14.6054   18.8121 C   0  0  2  0  0  0  0  0  0  0  0  0
    8.9235  -15.6029   17.7376 N   0  0  0  0  0  0  0  0  0  0  0  0
    8.5208  -15.1730   20.0913 C   0  0  0  0  0  0  0  0  0  0  0  0
    7.4204  -14.8161   20.5793 O   0  0  0  0  0  0  0  0  0  0  0  0
   10.1014  -20.7283   22.2495 N   0  0  0  0  0  0  0  0  0  0  0  0
    9.1548  -20.4233   21.2443 C   0  0  0  0  0  0  0  0  0  0  0  0
    8.7638  -21.3249   20.4800 O   0  0  0  0  0  0  0  0  0  0  0  0
    8.6346  -19.0523   21.1009 C   0  0  0  0  0  0  0  0  0  0  0  0
    9.1911  -18.1951   22.1858 C   0  0  0  0  0  0  0  0  0  0  0  0
    8.7865  -16.7418   22.0536 C   0  0  2  0  0  0  0  0  0  0  0  0
    9.2636  -16.1445   20.8393 N   0  0  0  0  0  0  0  0  0  0  0  0
    9.2706  -15.9488   23.2023 C   0  0  0  0  0  0  0  0  0  0  0  0
   10.4617  -15.5733   23.2435 O   0  0  0  0  0  0  0  0  0  0  0  0
    5.9316  -11.2022   25.9714 C   0  0  0  0  0  0  0  0  0  0  0  0
    7.3359  -11.5519   26.9744 S   0  0  0  0  0  0  0  0  0  0  0  0
    7.8015  -13.2622   27.0869 C   0  0  0  0  0  0  0  0  0  0  0  0
    7.6567  -13.9968   25.7969 C   0  0  0  0  0  0  0  0  0  0  0  0
    8.8161  -14.8686   25.4523 C   0  0  2  0  0  0  0  0  0  0  0  0
    8.3901  -15.6179   24.2470 N   0  0  0  0  0  0  0  0  0  0  0  0
    9.1116  -15.8480   26.5260 C   0  0  0  0  0  0  0  0  0  0  0  0
    8.5563  -16.9994   26.4293 O   0  0  0  0  0  0  0  0  0  0  0  0
    9.9189  -15.6128   27.5923 O   0  0  0  0  0  0  0  0  0  0  0  0
  2  1  1  0
  3  2  2  0
  4  2  1  0
  5  4  1  0
  6  5  1  0
  6  8  1  0
  6  7  1  6
  8  9  2  0
 11 12  2  0
 11 10  1  0
 13 11  1  0
 14 13  1  0
 15 14  1  1
 16  8  1  0
 16 15  1  0
 17 15  1  0
 17 18  2  0
 20 19  1  0
 20 21  1  0
 21 22  1  0
 23 22  1  1
 23 24  1  0
 24 17  1  0
 25 27  1  0
 25 23  1  0
 26 25  2  0
M  END
$$$$
