QQM.pdb
     RDKit          3D

 27 26  0  0  1  0  0  0  0  0999 V2000
    8.3694  -12.3267   18.9047 N   0  0  0  0  0  0  0  0  0  0  0  0
    8.0568  -13.3295   17.9382 C   0  0  0  0  0  0  0  0  0  0  0  0
    8.4848  -13.1487   16.7630 O   0  0  0  0  0  0  0  0  0  0  0  0
    7.2526  -14.5499   18.3023 C   0  0  0  0  0  0  0  0  0  0  0  0
    6.9693  -14.5297   19.7675 C   0  0  0  0  0  0  0  0  0  0  0  0
    7.9494  -15.2452   20.6292 C   0  0  2  0  0  0  0  0  0  0  0  0
    8.1582  -16.5601   20.0106 N   0  0  0  0  0  0  0  0  0  0  0  0
    7.5453  -15.3888   22.0451 C   0  0  0  0  0  0  0  0  0  0  0  0
    7.2112  -14.3856   22.7222 O   0  0  0  0  0  0  0  0  0  0  0  0
    5.9452  -20.7379   24.9520 N   0  0  0  0  0  0  0  0  0  0  0  0
    7.2811  -20.4029   25.2723 C   0  0  0  0  0  0  0  0  0  0  0  0
    8.0241  -21.2673   25.7731 O   0  0  0  0  0  0  0  0  0  0  0  0
    7.7913  -19.0445   25.0169 C   0  0  0  0  0  0  0  0  0  0  0  0
    6.7020  -18.2064   24.4402 C   0  0  0  0  0  0  0  0  0  0  0  0
    7.1561  -16.8016   24.1030 C   0  0  2  0  0  0  0  0  0  0  0  0
    7.5096  -16.6528   22.7204 N   0  0  0  0  0  0  0  0  0  0  0  0
    8.3057  -16.3996   24.9394 C   0  0  0  0  0  0  0  0  0  0  0  0
    9.4706  -16.6375   24.5548 O   0  0  0  0  0  0  0  0  0  0  0  0
    6.3764  -10.6814   25.9238 C   0  0  0  0  0  0  0  0  0  0  0  0
    6.8115  -11.9918   27.0164 S   0  0  0  0  0  0  0  0  0  0  0  0
    8.2902  -12.8855   26.6048 C   0  0  0  0  0  0  0  0  0  0  0  0
    8.6281  -13.9498   27.5935 C   0  0  0  0  0  0  0  0  0  0  0  0
    9.1860  -15.1942   26.9908 C   0  0  2  0  0  0  0  0  0  0  0  0
    8.0869  -15.7496   26.1666 N   0  0  0  0  0  0  0  0  0  0  0  0
    9.5436  -16.1976   28.0226 C   0  0  0  0  0  0  0  0  0  0  0  0
    8.7863  -17.2277   28.1165 O   0  0  0  0  0  0  0  0  0  0  0  0
   10.6041  -16.1022   28.8653 O   0  0  0  0  0  0  0  0  0  0  0  0
  2  1  1  0
  3  2  2  0
  4  2  1  0
  5  4  1  0
  6  5  1  0
  6  8  1  0
  6  7  1  6
  8  9  2  0
 11 12  2  0
 11 10  1  0
 13 11  1  0
 14 13  1  0
 15 14  1  6
 16  8  1  0
 16 15  1  0
 17 15  1  0
 17 18  2  0
 20 19  1  0
 20 21  1  0
 21 22  1  0
 23 22  1  1
 23 24  1  0
 24 17  1  0
 25 27  1  0
 25 23  1  0
 26 25  2  0
M  END
$$$$
