QQM.pdb
     RDKit          3D

 27 26  0  0  1  0  0  0  0  0999 V2000
    8.8049  -13.6961   14.6909 N   0  0  0  0  0  0  0  0  0  0  0  0
    8.1031  -14.2662   15.7954 C   0  0  0  0  0  0  0  0  0  0  0  0
    7.9184  -15.5162   15.7758 O   0  0  0  0  0  0  0  0  0  0  0  0
    7.6047  -13.4161   16.9346 C   0  0  0  0  0  0  0  0  0  0  0  0
    7.4693  -14.2643   18.1550 C   0  0  0  0  0  0  0  0  0  0  0  0
    8.6305  -14.2544   19.0860 C   0  0  2  0  0  0  0  0  0  0  0  0
    9.7714  -14.7802   18.3262 N   0  0  0  0  0  0  0  0  0  0  0  0
    8.4332  -15.0209   20.3358 C   0  0  0  0  0  0  0  0  0  0  0  0
    7.4044  -14.8536   21.0358 O   0  0  0  0  0  0  0  0  0  0  0  0
   11.4887  -20.2580   22.1338 N   0  0  0  0  0  0  0  0  0  0  0  0
   10.6739  -19.9966   23.2596 C   0  0  0  0  0  0  0  0  0  0  0  0
   10.6510  -20.8127   24.1995 O   0  0  0  0  0  0  0  0  0  0  0  0
    9.8590  -18.7707   23.3221 C   0  0  0  0  0  0  0  0  0  0  0  0
   10.0309  -17.9965   22.0601 C   0  0  0  0  0  0  0  0  0  0  0  0
    9.2056  -16.7271   22.0313 C   0  0  2  0  0  0  0  0  0  0  0  0
    9.3813  -15.9821   20.8176 N   0  0  0  0  0  0  0  0  0  0  0  0
    9.5287  -15.8571   23.1809 C   0  0  0  0  0  0  0  0  0  0  0  0
   10.6499  -15.3101   23.2537 O   0  0  0  0  0  0  0  0  0  0  0  0
    6.0014  -10.4882   27.5266 C   0  0  0  0  0  0  0  0  0  0  0  0
    6.0752  -11.7737   26.3256 S   0  0  0  0  0  0  0  0  0  0  0  0
    7.5155  -12.8112   26.3883 C   0  0  0  0  0  0  0  0  0  0  0  0
    7.5576  -13.8247   25.2950 C   0  0  0  0  0  0  0  0  0  0  0  0
    8.7751  -14.6855   25.3011 C   0  0  2  0  0  0  0  0  0  0  0  0
    8.5738  -15.6458   24.1907 N   0  0  0  0  0  0  0  0  0  0  0  0
    8.9030  -15.4556   26.5620 C   0  0  0  0  0  0  0  0  0  0  0  0
    8.5531  -16.6884   26.5263 O   0  0  0  0  0  0  0  0  0  0  0  0
    9.3587  -14.9520   27.7379 O   0  0  0  0  0  0  0  0  0  0  0  0
  2  1  1  0
  3  2  2  0
  4  2  1  0
  5  4  1  0
  6  5  1  0
  6  8  1  0
  6  7  1  6
  8  9  2  0
 11 12  2  0
 11 10  1  0
 13 11  1  0
 14 13  1  0
 15 14  1  6
 16  8  1  0
 16 15  1  0
 17 15  1  0
 17 18  2  0
 20 19  1  0
 20 21  1  0
 21 22  1  0
 23 22  1  1
 23 24  1  0
 24 17  1  0
 25 27  1  0
 25 23  1  0
 26 25  2  0
M  END
$$$$
