QQM.pdb
     RDKit          3D

 27 26  0  0  1  0  0  0  0  0999 V2000
   10.0085  -13.3394   19.1905 N   0  0  0  0  0  0  0  0  0  0  0  0
    8.7436  -13.0485   18.5965 C   0  0  0  0  0  0  0  0  0  0  0  0
    8.7555  -12.4938   17.4612 O   0  0  0  0  0  0  0  0  0  0  0  0
    7.4511  -13.3877   19.2917 C   0  0  0  0  0  0  0  0  0  0  0  0
    7.7553  -13.9907   20.6226 C   0  0  0  0  0  0  0  0  0  0  0  0
    7.8577  -15.4751   20.6558 C   0  0  2  0  0  0  0  0  0  0  0  0
    6.5651  -15.9873   20.1843 N   0  0  0  0  0  0  0  0  0  0  0  0
    8.1990  -16.0465   21.9771 C   0  0  0  0  0  0  0  0  0  0  0  0
    7.3392  -16.1112   22.8898 O   0  0  0  0  0  0  0  0  0  0  0  0
   13.0877  -19.8316   23.2151 N   0  0  0  0  0  0  0  0  0  0  0  0
   12.4548  -19.7557   24.4773 C   0  0  0  0  0  0  0  0  0  0  0  0
   12.8995  -20.4298   25.4248 O   0  0  0  0  0  0  0  0  0  0  0  0
   11.2803  -18.8878   24.6718 C   0  0  0  0  0  0  0  0  0  0  0  0
   10.9853  -18.1616   23.4041 C   0  0  0  0  0  0  0  0  0  0  0  0
    9.8190  -17.2043   23.5319 C   0  0  2  0  0  0  0  0  0  0  0  0
    9.5026  -16.5516   22.2938 N   0  0  0  0  0  0  0  0  0  0  0  0
   10.0834  -16.1790   24.5623 C   0  0  0  0  0  0  0  0  0  0  0  0
   11.0216  -15.3680   24.4091 O   0  0  0  0  0  0  0  0  0  0  0  0
    6.1189  -11.0339   25.7299 C   0  0  0  0  0  0  0  0  0  0  0  0
    6.4444  -12.5222   26.6126 S   0  0  0  0  0  0  0  0  0  0  0  0
    8.0148  -13.2868   26.2906 C   0  0  0  0  0  0  0  0  0  0  0  0
    8.2488  -14.5142   27.1049 C   0  0  0  0  0  0  0  0  0  0  0  0
    9.5502  -15.1909   26.8372 C   0  0  2  0  0  0  0  0  0  0  0  0
    9.2787  -16.1177   25.7134 N   0  0  0  0  0  0  0  0  0  0  0  0
   10.0074  -15.9922   27.9983 C   0  0  0  0  0  0  0  0  0  0  0  0
   10.3929  -15.3436   29.0347 O   0  0  0  0  0  0  0  0  0  0  0  0
   10.0467  -17.3490   28.0394 O   0  0  0  0  0  0  0  0  0  0  0  0
  2  1  1  0
  3  2  2  0
  4  2  1  0
  5  4  1  0
  6  5  1  0
  6  8  1  0
  6  7  1  1
  8  9  2  0
 11 12  2  0
 11 10  1  0
 13 11  1  0
 14 13  1  0
 15 14  1  6
 16  8  1  0
 16 15  1  0
 17 15  1  0
 17 18  2  0
 20 19  1  0
 20 21  1  0
 21 22  1  0
 23 22  1  1
 23 24  1  0
 24 17  1  0
 25 27  1  0
 25 23  1  0
 26 25  2  0
M  END
$$$$
