QQM.pdb
     RDKit          3D

 27 26  0  0  1  0  0  0  0  0999 V2000
    7.4976  -12.7224   16.7697 N   0  0  0  0  0  0  0  0  0  0  0  0
    7.8817  -14.0226   16.3231 C   0  0  0  0  0  0  0  0  0  0  0  0
    7.9109  -14.2162   15.0746 O   0  0  0  0  0  0  0  0  0  0  0  0
    8.2370  -15.1159   17.2963 C   0  0  0  0  0  0  0  0  0  0  0  0
    8.1932  -14.5686   18.6841 C   0  0  0  0  0  0  0  0  0  0  0  0
    9.1883  -15.1317   19.6368 C   0  0  2  0  0  0  0  0  0  0  0  0
    9.8080  -16.2755   18.9563 N   0  0  0  0  0  0  0  0  0  0  0  0
    8.6353  -15.5368   20.9478 C   0  0  0  0  0  0  0  0  0  0  0  0
    7.7954  -14.8160   21.5406 O   0  0  0  0  0  0  0  0  0  0  0  0
    5.2839  -19.0838   21.6698 N   0  0  0  0  0  0  0  0  0  0  0  0
    6.2994  -19.2875   22.6324 C   0  0  0  0  0  0  0  0  0  0  0  0
    6.0021  -19.2955   23.8413 O   0  0  0  0  0  0  0  0  0  0  0  0
    7.6969  -19.4886   22.2113 C   0  0  0  0  0  0  0  0  0  0  0  0
    8.5972  -18.6745   23.0763 C   0  0  0  0  0  0  0  0  0  0  0  0
    8.4399  -17.1851   22.8524 C   0  0  2  0  0  0  0  0  0  0  0  0
    9.0134  -16.7501   21.6111 N   0  0  0  0  0  0  0  0  0  0  0  0
    9.0452  -16.4146   23.9581 C   0  0  0  0  0  0  0  0  0  0  0  0
   10.2880  -16.3139   24.0412 O   0  0  0  0  0  0  0  0  0  0  0  0
    6.4715  -10.7595   25.9652 C   0  0  0  0  0  0  0  0  0  0  0  0
    6.7546  -11.6503   27.4574 S   0  0  0  0  0  0  0  0  0  0  0  0
    7.9271  -12.9804   27.3554 C   0  0  0  0  0  0  0  0  0  0  0  0
    7.6654  -13.9087   26.2178 C   0  0  0  0  0  0  0  0  0  0  0  0
    8.7485  -14.9041   25.9746 C   0  0  2  0  0  0  0  0  0  0  0  0
    8.2218  -15.7957   24.9148 N   0  0  0  0  0  0  0  0  0  0  0  0
    9.0252  -15.7270   27.1769 C   0  0  0  0  0  0  0  0  0  0  0  0
    9.6201  -15.1461   28.1527 O   0  0  0  0  0  0  0  0  0  0  0  0
    8.6970  -17.0375   27.3145 O   0  0  0  0  0  0  0  0  0  0  0  0
  2  1  1  0
  3  2  2  0
  4  2  1  0
  5  4  1  0
  6  5  1  0
  6  8  1  0
  6  7  1  6
  8  9  2  0
 11 12  2  0
 11 10  1  0
 13 11  1  0
 14 13  1  0
 15 14  1  1
 16  8  1  0
 16 15  1  0
 17 15  1  0
 17 18  2  0
 20 19  1  0
 20 21  1  0
 21 22  1  0
 23 22  1  1
 23 24  1  0
 24 17  1  0
 25 27  1  0
 25 23  1  0
 26 25  2  0
M  END
$$$$
