ESM.pdb
     RDKit          3D

 24 23  0  0  1  0  0  0  0  0999 V2000
   10.4270  -18.4821   18.0506 N   0  0  0  0  0  0  0  0  0  0  0  0
   10.8774  -18.6372   19.4242 C   0  0  1  0  0  0  0  0  0  0  0  0
   12.2491  -18.0807   19.5239 C   0  0  0  0  0  0  0  0  0  0  0  0
   13.2136  -18.8196   18.6591 C   0  0  0  0  0  0  0  0  0  0  0  0
   14.6012  -18.3252   18.6947 C   0  0  0  0  0  0  0  0  0  0  0  0
   15.4726  -18.8536   19.4145 O   0  0  0  0  0  0  0  0  0  0  0  0
    9.9220  -18.0000   20.3732 C   0  0  0  0  0  0  0  0  0  0  0  0
    9.4232  -16.8732   20.1322 O   0  0  0  0  0  0  0  0  0  0  0  0
   14.9956  -17.2359   17.9160 O   0  0  0  0  0  0  0  0  0  0  0  0
    8.4240  -19.8579   24.1449 O   0  0  0  0  0  0  0  0  0  0  0  0
    7.7279  -19.1838   23.1741 C   0  0  0  0  0  0  0  0  0  0  0  0
    8.5112  -18.1151   22.4713 C   0  0  2  0  0  0  0  0  0  0  0  0
    9.5332  -18.6395   21.5933 N   0  0  0  0  0  0  0  0  0  0  0  0
    9.0066  -17.0527   23.3598 C   0  0  0  0  0  0  0  0  0  0  0  0
   10.2102  -17.0119   23.6687 O   0  0  0  0  0  0  0  0  0  0  0  0
    6.5376  -10.5906   27.3639 C   0  0  0  0  0  0  0  0  0  0  0  0
    6.2318  -11.9878   26.2828 S   0  0  0  0  0  0  0  0  0  0  0  0
    7.6572  -13.0231   26.0261 C   0  0  0  0  0  0  0  0  0  0  0  0
    7.4337  -14.0898   25.0295 C   0  0  0  0  0  0  0  0  0  0  0  0
    8.5543  -14.9996   24.7880 C   0  0  2  0  0  0  0  0  0  0  0  0
    8.1338  -16.0825   23.8636 N   0  0  0  0  0  0  0  0  0  0  0  0
    9.1064  -15.6482   25.9675 C   0  0  0  0  0  0  0  0  0  0  0  0
   10.0262  -15.2254   26.6864 O   0  0  0  0  0  0  0  0  0  0  0  0
    8.5553  -16.9006   26.3651 O   0  0  0  0  0  0  0  0  0  0  0  0
  2  1  1  6
  3  2  1  0
  4  3  1  0
  5  6  2  0
  5  4  1  0
  7  2  1  0
  8  7  2  0
  9  5  1  0
 11 10  1  0
 12 11  1  1
 12 14  1  0
 12 13  1  0
 13  7  1  0
 14 21  1  0
 15 14  2  0
 17 16  1  0
 18 17  1  0
 19 18  1  0
 20 19  1  1
 20 22  1  0
 21 20  1  0
 22 23  2  0
 22 24  1  0
M  END
$$$$
