ESM.pdb
     RDKit          3D

 24 23  0  0  1  0  0  0  0  0999 V2000
   10.5590  -19.7484   20.2378 N   0  0  0  0  0  0  0  0  0  0  0  0
   11.0749  -18.4248   19.9281 C   0  0  1  0  0  0  0  0  0  0  0  0
   11.3380  -18.3638   18.4693 C   0  0  0  0  0  0  0  0  0  0  0  0
   12.7934  -18.4695   18.1614 C   0  0  0  0  0  0  0  0  0  0  0  0
   13.1513  -18.3174   16.7403 C   0  0  0  0  0  0  0  0  0  0  0  0
   14.0799  -17.5714   16.3690 O   0  0  0  0  0  0  0  0  0  0  0  0
   10.1369  -17.3652   20.3937 C   0  0  0  0  0  0  0  0  0  0  0  0
   10.4542  -16.1513   20.3449 O   0  0  0  0  0  0  0  0  0  0  0  0
   12.4570  -19.0097   15.7467 O   0  0  0  0  0  0  0  0  0  0  0  0
    6.2038  -18.2792   21.9974 O   0  0  0  0  0  0  0  0  0  0  0  0
    6.4801  -17.1203   21.3176 C   0  0  0  0  0  0  0  0  0  0  0  0
    7.9123  -16.6806   21.3878 C   0  0  2  0  0  0  0  0  0  0  0  0
    8.8414  -17.6817   20.9135 N   0  0  0  0  0  0  0  0  0  0  0  0
    8.2999  -16.1055   22.6850 C   0  0  0  0  0  0  0  0  0  0  0  0
    9.1044  -16.7084   23.4165 O   0  0  0  0  0  0  0  0  0  0  0  0
    7.1283  -11.0623   28.1773 C   0  0  0  0  0  0  0  0  0  0  0  0
    7.3580  -11.6985   26.5169 S   0  0  0  0  0  0  0  0  0  0  0  0
    6.3785  -13.1412   26.1584 C   0  0  0  0  0  0  0  0  0  0  0  0
    6.5537  -13.6395   24.7792 C   0  0  0  0  0  0  0  0  0  0  0  0
    7.7530  -14.4383   24.5236 C   0  0  2  0  0  0  0  0  0  0  0  0
    7.7706  -14.8813   23.1068 N   0  0  0  0  0  0  0  0  0  0  0  0
    7.8997  -15.6353   25.3375 C   0  0  0  0  0  0  0  0  0  0  0  0
    7.2600  -16.6934   25.2254 O   0  0  0  0  0  0  0  0  0  0  0  0
    8.8707  -15.6233   26.3802 O   0  0  0  0  0  0  0  0  0  0  0  0
  2  1  1  6
  3  2  1  0
  4  3  1  0
  5  6  2  0
  5  4  1  0
  7  2  1  0
  8  7  2  0
  9  5  1  0
 11 10  1  0
 12 11  1  1
 12 14  1  0
 12 13  1  0
 13  7  1  0
 14 21  1  0
 15 14  2  0
 17 16  1  0
 18 17  1  0
 19 18  1  0
 20 19  1  1
 20 22  1  0
 21 20  1  0
 22 23  2  0
 22 24  1  0
M  END
$$$$
