ESM.pdb
     RDKit          3D

 24 23  0  0  1  0  0  0  0  0999 V2000
    9.8625  -17.7856   18.1701 N   0  0  0  0  0  0  0  0  0  0  0  0
    8.6962  -16.9178   18.1464 C   0  0  1  0  0  0  0  0  0  0  0  0
    7.8053  -17.3748   17.0516 C   0  0  0  0  0  0  0  0  0  0  0  0
    8.2335  -18.6922   16.4990 C   0  0  0  0  0  0  0  0  0  0  0  0
    9.2947  -18.6346   15.4785 C   0  0  0  0  0  0  0  0  0  0  0  0
    9.3702  -17.6995   14.6559 O   0  0  0  0  0  0  0  0  0  0  0  0
    8.0206  -16.8971   19.4741 C   0  0  0  0  0  0  0  0  0  0  0  0
    6.9828  -16.2161   19.6629 O   0  0  0  0  0  0  0  0  0  0  0  0
   10.2648  -19.6347   15.3938 O   0  0  0  0  0  0  0  0  0  0  0  0
    9.0718  -19.4501   22.9601 O   0  0  0  0  0  0  0  0  0  0  0  0
    7.8594  -18.9391   22.5724 C   0  0  0  0  0  0  0  0  0  0  0  0
    7.9310  -17.5981   21.9043 C   0  0  2  0  0  0  0  0  0  0  0  0
    8.5212  -17.6475   20.5854 N   0  0  0  0  0  0  0  0  0  0  0  0
    8.5001  -16.5371   22.7492 C   0  0  0  0  0  0  0  0  0  0  0  0
    9.6738  -16.1660   22.5744 O   0  0  0  0  0  0  0  0  0  0  0  0
    6.6087  -10.8963   28.0317 C   0  0  0  0  0  0  0  0  0  0  0  0
    6.1666  -12.1645   26.8439 S   0  0  0  0  0  0  0  0  0  0  0  0
    7.5582  -13.0881   26.2277 C   0  0  0  0  0  0  0  0  0  0  0  0
    7.1883  -14.0977   25.2152 C   0  0  0  0  0  0  0  0  0  0  0  0
    8.2703  -14.9504   24.7213 C   0  0  2  0  0  0  0  0  0  0  0  0
    7.7313  -15.9377   23.7525 N   0  0  0  0  0  0  0  0  0  0  0  0
    8.9892  -15.7084   25.7340 C   0  0  0  0  0  0  0  0  0  0  0  0
    8.7491  -16.8691   26.1036 O   0  0  0  0  0  0  0  0  0  0  0  0
   10.0885  -15.0808   26.3881 O   0  0  0  0  0  0  0  0  0  0  0  0
  2  1  1  1
  3  2  1  0
  4  3  1  0
  5  6  2  0
  5  4  1  0
  7  2  1  0
  8  7  2  0
  9  5  1  0
 11 10  1  0
 12 11  1  1
 12 14  1  0
 12 13  1  0
 13  7  1  0
 14 21  1  0
 15 14  2  0
 17 16  1  0
 18 17  1  0
 19 18  1  0
 20 19  1  1
 20 22  1  0
 21 20  1  0
 22 23  2  0
 22 24  1  0
M  END
$$$$
