ESM.pdb
     RDKit          3D

 24 23  0  0  1  0  0  0  0  0999 V2000
   11.1719  -14.3657   18.0675 N   0  0  0  0  0  0  0  0  0  0  0  0
   11.3478  -15.5904   18.8310 C   0  0  1  0  0  0  0  0  0  0  0  0
   12.8034  -15.8485   18.9569 C   0  0  0  0  0  0  0  0  0  0  0  0
   13.6163  -14.6796   18.5132 C   0  0  0  0  0  0  0  0  0  0  0  0
   14.9148  -14.5193   19.1907 C   0  0  0  0  0  0  0  0  0  0  0  0
   15.0672  -13.7367   20.1504 O   0  0  0  0  0  0  0  0  0  0  0  0
   10.6581  -15.5004   20.1485 C   0  0  0  0  0  0  0  0  0  0  0  0
   10.8802  -14.5454   20.9327 O   0  0  0  0  0  0  0  0  0  0  0  0
   16.0340  -15.2449   18.7791 O   0  0  0  0  0  0  0  0  0  0  0  0
    8.1204  -18.6518   21.8144 O   0  0  0  0  0  0  0  0  0  0  0  0
    7.7833  -17.3227   21.8485 C   0  0  0  0  0  0  0  0  0  0  0  0
    8.9491  -16.3805   21.7948 C   0  0  2  0  0  0  0  0  0  0  0  0
    9.7183  -16.4919   20.5757 N   0  0  0  0  0  0  0  0  0  0  0  0
    9.7852  -16.3920   23.0049 C   0  0  0  0  0  0  0  0  0  0  0  0
   10.9023  -16.9375   22.9832 O   0  0  0  0  0  0  0  0  0  0  0  0
   10.2411  -13.4073   30.3859 C   0  0  0  0  0  0  0  0  0  0  0  0
    9.3860  -13.6228   28.8249 S   0  0  0  0  0  0  0  0  0  0  0  0
   10.1663  -14.7932   27.7338 C   0  0  0  0  0  0  0  0  0  0  0  0
    9.5613  -14.8312   26.3871 C   0  0  0  0  0  0  0  0  0  0  0  0
   10.0777  -15.8485   25.4704 C   0  0  2  0  0  0  0  0  0  0  0  0
    9.3351  -15.7927   24.1861 N   0  0  0  0  0  0  0  0  0  0  0  0
    9.9956  -17.2227   25.9411 C   0  0  0  0  0  0  0  0  0  0  0  0
    9.0113  -17.9759   25.8684 O   0  0  0  0  0  0  0  0  0  0  0  0
   11.1488  -17.7924   26.5542 O   0  0  0  0  0  0  0  0  0  0  0  0
  2  1  1  1
  3  2  1  0
  4  3  1  0
  5  6  2  0
  5  4  1  0
  7  2  1  0
  8  7  2  0
  9  5  1  0
 11 10  1  0
 12 11  1  1
 12 14  1  0
 12 13  1  0
 13  7  1  0
 14 21  1  0
 15 14  2  0
 17 16  1  0
 18 17  1  0
 19 18  1  0
 20 19  1  1
 20 22  1  0
 21 20  1  0
 22 23  2  0
 22 24  1  0
M  END
$$$$
