ESM.pdb
     RDKit          3D

 24 23  0  0  1  0  0  0  0  0999 V2000
   10.7831  -19.0366   18.6606 N   0  0  0  0  0  0  0  0  0  0  0  0
   11.3027  -18.5996   19.9463 C   0  0  1  0  0  0  0  0  0  0  0  0
   12.7372  -18.2634   19.7722 C   0  0  0  0  0  0  0  0  0  0  0  0
   13.3911  -17.9258   21.0693 C   0  0  0  0  0  0  0  0  0  0  0  0
   14.8211  -17.5809   20.9852 C   0  0  0  0  0  0  0  0  0  0  0  0
   15.7089  -18.4553   20.9210 O   0  0  0  0  0  0  0  0  0  0  0  0
   10.5021  -17.4654   20.4867 C   0  0  0  0  0  0  0  0  0  0  0  0
   10.9123  -16.2820   20.3981 O   0  0  0  0  0  0  0  0  0  0  0  0
   15.2393  -16.2493   20.9742 O   0  0  0  0  0  0  0  0  0  0  0  0
    6.3833  -17.9439   21.6790 O   0  0  0  0  0  0  0  0  0  0  0  0
    6.9431  -16.7897   21.1934 C   0  0  0  0  0  0  0  0  0  0  0  0
    8.3837  -16.5910   21.5606 C   0  0  2  0  0  0  0  0  0  0  0  0
    9.2386  -17.6730   21.1264 N   0  0  0  0  0  0  0  0  0  0  0  0
    8.5978  -16.2183   22.9673 C   0  0  0  0  0  0  0  0  0  0  0  0
    9.0673  -17.0480   23.7654 O   0  0  0  0  0  0  0  0  0  0  0  0
    5.4816  -10.8756   27.7838 C   0  0  0  0  0  0  0  0  0  0  0  0
    6.7504  -11.5856   26.7348 S   0  0  0  0  0  0  0  0  0  0  0  0
    6.4340  -13.2738   26.2668 C   0  0  0  0  0  0  0  0  0  0  0  0
    6.9260  -13.6083   24.9150 C   0  0  0  0  0  0  0  0  0  0  0  0
    7.9896  -14.6107   24.8395 C   0  0  2  0  0  0  0  0  0  0  0  0
    8.2773  -14.9339   23.4194 N   0  0  0  0  0  0  0  0  0  0  0  0
    7.7157  -15.8736   25.5082 C   0  0  0  0  0  0  0  0  0  0  0  0
    6.8823  -16.7290   25.1686 O   0  0  0  0  0  0  0  0  0  0  0  0
    8.4655  -16.1907   26.6775 O   0  0  0  0  0  0  0  0  0  0  0  0
  2  1  1  6
  3  2  1  0
  4  3  1  0
  5  6  2  0
  5  4  1  0
  7  2  1  0
  8  7  2  0
  9  5  1  0
 11 10  1  0
 12 11  1  1
 12 14  1  0
 12 13  1  0
 13  7  1  0
 14 21  1  0
 15 14  2  0
 17 16  1  0
 18 17  1  0
 19 18  1  0
 20 19  1  6
 20 22  1  0
 21 20  1  0
 22 23  2  0
 22 24  1  0
M  END
$$$$
