ESM.pdb
     RDKit          3D

 24 23  0  0  1  0  0  0  0  0999 V2000
   10.7991  -18.7374   18.8122 N   0  0  0  0  0  0  0  0  0  0  0  0
   11.0098  -19.1785   20.1815 C   0  0  1  0  0  0  0  0  0  0  0  0
   12.4171  -18.8845   20.5477 C   0  0  0  0  0  0  0  0  0  0  0  0
   13.2444  -18.5482   19.3532 C   0  0  0  0  0  0  0  0  0  0  0  0
   14.6704  -18.2944   19.6234 C   0  0  0  0  0  0  0  0  0  0  0  0
   15.0642  -17.2358   20.1534 O   0  0  0  0  0  0  0  0  0  0  0  0
   10.0256  -18.5444   21.1028 C   0  0  0  0  0  0  0  0  0  0  0  0
    9.6191  -17.3722   20.9101 O   0  0  0  0  0  0  0  0  0  0  0  0
   15.6433  -19.2391   19.2925 O   0  0  0  0  0  0  0  0  0  0  0  0
    8.6084  -20.3113   24.8999 O   0  0  0  0  0  0  0  0  0  0  0  0
    7.8104  -19.7039   23.9641 C   0  0  0  0  0  0  0  0  0  0  0  0
    8.5057  -18.6756   23.1222 C   0  0  2  0  0  0  0  0  0  0  0  0
    9.5035  -19.2386   22.2404 N   0  0  0  0  0  0  0  0  0  0  0  0
    8.9972  -17.5141   23.8791 C   0  0  0  0  0  0  0  0  0  0  0  0
   10.2145  -17.3837   24.0960 O   0  0  0  0  0  0  0  0  0  0  0  0
    6.6168  -10.5681   26.9946 C   0  0  0  0  0  0  0  0  0  0  0  0
    6.2731  -12.1090   26.1450 S   0  0  0  0  0  0  0  0  0  0  0  0
    7.6466  -13.2414   26.1271 C   0  0  0  0  0  0  0  0  0  0  0  0
    7.4045  -14.4419   25.3016 C   0  0  0  0  0  0  0  0  0  0  0  0
    8.5213  -15.3788   25.1728 C   0  0  2  0  0  0  0  0  0  0  0  0
    8.1055  -16.5494   24.3600 N   0  0  0  0  0  0  0  0  0  0  0  0
    9.0518  -15.9044   26.4215 C   0  0  0  0  0  0  0  0  0  0  0  0
    8.7496  -16.9799   26.9633 O   0  0  0  0  0  0  0  0  0  0  0  0
   10.0210  -15.1272   27.1192 O   0  0  0  0  0  0  0  0  0  0  0  0
  2  1  1  6
  3  2  1  0
  4  3  1  0
  5  6  2  0
  5  4  1  0
  7  2  1  0
  8  7  2  0
  9  5  1  0
 11 10  1  0
 12 11  1  1
 12 14  1  0
 12 13  1  0
 13  7  1  0
 14 21  1  0
 15 14  2  0
 17 16  1  0
 18 17  1  0
 19 18  1  0
 20 19  1  1
 20 22  1  0
 21 20  1  0
 22 23  2  0
 22 24  1  0
M  END
$$$$
