ESM.pdb
     RDKit          3D

 24 23  0  0  1  0  0  0  0  0999 V2000
    9.0674  -18.5589   18.6841 N   0  0  0  0  0  0  0  0  0  0  0  0
    9.5676  -18.8793   20.0111 C   0  0  1  0  0  0  0  0  0  0  0  0
   11.0002  -18.4976   20.0669 C   0  0  0  0  0  0  0  0  0  0  0  0
   11.8446  -19.3782   19.2091 C   0  0  0  0  0  0  0  0  0  0  0  0
   13.2726  -19.0203   19.1486 C   0  0  0  0  0  0  0  0  0  0  0  0
   14.1678  -19.8111   19.5089 O   0  0  0  0  0  0  0  0  0  0  0  0
    8.7486  -18.2154   21.0637 C   0  0  0  0  0  0  0  0  0  0  0  0
    8.2773  -17.0648   20.8889 O   0  0  0  0  0  0  0  0  0  0  0  0
   13.6803  -17.7698   18.6811 O   0  0  0  0  0  0  0  0  0  0  0  0
    7.6802  -20.0730   24.9386 O   0  0  0  0  0  0  0  0  0  0  0  0
    6.8730  -19.3118   24.1321 C   0  0  0  0  0  0  0  0  0  0  0  0
    7.5967  -18.2821   23.3163 C   0  0  2  0  0  0  0  0  0  0  0  0
    8.4647  -18.8553   22.3121 N   0  0  0  0  0  0  0  0  0  0  0  0
    8.2546  -17.2376   24.1162 C   0  0  0  0  0  0  0  0  0  0  0  0
    9.4849  -17.2721   24.2919 O   0  0  0  0  0  0  0  0  0  0  0  0
    6.8229  -10.6340   25.5046 C   0  0  0  0  0  0  0  0  0  0  0  0
    6.4433  -11.7087   26.8885 S   0  0  0  0  0  0  0  0  0  0  0  0
    7.4444  -13.1795   26.9518 C   0  0  0  0  0  0  0  0  0  0  0  0
    7.0710  -14.1856   25.9372 C   0  0  0  0  0  0  0  0  0  0  0  0
    8.0618  -15.2255   25.6568 C   0  0  2  0  0  0  0  0  0  0  0  0
    7.5073  -16.2006   24.6844 N   0  0  0  0  0  0  0  0  0  0  0  0
    8.5139  -15.9934   26.8069 C   0  0  0  0  0  0  0  0  0  0  0  0
    7.9867  -17.0173   27.2709 O   0  0  0  0  0  0  0  0  0  0  0  0
    9.6807  -15.5497   27.4939 O   0  0  0  0  0  0  0  0  0  0  0  0
  2  1  1  6
  3  2  1  0
  4  3  1  0
  5  6  2  0
  5  4  1  0
  7  2  1  0
  8  7  2  0
  9  5  1  0
 11 10  1  0
 12 11  1  1
 12 14  1  0
 12 13  1  0
 13  7  1  0
 14 21  1  0
 15 14  2  0
 17 16  1  0
 18 17  1  0
 19 18  1  0
 20 19  1  1
 20 22  1  0
 21 20  1  0
 22 23  2  0
 22 24  1  0
M  END
$$$$
