ESM.pdb
     RDKit          3D

 24 23  0  0  1  0  0  0  0  0999 V2000
   10.2282  -17.8678   18.0254 N   0  0  0  0  0  0  0  0  0  0  0  0
   10.6989  -18.1681   19.3679 C   0  0  1  0  0  0  0  0  0  0  0  0
   12.1241  -17.7654   19.4562 C   0  0  0  0  0  0  0  0  0  0  0  0
   13.0429  -18.9228   19.2553 C   0  0  0  0  0  0  0  0  0  0  0  0
   14.4805  -18.6031   19.2979 C   0  0  0  0  0  0  0  0  0  0  0  0
   15.2779  -19.2398   20.0159 O   0  0  0  0  0  0  0  0  0  0  0  0
    9.8440  -17.5059   20.3926 C   0  0  0  0  0  0  0  0  0  0  0  0
    9.4476  -16.3242   20.2409 O   0  0  0  0  0  0  0  0  0  0  0  0
   15.0085  -17.5650   18.5285 O   0  0  0  0  0  0  0  0  0  0  0  0
    8.1500  -19.5996   23.8997 O   0  0  0  0  0  0  0  0  0  0  0  0
    7.5435  -18.6903   23.0711 C   0  0  0  0  0  0  0  0  0  0  0  0
    8.4625  -17.6470   22.5085 C   0  0  2  0  0  0  0  0  0  0  0  0
    9.4395  -18.1827   21.5872 N   0  0  0  0  0  0  0  0  0  0  0  0
    9.0540  -16.7600   23.5219 C   0  0  0  0  0  0  0  0  0  0  0  0
   10.2393  -16.9121   23.8651 O   0  0  0  0  0  0  0  0  0  0  0  0
    5.5236  -11.7478   25.8972 C   0  0  0  0  0  0  0  0  0  0  0  0
    6.9063  -11.7733   27.0381 S   0  0  0  0  0  0  0  0  0  0  0  0
    7.9290  -13.2235   26.8953 C   0  0  0  0  0  0  0  0  0  0  0  0
    7.7275  -13.9594   25.6307 C   0  0  0  0  0  0  0  0  0  0  0  0
    8.7243  -14.9807   25.3065 C   0  0  2  0  0  0  0  0  0  0  0  0
    8.2938  -15.7418   24.1068 N   0  0  0  0  0  0  0  0  0  0  0  0
    8.9878  -15.9596   26.3501 C   0  0  0  0  0  0  0  0  0  0  0  0
    8.4232  -17.0550   26.5014 O   0  0  0  0  0  0  0  0  0  0  0  0
    9.9930  -15.6592   27.3141 O   0  0  0  0  0  0  0  0  0  0  0  0
  2  1  1  6
  3  2  1  0
  4  3  1  0
  5  6  2  0
  5  4  1  0
  7  2  1  0
  8  7  2  0
  9  5  1  0
 11 10  1  0
 12 11  1  1
 12 14  1  0
 12 13  1  0
 13  7  1  0
 14 21  1  0
 15 14  2  0
 17 16  1  0
 18 17  1  0
 19 18  1  0
 20 19  1  1
 20 22  1  0
 21 20  1  0
 22 23  2  0
 22 24  1  0
M  END
$$$$
