ESM.pdb
     RDKit          3D

 24 23  0  0  1  0  0  0  0  0999 V2000
   11.1395  -18.8581   19.3264 N   0  0  0  0  0  0  0  0  0  0  0  0
   10.4286  -17.6114   19.0932 C   0  0  1  0  0  0  0  0  0  0  0  0
    9.7643  -17.7016   17.7697 C   0  0  0  0  0  0  0  0  0  0  0  0
   10.2968  -18.8321   16.9557 C   0  0  0  0  0  0  0  0  0  0  0  0
    9.6849  -18.9959   15.6254 C   0  0  0  0  0  0  0  0  0  0  0  0
    9.2133  -20.0866   15.2449 O   0  0  0  0  0  0  0  0  0  0  0  0
    9.4761  -17.3258   20.2026 C   0  0  0  0  0  0  0  0  0  0  0  0
    8.6776  -16.3590   20.1387 O   0  0  0  0  0  0  0  0  0  0  0  0
    9.6100  -17.9255   14.7326 O   0  0  0  0  0  0  0  0  0  0  0  0
    9.0375  -19.7767   23.8978 O   0  0  0  0  0  0  0  0  0  0  0  0
    8.0621  -19.1760   23.1432 C   0  0  0  0  0  0  0  0  0  0  0  0
    8.4908  -17.9120   22.4589 C   0  0  2  0  0  0  0  0  0  0  0  0
    9.4295  -18.1352   21.3821 N   0  0  0  0  0  0  0  0  0  0  0  0
    8.9150  -16.8462   23.3795 C   0  0  0  0  0  0  0  0  0  0  0  0
   10.1250  -16.6110   23.5424 O   0  0  0  0  0  0  0  0  0  0  0  0
    6.1430  -10.6510   27.5499 C   0  0  0  0  0  0  0  0  0  0  0  0
    5.8841  -12.0977   26.5231 S   0  0  0  0  0  0  0  0  0  0  0  0
    7.3637  -13.0422   26.2263 C   0  0  0  0  0  0  0  0  0  0  0  0
    7.1532  -14.1906   25.3218 C   0  0  0  0  0  0  0  0  0  0  0  0
    8.3198  -15.0344   25.0595 C   0  0  2  0  0  0  0  0  0  0  0  0
    7.9672  -16.0903   24.0774 N   0  0  0  0  0  0  0  0  0  0  0  0
    8.8822  -15.7120   26.2177 C   0  0  0  0  0  0  0  0  0  0  0  0
    8.6348  -16.8688   26.5948 O   0  0  0  0  0  0  0  0  0  0  0  0
    9.8175  -15.0005   27.0234 O   0  0  0  0  0  0  0  0  0  0  0  0
  2  1  1  1
  3  2  1  0
  4  3  1  0
  5  6  2  0
  5  4  1  0
  7  2  1  0
  8  7  2  0
  9  5  1  0
 11 10  1  0
 12 11  1  1
 12 14  1  0
 12 13  1  0
 13  7  1  0
 14 21  1  0
 15 14  2  0
 17 16  1  0
 18 17  1  0
 19 18  1  0
 20 19  1  1
 20 22  1  0
 21 20  1  0
 22 23  2  0
 22 24  1  0
M  END
$$$$
