ESM.pdb
     RDKit          3D

 24 23  0  0  1  0  0  0  0  0999 V2000
   10.6614  -16.2178   18.2051 N   0  0  0  0  0  0  0  0  0  0  0  0
    9.4541  -15.5090   18.5976 C   0  0  1  0  0  0  0  0  0  0  0  0
    8.4128  -15.7729   17.5744 C   0  0  0  0  0  0  0  0  0  0  0  0
    8.9357  -16.5994   16.4485 C   0  0  0  0  0  0  0  0  0  0  0  0
    7.9385  -16.9944   15.4383 C   0  0  0  0  0  0  0  0  0  0  0  0
    8.2683  -17.5071   14.3497 O   0  0  0  0  0  0  0  0  0  0  0  0
    9.0302  -15.8993   19.9715 C   0  0  0  0  0  0  0  0  0  0  0  0
    8.0003  -15.4087   20.4961 O   0  0  0  0  0  0  0  0  0  0  0  0
    6.5739  -16.8071   15.6646 O   0  0  0  0  0  0  0  0  0  0  0  0
   11.2084  -18.7479   22.6144 O   0  0  0  0  0  0  0  0  0  0  0  0
    9.8536  -18.6399   22.4290 C   0  0  0  0  0  0  0  0  0  0  0  0
    9.3789  -17.2617   22.0757 C   0  0  2  0  0  0  0  0  0  0  0  0
    9.7729  -16.8442   20.7488 N   0  0  0  0  0  0  0  0  0  0  0  0
    9.6605  -16.2487   23.1043 C   0  0  0  0  0  0  0  0  0  0  0  0
   10.6841  -15.5478   23.0223 O   0  0  0  0  0  0  0  0  0  0  0  0
    6.5080  -10.9897   27.9249 C   0  0  0  0  0  0  0  0  0  0  0  0
    6.4359  -12.2284   26.6307 S   0  0  0  0  0  0  0  0  0  0  0  0
    7.8828  -13.2619   26.5439 C   0  0  0  0  0  0  0  0  0  0  0  0
    7.8629  -14.2021   25.4052 C   0  0  0  0  0  0  0  0  0  0  0  0
    9.0202  -15.0881   25.2728 C   0  0  2  0  0  0  0  0  0  0  0  0
    8.7847  -16.0643   24.1794 N   0  0  0  0  0  0  0  0  0  0  0  0
    9.3621  -15.8613   26.4568 C   0  0  0  0  0  0  0  0  0  0  0  0
    9.7625  -15.4169   27.5448 O   0  0  0  0  0  0  0  0  0  0  0  0
    9.2345  -17.2790   26.3929 O   0  0  0  0  0  0  0  0  0  0  0  0
  2  1  1  6
  3  2  1  0
  4  3  1  0
  5  6  2  0
  5  4  1  0
  7  2  1  0
  8  7  2  0
  9  5  1  0
 11 10  1  0
 12 11  1  1
 12 14  1  0
 12 13  1  0
 13  7  1  0
 14 21  1  0
 15 14  2  0
 17 16  1  0
 18 17  1  0
 19 18  1  0
 20 19  1  1
 20 22  1  0
 21 20  1  0
 22 23  2  0
 22 24  1  0
M  END
$$$$
