HSQ.pdb
     RDKit          3D

 26 26  0  0  1  0  0  0  0  0999 V2000
   27.1954  -21.5752  -17.3570 N   0  0  0  0  0  0  0  0  0  0  0  0
   26.8430  -21.5336  -15.9628 C   0  0  1  0  0  0  0  0  0  0  0  0
   28.0040  -22.0458  -15.1532 C   0  0  0  0  0  0  0  0  0  0  0  0
   28.5085  -23.3244  -15.7052 C   0  0  0  0  0  0  0  0  0  0  0  0
   27.8673  -24.5391  -15.7211 C   0  0  0  0  0  0  0  0  0  0  0  0
   28.6403  -25.4702  -16.3062 N   0  0  0  0  0  0  0  0  0  0  0  0
   29.7802  -24.8422  -16.6645 C   0  0  0  0  0  0  0  0  0  0  0  0
   29.6970  -23.5421  -16.2989 N   0  0  0  0  0  0  0  0  0  0  0  0
   26.3736  -20.2156  -15.5237 C   0  0  0  0  0  0  0  0  0  0  0  0
   25.9436  -20.0456  -14.3617 O   0  0  0  0  0  0  0  0  0  0  0  0
   26.7759  -16.7916  -17.8822 O   0  0  0  0  0  0  0  0  0  0  0  0
   26.4225  -16.6220  -16.5622 C   0  0  0  0  0  0  0  0  0  0  0  0
   25.7084  -17.8492  -15.9846 C   0  0  2  0  0  0  0  0  0  0  0  0
   26.3759  -19.0581  -16.3788 N   0  0  0  0  0  0  0  0  0  0  0  0
   24.3170  -17.7906  -16.5607 C   0  0  0  0  0  0  0  0  0  0  0  0
   23.9773  -18.6523  -17.4086 O   0  0  0  0  0  0  0  0  0  0  0  0
   20.2267  -20.8239  -14.4904 N   0  0  0  0  0  0  0  0  0  0  0  0
   19.8161  -19.4695  -14.7703 C   0  0  0  0  0  0  0  0  0  0  0  0
   18.5885  -19.3029  -14.8559 O   0  0  0  0  0  0  0  0  0  0  0  0
   20.8578  -18.4580  -14.9226 C   0  0  0  0  0  0  0  0  0  0  0  0
   21.3915  -18.1859  -16.2669 C   0  0  0  0  0  0  0  0  0  0  0  0
   21.9644  -16.8519  -16.5605 C   0  0  2  0  0  0  0  0  0  0  0  0
   23.3878  -16.8118  -16.1865 N   0  0  0  0  0  0  0  0  0  0  0  0
   21.3096  -15.6685  -16.0229 C   0  0  0  0  0  0  0  0  0  0  0  0
   21.9859  -14.7826  -15.1584 O   0  0  0  0  0  0  0  0  0  0  0  0
   20.1198  -15.3689  -16.2852 O   0  0  0  0  0  0  0  0  0  0  0  0
  2  1  1  6
  3  2  1  0
  4  5  2  0
  4  3  1  0
  6  5  1  0
  7  8  2  0
  7  6  1  0
  8  4  1  0
  9 10  2  0
  9  2  1  0
 11 12  1  0
 13 14  1  0
 13 12  1  6
 14  9  1  0
 15 13  1  0
 16 15  2  0
 18 20  1  0
 18 17  1  0
 19 18  2  0
 22 21  1  1
 21 20  1  0
 22 23  1  0
 23 15  1  0
 24 25  1  0
 24 22  1  0
 26 24  2  0
M  END
$$$$
