HSQ.pdb
     RDKit          3D

 26 26  0  0  1  0  0  0  0  0999 V2000
   26.5046  -21.4519  -14.7537 N   0  0  0  0  0  0  0  0  0  0  0  0
   25.3892  -21.3371  -15.6550 C   0  0  1  0  0  0  0  0  0  0  0  0
   24.7822  -22.7003  -15.8524 C   0  0  0  0  0  0  0  0  0  0  0  0
   25.7978  -23.6650  -16.3340 C   0  0  0  0  0  0  0  0  0  0  0  0
   26.5083  -23.6143  -17.5086 C   0  0  0  0  0  0  0  0  0  0  0  0
   27.3391  -24.6670  -17.6003 N   0  0  0  0  0  0  0  0  0  0  0  0
   27.1549  -25.3910  -16.4760 C   0  0  0  0  0  0  0  0  0  0  0  0
   26.2204  -24.7810  -15.7110 N   0  0  0  0  0  0  0  0  0  0  0  0
   24.4106  -20.3274  -15.2391 C   0  0  0  0  0  0  0  0  0  0  0  0
   23.8514  -20.4020  -14.1229 O   0  0  0  0  0  0  0  0  0  0  0  0
   24.0711  -16.3379  -16.5201 O   0  0  0  0  0  0  0  0  0  0  0  0
   22.9260  -17.0991  -16.5932 C   0  0  0  0  0  0  0  0  0  0  0  0
   22.9774  -18.3244  -15.6737 C   0  0  2  0  0  0  0  0  0  0  0  0
   24.0368  -19.2108  -16.0665 N   0  0  0  0  0  0  0  0  0  0  0  0
   21.6333  -18.9859  -15.8395 C   0  0  0  0  0  0  0  0  0  0  0  0
   21.5738  -20.0946  -16.4260 O   0  0  0  0  0  0  0  0  0  0  0  0
   20.4744  -22.3465  -12.2716 N   0  0  0  0  0  0  0  0  0  0  0  0
   19.9002  -22.7341  -13.5371 C   0  0  0  0  0  0  0  0  0  0  0  0
   19.8452  -23.9592  -13.7324 O   0  0  0  0  0  0  0  0  0  0  0  0
   19.4551  -21.6748  -14.4377 C   0  0  0  0  0  0  0  0  0  0  0  0
   19.6458  -20.2727  -14.0331 C   0  0  0  0  0  0  0  0  0  0  0  0
   19.2630  -19.1916  -14.9705 C   0  0  2  0  0  0  0  0  0  0  0  0
   20.4478  -18.4113  -15.3644 N   0  0  0  0  0  0  0  0  0  0  0  0
   18.2047  -18.2682  -14.5890 C   0  0  0  0  0  0  0  0  0  0  0  0
   18.4275  -16.8765  -14.5338 O   0  0  0  0  0  0  0  0  0  0  0  0
   17.0475  -18.6454  -14.2844 O   0  0  0  0  0  0  0  0  0  0  0  0
  2  1  1  1
  3  2  1  0
  4  5  2  0
  4  3  1  0
  6  5  1  0
  7  8  2  0
  7  6  1  0
  8  4  1  0
  9 10  2  0
  9  2  1  0
 11 12  1  0
 13 14  1  0
 13 12  1  6
 14  9  1  0
 15 13  1  0
 16 15  2  0
 18 20  1  0
 18 17  1  0
 19 18  2  0
 22 21  1  1
 21 20  1  0
 22 23  1  0
 23 15  1  0
 24 25  1  0
 24 22  1  0
 26 24  2  0
M  END
$$$$
