HSQ.pdb
     RDKit          3D

 26 26  0  0  1  0  0  0  0  0999 V2000
   30.0602  -24.9796  -16.2688 N   0  0  0  0  0  0  0  0  0  0  0  0
   30.4033  -25.9578  -17.2663 C   0  0  1  0  0  0  0  0  0  0  0  0
   31.4099  -26.9132  -16.6833 C   0  0  0  0  0  0  0  0  0  0  0  0
   32.6976  -26.2287  -16.4237 C   0  0  0  0  0  0  0  0  0  0  0  0
   33.2930  -26.0010  -15.2069 C   0  0  0  0  0  0  0  0  0  0  0  0
   34.4572  -25.3490  -15.3688 N   0  0  0  0  0  0  0  0  0  0  0  0
   34.6021  -25.1615  -16.6977 C   0  0  0  0  0  0  0  0  0  0  0  0
   33.5341  -25.6957  -17.3339 N   0  0  0  0  0  0  0  0  0  0  0  0
   29.2353  -26.6337  -17.8399 C   0  0  0  0  0  0  0  0  0  0  0  0
   28.2841  -26.9930  -17.1118 O   0  0  0  0  0  0  0  0  0  0  0  0
   29.0218  -28.1044  -21.8540 O   0  0  0  0  0  0  0  0  0  0  0  0
   27.9134  -27.5106  -21.2928 C   0  0  0  0  0  0  0  0  0  0  0  0
   27.9323  -27.5646  -19.7610 C   0  0  2  0  0  0  0  0  0  0  0  0
   29.1080  -26.9221  -19.2441 N   0  0  0  0  0  0  0  0  0  0  0  0
   27.9322  -29.0345  -19.4283 C   0  0  0  0  0  0  0  0  0  0  0  0
   28.9519  -29.5324  -18.8907 O   0  0  0  0  0  0  0  0  0  0  0  0
   25.4134  -31.5740  -15.4684 N   0  0  0  0  0  0  0  0  0  0  0  0
   26.0611  -32.7736  -15.9403 C   0  0  0  0  0  0  0  0  0  0  0  0
   25.8364  -33.7897  -15.2630 O   0  0  0  0  0  0  0  0  0  0  0  0
   26.8953  -32.6743  -17.1344 C   0  0  0  0  0  0  0  0  0  0  0  0
   27.0270  -31.3690  -17.8015 C   0  0  0  0  0  0  0  0  0  0  0  0
   26.7511  -31.2684  -19.2533 C   0  0  2  0  0  0  0  0  0  0  0  0
   26.8380  -29.8668  -19.6957 N   0  0  0  0  0  0  0  0  0  0  0  0
   25.5237  -31.8463  -19.7803 C   0  0  0  0  0  0  0  0  0  0  0  0
   25.4209  -33.2250  -20.0600 O   0  0  0  0  0  0  0  0  0  0  0  0
   24.4977  -31.1654  -20.0208 O   0  0  0  0  0  0  0  0  0  0  0  0
  2  1  1  1
  3  2  1  0
  4  5  2  0
  4  3  1  0
  6  5  1  0
  7  8  2  0
  7  6  1  0
  8  4  1  0
  9 10  2  0
  9  2  1  0
 11 12  1  0
 13 14  1  0
 13 12  1  6
 14  9  1  0
 15 13  1  0
 16 15  2  0
 18 20  1  0
 18 17  1  0
 19 18  2  0
 22 21  1  1
 21 20  1  0
 22 23  1  0
 23 15  1  0
 24 25  1  0
 24 22  1  0
 26 24  2  0
M  END
$$$$
