HSQ.pdb
     RDKit          3D

 26 26  0  0  1  0  0  0  0  0999 V2000
   16.6936  -11.1417  -16.5870 N   0  0  0  0  0  0  0  0  0  0  0  0
   17.6588  -10.9985  -15.5298 C   0  0  1  0  0  0  0  0  0  0  0  0
   18.9450  -11.6552  -15.9546 C   0  0  0  0  0  0  0  0  0  0  0  0
   18.7352  -13.0949  -16.2326 C   0  0  0  0  0  0  0  0  0  0  0  0
   18.1523  -14.0288  -15.4111 C   0  0  0  0  0  0  0  0  0  0  0  0
   18.1391  -15.2341  -16.0060 N   0  0  0  0  0  0  0  0  0  0  0  0
   18.7176  -15.0642  -17.2138 C   0  0  0  0  0  0  0  0  0  0  0  0
   19.0775  -13.7668  -17.3478 N   0  0  0  0  0  0  0  0  0  0  0  0
   17.8392   -9.6098  -15.0952 C   0  0  0  0  0  0  0  0  0  0  0  0
   18.0810   -8.7070  -15.9261 O   0  0  0  0  0  0  0  0  0  0  0  0
   18.2201   -8.5457  -11.0556 O   0  0  0  0  0  0  0  0  0  0  0  0
   17.5892   -7.6233  -11.8601 C   0  0  0  0  0  0  0  0  0  0  0  0
   17.9106   -7.8243  -13.3453 C   0  0  2  0  0  0  0  0  0  0  0  0
   17.7527   -9.2023  -13.7176 N   0  0  0  0  0  0  0  0  0  0  0  0
   19.3462   -7.3890  -13.4901 C   0  0  0  0  0  0  0  0  0  0  0  0
   20.2409   -8.2680  -13.5502 O   0  0  0  0  0  0  0  0  0  0  0  0
   22.2335   -7.3141  -17.7226 N   0  0  0  0  0  0  0  0  0  0  0  0
   23.1483   -6.3858  -17.1040 C   0  0  0  0  0  0  0  0  0  0  0  0
   24.1896   -6.1722  -17.7459 O   0  0  0  0  0  0  0  0  0  0  0  0
   22.7684   -5.8074  -15.8184 C   0  0  0  0  0  0  0  0  0  0  0  0
   21.4922   -6.2124  -15.2075 C   0  0  0  0  0  0  0  0  0  0  0  0
   21.0713   -5.5877  -13.9321 C   0  0  2  0  0  0  0  0  0  0  0  0
   19.7209   -6.0414  -13.5603 N   0  0  0  0  0  0  0  0  0  0  0  0
   21.1261   -4.1390  -13.8036 C   0  0  0  0  0  0  0  0  0  0  0  0
   22.3366   -3.4708  -13.5250 O   0  0  0  0  0  0  0  0  0  0  0  0
   20.1159   -3.4049  -13.9249 O   0  0  0  0  0  0  0  0  0  0  0  0
  2  1  1  6
  3  2  1  0
  4  5  2  0
  4  3  1  0
  6  5  1  0
  7  8  2  0
  7  6  1  0
  8  4  1  0
  9 10  2  0
  9  2  1  0
 11 12  1  0
 13 14  1  0
 13 12  1  1
 14  9  1  0
 15 13  1  0
 16 15  2  0
 18 20  1  0
 18 17  1  0
 19 18  2  0
 22 21  1  6
 21 20  1  0
 22 23  1  0
 23 15  1  0
 24 25  1  0
 24 22  1  0
 26 24  2  0
M  END
$$$$
