HSQ.pdb
     RDKit          3D

 26 26  0  0  1  0  0  0  0  0999 V2000
   20.7997  -15.4026  -16.5574 N   0  0  0  0  0  0  0  0  0  0  0  0
   21.1592  -14.1658  -17.1984 C   0  0  1  0  0  0  0  0  0  0  0  0
   20.1233  -13.8403  -18.2410 C   0  0  0  0  0  0  0  0  0  0  0  0
   20.0597  -14.9031  -19.2707 C   0  0  0  0  0  0  0  0  0  0  0  0
   20.8656  -15.0480  -20.3737 C   0  0  0  0  0  0  0  0  0  0  0  0
   20.5051  -16.1341  -21.0788 N   0  0  0  0  0  0  0  0  0  0  0  0
   19.4632  -16.6828  -20.4188 C   0  0  0  0  0  0  0  0  0  0  0  0
   19.1959  -15.9344  -19.3238 N   0  0  0  0  0  0  0  0  0  0  0  0
   21.3866  -13.0686  -16.2526 C   0  0  0  0  0  0  0  0  0  0  0  0
   20.4424  -12.5993  -15.5802 O   0  0  0  0  0  0  0  0  0  0  0  0
   24.9547  -10.8645  -16.2169 O   0  0  0  0  0  0  0  0  0  0  0  0
   24.3197  -10.9891  -15.0015 C   0  0  0  0  0  0  0  0  0  0  0  0
   22.8391  -11.3577  -15.1490 C   0  0  2  0  0  0  0  0  0  0  0  0
   22.6792  -12.4726  -16.0399 N   0  0  0  0  0  0  0  0  0  0  0  0
   22.1896  -10.1205  -15.7137 C   0  0  0  0  0  0  0  0  0  0  0  0
   21.7824  -10.1403  -16.9013 O   0  0  0  0  0  0  0  0  0  0  0  0
   17.3059   -8.9741  -16.6671 N   0  0  0  0  0  0  0  0  0  0  0  0
   17.5673   -7.5609  -16.5419 C   0  0  0  0  0  0  0  0  0  0  0  0
   16.5877   -6.8277  -16.7534 O   0  0  0  0  0  0  0  0  0  0  0  0
   18.9222   -7.1458  -16.1904 C   0  0  0  0  0  0  0  0  0  0  0  0
   19.9371   -8.1803  -15.9338 C   0  0  0  0  0  0  0  0  0  0  0  0
   21.2739   -7.7746  -15.4414 C   0  0  2  0  0  0  0  0  0  0  0  0
   22.0226   -8.9491  -14.9644 N   0  0  0  0  0  0  0  0  0  0  0  0
   21.3679   -6.7250  -14.4375 C   0  0  0  0  0  0  0  0  0  0  0  0
   21.5080   -7.0284  -13.0672 O   0  0  0  0  0  0  0  0  0  0  0  0
   21.3252   -5.5037  -14.7217 O   0  0  0  0  0  0  0  0  0  0  0  0
  2  1  1  1
  3  2  1  0
  4  5  2  0
  4  3  1  0
  6  5  1  0
  7  8  2  0
  7  6  1  0
  8  4  1  0
  9 10  2  0
  9  2  1  0
 11 12  1  0
 13 14  1  0
 13 12  1  6
 14  9  1  0
 15 13  1  0
 16 15  2  0
 18 20  1  0
 18 17  1  0
 19 18  2  0
 22 21  1  1
 21 20  1  0
 22 23  1  0
 23 15  1  0
 24 25  1  0
 24 22  1  0
 26 24  2  0
M  END
$$$$
