HSQ.pdb
     RDKit          3D

 26 26  0  0  1  0  0  0  0  0999 V2000
   18.3089  -13.0013  -15.9434 N   0  0  0  0  0  0  0  0  0  0  0  0
   18.9709  -11.9119  -16.6103 C   0  0  1  0  0  0  0  0  0  0  0  0
   17.9713  -11.1940  -17.4771 C   0  0  0  0  0  0  0  0  0  0  0  0
   17.4578  -12.0879  -18.5407 C   0  0  0  0  0  0  0  0  0  0  0  0
   17.9704  -12.2664  -19.8026 C   0  0  0  0  0  0  0  0  0  0  0  0
   17.2340  -13.1591  -20.4863 N   0  0  0  0  0  0  0  0  0  0  0  0
   16.2471  -13.5504  -19.6527 C   0  0  0  0  0  0  0  0  0  0  0  0
   16.3856  -12.8993  -18.4747 N   0  0  0  0  0  0  0  0  0  0  0  0
   19.6815  -11.0171  -15.6913 C   0  0  0  0  0  0  0  0  0  0  0  0
   19.0619  -10.3892  -14.8048 O   0  0  0  0  0  0  0  0  0  0  0  0
   23.8100  -10.3333  -16.0277 O   0  0  0  0  0  0  0  0  0  0  0  0
   23.2640  -10.2146  -14.7691 C   0  0  0  0  0  0  0  0  0  0  0  0
   21.7571   -9.9368  -14.8082 C   0  0  2  0  0  0  0  0  0  0  0  0
   21.1040  -10.8061  -15.7463 N   0  0  0  0  0  0  0  0  0  0  0  0
   21.6427   -8.4972  -15.2392 C   0  0  0  0  0  0  0  0  0  0  0  0
   21.4146   -8.2446  -16.4479 O   0  0  0  0  0  0  0  0  0  0  0  0
   17.4554   -5.1716  -15.5479 N   0  0  0  0  0  0  0  0  0  0  0  0
   18.3707   -4.0567  -15.5218 C   0  0  0  0  0  0  0  0  0  0  0  0
   17.8497   -2.9482  -15.7260 O   0  0  0  0  0  0  0  0  0  0  0  0
   19.7806   -4.3369  -15.2664 C   0  0  0  0  0  0  0  0  0  0  0  0
   20.1967   -5.7295  -15.0350 C   0  0  0  0  0  0  0  0  0  0  0  0
   21.6161   -6.0173  -14.7242 C   0  0  2  0  0  0  0  0  0  0  0  0
   21.7811   -7.4298  -14.3431 N   0  0  0  0  0  0  0  0  0  0  0  0
   22.3068   -5.1890  -13.7468 C   0  0  0  0  0  0  0  0  0  0  0  0
   22.7483   -3.8880  -14.0662 O   0  0  0  0  0  0  0  0  0  0  0  0
   22.5543   -5.5751  -12.5790 O   0  0  0  0  0  0  0  0  0  0  0  0
  2  1  1  1
  3  2  1  0
  4  5  2  0
  4  3  1  0
  6  5  1  0
  7  8  2  0
  7  6  1  0
  8  4  1  0
  9 10  2  0
  9  2  1  0
 11 12  1  0
 13 14  1  0
 13 12  1  6
 14  9  1  0
 15 13  1  0
 16 15  2  0
 18 20  1  0
 18 17  1  0
 19 18  2  0
 22 21  1  1
 21 20  1  0
 22 23  1  0
 23 15  1  0
 24 25  1  0
 24 22  1  0
 26 24  2  0
M  END
$$$$
