HSQ.pdb
     RDKit          3D

 26 26  0  0  1  0  0  0  0  0999 V2000
   21.6021  -15.9889  -16.8341 N   0  0  0  0  0  0  0  0  0  0  0  0
   22.0302  -14.7543  -17.4358 C   0  0  1  0  0  0  0  0  0  0  0  0
   21.1534  -14.4639  -18.6245 C   0  0  0  0  0  0  0  0  0  0  0  0
   21.2564  -15.5446  -19.6322 C   0  0  0  0  0  0  0  0  0  0  0  0
   22.2886  -15.7746  -20.5089 C   0  0  0  0  0  0  0  0  0  0  0  0
   22.0252  -16.8492  -21.2723 N   0  0  0  0  0  0  0  0  0  0  0  0
   20.8174  -17.3046  -20.8774 C   0  0  0  0  0  0  0  0  0  0  0  0
   20.3544  -16.5119  -19.8835 N   0  0  0  0  0  0  0  0  0  0  0  0
   22.0966  -13.6397  -16.4853 C   0  0  0  0  0  0  0  0  0  0  0  0
   21.1299  -13.3819  -15.7350 O   0  0  0  0  0  0  0  0  0  0  0  0
   25.5709  -11.3015  -16.0304 O   0  0  0  0  0  0  0  0  0  0  0  0
   24.7104  -11.4124  -14.9611 C   0  0  0  0  0  0  0  0  0  0  0  0
   23.2730  -11.7206  -15.3954 C   0  0  2  0  0  0  0  0  0  0  0  0
   23.2498  -12.7885  -16.3552 N   0  0  0  0  0  0  0  0  0  0  0  0
   22.7727  -10.4370  -16.0067 C   0  0  0  0  0  0  0  0  0  0  0  0
   22.7555  -10.3301  -17.2577 O   0  0  0  0  0  0  0  0  0  0  0  0
   18.8663   -8.8247  -18.9053 N   0  0  0  0  0  0  0  0  0  0  0  0
   18.4485   -9.0168  -17.5379 C   0  0  0  0  0  0  0  0  0  0  0  0
   17.2640   -9.3618  -17.3971 O   0  0  0  0  0  0  0  0  0  0  0  0
   19.4341   -8.7905  -16.4849 C   0  0  0  0  0  0  0  0  0  0  0  0
   20.8041   -8.4103  -16.8650 C   0  0  0  0  0  0  0  0  0  0  0  0
   21.7919   -8.1106  -15.8028 C   0  0  2  0  0  0  0  0  0  0  0  0
   22.3262   -9.3585  -15.2328 N   0  0  0  0  0  0  0  0  0  0  0  0
   21.4084   -7.2283  -14.7106 C   0  0  0  0  0  0  0  0  0  0  0  0
   21.0236   -5.8917  -14.9455 O   0  0  0  0  0  0  0  0  0  0  0  0
   21.4011   -7.5925  -13.5101 O   0  0  0  0  0  0  0  0  0  0  0  0
  2  1  1  1
  3  2  1  0
  4  5  2  0
  4  3  1  0
  6  5  1  0
  7  8  2  0
  7  6  1  0
  8  4  1  0
  9 10  2  0
  9  2  1  0
 11 12  1  0
 13 14  1  0
 13 12  1  6
 14  9  1  0
 15 13  1  0
 16 15  2  0
 18 20  1  0
 18 17  1  0
 19 18  2  0
 22 21  1  6
 21 20  1  0
 22 23  1  0
 23 15  1  0
 24 25  1  0
 24 22  1  0
 26 24  2  0
M  END
$$$$
