HSQ.pdb
     RDKit          3D

 26 26  0  0  1  0  0  0  0  0999 V2000
   22.9672  -13.2264  -18.2760 N   0  0  0  0  0  0  0  0  0  0  0  0
   22.2766  -12.0352  -18.6930 C   0  0  1  0  0  0  0  0  0  0  0  0
   20.7938  -12.2859  -18.6283 C   0  0  0  0  0  0  0  0  0  0  0  0
   20.4014  -13.3702  -19.5580 C   0  0  0  0  0  0  0  0  0  0  0  0
   19.8805  -13.2396  -20.8224 C   0  0  0  0  0  0  0  0  0  0  0  0
   19.6475  -14.4489  -21.3611 N   0  0  0  0  0  0  0  0  0  0  0  0
   20.0232  -15.3535  -20.4323 C   0  0  0  0  0  0  0  0  0  0  0  0
   20.4795  -14.6965  -19.3411 N   0  0  0  0  0  0  0  0  0  0  0  0
   22.6895  -10.8382  -17.9535 C   0  0  0  0  0  0  0  0  0  0  0  0
   22.4824  -10.7443  -16.7237 O   0  0  0  0  0  0  0  0  0  0  0  0
   24.8929   -6.4512  -17.9798 O   0  0  0  0  0  0  0  0  0  0  0  0
   24.5106   -7.5740  -18.6793 C   0  0  0  0  0  0  0  0  0  0  0  0
   23.7559   -8.5809  -17.8039 C   0  0  2  0  0  0  0  0  0  0  0  0
   23.3441   -9.7186  -18.5774 N   0  0  0  0  0  0  0  0  0  0  0  0
   22.5614   -7.8210  -17.2870 C   0  0  0  0  0  0  0  0  0  0  0  0
   21.5121   -7.8030  -17.9765 O   0  0  0  0  0  0  0  0  0  0  0  0
   18.0575   -9.0264  -14.9127 N   0  0  0  0  0  0  0  0  0  0  0  0
   17.9296   -7.6627  -14.4596 C   0  0  0  0  0  0  0  0  0  0  0  0
   16.8201   -7.3723  -13.9835 O   0  0  0  0  0  0  0  0  0  0  0  0
   19.0864   -6.7839  -14.6044 C   0  0  0  0  0  0  0  0  0  0  0  0
   20.3017   -7.3106  -15.2461 C   0  0  0  0  0  0  0  0  0  0  0  0
   21.4239   -6.3881  -15.5352 C   0  0  2  0  0  0  0  0  0  0  0  0
   22.5767   -7.1339  -16.0667 N   0  0  0  0  0  0  0  0  0  0  0  0
   21.8924   -5.4955  -14.4854 C   0  0  0  0  0  0  0  0  0  0  0  0
   21.0664   -4.4795  -13.9610 O   0  0  0  0  0  0  0  0  0  0  0  0
   23.0437   -5.5682  -13.9921 O   0  0  0  0  0  0  0  0  0  0  0  0
  2  1  1  1
  3  2  1  0
  4  5  2  0
  4  3  1  0
  6  5  1  0
  7  8  2  0
  7  6  1  0
  8  4  1  0
  9 10  2  0
  9  2  1  0
 11 12  1  0
 13 14  1  0
 13 12  1  6
 14  9  1  0
 15 13  1  0
 16 15  2  0
 18 20  1  0
 18 17  1  0
 19 18  2  0
 22 21  1  1
 21 20  1  0
 22 23  1  0
 23 15  1  0
 24 25  1  0
 24 22  1  0
 26 24  2  0
M  END
$$$$
