HSQ.pdb
     RDKit          3D

 26 26  0  0  1  0  0  0  0  0999 V2000
   26.7326  -13.2514  -20.6828 N   0  0  0  0  0  0  0  0  0  0  0  0
   25.8360  -13.1007  -19.5679 C   0  0  1  0  0  0  0  0  0  0  0  0
   24.5556  -12.4771  -20.0554 C   0  0  0  0  0  0  0  0  0  0  0  0
   24.7885  -11.0901  -20.5205 C   0  0  0  0  0  0  0  0  0  0  0  0
   24.8852   -9.9557  -19.7519 C   0  0  0  0  0  0  0  0  0  0  0  0
   25.0989   -8.8796  -20.5285 N   0  0  0  0  0  0  0  0  0  0  0  0
   25.1383   -9.3340  -21.7990 C   0  0  0  0  0  0  0  0  0  0  0  0
   24.9499  -10.6738  -21.7905 N   0  0  0  0  0  0  0  0  0  0  0  0
   25.6214  -14.3469  -18.8253 C   0  0  0  0  0  0  0  0  0  0  0  0
   25.1844  -15.3667  -19.4023 O   0  0  0  0  0  0  0  0  0  0  0  0
   26.0509  -16.9011  -14.6748 O   0  0  0  0  0  0  0  0  0  0  0  0
   26.2654  -15.7184  -15.3467 C   0  0  0  0  0  0  0  0  0  0  0  0
   25.5759  -15.6889  -16.7154 C   0  0  2  0  0  0  0  0  0  0  0  0
   25.8922  -14.4769  -17.4179 N   0  0  0  0  0  0  0  0  0  0  0  0
   24.1028  -15.7621  -16.4052 C   0  0  0  0  0  0  0  0  0  0  0  0
   23.5107  -14.7183  -16.0353 O   0  0  0  0  0  0  0  0  0  0  0  0
   21.9994  -16.1117  -20.0401 N   0  0  0  0  0  0  0  0  0  0  0  0
   21.2372  -15.1587  -19.2707 C   0  0  0  0  0  0  0  0  0  0  0  0
   21.0262  -14.0760  -19.8411 O   0  0  0  0  0  0  0  0  0  0  0  0
   20.8036  -15.5520  -17.9332 C   0  0  0  0  0  0  0  0  0  0  0  0
   21.1321  -16.9025  -17.4493 C   0  0  0  0  0  0  0  0  0  0  0  0
   21.9315  -17.0518  -16.2112 C   0  0  2  0  0  0  0  0  0  0  0  0
   23.3688  -16.9498  -16.5137 N   0  0  0  0  0  0  0  0  0  0  0  0
   21.7161  -18.2185  -15.3682 C   0  0  0  0  0  0  0  0  0  0  0  0
   20.4478  -18.5079  -14.8231 O   0  0  0  0  0  0  0  0  0  0  0  0
   22.6309  -19.0247  -15.0729 O   0  0  0  0  0  0  0  0  0  0  0  0
  2  1  1  6
  3  2  1  0
  4  5  2  0
  4  3  1  0
  6  5  1  0
  7  8  2  0
  7  6  1  0
  8  4  1  0
  9 10  2  0
  9  2  1  0
 11 12  1  0
 13 14  1  0
 13 12  1  1
 14  9  1  0
 15 13  1  0
 16 15  2  0
 18 20  1  0
 18 17  1  0
 19 18  2  0
 22 21  1  6
 21 20  1  0
 22 23  1  0
 23 15  1  0
 24 25  1  0
 24 22  1  0
 26 24  2  0
M  END
$$$$
