HSQ.pdb
     RDKit          3D

 26 26  0  0  1  0  0  0  0  0999 V2000
   21.2911  -14.7654  -18.4872 N   0  0  0  0  0  0  0  0  0  0  0  0
   20.8040  -14.9562  -17.1470 C   0  0  1  0  0  0  0  0  0  0  0  0
   19.7594  -13.9119  -16.8569 C   0  0  0  0  0  0  0  0  0  0  0  0
   20.3771  -12.5729  -16.7168 C   0  0  0  0  0  0  0  0  0  0  0  0
   20.0026  -11.5646  -15.8624 C   0  0  0  0  0  0  0  0  0  0  0  0
   20.7996  -10.4941  -16.0220 N   0  0  0  0  0  0  0  0  0  0  0  0
   21.6865  -10.8251  -16.9844 C   0  0  0  0  0  0  0  0  0  0  0  0
   21.4277  -12.0853  -17.4031 N   0  0  0  0  0  0  0  0  0  0  0  0
   20.3373  -16.3223  -16.8899 C   0  0  0  0  0  0  0  0  0  0  0  0
   19.5757  -16.8993  -17.6967 O   0  0  0  0  0  0  0  0  0  0  0  0
   20.9567  -18.5964  -13.2208 O   0  0  0  0  0  0  0  0  0  0  0  0
   21.1104  -19.1381  -14.4775 C   0  0  0  0  0  0  0  0  0  0  0  0
   20.2599  -18.4213  -15.5323 C   0  0  2  0  0  0  0  0  0  0  0  0
   20.7146  -17.0723  -15.7210 N   0  0  0  0  0  0  0  0  0  0  0  0
   18.8591  -18.4441  -14.9767 C   0  0  0  0  0  0  0  0  0  0  0  0
   18.4524  -17.4525  -14.3225 O   0  0  0  0  0  0  0  0  0  0  0  0
   12.1412  -20.9320  -15.7596 N   0  0  0  0  0  0  0  0  0  0  0  0
   13.4126  -20.5761  -16.3409 C   0  0  0  0  0  0  0  0  0  0  0  0
   13.6915  -21.1736  -17.3932 O   0  0  0  0  0  0  0  0  0  0  0  0
   14.2230  -19.5770  -15.6507 C   0  0  0  0  0  0  0  0  0  0  0  0
   15.6769  -19.5618  -15.8789 C   0  0  0  0  0  0  0  0  0  0  0  0
   16.5910  -19.5406  -14.7135 C   0  0  2  0  0  0  0  0  0  0  0  0
   17.9932  -19.5291  -15.1622 N   0  0  0  0  0  0  0  0  0  0  0  0
   16.4422  -20.5555  -13.6810 C   0  0  0  0  0  0  0  0  0  0  0  0
   15.5133  -20.4049  -12.6303 O   0  0  0  0  0  0  0  0  0  0  0  0
   17.1233  -21.6089  -13.6569 O   0  0  0  0  0  0  0  0  0  0  0  0
  2  1  1  6
  3  2  1  0
  4  5  2  0
  4  3  1  0
  6  5  1  0
  7  8  2  0
  7  6  1  0
  8  4  1  0
  9 10  2  0
  9  2  1  0
 11 12  1  0
 13 14  1  0
 13 12  1  1
 14  9  1  0
 15 13  1  0
 16 15  2  0
 18 20  1  0
 18 17  1  0
 19 18  2  0
 22 21  1  6
 21 20  1  0
 22 23  1  0
 23 15  1  0
 24 25  1  0
 24 22  1  0
 26 24  2  0
M  END
$$$$
