VPC.pdb
     RDKit          3D

 21 21  0  0  1  0  0  0  0  0999 V2000
   24.6056  -14.0874  -20.9164 C   0  0  0  0  0  0  0  0  0  0  0  0
   24.2837  -13.0634  -19.8643 C   0  0  2  0  0  0  0  0  0  0  0  0
   24.8612  -11.7450  -20.3065 C   0  0  0  0  0  0  0  0  0  0  0  0
   24.7842  -13.4715  -18.4931 C   0  0  2  0  0  0  0  0  0  0  0  0
   24.4509  -14.8060  -18.1486 N   0  0  0  0  0  0  0  0  0  0  0  0
   24.4438  -12.4273  -17.5232 C   0  0  0  0  0  0  0  0  0  0  0  0
   23.1903  -12.2866  -17.2865 O   0  0  0  0  0  0  0  0  0  0  0  0
   25.3848  -11.5783  -16.8403 N   0  0  0  0  0  0  0  0  0  0  0  0
   26.8070  -11.5307  -16.9999 C   0  0  0  0  0  0  0  0  0  0  0  0
   27.1893  -10.1295  -16.5997 C   0  0  0  0  0  0  0  0  0  0  0  0
   26.1962   -9.8542  -15.4911 C   0  0  0  0  0  0  0  0  0  0  0  0
   24.9717  -10.6381  -15.8425 C   0  0  1  0  0  0  0  0  0  0  0  0
   23.9751   -9.6589  -16.3718 C   0  0  0  0  0  0  0  0  0  0  0  0
   23.9926   -9.4021  -17.5996 O   0  0  0  0  0  0  0  0  0  0  0  0
   23.0206   -9.0125  -15.5628 N   0  0  0  0  0  0  0  0  0  0  0  0
   21.9948   -8.1182  -16.0648 C   0  0  1  0  0  0  0  0  0  0  0  0
   20.7142   -8.8513  -16.3862 C   0  0  0  0  0  0  0  0  0  0  0  0
   19.4846   -7.6165  -16.8964 S   0  0  0  0  0  0  0  0  0  0  0  0
   21.6984   -7.0948  -15.0283 C   0  0  0  0  0  0  0  0  0  0  0  0
   21.3726   -5.7813  -15.3381 O   0  0  0  0  0  0  0  0  0  0  0  0
   21.7371   -7.4054  -13.8043 O   0  0  0  0  0  0  0  0  0  0  0  0
  2  1  1  6
  2  4  1  0
  3  2  1  0
  4  5  1  1
  6  4  1  0
  7  6  2  0
  8  6  1  0
  9 10  1  0
  9  8  1  0
 10 11  1  0
 12  8  1  0
 12 11  1  0
 12 13  1  6
 14 13  2  0
 15 13  1  0
 16 15  1  0
 16 17  1  1
 17 18  1  0
 19 16  1  0
 19 20  1  0
 21 19  2  0
M  END
$$$$
