VPC.pdb
     RDKit          3D

 21 21  0  0  1  0  0  0  0  0999 V2000
   15.8433  -13.1283  -16.4929 C   0  0  0  0  0  0  0  0  0  0  0  0
   17.1042  -13.3560  -17.2787 C   0  0  2  0  0  0  0  0  0  0  0  0
   16.9237  -14.6083  -18.0949 C   0  0  0  0  0  0  0  0  0  0  0  0
   18.3299  -13.4288  -16.3901 C   0  0  2  0  0  0  0  0  0  0  0  0
   18.3255  -14.5476  -15.5190 N   0  0  0  0  0  0  0  0  0  0  0  0
   18.5692  -12.1150  -15.7872 C   0  0  0  0  0  0  0  0  0  0  0  0
   17.8093  -11.8201  -14.7959 O   0  0  0  0  0  0  0  0  0  0  0  0
   19.5634  -11.1652  -16.2138 N   0  0  0  0  0  0  0  0  0  0  0  0
   20.5218  -11.3054  -17.2684 C   0  0  0  0  0  0  0  0  0  0  0  0
   20.8204   -9.8941  -17.7028 C   0  0  0  0  0  0  0  0  0  0  0  0
   20.7327   -9.1517  -16.3867 C   0  0  0  0  0  0  0  0  0  0  0  0
   19.7253   -9.8967  -15.5697 C   0  0  1  0  0  0  0  0  0  0  0  0
   18.4695   -9.0878  -15.5987 C   0  0  0  0  0  0  0  0  0  0  0  0
   17.6622   -9.2821  -16.5390 O   0  0  0  0  0  0  0  0  0  0  0  0
   18.1489   -8.1214  -14.6258 N   0  0  0  0  0  0  0  0  0  0  0  0
   16.9701   -7.2773  -14.6695 C   0  0  1  0  0  0  0  0  0  0  0  0
   16.4844   -6.9132  -13.2866 C   0  0  0  0  0  0  0  0  0  0  0  0
   15.0958   -5.7587  -13.4756 S   0  0  0  0  0  0  0  0  0  0  0  0
   17.3030   -6.0216  -15.3921 C   0  0  0  0  0  0  0  0  0  0  0  0
   16.4186   -5.3942  -16.2590 O   0  0  0  0  0  0  0  0  0  0  0  0
   18.4325   -5.4795  -15.2295 O   0  0  0  0  0  0  0  0  0  0  0  0
  2  1  1  1
  2  4  1  0
  3  2  1  0
  4  5  1  1
  6  4  1  0
  7  6  2  0
  8  6  1  0
  9 10  1  0
  9  8  1  0
 10 11  1  0
 12  8  1  0
 12 11  1  0
 12 13  1  6
 14 13  2  0
 15 13  1  0
 16 15  1  0
 16 17  1  1
 17 18  1  0
 19 16  1  0
 19 20  1  0
 21 19  2  0
M  END
$$$$
