VPC.pdb
     RDKit          3D

 21 21  0  0  1  0  0  0  0  0999 V2000
   16.1799   -7.1233  -13.3806 C   0  0  0  0  0  0  0  0  0  0  0  0
   16.2955   -8.5876  -13.6994 C   0  0  2  0  0  0  0  0  0  0  0  0
   14.9194   -9.1924  -13.6127 C   0  0  0  0  0  0  0  0  0  0  0  0
   17.2853   -9.2959  -12.7962 C   0  0  2  0  0  0  0  0  0  0  0  0
   16.9076   -9.2813  -11.4295 N   0  0  0  0  0  0  0  0  0  0  0  0
   18.6421   -8.8459  -13.1181 C   0  0  0  0  0  0  0  0  0  0  0  0
   19.0889   -7.8878  -12.3906 O   0  0  0  0  0  0  0  0  0  0  0  0
   19.4801   -9.3856  -14.1570 N   0  0  0  0  0  0  0  0  0  0  0  0
   19.2299  -10.5230  -14.9901 C   0  0  0  0  0  0  0  0  0  0  0  0
   20.0198  -10.2577  -16.2453 C   0  0  0  0  0  0  0  0  0  0  0  0
   21.2345   -9.5466  -15.6890 C   0  0  0  0  0  0  0  0  0  0  0  0
   20.7533   -8.8141  -14.4769 C   0  0  1  0  0  0  0  0  0  0  0  0
   20.6419   -7.3753  -14.8638 C   0  0  0  0  0  0  0  0  0  0  0  0
   19.5650   -6.9811  -15.3725 O   0  0  0  0  0  0  0  0  0  0  0  0
   21.6827   -6.4433  -14.6860 N   0  0  0  0  0  0  0  0  0  0  0  0
   21.5999   -5.0444  -15.0602 C   0  0  1  0  0  0  0  0  0  0  0  0
   22.4659   -4.1726  -14.1823 C   0  0  0  0  0  0  0  0  0  0  0  0
   22.1616   -2.4444  -14.6488 S   0  0  0  0  0  0  0  0  0  0  0  0
   22.0602   -4.8935  -16.4656 C   0  0  0  0  0  0  0  0  0  0  0  0
   21.4741   -4.0071  -17.3591 O   0  0  0  0  0  0  0  0  0  0  0  0
   23.0243   -5.5891  -16.8929 O   0  0  0  0  0  0  0  0  0  0  0  0
  2  1  1  1
  2  4  1  0
  3  2  1  0
  4  5  1  1
  6  4  1  0
  7  6  2  0
  8  6  1  0
  9 10  1  0
  9  8  1  0
 10 11  1  0
 12  8  1  0
 12 11  1  0
 12 13  1  6
 14 13  2  0
 15 13  1  0
 16 15  1  0
 16 17  1  1
 17 18  1  0
 19 16  1  0
 19 20  1  0
 21 19  2  0
M  END
$$$$
