VPC.pdb
     RDKit          3D

 21 21  0  0  1  0  0  0  0  0999 V2000
   21.0500  -27.2202  -15.9865 C   0  0  0  0  0  0  0  0  0  0  0  0
   21.6231  -25.8406  -16.1524 C   0  0  2  0  0  0  0  0  0  0  0  0
   22.9301  -25.9655  -16.8894 C   0  0  0  0  0  0  0  0  0  0  0  0
   21.7843  -25.1223  -14.8275 C   0  0  2  0  0  0  0  0  0  0  0  0
   20.5808  -25.0434  -14.0820 N   0  0  0  0  0  0  0  0  0  0  0  0
   22.5199  -23.8731  -15.0407 C   0  0  0  0  0  0  0  0  0  0  0  0
   21.8593  -22.9408  -15.6249 O   0  0  0  0  0  0  0  0  0  0  0  0
   23.8845  -23.6270  -14.6533 N   0  0  0  0  0  0  0  0  0  0  0  0
   24.7845  -24.5155  -13.9817 C   0  0  0  0  0  0  0  0  0  0  0  0
   26.1570  -24.0577  -14.4018 C   0  0  0  0  0  0  0  0  0  0  0  0
   25.9558  -22.5607  -14.4987 C   0  0  0  0  0  0  0  0  0  0  0  0
   24.5266  -22.3707  -14.8970 C   0  0  1  0  0  0  0  0  0  0  0  0
   24.5315  -22.0146  -16.3480 C   0  0  0  0  0  0  0  0  0  0  0  0
   24.6696  -22.9399  -17.1838 O   0  0  0  0  0  0  0  0  0  0  0  0
   24.3892  -20.6960  -16.8217 N   0  0  0  0  0  0  0  0  0  0  0  0
   24.3787  -20.3282  -18.2248 C   0  0  1  0  0  0  0  0  0  0  0  0
   23.4133  -19.2015  -18.5061 C   0  0  0  0  0  0  0  0  0  0  0  0
   22.4542  -18.9057  -16.9930 S   0  0  0  0  0  0  0  0  0  0  0  0
   25.7417  -19.8827  -18.6164 C   0  0  0  0  0  0  0  0  0  0  0  0
   26.1198  -19.6879  -19.9379 O   0  0  0  0  0  0  0  0  0  0  0  0
   26.6143  -19.6643  -17.7294 O   0  0  0  0  0  0  0  0  0  0  0  0
  2  1  1  1
  2  4  1  0
  3  2  1  0
  4  5  1  6
  6  4  1  0
  7  6  2  0
  8  6  1  0
  9 10  1  0
  9  8  1  0
 10 11  1  0
 12  8  1  0
 12 11  1  0
 12 13  1  6
 14 13  2  0
 15 13  1  0
 16 15  1  0
 16 17  1  1
 17 18  1  0
 19 16  1  0
 19 20  1  0
 21 19  2  0
M  END
$$$$
