VPC.pdb
     RDKit          3D

 21 21  0  0  1  0  0  0  0  0999 V2000
   28.1535  -18.1457  -15.7465 C   0  0  0  0  0  0  0  0  0  0  0  0
   27.0001  -18.9138  -15.1643 C   0  0  2  0  0  0  0  0  0  0  0  0
   26.1894  -17.9666  -14.3201 C   0  0  0  0  0  0  0  0  0  0  0  0
   27.4559  -20.1271  -14.3786 C   0  0  2  0  0  0  0  0  0  0  0  0
   28.3529  -20.9568  -15.0980 N   0  0  0  0  0  0  0  0  0  0  0  0
   26.2912  -20.7746  -13.7694 C   0  0  0  0  0  0  0  0  0  0  0  0
   25.5097  -21.3797  -14.5881 O   0  0  0  0  0  0  0  0  0  0  0  0
   25.9738  -20.7800  -12.3652 N   0  0  0  0  0  0  0  0  0  0  0  0
   26.7172  -20.1942  -11.2907 C   0  0  0  0  0  0  0  0  0  0  0  0
   25.6908  -19.9159  -10.2237 C   0  0  0  0  0  0  0  0  0  0  0  0
   24.7506  -21.0888  -10.4005 C   0  0  0  0  0  0  0  0  0  0  0  0
   24.8084  -21.4365  -11.8542 C   0  0  1  0  0  0  0  0  0  0  0  0
   23.5525  -20.9104  -12.4692 C   0  0  0  0  0  0  0  0  0  0  0  0
   23.5039  -19.6924  -12.7656 O   0  0  0  0  0  0  0  0  0  0  0  0
   22.4247  -21.7120  -12.7316 N   0  0  0  0  0  0  0  0  0  0  0  0
   21.2051  -21.2295  -13.3512 C   0  0  1  0  0  0  0  0  0  0  0  0
   20.9109  -21.9424  -14.6496 C   0  0  0  0  0  0  0  0  0  0  0  0
   19.3124  -21.3367  -15.2618 S   0  0  0  0  0  0  0  0  0  0  0  0
   20.0679  -21.4634  -12.4230 C   0  0  0  0  0  0  0  0  0  0  0  0
   19.0226  -20.5626  -12.2703 O   0  0  0  0  0  0  0  0  0  0  0  0
   20.0243  -22.5191  -11.7304 O   0  0  0  0  0  0  0  0  0  0  0  0
  2  1  1  1
  2  4  1  0
  3  2  1  0
  4  5  1  6
  6  4  1  0
  7  6  2  0
  8  6  1  0
  9 10  1  0
  9  8  1  0
 10 11  1  0
 12  8  1  0
 12 11  1  0
 12 13  1  6
 14 13  2  0
 15 13  1  0
 16 15  1  0
 16 17  1  6
 17 18  1  0
 19 16  1  0
 19 20  1  0
 21 19  2  0
M  END
$$$$
