VPC.pdb
     RDKit          3D

 21 21  0  0  1  0  0  0  0  0999 V2000
   14.0637  -10.4783  -11.7047 C   0  0  0  0  0  0  0  0  0  0  0  0
   15.3610  -10.8108  -12.3871 C   0  0  2  0  0  0  0  0  0  0  0  0
   15.1326  -12.0180  -13.2575 C   0  0  0  0  0  0  0  0  0  0  0  0
   16.4904  -11.0278  -11.3999 C   0  0  2  0  0  0  0  0  0  0  0  0
   16.2923  -12.1522  -10.5591 N   0  0  0  0  0  0  0  0  0  0  0  0
   16.8142   -9.7561  -10.7480 C   0  0  0  0  0  0  0  0  0  0  0  0
   16.1983   -9.5335   -9.6444 O   0  0  0  0  0  0  0  0  0  0  0  0
   17.7436   -8.7736  -11.2415 N   0  0  0  0  0  0  0  0  0  0  0  0
   18.5831   -8.8566  -12.3986 C   0  0  0  0  0  0  0  0  0  0  0  0
   18.8142   -7.4247  -12.8059 C   0  0  0  0  0  0  0  0  0  0  0  0
   18.8607   -6.7350  -11.4595 C   0  0  0  0  0  0  0  0  0  0  0  0
   17.9582   -7.5282  -10.5685 C   0  0  1  0  0  0  0  0  0  0  0  0
   16.6963   -6.7406  -10.4288 C   0  0  0  0  0  0  0  0  0  0  0  0
   15.8456   -6.8183  -11.3475 O   0  0  0  0  0  0  0  0  0  0  0  0
   16.4161   -5.9183   -9.3204 N   0  0  0  0  0  0  0  0  0  0  0  0
   15.1954   -5.1515   -9.1593 C   0  0  1  0  0  0  0  0  0  0  0  0
   14.8531   -4.9334   -7.7047 C   0  0  0  0  0  0  0  0  0  0  0  0
   14.5104   -6.5575   -6.9688 S   0  0  0  0  0  0  0  0  0  0  0  0
   15.3731   -3.8223   -9.8006 C   0  0  0  0  0  0  0  0  0  0  0  0
   14.3055   -3.0310  -10.2024 O   0  0  0  0  0  0  0  0  0  0  0  0
   16.5346   -3.3676  -10.0012 O   0  0  0  0  0  0  0  0  0  0  0  0
  2  1  1  1
  2  4  1  0
  3  2  1  0
  4  5  1  1
  6  4  1  0
  7  6  2  0
  8  6  1  0
  9 10  1  0
  9  8  1  0
 10 11  1  0
 12  8  1  0
 12 11  1  0
 12 13  1  6
 14 13  2  0
 15 13  1  0
 16 15  1  0
 16 17  1  1
 17 18  1  0
 19 16  1  0
 19 20  1  0
 21 19  2  0
M  END
$$$$
