VPC.pdb
     RDKit          3D

 21 21  0  0  1  0  0  0  0  0999 V2000
   20.9703  -25.8778    1.5551 C   0  0  0  0  0  0  0  0  0  0  0  0
   20.0719  -24.8754    2.2240 C   0  0  2  0  0  0  0  0  0  0  0  0
   20.9005  -24.0906    3.2060 C   0  0  0  0  0  0  0  0  0  0  0  0
   18.8744  -25.5283    2.8851 C   0  0  2  0  0  0  0  0  0  0  0  0
   18.1791  -26.4208    2.0304 N   0  0  0  0  0  0  0  0  0  0  0  0
   18.0802  -24.5035    3.5678 C   0  0  0  0  0  0  0  0  0  0  0  0
   17.3370  -23.7875    2.8049 O   0  0  0  0  0  0  0  0  0  0  0  0
   18.0749  -24.2532    4.9855 N   0  0  0  0  0  0  0  0  0  0  0  0
   18.8228  -24.9281    6.0030 C   0  0  0  0  0  0  0  0  0  0  0  0
   18.9602  -23.9160    7.1104 C   0  0  0  0  0  0  0  0  0  0  0  0
   17.6358  -23.1894    7.0170 C   0  0  0  0  0  0  0  0  0  0  0  0
   17.2465  -23.2442    5.5737 C   0  0  1  0  0  0  0  0  0  0  0  0
   17.5217  -21.8901    5.0056 C   0  0  0  0  0  0  0  0  0  0  0  0
   18.7043  -21.6069    4.6975 O   0  0  0  0  0  0  0  0  0  0  0  0
   16.5221  -20.9196    4.7998 N   0  0  0  0  0  0  0  0  0  0  0  0
   16.7621  -19.6069    4.2313 C   0  0  1  0  0  0  0  0  0  0  0  0
   16.0367  -19.4179    2.9203 C   0  0  0  0  0  0  0  0  0  0  0  0
   17.2423  -19.6547    1.5833 S   0  0  0  0  0  0  0  0  0  0  0  0
   16.2791  -18.5734    5.1843 C   0  0  0  0  0  0  0  0  0  0  0  0
   16.6652  -17.2418    5.1109 O   0  0  0  0  0  0  0  0  0  0  0  0
   15.4821  -18.8918    6.1113 O   0  0  0  0  0  0  0  0  0  0  0  0
  2  1  1  1
  2  4  1  0
  3  2  1  0
  4  5  1  6
  6  4  1  0
  7  6  2  0
  8  6  1  0
  9 10  1  0
  9  8  1  0
 10 11  1  0
 12  8  1  0
 12 11  1  0
 12 13  1  6
 14 13  2  0
 15 13  1  0
 16 15  1  0
 16 17  1  6
 17 18  1  0
 19 16  1  0
 19 20  1  0
 21 19  2  0
M  END
$$$$
