VPC.pdb
     RDKit          3D

 21 21  0  0  1  0  0  0  0  0999 V2000
   19.6886  -13.9327  -18.6517 C   0  0  0  0  0  0  0  0  0  0  0  0
   21.0299  -14.5653  -18.4064 C   0  0  2  0  0  0  0  0  0  0  0  0
   21.2096  -15.6769  -19.4059 C   0  0  0  0  0  0  0  0  0  0  0  0
   21.1824  -15.0539  -16.9798 C   0  0  2  0  0  0  0  0  0  0  0  0
   20.2868  -16.1017  -16.6469 N   0  0  0  0  0  0  0  0  0  0  0  0
   21.2264  -13.9016  -16.0758 C   0  0  0  0  0  0  0  0  0  0  0  0
   20.0854  -13.3966  -15.7755 O   0  0  0  0  0  0  0  0  0  0  0  0
   22.4188  -13.3174  -15.5195 N   0  0  0  0  0  0  0  0  0  0  0  0
   23.7767  -13.7250  -15.7198 C   0  0  0  0  0  0  0  0  0  0  0  0
   24.5876  -12.4756  -15.4935 C   0  0  0  0  0  0  0  0  0  0  0  0
   23.7920  -11.7974  -14.3991 C   0  0  0  0  0  0  0  0  0  0  0  0
   22.3692  -12.1993  -14.6263 C   0  0  1  0  0  0  0  0  0  0  0  0
   21.6854  -11.0208  -15.2393 C   0  0  0  0  0  0  0  0  0  0  0  0
   21.7665  -10.8700  -16.4820 O   0  0  0  0  0  0  0  0  0  0  0  0
   20.9568  -10.0745  -14.4929 N   0  0  0  0  0  0  0  0  0  0  0  0
   20.2559   -8.9430  -15.0695 C   0  0  1  0  0  0  0  0  0  0  0  0
   18.8747   -8.7752  -14.4823 C   0  0  0  0  0  0  0  0  0  0  0  0
   18.1949   -7.2123  -15.1086 S   0  0  0  0  0  0  0  0  0  0  0  0
   21.0321   -7.7051  -14.7961 C   0  0  0  0  0  0  0  0  0  0  0  0
   20.9896   -6.5911  -15.6236 O   0  0  0  0  0  0  0  0  0  0  0  0
   21.7709   -7.6354  -13.7737 O   0  0  0  0  0  0  0  0  0  0  0  0
  2  1  1  1
  2  4  1  0
  3  2  1  0
  4  5  1  1
  6  4  1  0
  7  6  2  0
  8  6  1  0
  9 10  1  0
  9  8  1  0
 10 11  1  0
 12  8  1  0
 12 11  1  0
 12 13  1  6
 14 13  2  0
 15 13  1  0
 16 15  1  0
 16 17  1  1
 17 18  1  0
 19 16  1  0
 19 20  1  0
 21 19  2  0
M  END
$$$$
