VPC.pdb
     RDKit          3D

 21 21  0  0  1  0  0  0  0  0999 V2000
   22.2598  -18.7503  -15.2257 C   0  0  0  0  0  0  0  0  0  0  0  0
   23.4418  -18.3777  -16.0762 C   0  0  2  0  0  0  0  0  0  0  0  0
   22.9462  -17.5230  -17.2124 C   0  0  0  0  0  0  0  0  0  0  0  0
   24.2011  -19.5933  -16.5690 C   0  0  2  0  0  0  0  0  0  0  0  0
   23.4240  -20.4424  -17.3973 N   0  0  0  0  0  0  0  0  0  0  0  0
   24.8991  -20.2175  -15.4421 C   0  0  0  0  0  0  0  0  0  0  0  0
   24.1965  -21.0374  -14.7483 O   0  0  0  0  0  0  0  0  0  0  0  0
   26.2707  -19.9841  -15.0721 N   0  0  0  0  0  0  0  0  0  0  0  0
   27.2566  -19.2212  -15.7766 C   0  0  0  0  0  0  0  0  0  0  0  0
   28.2210  -18.7679  -14.7118 C   0  0  0  0  0  0  0  0  0  0  0  0
   28.2117  -19.9565  -13.7748 C   0  0  0  0  0  0  0  0  0  0  0  0
   26.8419  -20.5471  -13.8860 C   0  0  1  0  0  0  0  0  0  0  0  0
   26.0993  -20.1375  -12.6560 C   0  0  0  0  0  0  0  0  0  0  0  0
   25.5385  -19.0154  -12.6495 O   0  0  0  0  0  0  0  0  0  0  0  0
   25.9984  -20.9465  -11.5076 N   0  0  0  0  0  0  0  0  0  0  0  0
   25.3249  -20.5507  -10.2855 C   0  0  1  0  0  0  0  0  0  0  0  0
   24.3177  -21.5823   -9.8360 C   0  0  0  0  0  0  0  0  0  0  0  0
   23.5892  -21.0002   -8.2780 S   0  0  0  0  0  0  0  0  0  0  0  0
   26.3367  -20.3872   -9.2088 C   0  0  0  0  0  0  0  0  0  0  0  0
   26.2437  -19.4069   -8.2302 O   0  0  0  0  0  0  0  0  0  0  0  0
   27.3351  -21.1597   -9.1573 O   0  0  0  0  0  0  0  0  0  0  0  0
  2  1  1  6
  2  4  1  0
  3  2  1  0
  4  5  1  1
  6  4  1  0
  7  6  2  0
  8  6  1  0
  9 10  1  0
  9  8  1  0
 10 11  1  0
 12  8  1  0
 12 11  1  0
 12 13  1  1
 14 13  2  0
 15 13  1  0
 16 15  1  0
 16 17  1  1
 17 18  1  0
 19 16  1  0
 19 20  1  0
 21 19  2  0
M  END
$$$$
