VPC.pdb
     RDKit          3D

 21 21  0  0  1  0  0  0  0  0999 V2000
   26.9958  -23.1122  -17.8976 C   0  0  0  0  0  0  0  0  0  0  0  0
   25.8829  -22.9577  -16.8991 C   0  0  2  0  0  0  0  0  0  0  0  0
   25.5830  -21.4888  -16.7606 C   0  0  0  0  0  0  0  0  0  0  0  0
   26.2141  -23.5981  -15.5659 C   0  0  2  0  0  0  0  0  0  0  0  0
   26.5938  -24.9598  -15.6766 N   0  0  0  0  0  0  0  0  0  0  0  0
   25.1612  -23.2757  -14.5993 C   0  0  0  0  0  0  0  0  0  0  0  0
   24.0251  -23.8298  -14.8211 O   0  0  0  0  0  0  0  0  0  0  0  0
   25.3075  -22.4113  -13.4573 N   0  0  0  0  0  0  0  0  0  0  0  0
   26.4900  -21.7447  -13.0015 C   0  0  0  0  0  0  0  0  0  0  0  0
   25.9840  -20.5391  -12.2532 C   0  0  0  0  0  0  0  0  0  0  0  0
   24.7180  -21.0849  -11.6285 C   0  0  0  0  0  0  0  0  0  0  0  0
   24.2128  -22.1218  -12.5810 C   0  0  1  0  0  0  0  0  0  0  0  0
   23.0594  -21.5092  -13.3066 C   0  0  0  0  0  0  0  0  0  0  0  0
   23.3054  -20.7435  -14.2694 O   0  0  0  0  0  0  0  0  0  0  0  0
   21.7145  -21.7483  -12.9639 N   0  0  0  0  0  0  0  0  0  0  0  0
   20.5792  -21.1679  -13.6554 C   0  0  1  0  0  0  0  0  0  0  0  0
   19.3221  -21.9814  -13.4591 C   0  0  0  0  0  0  0  0  0  0  0  0
   19.6738  -23.6794  -13.9977 S   0  0  0  0  0  0  0  0  0  0  0  0
   20.3377  -19.8013  -13.1228 C   0  0  0  0  0  0  0  0  0  0  0  0
   19.4883  -18.8920  -13.7386 O   0  0  0  0  0  0  0  0  0  0  0  0
   20.9172  -19.4236  -12.0656 O   0  0  0  0  0  0  0  0  0  0  0  0
  2  1  1  6
  2  4  1  0
  3  2  1  0
  4  5  1  6
  6  4  1  0
  7  6  2  0
  8  6  1  0
  9 10  1  0
  9  8  1  0
 10 11  1  0
 12  8  1  0
 12 11  1  0
 12 13  1  6
 14 13  2  0
 15 13  1  0
 16 15  1  0
 16 17  1  1
 17 18  1  0
 19 16  1  0
 19 20  1  0
 21 19  2  0
M  END
$$$$
