VPC.pdb
     RDKit          3D

 21 21  0  0  1  0  0  0  0  0999 V2000
   22.3582  -17.4950  -15.7470 C   0  0  0  0  0  0  0  0  0  0  0  0
   23.5452  -17.1076  -16.5837 C   0  0  2  0  0  0  0  0  0  0  0  0
   23.0843  -16.1063  -17.6094 C   0  0  0  0  0  0  0  0  0  0  0  0
   24.2143  -18.3082  -17.2225 C   0  0  2  0  0  0  0  0  0  0  0  0
   23.3858  -18.9818  -18.1555 N   0  0  0  0  0  0  0  0  0  0  0  0
   24.8442  -19.1227  -16.1801 C   0  0  0  0  0  0  0  0  0  0  0  0
   24.0591  -19.9327  -15.5681 O   0  0  0  0  0  0  0  0  0  0  0  0
   26.2343  -19.0798  -15.8079 N   0  0  0  0  0  0  0  0  0  0  0  0
   27.2784  -18.2897  -16.3874 C   0  0  0  0  0  0  0  0  0  0  0  0
   28.2886  -18.1225  -15.2823 C   0  0  0  0  0  0  0  0  0  0  0  0
   28.1810  -19.4563  -14.5751 C   0  0  0  0  0  0  0  0  0  0  0  0
   26.7630  -19.8962  -14.7572 C   0  0  1  0  0  0  0  0  0  0  0  0
   26.0704  -19.6544  -13.4556 C   0  0  0  0  0  0  0  0  0  0  0  0
   25.6488  -18.4975  -13.2157 O   0  0  0  0  0  0  0  0  0  0  0  0
   25.8686  -20.6579  -12.4883 N   0  0  0  0  0  0  0  0  0  0  0  0
   25.2447  -20.4357  -11.1978 C   0  0  1  0  0  0  0  0  0  0  0  0
   24.0069  -21.2815  -11.0156 C   0  0  0  0  0  0  0  0  0  0  0  0
   23.3410  -20.9363   -9.3621 S   0  0  0  0  0  0  0  0  0  0  0  0
   26.2130  -20.7900  -10.1270 C   0  0  0  0  0  0  0  0  0  0  0  0
   26.2953  -20.0974   -8.9266 O   0  0  0  0  0  0  0  0  0  0  0  0
   27.0076  -21.7586  -10.2889 O   0  0  0  0  0  0  0  0  0  0  0  0
  2  1  1  6
  2  4  1  0
  3  2  1  0
  4  5  1  1
  6  4  1  0
  7  6  2  0
  8  6  1  0
  9 10  1  0
  9  8  1  0
 10 11  1  0
 12  8  1  0
 12 11  1  0
 12 13  1  1
 14 13  2  0
 15 13  1  0
 16 15  1  0
 16 17  1  6
 17 18  1  0
 19 16  1  0
 19 20  1  0
 21 19  2  0
M  END
$$$$
