VPC.pdb
     RDKit          3D

 21 21  0  0  1  0  0  0  0  0999 V2000
   21.1737  -17.4267  -18.4314 C   0  0  0  0  0  0  0  0  0  0  0  0
   21.2879  -16.1837  -17.5940 C   0  0  2  0  0  0  0  0  0  0  0  0
   21.8226  -15.0811  -18.4688 C   0  0  0  0  0  0  0  0  0  0  0  0
   22.1446  -16.3975  -16.3621 C   0  0  2  0  0  0  0  0  0  0  0  0
   21.7781  -17.5466  -15.6165 N   0  0  0  0  0  0  0  0  0  0  0  0
   22.2600  -15.1348  -15.6279 C   0  0  0  0  0  0  0  0  0  0  0  0
   21.1641  -14.6864  -15.1330 O   0  0  0  0  0  0  0  0  0  0  0  0
   23.4750  -14.3886  -15.4290 N   0  0  0  0  0  0  0  0  0  0  0  0
   24.7992  -14.7299  -15.8538 C   0  0  0  0  0  0  0  0  0  0  0  0
   25.5094  -13.4081  -15.9881 C   0  0  0  0  0  0  0  0  0  0  0  0
   24.8854  -12.6176  -14.8582 C   0  0  0  0  0  0  0  0  0  0  0  0
   23.4936  -13.1469  -14.7163 C   0  0  1  0  0  0  0  0  0  0  0  0
   22.5861  -12.1323  -15.3321 C   0  0  0  0  0  0  0  0  0  0  0  0
   22.4400  -12.1479  -16.5780 O   0  0  0  0  0  0  0  0  0  0  0  0
   21.8892  -11.1628  -14.5852 N   0  0  0  0  0  0  0  0  0  0  0  0
   21.0413  -10.1385  -15.1647 C   0  0  1  0  0  0  0  0  0  0  0  0
   19.7628   -9.9542  -14.3823 C   0  0  0  0  0  0  0  0  0  0  0  0
   18.8658   -8.5544  -15.1124 S   0  0  0  0  0  0  0  0  0  0  0  0
   21.7775   -8.8470  -15.1653 C   0  0  0  0  0  0  0  0  0  0  0  0
   21.5923   -7.8749  -16.1390 O   0  0  0  0  0  0  0  0  0  0  0  0
   22.6140   -8.5961  -14.2525 O   0  0  0  0  0  0  0  0  0  0  0  0
  2  1  1  6
  2  4  1  0
  3  2  1  0
  4  5  1  1
  6  4  1  0
  7  6  2  0
  8  6  1  0
  9 10  1  0
  9  8  1  0
 10 11  1  0
 12  8  1  0
 12 11  1  0
 12 13  1  6
 14 13  2  0
 15 13  1  0
 16 15  1  0
 16 17  1  1
 17 18  1  0
 19 16  1  0
 19 20  1  0
 21 19  2  0
M  END
$$$$
