DNI.pdb
     RDKit          3D

 25 24  0  0  1  0  0  0  0  0999 V2000
   28.3863  -19.5189  -19.4799 N   0  0  0  0  0  0  0  0  0  0  0  0
   27.7382  -19.2337  -18.2227 C   0  0  1  0  0  0  0  0  0  0  0  0
   28.4200  -19.8957  -17.0671 C   0  0  0  0  0  0  0  0  0  0  0  0
   28.3989  -21.3555  -17.1548 C   0  0  0  0  0  0  0  0  0  0  0  0
   27.8102  -21.9343  -18.0955 O   0  0  0  0  0  0  0  0  0  0  0  0
   27.7772  -17.7551  -18.0112 C   0  0  0  0  0  0  0  0  0  0  0  0
   27.4127  -17.2330  -16.9459 O   0  0  0  0  0  0  0  0  0  0  0  0
   29.0235  -22.1214  -16.1975 O   0  0  0  0  0  0  0  0  0  0  0  0
   28.6213  -12.7473  -18.8017 N   0  0  0  0  0  0  0  0  0  0  0  0
   29.3136  -13.3938  -19.8481 C   0  0  0  0  0  0  0  0  0  0  0  0
   29.9995  -12.6944  -20.6228 O   0  0  0  0  0  0  0  0  0  0  0  0
   29.2118  -14.8407  -19.9946 C   0  0  0  0  0  0  0  0  0  0  0  0
   28.3514  -15.5128  -18.9885 C   0  0  2  0  0  0  0  0  0  0  0  0
   28.2483  -16.9319  -19.0770 N   0  0  0  0  0  0  0  0  0  0  0  0
   27.0185  -14.8549  -18.8210 C   0  0  0  0  0  0  0  0  0  0  0  0
   26.1903  -15.0227  -19.7435 O   0  0  0  0  0  0  0  0  0  0  0  0
   22.5122  -15.1307  -16.0187 C   0  0  0  0  0  0  0  0  0  0  0  0
   23.4074  -13.9492  -15.7469 C   0  0  0  0  0  0  0  0  0  0  0  0
   24.8442  -14.3277  -16.0712 C   0  0  2  0  0  0  0  0  0  0  0  0
   25.7014  -13.6995  -14.9895 C   0  0  0  0  0  0  0  0  0  0  0  0
   25.2831  -13.7303  -17.3881 C   0  0  2  0  0  0  0  0  0  0  0  0
   26.6441  -14.0750  -17.7104 N   0  0  0  0  0  0  0  0  0  0  0  0
   24.9767  -12.2837  -17.4914 C   0  0  0  0  0  0  0  0  0  0  0  0
   23.7816  -11.8537  -17.5612 O   0  0  0  0  0  0  0  0  0  0  0  0
   25.9753  -11.3150  -17.5192 O   0  0  0  0  0  0  0  0  0  0  0  0
  2  1  1  6
  3  2  1  0
  3  4  1  0
  4  5  2  0
  6  7  2  0
  6  2  1  0
  8  4  1  0
  9 10  1  0
 10 12  1  0
 11 10  2  0
 13 12  1  6
 13 15  1  0
 13 14  1  0
 14  6  1  0
 15 16  2  0
 18 17  1  0
 19 21  1  0
 19 18  1  0
 19 20  1  1
 21 23  1  0
 22 15  1  0
 21 22  1  1
 23 25  1  0
 24 23  2  0
M  END
$$$$
