DNI.pdb
     RDKit          3D

 25 24  0  0  1  0  0  0  0  0999 V2000
   25.2989  -18.4775  -15.6358 N   0  0  0  0  0  0  0  0  0  0  0  0
   24.1677  -18.6208  -14.7517 C   0  0  1  0  0  0  0  0  0  0  0  0
   22.9259  -19.0332  -15.4773 C   0  0  0  0  0  0  0  0  0  0  0  0
   22.8131  -18.4244  -16.8024 C   0  0  0  0  0  0  0  0  0  0  0  0
   23.1333  -19.0610  -17.8313 O   0  0  0  0  0  0  0  0  0  0  0  0
   24.5010  -19.6757  -13.7472 C   0  0  0  0  0  0  0  0  0  0  0  0
   23.6482  -20.1422  -12.9756 O   0  0  0  0  0  0  0  0  0  0  0  0
   22.3564  -17.1340  -16.9412 O   0  0  0  0  0  0  0  0  0  0  0  0
   29.6596  -22.2473  -13.2757 N   0  0  0  0  0  0  0  0  0  0  0  0
   28.4489  -21.7386  -13.7930 C   0  0  0  0  0  0  0  0  0  0  0  0
   28.5074  -20.9100  -14.7256 O   0  0  0  0  0  0  0  0  0  0  0  0
   27.1799  -22.1880  -13.2334 C   0  0  0  0  0  0  0  0  0  0  0  0
   26.2994  -21.1043  -12.7289 C   0  0  2  0  0  0  0  0  0  0  0  0
   25.8455  -20.1486  -13.6843 N   0  0  0  0  0  0  0  0  0  0  0  0
   26.8150  -20.4606  -11.4810 C   0  0  0  0  0  0  0  0  0  0  0  0
   28.0349  -20.1845  -11.4550 O   0  0  0  0  0  0  0  0  0  0  0  0
   28.2045  -19.5815   -5.9876 C   0  0  0  0  0  0  0  0  0  0  0  0
   27.3219  -20.4830   -6.8119 C   0  0  0  0  0  0  0  0  0  0  0  0
   27.0747  -19.8360   -8.1659 C   0  0  2  0  0  0  0  0  0  0  0  0
   26.2712  -18.5791   -7.8935 C   0  0  0  0  0  0  0  0  0  0  0  0
   26.2270  -20.7222   -9.0488 C   0  0  2  0  0  0  0  0  0  0  0  0
   26.0279  -20.1502  -10.3558 N   0  0  0  0  0  0  0  0  0  0  0  0
   24.9826  -21.1734   -8.3816 C   0  0  0  0  0  0  0  0  0  0  0  0
   25.0059  -21.8798   -7.3240 O   0  0  0  0  0  0  0  0  0  0  0  0
   23.7207  -20.8526   -8.8724 O   0  0  0  0  0  0  0  0  0  0  0  0
  2  1  1  6
  3  2  1  0
  3  4  1  0
  4  5  2  0
  6  7  2  0
  6  2  1  0
  8  4  1  0
  9 10  1  0
 10 12  1  0
 11 10  2  0
 13 12  1  6
 13 15  1  0
 13 14  1  0
 14  6  1  0
 15 16  2  0
 18 17  1  0
 19 21  1  0
 19 18  1  0
 19 20  1  1
 21 23  1  0
 22 15  1  0
 21 22  1  6
 23 25  1  0
 24 23  2  0
M  END
$$$$
