DNI.pdb
     RDKit          3D

 25 24  0  0  1  0  0  0  0  0999 V2000
   16.2567  -12.6363  -14.7605 N   0  0  0  0  0  0  0  0  0  0  0  0
   15.5799  -11.4038  -14.4371 C   0  0  1  0  0  0  0  0  0  0  0  0
   14.1063  -11.5923  -14.2598 C   0  0  0  0  0  0  0  0  0  0  0  0
   13.4208  -11.9217  -15.5092 C   0  0  0  0  0  0  0  0  0  0  0  0
   13.9790  -11.7422  -16.6149 O   0  0  0  0  0  0  0  0  0  0  0  0
   16.1489  -10.8906  -13.1543 C   0  0  0  0  0  0  0  0  0  0  0  0
   16.2079  -11.5934  -12.1331 O   0  0  0  0  0  0  0  0  0  0  0  0
   12.1430  -12.4314  -15.4909 O   0  0  0  0  0  0  0  0  0  0  0  0
   17.9629   -7.4705  -14.2178 N   0  0  0  0  0  0  0  0  0  0  0  0
   18.9785   -7.7451  -13.2768 C   0  0  0  0  0  0  0  0  0  0  0  0
   20.1117   -7.2580  -13.4723 O   0  0  0  0  0  0  0  0  0  0  0  0
   18.6818   -8.5778  -12.1175 C   0  0  0  0  0  0  0  0  0  0  0  0
   17.2564   -8.9682  -11.9753 C   0  0  2  0  0  0  0  0  0  0  0  0
   16.6327   -9.5490  -13.1181 N   0  0  0  0  0  0  0  0  0  0  0  0
   16.4147   -7.9029  -11.3476 C   0  0  0  0  0  0  0  0  0  0  0  0
   15.9891   -7.0041  -12.1067 O   0  0  0  0  0  0  0  0  0  0  0  0
   12.5691   -8.8459   -7.7343 C   0  0  0  0  0  0  0  0  0  0  0  0
   13.3968   -8.2872   -8.8630 C   0  0  0  0  0  0  0  0  0  0  0  0
   14.3897   -7.2810   -8.3022 C   0  0  2  0  0  0  0  0  0  0  0  0
   13.5703   -6.0933   -7.8359 C   0  0  0  0  0  0  0  0  0  0  0  0
   15.3262   -6.7796   -9.3770 C   0  0  2  0  0  0  0  0  0  0  0  0
   16.0761   -7.8504   -9.9821 N   0  0  0  0  0  0  0  0  0  0  0  0
   16.1500   -5.6316   -8.9293 C   0  0  0  0  0  0  0  0  0  0  0  0
   17.2454   -5.7946   -8.3035 O   0  0  0  0  0  0  0  0  0  0  0  0
   15.7737   -4.3129   -9.1658 O   0  0  0  0  0  0  0  0  0  0  0  0
  2  1  1  1
  3  2  1  0
  3  4  1  0
  4  5  2  0
  6  7  2  0
  6  2  1  0
  8  4  1  0
  9 10  1  0
 10 12  1  0
 11 10  2  0
 13 12  1  6
 13 15  1  0
 13 14  1  0
 14  6  1  0
 15 16  2  0
 18 17  1  0
 19 21  1  0
 19 18  1  0
 19 20  1  6
 21 23  1  0
 22 15  1  0
 21 22  1  1
 23 25  1  0
 24 23  2  0
M  END
$$$$
