DNI.pdb
     RDKit          3D

 25 24  0  0  1  0  0  0  0  0999 V2000
   18.2827  -10.6699  -16.3907 N   0  0  0  0  0  0  0  0  0  0  0  0
   18.8233   -9.5757  -17.1603 C   0  0  1  0  0  0  0  0  0  0  0  0
   17.9233   -9.1705  -18.2847 C   0  0  0  0  0  0  0  0  0  0  0  0
   17.7606  -10.2208  -19.2895 C   0  0  0  0  0  0  0  0  0  0  0  0
   18.7087  -10.9843  -19.5802 O   0  0  0  0  0  0  0  0  0  0  0  0
   18.9899   -8.4078  -16.2433 C   0  0  0  0  0  0  0  0  0  0  0  0
   18.1317   -8.1067  -15.3989 O   0  0  0  0  0  0  0  0  0  0  0  0
   16.5590  -10.3850  -19.9394 O   0  0  0  0  0  0  0  0  0  0  0  0
   20.9403   -4.2753  -13.9206 N   0  0  0  0  0  0  0  0  0  0  0  0
   21.8376   -5.3614  -13.8322 C   0  0  0  0  0  0  0  0  0  0  0  0
   22.7932   -5.2741  -13.0330 O   0  0  0  0  0  0  0  0  0  0  0  0
   21.6277   -6.5400  -14.6642 C   0  0  0  0  0  0  0  0  0  0  0  0
   20.4400   -6.4757  -15.5527 C   0  0  2  0  0  0  0  0  0  0  0  0
   20.1763   -7.6234  -16.3562 N   0  0  0  0  0  0  0  0  0  0  0  0
   20.3586   -5.2031  -16.3344 C   0  0  0  0  0  0  0  0  0  0  0  0
   21.1862   -5.0603  -17.2617 O   0  0  0  0  0  0  0  0  0  0  0  0
   15.7358   -3.0073  -17.9730 C   0  0  0  0  0  0  0  0  0  0  0  0
   17.1446   -3.5137  -17.8002 C   0  0  0  0  0  0  0  0  0  0  0  0
   17.9638   -2.4661  -17.0625 C   0  0  2  0  0  0  0  0  0  0  0  0
   18.0382   -1.2628  -17.9823 C   0  0  0  0  0  0  0  0  0  0  0  0
   19.3808   -2.9398  -16.8360 C   0  0  2  0  0  0  0  0  0  0  0  0
   19.4252   -4.1760  -16.0978 N   0  0  0  0  0  0  0  0  0  0  0  0
   20.2624   -1.8750  -16.3012 C   0  0  0  0  0  0  0  0  0  0  0  0
   20.2855   -1.5807  -15.0639 O   0  0  0  0  0  0  0  0  0  0  0  0
   21.1126   -1.1369  -17.1190 O   0  0  0  0  0  0  0  0  0  0  0  0
  2  1  1  1
  3  2  1  0
  3  4  1  0
  4  5  2  0
  6  7  2  0
  6  2  1  0
  8  4  1  0
  9 10  1  0
 10 12  1  0
 11 10  2  0
 13 12  1  6
 13 15  1  0
 13 14  1  0
 14  6  1  0
 15 16  2  0
 18 17  1  0
 19 21  1  0
 19 18  1  0
 19 20  1  6
 21 23  1  0
 22 15  1  0
 21 22  1  1
 23 25  1  0
 24 23  2  0
M  END
$$$$
