DNI.pdb
     RDKit          3D

 25 24  0  0  1  0  0  0  0  0999 V2000
   18.4029  -12.7395  -16.9846 N   0  0  0  0  0  0  0  0  0  0  0  0
   18.0194  -11.4274  -16.5228 C   0  0  1  0  0  0  0  0  0  0  0  0
   17.3037  -11.4721  -15.2097 C   0  0  0  0  0  0  0  0  0  0  0  0
   15.9333  -11.9699  -15.3258 C   0  0  0  0  0  0  0  0  0  0  0  0
   15.4302  -12.2115  -16.4461 O   0  0  0  0  0  0  0  0  0  0  0  0
   19.2641  -10.6177  -16.3558 C   0  0  0  0  0  0  0  0  0  0  0  0
   20.3927  -11.1333  -16.3810 O   0  0  0  0  0  0  0  0  0  0  0  0
   15.1681  -12.1766  -14.2012 O   0  0  0  0  0  0  0  0  0  0  0  0
   23.2722   -7.3850  -17.3780 N   0  0  0  0  0  0  0  0  0  0  0  0
   21.9225   -6.9723  -17.3648 C   0  0  0  0  0  0  0  0  0  0  0  0
   21.6798   -5.7492  -17.2955 O   0  0  0  0  0  0  0  0  0  0  0  0
   20.8622   -7.9706  -17.4322 C   0  0  0  0  0  0  0  0  0  0  0  0
   20.2425   -8.3149  -16.1277 C   0  0  2  0  0  0  0  0  0  0  0  0
   19.1339   -9.2105  -16.1598 N   0  0  0  0  0  0  0  0  0  0  0  0
   19.9837   -7.1199  -15.2660 C   0  0  0  0  0  0  0  0  0  0  0  0
   18.9765   -6.4331  -15.5471 O   0  0  0  0  0  0  0  0  0  0  0  0
   19.7124   -5.6050   -9.5156 C   0  0  0  0  0  0  0  0  0  0  0  0
   19.8953   -5.0459  -10.9031 C   0  0  0  0  0  0  0  0  0  0  0  0
   20.2729   -6.1749  -11.8495 C   0  0  2  0  0  0  0  0  0  0  0  0
   21.6272   -6.6778  -11.3886 C   0  0  0  0  0  0  0  0  0  0  0  0
   20.4449   -5.6690  -13.2630 C   0  0  2  0  0  0  0  0  0  0  0  0
   20.7863   -6.7281  -14.1778 N   0  0  0  0  0  0  0  0  0  0  0  0
   21.3289   -4.4818  -13.3431 C   0  0  0  0  0  0  0  0  0  0  0  0
   20.9999   -3.3639  -12.8332 O   0  0  0  0  0  0  0  0  0  0  0  0
   22.5657   -4.5207  -13.9797 O   0  0  0  0  0  0  0  0  0  0  0  0
  2  1  1  1
  3  2  1  0
  3  4  1  0
  4  5  2  0
  6  7  2  0
  6  2  1  0
  8  4  1  0
  9 10  1  0
 10 12  1  0
 11 10  2  0
 13 12  1  6
 13 15  1  0
 13 14  1  0
 14  6  1  0
 15 16  2  0
 18 17  1  0
 19 21  1  0
 19 18  1  0
 19 20  1  1
 21 23  1  0
 22 15  1  0
 21 22  1  6
 23 25  1  0
 24 23  2  0
M  END
$$$$
