DNI.pdb
     RDKit          3D

 25 24  0  0  1  0  0  0  0  0999 V2000
   27.5430  -18.1049  -18.0690 N   0  0  0  0  0  0  0  0  0  0  0  0
   26.1474  -17.7683  -17.9250 C   0  0  1  0  0  0  0  0  0  0  0  0
   25.5423  -17.2863  -19.2056 C   0  0  0  0  0  0  0  0  0  0  0  0
   25.5324  -15.8279  -19.3162 C   0  0  0  0  0  0  0  0  0  0  0  0
   25.6940  -15.1058  -18.3068 O   0  0  0  0  0  0  0  0  0  0  0  0
   25.4205  -19.0001  -17.4925 C   0  0  0  0  0  0  0  0  0  0  0  0
   25.4591  -20.0518  -18.1502 O   0  0  0  0  0  0  0  0  0  0  0  0
   25.3387  -15.2217  -20.5361 O   0  0  0  0  0  0  0  0  0  0  0  0
   24.0828  -22.4693  -14.0630 N   0  0  0  0  0  0  0  0  0  0  0  0
   25.4138  -22.0527  -14.2797 C   0  0  0  0  0  0  0  0  0  0  0  0
   26.3357  -22.7586  -13.8198 O   0  0  0  0  0  0  0  0  0  0  0  0
   25.6738  -20.8269  -15.0249 C   0  0  0  0  0  0  0  0  0  0  0  0
   24.4614  -20.0735  -15.4333 C   0  0  2  0  0  0  0  0  0  0  0  0
   24.6613  -18.9484  -16.2857 N   0  0  0  0  0  0  0  0  0  0  0  0
   23.5472  -19.7658  -14.2900 C   0  0  0  0  0  0  0  0  0  0  0  0
   24.0442  -19.1406  -13.3270 O   0  0  0  0  0  0  0  0  0  0  0  0
   18.7604  -16.7549  -13.2234 C   0  0  0  0  0  0  0  0  0  0  0  0
   19.5479  -17.9116  -12.6639 C   0  0  0  0  0  0  0  0  0  0  0  0
   20.4358  -18.4852  -13.7573 C   0  0  2  0  0  0  0  0  0  0  0  0
   19.5004  -19.0464  -14.8106 C   0  0  0  0  0  0  0  0  0  0  0  0
   21.2645  -19.6381  -13.2400 C   0  0  2  0  0  0  0  0  0  0  0  0
   22.1878  -20.1270  -14.2317 N   0  0  0  0  0  0  0  0  0  0  0  0
   20.4430  -20.6907  -12.5962 C   0  0  0  0  0  0  0  0  0  0  0  0
   19.7550  -20.4603  -11.5514 O   0  0  0  0  0  0  0  0  0  0  0  0
   20.3779  -21.9881  -13.0949 O   0  0  0  0  0  0  0  0  0  0  0  0
  2  1  1  6
  3  2  1  0
  3  4  1  0
  4  5  2  0
  6  7  2  0
  6  2  1  0
  8  4  1  0
  9 10  1  0
 10 12  1  0
 11 10  2  0
 13 12  1  1
 13 15  1  0
 13 14  1  0
 14  6  1  0
 15 16  2  0
 18 17  1  0
 19 21  1  0
 19 18  1  0
 19 20  1  6
 21 23  1  0
 22 15  1  0
 21 22  1  6
 23 25  1  0
 24 23  2  0
M  END
$$$$
