DNI.pdb
     RDKit          3D

 25 24  0  0  1  0  0  0  0  0999 V2000
   24.6915  -20.5901  -16.3263 N   0  0  0  0  0  0  0  0  0  0  0  0
   24.8547  -19.2138  -15.9250 C   0  0  1  0  0  0  0  0  0  0  0  0
   24.0640  -18.2736  -16.7790 C   0  0  0  0  0  0  0  0  0  0  0  0
   23.5391  -18.9082  -17.9877 C   0  0  0  0  0  0  0  0  0  0  0  0
   23.7754  -20.1119  -18.2358 O   0  0  0  0  0  0  0  0  0  0  0  0
   24.3773  -19.0872  -14.5148 C   0  0  0  0  0  0  0  0  0  0  0  0
   24.0180  -17.9996  -14.0370 O   0  0  0  0  0  0  0  0  0  0  0  0
   22.7780  -18.1884  -18.8797 O   0  0  0  0  0  0  0  0  0  0  0  0
   20.7095  -19.2992  -11.7696 N   0  0  0  0  0  0  0  0  0  0  0  0
   21.3520  -20.1922  -12.6539 C   0  0  0  0  0  0  0  0  0  0  0  0
   20.9053  -20.2964  -13.8155 O   0  0  0  0  0  0  0  0  0  0  0  0
   22.5043  -20.9581  -12.1946 C   0  0  0  0  0  0  0  0  0  0  0  0
   23.8160  -20.2877  -12.3803 C   0  0  2  0  0  0  0  0  0  0  0  0
   24.3418  -20.2613  -13.7051 N   0  0  0  0  0  0  0  0  0  0  0  0
   24.8379  -20.7050  -11.3708 C   0  0  0  0  0  0  0  0  0  0  0  0
   25.5453  -21.6942  -11.6645 O   0  0  0  0  0  0  0  0  0  0  0  0
   28.7073  -19.4904   -6.9029 C   0  0  0  0  0  0  0  0  0  0  0  0
   27.6272  -20.4255   -7.3826 C   0  0  0  0  0  0  0  0  0  0  0  0
   26.8520  -19.7564   -8.5070 C   0  0  2  0  0  0  0  0  0  0  0  0
   26.1749  -18.5468   -7.8922 C   0  0  0  0  0  0  0  0  0  0  0  0
   25.7587  -20.6591   -9.0299 C   0  0  2  0  0  0  0  0  0  0  0  0
   25.0507  -20.0652  -10.1350 N   0  0  0  0  0  0  0  0  0  0  0  0
   24.8849  -21.1835   -7.9535 C   0  0  0  0  0  0  0  0  0  0  0  0
   23.7216  -20.7137   -7.7442 O   0  0  0  0  0  0  0  0  0  0  0  0
   25.2856  -22.2164   -7.1114 O   0  0  0  0  0  0  0  0  0  0  0  0
  2  1  1  6
  3  2  1  0
  3  4  1  0
  4  5  2  0
  6  7  2  0
  6  2  1  0
  8  4  1  0
  9 10  1  0
 10 12  1  0
 11 10  2  0
 13 12  1  6
 13 15  1  0
 13 14  1  0
 14  6  1  0
 15 16  2  0
 18 17  1  0
 19 21  1  0
 19 18  1  0
 19 20  1  1
 21 23  1  0
 22 15  1  0
 21 22  1  6
 23 25  1  0
 24 23  2  0
M  END
$$$$
