DNI.pdb
     RDKit          3D

 25 24  0  0  1  0  0  0  0  0999 V2000
   25.2933  -14.3274  -21.0350 N   0  0  0  0  0  0  0  0  0  0  0  0
   24.6525  -14.6339  -19.7791 C   0  0  1  0  0  0  0  0  0  0  0  0
   24.9598  -16.0196  -19.3058 C   0  0  0  0  0  0  0  0  0  0  0  0
   24.2190  -17.0474  -20.0366 C   0  0  0  0  0  0  0  0  0  0  0  0
   23.4143  -16.7369  -20.9436 O   0  0  0  0  0  0  0  0  0  0  0  0
   25.1537  -13.6637  -18.7593 C   0  0  0  0  0  0  0  0  0  0  0  0
   24.8088  -13.7239  -17.5686 O   0  0  0  0  0  0  0  0  0  0  0  0
   24.3902  -18.3788  -19.7348 O   0  0  0  0  0  0  0  0  0  0  0  0
   29.3259  -10.0755  -16.8924 N   0  0  0  0  0  0  0  0  0  0  0  0
   28.2762   -9.9136  -17.8220 C   0  0  0  0  0  0  0  0  0  0  0  0
   27.7250   -8.7958  -17.9011 O   0  0  0  0  0  0  0  0  0  0  0  0
   27.8694  -11.0394  -18.6541 C   0  0  0  0  0  0  0  0  0  0  0  0
   26.5419  -11.6157  -18.3224 C   0  0  2  0  0  0  0  0  0  0  0  0
   26.0536  -12.6413  -19.1838 N   0  0  0  0  0  0  0  0  0  0  0  0
   25.5060  -10.5767  -18.0306 C   0  0  0  0  0  0  0  0  0  0  0  0
   24.8545  -10.1444  -19.0072 O   0  0  0  0  0  0  0  0  0  0  0  0
   20.8396   -9.1600  -15.9026 C   0  0  0  0  0  0  0  0  0  0  0  0
   22.0697   -8.6675  -15.1848 C   0  0  0  0  0  0  0  0  0  0  0  0
   23.2100   -9.6456  -15.4217 C   0  0  2  0  0  0  0  0  0  0  0  0
   23.9792   -9.7221  -14.1171 C   0  0  0  0  0  0  0  0  0  0  0  0
   24.1660   -9.1272  -16.4709 C   0  0  2  0  0  0  0  0  0  0  0  0
   25.2224  -10.0660  -16.7498 N   0  0  0  0  0  0  0  0  0  0  0  0
   24.6306   -7.7476  -16.1912 C   0  0  0  0  0  0  0  0  0  0  0  0
   25.7749   -7.5136  -15.6874 O   0  0  0  0  0  0  0  0  0  0  0  0
   23.8441   -6.6320  -16.4615 O   0  0  0  0  0  0  0  0  0  0  0  0
  2  1  1  6
  3  2  1  0
  3  4  1  0
  4  5  2  0
  6  7  2  0
  6  2  1  0
  8  4  1  0
  9 10  1  0
 10 12  1  0
 11 10  2  0
 13 12  1  6
 13 15  1  0
 13 14  1  0
 14  6  1  0
 15 16  2  0
 18 17  1  0
 19 21  1  0
 19 18  1  0
 19 20  1  1
 21 23  1  0
 22 15  1  0
 21 22  1  1
 23 25  1  0
 24 23  2  0
M  END
$$$$
