DNI.pdb
     RDKit          3D

 25 24  0  0  1  0  0  0  0  0999 V2000
   16.1497  -13.1617  -17.9771 N   0  0  0  0  0  0  0  0  0  0  0  0
   16.2635  -12.5039  -16.6980 C   0  0  1  0  0  0  0  0  0  0  0  0
   16.7833  -13.4163  -15.6322 C   0  0  0  0  0  0  0  0  0  0  0  0
   15.7646  -14.3341  -15.1230 C   0  0  0  0  0  0  0  0  0  0  0  0
   14.5632  -14.2055  -15.4490 O   0  0  0  0  0  0  0  0  0  0  0  0
   17.2173  -11.3640  -16.8513 C   0  0  0  0  0  0  0  0  0  0  0  0
   18.3288  -11.5035  -17.3856 O   0  0  0  0  0  0  0  0  0  0  0  0
   16.1100  -15.3558  -14.2687 O   0  0  0  0  0  0  0  0  0  0  0  0
   16.0187   -8.2698  -18.6703 N   0  0  0  0  0  0  0  0  0  0  0  0
   16.0345   -7.3641  -17.5878 C   0  0  0  0  0  0  0  0  0  0  0  0
   15.2783   -6.3715  -17.6376 O   0  0  0  0  0  0  0  0  0  0  0  0
   16.9203   -7.6081  -16.4559 C   0  0  0  0  0  0  0  0  0  0  0  0
   17.6287   -8.9126  -16.4851 C   0  0  2  0  0  0  0  0  0  0  0  0
   16.8243  -10.0830  -16.3611 N   0  0  0  0  0  0  0  0  0  0  0  0
   18.8291   -8.9501  -15.5934 C   0  0  0  0  0  0  0  0  0  0  0  0
   18.6143   -9.0928  -14.3692 O   0  0  0  0  0  0  0  0  0  0  0  0
   23.0519  -11.9841  -16.2162 C   0  0  0  0  0  0  0  0  0  0  0  0
   21.9151  -11.1120  -15.7490 C   0  0  0  0  0  0  0  0  0  0  0  0
   22.4141   -9.6838  -15.5933 C   0  0  2  0  0  0  0  0  0  0  0  0
   23.4322   -9.7118  -14.4698 C   0  0  0  0  0  0  0  0  0  0  0  0
   21.3000   -8.7596  -15.1597 C   0  0  2  0  0  0  0  0  0  0  0  0
   20.1604   -8.8389  -16.0373 N   0  0  0  0  0  0  0  0  0  0  0  0
   21.7715   -7.3802  -14.8913 C   0  0  0  0  0  0  0  0  0  0  0  0
   21.7978   -6.4906  -15.8001 O   0  0  0  0  0  0  0  0  0  0  0  0
   22.2126   -6.9796  -13.6337 O   0  0  0  0  0  0  0  0  0  0  0  0
  2  1  1  6
  3  2  1  0
  3  4  1  0
  4  5  2  0
  6  7  2  0
  6  2  1  0
  8  4  1  0
  9 10  1  0
 10 12  1  0
 11 10  2  0
 13 12  1  1
 13 15  1  0
 13 14  1  0
 14  6  1  0
 15 16  2  0
 18 17  1  0
 19 21  1  0
 19 18  1  0
 19 20  1  1
 21 23  1  0
 22 15  1  0
 21 22  1  6
 23 25  1  0
 24 23  2  0
M  END
$$$$
