DNI.pdb
     RDKit          3D

 25 24  0  0  1  0  0  0  0  0999 V2000
   26.9116  -16.7253  -17.1760 N   0  0  0  0  0  0  0  0  0  0  0  0
   27.3199  -17.1012  -15.8441 C   0  0  1  0  0  0  0  0  0  0  0  0
   27.0606  -16.0205  -14.8423 C   0  0  0  0  0  0  0  0  0  0  0  0
   26.0422  -15.0682  -15.2841 C   0  0  0  0  0  0  0  0  0  0  0  0
   24.8427  -15.4107  -15.3848 O   0  0  0  0  0  0  0  0  0  0  0  0
   26.5370  -18.3108  -15.4483 C   0  0  0  0  0  0  0  0  0  0  0  0
   25.7351  -18.8575  -16.2217 O   0  0  0  0  0  0  0  0  0  0  0  0
   26.3874  -13.7752  -15.6035 O   0  0  0  0  0  0  0  0  0  0  0  0
   24.6974  -22.1141  -15.9254 N   0  0  0  0  0  0  0  0  0  0  0  0
   25.6054  -22.2524  -14.8535 C   0  0  0  0  0  0  0  0  0  0  0  0
   25.4752  -23.2339  -14.0924 O   0  0  0  0  0  0  0  0  0  0  0  0
   26.6569  -21.2601  -14.6664 C   0  0  0  0  0  0  0  0  0  0  0  0
   26.3104  -20.1463  -13.7477 C   0  0  2  0  0  0  0  0  0  0  0  0
   26.7269  -18.8397  -14.1369 N   0  0  0  0  0  0  0  0  0  0  0  0
   26.6304  -20.4429  -12.3170 C   0  0  0  0  0  0  0  0  0  0  0  0
   27.7785  -20.8783  -12.0775 O   0  0  0  0  0  0  0  0  0  0  0  0
   27.8760  -20.1196   -6.8204 C   0  0  0  0  0  0  0  0  0  0  0  0
   26.9445  -20.9022   -7.7096 C   0  0  0  0  0  0  0  0  0  0  0  0
   26.8130  -20.1875   -9.0456 C   0  0  2  0  0  0  0  0  0  0  0  0
   26.1850  -18.8405   -8.7443 C   0  0  0  0  0  0  0  0  0  0  0  0
   25.8675  -20.9217   -9.9678 C   0  0  2  0  0  0  0  0  0  0  0  0
   25.7379  -20.2642  -11.2430 N   0  0  0  0  0  0  0  0  0  0  0  0
   24.5783  -21.2573   -9.3178 C   0  0  0  0  0  0  0  0  0  0  0  0
   24.5267  -21.8904   -8.2158 O   0  0  0  0  0  0  0  0  0  0  0  0
   23.3535  -20.9014   -9.8741 O   0  0  0  0  0  0  0  0  0  0  0  0
  2  1  1  6
  3  2  1  0
  3  4  1  0
  4  5  2  0
  6  7  2  0
  6  2  1  0
  8  4  1  0
  9 10  1  0
 10 12  1  0
 11 10  2  0
 13 12  1  6
 13 15  1  0
 13 14  1  0
 14  6  1  0
 15 16  2  0
 18 17  1  0
 19 21  1  0
 19 18  1  0
 19 20  1  1
 21 23  1  0
 22 15  1  0
 21 22  1  6
 23 25  1  0
 24 23  2  0
M  END
$$$$
