DNI.pdb
     RDKit          3D

 25 24  0  0  1  0  0  0  0  0999 V2000
   16.5099  -11.0051  -17.4125 N   0  0  0  0  0  0  0  0  0  0  0  0
   16.6250  -10.5965  -16.0334 C   0  0  1  0  0  0  0  0  0  0  0  0
   17.3211  -11.6194  -15.1923 C   0  0  0  0  0  0  0  0  0  0  0  0
   16.5434  -12.8476  -15.0308 C   0  0  0  0  0  0  0  0  0  0  0  0
   17.0720  -13.9696  -15.1986 O   0  0  0  0  0  0  0  0  0  0  0  0
   17.4195   -9.3317  -15.9942 C   0  0  0  0  0  0  0  0  0  0  0  0
   18.4955   -9.2116  -16.6007 O   0  0  0  0  0  0  0  0  0  0  0  0
   15.2101  -12.7905  -14.6958 O   0  0  0  0  0  0  0  0  0  0  0  0
   15.8040   -4.3837  -16.7401 N   0  0  0  0  0  0  0  0  0  0  0  0
   15.6711   -5.5239  -15.9188 C   0  0  0  0  0  0  0  0  0  0  0  0
   14.6879   -6.2719  -16.1017 O   0  0  0  0  0  0  0  0  0  0  0  0
   16.6715   -5.7950  -14.8935 C   0  0  0  0  0  0  0  0  0  0  0  0
   17.5464   -6.9631  -15.1658 C   0  0  2  0  0  0  0  0  0  0  0  0
   16.9131   -8.2387  -15.2297 N   0  0  0  0  0  0  0  0  0  0  0  0
   18.7811   -6.9826  -14.3215 C   0  0  0  0  0  0  0  0  0  0  0  0
   18.6433   -7.3535  -13.1347 O   0  0  0  0  0  0  0  0  0  0  0  0
   23.1574   -9.3432  -12.9403 C   0  0  0  0  0  0  0  0  0  0  0  0
   23.3930   -8.0530  -13.6826 C   0  0  0  0  0  0  0  0  0  0  0  0
   22.2105   -7.7829  -14.6000 C   0  0  2  0  0  0  0  0  0  0  0  0
   22.7844   -7.1567  -15.8563 C   0  0  0  0  0  0  0  0  0  0  0  0
   21.2663   -6.7719  -13.9917 C   0  0  2  0  0  0  0  0  0  0  0  0
   20.0645   -6.6185  -14.7709 N   0  0  0  0  0  0  0  0  0  0  0  0
   21.9381   -5.4971  -13.6443 C   0  0  0  0  0  0  0  0  0  0  0  0
   22.9113   -5.4520  -12.8264 O   0  0  0  0  0  0  0  0  0  0  0  0
   21.5439   -4.2793  -14.1901 O   0  0  0  0  0  0  0  0  0  0  0  0
  2  1  1  6
  3  2  1  0
  3  4  1  0
  4  5  2  0
  6  7  2  0
  6  2  1  0
  8  4  1  0
  9 10  1  0
 10 12  1  0
 11 10  2  0
 13 12  1  1
 13 15  1  0
 13 14  1  0
 14  6  1  0
 15 16  2  0
 18 17  1  0
 19 21  1  0
 19 18  1  0
 19 20  1  6
 21 23  1  0
 22 15  1  0
 21 22  1  6
 23 25  1  0
 24 23  2  0
M  END
$$$$
