DNI.pdb
     RDKit          3D

 25 24  0  0  1  0  0  0  0  0999 V2000
   27.1608  -20.9108  -12.0824 N   0  0  0  0  0  0  0  0  0  0  0  0
   25.7729  -21.1498  -11.7687 C   0  0  1  0  0  0  0  0  0  0  0  0
   25.3578  -20.4978  -10.4876 C   0  0  0  0  0  0  0  0  0  0  0  0
   26.1500  -20.9416   -9.3410 C   0  0  0  0  0  0  0  0  0  0  0  0
   27.1371  -21.6953   -9.4951 O   0  0  0  0  0  0  0  0  0  0  0  0
   24.9474  -20.5825  -12.8774 C   0  0  0  0  0  0  0  0  0  0  0  0
   24.8106  -19.3592  -13.0362 O   0  0  0  0  0  0  0  0  0  0  0  0
   25.8190  -20.5411   -8.0670 O   0  0  0  0  0  0  0  0  0  0  0  0
   25.6130  -23.3140  -16.7149 N   0  0  0  0  0  0  0  0  0  0  0  0
   24.9913  -22.0473  -16.6770 C   0  0  0  0  0  0  0  0  0  0  0  0
   25.6212  -21.0670  -17.1262 O   0  0  0  0  0  0  0  0  0  0  0  0
   23.6490  -21.9188  -16.1228 C   0  0  0  0  0  0  0  0  0  0  0  0
   23.5516  -21.0697  -14.9088 C   0  0  2  0  0  0  0  0  0  0  0  0
   24.3014  -21.4880  -13.7708 N   0  0  0  0  0  0  0  0  0  0  0  0
   22.1443  -20.7025  -14.5594 C   0  0  0  0  0  0  0  0  0  0  0  0
   21.4710  -21.5691  -13.9588 O   0  0  0  0  0  0  0  0  0  0  0  0
   18.7541  -16.9122  -12.4416 C   0  0  0  0  0  0  0  0  0  0  0  0
   18.6389  -17.2262  -13.9110 C   0  0  0  0  0  0  0  0  0  0  0  0
   20.0112  -17.5993  -14.4499 C   0  0  2  0  0  0  0  0  0  0  0  0
   20.0343  -17.1474  -15.8972 C   0  0  0  0  0  0  0  0  0  0  0  0
   20.2101  -19.0973  -14.4494 C   0  0  2  0  0  0  0  0  0  0  0  0
   21.5419  -19.4653  -14.8567 N   0  0  0  0  0  0  0  0  0  0  0  0
   19.1299  -19.8189  -15.1633 C   0  0  0  0  0  0  0  0  0  0  0  0
   19.2089  -20.0895  -16.4037 O   0  0  0  0  0  0  0  0  0  0  0  0
   17.9698  -20.2400  -14.5204 O   0  0  0  0  0  0  0  0  0  0  0  0
  2  1  1  6
  3  2  1  0
  3  4  1  0
  4  5  2  0
  6  7  2  0
  6  2  1  0
  8  4  1  0
  9 10  1  0
 10 12  1  0
 11 10  2  0
 13 12  1  6
 13 15  1  0
 13 14  1  0
 14  6  1  0
 15 16  2  0
 18 17  1  0
 19 21  1  0
 19 18  1  0
 19 20  1  6
 21 23  1  0
 22 15  1  0
 21 22  1  6
 23 25  1  0
 24 23  2  0
M  END
$$$$
