DNI.pdb
     RDKit          3D

 25 24  0  0  1  0  0  0  0  0999 V2000
   20.8695  -14.2832  -18.9025 N   0  0  0  0  0  0  0  0  0  0  0  0
   19.9445  -13.1800  -18.8061 C   0  0  1  0  0  0  0  0  0  0  0  0
   18.7896  -13.4819  -17.9041 C   0  0  0  0  0  0  0  0  0  0  0  0
   17.9251  -14.5417  -18.4225 C   0  0  0  0  0  0  0  0  0  0  0  0
   17.5333  -15.4712  -17.6818 O   0  0  0  0  0  0  0  0  0  0  0  0
   20.6850  -12.0073  -18.2501 C   0  0  0  0  0  0  0  0  0  0  0  0
   21.2151  -12.0356  -17.1283 O   0  0  0  0  0  0  0  0  0  0  0  0
   17.5305  -14.5383  -19.7406 O   0  0  0  0  0  0  0  0  0  0  0  0
   24.2695   -9.0604  -20.3877 N   0  0  0  0  0  0  0  0  0  0  0  0
   22.8939   -9.2858  -20.6099 C   0  0  0  0  0  0  0  0  0  0  0  0
   22.5603   -9.9710  -21.5992 O   0  0  0  0  0  0  0  0  0  0  0  0
   21.9128   -8.7212  -19.6911 C   0  0  0  0  0  0  0  0  0  0  0  0
   21.4513   -9.6439  -18.6235 C   0  0  2  0  0  0  0  0  0  0  0  0
   20.7742  -10.8257  -19.0446 N   0  0  0  0  0  0  0  0  0  0  0  0
   20.7371   -8.9450  -17.5104 C   0  0  0  0  0  0  0  0  0  0  0  0
   19.5406   -8.6422  -17.7143 O   0  0  0  0  0  0  0  0  0  0  0  0
   19.1514   -9.2353  -11.9065 C   0  0  0  0  0  0  0  0  0  0  0  0
   19.4810   -8.2309  -12.9806 C   0  0  0  0  0  0  0  0  0  0  0  0
   20.3262   -8.9046  -14.0505 C   0  0  2  0  0  0  0  0  0  0  0  0
   21.6575   -9.2243  -13.3985 C   0  0  0  0  0  0  0  0  0  0  0  0
   20.6088   -7.9626  -15.1978 C   0  0  2  0  0  0  0  0  0  0  0  0
   21.3157   -8.6147  -16.2702 N   0  0  0  0  0  0  0  0  0  0  0  0
   21.2134   -6.6841  -14.7538 C   0  0  0  0  0  0  0  0  0  0  0  0
   22.4507   -6.4354  -14.9129 O   0  0  0  0  0  0  0  0  0  0  0  0
   20.4654   -5.6853  -14.1381 O   0  0  0  0  0  0  0  0  0  0  0  0
  2  1  1  1
  3  2  1  0
  3  4  1  0
  4  5  2  0
  6  7  2  0
  6  2  1  0
  8  4  1  0
  9 10  1  0
 10 12  1  0
 11 10  2  0
 13 12  1  6
 13 15  1  0
 13 14  1  0
 14  6  1  0
 15 16  2  0
 18 17  1  0
 19 21  1  0
 19 18  1  0
 19 20  1  1
 21 23  1  0
 22 15  1  0
 21 22  1  6
 23 25  1  0
 24 23  2  0
M  END
$$$$
