NCR.pdb
     RDKit          3D

 26 25  0  0  1  0  0  0  0  0999 V2000
    7.3520  -17.4463   19.0319 N   0  0  0  0  0  0  0  0  0  0  0  0
    8.5314  -16.6744   19.0900 C   0  0  0  0  0  0  0  0  0  0  0  0
    9.2211  -16.6410   18.0193 O   0  0  0  0  0  0  0  0  0  0  0  0
    9.0420  -15.9147   20.2314 C   0  0  0  0  0  0  0  0  0  0  0  0
    8.2971  -16.1651   21.5141 C   0  0  2  0  0  0  0  0  0  0  0  0
    6.8575  -16.1068   21.2486 N   0  0  0  0  0  0  0  0  0  0  0  0
    8.6604  -15.0896   22.4840 C   0  0  0  0  0  0  0  0  0  0  0  0
    9.8189  -14.7084   22.7439 O   0  0  0  0  0  0  0  0  0  0  0  0
    7.6326  -14.3877   23.2201 N   0  0  0  0  0  0  0  0  0  0  0  0
    7.8948  -13.6621   24.4306 C   0  0  1  0  0  0  0  0  0  0  0  0
    6.7974  -12.7197   24.8242 C   0  0  0  0  0  0  0  0  0  0  0  0
    6.7554  -12.3635   26.5884 S   0  0  0  0  0  0  0  0  0  0  0  0
    8.2827  -14.5756   25.5533 C   0  0  0  0  0  0  0  0  0  0  0  0
    7.5439  -15.5585   25.8552 O   0  0  0  0  0  0  0  0  0  0  0  0
   13.4906  -21.3600   26.1370 N   0  0  0  0  0  0  0  0  0  0  0  0
   12.2881  -20.9408   26.7848 C   0  0  0  0  0  0  0  0  0  0  0  0
   11.3041  -21.7532   26.9283 N   0  0  0  0  0  0  0  0  0  0  0  0
   12.1695  -19.6241   27.2746 N   0  0  0  0  0  0  0  0  0  0  0  0
   11.5456  -18.5391   26.4632 C   0  0  0  0  0  0  0  0  0  0  0  0
   11.5696  -17.3021   27.2706 C   0  0  0  0  0  0  0  0  0  0  0  0
   11.0893  -16.0233   26.8130 C   0  0  0  0  0  0  0  0  0  0  0  0
    9.8569  -15.3854   27.3164 C   0  0  2  0  0  0  0  0  0  0  0  0
    9.4639  -14.3602   26.2846 N   0  0  0  0  0  0  0  0  0  0  0  0
    9.8959  -14.6716   28.6036 C   0  0  0  0  0  0  0  0  0  0  0  0
    9.9104  -13.3721   28.5922 O   0  0  0  0  0  0  0  0  0  0  0  0
    9.9120  -15.1936   29.8714 O   0  0  0  0  0  0  0  0  0  0  0  0
  2  1  1  0
  3  2  2  0
  4  2  1  0
  5  4  1  0
  5  6  1  6
  7  9  1  0
  7  5  1  0
  8  7  2  0
 10 13  1  0
 10  9  1  0
 10 11  1  1
 12 11  1  0
 13 14  2  0
 16 17  2  0
 16 15  1  0
 18 16  1  0
 19 18  1  0
 20 19  1  0
 21 20  1  0
 22 21  1  6
 23 22  1  0
 23 13  1  0
 24 22  1  0
 24 26  1  0
 25 24  2  0
M  END
$$$$
