NCR.pdb
     RDKit          3D

 26 25  0  0  1  0  0  0  0  0999 V2000
    5.4861  -23.6210   24.9748 N   0  0  0  0  0  0  0  0  0  0  0  0
    4.5586  -22.5617   25.0622 C   0  0  0  0  0  0  0  0  0  0  0  0
    3.3464  -22.9052   25.2515 O   0  0  0  0  0  0  0  0  0  0  0  0
    4.8335  -21.1281   24.9627 C   0  0  0  0  0  0  0  0  0  0  0  0
    6.2576  -20.8029   24.6036 C   0  0  2  0  0  0  0  0  0  0  0  0
    7.1233  -21.1371   25.7372 N   0  0  0  0  0  0  0  0  0  0  0  0
    6.3490  -19.3374   24.3327 C   0  0  0  0  0  0  0  0  0  0  0  0
    5.7174  -18.7221   23.4509 O   0  0  0  0  0  0  0  0  0  0  0  0
    7.2244  -18.4987   25.1209 N   0  0  0  0  0  0  0  0  0  0  0  0
    7.4552  -17.1131   24.8252 C   0  0  1  0  0  0  0  0  0  0  0  0
    7.5628  -16.2420   26.0404 C   0  0  0  0  0  0  0  0  0  0  0  0
    8.7668  -16.8315   27.2419 S   0  0  0  0  0  0  0  0  0  0  0  0
    8.6157  -16.9291   23.8954 C   0  0  0  0  0  0  0  0  0  0  0  0
    9.5893  -17.7379   23.9285 O   0  0  0  0  0  0  0  0  0  0  0  0
    7.6541  -15.1924   17.3803 N   0  0  0  0  0  0  0  0  0  0  0  0
    8.0562  -13.8318   17.2106 C   0  0  0  0  0  0  0  0  0  0  0  0
    8.2232  -13.3399   16.0363 N   0  0  0  0  0  0  0  0  0  0  0  0
    8.2751  -13.0123   18.3367 N   0  0  0  0  0  0  0  0  0  0  0  0
    7.8424  -13.4257   19.7030 C   0  0  0  0  0  0  0  0  0  0  0  0
    8.6766  -14.5747   20.1114 C   0  0  0  0  0  0  0  0  0  0  0  0
    9.5938  -14.5591   21.2223 C   0  0  0  0  0  0  0  0  0  0  0  0
    9.8512  -15.7282   22.0860 C   0  0  2  0  0  0  0  0  0  0  0  0
    8.6439  -15.8651   22.9770 N   0  0  0  0  0  0  0  0  0  0  0  0
   11.0183  -15.7109   22.9834 C   0  0  0  0  0  0  0  0  0  0  0  0
   12.1744  -16.0619   22.5046 O   0  0  0  0  0  0  0  0  0  0  0  0
   11.0748  -15.3569   24.3069 O   0  0  0  0  0  0  0  0  0  0  0  0
  2  1  1  0
  3  2  2  0
  4  2  1  0
  5  4  1  0
  5  6  1  1
  7  9  1  0
  7  5  1  0
  8  7  2  0
 10 13  1  0
 10  9  1  0
 10 11  1  1
 12 11  1  0
 13 14  2  0
 16 17  2  0
 16 15  1  0
 18 16  1  0
 19 18  1  0
 20 19  1  0
 21 20  1  0
 22 21  1  1
 23 22  1  0
 23 13  1  0
 24 22  1  0
 24 26  1  0
 25 24  2  0
M  END
$$$$
