NCR.pdb
     RDKit          3D

 26 25  0  0  1  0  0  0  0  0999 V2000
    7.5147  -18.5677   15.9620 N   0  0  0  0  0  0  0  0  0  0  0  0
    7.8936  -19.2486   17.1380 C   0  0  0  0  0  0  0  0  0  0  0  0
    8.0587  -20.5062   17.0174 O   0  0  0  0  0  0  0  0  0  0  0  0
    8.1175  -18.6748   18.4651 C   0  0  0  0  0  0  0  0  0  0  0  0
    7.7604  -17.2173   18.5685 C   0  0  2  0  0  0  0  0  0  0  0  0
    8.2026  -16.5307   17.3522 N   0  0  0  0  0  0  0  0  0  0  0  0
    8.4782  -16.6418   19.7445 C   0  0  0  0  0  0  0  0  0  0  0  0
    9.7007  -16.7430   19.9688 O   0  0  0  0  0  0  0  0  0  0  0  0
    7.7575  -15.8913   20.7486 N   0  0  0  0  0  0  0  0  0  0  0  0
    8.3720  -15.4014   21.9499 C   0  0  1  0  0  0  0  0  0  0  0  0
    7.4892  -14.5013   22.7608 C   0  0  0  0  0  0  0  0  0  0  0  0
    8.2158  -14.0092   24.3327 S   0  0  0  0  0  0  0  0  0  0  0  0
    8.9501  -16.5132   22.7716 C   0  0  0  0  0  0  0  0  0  0  0  0
    8.2404  -17.5197   23.0654 O   0  0  0  0  0  0  0  0  0  0  0  0
   15.6992  -18.2738   21.3097 N   0  0  0  0  0  0  0  0  0  0  0  0
   15.2433  -19.6042   21.0569 C   0  0  0  0  0  0  0  0  0  0  0  0
   16.0798  -20.5496   20.8222 N   0  0  0  0  0  0  0  0  0  0  0  0
   13.8634  -19.8929   21.0623 N   0  0  0  0  0  0  0  0  0  0  0  0
   12.8429  -18.8386   21.3308 C   0  0  0  0  0  0  0  0  0  0  0  0
   12.3720  -19.0111   22.7205 C   0  0  0  0  0  0  0  0  0  0  0  0
   12.1156  -17.9256   23.6325 C   0  0  0  0  0  0  0  0  0  0  0  0
   10.7689  -17.5690   24.1205 C   0  0  2  0  0  0  0  0  0  0  0  0
   10.2792  -16.4595   23.2265 N   0  0  0  0  0  0  0  0  0  0  0  0
   10.6154  -17.0768   25.4996 C   0  0  0  0  0  0  0  0  0  0  0  0
   10.9442  -17.8644   26.4797 O   0  0  0  0  0  0  0  0  0  0  0  0
   10.1647  -15.8542   25.9266 O   0  0  0  0  0  0  0  0  0  0  0  0
  2  1  1  0
  3  2  2  0
  4  2  1  0
  5  4  1  0
  5  6  1  6
  7  9  1  0
  7  5  1  0
  8  7  2  0
 10 13  1  0
 10  9  1  0
 10 11  1  1
 12 11  1  0
 13 14  2  0
 16 17  2  0
 16 15  1  0
 18 16  1  0
 19 18  1  0
 20 19  1  0
 21 20  1  0
 22 21  1  6
 23 22  1  0
 23 13  1  0
 24 22  1  0
 24 26  1  0
 25 24  2  0
M  END
$$$$
