NCR.pdb
     RDKit          3D

 26 25  0  0  1  0  0  0  0  0999 V2000
    6.2838  -16.9179   18.9891 N   0  0  0  0  0  0  0  0  0  0  0  0
    7.0989  -17.5734   19.9358 C   0  0  0  0  0  0  0  0  0  0  0  0
    7.2029  -18.8352   19.7933 O   0  0  0  0  0  0  0  0  0  0  0  0
    7.8314  -16.9694   21.0490 C   0  0  0  0  0  0  0  0  0  0  0  0
    7.5834  -15.4950   21.2148 C   0  0  2  0  0  0  0  0  0  0  0  0
    8.1055  -14.7889   20.0422 N   0  0  0  0  0  0  0  0  0  0  0  0
    8.3142  -15.0314   22.4316 C   0  0  0  0  0  0  0  0  0  0  0  0
    9.5419  -14.8261   22.5060 O   0  0  0  0  0  0  0  0  0  0  0  0
    7.6012  -14.7794   23.6641 N   0  0  0  0  0  0  0  0  0  0  0  0
    8.2586  -14.4205   24.8887 C   0  0  1  0  0  0  0  0  0  0  0  0
    7.3773  -13.6982   25.8626 C   0  0  0  0  0  0  0  0  0  0  0  0
    5.7747  -14.4832   26.0997 S   0  0  0  0  0  0  0  0  0  0  0  0
    8.9465  -15.5952   25.5150 C   0  0  0  0  0  0  0  0  0  0  0  0
    8.4129  -16.7423   25.4668 O   0  0  0  0  0  0  0  0  0  0  0  0
   16.7428  -15.8427   23.0162 N   0  0  0  0  0  0  0  0  0  0  0  0
   15.4291  -15.6715   22.4809 C   0  0  0  0  0  0  0  0  0  0  0  0
   15.2513  -15.0643   21.3636 N   0  0  0  0  0  0  0  0  0  0  0  0
   14.3097  -16.1696   23.1784 N   0  0  0  0  0  0  0  0  0  0  0  0
   14.0803  -15.8562   24.6185 C   0  0  0  0  0  0  0  0  0  0  0  0
   12.8582  -16.5683   25.0454 C   0  0  0  0  0  0  0  0  0  0  0  0
   12.3081  -16.5130   26.3758 C   0  0  0  0  0  0  0  0  0  0  0  0
   10.8727  -16.6853   26.6743 C   0  0  2  0  0  0  0  0  0  0  0  0
   10.1861  -15.4462   26.1612 N   0  0  0  0  0  0  0  0  0  0  0  0
   10.4469  -16.8344   28.0759 C   0  0  0  0  0  0  0  0  0  0  0  0
   10.7457  -17.9337   28.7015 O   0  0  0  0  0  0  0  0  0  0  0  0
    9.7579  -15.9454   28.8600 O   0  0  0  0  0  0  0  0  0  0  0  0
  2  1  1  0
  3  2  2  0
  4  2  1  0
  5  4  1  0
  5  6  1  6
  7  9  1  0
  7  5  1  0
  8  7  2  0
 10 13  1  0
 10  9  1  0
 10 11  1  1
 12 11  1  0
 13 14  2  0
 16 17  2  0
 16 15  1  0
 18 16  1  0
 19 18  1  0
 20 19  1  0
 21 20  1  0
 22 21  1  1
 23 22  1  0
 23 13  1  0
 24 22  1  0
 24 26  1  0
 25 24  2  0
M  END
$$$$
