NCR.pdb
     RDKit          3D

 26 25  0  0  1  0  0  0  0  0999 V2000
   11.8268  -15.8811   14.8055 N   0  0  0  0  0  0  0  0  0  0  0  0
   10.6407  -16.6061   14.5655 C   0  0  0  0  0  0  0  0  0  0  0  0
   10.6008  -17.2485   13.4659 O   0  0  0  0  0  0  0  0  0  0  0  0
    9.4658  -16.7018   15.4322 C   0  0  0  0  0  0  0  0  0  0  0  0
    9.5437  -15.8415   16.6637 C   0  0  2  0  0  0  0  0  0  0  0  0
   10.9351  -15.7854   17.1188 N   0  0  0  0  0  0  0  0  0  0  0  0
    8.7052  -16.4699   17.7274 C   0  0  0  0  0  0  0  0  0  0  0  0
    7.5444  -16.8999   17.5765 O   0  0  0  0  0  0  0  0  0  0  0  0
    9.2187  -16.6253   19.0702 N   0  0  0  0  0  0  0  0  0  0  0  0
    8.4662  -17.2352   20.1296 C   0  0  1  0  0  0  0  0  0  0  0  0
    7.8406  -18.5449   19.7549 C   0  0  0  0  0  0  0  0  0  0  0  0
    7.0431  -19.3807   21.1356 S   0  0  0  0  0  0  0  0  0  0  0  0
    9.2651  -17.3335   21.3935 C   0  0  0  0  0  0  0  0  0  0  0  0
   10.4211  -17.8497   21.3746 O   0  0  0  0  0  0  0  0  0  0  0  0
   11.5303  -14.6734   27.7782 N   0  0  0  0  0  0  0  0  0  0  0  0
   10.2826  -14.4749   28.4456 C   0  0  0  0  0  0  0  0  0  0  0  0
   10.2470  -14.2007   29.6995 N   0  0  0  0  0  0  0  0  0  0  0  0
    9.0723  -14.5794   27.7302 N   0  0  0  0  0  0  0  0  0  0  0  0
    8.9149  -13.9962   26.3664 C   0  0  0  0  0  0  0  0  0  0  0  0
    9.5849  -14.9008   25.4096 C   0  0  0  0  0  0  0  0  0  0  0  0
    8.9849  -16.0885   24.8573 C   0  0  0  0  0  0  0  0  0  0  0  0
    9.6323  -16.9299   23.8317 C   0  0  2  0  0  0  0  0  0  0  0  0
    8.7505  -16.8578   22.6123 N   0  0  0  0  0  0  0  0  0  0  0  0
    9.8315  -18.3631   24.1044 C   0  0  0  0  0  0  0  0  0  0  0  0
    8.8712  -19.1893   23.8140 O   0  0  0  0  0  0  0  0  0  0  0  0
   10.9302  -18.9884   24.6356 O   0  0  0  0  0  0  0  0  0  0  0  0
  2  1  1  0
  3  2  2  0
  4  2  1  0
  5  4  1  0
  5  6  1  1
  7  9  1  0
  7  5  1  0
  8  7  2  0
 10 13  1  0
 10  9  1  0
 10 11  1  6
 12 11  1  0
 13 14  2  0
 16 17  2  0
 16 15  1  0
 18 16  1  0
 19 18  1  0
 20 19  1  0
 21 20  1  0
 22 21  1  1
 23 22  1  0
 23 13  1  0
 24 22  1  0
 24 26  1  0
 25 24  2  0
M  END
$$$$
