NCR.pdb
     RDKit          3D

 26 25  0  0  1  0  0  0  0  0999 V2000
   13.1537  -18.6118   17.1639 N   0  0  0  0  0  0  0  0  0  0  0  0
   13.0438  -17.2129   17.3094 C   0  0  0  0  0  0  0  0  0  0  0  0
   13.8901  -16.5227   16.6532 O   0  0  0  0  0  0  0  0  0  0  0  0
   12.0738  -16.4763   18.1201 C   0  0  0  0  0  0  0  0  0  0  0  0
   11.1960  -17.3542   18.9695 C   0  0  2  0  0  0  0  0  0  0  0  0
   10.2058  -18.0105   18.1122 N   0  0  0  0  0  0  0  0  0  0  0  0
   10.4895  -16.4902   19.9613 C   0  0  0  0  0  0  0  0  0  0  0  0
   11.0351  -15.8365   20.8724 O   0  0  0  0  0  0  0  0  0  0  0  0
    9.0505  -16.3531   19.9215 N   0  0  0  0  0  0  0  0  0  0  0  0
    8.3046  -15.6422   20.9209 C   0  0  1  0  0  0  0  0  0  0  0  0
    6.8578  -15.4511   20.5782 C   0  0  0  0  0  0  0  0  0  0  0  0
    5.9097  -14.6546   21.8849 S   0  0  0  0  0  0  0  0  0  0  0  0
    8.4869  -16.2421   22.2818 C   0  0  0  0  0  0  0  0  0  0  0  0
    8.5858  -17.4975   22.4135 O   0  0  0  0  0  0  0  0  0  0  0  0
   11.3536  -14.4074   30.6835 N   0  0  0  0  0  0  0  0  0  0  0  0
   10.2619  -15.2494   30.3084 C   0  0  0  0  0  0  0  0  0  0  0  0
   10.0723  -16.3760   30.8948 N   0  0  0  0  0  0  0  0  0  0  0  0
    9.3781  -14.8498   29.2853 N   0  0  0  0  0  0  0  0  0  0  0  0
    9.8699  -14.2145   28.0286 C   0  0  0  0  0  0  0  0  0  0  0  0
    9.7637  -15.2149   26.9466 C   0  0  0  0  0  0  0  0  0  0  0  0
    9.0180  -15.0197   25.7294 C   0  0  0  0  0  0  0  0  0  0  0  0
    8.7321  -16.0992   24.7642 C   0  0  2  0  0  0  0  0  0  0  0  0
    8.5515  -15.4290   23.4269 N   0  0  0  0  0  0  0  0  0  0  0  0
    7.5383  -16.9379   24.9625 C   0  0  0  0  0  0  0  0  0  0  0  0
    6.4507  -16.6308   24.3207 O   0  0  0  0  0  0  0  0  0  0  0  0
    7.3953  -18.0499   25.7519 O   0  0  0  0  0  0  0  0  0  0  0  0
  2  1  1  0
  3  2  2  0
  4  2  1  0
  5  4  1  0
  5  6  1  6
  7  9  1  0
  7  5  1  0
  8  7  2  0
 10 13  1  0
 10  9  1  0
 10 11  1  6
 12 11  1  0
 13 14  2  0
 16 17  2  0
 16 15  1  0
 18 16  1  0
 19 18  1  0
 20 19  1  0
 21 20  1  0
 22 21  1  1
 23 22  1  0
 23 13  1  0
 24 22  1  0
 24 26  1  0
 25 24  2  0
M  END
$$$$
