NCR.pdb
     RDKit          3D

 26 25  0  0  1  0  0  0  0  0999 V2000
    7.8691  -18.3664   19.6161 N   0  0  0  0  0  0  0  0  0  0  0  0
    7.2358  -17.5033   20.5349 C   0  0  0  0  0  0  0  0  0  0  0  0
    5.9707  -17.4073   20.4183 O   0  0  0  0  0  0  0  0  0  0  0  0
    7.8653  -16.7174   21.5963 C   0  0  0  0  0  0  0  0  0  0  0  0
    7.6111  -15.2383   21.4936 C   0  0  2  0  0  0  0  0  0  0  0  0
    8.2656  -14.7248   20.2877 N   0  0  0  0  0  0  0  0  0  0  0  0
    8.2054  -14.5769   22.6931 C   0  0  0  0  0  0  0  0  0  0  0  0
    9.4219  -14.5193   22.9615 O   0  0  0  0  0  0  0  0  0  0  0  0
    7.3578  -13.9281   23.6686 N   0  0  0  0  0  0  0  0  0  0  0  0
    7.8556  -13.3902   24.9028 C   0  0  1  0  0  0  0  0  0  0  0  0
    6.9337  -12.4016   25.5508 C   0  0  0  0  0  0  0  0  0  0  0  0
    7.4559  -11.9079   27.2014 S   0  0  0  0  0  0  0  0  0  0  0  0
    8.2781  -14.4716   25.8501 C   0  0  0  0  0  0  0  0  0  0  0  0
    7.4288  -15.3079   26.2772 O   0  0  0  0  0  0  0  0  0  0  0  0
   11.6570  -20.3525   25.1331 N   0  0  0  0  0  0  0  0  0  0  0  0
   12.1592  -19.7729   23.9275 C   0  0  0  0  0  0  0  0  0  0  0  0
   12.4127  -20.5063   22.9044 N   0  0  0  0  0  0  0  0  0  0  0  0
   12.3830  -18.3832   23.8494 N   0  0  0  0  0  0  0  0  0  0  0  0
   12.6760  -17.5670   25.0630 C   0  0  0  0  0  0  0  0  0  0  0  0
   11.3867  -17.1069   25.6186 C   0  0  0  0  0  0  0  0  0  0  0  0
   11.2574  -16.2356   26.7587 C   0  0  0  0  0  0  0  0  0  0  0  0
    9.9688  -15.6900   27.2283 C   0  0  2  0  0  0  0  0  0  0  0  0
    9.6133  -14.5767   26.2774 N   0  0  0  0  0  0  0  0  0  0  0  0
    9.8875  -15.1110   28.5797 C   0  0  0  0  0  0  0  0  0  0  0  0
    9.9248  -15.9131   29.6016 O   0  0  0  0  0  0  0  0  0  0  0  0
    9.7813  -13.7925   28.9407 O   0  0  0  0  0  0  0  0  0  0  0  0
  2  1  1  0
  3  2  2  0
  4  2  1  0
  5  4  1  0
  5  6  1  6
  7  9  1  0
  7  5  1  0
  8  7  2  0
 10 13  1  0
 10  9  1  0
 10 11  1  1
 12 11  1  0
 13 14  2  0
 16 17  2  0
 16 15  1  0
 18 16  1  0
 19 18  1  0
 20 19  1  0
 21 20  1  0
 22 21  1  6
 23 22  1  0
 23 13  1  0
 24 22  1  0
 24 26  1  0
 25 24  2  0
M  END
$$$$
