NCR.pdb
     RDKit          3D

 26 25  0  0  1  0  0  0  0  0999 V2000
    7.8184  -18.7917   15.9211 N   0  0  0  0  0  0  0  0  0  0  0  0
    7.4970  -17.5151   16.4280 C   0  0  0  0  0  0  0  0  0  0  0  0
    7.0059  -16.6954   15.5852 O   0  0  0  0  0  0  0  0  0  0  0  0
    7.6616  -17.0357   17.8005 C   0  0  0  0  0  0  0  0  0  0  0  0
    8.4083  -17.9875   18.6944 C   0  0  2  0  0  0  0  0  0  0  0  0
    7.6302  -19.2209   18.8333 N   0  0  0  0  0  0  0  0  0  0  0  0
    8.5587  -17.3493   20.0359 C   0  0  0  0  0  0  0  0  0  0  0  0
    9.1773  -16.2923   20.2710 O   0  0  0  0  0  0  0  0  0  0  0  0
    7.9627  -17.9533   21.2067 N   0  0  0  0  0  0  0  0  0  0  0  0
    8.1872  -17.4663   22.5382 C   0  0  1  0  0  0  0  0  0  0  0  0
    7.0277  -17.6747   23.4653 C   0  0  0  0  0  0  0  0  0  0  0  0
    7.0341  -19.2841   24.2722 S   0  0  0  0  0  0  0  0  0  0  0  0
    9.4688  -17.9888   23.1125 C   0  0  0  0  0  0  0  0  0  0  0  0
    9.9389  -19.0942   22.7122 O   0  0  0  0  0  0  0  0  0  0  0  0
   18.0056  -14.5244   21.7939 N   0  0  0  0  0  0  0  0  0  0  0  0
   16.5907  -14.4462   21.6113 C   0  0  0  0  0  0  0  0  0  0  0  0
   16.0854  -13.6434   20.7458 N   0  0  0  0  0  0  0  0  0  0  0  0
   15.7312  -15.2534   22.3842 N   0  0  0  0  0  0  0  0  0  0  0  0
   14.2482  -15.1799   22.2417 C   0  0  0  0  0  0  0  0  0  0  0  0
   13.6556  -16.1330   23.2024 C   0  0  0  0  0  0  0  0  0  0  0  0
   12.2399  -16.3260   23.3877 C   0  0  0  0  0  0  0  0  0  0  0  0
   11.6621  -17.4343   24.1729 C   0  0  2  0  0  0  0  0  0  0  0  0
   10.1667  -17.2672   24.0966 N   0  0  0  0  0  0  0  0  0  0  0  0
   11.9862  -17.5406   25.6053 C   0  0  0  0  0  0  0  0  0  0  0  0
   13.1488  -18.0117   25.9451 O   0  0  0  0  0  0  0  0  0  0  0  0
   11.2150  -17.1948   26.6850 O   0  0  0  0  0  0  0  0  0  0  0  0
  2  1  1  0
  3  2  2  0
  4  2  1  0
  5  4  1  0
  5  6  1  1
  7  9  1  0
  7  5  1  0
  8  7  2  0
 10 13  1  0
 10  9  1  0
 10 11  1  1
 12 11  1  0
 13 14  2  0
 16 17  2  0
 16 15  1  0
 18 16  1  0
 19 18  1  0
 20 19  1  0
 21 20  1  0
 22 21  1  1
 23 22  1  0
 23 13  1  0
 24 22  1  0
 24 26  1  0
 25 24  2  0
M  END
$$$$
