ECL.pdb
     RDKit          3D

 24 23  0  0  1  0  0  0  0  0999 V2000
   10.1565  -19.2802   20.8119 N   0  0  0  0  0  0  0  0  0  0  0  0
   10.7998  -17.9816   20.8290 C   0  0  1  0  0  0  0  0  0  0  0  0
   11.1917  -17.6311   19.4110 C   0  0  0  0  0  0  0  0  0  0  0  0
   11.8180  -18.8724   18.8113 C   0  0  0  0  0  0  0  0  0  0  0  0
   12.2014  -18.6682   17.4022 C   0  0  0  0  0  0  0  0  0  0  0  0
   13.4135  -18.7027   17.0771 O   0  0  0  0  0  0  0  0  0  0  0  0
    9.8827  -17.0050   21.4260 C   0  0  0  0  0  0  0  0  0  0  0  0
   10.1811  -15.7991   21.4134 O   0  0  0  0  0  0  0  0  0  0  0  0
   11.2669  -18.4369   16.4096 O   0  0  0  0  0  0  0  0  0  0  0  0
    8.6417  -17.3510   22.0345 N   0  0  0  0  0  0  0  0  0  0  0  0
    7.7422  -16.4689   22.6854 C   0  0  1  0  0  0  0  0  0  0  0  0
    6.4000  -17.0576   23.0068 C   0  0  0  0  0  0  0  0  0  0  0  0
    6.4285  -18.2399   24.3541 S   0  0  0  0  0  0  0  0  0  0  0  0
    8.3810  -15.8453   23.8607 C   0  0  0  0  0  0  0  0  0  0  0  0
    8.7217  -14.6393   23.7868 O   0  0  0  0  0  0  0  0  0  0  0  0
    8.0659  -13.0261   25.3290 C   0  0  0  0  0  0  0  0  0  0  0  0
    8.3415  -13.5115   26.7336 C   0  0  1  0  0  0  0  0  0  0  0  0
    7.6415  -12.6850   27.7609 C   0  0  0  0  0  0  0  0  0  0  0  0
    8.1053  -14.9686   26.9240 C   0  0  0  0  0  0  0  0  0  0  0  0
    9.0837  -15.8878   26.2831 C   0  0  2  0  0  0  0  0  0  0  0  0
    8.6369  -16.5299   25.0790 N   0  0  0  0  0  0  0  0  0  0  0  0
    9.5075  -16.8931   27.3103 C   0  0  0  0  0  0  0  0  0  0  0  0
    8.9017  -17.9864   27.3478 O   0  0  0  0  0  0  0  0  0  0  0  0
   10.5277  -16.6576   28.2027 O   0  0  0  0  0  0  0  0  0  0  0  0
  2  1  1  6
  2  7  1  0
  3  2  1  0
  3  4  1  0
  4  5  1  0
  5  6  2  0
  5  9  1  0
  7  8  2  0
 10  7  1  0
 10 11  1  0
 11 14  1  0
 11 12  1  1
 13 12  1  0
 14 21  1  0
 15 14  2  0
 17 16  1  6
 18 17  1  0
 19 17  1  0
 20 19  1  1
 21 20  1  0
 22 24  1  0
 22 20  1  0
 23 22  2  0
M  END
$$$$
