ECL.pdb
     RDKit          3D

 24 23  0  0  1  0  0  0  0  0999 V2000
   11.2839  -19.6975   21.2674 N   0  0  0  0  0  0  0  0  0  0  0  0
   11.8589  -18.3706   21.3635 C   0  0  1  0  0  0  0  0  0  0  0  0
   12.1537  -17.8821   19.9629 C   0  0  0  0  0  0  0  0  0  0  0  0
   13.2294  -18.7879   19.4016 C   0  0  0  0  0  0  0  0  0  0  0  0
   13.6631  -18.3590   18.0591 C   0  0  0  0  0  0  0  0  0  0  0  0
   14.5915  -17.5218   17.9445 O   0  0  0  0  0  0  0  0  0  0  0  0
   10.9266  -17.5001   22.0876 C   0  0  0  0  0  0  0  0  0  0  0  0
   11.2310  -16.3129   22.2904 O   0  0  0  0  0  0  0  0  0  0  0  0
   13.0809  -18.8484   16.9045 O   0  0  0  0  0  0  0  0  0  0  0  0
    9.6638  -17.9314   22.5869 N   0  0  0  0  0  0  0  0  0  0  0  0
    8.6870  -17.1279   23.2282 C   0  0  1  0  0  0  0  0  0  0  0  0
    7.4408  -17.8550   23.6401 C   0  0  0  0  0  0  0  0  0  0  0  0
    6.4053  -16.9356   24.7786 S   0  0  0  0  0  0  0  0  0  0  0  0
    9.2872  -16.3629   24.3385 C   0  0  0  0  0  0  0  0  0  0  0  0
    9.4637  -15.1292   24.1883 O   0  0  0  0  0  0  0  0  0  0  0  0
   11.0664  -13.6031   28.1090 C   0  0  0  0  0  0  0  0  0  0  0  0
    9.7594  -14.3215   28.3543 C   0  0  1  0  0  0  0  0  0  0  0  0
    8.7107  -13.4093   28.8988 C   0  0  0  0  0  0  0  0  0  0  0  0
    9.2749  -15.1053   27.1855 C   0  0  0  0  0  0  0  0  0  0  0  0
   10.1719  -16.1857   26.6943 C   0  0  2  0  0  0  0  0  0  0  0  0
    9.6813  -16.9402   25.5755 N   0  0  0  0  0  0  0  0  0  0  0  0
   10.4903  -17.0787   27.8547 C   0  0  0  0  0  0  0  0  0  0  0  0
    9.7371  -18.0534   28.0703 O   0  0  0  0  0  0  0  0  0  0  0  0
   11.5695  -16.8658   28.6809 O   0  0  0  0  0  0  0  0  0  0  0  0
  2  1  1  6
  2  7  1  0
  3  2  1  0
  3  4  1  0
  4  5  1  0
  5  6  2  0
  5  9  1  0
  7  8  2  0
 10  7  1  0
 10 11  1  0
 11 14  1  0
 11 12  1  1
 13 12  1  0
 14 21  1  0
 15 14  2  0
 17 16  1  6
 18 17  1  0
 19 17  1  0
 20 19  1  1
 21 20  1  0
 22 24  1  0
 22 20  1  0
 23 22  2  0
M  END
$$$$
