ECL.pdb
     RDKit          3D

 24 23  0  0  1  0  0  0  0  0999 V2000
    9.6775  -17.8003   18.7873 N   0  0  0  0  0  0  0  0  0  0  0  0
   10.1873  -17.7355   20.1424 C   0  0  1  0  0  0  0  0  0  0  0  0
   11.4107  -16.8463   20.1436 C   0  0  0  0  0  0  0  0  0  0  0  0
   12.5835  -17.7173   20.5418 C   0  0  0  0  0  0  0  0  0  0  0  0
   13.6188  -16.9502   21.2588 C   0  0  0  0  0  0  0  0  0  0  0  0
   14.5734  -16.4460   20.6181 O   0  0  0  0  0  0  0  0  0  0  0  0
    9.1246  -17.2459   21.0269 C   0  0  0  0  0  0  0  0  0  0  0  0
    8.2931  -16.4323   20.5911 O   0  0  0  0  0  0  0  0  0  0  0  0
   13.5806  -16.7605   22.6279 O   0  0  0  0  0  0  0  0  0  0  0  0
    8.9750  -17.6486   22.3854 N   0  0  0  0  0  0  0  0  0  0  0  0
    7.9889  -17.1974   23.2991 C   0  0  1  0  0  0  0  0  0  0  0  0
    7.0685  -18.2644   23.8146 C   0  0  0  0  0  0  0  0  0  0  0  0
    6.0203  -17.7293   25.1670 S   0  0  0  0  0  0  0  0  0  0  0  0
    8.6046  -16.4101   24.3851 C   0  0  0  0  0  0  0  0  0  0  0  0
    9.8042  -16.6332   24.6797 O   0  0  0  0  0  0  0  0  0  0  0  0
    6.0824  -11.6651   26.3170 C   0  0  0  0  0  0  0  0  0  0  0  0
    7.0910  -12.6336   25.7433 C   0  0  1  0  0  0  0  0  0  0  0  0
    8.1373  -11.9412   24.9343 C   0  0  0  0  0  0  0  0  0  0  0  0
    7.6767  -13.5596   26.7506 C   0  0  0  0  0  0  0  0  0  0  0  0
    8.4951  -14.6833   26.2209 C   0  0  2  0  0  0  0  0  0  0  0  0
    7.9189  -15.4086   25.1237 N   0  0  0  0  0  0  0  0  0  0  0  0
    8.8165  -15.5946   27.3660 C   0  0  0  0  0  0  0  0  0  0  0  0
    8.3634  -16.7597   27.3351 O   0  0  0  0  0  0  0  0  0  0  0  0
    9.5835  -15.1985   28.4372 O   0  0  0  0  0  0  0  0  0  0  0  0
  2  1  1  6
  2  7  1  0
  3  2  1  0
  3  4  1  0
  4  5  1  0
  5  6  2  0
  5  9  1  0
  7  8  2  0
 10  7  1  0
 10 11  1  0
 11 14  1  0
 11 12  1  1
 13 12  1  0
 14 21  1  0
 15 14  2  0
 17 16  1  1
 18 17  1  0
 19 17  1  0
 20 19  1  1
 21 20  1  0
 22 24  1  0
 22 20  1  0
 23 22  2  0
M  END
$$$$
