ECL.pdb
     RDKit          3D

 24 23  0  0  1  0  0  0  0  0999 V2000
   10.1034  -18.9603   19.5000 N   0  0  0  0  0  0  0  0  0  0  0  0
   10.6264  -18.0108   20.4620 C   0  0  1  0  0  0  0  0  0  0  0  0
   11.2340  -16.8542   19.7002 C   0  0  0  0  0  0  0  0  0  0  0  0
   12.5017  -17.3737   19.0553 C   0  0  0  0  0  0  0  0  0  0  0  0
   13.6473  -17.3303   19.9827 C   0  0  0  0  0  0  0  0  0  0  0  0
   14.1722  -18.4023   20.3717 O   0  0  0  0  0  0  0  0  0  0  0  0
    9.5421  -17.5970   21.3589 C   0  0  0  0  0  0  0  0  0  0  0  0
    8.4202  -17.3478   20.8872 O   0  0  0  0  0  0  0  0  0  0  0  0
   14.1749  -16.1400   20.4480 O   0  0  0  0  0  0  0  0  0  0  0  0
    9.6888  -17.4579   22.7693 N   0  0  0  0  0  0  0  0  0  0  0  0
    8.6717  -17.1189   23.6976 C   0  0  1  0  0  0  0  0  0  0  0  0
    7.9946  -18.2886   24.3493 C   0  0  0  0  0  0  0  0  0  0  0  0
    9.0355  -19.1795   25.5055 S   0  0  0  0  0  0  0  0  0  0  0  0
    9.1678  -16.1349   24.6794 C   0  0  0  0  0  0  0  0  0  0  0  0
   10.4051  -16.0589   24.8773 O   0  0  0  0  0  0  0  0  0  0  0  0
    5.8884  -11.8357   26.2243 C   0  0  0  0  0  0  0  0  0  0  0  0
    7.0427  -12.6808   25.7365 C   0  0  1  0  0  0  0  0  0  0  0  0
    7.8881  -11.9564   24.7418 C   0  0  0  0  0  0  0  0  0  0  0  0
    7.8506  -13.2853   26.8306 C   0  0  0  0  0  0  0  0  0  0  0  0
    8.7959  -14.3646   26.4377 C   0  0  2  0  0  0  0  0  0  0  0  0
    8.3261  -15.2625   25.4204 N   0  0  0  0  0  0  0  0  0  0  0  0
    9.1851  -15.1065   27.6800 C   0  0  0  0  0  0  0  0  0  0  0  0
    8.8662  -16.3123   27.7689 O   0  0  0  0  0  0  0  0  0  0  0  0
    9.8728  -14.5138   28.7137 O   0  0  0  0  0  0  0  0  0  0  0  0
  2  1  1  6
  2  7  1  0
  3  2  1  0
  3  4  1  0
  4  5  1  0
  5  6  2  0
  5  9  1  0
  7  8  2  0
 10  7  1  0
 10 11  1  0
 11 14  1  0
 11 12  1  1
 13 12  1  0
 14 21  1  0
 15 14  2  0
 17 16  1  1
 18 17  1  0
 19 17  1  0
 20 19  1  1
 21 20  1  0
 22 24  1  0
 22 20  1  0
 23 22  2  0
M  END
$$$$
