ECL.pdb
     RDKit          3D

 24 23  0  0  1  0  0  0  0  0999 V2000
    8.6132  -18.8373   19.3166 N   0  0  0  0  0  0  0  0  0  0  0  0
    9.3873  -18.4134   20.4661 C   0  0  1  0  0  0  0  0  0  0  0  0
   10.5140  -17.5315   19.9763 C   0  0  0  0  0  0  0  0  0  0  0  0
   11.6926  -18.4413   19.7006 C   0  0  0  0  0  0  0  0  0  0  0  0
   12.9058  -17.6784   19.3534 C   0  0  0  0  0  0  0  0  0  0  0  0
   14.0034  -18.2766   19.2370 O   0  0  0  0  0  0  0  0  0  0  0  0
    8.4981  -17.7312   21.4123 C   0  0  0  0  0  0  0  0  0  0  0  0
    7.4900  -17.1423   20.9878 O   0  0  0  0  0  0  0  0  0  0  0  0
   12.8838  -16.3113   19.1475 O   0  0  0  0  0  0  0  0  0  0  0  0
    8.7147  -17.6959   22.8201 N   0  0  0  0  0  0  0  0  0  0  0  0
    7.8716  -17.1003   23.7924 C   0  0  1  0  0  0  0  0  0  0  0  0
    6.8758  -18.0300   24.4212 C   0  0  0  0  0  0  0  0  0  0  0  0
    7.6181  -19.3429   25.3904 S   0  0  0  0  0  0  0  0  0  0  0  0
    8.6680  -16.3649   24.7940 C   0  0  0  0  0  0  0  0  0  0  0  0
    9.8888  -16.6360   24.9038 O   0  0  0  0  0  0  0  0  0  0  0  0
    6.1460  -12.0827   27.4001 C   0  0  0  0  0  0  0  0  0  0  0  0
    7.1278  -12.8447   26.5399 C   0  0  1  0  0  0  0  0  0  0  0  0
    7.6777  -12.0037   25.4359 C   0  0  0  0  0  0  0  0  0  0  0  0
    8.1978  -13.5324   27.3129 C   0  0  0  0  0  0  0  0  0  0  0  0
    8.9078  -14.6408   26.6199 C   0  0  2  0  0  0  0  0  0  0  0  0
    8.1351  -15.3626   25.6484 N   0  0  0  0  0  0  0  0  0  0  0  0
    9.4567  -15.5591   27.6690 C   0  0  0  0  0  0  0  0  0  0  0  0
   10.2753  -15.0908   28.4902 O   0  0  0  0  0  0  0  0  0  0  0  0
    9.0956  -16.8835   27.7587 O   0  0  0  0  0  0  0  0  0  0  0  0
  2  1  1  6
  2  7  1  0
  3  2  1  0
  3  4  1  0
  4  5  1  0
  5  6  2  0
  5  9  1  0
  7  8  2  0
 10  7  1  0
 10 11  1  0
 11 14  1  0
 11 12  1  1
 13 12  1  0
 14 21  1  0
 15 14  2  0
 17 16  1  1
 18 17  1  0
 19 17  1  0
 20 19  1  1
 21 20  1  0
 22 24  1  0
 22 20  1  0
 23 22  2  0
M  END
$$$$
