ECL.pdb
     RDKit          3D

 24 23  0  0  1  0  0  0  0  0999 V2000
    9.8261  -17.8087   19.2479 N   0  0  0  0  0  0  0  0  0  0  0  0
   10.2877  -17.8996   20.6187 C   0  0  1  0  0  0  0  0  0  0  0  0
   11.6151  -17.1817   20.7175 C   0  0  0  0  0  0  0  0  0  0  0  0
   12.6287  -18.0345   19.9839 C   0  0  0  0  0  0  0  0  0  0  0  0
   13.9896  -17.4749   20.0801 C   0  0  0  0  0  0  0  0  0  0  0  0
   14.9260  -18.1905   20.5126 O   0  0  0  0  0  0  0  0  0  0  0  0
    9.2644  -17.3323   21.5032 C   0  0  0  0  0  0  0  0  0  0  0  0
    8.5441  -16.4080   21.0907 O   0  0  0  0  0  0  0  0  0  0  0  0
   14.2809  -16.1755   19.7080 O   0  0  0  0  0  0  0  0  0  0  0  0
    9.0323  -17.7786   22.8363 N   0  0  0  0  0  0  0  0  0  0  0  0
    8.0875  -17.2522   23.7536 C   0  0  1  0  0  0  0  0  0  0  0  0
    7.1592  -18.2650   24.3567 C   0  0  0  0  0  0  0  0  0  0  0  0
    6.1303  -17.6151   25.6731 S   0  0  0  0  0  0  0  0  0  0  0  0
    8.7570  -16.4221   24.7738 C   0  0  0  0  0  0  0  0  0  0  0  0
    9.9215  -16.7310   25.1264 O   0  0  0  0  0  0  0  0  0  0  0  0
    5.7971  -12.1440   27.0411 C   0  0  0  0  0  0  0  0  0  0  0  0
    6.8138  -12.9387   26.2542 C   0  0  1  0  0  0  0  0  0  0  0  0
    7.3320  -12.1791   25.0781 C   0  0  0  0  0  0  0  0  0  0  0  0
    7.9089  -13.5068   27.0868 C   0  0  0  0  0  0  0  0  0  0  0  0
    8.7771  -14.5240   26.4354 C   0  0  2  0  0  0  0  0  0  0  0  0
    8.1611  -15.2872   25.3867 N   0  0  0  0  0  0  0  0  0  0  0  0
    9.3213  -15.4161   27.5093 C   0  0  0  0  0  0  0  0  0  0  0  0
    9.0297  -16.6314   27.4677 O   0  0  0  0  0  0  0  0  0  0  0  0
   10.1210  -14.9499   28.5270 O   0  0  0  0  0  0  0  0  0  0  0  0
  2  1  1  6
  2  7  1  0
  3  2  1  0
  3  4  1  0
  4  5  1  0
  5  6  2  0
  5  9  1  0
  7  8  2  0
 10  7  1  0
 10 11  1  0
 11 14  1  0
 11 12  1  1
 13 12  1  0
 14 21  1  0
 15 14  2  0
 17 16  1  1
 18 17  1  0
 19 17  1  0
 20 19  1  1
 21 20  1  0
 22 24  1  0
 22 20  1  0
 23 22  2  0
M  END
$$$$
