ECL.pdb
     RDKit          3D

 24 23  0  0  1  0  0  0  0  0999 V2000
    8.6900  -18.9333   19.0229 N   0  0  0  0  0  0  0  0  0  0  0  0
    9.3476  -18.6050   20.2721 C   0  0  1  0  0  0  0  0  0  0  0  0
   10.5373  -17.7245   19.9611 C   0  0  0  0  0  0  0  0  0  0  0  0
   11.5012  -18.5633   19.1489 C   0  0  0  0  0  0  0  0  0  0  0  0
   12.7694  -17.8541   18.8977 C   0  0  0  0  0  0  0  0  0  0  0  0
   12.8286  -16.9909   17.9880 O   0  0  0  0  0  0  0  0  0  0  0  0
    8.3780  -17.9607   21.1644 C   0  0  0  0  0  0  0  0  0  0  0  0
    7.3706  -17.4169   20.6819 O   0  0  0  0  0  0  0  0  0  0  0  0
   13.9128  -18.1043   19.6339 O   0  0  0  0  0  0  0  0  0  0  0  0
    8.5137  -17.9141   22.5820 N   0  0  0  0  0  0  0  0  0  0  0  0
    7.6227  -17.3001   23.4986 C   0  0  1  0  0  0  0  0  0  0  0  0
    6.6205  -18.2257   24.1232 C   0  0  0  0  0  0  0  0  0  0  0  0
    6.9400  -18.5846   25.8504 S   0  0  0  0  0  0  0  0  0  0  0  0
    8.3661  -16.5130   24.5016 C   0  0  0  0  0  0  0  0  0  0  0  0
    9.5521  -16.8359   24.7562 O   0  0  0  0  0  0  0  0  0  0  0  0
    6.2347  -11.5551   26.3754 C   0  0  0  0  0  0  0  0  0  0  0  0
    7.1332  -12.6015   25.7572 C   0  0  1  0  0  0  0  0  0  0  0  0
    8.0903  -12.0109   24.7755 C   0  0  0  0  0  0  0  0  0  0  0  0
    7.8122  -13.4756   26.7523 C   0  0  0  0  0  0  0  0  0  0  0  0
    8.5225  -14.6662   26.2129 C   0  0  2  0  0  0  0  0  0  0  0  0
    7.8187  -15.4051   25.2027 N   0  0  0  0  0  0  0  0  0  0  0  0
    8.8901  -15.5431   27.3710 C   0  0  0  0  0  0  0  0  0  0  0  0
    8.3928  -16.6893   27.4215 O   0  0  0  0  0  0  0  0  0  0  0  0
    9.7455  -15.1355   28.3685 O   0  0  0  0  0  0  0  0  0  0  0  0
  2  1  1  6
  2  7  1  0
  3  2  1  0
  3  4  1  0
  4  5  1  0
  5  6  2  0
  5  9  1  0
  7  8  2  0
 10  7  1  0
 10 11  1  0
 11 14  1  0
 11 12  1  1
 13 12  1  0
 14 21  1  0
 15 14  2  0
 17 16  1  1
 18 17  1  0
 19 17  1  0
 20 19  1  1
 21 20  1  0
 22 24  1  0
 22 20  1  0
 23 22  2  0
M  END
$$$$
