ECL.pdb
     RDKit          3D

 24 23  0  0  1  0  0  0  0  0999 V2000
   10.0862  -19.7980   20.3492 N   0  0  0  0  0  0  0  0  0  0  0  0
   10.0514  -18.3842   20.0321 C   0  0  1  0  0  0  0  0  0  0  0  0
    9.8849  -18.2408   18.5358 C   0  0  0  0  0  0  0  0  0  0  0  0
   11.2685  -18.0206   17.9613 C   0  0  0  0  0  0  0  0  0  0  0  0
   11.2521  -17.9876   16.4872 C   0  0  0  0  0  0  0  0  0  0  0  0
   11.0745  -19.0511   15.8442 O   0  0  0  0  0  0  0  0  0  0  0  0
    8.9658  -17.7538   20.7906 C   0  0  0  0  0  0  0  0  0  0  0  0
    7.8256  -17.7048   20.2998 O   0  0  0  0  0  0  0  0  0  0  0  0
   11.4268  -16.8162   15.7736 O   0  0  0  0  0  0  0  0  0  0  0  0
    9.1313  -17.1793   22.0839 N   0  0  0  0  0  0  0  0  0  0  0  0
    8.1537  -17.1030   23.1084 C   0  0  1  0  0  0  0  0  0  0  0  0
    7.4880  -18.4046   23.4459 C   0  0  0  0  0  0  0  0  0  0  0  0
    6.3761  -18.3101   24.8490 S   0  0  0  0  0  0  0  0  0  0  0  0
    8.6977  -16.4217   24.2993 C   0  0  0  0  0  0  0  0  0  0  0  0
    9.8848  -16.6567   24.6329 O   0  0  0  0  0  0  0  0  0  0  0  0
    5.7834  -12.0904   26.7150 C   0  0  0  0  0  0  0  0  0  0  0  0
    6.8632  -12.8793   26.0106 C   0  0  1  0  0  0  0  0  0  0  0  0
    7.8075  -11.9962   25.2642 C   0  0  0  0  0  0  0  0  0  0  0  0
    7.5718  -13.8481   26.8906 C   0  0  0  0  0  0  0  0  0  0  0  0
    8.5000  -14.7971   26.2191 C   0  0  2  0  0  0  0  0  0  0  0  0
    7.9559  -15.5103   25.0979 N   0  0  0  0  0  0  0  0  0  0  0  0
    9.0234  -15.7390   27.2603 C   0  0  0  0  0  0  0  0  0  0  0  0
    8.7122  -16.9468   27.1703 O   0  0  0  0  0  0  0  0  0  0  0  0
    9.8249  -15.3257   28.2993 O   0  0  0  0  0  0  0  0  0  0  0  0
  2  1  1  6
  2  7  1  0
  3  2  1  0
  3  4  1  0
  4  5  1  0
  5  6  2  0
  5  9  1  0
  7  8  2  0
 10  7  1  0
 10 11  1  0
 11 14  1  0
 11 12  1  1
 13 12  1  0
 14 21  1  0
 15 14  2  0
 17 16  1  1
 18 17  1  0
 19 17  1  0
 20 19  1  1
 21 20  1  0
 22 24  1  0
 22 20  1  0
 23 22  2  0
M  END
$$$$
