ECL.pdb
     RDKit          3D

 24 23  0  0  1  0  0  0  0  0999 V2000
    9.4466  -18.7192   20.6982 N   0  0  0  0  0  0  0  0  0  0  0  0
   10.6349  -17.9693   21.0535 C   0  0  1  0  0  0  0  0  0  0  0  0
   11.5951  -18.0273   19.8865 C   0  0  0  0  0  0  0  0  0  0  0  0
   11.5170  -19.4317   19.3257 C   0  0  0  0  0  0  0  0  0  0  0  0
   12.4155  -19.6126   18.1706 C   0  0  0  0  0  0  0  0  0  0  0  0
   13.5984  -19.1968   18.2329 O   0  0  0  0  0  0  0  0  0  0  0  0
   10.2451  -16.5997   21.4048 C   0  0  0  0  0  0  0  0  0  0  0  0
   11.1252  -15.7535   21.6344 O   0  0  0  0  0  0  0  0  0  0  0  0
   12.0026  -20.2306   17.0047 O   0  0  0  0  0  0  0  0  0  0  0  0
    8.8933  -16.1602   21.5031 N   0  0  0  0  0  0  0  0  0  0  0  0
    8.4488  -14.8534   21.8281 C   0  0  1  0  0  0  0  0  0  0  0  0
    7.0500  -14.5336   21.3895 C   0  0  0  0  0  0  0  0  0  0  0  0
    5.8454  -15.7857   21.8313 S   0  0  0  0  0  0  0  0  0  0  0  0
    8.6711  -14.5671   23.2588 C   0  0  0  0  0  0  0  0  0  0  0  0
    8.9731  -13.3958   23.5946 O   0  0  0  0  0  0  0  0  0  0  0  0
    6.3224  -12.4815   26.5802 C   0  0  0  0  0  0  0  0  0  0  0  0
    7.6158  -13.0925   26.0920 C   0  0  1  0  0  0  0  0  0  0  0  0
    8.8079  -12.3076   26.5294 C   0  0  0  0  0  0  0  0  0  0  0  0
    7.7503  -14.5425   26.3997 C   0  0  0  0  0  0  0  0  0  0  0  0
    8.8216  -15.2771   25.6748 C   0  0  2  0  0  0  0  0  0  0  0  0
    8.5644  -15.5416   24.2871 N   0  0  0  0  0  0  0  0  0  0  0  0
    9.0980  -16.5430   26.4274 C   0  0  0  0  0  0  0  0  0  0  0  0
    9.0055  -17.6263   25.8096 O   0  0  0  0  0  0  0  0  0  0  0  0
    9.4458  -16.5543   27.7584 O   0  0  0  0  0  0  0  0  0  0  0  0
  2  1  1  6
  2  7  1  0
  3  2  1  0
  3  4  1  0
  4  5  1  0
  5  6  2  0
  5  9  1  0
  7  8  2  0
 10  7  1  0
 10 11  1  0
 11 14  1  0
 11 12  1  1
 13 12  1  0
 14 21  1  0
 15 14  2  0
 17 16  1  1
 18 17  1  0
 19 17  1  0
 20 19  1  1
 21 20  1  0
 22 24  1  0
 22 20  1  0
 23 22  2  0
M  END
$$$$
