ECL.pdb
     RDKit          3D

 24 23  0  0  1  0  0  0  0  0999 V2000
   11.4872  -20.2365   20.8393 N   0  0  0  0  0  0  0  0  0  0  0  0
   11.6794  -18.8284   21.1235 C   0  0  1  0  0  0  0  0  0  0  0  0
   11.5604  -18.0647   19.8236 C   0  0  0  0  0  0  0  0  0  0  0  0
   12.7012  -18.5246   18.9406 C   0  0  0  0  0  0  0  0  0  0  0  0
   12.6729  -17.8686   17.6203 C   0  0  0  0  0  0  0  0  0  0  0  0
   13.5896  -18.0969   16.7936 O   0  0  0  0  0  0  0  0  0  0  0  0
   10.6945  -18.4072   22.1255 C   0  0  0  0  0  0  0  0  0  0  0  0
    9.4963  -18.3252   21.8079 O   0  0  0  0  0  0  0  0  0  0  0  0
   11.6631  -16.9996   17.2500 O   0  0  0  0  0  0  0  0  0  0  0  0
   11.0239  -18.0777   23.4719 N   0  0  0  0  0  0  0  0  0  0  0  0
   10.1253  -17.9812   24.5647 C   0  0  1  0  0  0  0  0  0  0  0  0
    9.3093  -19.2135   24.8235 C   0  0  0  0  0  0  0  0  0  0  0  0
   10.2130  -20.5241   25.6476 S   0  0  0  0  0  0  0  0  0  0  0  0
   10.8231  -17.5021   25.7738 C   0  0  0  0  0  0  0  0  0  0  0  0
   12.0163  -17.8486   25.9526 O   0  0  0  0  0  0  0  0  0  0  0  0
    8.8670  -12.9968   28.3262 C   0  0  0  0  0  0  0  0  0  0  0  0
    9.7699  -14.0024   27.6493 C   0  0  1  0  0  0  0  0  0  0  0  0
   10.8008  -13.3445   26.7932 C   0  0  0  0  0  0  0  0  0  0  0  0
   10.3623  -15.0016   28.5799 C   0  0  0  0  0  0  0  0  0  0  0  0
   10.8763  -16.2554   27.9662 C   0  0  2  0  0  0  0  0  0  0  0  0
   10.2240  -16.6677   26.7553 N   0  0  0  0  0  0  0  0  0  0  0  0
   10.8196  -17.3312   29.0077 C   0  0  0  0  0  0  0  0  0  0  0  0
   10.0466  -18.2952   28.8156 O   0  0  0  0  0  0  0  0  0  0  0  0
   11.5793  -17.2952   30.1541 O   0  0  0  0  0  0  0  0  0  0  0  0
  2  1  1  6
  2  7  1  0
  3  2  1  0
  3  4  1  0
  4  5  1  0
  5  6  2  0
  5  9  1  0
  7  8  2  0
 10  7  1  0
 10 11  1  0
 11 14  1  0
 11 12  1  1
 13 12  1  0
 14 21  1  0
 15 14  2  0
 17 16  1  1
 18 17  1  0
 19 17  1  0
 20 19  1  1
 21 20  1  0
 22 24  1  0
 22 20  1  0
 23 22  2  0
M  END
$$$$
