ECL.pdb
     RDKit          3D

 24 23  0  0  1  0  0  0  0  0999 V2000
   10.4744  -17.8415   20.6019 N   0  0  0  0  0  0  0  0  0  0  0  0
    9.8033  -16.6081   20.2430 C   0  0  1  0  0  0  0  0  0  0  0  0
    9.4848  -16.6576   18.7654 C   0  0  0  0  0  0  0  0  0  0  0  0
   10.7815  -16.9711   18.0491 C   0  0  0  0  0  0  0  0  0  0  0  0
   10.5660  -17.2386   16.6151 C   0  0  0  0  0  0  0  0  0  0  0  0
   11.5398  -17.5575   15.8898 O   0  0  0  0  0  0  0  0  0  0  0  0
    8.6084  -16.4564   21.0800 C   0  0  0  0  0  0  0  0  0  0  0  0
    7.8556  -15.4846   20.9003 O   0  0  0  0  0  0  0  0  0  0  0  0
    9.3172  -17.1516   16.0281 O   0  0  0  0  0  0  0  0  0  0  0  0
    8.2409  -17.3689   22.1107 N   0  0  0  0  0  0  0  0  0  0  0  0
    7.0879  -17.2983   22.9332 C   0  0  1  0  0  0  0  0  0  0  0  0
    6.4177  -18.6146   23.1973 C   0  0  0  0  0  0  0  0  0  0  0  0
    5.2386  -18.5721   24.5471 S   0  0  0  0  0  0  0  0  0  0  0  0
    7.3763  -16.5528   24.1738 C   0  0  0  0  0  0  0  0  0  0  0  0
    6.4268  -16.3028   24.9560 O   0  0  0  0  0  0  0  0  0  0  0  0
    6.0756  -12.7519   26.0598 C   0  0  0  0  0  0  0  0  0  0  0  0
    7.4301  -13.2851   25.6528 C   0  0  1  0  0  0  0  0  0  0  0  0
    8.5080  -12.2656   25.8187 C   0  0  0  0  0  0  0  0  0  0  0  0
    7.7802  -14.5856   26.2863 C   0  0  0  0  0  0  0  0  0  0  0  0
    8.9445  -15.3109   25.7108 C   0  0  2  0  0  0  0  0  0  0  0  0
    8.6709  -16.0963   24.5403 N   0  0  0  0  0  0  0  0  0  0  0  0
    9.5454  -16.1478   26.7988 C   0  0  0  0  0  0  0  0  0  0  0  0
    9.9199  -15.5726   27.8441 O   0  0  0  0  0  0  0  0  0  0  0  0
    9.6976  -17.5107   26.6886 O   0  0  0  0  0  0  0  0  0  0  0  0
  2  1  1  1
  2  7  1  0
  3  2  1  0
  3  4  1  0
  4  5  1  0
  5  6  2  0
  5  9  1  0
  7  8  2  0
 10  7  1  0
 10 11  1  0
 11 14  1  0
 11 12  1  1
 13 12  1  0
 14 21  1  0
 15 14  2  0
 17 16  1  1
 18 17  1  0
 19 17  1  0
 20 19  1  1
 21 20  1  0
 22 24  1  0
 22 20  1  0
 23 22  2  0
M  END
$$$$
