ECL.pdb
     RDKit          3D

 24 23  0  0  1  0  0  0  0  0999 V2000
    9.7889  -18.4226   19.1446 N   0  0  0  0  0  0  0  0  0  0  0  0
   10.4814  -18.2528   20.4064 C   0  0  1  0  0  0  0  0  0  0  0  0
   11.7605  -17.4901   20.1431 C   0  0  0  0  0  0  0  0  0  0  0  0
   12.5240  -17.4529   21.4502 C   0  0  0  0  0  0  0  0  0  0  0  0
   13.7362  -16.6186   21.3546 C   0  0  0  0  0  0  0  0  0  0  0  0
   14.8401  -17.1553   21.0912 O   0  0  0  0  0  0  0  0  0  0  0  0
    9.5909  -17.5665   21.3484 C   0  0  0  0  0  0  0  0  0  0  0  0
    8.8045  -16.7021   20.9270 O   0  0  0  0  0  0  0  0  0  0  0  0
   13.7062  -15.2496   21.5458 O   0  0  0  0  0  0  0  0  0  0  0  0
    9.5635  -17.8288   22.7486 N   0  0  0  0  0  0  0  0  0  0  0  0
    8.5893  -17.3792   23.6759 C   0  0  1  0  0  0  0  0  0  0  0  0
    7.7491  -18.4624   24.2859 C   0  0  0  0  0  0  0  0  0  0  0  0
    8.6409  -19.5179   25.4282 S   0  0  0  0  0  0  0  0  0  0  0  0
    9.2014  -16.5003   24.6913 C   0  0  0  0  0  0  0  0  0  0  0  0
   10.4251  -16.6328   24.9379 O   0  0  0  0  0  0  0  0  0  0  0  0
    6.4112  -11.9667   26.1977 C   0  0  0  0  0  0  0  0  0  0  0  0
    7.4144  -12.9596   25.6571 C   0  0  1  0  0  0  0  0  0  0  0  0
    8.0024  -12.5138   24.3593 C   0  0  0  0  0  0  0  0  0  0  0  0
    8.4565  -13.3590   26.6418 C   0  0  0  0  0  0  0  0  0  0  0  0
    9.0575  -14.7076   26.4604 C   0  0  2  0  0  0  0  0  0  0  0  0
    8.4866  -15.5068   25.4129 N   0  0  0  0  0  0  0  0  0  0  0  0
    8.9972  -15.4165   27.7792 C   0  0  0  0  0  0  0  0  0  0  0  0
    9.5271  -14.8643   28.7681 O   0  0  0  0  0  0  0  0  0  0  0  0
    8.3863  -16.6390   27.9375 O   0  0  0  0  0  0  0  0  0  0  0  0
  2  1  1  6
  2  7  1  0
  3  2  1  0
  3  4  1  0
  4  5  1  0
  5  6  2  0
  5  9  1  0
  7  8  2  0
 10  7  1  0
 10 11  1  0
 11 14  1  0
 11 12  1  1
 13 12  1  0
 14 21  1  0
 15 14  2  0
 17 16  1  1
 18 17  1  0
 19 17  1  0
 20 19  1  1
 21 20  1  0
 22 24  1  0
 22 20  1  0
 23 22  2  0
M  END
$$$$
