ECL.pdb
     RDKit          3D

 24 23  0  0  1  0  0  0  0  0999 V2000
   10.1714  -18.2826   19.3881 N   0  0  0  0  0  0  0  0  0  0  0  0
   10.8986  -18.2440   20.6412 C   0  0  1  0  0  0  0  0  0  0  0  0
   12.2096  -17.5284   20.4034 C   0  0  0  0  0  0  0  0  0  0  0  0
   13.1669  -18.5501   19.8271 C   0  0  0  0  0  0  0  0  0  0  0  0
   14.4976  -17.9705   19.5668 C   0  0  0  0  0  0  0  0  0  0  0  0
   15.3730  -17.9967   20.4662 O   0  0  0  0  0  0  0  0  0  0  0  0
   10.0652  -17.5877   21.6542 C   0  0  0  0  0  0  0  0  0  0  0  0
    9.5620  -16.4792   21.4070 O   0  0  0  0  0  0  0  0  0  0  0  0
   14.8255  -17.3910   18.3550 O   0  0  0  0  0  0  0  0  0  0  0  0
    9.7848  -18.1470   22.9343 N   0  0  0  0  0  0  0  0  0  0  0  0
    8.9902  -17.5679   23.9562 C   0  0  1  0  0  0  0  0  0  0  0  0
    7.6552  -18.2199   24.1655 C   0  0  0  0  0  0  0  0  0  0  0  0
    7.5997  -19.9402   23.6645 S   0  0  0  0  0  0  0  0  0  0  0  0
    9.7604  -17.4436   25.2091 C   0  0  0  0  0  0  0  0  0  0  0  0
   10.7782  -18.1627   25.3594 O   0  0  0  0  0  0  0  0  0  0  0  0
    8.7795  -13.0825   28.6174 C   0  0  0  0  0  0  0  0  0  0  0  0
    9.6552  -14.0571   27.8639 C   0  0  1  0  0  0  0  0  0  0  0  0
   11.0283  -13.5177   27.6356 C   0  0  0  0  0  0  0  0  0  0  0  0
    9.6760  -15.4250   28.4502 C   0  0  0  0  0  0  0  0  0  0  0  0
   10.0774  -16.5304   27.5392 C   0  0  2  0  0  0  0  0  0  0  0  0
    9.4187  -16.5548   26.2635 N   0  0  0  0  0  0  0  0  0  0  0  0
    9.8858  -17.8217   28.2747 C   0  0  0  0  0  0  0  0  0  0  0  0
   10.6161  -18.0487   29.2641 O   0  0  0  0  0  0  0  0  0  0  0  0
    8.9457  -18.7550   27.9034 O   0  0  0  0  0  0  0  0  0  0  0  0
  2  1  1  6
  2  7  1  0
  3  2  1  0
  3  4  1  0
  4  5  1  0
  5  6  2  0
  5  9  1  0
  7  8  2  0
 10  7  1  0
 10 11  1  0
 11 14  1  0
 11 12  1  1
 13 12  1  0
 14 21  1  0
 15 14  2  0
 17 16  1  1
 18 17  1  0
 19 17  1  0
 20 19  1  1
 21 20  1  0
 22 24  1  0
 22 20  1  0
 23 22  2  0
M  END
$$$$
