FQI.pdb
     RDKit          3D

 29 29  0  0  1  0  0  0  0  0999 V2000
   25.7212  -14.9739  -20.1003 N   0  0  0  0  0  0  0  0  0  0  0  0
   25.5025  -15.5168  -18.7984 C   0  0  1  0  0  0  0  0  0  0  0  0
   24.9288  -14.5043  -17.8290 C   0  0  0  0  0  0  0  0  0  0  0  0
   25.8370  -13.3536  -17.6150 C   0  0  0  0  0  0  0  0  0  0  0  0
   26.9220  -13.4701  -16.7681 C   0  0  0  0  0  0  0  0  0  0  0  0
   27.7951  -12.4279  -16.5371 C   0  0  0  0  0  0  0  0  0  0  0  0
   27.6078  -11.2104  -17.1580 C   0  0  0  0  0  0  0  0  0  0  0  0
   26.5243  -11.0932  -18.0041 C   0  0  0  0  0  0  0  0  0  0  0  0
   25.6508  -12.1330  -18.2364 C   0  0  0  0  0  0  0  0  0  0  0  0
   24.5968  -16.6939  -18.7928 C   0  0  0  0  0  0  0  0  0  0  0  0
   23.6759  -16.6897  -19.6475 O   0  0  0  0  0  0  0  0  0  0  0  0
   26.0918  -22.5424  -17.2244 N   0  0  0  0  0  0  0  0  0  0  0  0
   24.7376  -22.6659  -17.6795 C   0  0  0  0  0  0  0  0  0  0  0  0
   24.2926  -23.8145  -17.8089 O   0  0  0  0  0  0  0  0  0  0  0  0
   23.9392  -21.4521  -17.9723 C   0  0  0  0  0  0  0  0  0  0  0  0
   24.6556  -20.1691  -17.7294 C   0  0  0  0  0  0  0  0  0  0  0  0
   23.8620  -18.9515  -18.1262 C   0  0  2  0  0  0  0  0  0  0  0  0
   24.7161  -17.7690  -17.9124 N   0  0  0  0  0  0  0  0  0  0  0  0
   22.6461  -18.7073  -17.3545 C   0  0  0  0  0  0  0  0  0  0  0  0
   22.7303  -18.0510  -16.2497 O   0  0  0  0  0  0  0  0  0  0  0  0
   16.9937  -16.8277  -17.7845 C   0  0  0  0  0  0  0  0  0  0  0  0
   17.9478  -17.5898  -16.8894 C   0  0  0  0  0  0  0  0  0  0  0  0
   19.1384  -18.0057  -17.7255 C   0  0  2  0  0  0  0  0  0  0  0  0
   18.7503  -18.8257  -18.9145 C   0  0  0  0  0  0  0  0  0  0  0  0
   20.1819  -18.7162  -16.8919 C   0  0  2  0  0  0  0  0  0  0  0  0
   21.3292  -19.1062  -17.6698 N   0  0  0  0  0  0  0  0  0  0  0  0
   19.5751  -19.9200  -16.2889 C   0  0  0  0  0  0  0  0  0  0  0  0
   19.8666  -21.0475  -16.7461 O   0  0  0  0  0  0  0  0  0  0  0  0
   18.6811  -19.8348  -15.2181 O   0  0  0  0  0  0  0  0  0  0  0  0
  2  3  1  0
  2  1  1  6
  4  3  1  0
  4  9  2  0
  5  4  1  0
  6  5  2  0
  6  7  1  0
  7  8  2  0
  8  9  1  0
 10  2  1  0
 11 10  2  0
 12 13  1  0
 13 15  1  0
 14 13  2  0
 16 15  1  0
 17 16  1  1
 17 18  1  0
 18 10  1  0
 19 17  1  0
 19 20  2  0
 21 22  1  0
 22 23  1  0
 23 25  1  0
 23 24  1  6
 25 26  1  6
 26 19  1  0
 27 25  1  0
 28 27  2  0
 29 27  1  0
M  END
$$$$
