FQI.pdb
     RDKit          3D

 29 29  0  0  1  0  0  0  0  0999 V2000
   24.8649  -16.6022  -17.1208 N   0  0  0  0  0  0  0  0  0  0  0  0
   25.6554  -17.3787  -16.2210 C   0  0  1  0  0  0  0  0  0  0  0  0
   26.8171  -16.6005  -15.6390 C   0  0  0  0  0  0  0  0  0  0  0  0
   27.9659  -16.5238  -16.5714 C   0  0  0  0  0  0  0  0  0  0  0  0
   28.7711  -17.6270  -16.7776 C   0  0  0  0  0  0  0  0  0  0  0  0
   29.8510  -17.6045  -17.6350 C   0  0  0  0  0  0  0  0  0  0  0  0
   30.1673  -16.4546  -18.3283 C   0  0  0  0  0  0  0  0  0  0  0  0
   29.3635  -15.3522  -18.1230 C   0  0  0  0  0  0  0  0  0  0  0  0
   28.2842  -15.3724  -17.2669 C   0  0  0  0  0  0  0  0  0  0  0  0
   24.8814  -17.9329  -15.0810 C   0  0  0  0  0  0  0  0  0  0  0  0
   24.0324  -17.1662  -14.5616 O   0  0  0  0  0  0  0  0  0  0  0  0
   20.6209  -19.4856  -13.7764 N   0  0  0  0  0  0  0  0  0  0  0  0
   20.9722  -20.5491  -12.8810 C   0  0  0  0  0  0  0  0  0  0  0  0
   20.1457  -20.8408  -12.0060 O   0  0  0  0  0  0  0  0  0  0  0  0
   22.2738  -21.2427  -13.0266 C   0  0  0  0  0  0  0  0  0  0  0  0
   23.1792  -20.6473  -14.0485 C   0  0  0  0  0  0  0  0  0  0  0  0
   24.1691  -19.6655  -13.4774 C   0  0  2  0  0  0  0  0  0  0  0  0
   25.0470  -19.2222  -14.5758 N   0  0  0  0  0  0  0  0  0  0  0  0
   25.0595  -20.1899  -12.4451 C   0  0  0  0  0  0  0  0  0  0  0  0
   26.0329  -20.9580  -12.7927 O   0  0  0  0  0  0  0  0  0  0  0  0
   26.7954  -17.7486   -7.8780 C   0  0  0  0  0  0  0  0  0  0  0  0
   26.7044  -18.5409   -9.1650 C   0  0  0  0  0  0  0  0  0  0  0  0
   26.0642  -19.8743   -8.8463 C   0  0  2  0  0  0  0  0  0  0  0  0
   26.8502  -20.6691   -7.8528 C   0  0  0  0  0  0  0  0  0  0  0  0
   25.8013  -20.6785  -10.1004 C   0  0  2  0  0  0  0  0  0  0  0  0
   25.0000  -19.9562  -11.0542 N   0  0  0  0  0  0  0  0  0  0  0  0
   25.1048  -21.9274   -9.7315 C   0  0  0  0  0  0  0  0  0  0  0  0
   25.7756  -22.9590   -9.5053 O   0  0  0  0  0  0  0  0  0  0  0  0
   23.7126  -21.9897   -9.6277 O   0  0  0  0  0  0  0  0  0  0  0  0
  2  3  1  0
  2  1  1  1
  4  3  1  0
  4  9  2  0
  5  4  1  0
  6  5  2  0
  6  7  1  0
  7  8  2  0
  8  9  1  0
 10  2  1  0
 11 10  2  0
 12 13  1  0
 13 15  1  0
 14 13  2  0
 16 15  1  0
 17 16  1  6
 17 18  1  0
 18 10  1  0
 19 17  1  0
 19 20  2  0
 21 22  1  0
 22 23  1  0
 23 25  1  0
 23 24  1  1
 25 26  1  6
 26 19  1  0
 27 25  1  0
 28 27  2  0
 29 27  1  0
M  END
$$$$
