FQI.pdb
     RDKit          3D

 29 29  0  0  1  0  0  0  0  0999 V2000
   26.4422  -18.2226  -17.6769 N   0  0  0  0  0  0  0  0  0  0  0  0
   27.0431  -18.2981  -16.3843 C   0  0  1  0  0  0  0  0  0  0  0  0
   27.5955  -16.9681  -15.9153 C   0  0  0  0  0  0  0  0  0  0  0  0
   28.6189  -16.4269  -16.8397 C   0  0  0  0  0  0  0  0  0  0  0  0
   28.4172  -15.2148  -17.4705 C   0  0  0  0  0  0  0  0  0  0  0  0
   29.3400  -14.6703  -18.3388 C   0  0  0  0  0  0  0  0  0  0  0  0
   30.5186  -15.3338  -18.6101 C   0  0  0  0  0  0  0  0  0  0  0  0
   30.7209  -16.5446  -17.9805 C   0  0  0  0  0  0  0  0  0  0  0  0
   29.8005  -17.0905  -17.1127 C   0  0  0  0  0  0  0  0  0  0  0  0
   26.1185  -18.7872  -15.3299 C   0  0  0  0  0  0  0  0  0  0  0  0
   24.8910  -18.6622  -15.5665 O   0  0  0  0  0  0  0  0  0  0  0  0
   24.6541  -23.9091  -13.1721 N   0  0  0  0  0  0  0  0  0  0  0  0
   23.7162  -23.1832  -13.9780 C   0  0  0  0  0  0  0  0  0  0  0  0
   22.5666  -23.6388  -14.0474 O   0  0  0  0  0  0  0  0  0  0  0  0
   24.1403  -21.9494  -14.6812 C   0  0  0  0  0  0  0  0  0  0  0  0
   25.5458  -21.5373  -14.4107 C   0  0  0  0  0  0  0  0  0  0  0  0
   25.6591  -20.3554  -13.4832 C   0  0  2  0  0  0  0  0  0  0  0  0
   26.5347  -19.3602  -14.1284 N   0  0  0  0  0  0  0  0  0  0  0  0
   26.2602  -20.6269  -12.1799 C   0  0  0  0  0  0  0  0  0  0  0  0
   27.5053  -20.9507  -12.1229 O   0  0  0  0  0  0  0  0  0  0  0  0
   27.4439  -17.7099   -8.2707 C   0  0  0  0  0  0  0  0  0  0  0  0
   27.3223  -18.8051   -9.3089 C   0  0  0  0  0  0  0  0  0  0  0  0
   26.4940  -19.9220   -8.7122 C   0  0  2  0  0  0  0  0  0  0  0  0
   27.0675  -20.4465   -7.4346 C   0  0  0  0  0  0  0  0  0  0  0  0
   26.2692  -21.0395   -9.7068 C   0  0  2  0  0  0  0  0  0  0  0  0
   25.6364  -20.5765  -10.9146 N   0  0  0  0  0  0  0  0  0  0  0  0
   25.4198  -22.0734   -9.0819 C   0  0  0  0  0  0  0  0  0  0  0  0
   24.1757  -21.9871   -9.1826 O   0  0  0  0  0  0  0  0  0  0  0  0
   25.9684  -23.1493   -8.3787 O   0  0  0  0  0  0  0  0  0  0  0  0
  2  3  1  0
  2  1  1  6
  4  3  1  0
  4  9  2  0
  5  4  1  0
  6  5  2  0
  6  7  1  0
  7  8  2  0
  8  9  1  0
 10  2  1  0
 11 10  2  0
 12 13  1  0
 13 15  1  0
 14 13  2  0
 16 15  1  0
 17 16  1  6
 17 18  1  0
 18 10  1  0
 19 17  1  0
 19 20  2  0
 21 22  1  0
 22 23  1  0
 23 25  1  0
 23 24  1  1
 25 26  1  6
 26 19  1  0
 27 25  1  0
 28 27  2  0
 29 27  1  0
M  END
$$$$
