FQI.pdb
     RDKit          3D

 29 29  0  0  1  0  0  0  0  0999 V2000
   21.8959  -10.0374  -16.3602 N   0  0  0  0  0  0  0  0  0  0  0  0
   21.7389   -9.3716  -15.1073 C   0  0  1  0  0  0  0  0  0  0  0  0
   22.8395   -8.3676  -14.8343 C   0  0  0  0  0  0  0  0  0  0  0  0
   24.1892   -8.9671  -14.9518 C   0  0  0  0  0  0  0  0  0  0  0  0
   24.5530  -10.0285  -14.1463 C   0  0  0  0  0  0  0  0  0  0  0  0
   25.7968  -10.6197  -14.2188 C   0  0  0  0  0  0  0  0  0  0  0  0
   26.7366  -10.1593  -15.1176 C   0  0  0  0  0  0  0  0  0  0  0  0
   26.3740   -9.0991  -15.9226 C   0  0  0  0  0  0  0  0  0  0  0  0
   25.1320   -8.5070  -15.8519 C   0  0  0  0  0  0  0  0  0  0  0  0
   20.4455   -8.6531  -14.9773 C   0  0  0  0  0  0  0  0  0  0  0  0
   19.7692   -8.5329  -16.0293 O   0  0  0  0  0  0  0  0  0  0  0  0
   16.9106   -8.1940   -9.7961 N   0  0  0  0  0  0  0  0  0  0  0  0
   16.1109   -7.5518  -10.7982 C   0  0  0  0  0  0  0  0  0  0  0  0
   14.9644   -7.2171  -10.4705 O   0  0  0  0  0  0  0  0  0  0  0  0
   16.6651   -7.3177  -12.1527 C   0  0  0  0  0  0  0  0  0  0  0  0
   18.0314   -7.8716  -12.3644 C   0  0  0  0  0  0  0  0  0  0  0  0
   18.5771   -7.6175  -13.7455 C   0  0  2  0  0  0  0  0  0  0  0  0
   19.9616   -8.1227  -13.7817 N   0  0  0  0  0  0  0  0  0  0  0  0
   18.6558   -6.2158  -14.1488 C   0  0  0  0  0  0  0  0  0  0  0  0
   19.6122   -5.4872  -13.6877 O   0  0  0  0  0  0  0  0  0  0  0  0
   17.5794   -4.1194  -19.0896 C   0  0  0  0  0  0  0  0  0  0  0  0
   18.2275   -4.4306  -17.7571 C   0  0  0  0  0  0  0  0  0  0  0  0
   17.4179   -3.7490  -16.6755 C   0  0  2  0  0  0  0  0  0  0  0  0
   17.3525   -2.2654  -16.8521 C   0  0  0  0  0  0  0  0  0  0  0  0
   17.9191   -4.1109  -15.2948 C   0  0  2  0  0  0  0  0  0  0  0  0
   17.7900   -5.5182  -15.0186 N   0  0  0  0  0  0  0  0  0  0  0  0
   17.1496   -3.3488  -14.2908 C   0  0  0  0  0  0  0  0  0  0  0  0
   17.5388   -2.2073  -13.9579 O   0  0  0  0  0  0  0  0  0  0  0  0
   15.9948   -3.8686  -13.6999 O   0  0  0  0  0  0  0  0  0  0  0  0
  2  3  1  0
  2  1  1  6
  4  3  1  0
  4  9  2  0
  5  4  1  0
  6  5  2  0
  6  7  1  0
  7  8  2  0
  8  9  1  0
 10  2  1  0
 11 10  2  0
 12 13  1  0
 13 15  1  0
 14 13  2  0
 16 15  1  0
 17 16  1  1
 17 18  1  0
 18 10  1  0
 19 17  1  0
 19 20  2  0
 21 22  1  0
 22 23  1  0
 23 25  1  0
 23 24  1  6
 25 26  1  1
 26 19  1  0
 27 25  1  0
 28 27  2  0
 29 27  1  0
M  END
$$$$
