FQI.pdb
     RDKit          3D

 29 29  0  0  1  0  0  0  0  0999 V2000
   24.8745  -24.3717  -16.0438 N   0  0  0  0  0  0  0  0  0  0  0  0
   23.4980  -24.1409  -16.3429 C   0  0  1  0  0  0  0  0  0  0  0  0
   22.8298  -25.3358  -16.9907 C   0  0  0  0  0  0  0  0  0  0  0  0
   23.4533  -25.6953  -18.2856 C   0  0  0  0  0  0  0  0  0  0  0  0
   23.2567  -24.9009  -19.3983 C   0  0  0  0  0  0  0  0  0  0  0  0
   23.8158  -25.1939  -20.6244 C   0  0  0  0  0  0  0  0  0  0  0  0
   24.6060  -26.3137  -20.7809 C   0  0  0  0  0  0  0  0  0  0  0  0
   24.8030  -27.1078  -19.6700 C   0  0  0  0  0  0  0  0  0  0  0  0
   24.2454  -26.8171  -18.4441 C   0  0  0  0  0  0  0  0  0  0  0  0
   22.6876  -23.7744  -15.1535 C   0  0  0  0  0  0  0  0  0  0  0  0
   23.1844  -24.0574  -14.0348 O   0  0  0  0  0  0  0  0  0  0  0  0
   19.4249  -18.7110  -14.3011 N   0  0  0  0  0  0  0  0  0  0  0  0
   20.8111  -18.9673  -14.0387 C   0  0  0  0  0  0  0  0  0  0  0  0
   21.5514  -17.9810  -13.9244 O   0  0  0  0  0  0  0  0  0  0  0  0
   21.2983  -20.3618  -13.9176 C   0  0  0  0  0  0  0  0  0  0  0  0
   20.2428  -21.4002  -14.0796 C   0  0  0  0  0  0  0  0  0  0  0  0
   20.7604  -22.8097  -13.9552 C   0  0  2  0  0  0  0  0  0  0  0  0
   21.4415  -23.1513  -15.2173 N   0  0  0  0  0  0  0  0  0  0  0  0
   19.7467  -23.8429  -13.7593 C   0  0  0  0  0  0  0  0  0  0  0  0
   19.1994  -24.3831  -14.7923 O   0  0  0  0  0  0  0  0  0  0  0  0
   19.8329  -28.0893  -10.4829 C   0  0  0  0  0  0  0  0  0  0  0  0
   19.6160  -27.1669  -11.6637 C   0  0  0  0  0  0  0  0  0  0  0  0
   18.3831  -26.3353  -11.3844 C   0  0  2  0  0  0  0  0  0  0  0  0
   17.1561  -27.1688  -11.1932 C   0  0  0  0  0  0  0  0  0  0  0  0
   18.1668  -25.2859  -12.4524 C   0  0  2  0  0  0  0  0  0  0  0  0
   19.2649  -24.3583  -12.5366 N   0  0  0  0  0  0  0  0  0  0  0  0
   16.9277  -24.5418  -12.1490 C   0  0  0  0  0  0  0  0  0  0  0  0
   15.8666  -24.8547  -12.7333 O   0  0  0  0  0  0  0  0  0  0  0  0
   16.9071  -23.4943  -11.2243 O   0  0  0  0  0  0  0  0  0  0  0  0
  2  3  1  0
  2  1  1  1
  4  3  1  0
  4  9  2  0
  5  4  1  0
  6  5  2  0
  6  7  1  0
  7  8  2  0
  8  9  1  0
 10  2  1  0
 11 10  2  0
 12 13  1  0
 13 15  1  0
 14 13  2  0
 16 15  1  0
 17 16  1  6
 17 18  1  0
 18 10  1  0
 19 17  1  0
 19 20  2  0
 21 22  1  0
 22 23  1  0
 23 25  1  0
 23 24  1  6
 25 26  1  1
 26 19  1  0
 27 25  1  0
 28 27  2  0
 29 27  1  0
M  END
$$$$
