FQI.pdb
     RDKit          3D

 29 29  0  0  1  0  0  0  0  0999 V2000
   15.6860  -15.6369    5.2613 N   0  0  0  0  0  0  0  0  0  0  0  0
   16.7809  -16.4730    4.8877 C   0  0  1  0  0  0  0  0  0  0  0  0
   18.1265  -15.8231    5.1346 C   0  0  0  0  0  0  0  0  0  0  0  0
   18.3613  -14.6613    4.2458 C   0  0  0  0  0  0  0  0  0  0  0  0
   18.5229  -14.8450    2.8864 C   0  0  0  0  0  0  0  0  0  0  0  0
   18.7435  -13.7956    2.0193 C   0  0  0  0  0  0  0  0  0  0  0  0
   18.8109  -12.5018    2.4931 C   0  0  0  0  0  0  0  0  0  0  0  0
   18.6496  -12.3173    3.8508 C   0  0  0  0  0  0  0  0  0  0  0  0
   18.4291  -13.3642    4.7189 C   0  0  0  0  0  0  0  0  0  0  0  0
   16.7899  -17.7834    5.5867 C   0  0  0  0  0  0  0  0  0  0  0  0
   16.3679  -17.7841    6.7701 O   0  0  0  0  0  0  0  0  0  0  0  0
   17.0035  -23.5419    3.1846 N   0  0  0  0  0  0  0  0  0  0  0  0
   15.8350  -22.7632    3.4747 C   0  0  0  0  0  0  0  0  0  0  0  0
   14.7738  -23.1287    2.9509 O   0  0  0  0  0  0  0  0  0  0  0  0
   15.9321  -21.5815    4.3639 C   0  0  0  0  0  0  0  0  0  0  0  0
   17.2733  -21.3819    4.9802 C   0  0  0  0  0  0  0  0  0  0  0  0
   17.3535  -20.1675    5.8683 C   0  0  2  0  0  0  0  0  0  0  0  0
   17.2304  -18.9747    5.0107 N   0  0  0  0  0  0  0  0  0  0  0  0
   18.6047  -20.0002    6.6031 C   0  0  0  0  0  0  0  0  0  0  0  0
   19.5965  -19.4203    6.0215 O   0  0  0  0  0  0  0  0  0  0  0  0
   21.7675  -17.7272   10.8453 C   0  0  0  0  0  0  0  0  0  0  0  0
   21.6405  -19.0719   10.1612 C   0  0  0  0  0  0  0  0  0  0  0  0
   20.2915  -19.1205    9.4774 C   0  0  2  0  0  0  0  0  0  0  0  0
   19.1529  -19.1258   10.4471 C   0  0  0  0  0  0  0  0  0  0  0  0
   20.1957  -20.2876    8.5196 C   0  0  2  0  0  0  0  0  0  0  0  0
   18.8885  -20.4012    7.9265 N   0  0  0  0  0  0  0  0  0  0  0  0
   20.5051  -21.5333    9.2499 C   0  0  0  0  0  0  0  0  0  0  0  0
   21.6874  -21.7703    9.5836 O   0  0  0  0  0  0  0  0  0  0  0  0
   19.5108  -22.4583    9.5798 O   0  0  0  0  0  0  0  0  0  0  0  0
  2  3  1  0
  2  1  1  1
  4  3  1  0
  4  9  2  0
  5  4  1  0
  6  5  2  0
  6  7  1  0
  7  8  2  0
  8  9  1  0
 10  2  1  0
 11 10  2  0
 12 13  1  0
 13 15  1  0
 14 13  2  0
 16 15  1  0
 17 16  1  6
 17 18  1  0
 18 10  1  0
 19 17  1  0
 19 20  2  0
 21 22  1  0
 22 23  1  0
 23 25  1  0
 23 24  1  1
 25 26  1  1
 26 19  1  0
 27 25  1  0
 28 27  2  0
 29 27  1  0
M  END
$$$$
