FQI.pdb
     RDKit          3D

 29 29  0  0  1  0  0  0  0  0999 V2000
   25.9940  -16.5992  -19.9390 N   0  0  0  0  0  0  0  0  0  0  0  0
   26.5627  -17.0318  -18.7033 C   0  0  1  0  0  0  0  0  0  0  0  0
   26.4115  -16.0081  -17.5973 C   0  0  0  0  0  0  0  0  0  0  0  0
   27.0852  -14.7285  -17.9197 C   0  0  0  0  0  0  0  0  0  0  0  0
   28.4593  -14.6778  -18.0501 C   0  0  0  0  0  0  0  0  0  0  0  0
   29.1313  -13.5112  -18.3491 C   0  0  0  0  0  0  0  0  0  0  0  0
   28.4368  -12.3333  -18.5312 C   0  0  0  0  0  0  0  0  0  0  0  0
   27.0642  -12.3831  -18.4011 C   0  0  0  0  0  0  0  0  0  0  0  0
   26.3907  -13.5474  -18.1024 C   0  0  0  0  0  0  0  0  0  0  0  0
   25.9903  -18.3078  -18.2033 C   0  0  0  0  0  0  0  0  0  0  0  0
   24.7819  -18.5183  -18.4752 O   0  0  0  0  0  0  0  0  0  0  0  0
   28.9584  -23.7194  -17.0012 N   0  0  0  0  0  0  0  0  0  0  0  0
   27.6139  -23.9922  -16.5844 C   0  0  0  0  0  0  0  0  0  0  0  0
   27.3721  -25.1407  -16.1888 O   0  0  0  0  0  0  0  0  0  0  0  0
   26.5882  -22.9239  -16.6398 C   0  0  0  0  0  0  0  0  0  0  0  0
   27.1148  -21.5819  -17.0144 C   0  0  0  0  0  0  0  0  0  0  0  0
   26.0466  -20.5253  -17.1260 C   0  0  2  0  0  0  0  0  0  0  0  0
   26.7073  -19.2530  -17.4700 N   0  0  0  0  0  0  0  0  0  0  0  0
   25.2862  -20.2605  -15.9074 C   0  0  0  0  0  0  0  0  0  0  0  0
   25.8437  -19.5937  -14.9572 O   0  0  0  0  0  0  0  0  0  0  0  0
   20.8542  -17.7267  -15.7241 C   0  0  0  0  0  0  0  0  0  0  0  0
   22.2125  -18.2847  -15.3554 C   0  0  0  0  0  0  0  0  0  0  0  0
   21.9951  -19.5829  -14.6090 C   0  0  2  0  0  0  0  0  0  0  0  0
   21.2534  -19.3926  -13.3244 C   0  0  0  0  0  0  0  0  0  0  0  0
   23.2977  -20.3178  -14.3812 C   0  0  2  0  0  0  0  0  0  0  0  0
   23.9608  -20.6491  -15.6157 N   0  0  0  0  0  0  0  0  0  0  0  0
   23.0221  -21.5604  -13.6321 C   0  0  0  0  0  0  0  0  0  0  0  0
   22.9084  -22.6391  -14.2556 O   0  0  0  0  0  0  0  0  0  0  0  0
   22.8843  -21.5652  -12.2415 O   0  0  0  0  0  0  0  0  0  0  0  0
  2  3  1  0
  2  1  1  6
  4  3  1  0
  4  9  2  0
  5  4  1  0
  6  5  2  0
  6  7  1  0
  7  8  2  0
  8  9  1  0
 10  2  1  0
 11 10  2  0
 12 13  1  0
 13 15  1  0
 14 13  2  0
 16 15  1  0
 17 16  1  1
 17 18  1  0
 18 10  1  0
 19 17  1  0
 19 20  2  0
 21 22  1  0
 22 23  1  0
 23 25  1  0
 23 24  1  1
 25 26  1  6
 26 19  1  0
 27 25  1  0
 28 27  2  0
 29 27  1  0
M  END
$$$$
