FQI.pdb
     RDKit          3D

 29 29  0  0  1  0  0  0  0  0999 V2000
   26.7918  -18.1928   -8.1611 N   0  0  0  0  0  0  0  0  0  0  0  0
   26.9609  -19.5545   -8.5545 C   0  0  1  0  0  0  0  0  0  0  0  0
   26.7533  -20.5258   -7.4111 C   0  0  0  0  0  0  0  0  0  0  0  0
   27.6606  -20.2550   -6.2716 C   0  0  0  0  0  0  0  0  0  0  0  0
   28.9944  -20.6064   -6.3438 C   0  0  0  0  0  0  0  0  0  0  0  0
   29.8772  -20.3749   -5.3100 C   0  0  0  0  0  0  0  0  0  0  0  0
   29.4461  -19.7722   -4.1464 C   0  0  0  0  0  0  0  0  0  0  0  0
   28.1139  -19.4209   -4.0734 C   0  0  0  0  0  0  0  0  0  0  0  0
   27.2302  -19.6512   -5.1050 C   0  0  0  0  0  0  0  0  0  0  0  0
   26.0536  -19.9693   -9.6548 C   0  0  0  0  0  0  0  0  0  0  0  0
   24.8647  -19.5712   -9.5738 O   0  0  0  0  0  0  0  0  0  0  0  0
   27.2534  -22.8673  -14.9177 N   0  0  0  0  0  0  0  0  0  0  0  0
   26.7406  -21.6204  -15.4059 C   0  0  0  0  0  0  0  0  0  0  0  0
   26.4289  -21.5732  -16.6036 O   0  0  0  0  0  0  0  0  0  0  0  0
   26.6054  -20.4634  -14.4895 C   0  0  0  0  0  0  0  0  0  0  0  0
   27.0022  -20.7423  -13.0813 C   0  0  0  0  0  0  0  0  0  0  0  0
   25.9279  -20.4157  -12.0767 C   0  0  2  0  0  0  0  0  0  0  0  0
   26.4459  -20.7544  -10.7387 N   0  0  0  0  0  0  0  0  0  0  0  0
   24.6791  -21.1598  -12.2186 C   0  0  0  0  0  0  0  0  0  0  0  0
   24.6095  -22.3565  -11.7481 O   0  0  0  0  0  0  0  0  0  0  0  0
   19.9120  -19.4700  -10.7186 C   0  0  0  0  0  0  0  0  0  0  0  0
   21.1401  -20.3032  -11.0182 C   0  0  0  0  0  0  0  0  0  0  0  0
   21.0554  -20.7552  -12.4598 C   0  0  2  0  0  0  0  0  0  0  0  0
   19.8098  -21.5306  -12.7492 C   0  0  0  0  0  0  0  0  0  0  0  0
   22.2871  -21.5308  -12.8722 C   0  0  2  0  0  0  0  0  0  0  0  0
   23.4803  -20.7261  -12.8248 N   0  0  0  0  0  0  0  0  0  0  0  0
   22.0980  -22.0341  -14.2477 C   0  0  0  0  0  0  0  0  0  0  0  0
   21.4276  -23.0741  -14.4327 O   0  0  0  0  0  0  0  0  0  0  0  0
   22.6488  -21.3791  -15.3524 O   0  0  0  0  0  0  0  0  0  0  0  0
  2  3  1  0
  2  1  1  1
  4  3  1  0
  4  9  2  0
  5  4  1  0
  6  5  2  0
  6  7  1  0
  7  8  2  0
  8  9  1  0
 10  2  1  0
 11 10  2  0
 12 13  1  0
 13 15  1  0
 14 13  2  0
 16 15  1  0
 17 16  1  6
 17 18  1  0
 18 10  1  0
 19 17  1  0
 19 20  2  0
 21 22  1  0
 22 23  1  0
 23 25  1  0
 23 24  1  1
 25 26  1  6
 26 19  1  0
 27 25  1  0
 28 27  2  0
 29 27  1  0
M  END
$$$$
