FQI.pdb
     RDKit          3D

 29 29  0  0  1  0  0  0  0  0999 V2000
   22.4809  -18.2966  -18.3615 N   0  0  0  0  0  0  0  0  0  0  0  0
   23.0095  -17.7149  -17.1699 C   0  0  1  0  0  0  0  0  0  0  0  0
   21.9383  -17.1079  -16.2879 C   0  0  0  0  0  0  0  0  0  0  0  0
   21.2630  -15.9583  -16.9338 C   0  0  0  0  0  0  0  0  0  0  0  0
   21.9379  -14.7673  -17.1184 C   0  0  0  0  0  0  0  0  0  0  0  0
   21.3524  -13.6700  -17.7142 C   0  0  0  0  0  0  0  0  0  0  0  0
   20.0462  -13.7291  -18.1538 C   0  0  0  0  0  0  0  0  0  0  0  0
   19.3713  -14.9183  -17.9699 C   0  0  0  0  0  0  0  0  0  0  0  0
   19.9542  -16.0158  -17.3749 C   0  0  0  0  0  0  0  0  0  0  0  0
   23.7771  -18.6731  -16.3342 C   0  0  0  0  0  0  0  0  0  0  0  0
   23.2845  -19.8225  -16.2131 O   0  0  0  0  0  0  0  0  0  0  0  0
   29.9443  -19.1414  -15.7758 N   0  0  0  0  0  0  0  0  0  0  0  0
   29.4897  -20.0514  -14.7652 C   0  0  0  0  0  0  0  0  0  0  0  0
   30.3553  -20.7160  -14.1794 O   0  0  0  0  0  0  0  0  0  0  0  0
   28.0429  -20.1646  -14.4645 C   0  0  0  0  0  0  0  0  0  0  0  0
   27.1721  -19.2703  -15.2772 C   0  0  0  0  0  0  0  0  0  0  0  0
   25.7017  -19.4481  -15.0014 C   0  0  2  0  0  0  0  0  0  0  0  0
   24.9800  -18.3676  -15.6978 N   0  0  0  0  0  0  0  0  0  0  0  0
   25.3029  -19.3520  -13.5995 C   0  0  0  0  0  0  0  0  0  0  0  0
   25.1227  -18.1870  -13.0811 O   0  0  0  0  0  0  0  0  0  0  0  0
   21.3805  -20.3645   -9.4727 C   0  0  0  0  0  0  0  0  0  0  0  0
   22.8721  -20.1521   -9.6220 C   0  0  0  0  0  0  0  0  0  0  0  0
   23.2360  -20.4081  -11.0683 C   0  0  2  0  0  0  0  0  0  0  0  0
   22.7961  -21.7560  -11.5441 C   0  0  0  0  0  0  0  0  0  0  0  0
   24.7141  -20.2001  -11.3146 C   0  0  2  0  0  0  0  0  0  0  0  0
   25.0726  -20.4097  -12.6934 N   0  0  0  0  0  0  0  0  0  0  0  0
   25.4777  -21.1392  -10.4686 C   0  0  0  0  0  0  0  0  0  0  0  0
   25.9008  -22.2065  -10.9658 O   0  0  0  0  0  0  0  0  0  0  0  0
   25.7419  -20.8685   -9.1233 O   0  0  0  0  0  0  0  0  0  0  0  0
  2  3  1  0
  2  1  1  6
  4  3  1  0
  4  9  2  0
  5  4  1  0
  6  5  2  0
  6  7  1  0
  7  8  2  0
  8  9  1  0
 10  2  1  0
 11 10  2  0
 12 13  1  0
 13 15  1  0
 14 13  2  0
 16 15  1  0
 17 16  1  1
 17 18  1  0
 18 10  1  0
 19 17  1  0
 19 20  2  0
 21 22  1  0
 22 23  1  0
 23 25  1  0
 23 24  1  1
 25 26  1  6
 26 19  1  0
 27 25  1  0
 28 27  2  0
 29 27  1  0
M  END
$$$$
