FQI.pdb
     RDKit          3D

 29 29  0  0  1  0  0  0  0  0999 V2000
   27.9103  -19.5786  -17.1659 N   0  0  0  0  0  0  0  0  0  0  0  0
   27.4261  -18.7545  -16.1057 C   0  0  1  0  0  0  0  0  0  0  0  0
   26.5038  -17.6555  -16.5911 C   0  0  0  0  0  0  0  0  0  0  0  0
   27.2021  -16.6773  -17.4574 C   0  0  0  0  0  0  0  0  0  0  0  0
   28.3382  -16.0336  -17.0069 C   0  0  0  0  0  0  0  0  0  0  0  0
   29.0224  -15.1159  -17.7760 C   0  0  0  0  0  0  0  0  0  0  0  0
   28.5838  -14.8056  -19.0466 C   0  0  0  0  0  0  0  0  0  0  0  0
   27.4491  -15.4481  -19.4973 C   0  0  0  0  0  0  0  0  0  0  0  0
   26.7640  -16.3652  -18.7308 C   0  0  0  0  0  0  0  0  0  0  0  0
   26.6964  -19.5098  -15.0555 C   0  0  0  0  0  0  0  0  0  0  0  0
   26.1010  -20.5499  -15.4323 O   0  0  0  0  0  0  0  0  0  0  0  0
   26.5200  -22.3035  -10.8338 N   0  0  0  0  0  0  0  0  0  0  0  0
   25.4892  -21.5898  -10.1380 C   0  0  0  0  0  0  0  0  0  0  0  0
   24.7598  -22.2507   -9.3862 O   0  0  0  0  0  0  0  0  0  0  0  0
   25.3342  -20.1292  -10.3358 C   0  0  0  0  0  0  0  0  0  0  0  0
   26.2243  -19.5503  -11.3803 C   0  0  0  0  0  0  0  0  0  0  0  0
   25.8498  -19.9544  -12.7826 C   0  0  2  0  0  0  0  0  0  0  0  0
   26.6425  -19.1315  -13.7142 N   0  0  0  0  0  0  0  0  0  0  0  0
   24.4534  -19.7395  -13.1533 C   0  0  0  0  0  0  0  0  0  0  0  0
   24.0330  -18.5349  -13.3279 O   0  0  0  0  0  0  0  0  0  0  0  0
   22.0547  -20.7702  -17.4186 C   0  0  0  0  0  0  0  0  0  0  0  0
   22.4786  -20.1838  -16.0887 C   0  0  0  0  0  0  0  0  0  0  0  0
   21.6414  -20.8307  -15.0068 C   0  0  2  0  0  0  0  0  0  0  0  0
   20.1752  -20.6099  -15.2023 C   0  0  0  0  0  0  0  0  0  0  0  0
   22.0787  -20.3897  -13.6274 C   0  0  2  0  0  0  0  0  0  0  0  0
   23.4556  -20.7163  -13.3607 N   0  0  0  0  0  0  0  0  0  0  0  0
   21.2222  -21.0475  -12.6201 C   0  0  0  0  0  0  0  0  0  0  0  0
   21.4350  -22.2439  -12.3223 O   0  0  0  0  0  0  0  0  0  0  0  0
   20.1768  -20.3688  -11.9880 O   0  0  0  0  0  0  0  0  0  0  0  0
  2  3  1  0
  2  1  1  6
  4  3  1  0
  4  9  2  0
  5  4  1  0
  6  5  2  0
  6  7  1  0
  7  8  2  0
  8  9  1  0
 10  2  1  0
 11 10  2  0
 12 13  1  0
 13 15  1  0
 14 13  2  0
 16 15  1  0
 17 16  1  1
 17 18  1  0
 18 10  1  0
 19 17  1  0
 19 20  2  0
 21 22  1  0
 22 23  1  0
 23 25  1  0
 23 24  1  6
 25 26  1  1
 26 19  1  0
 27 25  1  0
 28 27  2  0
 29 27  1  0
M  END
$$$$
