FQI.pdb
     RDKit          3D

 29 29  0  0  1  0  0  0  0  0999 V2000
   28.3325  -23.0014  -17.0462 N   0  0  0  0  0  0  0  0  0  0  0  0
   27.1379  -22.2605  -17.2942 C   0  0  1  0  0  0  0  0  0  0  0  0
   26.3313  -22.8169  -18.4490 C   0  0  0  0  0  0  0  0  0  0  0  0
   27.1235  -22.9040  -19.6978 C   0  0  0  0  0  0  0  0  0  0  0  0
   27.3855  -21.7676  -20.4378 C   0  0  0  0  0  0  0  0  0  0  0  0
   28.1178  -21.7981  -21.6060 C   0  0  0  0  0  0  0  0  0  0  0  0
   28.6223  -22.9905  -22.0819 C   0  0  0  0  0  0  0  0  0  0  0  0
   28.3612  -24.1262  -21.3433 C   0  0  0  0  0  0  0  0  0  0  0  0
   27.6298  -24.0981  -20.1761 C   0  0  0  0  0  0  0  0  0  0  0  0
   26.2324  -22.1878  -16.1192 C   0  0  0  0  0  0  0  0  0  0  0  0
   26.7495  -22.4436  -15.0032 O   0  0  0  0  0  0  0  0  0  0  0  0
   24.3029  -17.5304  -17.7763 N   0  0  0  0  0  0  0  0  0  0  0  0
   24.3221  -17.1930  -16.3828 C   0  0  0  0  0  0  0  0  0  0  0  0
   23.9353  -16.0571  -16.0761 O   0  0  0  0  0  0  0  0  0  0  0  0
   24.7910  -18.1838  -15.3853 C   0  0  0  0  0  0  0  0  0  0  0  0
   25.2199  -19.4871  -15.9650 C   0  0  0  0  0  0  0  0  0  0  0  0
   24.4061  -20.6588  -15.4806 C   0  0  2  0  0  0  0  0  0  0  0  0
   24.8789  -21.8596  -16.1934 N   0  0  0  0  0  0  0  0  0  0  0  0
   22.9703  -20.5841  -15.7385 C   0  0  0  0  0  0  0  0  0  0  0  0
   22.5642  -20.3128  -16.9300 O   0  0  0  0  0  0  0  0  0  0  0  0
   19.1011  -24.6899  -15.6878 C   0  0  0  0  0  0  0  0  0  0  0  0
   19.0812  -23.1816  -15.5567 C   0  0  0  0  0  0  0  0  0  0  0  0
   20.4658  -22.7323  -15.1436 C   0  0  2  0  0  0  0  0  0  0  0  0
   20.8624  -23.2488  -13.7973 C   0  0  0  0  0  0  0  0  0  0  0  0
   20.6050  -21.2274  -15.2115 C   0  0  2  0  0  0  0  0  0  0  0  0
   21.9171  -20.7822  -14.8197 N   0  0  0  0  0  0  0  0  0  0  0  0
   19.6001  -20.6127  -14.3207 C   0  0  0  0  0  0  0  0  0  0  0  0
   18.3846  -20.7389  -14.5891 O   0  0  0  0  0  0  0  0  0  0  0  0
   19.9700  -19.8914  -13.1823 O   0  0  0  0  0  0  0  0  0  0  0  0
  2  3  1  0
  2  1  1  1
  4  3  1  0
  4  9  2  0
  5  4  1  0
  6  5  2  0
  6  7  1  0
  7  8  2  0
  8  9  1  0
 10  2  1  0
 11 10  2  0
 12 13  1  0
 13 15  1  0
 14 13  2  0
 16 15  1  0
 17 16  1  6
 17 18  1  0
 18 10  1  0
 19 17  1  0
 19 20  2  0
 21 22  1  0
 22 23  1  0
 23 25  1  0
 23 24  1  1
 25 26  1  1
 26 19  1  0
 27 25  1  0
 28 27  2  0
 29 27  1  0
M  END
$$$$
