FQI.pdb
     RDKit          3D

 29 29  0  0  1  0  0  0  0  0999 V2000
   27.2242  -20.7351  -18.8410 N   0  0  0  0  0  0  0  0  0  0  0  0
   26.0502  -21.2903  -18.2485 C   0  0  1  0  0  0  0  0  0  0  0  0
   26.2348  -22.7308  -17.8188 C   0  0  0  0  0  0  0  0  0  0  0  0
   26.0293  -23.6816  -18.9362 C   0  0  0  0  0  0  0  0  0  0  0  0
   27.1003  -24.0989  -19.7022 C   0  0  0  0  0  0  0  0  0  0  0  0
   26.9592  -24.9821  -20.7520 C   0  0  0  0  0  0  0  0  0  0  0  0
   25.7172  -25.4870  -21.0765 C   0  0  0  0  0  0  0  0  0  0  0  0
   24.6469  -25.0707  -20.3120 C   0  0  0  0  0  0  0  0  0  0  0  0
   24.7854  -24.1885  -19.2628 C   0  0  0  0  0  0  0  0  0  0  0  0
   25.5723  -20.5348  -17.0624 C   0  0  0  0  0  0  0  0  0  0  0  0
   26.3829  -19.7150  -16.5630 O   0  0  0  0  0  0  0  0  0  0  0  0
   20.2271  -17.8056  -16.8044 N   0  0  0  0  0  0  0  0  0  0  0  0
   20.7160  -17.5199  -15.4871 C   0  0  0  0  0  0  0  0  0  0  0  0
   20.0491  -16.7342  -14.8001 O   0  0  0  0  0  0  0  0  0  0  0  0
   21.9660  -18.1539  -15.0053 C   0  0  0  0  0  0  0  0  0  0  0  0
   22.6596  -18.9979  -16.0178 C   0  0  0  0  0  0  0  0  0  0  0  0
   23.8707  -19.7133  -15.4781 C   0  0  2  0  0  0  0  0  0  0  0  0
   24.3075  -20.6872  -16.4949 N   0  0  0  0  0  0  0  0  0  0  0  0
   23.6599  -20.4840  -14.2554 C   0  0  0  0  0  0  0  0  0  0  0  0
   23.0136  -21.5958  -14.3229 O   0  0  0  0  0  0  0  0  0  0  0  0
   26.8550  -20.3741   -9.6743 C   0  0  0  0  0  0  0  0  0  0  0  0
   26.0637  -20.8774  -10.8630 C   0  0  0  0  0  0  0  0  0  0  0  0
   24.5987  -20.6128  -10.5923 C   0  0  2  0  0  0  0  0  0  0  0  0
   24.1032  -21.3105   -9.3658 C   0  0  0  0  0  0  0  0  0  0  0  0
   23.7421  -20.9493  -11.7930 C   0  0  2  0  0  0  0  0  0  0  0  0
   24.0910  -20.1655  -12.9495 N   0  0  0  0  0  0  0  0  0  0  0  0
   22.3254  -20.7063  -11.4540 C   0  0  0  0  0  0  0  0  0  0  0  0
   21.8864  -19.5348  -11.4595 O   0  0  0  0  0  0  0  0  0  0  0  0
   21.4582  -21.7520  -11.1262 O   0  0  0  0  0  0  0  0  0  0  0  0
  2  3  1  0
  2  1  1  1
  4  3  1  0
  4  9  2  0
  5  4  1  0
  6  5  2  0
  6  7  1  0
  7  8  2  0
  8  9  1  0
 10  2  1  0
 11 10  2  0
 12 13  1  0
 13 15  1  0
 14 13  2  0
 16 15  1  0
 17 16  1  6
 17 18  1  0
 18 10  1  0
 19 17  1  0
 19 20  2  0
 21 22  1  0
 22 23  1  0
 23 25  1  0
 23 24  1  1
 25 26  1  6
 26 19  1  0
 27 25  1  0
 28 27  2  0
 29 27  1  0
M  END
$$$$
