FQI.pdb
     RDKit          3D

 29 29  0  0  1  0  0  0  0  0999 V2000
   26.5720  -22.8049   -9.7654 N   0  0  0  0  0  0  0  0  0  0  0  0
   26.0887  -21.4936  -10.0562 C   0  0  1  0  0  0  0  0  0  0  0  0
   27.2007  -20.4736  -10.1859 C   0  0  0  0  0  0  0  0  0  0  0  0
   27.7319  -20.0504   -8.8692 C   0  0  0  0  0  0  0  0  0  0  0  0
   27.1386  -19.0108   -8.1798 C   0  0  0  0  0  0  0  0  0  0  0  0
   27.5965  -18.5812   -6.9519 C   0  0  0  0  0  0  0  0  0  0  0  0
   28.6847  -19.1895   -6.3615 C   0  0  0  0  0  0  0  0  0  0  0  0
   29.2779  -20.2279   -7.0494 C   0  0  0  0  0  0  0  0  0  0  0  0
   28.8222  -20.6589   -8.2762 C   0  0  0  0  0  0  0  0  0  0  0  0
   25.2798  -21.4236  -11.2999 C   0  0  0  0  0  0  0  0  0  0  0  0
   25.5289  -22.2915  -12.1735 O   0  0  0  0  0  0  0  0  0  0  0  0
   20.0544  -21.9937  -12.5340 N   0  0  0  0  0  0  0  0  0  0  0  0
   20.1244  -21.0230  -13.5870 C   0  0  0  0  0  0  0  0  0  0  0  0
   19.2976  -21.1293  -14.5030 O   0  0  0  0  0  0  0  0  0  0  0  0
   21.1533  -19.9570  -13.5469 C   0  0  0  0  0  0  0  0  0  0  0  0
   22.0767  -20.0345  -12.3808 C   0  0  0  0  0  0  0  0  0  0  0  0
   23.4153  -20.6418  -12.7116 C   0  0  2  0  0  0  0  0  0  0  0  0
   24.2889  -20.4711  -11.5364 N   0  0  0  0  0  0  0  0  0  0  0  0
   24.1302  -20.0313  -13.8294 C   0  0  0  0  0  0  0  0  0  0  0  0
   24.6527  -18.8648  -13.6727 O   0  0  0  0  0  0  0  0  0  0  0  0
   28.4060  -21.8040  -15.8915 C   0  0  0  0  0  0  0  0  0  0  0  0
   27.1955  -21.0580  -15.3713 C   0  0  0  0  0  0  0  0  0  0  0  0
   26.3227  -20.7039  -16.5555 C   0  0  2  0  0  0  0  0  0  0  0  0
   27.0783  -20.0053  -17.6408 C   0  0  0  0  0  0  0  0  0  0  0  0
   25.1114  -19.9021  -16.1331 C   0  0  2  0  0  0  0  0  0  0  0  0
   24.3413  -20.5709  -15.1167 N   0  0  0  0  0  0  0  0  0  0  0  0
   24.2551  -19.6699  -17.3137 C   0  0  0  0  0  0  0  0  0  0  0  0
   23.4130  -20.5359  -17.6396 O   0  0  0  0  0  0  0  0  0  0  0  0
   24.3593  -18.5058  -18.0799 O   0  0  0  0  0  0  0  0  0  0  0  0
  2  3  1  0
  2  1  1  6
  4  3  1  0
  4  9  2  0
  5  4  1  0
  6  5  2  0
  6  7  1  0
  7  8  2  0
  8  9  1  0
 10  2  1  0
 11 10  2  0
 12 13  1  0
 13 15  1  0
 14 13  2  0
 16 15  1  0
 17 16  1  1
 17 18  1  0
 18 10  1  0
 19 17  1  0
 19 20  2  0
 21 22  1  0
 22 23  1  0
 23 25  1  0
 23 24  1  6
 25 26  1  1
 26 19  1  0
 27 25  1  0
 28 27  2  0
 29 27  1  0
M  END
$$$$
