FQI.pdb
     RDKit          3D

 29 29  0  0  1  0  0  0  0  0999 V2000
   28.4232  -22.9537  -16.5138 N   0  0  0  0  0  0  0  0  0  0  0  0
   27.6218  -21.8901  -17.0279 C   0  0  1  0  0  0  0  0  0  0  0  0
   26.7072  -22.3342  -18.1505 C   0  0  0  0  0  0  0  0  0  0  0  0
   27.4446  -22.5837  -19.4111 C   0  0  0  0  0  0  0  0  0  0  0  0
   27.6974  -23.8764  -19.8265 C   0  0  0  0  0  0  0  0  0  0  0  0
   28.3792  -24.1589  -20.9915 C   0  0  0  0  0  0  0  0  0  0  0  0
   28.8398  -23.1369  -21.7954 C   0  0  0  0  0  0  0  0  0  0  0  0
   28.5877  -21.8452  -21.3812 C   0  0  0  0  0  0  0  0  0  0  0  0
   27.9068  -21.5607  -20.2177 C   0  0  0  0  0  0  0  0  0  0  0  0
   26.7715  -21.2395  -15.9986 C   0  0  0  0  0  0  0  0  0  0  0  0
   26.5117  -21.9255  -14.9786 O   0  0  0  0  0  0  0  0  0  0  0  0
   26.3983  -15.1458  -14.7243 N   0  0  0  0  0  0  0  0  0  0  0  0
   25.5771  -15.6284  -15.7960 C   0  0  0  0  0  0  0  0  0  0  0  0
   25.1015  -14.7803  -16.5632 O   0  0  0  0  0  0  0  0  0  0  0  0
   25.3307  -17.0822  -15.9458 C   0  0  0  0  0  0  0  0  0  0  0  0
   25.9019  -17.9203  -14.8550 C   0  0  0  0  0  0  0  0  0  0  0  0
   25.5333  -19.3774  -14.9590 C   0  0  2  0  0  0  0  0  0  0  0  0
   26.2640  -19.9449  -16.1069 N   0  0  0  0  0  0  0  0  0  0  0  0
   24.1220  -19.6588  -15.2090 C   0  0  0  0  0  0  0  0  0  0  0  0
   23.6667  -19.5460  -16.4083 O   0  0  0  0  0  0  0  0  0  0  0  0
   21.6221  -24.0655  -14.5779 C   0  0  0  0  0  0  0  0  0  0  0  0
   22.1277  -22.7020  -14.9993 C   0  0  0  0  0  0  0  0  0  0  0  0
   21.2823  -21.6570  -14.3043 C   0  0  2  0  0  0  0  0  0  0  0  0
   19.8234  -21.8069  -14.5973 C   0  0  0  0  0  0  0  0  0  0  0  0
   21.7594  -20.2565  -14.6197 C   0  0  2  0  0  0  0  0  0  0  0  0
   23.1434  -20.0604  -14.2742 N   0  0  0  0  0  0  0  0  0  0  0  0
   20.9326  -19.2887  -13.8709 C   0  0  0  0  0  0  0  0  0  0  0  0
   21.3592  -18.8260  -12.7896 O   0  0  0  0  0  0  0  0  0  0  0  0
   19.6825  -18.8736  -14.3378 O   0  0  0  0  0  0  0  0  0  0  0  0
  2  3  1  0
  2  1  1  1
  4  3  1  0
  4  9  2  0
  5  4  1  0
  6  5  2  0
  6  7  1  0
  7  8  2  0
  8  9  1  0
 10  2  1  0
 11 10  2  0
 12 13  1  0
 13 15  1  0
 14 13  2  0
 16 15  1  0
 17 16  1  6
 17 18  1  0
 18 10  1  0
 19 17  1  0
 19 20  2  0
 21 22  1  0
 22 23  1  0
 23 25  1  0
 23 24  1  6
 25 26  1  1
 26 19  1  0
 27 25  1  0
 28 27  2  0
 29 27  1  0
M  END
$$$$
