PVP.pdb
     RDKit          3D

 22 23  0  0  1  0  0  0  0  0999 V2000
    7.2717  -15.3066   20.9923 N   0  0  0  0  0  0  0  0  0  0  0  0
    6.6581  -15.0195   19.7149 C   0  0  0  0  0  0  0  0  0  0  0  0
    7.0066  -13.5623   19.4705 C   0  0  0  0  0  0  0  0  0  0  0  0
    8.3369  -13.4003   20.1749 C   0  0  0  0  0  0  0  0  0  0  0  0
    8.5333  -14.6145   21.0323 C   0  0  1  0  0  0  0  0  0  0  0  0
    8.7671  -14.1623   22.4361 C   0  0  0  0  0  0  0  0  0  0  0  0
    9.8154  -13.5197   22.7643 O   0  0  0  0  0  0  0  0  0  0  0  0
    6.8543  -12.8981   26.7302 C   0  0  0  0  0  0  0  0  0  0  0  0
    6.7434  -13.7028   25.4607 C   0  0  2  0  0  0  0  0  0  0  0  0
    6.1029  -15.0396   25.8650 C   0  0  0  0  0  0  0  0  0  0  0  0
    8.0767  -14.0311   24.8646 C   0  0  2  0  0  0  0  0  0  0  0  0
    7.8448  -14.4161   23.4890 N   0  0  0  0  0  0  0  0  0  0  0  0
    8.8549  -15.0384   25.6081 C   0  0  0  0  0  0  0  0  0  0  0  0
    9.0534  -16.1370   25.0264 O   0  0  0  0  0  0  0  0  0  0  0  0
    9.3805  -14.8638   26.8929 N   0  0  0  0  0  0  0  0  0  0  0  0
    8.9590  -13.9251   27.9004 C   0  0  0  0  0  0  0  0  0  0  0  0
   10.1533  -13.7234   28.8193 C   0  0  0  0  0  0  0  0  0  0  0  0
   11.2681  -14.4472   28.0960 C   0  0  0  0  0  0  0  0  0  0  0  0
   10.4724  -15.6022   27.4696 C   0  0  1  0  0  0  0  0  0  0  0  0
   10.0507  -16.4798   28.5796 C   0  0  0  0  0  0  0  0  0  0  0  0
    8.7243  -16.6535   28.9460 O   0  0  0  0  0  0  0  0  0  0  0  0
   10.9095  -17.1127   29.2429 O   0  0  0  0  0  0  0  0  0  0  0  0
  1  5  1  0
  1  2  1  0
  2  3  1  0
  4  5  1  0
  4  3  1  0
  6 12  1  0
  5  6  1  1
  7  6  2  0
  9  8  1  1
  9 10  1  0
  9 11  1  0
 11 13  1  0
 11 12  1  6
 13 15  1  0
 14 13  2  0
 15 16  1  0
 17 16  1  0
 18 17  1  0
 19 18  1  0
 19 15  1  0
 19 20  1  1
 20 22  2  0
 20 21  1  0
M  END
$$$$
