PVP.pdb
     RDKit          3D

 22 23  0  0  1  0  0  0  0  0999 V2000
    9.0743  -15.5128   20.4810 N   0  0  0  0  0  0  0  0  0  0  0  0
    9.1523  -16.6912   19.6468 C   0  0  0  0  0  0  0  0  0  0  0  0
    9.0635  -17.8375   20.6381 C   0  0  0  0  0  0  0  0  0  0  0  0
    8.2141  -17.2668   21.7541 C   0  0  0  0  0  0  0  0  0  0  0  0
    8.1278  -15.7868   21.5305 C   0  0  1  0  0  0  0  0  0  0  0  0
    8.6002  -15.0989   22.7688 C   0  0  0  0  0  0  0  0  0  0  0  0
    9.8393  -14.9631   23.0254 O   0  0  0  0  0  0  0  0  0  0  0  0
    7.4029  -12.4187   26.7842 C   0  0  0  0  0  0  0  0  0  0  0  0
    7.0497  -13.1143   25.4947 C   0  0  2  0  0  0  0  0  0  0  0  0
    5.8449  -14.0115   25.8174 C   0  0  0  0  0  0  0  0  0  0  0  0
    8.1379  -14.0194   25.0077 C   0  0  2  0  0  0  0  0  0  0  0  0
    7.7078  -14.5554   23.7341 N   0  0  0  0  0  0  0  0  0  0  0  0
    8.5356  -15.0742   25.9576 C   0  0  0  0  0  0  0  0  0  0  0  0
    8.1841  -16.2490   25.6725 O   0  0  0  0  0  0  0  0  0  0  0  0
    9.2643  -14.8669   27.1338 N   0  0  0  0  0  0  0  0  0  0  0  0
    9.0793  -13.8314   28.1173 C   0  0  0  0  0  0  0  0  0  0  0  0
   10.4127  -13.6816   28.8323 C   0  0  0  0  0  0  0  0  0  0  0  0
   11.3414  -14.5489   28.0105 C   0  0  0  0  0  0  0  0  0  0  0  0
   10.3684  -15.6638   27.5985 C   0  0  1  0  0  0  0  0  0  0  0  0
   10.0523  -16.4268   28.8224 C   0  0  0  0  0  0  0  0  0  0  0  0
    8.7777  -16.4940   29.3651 O   0  0  0  0  0  0  0  0  0  0  0  0
   10.9583  -17.0554   29.4241 O   0  0  0  0  0  0  0  0  0  0  0  0
  1  5  1  0
  1  2  1  0
  2  3  1  0
  4  5  1  0
  4  3  1  0
  6 12  1  0
  5  6  1  1
  7  6  2  0
  9  8  1  1
  9 10  1  0
  9 11  1  0
 11 13  1  0
 11 12  1  6
 13 15  1  0
 14 13  2  0
 15 16  1  0
 17 16  1  0
 18 17  1  0
 19 18  1  0
 19 15  1  0
 19 20  1  1
 20 22  2  0
 20 21  1  0
M  END
$$$$
