PVP.pdb
     RDKit          3D

 22 23  0  0  1  0  0  0  0  0999 V2000
    7.1651  -16.0352   21.3265 N   0  0  0  0  0  0  0  0  0  0  0  0
    6.5918  -15.9397   20.0025 C   0  0  0  0  0  0  0  0  0  0  0  0
    7.1717  -14.6483   19.4542 C   0  0  0  0  0  0  0  0  0  0  0  0
    8.5188  -14.5540   20.1388 C   0  0  0  0  0  0  0  0  0  0  0  0
    8.5235  -15.5657   21.2454 C   0  0  1  0  0  0  0  0  0  0  0  0
    8.8448  -14.8605   22.5217 C   0  0  0  0  0  0  0  0  0  0  0  0
    9.9895  -14.3442   22.7290 O   0  0  0  0  0  0  0  0  0  0  0  0
    7.2444  -12.8186   26.7224 C   0  0  0  0  0  0  0  0  0  0  0  0
    6.9943  -13.5900   25.4520 C   0  0  2  0  0  0  0  0  0  0  0  0
    6.0828  -14.7627   25.8449 C   0  0  0  0  0  0  0  0  0  0  0  0
    8.2421  -14.1908   24.8840 C   0  0  2  0  0  0  0  0  0  0  0  0
    7.9045  -14.7196   23.5798 N   0  0  0  0  0  0  0  0  0  0  0  0
    8.8938  -15.1928   25.7468 C   0  0  0  0  0  0  0  0  0  0  0  0
    8.9387  -16.3709   25.3052 O   0  0  0  0  0  0  0  0  0  0  0  0
    9.4574  -14.9326   27.0006 N   0  0  0  0  0  0  0  0  0  0  0  0
    9.1047  -13.8898   27.9290 C   0  0  0  0  0  0  0  0  0  0  0  0
   10.3287  -13.6676   28.8032 C   0  0  0  0  0  0  0  0  0  0  0  0
   11.3905  -14.5059   28.1252 C   0  0  0  0  0  0  0  0  0  0  0  0
   10.5265  -15.6706   27.6190 C   0  0  1  0  0  0  0  0  0  0  0  0
   10.0901  -16.4260   28.8103 C   0  0  0  0  0  0  0  0  0  0  0  0
    8.7653  -16.5059   29.2132 O   0  0  0  0  0  0  0  0  0  0  0  0
   10.9340  -17.0358   29.5131 O   0  0  0  0  0  0  0  0  0  0  0  0
  1  5  1  0
  1  2  1  0
  2  3  1  0
  4  5  1  0
  4  3  1  0
  6 12  1  0
  5  6  1  1
  7  6  2  0
  9  8  1  1
  9 10  1  0
  9 11  1  0
 11 13  1  0
 11 12  1  6
 13 15  1  0
 14 13  2  0
 15 16  1  0
 17 16  1  0
 18 17  1  0
 19 18  1  0
 19 15  1  0
 19 20  1  1
 20 22  2  0
 20 21  1  0
M  END
$$$$
