PVP.pdb
     RDKit          3D

 22 23  0  0  1  0  0  0  0  0999 V2000
    7.1809  -15.8289   21.6858 N   0  0  0  0  0  0  0  0  0  0  0  0
    6.4658  -15.7018   20.4355 C   0  0  0  0  0  0  0  0  0  0  0  0
    6.8010  -14.2952   19.9735 C   0  0  0  0  0  0  0  0  0  0  0  0
    8.1857  -14.0639   20.5405 C   0  0  0  0  0  0  0  0  0  0  0  0
    8.4452  -15.1582   21.5320 C   0  0  1  0  0  0  0  0  0  0  0  0
    8.7962  -14.5297   22.8403 C   0  0  0  0  0  0  0  0  0  0  0  0
    9.8920  -13.9044   23.0076 O   0  0  0  0  0  0  0  0  0  0  0  0
    6.0375  -14.7411   26.0911 C   0  0  0  0  0  0  0  0  0  0  0  0
    7.1117  -13.6876   26.0034 C   0  0  2  0  0  0  0  0  0  0  0  0
    6.5269  -12.5620   25.1364 C   0  0  0  0  0  0  0  0  0  0  0  0
    8.3420  -14.1718   25.3014 C   0  0  2  0  0  0  0  0  0  0  0  0
    7.9396  -14.5866   23.9746 N   0  0  0  0  0  0  0  0  0  0  0  0
    9.0893  -15.2215   26.0175 C   0  0  0  0  0  0  0  0  0  0  0  0
    9.3005  -16.2906   25.3871 O   0  0  0  0  0  0  0  0  0  0  0  0
    9.5732  -15.1165   27.3260 N   0  0  0  0  0  0  0  0  0  0  0  0
    9.1301  -14.2210   28.3631 C   0  0  0  0  0  0  0  0  0  0  0  0
   10.2951  -14.0813   29.3301 C   0  0  0  0  0  0  0  0  0  0  0  0
   11.4242  -14.7860   28.6100 C   0  0  0  0  0  0  0  0  0  0  0  0
   10.6351  -15.8977   27.9023 C   0  0  1  0  0  0  0  0  0  0  0  0
   10.1645  -16.8212   28.9538 C   0  0  0  0  0  0  0  0  0  0  0  0
   11.0180  -17.6313   29.6880 O   0  0  0  0  0  0  0  0  0  0  0  0
    8.9394  -16.9004   29.2201 O   0  0  0  0  0  0  0  0  0  0  0  0
  1  5  1  0
  1  2  1  0
  2  3  1  0
  4  5  1  0
  4  3  1  0
  6 12  1  0
  5  6  1  1
  7  6  2  0
  9  8  1  6
  9 10  1  0
  9 11  1  0
 11 13  1  0
 11 12  1  6
 13 15  1  0
 14 13  2  0
 15 16  1  0
 17 16  1  0
 18 17  1  0
 19 18  1  0
 19 15  1  0
 19 20  1  1
 20 22  2  0
 20 21  1  0
M  END
$$$$
