PVP.pdb
     RDKit          3D

 22 23  0  0  1  0  0  0  0  0999 V2000
    8.7154  -15.1927   20.2918 N   0  0  0  0  0  0  0  0  0  0  0  0
    8.8964  -16.3051   19.3860 C   0  0  0  0  0  0  0  0  0  0  0  0
    9.1188  -17.4874   20.3119 C   0  0  0  0  0  0  0  0  0  0  0  0
    8.3187  -17.1195   21.5436 C   0  0  0  0  0  0  0  0  0  0  0  0
    7.9565  -15.6700   21.4180 C   0  0  1  0  0  0  0  0  0  0  0  0
    8.4442  -14.9594   22.6374 C   0  0  0  0  0  0  0  0  0  0  0  0
    9.6847  -14.7657   22.8456 O   0  0  0  0  0  0  0  0  0  0  0  0
    7.2795  -12.4737   26.7901 C   0  0  0  0  0  0  0  0  0  0  0  0
    6.9044  -13.1396   25.4911 C   0  0  2  0  0  0  0  0  0  0  0  0
    5.7631  -14.1106   25.8306 C   0  0  0  0  0  0  0  0  0  0  0  0
    8.0146  -13.9676   24.9230 C   0  0  2  0  0  0  0  0  0  0  0  0
    7.5656  -14.4567   23.6370 N   0  0  0  0  0  0  0  0  0  0  0  0
    8.4906  -15.0504   25.8028 C   0  0  0  0  0  0  0  0  0  0  0  0
    8.2508  -16.2273   25.4258 O   0  0  0  0  0  0  0  0  0  0  0  0
    9.1790  -14.8669   27.0069 N   0  0  0  0  0  0  0  0  0  0  0  0
    9.0065  -13.8118   27.9718 C   0  0  0  0  0  0  0  0  0  0  0  0
   10.3147  -13.7220   28.7413 C   0  0  0  0  0  0  0  0  0  0  0  0
   11.2311  -14.6451   27.9679 C   0  0  0  0  0  0  0  0  0  0  0  0
   10.2202  -15.7136   27.5255 C   0  0  1  0  0  0  0  0  0  0  0  0
    9.8142  -16.4451   28.7421 C   0  0  0  0  0  0  0  0  0  0  0  0
    8.5045  -16.4914   29.1966 O   0  0  0  0  0  0  0  0  0  0  0  0
   10.6714  -17.0649   29.4197 O   0  0  0  0  0  0  0  0  0  0  0  0
  1  5  1  0
  1  2  1  0
  2  3  1  0
  4  5  1  0
  4  3  1  0
  6 12  1  0
  5  6  1  1
  7  6  2  0
  9  8  1  1
  9 10  1  0
  9 11  1  0
 11 13  1  0
 11 12  1  6
 13 15  1  0
 14 13  2  0
 15 16  1  0
 17 16  1  0
 18 17  1  0
 19 18  1  0
 19 15  1  0
 19 20  1  1
 20 22  2  0
 20 21  1  0
M  END
$$$$
