PVP.pdb
     RDKit          3D

 22 23  0  0  1  0  0  0  0  0999 V2000
    9.0677  -15.2401   20.5081 N   0  0  0  0  0  0  0  0  0  0  0  0
    9.3905  -16.3273   19.6111 C   0  0  0  0  0  0  0  0  0  0  0  0
    9.5942  -17.5095   20.5412 C   0  0  0  0  0  0  0  0  0  0  0  0
    8.6679  -17.2042   21.6994 C   0  0  0  0  0  0  0  0  0  0  0  0
    8.2386  -15.7749   21.5563 C   0  0  1  0  0  0  0  0  0  0  0  0
    8.5749  -15.0573   22.8219 C   0  0  0  0  0  0  0  0  0  0  0  0
    9.7582  -14.6593   23.0691 O   0  0  0  0  0  0  0  0  0  0  0  0
    6.5981  -12.1362   25.1000 C   0  0  0  0  0  0  0  0  0  0  0  0
    6.7263  -13.5364   25.6427 C   0  0  2  0  0  0  0  0  0  0  0  0
    6.9146  -13.3836   27.1598 C   0  0  0  0  0  0  0  0  0  0  0  0
    7.9405  -14.2470   25.1312 C   0  0  2  0  0  0  0  0  0  0  0  0
    7.6070  -14.7733   23.8250 N   0  0  0  0  0  0  0  0  0  0  0  0
    8.4782  -15.2804   26.0345 C   0  0  0  0  0  0  0  0  0  0  0  0
    8.1535  -16.4705   25.7836 O   0  0  0  0  0  0  0  0  0  0  0  0
    9.3103  -15.0374   27.1327 N   0  0  0  0  0  0  0  0  0  0  0  0
    9.3042  -13.8961   28.0110 C   0  0  0  0  0  0  0  0  0  0  0  0
   10.6959  -13.8202   28.6185 C   0  0  0  0  0  0  0  0  0  0  0  0
   11.4688  -14.8587   27.8347 C   0  0  0  0  0  0  0  0  0  0  0  0
   10.3612  -15.8982   27.6067 C   0  0  1  0  0  0  0  0  0  0  0  0
   10.0635  -16.4986   28.9224 C   0  0  0  0  0  0  0  0  0  0  0  0
    8.8607  -16.3094   29.5866 O   0  0  0  0  0  0  0  0  0  0  0  0
   10.9190  -17.2197   29.4935 O   0  0  0  0  0  0  0  0  0  0  0  0
  1  5  1  0
  1  2  1  0
  2  3  1  0
  4  5  1  0
  4  3  1  0
  6 12  1  0
  5  6  1  1
  7  6  2  0
  9  8  1  6
  9 10  1  0
  9 11  1  0
 11 13  1  0
 11 12  1  6
 13 15  1  0
 14 13  2  0
 15 16  1  0
 17 16  1  0
 18 17  1  0
 19 18  1  0
 19 15  1  0
 19 20  1  1
 20 22  2  0
 20 21  1  0
M  END
$$$$
