PVP.pdb
     RDKit          3D

 22 23  0  0  1  0  0  0  0  0999 V2000
    9.0231  -15.1379   20.6071 N   0  0  0  0  0  0  0  0  0  0  0  0
    9.3361  -16.2382   19.7228 C   0  0  0  0  0  0  0  0  0  0  0  0
    9.5242  -17.4125   20.6662 C   0  0  0  0  0  0  0  0  0  0  0  0
    8.5983  -17.0844   21.8184 C   0  0  0  0  0  0  0  0  0  0  0  0
    8.1853  -15.6520   21.6587 C   0  0  1  0  0  0  0  0  0  0  0  0
    8.5262  -14.9245   22.9174 C   0  0  0  0  0  0  0  0  0  0  0  0
    9.7162  -14.5512   23.1710 O   0  0  0  0  0  0  0  0  0  0  0  0
    6.3790  -12.1622   25.1312 C   0  0  0  0  0  0  0  0  0  0  0  0
    6.6756  -13.4811   25.7974 C   0  0  2  0  0  0  0  0  0  0  0  0
    6.9916  -13.1495   27.2640 C   0  0  0  0  0  0  0  0  0  0  0  0
    7.8922  -14.1513   25.2395 C   0  0  2  0  0  0  0  0  0  0  0  0
    7.5556  -14.6034   23.9065 N   0  0  0  0  0  0  0  0  0  0  0  0
    8.4424  -15.2313   26.0785 C   0  0  0  0  0  0  0  0  0  0  0  0
    8.1271  -16.4074   25.7590 O   0  0  0  0  0  0  0  0  0  0  0  0
    9.2767  -15.0459   27.1862 N   0  0  0  0  0  0  0  0  0  0  0  0
    9.3015  -13.9312   28.0975 C   0  0  0  0  0  0  0  0  0  0  0  0
   10.6922  -13.9156   28.7118 C   0  0  0  0  0  0  0  0  0  0  0  0
   11.4366  -14.9538   27.9007 C   0  0  0  0  0  0  0  0  0  0  0  0
   10.2989  -15.9519   27.6385 C   0  0  1  0  0  0  0  0  0  0  0  0
    9.9773  -16.5811   28.9349 C   0  0  0  0  0  0  0  0  0  0  0  0
   10.8342  -17.4567   29.5852 O   0  0  0  0  0  0  0  0  0  0  0  0
    8.8842  -16.3322   29.5017 O   0  0  0  0  0  0  0  0  0  0  0  0
  1  5  1  0
  1  2  1  0
  2  3  1  0
  4  5  1  0
  4  3  1  0
  6 12  1  0
  5  6  1  1
  7  6  2  0
  9  8  1  6
  9 10  1  0
  9 11  1  0
 11 13  1  0
 11 12  1  6
 13 15  1  0
 14 13  2  0
 15 16  1  0
 17 16  1  0
 18 17  1  0
 19 18  1  0
 19 15  1  0
 19 20  1  1
 20 22  2  0
 20 21  1  0
M  END
$$$$
