PVP.pdb
     RDKit          3D

 22 23  0  0  1  0  0  0  0  0999 V2000
    7.1982  -15.7951   21.6715 N   0  0  0  0  0  0  0  0  0  0  0  0
    6.5124  -15.6931   20.4027 C   0  0  0  0  0  0  0  0  0  0  0  0
    6.8778  -14.3047   19.9095 C   0  0  0  0  0  0  0  0  0  0  0  0
    8.2531  -14.0768   20.5005 C   0  0  0  0  0  0  0  0  0  0  0  0
    8.4751  -15.1465   21.5273 C   0  0  1  0  0  0  0  0  0  0  0  0
    8.8066  -14.4866   22.8251 C   0  0  0  0  0  0  0  0  0  0  0  0
    9.9155  -13.8886   23.0056 O   0  0  0  0  0  0  0  0  0  0  0  0
    5.9619  -14.5362   26.0191 C   0  0  0  0  0  0  0  0  0  0  0  0
    7.0913  -13.5409   25.9454 C   0  0  2  0  0  0  0  0  0  0  0  0
    6.5836  -12.3939   25.0582 C   0  0  0  0  0  0  0  0  0  0  0  0
    8.3084  -14.0947   25.2726 C   0  0  2  0  0  0  0  0  0  0  0  0
    7.9160  -14.4817   23.9344 N   0  0  0  0  0  0  0  0  0  0  0  0
    8.9746  -15.1882   26.0029 C   0  0  0  0  0  0  0  0  0  0  0  0
    9.0819  -16.2859   25.3959 O   0  0  0  0  0  0  0  0  0  0  0  0
    9.4884  -15.0950   27.3008 N   0  0  0  0  0  0  0  0  0  0  0  0
    9.0962  -14.1822   28.3433 C   0  0  0  0  0  0  0  0  0  0  0  0
   10.2847  -14.0779   29.2859 C   0  0  0  0  0  0  0  0  0  0  0  0
   11.3751  -14.8217   28.5457 C   0  0  0  0  0  0  0  0  0  0  0  0
   10.5356  -15.9090   27.8584 C   0  0  1  0  0  0  0  0  0  0  0  0
   10.0565  -16.8132   28.9228 C   0  0  0  0  0  0  0  0  0  0  0  0
   10.8982  -17.6465   29.6445 O   0  0  0  0  0  0  0  0  0  0  0  0
    8.8348  -16.8531   29.2124 O   0  0  0  0  0  0  0  0  0  0  0  0
  1  5  1  0
  1  2  1  0
  2  3  1  0
  4  5  1  0
  4  3  1  0
  6 12  1  0
  5  6  1  1
  7  6  2  0
  9  8  1  6
  9 10  1  0
  9 11  1  0
 11 13  1  0
 11 12  1  6
 13 15  1  0
 14 13  2  0
 15 16  1  0
 17 16  1  0
 18 17  1  0
 19 18  1  0
 19 15  1  0
 19 20  1  1
 20 22  2  0
 20 21  1  0
M  END
$$$$
