PVP.pdb
     RDKit          3D

 22 23  0  0  1  0  0  0  0  0999 V2000
    8.7875  -15.0190   19.4273 N   0  0  0  0  0  0  0  0  0  0  0  0
    8.5868  -14.7798   18.0155 C   0  0  0  0  0  0  0  0  0  0  0  0
    7.7403  -13.5201   17.9832 C   0  0  0  0  0  0  0  0  0  0  0  0
    8.1735  -12.7783   19.2300 C   0  0  0  0  0  0  0  0  0  0  0  0
    8.9678  -13.7398   20.0622 C   0  0  1  0  0  0  0  0  0  0  0  0
    8.3474  -13.8065   21.4188 C   0  0  0  0  0  0  0  0  0  0  0  0
    8.1255  -12.7569   22.1035 O   0  0  0  0  0  0  0  0  0  0  0  0
    7.6780  -17.5915   23.3081 C   0  0  0  0  0  0  0  0  0  0  0  0
    6.6818  -16.4653   23.4114 C   0  0  2  0  0  0  0  0  0  0  0  0
    5.7688  -16.5978   22.1828 C   0  0  0  0  0  0  0  0  0  0  0  0
    7.3225  -15.1153   23.3237 C   0  0  2  0  0  0  0  0  0  0  0  0
    7.9669  -15.0332   22.0304 N   0  0  0  0  0  0  0  0  0  0  0  0
    8.2399  -14.7935   24.4318 C   0  0  0  0  0  0  0  0  0  0  0  0
    9.4575  -15.0548   24.2474 O   0  0  0  0  0  0  0  0  0  0  0  0
    7.8607  -14.2272   25.6536 N   0  0  0  0  0  0  0  0  0  0  0  0
    6.5339  -13.8813   26.0937 C   0  0  0  0  0  0  0  0  0  0  0  0
    6.7055  -12.8109   27.1598 C   0  0  0  0  0  0  0  0  0  0  0  0
    8.1805  -12.4820   27.0806 C   0  0  0  0  0  0  0  0  0  0  0  0
    8.7433  -13.8680   26.7316 C   0  0  1  0  0  0  0  0  0  0  0  0
    8.5638  -14.7140   27.9283 C   0  0  0  0  0  0  0  0  0  0  0  0
    9.3173  -14.5626   29.0829 O   0  0  0  0  0  0  0  0  0  0  0  0
    7.6962  -15.6224   27.9328 O   0  0  0  0  0  0  0  0  0  0  0  0
  1  5  1  0
  1  2  1  0
  2  3  1  0
  4  5  1  0
  4  3  1  0
  6 12  1  0
  5  6  1  1
  7  6  2  0
  9  8  1  6
  9 10  1  0
  9 11  1  0
 11 13  1  0
 11 12  1  6
 13 15  1  0
 14 13  2  0
 15 16  1  0
 17 16  1  0
 18 17  1  0
 19 18  1  0
 19 15  1  0
 19 20  1  1
 20 22  2  0
 20 21  1  0
M  END
$$$$
