PVP.pdb
     RDKit          3D

 22 23  0  0  1  0  0  0  0  0999 V2000
    8.1829  -14.7789   20.4769 N   0  0  0  0  0  0  0  0  0  0  0  0
    8.2867  -15.8354   19.4952 C   0  0  0  0  0  0  0  0  0  0  0  0
    8.7042  -17.0439   20.3135 C   0  0  0  0  0  0  0  0  0  0  0  0
    8.0757  -16.7819   21.6658 C   0  0  0  0  0  0  0  0  0  0  0  0
    7.6237  -15.3523   21.6730 C   0  0  1  0  0  0  0  0  0  0  0  0
    8.2474  -14.6711   22.8464 C   0  0  0  0  0  0  0  0  0  0  0  0
    9.4892  -14.3941   22.8746 O   0  0  0  0  0  0  0  0  0  0  0  0
    5.7947  -13.9086   26.1867 C   0  0  0  0  0  0  0  0  0  0  0  0
    7.0878  -13.1501   26.0319 C   0  0  2  0  0  0  0  0  0  0  0  0
    6.7463  -11.9019   25.2037 C   0  0  0  0  0  0  0  0  0  0  0  0
    8.1159  -13.9106   25.2539 C   0  0  2  0  0  0  0  0  0  0  0  0
    7.5046  -14.2904   23.9982 N   0  0  0  0  0  0  0  0  0  0  0  0
    8.7033  -15.0605   25.9651 C   0  0  0  0  0  0  0  0  0  0  0  0
    8.5964  -16.1825   25.4043 O   0  0  0  0  0  0  0  0  0  0  0  0
    9.3608  -14.9953   27.1983 N   0  0  0  0  0  0  0  0  0  0  0  0
    9.1469  -14.0522   28.2653 C   0  0  0  0  0  0  0  0  0  0  0  0
   10.4355  -14.0237   29.0718 C   0  0  0  0  0  0  0  0  0  0  0  0
   11.3862  -14.8440   28.2273 C   0  0  0  0  0  0  0  0  0  0  0  0
   10.4057  -15.8755   27.6493 C   0  0  1  0  0  0  0  0  0  0  0  0
    9.9862  -16.7391   28.7710 C   0  0  0  0  0  0  0  0  0  0  0  0
   10.8403  -17.6337   29.3987 O   0  0  0  0  0  0  0  0  0  0  0  0
    8.8070  -16.6850   29.2005 O   0  0  0  0  0  0  0  0  0  0  0  0
  1  5  1  0
  1  2  1  0
  2  3  1  0
  4  5  1  0
  4  3  1  0
  6 12  1  0
  5  6  1  1
  7  6  2  0
  9  8  1  6
  9 10  1  0
  9 11  1  0
 11 13  1  0
 11 12  1  6
 13 15  1  0
 14 13  2  0
 15 16  1  0
 17 16  1  0
 18 17  1  0
 19 18  1  0
 19 15  1  0
 19 20  1  1
 20 22  2  0
 20 21  1  0
M  END
$$$$
