PVP.pdb
     RDKit          3D

 22 23  0  0  1  0  0  0  0  0999 V2000
    7.2016  -15.9890   21.5883 N   0  0  0  0  0  0  0  0  0  0  0  0
    6.4989  -15.8852   20.3289 C   0  0  0  0  0  0  0  0  0  0  0  0
    6.8236  -14.4807   19.8532 C   0  0  0  0  0  0  0  0  0  0  0  0
    8.1994  -14.2270   20.4323 C   0  0  0  0  0  0  0  0  0  0  0  0
    8.4601  -15.3062   21.4399 C   0  0  1  0  0  0  0  0  0  0  0  0
    8.7897  -14.6578   22.7441 C   0  0  0  0  0  0  0  0  0  0  0  0
    9.8143  -13.9152   22.8800 O   0  0  0  0  0  0  0  0  0  0  0  0
    6.1194  -15.0700   26.0299 C   0  0  0  0  0  0  0  0  0  0  0  0
    7.0865  -13.9211   25.9031 C   0  0  2  0  0  0  0  0  0  0  0  0
    6.3934  -12.8854   25.0046 C   0  0  0  0  0  0  0  0  0  0  0  0
    8.3560  -14.3064   25.2099 C   0  0  2  0  0  0  0  0  0  0  0  0
    7.9903  -14.8243   23.9089 N   0  0  0  0  0  0  0  0  0  0  0  0
    9.2151  -15.2361   25.9653 C   0  0  0  0  0  0  0  0  0  0  0  0
    9.6208  -16.2549   25.3471 O   0  0  0  0  0  0  0  0  0  0  0  0
    9.6060  -15.0698   27.2984 N   0  0  0  0  0  0  0  0  0  0  0  0
    8.9862  -14.2479   28.3054 C   0  0  0  0  0  0  0  0  0  0  0  0
   10.0648  -13.9520   29.3352 C   0  0  0  0  0  0  0  0  0  0  0  0
   11.3189  -14.4913   28.6823 C   0  0  0  0  0  0  0  0  0  0  0  0
   10.7318  -15.6989   27.9363 C   0  0  1  0  0  0  0  0  0  0  0  0
   10.3353  -16.6823   28.9637 C   0  0  0  0  0  0  0  0  0  0  0  0
    9.0168  -17.0439   29.1973 O   0  0  0  0  0  0  0  0  0  0  0  0
   11.2095  -17.2354   29.6765 O   0  0  0  0  0  0  0  0  0  0  0  0
  1  5  1  0
  1  2  1  0
  2  3  1  0
  4  5  1  0
  4  3  1  0
  6 12  1  0
  5  6  1  1
  7  6  2  0
  9  8  1  6
  9 10  1  0
  9 11  1  0
 11 13  1  0
 11 12  1  6
 13 15  1  0
 14 13  2  0
 15 16  1  0
 17 16  1  0
 18 17  1  0
 19 18  1  0
 19 15  1  0
 19 20  1  1
 20 22  2  0
 20 21  1  0
M  END
$$$$
