PVP.pdb
     RDKit          3D

 22 23  0  0  1  0  0  0  0  0999 V2000
    8.7411  -15.2306   20.1863 N   0  0  0  0  0  0  0  0  0  0  0  0
    8.3095  -14.9409   18.8370 C   0  0  0  0  0  0  0  0  0  0  0  0
    7.5047  -13.6624   18.9860 C   0  0  0  0  0  0  0  0  0  0  0  0
    8.1640  -12.9716   20.1609 C   0  0  0  0  0  0  0  0  0  0  0  0
    9.0619  -13.9771   20.8172 C   0  0  1  0  0  0  0  0  0  0  0  0
    8.6801  -14.0745   22.2575 C   0  0  0  0  0  0  0  0  0  0  0  0
    8.5919  -13.0416   22.9958 O   0  0  0  0  0  0  0  0  0  0  0  0
    7.7080  -17.8898   23.9759 C   0  0  0  0  0  0  0  0  0  0  0  0
    7.0928  -16.5849   24.4121 C   0  0  2  0  0  0  0  0  0  0  0  0
    5.9427  -16.3134   23.4302 C   0  0  0  0  0  0  0  0  0  0  0  0
    8.0379  -15.4303   24.2925 C   0  0  2  0  0  0  0  0  0  0  0  0
    8.3927  -15.3136   22.8943 N   0  0  0  0  0  0  0  0  0  0  0  0
    9.2203  -15.5061   25.1694 C   0  0  0  0  0  0  0  0  0  0  0  0
   10.2860  -15.9193   24.6417 O   0  0  0  0  0  0  0  0  0  0  0  0
    9.2431  -15.1570   26.5241 N   0  0  0  0  0  0  0  0  0  0  0  0
    8.1419  -14.7204   27.3430 C   0  0  0  0  0  0  0  0  0  0  0  0
    8.7525  -13.9317   28.4905 C   0  0  0  0  0  0  0  0  0  0  0  0
   10.2065  -13.8123   28.0885 C   0  0  0  0  0  0  0  0  0  0  0  0
   10.3984  -15.1624   27.3815 C   0  0  1  0  0  0  0  0  0  0  0  0
   10.3343  -16.2032   28.4268 C   0  0  0  0  0  0  0  0  0  0  0  0
    9.3028  -17.1262   28.5143 O   0  0  0  0  0  0  0  0  0  0  0  0
   11.2412  -16.2830   29.2923 O   0  0  0  0  0  0  0  0  0  0  0  0
  1  5  1  0
  1  2  1  0
  2  3  1  0
  4  5  1  0
  4  3  1  0
  6 12  1  0
  5  6  1  1
  7  6  2  0
  9  8  1  6
  9 10  1  0
  9 11  1  0
 11 13  1  0
 11 12  1  6
 13 15  1  0
 14 13  2  0
 15 16  1  0
 17 16  1  0
 18 17  1  0
 19 18  1  0
 19 15  1  0
 19 20  1  1
 20 22  2  0
 20 21  1  0
M  END
$$$$
