PVP.pdb
     RDKit          3D

 22 23  0  0  1  0  0  0  0  0999 V2000
    7.2923  -15.6283   21.5334 N   0  0  0  0  0  0  0  0  0  0  0  0
    6.5687  -15.5344   20.2851 C   0  0  0  0  0  0  0  0  0  0  0  0
    6.7596  -14.0869   19.8694 C   0  0  0  0  0  0  0  0  0  0  0  0
    8.1133  -13.7346   20.4488 C   0  0  0  0  0  0  0  0  0  0  0  0
    8.4821  -14.8282   21.4059 C   0  0  1  0  0  0  0  0  0  0  0  0
    8.7667  -14.2096   22.7348 C   0  0  0  0  0  0  0  0  0  0  0  0
    9.7093  -13.3689   22.8915 O   0  0  0  0  0  0  0  0  0  0  0  0
    6.1444  -14.8407   26.0248 C   0  0  0  0  0  0  0  0  0  0  0  0
    7.1477  -13.7180   25.9579 C   0  0  2  0  0  0  0  0  0  0  0  0
    6.4838  -12.6098   25.1263 C   0  0  0  0  0  0  0  0  0  0  0  0
    8.4002  -14.1028   25.2340 C   0  0  2  0  0  0  0  0  0  0  0  0
    8.0125  -14.5144   23.9019 N   0  0  0  0  0  0  0  0  0  0  0  0
    9.2237  -15.1153   25.9193 C   0  0  0  0  0  0  0  0  0  0  0  0
    9.5526  -16.1245   25.2423 O   0  0  0  0  0  0  0  0  0  0  0  0
    9.6595  -15.0364   27.2464 N   0  0  0  0  0  0  0  0  0  0  0  0
    9.1677  -14.1724   28.2884 C   0  0  0  0  0  0  0  0  0  0  0  0
   10.2957  -14.0417   29.2994 C   0  0  0  0  0  0  0  0  0  0  0  0
   11.4591  -14.7141   28.6035 C   0  0  0  0  0  0  0  0  0  0  0  0
   10.7108  -15.8180   27.8413 C   0  0  1  0  0  0  0  0  0  0  0  0
   10.2158  -16.7730   28.8528 C   0  0  0  0  0  0  0  0  0  0  0  0
   11.0542  -17.5848   29.6023 O   0  0  0  0  0  0  0  0  0  0  0  0
    8.9828  -16.8791   29.0683 O   0  0  0  0  0  0  0  0  0  0  0  0
  1  5  1  0
  1  2  1  0
  2  3  1  0
  4  5  1  0
  4  3  1  0
  6 12  1  0
  5  6  1  1
  7  6  2  0
  9  8  1  6
  9 10  1  0
  9 11  1  0
 11 13  1  0
 11 12  1  6
 13 15  1  0
 14 13  2  0
 15 16  1  0
 17 16  1  0
 18 17  1  0
 19 18  1  0
 19 15  1  0
 19 20  1  1
 20 22  2  0
 20 21  1  0
M  END
$$$$
