RTP.pdb
     RDKit          3D

 26 26  0  0  1  0  0  0  0  0999 V2000
   17.2685  -19.2034  -15.0142 N   0  0  0  0  0  0  0  0  0  0  0  0
   17.0900  -20.5327  -14.5811 C   0  0  0  0  0  0  0  0  0  0  0  0
   15.9639  -21.1576  -14.6639 N   0  0  0  0  0  0  0  0  0  0  0  0
   18.2238  -21.2283  -14.0171 N   0  0  0  0  0  0  0  0  0  0  0  0
   19.5344  -20.6425  -14.2606 C   0  0  0  0  0  0  0  0  0  0  0  0
   19.8285  -20.6781  -15.7337 C   0  0  0  0  0  0  0  0  0  0  0  0
   21.0933  -19.9726  -16.0531 C   0  0  0  0  0  0  0  0  0  0  0  0
   22.3463  -20.6134  -15.5954 C   0  0  2  0  0  0  0  0  0  0  0  0
   22.2408  -21.5185  -14.4874 N   0  0  0  0  0  0  0  0  0  0  0  0
   23.2610  -19.4987  -15.1459 C   0  0  0  0  0  0  0  0  0  0  0  0
   23.2055  -19.0158  -13.9860 O   0  0  0  0  0  0  0  0  0  0  0  0
   15.8585  -22.1404  -14.3386 C   0  0  0  0  0  0  0  0  0  0  0  0
   26.4406  -19.5161  -14.3529 C   0  0  2  0  0  0  0  0  0  0  0  0
   26.4957  -18.5756  -15.5717 O   0  0  0  0  0  0  0  0  0  0  0  0
   26.6171  -19.4420  -16.6674 C   0  0  2  0  0  0  0  0  0  0  0  0
   25.1385  -17.8887  -15.5724 N   0  0  0  0  0  0  0  0  0  0  0  0
   24.2203  -18.9548  -16.0221 C   0  0  0  0  0  0  0  0  0  0  0  0
   25.0304  -16.7725  -16.5061 O   0  0  0  0  0  0  0  0  0  0  0  0
   24.3634  -16.9685  -17.5836 N   0  0  0  0  0  0  0  0  0  0  0  0
   25.5806  -15.4797  -16.3617 C   0  0  0  0  0  0  0  0  0  0  0  0
   26.4825  -15.0267  -15.2937 C   0  0  0  0  0  0  0  0  0  0  0  0
   25.8755  -13.7148  -14.9130 C   0  0  0  0  0  0  0  0  0  0  0  0
   25.4306  -13.1328  -16.2353 C   0  0  1  0  0  0  0  0  0  0  0  0
   25.4230  -14.3190  -17.2013 C   0  0  0  0  0  0  0  0  0  0  0  0
   26.6002  -14.2281  -18.1094 O   0  0  0  0  0  0  0  0  0  0  0  0
   26.6729  -13.2443  -19.0547 O   0  0  0  0  0  0  0  0  0  0  0  0
  2  1  1  0
  3  2  2  0
  4  2  1  0
  5  6  1  0
  5  4  1  0
  7  6  1  0
  8  7  1  0
  8  9  1  1
 10  8  1  0
 11 10  2  0
 13 12  1  1
 13 15  1  0
 14 13  1  0
 15 17  1  0
 15 16  1  1
 16 10  1  0
 17 18  2  0
 19 20  1  0
 19 17  1  0
 21 20  1  0
 22 21  1  0
 22 23  1  0
 23 19  1  0
 23 24  1  6
 24 25  1  0
 26 24  2  0
M  END
$$$$
