RTP.pdb
     RDKit          3D

 26 26  0  0  1  0  0  0  0  0999 V2000
   23.6573  -21.5262   -6.6570 N   0  0  0  0  0  0  0  0  0  0  0  0
   22.3931  -21.3501   -7.2547 C   0  0  0  0  0  0  0  0  0  0  0  0
   21.2922  -21.3161   -6.5824 N   0  0  0  0  0  0  0  0  0  0  0  0
   22.3282  -21.2007   -8.6903 N   0  0  0  0  0  0  0  0  0  0  0  0
   23.5125  -21.5944   -9.4404 C   0  0  0  0  0  0  0  0  0  0  0  0
   24.5449  -20.5069   -9.3455 C   0  0  0  0  0  0  0  0  0  0  0  0
   25.4341  -20.4959  -10.5324 C   0  0  0  0  0  0  0  0  0  0  0  0
   24.8607  -19.9630  -11.7883 C   0  0  2  0  0  0  0  0  0  0  0  0
   23.9859  -20.8342  -12.5188 N   0  0  0  0  0  0  0  0  0  0  0  0
   26.0258  -19.6685  -12.7031 C   0  0  0  0  0  0  0  0  0  0  0  0
   26.9893  -18.9438  -12.3454 O   0  0  0  0  0  0  0  0  0  0  0  0
   20.3718  -21.1742   -7.0466 C   0  0  0  0  0  0  0  0  0  0  0  0
   28.0483  -21.8958  -14.6974 C   0  0  2  0  0  0  0  0  0  0  0  0
   27.4347  -20.9673  -15.7625 O   0  0  0  0  0  0  0  0  0  0  0  0
   26.2877  -21.6500  -16.1919 C   0  0  2  0  0  0  0  0  0  0  0  0
   27.0599  -19.7120  -14.9895 N   0  0  0  0  0  0  0  0  0  0  0  0
   26.0736  -20.2027  -14.0055 C   0  0  0  0  0  0  0  0  0  0  0  0
   26.4205  -18.6778  -15.7964 O   0  0  0  0  0  0  0  0  0  0  0  0
   25.1481  -18.5549  -15.6955 N   0  0  0  0  0  0  0  0  0  0  0  0
   27.0464  -17.7801  -16.6892 C   0  0  0  0  0  0  0  0  0  0  0  0
   28.4744  -17.7412  -17.0337 C   0  0  0  0  0  0  0  0  0  0  0  0
   28.7745  -16.2798  -16.9408 C   0  0  0  0  0  0  0  0  0  0  0  0
   27.5348  -15.6263  -17.5073 C   0  0  1  0  0  0  0  0  0  0  0  0
   26.4678  -16.7223  -17.4788 C   0  0  0  0  0  0  0  0  0  0  0  0
   26.2417  -17.2318  -18.8601 O   0  0  0  0  0  0  0  0  0  0  0  0
   25.4476  -16.5427  -19.7325 O   0  0  0  0  0  0  0  0  0  0  0  0
  2  1  1  0
  3  2  2  0
  4  2  1  0
  5  6  1  0
  5  4  1  0
  7  6  1  0
  8  7  1  0
  8  9  1  6
 10  8  1  0
 11 10  2  0
 13 12  1  6
 13 15  1  0
 14 13  1  0
 15 17  1  0
 15 16  1  6
 16 10  1  0
 17 18  2  0
 19 20  1  0
 19 17  1  0
 21 20  1  0
 22 21  1  0
 22 23  1  0
 23 19  1  0
 23 24  1  6
 24 25  1  0
 26 24  2  0
M  END
$$$$
