RTP.pdb
     RDKit          3D

 26 26  0  0  1  0  0  0  0  0999 V2000
   15.7479  -17.8323  -14.4275 N   0  0  0  0  0  0  0  0  0  0  0  0
   16.2052  -18.9376  -15.1727 C   0  0  0  0  0  0  0  0  0  0  0  0
   15.4397  -19.9118  -15.5338 N   0  0  0  0  0  0  0  0  0  0  0  0
   17.5992  -18.9810  -15.5500 N   0  0  0  0  0  0  0  0  0  0  0  0
   18.3270  -17.7208  -15.5000 C   0  0  0  0  0  0  0  0  0  0  0  0
   18.2403  -17.0436  -16.8385 C   0  0  0  0  0  0  0  0  0  0  0  0
   18.9430  -15.7376  -16.8339 C   0  0  0  0  0  0  0  0  0  0  0  0
   18.9136  -14.9621  -18.0940 C   0  0  2  0  0  0  0  0  0  0  0  0
   19.2552  -15.6688  -19.2948 N   0  0  0  0  0  0  0  0  0  0  0  0
   19.9360  -13.8603  -17.9459 C   0  0  0  0  0  0  0  0  0  0  0  0
   21.1582  -14.0481  -18.1748 O   0  0  0  0  0  0  0  0  0  0  0  0
   15.8170  -20.7563  -16.0107 C   0  0  0  0  0  0  0  0  0  0  0  0
   20.0074  -11.0061  -19.7679 C   0  0  2  0  0  0  0  0  0  0  0  0
   19.9423  -10.3976  -18.3541 O   0  0  0  0  0  0  0  0  0  0  0  0
   18.5699  -10.2487  -18.1086 C   0  0  2  0  0  0  0  0  0  0  0  0
   20.5388  -11.4731  -17.4590 N   0  0  0  0  0  0  0  0  0  0  0  0
   19.5502  -12.5676  -17.5408 C   0  0  0  0  0  0  0  0  0  0  0  0
   20.6711  -11.0843  -16.0588 O   0  0  0  0  0  0  0  0  0  0  0  0
   19.7174  -11.4080  -15.2651 N   0  0  0  0  0  0  0  0  0  0  0  0
   21.7428  -10.3835  -15.4629 C   0  0  0  0  0  0  0  0  0  0  0  0
   22.9460   -9.8824  -16.1417 C   0  0  0  0  0  0  0  0  0  0  0  0
   24.0297  -10.3130  -15.2066 C   0  0  0  0  0  0  0  0  0  0  0  0
   23.4240  -10.0981  -13.8384 C   0  0  1  0  0  0  0  0  0  0  0  0
   21.9202   -9.9761  -14.0918 C   0  0  0  0  0  0  0  0  0  0  0  0
   21.5087   -8.5502  -13.9645 O   0  0  0  0  0  0  0  0  0  0  0  0
   21.3581   -7.9790  -12.7326 O   0  0  0  0  0  0  0  0  0  0  0  0
  2  1  1  0
  3  2  2  0
  4  2  1  0
  5  6  1  0
  5  4  1  0
  7  6  1  0
  8  7  1  0
  8  9  1  6
 10  8  1  0
 11 10  2  0
 13 12  1  6
 13 15  1  0
 14 13  1  0
 15 17  1  0
 15 16  1  1
 16 10  1  0
 17 18  2  0
 19 20  1  0
 19 17  1  0
 21 20  1  0
 22 21  1  0
 22 23  1  0
 23 19  1  0
 23 24  1  6
 24 25  1  0
 26 24  2  0
M  END
$$$$
