RTP.pdb
     RDKit          3D

 26 26  0  0  1  0  0  0  0  0999 V2000
   18.9708  -20.8087  -11.8037 N   0  0  0  0  0  0  0  0  0  0  0  0
   19.2176  -21.7589  -10.7926 C   0  0  0  0  0  0  0  0  0  0  0  0
   18.4191  -21.9562   -9.7982 N   0  0  0  0  0  0  0  0  0  0  0  0
   20.4239  -22.5499  -10.8745 N   0  0  0  0  0  0  0  0  0  0  0  0
   21.6580  -21.9012  -10.4546 C   0  0  0  0  0  0  0  0  0  0  0  0
   21.9055  -20.6975  -11.3192 C   0  0  0  0  0  0  0  0  0  0  0  0
   23.1683  -20.0129  -10.9500 C   0  0  0  0  0  0  0  0  0  0  0  0
   24.3649  -20.8679  -10.7853 C   0  0  2  0  0  0  0  0  0  0  0  0
   24.9047  -20.9741   -9.4605 N   0  0  0  0  0  0  0  0  0  0  0  0
   25.4518  -20.2567  -11.6377 C   0  0  0  0  0  0  0  0  0  0  0  0
   26.2011  -19.3419  -11.2097 O   0  0  0  0  0  0  0  0  0  0  0  0
   18.6356  -22.6480   -9.0515 C   0  0  0  0  0  0  0  0  0  0  0  0
   28.4972  -20.6329  -15.3079 C   0  0  2  0  0  0  0  0  0  0  0  0
   27.5643  -21.2302  -14.2374 O   0  0  0  0  0  0  0  0  0  0  0  0
   28.4302  -21.6092  -13.2017 C   0  0  1  0  0  0  0  0  0  0  0  0
   26.6905  -20.0602  -13.8115 N   0  0  0  0  0  0  0  0  0  0  0  0
   25.6660  -20.6963  -12.9585 C   0  0  0  0  0  0  0  0  0  0  0  0
   26.0101  -19.3863  -14.9126 O   0  0  0  0  0  0  0  0  0  0  0  0
   24.9307  -19.9204  -15.3530 N   0  0  0  0  0  0  0  0  0  0  0  0
   26.4043  -18.1952  -15.5612 C   0  0  0  0  0  0  0  0  0  0  0  0
   27.6588  -17.4589  -15.3526 C   0  0  0  0  0  0  0  0  0  0  0  0
   27.1744  -16.0491  -15.2424 C   0  0  0  0  0  0  0  0  0  0  0  0
   26.0652  -15.9739  -16.2667 C   0  0  1  0  0  0  0  0  0  0  0  0
   25.7150  -17.4317  -16.5709 C   0  0  0  0  0  0  0  0  0  0  0  0
   26.2628  -17.8067  -17.9043 O   0  0  0  0  0  0  0  0  0  0  0  0
   25.6528  -17.3801  -19.0499 O   0  0  0  0  0  0  0  0  0  0  0  0
  2  1  1  0
  3  2  2  0
  4  2  1  0
  5  6  1  0
  5  4  1  0
  7  6  1  0
  8  7  1  0
  8  9  1  1
 10  8  1  0
 11 10  2  0
 13 12  1  6
 13 15  1  0
 14 13  1  0
 15 17  1  0
 15 16  1  6
 16 10  1  0
 17 18  2  0
 19 20  1  0
 19 17  1  0
 21 20  1  0
 22 21  1  0
 22 23  1  0
 23 19  1  0
 23 24  1  6
 24 25  1  0
 26 24  2  0
M  END
$$$$
