RTP.pdb
     RDKit          3D

 26 26  0  0  1  0  0  0  0  0999 V2000
   19.3537  -22.3756  -11.6438 N   0  0  0  0  0  0  0  0  0  0  0  0
   19.2783  -22.3309  -13.0504 C   0  0  0  0  0  0  0  0  0  0  0  0
   18.1654  -22.3945  -13.7008 N   0  0  0  0  0  0  0  0  0  0  0  0
   20.5076  -22.2079  -13.7995 N   0  0  0  0  0  0  0  0  0  0  0  0
   21.7230  -21.9952  -13.0264 C   0  0  0  0  0  0  0  0  0  0  0  0
   21.6436  -20.6652  -12.3319 C   0  0  0  0  0  0  0  0  0  0  0  0
   22.8698  -20.3883  -11.5450 C   0  0  0  0  0  0  0  0  0  0  0  0
   24.1613  -20.5310  -12.2536 C   0  0  2  0  0  0  0  0  0  0  0  0
   24.1803  -21.4056  -13.3904 N   0  0  0  0  0  0  0  0  0  0  0  0
   25.1377  -21.1101  -11.2573 C   0  0  0  0  0  0  0  0  0  0  0  0
   25.2417  -22.3488  -11.0668 O   0  0  0  0  0  0  0  0  0  0  0  0
   18.1387  -22.3899  -14.7411 C   0  0  0  0  0  0  0  0  0  0  0  0
   28.4180  -21.1231  -11.4997 C   0  0  2  0  0  0  0  0  0  0  0  0
   28.3014  -20.3598  -10.1667 O   0  0  0  0  0  0  0  0  0  0  0  0
   28.2167  -19.0136  -10.5494 C   0  0  2  0  0  0  0  0  0  0  0  0
   26.9832  -20.8393   -9.5782 N   0  0  0  0  0  0  0  0  0  0  0  0
   25.9761  -20.2714  -10.4975 C   0  0  0  0  0  0  0  0  0  0  0  0
   26.7067  -20.3381   -8.2359 O   0  0  0  0  0  0  0  0  0  0  0  0
   25.5562  -19.8107   -8.0296 N   0  0  0  0  0  0  0  0  0  0  0  0
   27.5688  -20.3663   -7.1176 C   0  0  0  0  0  0  0  0  0  0  0  0
   28.9206  -20.9403   -7.0688 C   0  0  0  0  0  0  0  0  0  0  0  0
   28.8811  -21.7147   -5.7909 C   0  0  0  0  0  0  0  0  0  0  0  0
   28.0765  -20.8310   -4.8652 C   0  0  1  0  0  0  0  0  0  0  0  0
   27.3636  -19.8430   -5.7904 C   0  0  0  0  0  0  0  0  0  0  0  0
   28.0243  -18.5111   -5.6992 O   0  0  0  0  0  0  0  0  0  0  0  0
   27.8381  -17.7180   -4.6024 O   0  0  0  0  0  0  0  0  0  0  0  0
  2  1  1  0
  3  2  2  0
  4  2  1  0
  5  6  1  0
  5  4  1  0
  7  6  1  0
  8  7  1  0
  8  9  1  6
 10  8  1  0
 11 10  2  0
 13 12  1  1
 13 15  1  0
 14 13  1  0
 15 17  1  0
 15 16  1  1
 16 10  1  0
 17 18  2  0
 19 20  1  0
 19 17  1  0
 21 20  1  0
 22 21  1  0
 22 23  1  0
 23 19  1  0
 23 24  1  6
 24 25  1  0
 26 24  2  0
M  END
$$$$
