RTP.pdb
     RDKit          3D

 26 26  0  0  1  0  0  0  0  0999 V2000
   20.2198  -23.1937   -8.5626 N   0  0  0  0  0  0  0  0  0  0  0  0
   19.5644  -23.4000   -9.7931 C   0  0  0  0  0  0  0  0  0  0  0  0
   18.3759  -23.8942   -9.8866 N   0  0  0  0  0  0  0  0  0  0  0  0
   20.2582  -23.0403  -11.0084 N   0  0  0  0  0  0  0  0  0  0  0  0
   21.5727  -22.4338  -10.8528 C   0  0  0  0  0  0  0  0  0  0  0  0
   21.5204  -21.0075  -11.3224 C   0  0  0  0  0  0  0  0  0  0  0  0
   22.8539  -20.3623  -11.2519 C   0  0  0  0  0  0  0  0  0  0  0  0
   24.0268  -21.2304  -11.4988 C   0  0  2  0  0  0  0  0  0  0  0  0
   24.6690  -21.7909  -10.3450 N   0  0  0  0  0  0  0  0  0  0  0  0
   25.0624  -20.3708  -12.1842 C   0  0  0  0  0  0  0  0  0  0  0  0
   25.8779  -19.6644  -11.5380 O   0  0  0  0  0  0  0  0  0  0  0  0
   17.9133  -24.0362  -10.8079 C   0  0  0  0  0  0  0  0  0  0  0  0
   27.7288  -21.3036  -13.6029 C   0  0  2  0  0  0  0  0  0  0  0  0
   27.1210  -20.6153  -14.8398 O   0  0  0  0  0  0  0  0  0  0  0  0
   26.3731  -21.6257  -15.4608 C   0  0  2  0  0  0  0  0  0  0  0  0
   26.2087  -19.5457  -14.2589 N   0  0  0  0  0  0  0  0  0  0  0  0
   25.1514  -20.3304  -13.5893 C   0  0  0  0  0  0  0  0  0  0  0  0
   25.5757  -18.6892  -15.2565 O   0  0  0  0  0  0  0  0  0  0  0  0
   24.3540  -18.9379  -15.5563 N   0  0  0  0  0  0  0  0  0  0  0  0
   26.1573  -17.5997  -15.9417 C   0  0  0  0  0  0  0  0  0  0  0  0
   27.5334  -17.1061  -15.7930 C   0  0  0  0  0  0  0  0  0  0  0  0
   27.3224  -15.6297  -15.6924 C   0  0  0  0  0  0  0  0  0  0  0  0
   26.2068  -15.3628  -16.6769 C   0  0  1  0  0  0  0  0  0  0  0  0
   25.5819  -16.7341  -16.9401 C   0  0  0  0  0  0  0  0  0  0  0  0
   25.9983  -17.2203  -18.2851 O   0  0  0  0  0  0  0  0  0  0  0  0
   25.4624  -16.6739  -19.4169 O   0  0  0  0  0  0  0  0  0  0  0  0
  2  1  1  0
  3  2  2  0
  4  2  1  0
  5  6  1  0
  5  4  1  0
  7  6  1  0
  8  7  1  0
  8  9  1  1
 10  8  1  0
 11 10  2  0
 13 12  1  6
 13 15  1  0
 14 13  1  0
 15 17  1  0
 15 16  1  6
 16 10  1  0
 17 18  2  0
 19 20  1  0
 19 17  1  0
 21 20  1  0
 22 21  1  0
 22 23  1  0
 23 19  1  0
 23 24  1  6
 24 25  1  0
 26 24  2  0
M  END
$$$$
