RTP.pdb
     RDKit          3D

 26 26  0  0  1  0  0  0  0  0999 V2000
   44.1598  -17.5324   -5.8275 N   0  0  0  0  0  0  0  0  0  0  0  0
   44.4862  -17.8948   -7.1498 C   0  0  0  0  0  0  0  0  0  0  0  0
   44.5883  -19.1200   -7.5419 N   0  0  0  0  0  0  0  0  0  0  0  0
   44.7175  -16.8422   -8.1121 N   0  0  0  0  0  0  0  0  0  0  0  0
   44.1091  -15.5510   -7.8241 C   0  0  0  0  0  0  0  0  0  0  0  0
   44.3925  -14.6047   -8.9562 C   0  0  0  0  0  0  0  0  0  0  0  0
   43.8326  -13.2571   -8.6920 C   0  0  0  0  0  0  0  0  0  0  0  0
   42.3996  -13.0592   -9.0046 C   0  0  2  0  0  0  0  0  0  0  0  0
   41.9411  -13.5540  -10.2706 N   0  0  0  0  0  0  0  0  0  0  0  0
   42.1646  -11.5673   -9.0227 C   0  0  0  0  0  0  0  0  0  0  0  0
   42.0923  -10.9156  -10.0959 O   0  0  0  0  0  0  0  0  0  0  0  0
   44.8744  -19.3617   -8.5128 C   0  0  0  0  0  0  0  0  0  0  0  0
   39.4823  -10.0529   -7.4241 C   0  0  2  0  0  0  0  0  0  0  0  0
   40.6362   -9.2184   -6.8368 O   0  0  0  0  0  0  0  0  0  0  0  0
   40.9409   -9.8591   -5.6274 C   0  0  2  0  0  0  0  0  0  0  0  0
   41.7667   -9.3898   -7.8401 N   0  0  0  0  0  0  0  0  0  0  0  0
   42.0165  -10.8455   -7.8224 C   0  0  0  0  0  0  0  0  0  0  0  0
   43.0052   -8.7119   -7.4715 O   0  0  0  0  0  0  0  0  0  0  0  0
   43.8958   -9.4034   -6.8607 N   0  0  0  0  0  0  0  0  0  0  0  0
   43.3467   -7.3627   -7.7125 C   0  0  0  0  0  0  0  0  0  0  0  0
   42.4974   -6.3447   -8.3463 C   0  0  0  0  0  0  0  0  0  0  0  0
   43.4467   -5.7066   -9.3086 C   0  0  0  0  0  0  0  0  0  0  0  0
   44.7511   -5.6659   -8.5459 C   0  0  1  0  0  0  0  0  0  0  0  0
   44.5616   -6.6554   -7.3947 C   0  0  0  0  0  0  0  0  0  0  0  0
   44.3548   -5.9061   -6.1241 O   0  0  0  0  0  0  0  0  0  0  0  0
   45.4206   -5.3967   -5.4378 O   0  0  0  0  0  0  0  0  0  0  0  0
  2  1  1  0
  3  2  2  0
  4  2  1  0
  5  6  1  0
  5  4  1  0
  7  6  1  0
  8  7  1  0
  8  9  1  6
 10  8  1  0
 11 10  2  0
 13 12  1  1
 13 15  1  0
 14 13  1  0
 15 17  1  0
 15 16  1  6
 16 10  1  0
 17 18  2  0
 19 20  1  0
 19 17  1  0
 21 20  1  0
 22 21  1  0
 22 23  1  0
 23 19  1  0
 23 24  1  1
 24 25  1  0
 26 24  2  0
M  END
$$$$
