RTP.pdb
     RDKit          3D

 26 26  0  0  1  0  0  0  0  0999 V2000
   17.6911  -23.7766  -13.8025 N   0  0  0  0  0  0  0  0  0  0  0  0
   18.3319  -24.6482  -12.8993 C   0  0  0  0  0  0  0  0  0  0  0  0
   17.8386  -25.7871  -12.5456 N   0  0  0  0  0  0  0  0  0  0  0  0
   19.6031  -24.2458  -12.3428 N   0  0  0  0  0  0  0  0  0  0  0  0
   19.6715  -22.9059  -11.7770 C   0  0  0  0  0  0  0  0  0  0  0  0
   19.5661  -21.8937  -12.8825 C   0  0  0  0  0  0  0  0  0  0  0  0
   20.7404  -20.9881  -12.9047 C   0  0  0  0  0  0  0  0  0  0  0  0
   21.7300  -21.2084  -13.9828 C   0  0  2  0  0  0  0  0  0  0  0  0
   22.2059  -22.5504  -14.1574 N   0  0  0  0  0  0  0  0  0  0  0  0
   22.9389  -20.3722  -13.6355 C   0  0  0  0  0  0  0  0  0  0  0  0
   22.8346  -19.2172  -13.1490 O   0  0  0  0  0  0  0  0  0  0  0  0
   18.3514  -26.4317  -11.9098 C   0  0  0  0  0  0  0  0  0  0  0  0
   25.8427  -21.2637  -11.7231 C   0  0  2  0  0  0  0  0  0  0  0  0
   26.4625  -20.8739  -13.0785 O   0  0  0  0  0  0  0  0  0  0  0  0
   26.5692  -22.0899  -13.7684 C   0  0  2  0  0  0  0  0  0  0  0  0
   25.4157  -19.9768  -13.7214 N   0  0  0  0  0  0  0  0  0  0  0  0
   24.2415  -20.8640  -13.8474 C   0  0  0  0  0  0  0  0  0  0  0  0
   25.7698  -19.4999  -15.0542 O   0  0  0  0  0  0  0  0  0  0  0  0
   25.2682  -20.1243  -16.0557 N   0  0  0  0  0  0  0  0  0  0  0  0
   26.6119  -18.4134  -15.3786 C   0  0  0  0  0  0  0  0  0  0  0  0
   27.4084  -17.6124  -14.4387 C   0  0  0  0  0  0  0  0  0  0  0  0
   27.1175  -16.2196  -14.8969 C   0  0  0  0  0  0  0  0  0  0  0  0
   27.0733  -16.3434  -16.4028 C   0  0  1  0  0  0  0  0  0  0  0  0
   26.9131  -17.8418  -16.6669 C   0  0  0  0  0  0  0  0  0  0  0  0
   28.2076  -18.4037  -17.1434 O   0  0  0  0  0  0  0  0  0  0  0  0
   28.7270  -18.0243  -18.3487 O   0  0  0  0  0  0  0  0  0  0  0  0
  2  1  1  0
  3  2  2  0
  4  2  1  0
  5  6  1  0
  5  4  1  0
  7  6  1  0
  8  7  1  0
  8  9  1  1
 10  8  1  0
 11 10  2  0
 13 12  1  1
 13 15  1  0
 14 13  1  0
 15 17  1  0
 15 16  1  6
 16 10  1  0
 17 18  2  0
 19 20  1  0
 19 17  1  0
 21 20  1  0
 22 21  1  0
 22 23  1  0
 23 19  1  0
 23 24  1  1
 24 25  1  0
 26 24  2  0
M  END
$$$$
