RTP.pdb
     RDKit          3D

 26 26  0  0  1  0  0  0  0  0999 V2000
   18.6178  -21.7205  -14.2591 N   0  0  0  0  0  0  0  0  0  0  0  0
   18.9401  -22.2551  -12.9955 C   0  0  0  0  0  0  0  0  0  0  0  0
   18.2382  -23.1693  -12.4151 N   0  0  0  0  0  0  0  0  0  0  0  0
   20.1137  -21.7540  -12.3180 N   0  0  0  0  0  0  0  0  0  0  0  0
   20.8098  -20.6449  -12.9549 C   0  0  0  0  0  0  0  0  0  0  0  0
   22.0183  -20.2826  -12.1388 C   0  0  0  0  0  0  0  0  0  0  0  0
   23.0258  -21.3709  -12.1459 C   0  0  0  0  0  0  0  0  0  0  0  0
   24.2088  -21.1879  -11.2757 C   0  0  2  0  0  0  0  0  0  0  0  0
   23.9612  -20.7367   -9.9367 N   0  0  0  0  0  0  0  0  0  0  0  0
   25.0640  -20.1278  -11.9285 C   0  0  0  0  0  0  0  0  0  0  0  0
   25.2227  -18.9897  -11.4176 O   0  0  0  0  0  0  0  0  0  0  0  0
   18.4643  -23.5070  -11.4571 C   0  0  0  0  0  0  0  0  0  0  0  0
   28.4777  -20.6019  -12.7153 C   0  0  2  0  0  0  0  0  0  0  0  0
   27.8732  -20.2232  -14.0807 O   0  0  0  0  0  0  0  0  0  0  0  0
   27.4948  -21.4520  -14.6401 C   0  0  2  0  0  0  0  0  0  0  0  0
   26.6508  -19.3898  -13.7274 N   0  0  0  0  0  0  0  0  0  0  0  0
   25.7217  -20.3812  -13.1479 C   0  0  0  0  0  0  0  0  0  0  0  0
   25.9952  -18.7687  -14.8737 O   0  0  0  0  0  0  0  0  0  0  0  0
   24.9415  -19.3395  -15.3299 N   0  0  0  0  0  0  0  0  0  0  0  0
   26.3884  -17.5934  -15.5511 C   0  0  0  0  0  0  0  0  0  0  0  0
   27.5863  -16.7864  -15.2805 C   0  0  0  0  0  0  0  0  0  0  0  0
   27.0310  -15.3985  -15.2865 C   0  0  0  0  0  0  0  0  0  0  0  0
   26.0100  -15.4298  -16.4008 C   0  0  1  0  0  0  0  0  0  0  0  0
   25.7531  -16.9165  -16.6535 C   0  0  0  0  0  0  0  0  0  0  0  0
   26.4279  -17.3301  -17.9154 O   0  0  0  0  0  0  0  0  0  0  0  0
   25.9117  -16.9706  -19.1282 O   0  0  0  0  0  0  0  0  0  0  0  0
  2  1  1  0
  3  2  2  0
  4  2  1  0
  5  6  1  0
  5  4  1  0
  7  6  1  0
  8  7  1  0
  8  9  1  1
 10  8  1  0
 11 10  2  0
 13 12  1  6
 13 15  1  0
 14 13  1  0
 15 17  1  0
 15 16  1  6
 16 10  1  0
 17 18  2  0
 19 20  1  0
 19 17  1  0
 21 20  1  0
 22 21  1  0
 22 23  1  0
 23 19  1  0
 23 24  1  6
 24 25  1  0
 26 24  2  0
M  END
$$$$
