RTP.pdb
     RDKit          3D

 26 26  0  0  1  0  0  0  0  0999 V2000
   18.8297  -13.6457  -19.1105 N   0  0  0  0  0  0  0  0  0  0  0  0
   18.9993  -15.0143  -18.8200 C   0  0  0  0  0  0  0  0  0  0  0  0
   18.0186  -15.8025  -18.5328 N   0  0  0  0  0  0  0  0  0  0  0  0
   20.3368  -15.5601  -18.8451 N   0  0  0  0  0  0  0  0  0  0  0  0
   21.3641  -14.7384  -19.4694 C   0  0  0  0  0  0  0  0  0  0  0  0
   22.5903  -14.7314  -18.6011 C   0  0  0  0  0  0  0  0  0  0  0  0
   23.6570  -13.8744  -19.1731 C   0  0  0  0  0  0  0  0  0  0  0  0
   24.9535  -13.8609  -18.4595 C   0  0  2  0  0  0  0  0  0  0  0  0
   25.4766  -15.1316  -18.0477 N   0  0  0  0  0  0  0  0  0  0  0  0
   24.7419  -13.0605  -17.1963 C   0  0  0  0  0  0  0  0  0  0  0  0
   24.5133  -13.6096  -16.0882 O   0  0  0  0  0  0  0  0  0  0  0  0
   18.1773  -16.7851  -18.2293 C   0  0  0  0  0  0  0  0  0  0  0  0
   26.9553  -11.2691  -15.5640 C   0  0  2  0  0  0  0  0  0  0  0  0
   25.9368  -10.1431  -15.8245 O   0  0  0  0  0  0  0  0  0  0  0  0
   26.3450   -9.5880  -17.0456 C   0  0  2  0  0  0  0  0  0  0  0  0
   24.6097  -10.8707  -15.9773 N   0  0  0  0  0  0  0  0  0  0  0  0
   24.7939  -11.6532  -17.2165 C   0  0  0  0  0  0  0  0  0  0  0  0
   23.4600   -9.9913  -16.1621 O   0  0  0  0  0  0  0  0  0  0  0  0
   23.1267   -9.7030  -17.3663 N   0  0  0  0  0  0  0  0  0  0  0  0
   22.6560   -9.4112  -15.1562 C   0  0  0  0  0  0  0  0  0  0  0  0
   22.8009   -9.5948  -13.7055 C   0  0  0  0  0  0  0  0  0  0  0  0
   21.3886   -9.8422  -13.2832 C   0  0  0  0  0  0  0  0  0  0  0  0
   20.5881   -8.8991  -14.1521 C   0  0  1  0  0  0  0  0  0  0  0  0
   21.5400   -8.5081  -15.2841 C   0  0  0  0  0  0  0  0  0  0  0  0
   22.0282   -7.1180  -15.0652 O   0  0  0  0  0  0  0  0  0  0  0  0
   21.1976   -6.0516  -15.2641 O   0  0  0  0  0  0  0  0  0  0  0  0
  2  1  1  0
  3  2  2  0
  4  2  1  0
  5  6  1  0
  5  4  1  0
  7  6  1  0
  8  7  1  0
  8  9  1  1
 10  8  1  0
 11 10  2  0
 13 12  1  1
 13 15  1  0
 14 13  1  0
 15 17  1  0
 15 16  1  1
 16 10  1  0
 17 18  2  0
 19 20  1  0
 19 17  1  0
 21 20  1  0
 22 21  1  0
 22 23  1  0
 23 19  1  0
 23 24  1  1
 24 25  1  0
 26 24  2  0
M  END
$$$$
