RTP.pdb
     RDKit          3D

 26 26  0  0  1  0  0  0  0  0999 V2000
   20.6277  -21.5848  -11.9047 N   0  0  0  0  0  0  0  0  0  0  0  0
   20.0616  -21.5127  -10.6161 C   0  0  0  0  0  0  0  0  0  0  0  0
   18.9293  -22.0511  -10.3106 N   0  0  0  0  0  0  0  0  0  0  0  0
   20.7853  -20.8008   -9.5880 N   0  0  0  0  0  0  0  0  0  0  0  0
   22.0127  -20.1336   -9.9985 C   0  0  0  0  0  0  0  0  0  0  0  0
   23.0976  -21.1572  -10.1798 C   0  0  0  0  0  0  0  0  0  0  0  0
   23.8388  -20.9458  -11.4469 C   0  0  0  0  0  0  0  0  0  0  0  0
   25.2984  -21.1875  -11.4120 C   0  0  2  0  0  0  0  0  0  0  0  0
   25.9214  -21.1899  -10.1198 N   0  0  0  0  0  0  0  0  0  0  0  0
   25.9402  -20.0628  -12.1894 C   0  0  0  0  0  0  0  0  0  0  0  0
   26.4596  -19.0689  -11.6203 O   0  0  0  0  0  0  0  0  0  0  0  0
   18.5189  -21.9594   -9.3587 C   0  0  0  0  0  0  0  0  0  0  0  0
   28.6080  -20.5078  -14.0764 C   0  0  2  0  0  0  0  0  0  0  0  0
   27.7255  -19.8455  -15.1513 O   0  0  0  0  0  0  0  0  0  0  0  0
   27.1152  -20.9250  -15.8058 C   0  0  2  0  0  0  0  0  0  0  0  0
   26.7043  -19.0484  -14.3541 N   0  0  0  0  0  0  0  0  0  0  0  0
   25.9793  -20.0891  -13.5971 C   0  0  0  0  0  0  0  0  0  0  0  0
   25.7365  -18.3240  -15.1714 O   0  0  0  0  0  0  0  0  0  0  0  0
   24.5979  -18.8802  -15.3674 N   0  0  0  0  0  0  0  0  0  0  0  0
   25.9064  -17.0615  -15.7814 C   0  0  0  0  0  0  0  0  0  0  0  0
   27.1334  -16.2529  -15.7927 C   0  0  0  0  0  0  0  0  0  0  0  0
   26.6110  -14.8949  -15.4503 C   0  0  0  0  0  0  0  0  0  0  0  0
   25.2946  -14.8242  -16.1899 C   0  0  1  0  0  0  0  0  0  0  0  0
   24.9641  -16.2767  -16.5385 C   0  0  0  0  0  0  0  0  0  0  0  0
   25.2120  -16.5085  -17.9889 O   0  0  0  0  0  0  0  0  0  0  0  0
   26.3226  -17.1881  -18.4029 O   0  0  0  0  0  0  0  0  0  0  0  0
  2  1  1  0
  3  2  2  0
  4  2  1  0
  5  6  1  0
  5  4  1  0
  7  6  1  0
  8  7  1  0
  8  9  1  1
 10  8  1  0
 11 10  2  0
 13 12  1  6
 13 15  1  0
 14 13  1  0
 15 17  1  0
 15 16  1  6
 16 10  1  0
 17 18  2  0
 19 20  1  0
 19 17  1  0
 21 20  1  0
 22 21  1  0
 22 23  1  0
 23 19  1  0
 23 24  1  6
 24 25  1  0
 26 24  2  0
M  END
$$$$
