RTP.pdb
     RDKit          3D

 26 26  0  0  1  0  0  0  0  0999 V2000
   18.9458  -20.2707  -11.8679 N   0  0  0  0  0  0  0  0  0  0  0  0
   19.6128  -19.8188  -13.0243 C   0  0  0  0  0  0  0  0  0  0  0  0
   19.2136  -18.8085  -13.7210 N   0  0  0  0  0  0  0  0  0  0  0  0
   20.8012  -20.5220  -13.4494 N   0  0  0  0  0  0  0  0  0  0  0  0
   21.2553  -21.6097  -12.5945 C   0  0  0  0  0  0  0  0  0  0  0  0
   22.6945  -21.3844  -12.2262 C   0  0  0  0  0  0  0  0  0  0  0  0
   23.6037  -21.7389  -13.3430 C   0  0  0  0  0  0  0  0  0  0  0  0
   25.0541  -21.7268  -13.0493 C   0  0  2  0  0  0  0  0  0  0  0  0
   25.4384  -21.9539  -11.6860 N   0  0  0  0  0  0  0  0  0  0  0  0
   25.5545  -20.3471  -13.4061 C   0  0  0  0  0  0  0  0  0  0  0  0
   25.7162  -19.4504  -12.5393 O   0  0  0  0  0  0  0  0  0  0  0  0
   19.7042  -18.5155  -14.5906 C   0  0  0  0  0  0  0  0  0  0  0  0
   28.5592  -19.9127  -15.0953 C   0  0  2  0  0  0  0  0  0  0  0  0
   27.6199  -19.0833  -15.9913 O   0  0  0  0  0  0  0  0  0  0  0  0
   27.1993  -19.9882  -16.9764 C   0  0  2  0  0  0  0  0  0  0  0  0
   26.4666  -18.7078  -15.0733 N   0  0  0  0  0  0  0  0  0  0  0  0
   25.8613  -20.0132  -14.7396 C   0  0  0  0  0  0  0  0  0  0  0  0
   25.4427  -17.8800  -15.7025 O   0  0  0  0  0  0  0  0  0  0  0  0
   24.3681  -18.4640  -16.0879 N   0  0  0  0  0  0  0  0  0  0  0  0
   25.4941  -16.4888  -15.9402 C   0  0  0  0  0  0  0  0  0  0  0  0
   26.6359  -15.5991  -15.6869 C   0  0  0  0  0  0  0  0  0  0  0  0
   25.9796  -14.4404  -15.0080 C   0  0  0  0  0  0  0  0  0  0  0  0
   24.6700  -14.2909  -15.7480 C   0  0  1  0  0  0  0  0  0  0  0  0
   24.4869  -15.6164  -16.4896 C   0  0  0  0  0  0  0  0  0  0  0  0
   24.7708  -15.4187  -17.9384 O   0  0  0  0  0  0  0  0  0  0  0  0
   23.8685  -14.7802  -18.7414 O   0  0  0  0  0  0  0  0  0  0  0  0
  2  1  1  0
  3  2  2  0
  4  2  1  0
  5  6  1  0
  5  4  1  0
  7  6  1  0
  8  7  1  0
  8  9  1  1
 10  8  1  0
 11 10  2  0
 13 12  1  6
 13 15  1  0
 14 13  1  0
 15 17  1  0
 15 16  1  6
 16 10  1  0
 17 18  2  0
 19 20  1  0
 19 17  1  0
 21 20  1  0
 22 21  1  0
 22 23  1  0
 23 19  1  0
 23 24  1  6
 24 25  1  0
 26 24  2  0
M  END
$$$$
