RTP.pdb
     RDKit          3D

 26 26  0  0  1  0  0  0  0  0999 V2000
   19.6669  -23.3507   -9.1414 N   0  0  0  0  0  0  0  0  0  0  0  0
   18.5786  -22.6344   -9.6788 C   0  0  0  0  0  0  0  0  0  0  0  0
   17.3780  -23.1053   -9.7283 N   0  0  0  0  0  0  0  0  0  0  0  0
   18.8202  -21.3085  -10.1994 N   0  0  0  0  0  0  0  0  0  0  0  0
   19.8876  -21.1788  -11.1813 C   0  0  0  0  0  0  0  0  0  0  0  0
   21.2163  -21.2736  -10.4861 C   0  0  0  0  0  0  0  0  0  0  0  0
   22.3415  -21.1671  -11.4463 C   0  0  0  0  0  0  0  0  0  0  0  0
   23.7023  -21.3718  -10.9018 C   0  0  2  0  0  0  0  0  0  0  0  0
   23.8718  -21.1619   -9.4928 N   0  0  0  0  0  0  0  0  0  0  0  0
   24.5973  -20.3686  -11.5901 C   0  0  0  0  0  0  0  0  0  0  0  0
   24.5736  -19.1445  -11.3024 O   0  0  0  0  0  0  0  0  0  0  0  0
   16.6012  -22.5771  -10.1758 C   0  0  0  0  0  0  0  0  0  0  0  0
   28.1730  -20.9867  -11.9589 C   0  0  2  0  0  0  0  0  0  0  0  0
   27.7083  -20.6520  -13.3889 O   0  0  0  0  0  0  0  0  0  0  0  0
   27.3919  -21.8990  -13.9466 C   0  0  2  0  0  0  0  0  0  0  0  0
   26.4539  -19.8159  -13.1857 N   0  0  0  0  0  0  0  0  0  0  0  0
   25.5010  -20.7751  -12.5910 C   0  0  0  0  0  0  0  0  0  0  0  0
   25.8691  -19.3002  -14.4192 O   0  0  0  0  0  0  0  0  0  0  0  0
   24.8223  -19.8906  -14.8664 N   0  0  0  0  0  0  0  0  0  0  0  0
   26.3251  -18.2092  -15.1916 C   0  0  0  0  0  0  0  0  0  0  0  0
   27.5511  -17.4305  -14.9683 C   0  0  0  0  0  0  0  0  0  0  0  0
   27.0561  -16.0275  -15.1133 C   0  0  0  0  0  0  0  0  0  0  0  0
   26.0560  -16.1191  -16.2430 C   0  0  1  0  0  0  0  0  0  0  0  0
   25.7404  -17.6110  -16.3652 C   0  0  0  0  0  0  0  0  0  0  0  0
   26.4206  -18.1660  -17.5686 O   0  0  0  0  0  0  0  0  0  0  0  0
   25.9409  -17.9020  -18.8203 O   0  0  0  0  0  0  0  0  0  0  0  0
  2  1  1  0
  3  2  2  0
  4  2  1  0
  5  6  1  0
  5  4  1  0
  7  6  1  0
  8  7  1  0
  8  9  1  1
 10  8  1  0
 11 10  2  0
 13 12  1  6
 13 15  1  0
 14 13  1  0
 15 17  1  0
 15 16  1  6
 16 10  1  0
 17 18  2  0
 19 20  1  0
 19 17  1  0
 21 20  1  0
 22 21  1  0
 22 23  1  0
 23 19  1  0
 23 24  1  6
 24 25  1  0
 26 24  2  0
M  END
$$$$
