RIR.pdb
     RDKit          3D

 31 30  0  0  1  0  0  0  0  0999 V2000
   28.5507  -18.4918  -18.4730 N   0  0  0  0  0  0  0  0  0  0  0  0
   27.1755  -18.2086  -18.2420 C   0  0  0  0  0  0  0  0  0  0  0  0
   26.3013  -18.6104  -19.0987 N   0  0  0  0  0  0  0  0  0  0  0  0
   26.7129  -17.5011  -17.1075 N   0  0  0  0  0  0  0  0  0  0  0  0
   27.6202  -17.2070  -16.0447 C   0  0  0  0  0  0  0  0  0  0  0  0
   28.1559  -18.4013  -15.3408 C   0  0  0  0  0  0  0  0  0  0  0  0
   27.1967  -19.2278  -14.5773 C   0  0  0  0  0  0  0  0  0  0  0  0
   27.7618  -20.4141  -13.8859 C   0  0  2  0  0  0  0  0  0  0  0  0
   28.4027  -21.3747  -14.7426 N   0  0  0  0  0  0  0  0  0  0  0  0
   26.8086  -21.0717  -12.9620 C   0  0  0  0  0  0  0  0  0  0  0  0
   26.2883  -22.1606  -13.3168 O   0  0  0  0  0  0  0  0  0  0  0  0
   25.2862  -18.4072  -18.9743 C   0  0  0  0  0  0  0  0  0  0  0  0
   26.8267  -19.9257   -7.5955 C   0  0  0  0  0  0  0  0  0  0  0  0
   26.7012  -20.7928   -8.8328 C   0  0  2  0  0  0  0  0  0  0  0  0
   25.3724  -20.5341   -9.5133 C   0  0  0  0  0  0  0  0  0  0  0  0
   24.2267  -21.0708   -8.6876 C   0  0  2  0  0  0  0  0  0  0  0  0
   25.3543  -21.0803  -10.9215 N   0  0  0  0  0  0  0  0  0  0  0  0
   26.4468  -20.5517  -11.7063 C   0  0  0  0  0  0  0  0  0  0  0  0
   24.0312  -20.6604  -11.5149 O   0  0  0  0  0  0  0  0  0  0  0  0
   23.7131  -19.4441  -11.5961 N   0  0  0  0  0  0  0  0  0  0  0  0
   22.3313  -23.7984  -17.6987 C   0  0  0  0  0  0  0  0  0  0  0  0
   22.5815  -22.4228  -18.0172 N   0  0  0  0  0  0  0  0  0  0  0  0
   22.4844  -22.0728  -19.2459 N   0  0  0  0  0  0  0  0  0  0  0  0
   22.9192  -21.5298  -16.9739 C   0  0  0  0  0  0  0  0  0  0  0  0
   22.8878  -22.0407  -15.6145 C   0  0  0  0  0  0  0  0  0  0  0  0
   21.5172  -21.8055  -15.0560 C   0  0  0  0  0  0  0  0  0  0  0  0
   21.3271  -22.1779  -13.6341 C   0  0  2  0  0  0  0  0  0  0  0  0
   21.8330  -21.2337  -12.6073 N   0  0  0  0  0  0  0  0  0  0  0  0
   23.0971  -21.6109  -12.0027 C   0  0  0  0  0  0  0  0  0  0  0  0
   20.8785  -20.9088  -11.5213 O   0  0  0  0  0  0  0  0  0  0  0  0
   20.9007  -21.4702  -10.3958 O   0  0  0  0  0  0  0  0  0  0  0  0
  2  1  1  0
  3  2  2  0
  4  2  1  0
  5  4  1  0
  6  5  1  0
  7  6  1  0
  8  7  1  0
  8  9  1  6
 10  8  1  0
 10 11  2  0
 13 12  1  0
 14 16  1  0
 14 13  1  0
 14 15  1  6
 16 17  1  6
 17 10  1  0
 18 16  1  0
 19 18  2  0
 21 22  2  0
 21 20  1  0
 23 21  1  0
 24 23  1  0
 25 24  1  0
 26 25  1  0
 27 26  1  6
 27 28  1  0
 28 18  1  0
 29 31  1  0
 29 27  1  0
 30 29  2  0
M  END
$$$$
