RIR.pdb
     RDKit          3D

 31 30  0  0  1  0  0  0  0  0999 V2000
   27.1529  -25.7980  -16.9372 N   0  0  0  0  0  0  0  0  0  0  0  0
   26.2822  -25.2345  -17.9114 C   0  0  0  0  0  0  0  0  0  0  0  0
   25.7650  -26.0022  -18.8073 N   0  0  0  0  0  0  0  0  0  0  0  0
   25.9509  -23.8595  -17.9475 N   0  0  0  0  0  0  0  0  0  0  0  0
   25.9696  -23.1002  -16.7383 C   0  0  0  0  0  0  0  0  0  0  0  0
   25.1796  -23.6895  -15.6259 C   0  0  0  0  0  0  0  0  0  0  0  0
   25.0207  -22.8779  -14.4003 C   0  0  0  0  0  0  0  0  0  0  0  0
   24.8115  -21.4220  -14.6032 C   0  0  2  0  0  0  0  0  0  0  0  0
   26.0087  -20.6256  -14.6060 N   0  0  0  0  0  0  0  0  0  0  0  0
   23.7832  -20.8406  -13.7092 C   0  0  0  0  0  0  0  0  0  0  0  0
   24.1069  -20.5688  -12.5244 O   0  0  0  0  0  0  0  0  0  0  0  0
   25.1968  -25.6152  -19.5914 C   0  0  0  0  0  0  0  0  0  0  0  0
   18.8171  -17.3184  -13.4887 C   0  0  0  0  0  0  0  0  0  0  0  0
   19.5789  -18.4636  -12.8509 C   0  0  2  0  0  0  0  0  0  0  0  0
   20.6158  -18.9975  -13.8181 C   0  0  0  0  0  0  0  0  0  0  0  0
   19.9719  -19.4516  -15.1072 C   0  0  2  0  0  0  0  0  0  0  0  0
   21.4492  -20.0901  -13.1910 N   0  0  0  0  0  0  0  0  0  0  0  0
   22.4603  -20.5722  -14.1043 C   0  0  0  0  0  0  0  0  0  0  0  0
   20.4873  -21.1995  -12.8405 O   0  0  0  0  0  0  0  0  0  0  0  0
   20.1970  -22.0954  -13.6775 N   0  0  0  0  0  0  0  0  0  0  0  0
   18.5736  -25.5168   -6.1360 C   0  0  0  0  0  0  0  0  0  0  0  0
   17.3340  -25.7782   -6.8078 N   0  0  0  0  0  0  0  0  0  0  0  0
   16.8605  -26.9665   -6.7348 N   0  0  0  0  0  0  0  0  0  0  0  0
   16.7014  -24.7260   -7.5097 C   0  0  0  0  0  0  0  0  0  0  0  0
   17.4903  -23.5415   -7.8004 C   0  0  0  0  0  0  0  0  0  0  0  0
   17.8766  -23.5781   -9.2480 C   0  0  0  0  0  0  0  0  0  0  0  0
   18.7374  -22.4655   -9.7146 C   0  0  2  0  0  0  0  0  0  0  0  0
   19.0159  -22.3814  -11.1696 N   0  0  0  0  0  0  0  0  0  0  0  0
   19.8743  -21.2797  -11.5631 C   0  0  0  0  0  0  0  0  0  0  0  0
   17.8190  -22.3713  -12.0433 O   0  0  0  0  0  0  0  0  0  0  0  0
   17.0811  -21.3626  -12.1868 O   0  0  0  0  0  0  0  0  0  0  0  0
  2  1  1  0
  3  2  2  0
  4  2  1  0
  5  4  1  0
  6  5  1  0
  7  6  1  0
  8  7  1  0
  8  9  1  1
 10  8  1  0
 10 11  2  0
 13 12  1  0
 14 16  1  0
 14 13  1  0
 14 15  1  6
 16 17  1  1
 17 10  1  0
 18 16  1  0
 19 18  2  0
 21 22  2  0
 21 20  1  0
 23 21  1  0
 24 23  1  0
 25 24  1  0
 26 25  1  0
 27 26  1  1
 27 28  1  0
 28 18  1  0
 29 31  1  0
 29 27  1  0
 30 29  2  0
M  END
$$$$
