RIR.pdb
     RDKit          3D

 31 30  0  0  1  0  0  0  0  0999 V2000
   29.7864  -17.6186  -18.3703 N   0  0  0  0  0  0  0  0  0  0  0  0
   29.9691  -18.9842  -18.0148 C   0  0  0  0  0  0  0  0  0  0  0  0
   30.5069  -19.7863  -18.8675 N   0  0  0  0  0  0  0  0  0  0  0  0
   29.5868  -19.5130  -16.7594 N   0  0  0  0  0  0  0  0  0  0  0  0
   28.8133  -18.7119  -15.8656 C   0  0  0  0  0  0  0  0  0  0  0  0
   27.3424  -18.8606  -16.0176 C   0  0  0  0  0  0  0  0  0  0  0  0
   26.5841  -19.3522  -14.8473 C   0  0  0  0  0  0  0  0  0  0  0  0
   26.8491  -20.7550  -14.4392 C   0  0  2  0  0  0  0  0  0  0  0  0
   26.7444  -21.7292  -15.4915 N   0  0  0  0  0  0  0  0  0  0  0  0
   26.0884  -21.1773  -13.2402 C   0  0  0  0  0  0  0  0  0  0  0  0
   25.1229  -21.9690  -13.3941 O   0  0  0  0  0  0  0  0  0  0  0  0
   30.5711  -20.8107  -18.6834 C   0  0  0  0  0  0  0  0  0  0  0  0
   25.9890  -20.5078   -7.0319 C   0  0  0  0  0  0  0  0  0  0  0  0
   25.3101  -20.9571   -8.3108 C   0  0  2  0  0  0  0  0  0  0  0  0
   26.1546  -20.5713   -9.5081 C   0  0  0  0  0  0  0  0  0  0  0  0
   26.4323  -19.0863   -9.5201 C   0  0  2  0  0  0  0  0  0  0  0  0
   25.5287  -21.0363  -10.8018 N   0  0  0  0  0  0  0  0  0  0  0  0
   26.3795  -20.7461  -11.9336 C   0  0  0  0  0  0  0  0  0  0  0  0
   24.2212  -20.2916  -10.9241 O   0  0  0  0  0  0  0  0  0  0  0  0
   24.1925  -19.0326  -10.9615 N   0  0  0  0  0  0  0  0  0  0  0  0
   21.3253  -18.4256  -16.6737 C   0  0  0  0  0  0  0  0  0  0  0  0
   20.3113  -19.4389  -16.6392 N   0  0  0  0  0  0  0  0  0  0  0  0
   19.9871  -19.9897  -17.7496 N   0  0  0  0  0  0  0  0  0  0  0  0
   19.7250  -19.7777  -15.3976 C   0  0  0  0  0  0  0  0  0  0  0  0
   20.0335  -18.9346  -14.2556 C   0  0  0  0  0  0  0  0  0  0  0  0
   21.3666  -19.3502  -13.7116 C   0  0  0  0  0  0  0  0  0  0  0  0
   21.3588  -20.5322  -12.8175 C   0  0  2  0  0  0  0  0  0  0  0  0
   21.7462  -20.3197  -11.4010 N   0  0  0  0  0  0  0  0  0  0  0  0
   22.9789  -20.9730  -11.0018 C   0  0  0  0  0  0  0  0  0  0  0  0
   20.7020  -20.6506  -10.4030 O   0  0  0  0  0  0  0  0  0  0  0  0
   19.5806  -20.0817  -10.3669 O   0  0  0  0  0  0  0  0  0  0  0  0
  2  1  1  0
  3  2  2  0
  4  2  1  0
  5  4  1  0
  6  5  1  0
  7  6  1  0
  8  7  1  0
  8  9  1  6
 10  8  1  0
 10 11  2  0
 13 12  1  0
 14 16  1  0
 14 13  1  0
 14 15  1  6
 16 17  1  6
 17 10  1  0
 18 16  1  0
 19 18  2  0
 21 22  2  0
 21 20  1  0
 23 21  1  0
 24 23  1  0
 25 24  1  0
 26 25  1  0
 27 26  1  6
 27 28  1  0
 28 18  1  0
 29 31  1  0
 29 27  1  0
 30 29  2  0
M  END
$$$$
