RIR.pdb
     RDKit          3D

 31 30  0  0  1  0  0  0  0  0999 V2000
   27.3690  -19.9846  -19.7901 N   0  0  0  0  0  0  0  0  0  0  0  0
   26.4951  -18.9457  -20.2163 C   0  0  0  0  0  0  0  0  0  0  0  0
   26.6968  -18.3881  -21.3600 N   0  0  0  0  0  0  0  0  0  0  0  0
   25.4037  -18.4883  -19.4409 N   0  0  0  0  0  0  0  0  0  0  0  0
   25.0137  -19.2182  -18.2772 C   0  0  0  0  0  0  0  0  0  0  0  0
   24.3602  -20.5235  -18.5562 C   0  0  0  0  0  0  0  0  0  0  0  0
   23.8732  -21.3017  -17.3972 C   0  0  0  0  0  0  0  0  0  0  0  0
   24.9116  -21.7886  -16.4542 C   0  0  2  0  0  0  0  0  0  0  0  0
   25.7907  -22.7981  -16.9790 N   0  0  0  0  0  0  0  0  0  0  0  0
   24.3733  -22.1817  -15.1312 C   0  0  0  0  0  0  0  0  0  0  0  0
   23.8187  -23.3056  -15.0224 O   0  0  0  0  0  0  0  0  0  0  0  0
   26.0816  -17.6203  -21.7055 C   0  0  0  0  0  0  0  0  0  0  0  0
   24.8113  -20.8516   -9.1006 C   0  0  0  0  0  0  0  0  0  0  0  0
   24.1420  -21.6203  -10.2229 C   0  0  2  0  0  0  0  0  0  0  0  0
   24.5962  -21.0794  -11.5633 C   0  0  0  0  0  0  0  0  0  0  0  0
   24.4358  -19.5784  -11.6249 C   0  0  2  0  0  0  0  0  0  0  0  0
   23.8899  -21.7673  -12.7076 N   0  0  0  0  0  0  0  0  0  0  0  0
   24.4438  -21.3726  -13.9829 C   0  0  0  0  0  0  0  0  0  0  0  0
   22.4414  -21.3520  -12.6140 O   0  0  0  0  0  0  0  0  0  0  0  0
   22.1223  -20.1471  -12.4306 N   0  0  0  0  0  0  0  0  0  0  0  0
   18.1749  -25.9714   -7.1712 C   0  0  0  0  0  0  0  0  0  0  0  0
   17.3995  -24.7690   -7.2671 N   0  0  0  0  0  0  0  0  0  0  0  0
   16.2377  -24.7696   -6.7269 N   0  0  0  0  0  0  0  0  0  0  0  0
   17.9465  -23.6545   -7.9444 C   0  0  0  0  0  0  0  0  0  0  0  0
   19.1137  -23.8810   -8.7788 C   0  0  0  0  0  0  0  0  0  0  0  0
   19.4941  -22.5797   -9.4176 C   0  0  0  0  0  0  0  0  0  0  0  0
   20.5900  -22.6454  -10.4132 C   0  0  1  0  0  0  0  0  0  0  0  0
   20.2536  -22.3210  -11.8215 N   0  0  0  0  0  0  0  0  0  0  0  0
   21.3863  -22.2942  -12.7280 C   0  0  0  0  0  0  0  0  0  0  0  0
   19.4754  -21.0748  -12.0152 O   0  0  0  0  0  0  0  0  0  0  0  0
   20.0109  -19.9477  -12.1742 O   0  0  0  0  0  0  0  0  0  0  0  0
  2  1  1  0
  3  2  2  0
  4  2  1  0
  5  4  1  0
  6  5  1  0
  7  6  1  0
  8  7  1  0
  8  9  1  6
 10  8  1  0
 10 11  2  0
 13 12  1  0
 14 16  1  0
 14 13  1  0
 14 15  1  6
 16 17  1  6
 17 10  1  0
 18 16  1  0
 19 18  2  0
 21 22  2  0
 21 20  1  0
 23 21  1  0
 24 23  1  0
 25 24  1  0
 26 25  1  0
 27 26  1  6
 27 28  1  0
 28 18  1  0
 29 31  1  0
 29 27  1  0
 30 29  2  0
M  END
$$$$
