RIR.pdb
     RDKit          3D

 31 30  0  0  1  0  0  0  0  0999 V2000
   30.4676  -22.6754  -19.1670 N   0  0  0  0  0  0  0  0  0  0  0  0
   30.3565  -21.4381  -19.8609 C   0  0  0  0  0  0  0  0  0  0  0  0
   30.9285  -21.3103  -21.0081 N   0  0  0  0  0  0  0  0  0  0  0  0
   29.6421  -20.3284  -19.3509 N   0  0  0  0  0  0  0  0  0  0  0  0
   28.8947  -20.4691  -18.1424 C   0  0  0  0  0  0  0  0  0  0  0  0
   27.5220  -21.0091  -18.3236 C   0  0  0  0  0  0  0  0  0  0  0  0
   26.6940  -21.1827  -17.1111 C   0  0  0  0  0  0  0  0  0  0  0  0
   27.2439  -22.0848  -16.0678 C   0  0  2  0  0  0  0  0  0  0  0  0
   27.6789  -23.3720  -16.5383 N   0  0  0  0  0  0  0  0  0  0  0  0
   26.3716  -22.2159  -14.8776 C   0  0  0  0  0  0  0  0  0  0  0  0
   25.5332  -23.1534  -14.8524 O   0  0  0  0  0  0  0  0  0  0  0  0
   30.8775  -20.4170  -21.5435 C   0  0  0  0  0  0  0  0  0  0  0  0
   28.5186  -20.6760  -11.5890 C   0  0  0  0  0  0  0  0  0  0  0  0
   27.3251  -21.3347  -10.9257 C   0  0  2  0  0  0  0  0  0  0  0  0
   26.0409  -20.7177  -11.4412 C   0  0  0  0  0  0  0  0  0  0  0  0
   25.0060  -20.6237  -10.3445 C   0  0  2  0  0  0  0  0  0  0  0  0
   25.5148  -21.4580  -12.6482 N   0  0  0  0  0  0  0  0  0  0  0  0
   26.4221  -21.3529  -13.7682 C   0  0  0  0  0  0  0  0  0  0  0  0
   24.1895  -20.8181  -12.9852 O   0  0  0  0  0  0  0  0  0  0  0  0
   24.1194  -19.6025  -13.3086 N   0  0  0  0  0  0  0  0  0  0  0  0
   16.8812  -24.5524  -15.0073 C   0  0  0  0  0  0  0  0  0  0  0  0
   18.0216  -24.7999  -14.1739 N   0  0  0  0  0  0  0  0  0  0  0  0
   18.3747  -26.0193  -14.0013 N   0  0  0  0  0  0  0  0  0  0  0  0
   18.6934  -23.7009  -13.5900 C   0  0  0  0  0  0  0  0  0  0  0  0
   18.1241  -22.3799  -13.7920 C   0  0  0  0  0  0  0  0  0  0  0  0
   19.2198  -21.3684  -13.6429 C   0  0  0  0  0  0  0  0  0  0  0  0
   20.5858  -21.9172  -13.4712 C   0  0  1  0  0  0  0  0  0  0  0  0
   21.6832  -20.9510  -13.2185 N   0  0  0  0  0  0  0  0  0  0  0  0
   22.9762  -21.5534  -12.9522 C   0  0  0  0  0  0  0  0  0  0  0  0
   21.4125  -19.9484  -12.1614 O   0  0  0  0  0  0  0  0  0  0  0  0
   21.6123  -20.1673  -10.9389 O   0  0  0  0  0  0  0  0  0  0  0  0
  2  1  1  0
  3  2  2  0
  4  2  1  0
  5  4  1  0
  6  5  1  0
  7  6  1  0
  8  7  1  0
  8  9  1  6
 10  8  1  0
 10 11  2  0
 13 12  1  0
 14 16  1  0
 14 13  1  0
 14 15  1  6
 16 17  1  1
 17 10  1  0
 18 16  1  0
 19 18  2  0
 21 22  2  0
 21 20  1  0
 23 21  1  0
 24 23  1  0
 25 24  1  0
 26 25  1  0
 27 26  1  6
 27 28  1  0
 28 18  1  0
 29 31  1  0
 29 27  1  0
 30 29  2  0
M  END
$$$$
