RIR.pdb
     RDKit          3D

 31 30  0  0  1  0  0  0  0  0999 V2000
   32.7696  -24.4423  -15.2678 N   0  0  0  0  0  0  0  0  0  0  0  0
   31.8458  -24.0014  -16.2563 C   0  0  0  0  0  0  0  0  0  0  0  0
   31.6566  -24.7269  -17.3039 N   0  0  0  0  0  0  0  0  0  0  0  0
   31.1159  -22.7944  -16.1471 N   0  0  0  0  0  0  0  0  0  0  0  0
   31.2531  -21.9940  -14.9726 C   0  0  0  0  0  0  0  0  0  0  0  0
   31.1866  -22.7526  -13.6963 C   0  0  0  0  0  0  0  0  0  0  0  0
   30.4768  -22.1187  -12.5647 C   0  0  0  0  0  0  0  0  0  0  0  0
   29.2610  -21.3394  -12.9100 C   0  0  2  0  0  0  0  0  0  0  0  0
   29.4514  -19.9174  -13.0050 N   0  0  0  0  0  0  0  0  0  0  0  0
   28.0873  -21.6679  -12.0680 C   0  0  0  0  0  0  0  0  0  0  0  0
   27.7290  -22.8710  -11.9867 O   0  0  0  0  0  0  0  0  0  0  0  0
   31.0020  -24.4294  -18.0591 C   0  0  0  0  0  0  0  0  0  0  0  0
   26.9407  -19.0260   -7.5977 C   0  0  0  0  0  0  0  0  0  0  0  0
   26.9368  -20.2428   -8.5019 C   0  0  2  0  0  0  0  0  0  0  0  0
   25.8292  -20.1211   -9.5285 C   0  0  0  0  0  0  0  0  0  0  0  0
   24.4789  -20.3820   -8.9032 C   0  0  2  0  0  0  0  0  0  0  0  0
   26.0777  -21.0136  -10.7216 N   0  0  0  0  0  0  0  0  0  0  0  0
   27.3443  -20.7137  -11.3500 C   0  0  0  0  0  0  0  0  0  0  0  0
   24.9417  -20.7533  -11.6812 O   0  0  0  0  0  0  0  0  0  0  0  0
   24.7429  -19.6029  -12.1547 N   0  0  0  0  0  0  0  0  0  0  0  0
   19.8938  -25.9763  -16.9313 C   0  0  0  0  0  0  0  0  0  0  0  0
   19.3008  -24.6732  -17.0130 N   0  0  0  0  0  0  0  0  0  0  0  0
   18.3008  -24.5266  -17.8004 N   0  0  0  0  0  0  0  0  0  0  0  0
   19.8408  -23.6258  -16.2311 C   0  0  0  0  0  0  0  0  0  0  0  0
   20.9644  -23.9422  -15.3667 C   0  0  0  0  0  0  0  0  0  0  0  0
   21.3435  -22.7016  -14.6161 C   0  0  0  0  0  0  0  0  0  0  0  0
   22.5439  -22.8104  -13.7538 C   0  0  1  0  0  0  0  0  0  0  0  0
   23.0019  -21.5800  -13.0623 N   0  0  0  0  0  0  0  0  0  0  0  0
   24.0567  -21.7856  -12.0873 C   0  0  0  0  0  0  0  0  0  0  0  0
   21.9320  -20.7768  -12.4252 O   0  0  0  0  0  0  0  0  0  0  0  0
   21.2660  -19.9061  -13.0422 O   0  0  0  0  0  0  0  0  0  0  0  0
  2  1  1  0
  3  2  2  0
  4  2  1  0
  5  4  1  0
  6  5  1  0
  7  6  1  0
  8  7  1  0
  8  9  1  1
 10  8  1  0
 10 11  2  0
 13 12  1  0
 14 16  1  0
 14 13  1  0
 14 15  1  6
 16 17  1  1
 17 10  1  0
 18 16  1  0
 19 18  2  0
 21 22  2  0
 21 20  1  0
 23 21  1  0
 24 23  1  0
 25 24  1  0
 26 25  1  0
 27 26  1  6
 27 28  1  0
 28 18  1  0
 29 31  1  0
 29 27  1  0
 30 29  2  0
M  END
$$$$
