RIR.pdb
     RDKit          3D

 31 30  0  0  1  0  0  0  0  0999 V2000
   31.6102  -23.3784  -19.4182 N   0  0  0  0  0  0  0  0  0  0  0  0
   30.4081  -23.8826  -19.9886 C   0  0  0  0  0  0  0  0  0  0  0  0
   30.4789  -24.8145  -20.8752 N   0  0  0  0  0  0  0  0  0  0  0  0
   29.1246  -23.4087  -19.6284 N   0  0  0  0  0  0  0  0  0  0  0  0
   29.0067  -22.3682  -18.6576 C   0  0  0  0  0  0  0  0  0  0  0  0
   29.0961  -22.8260  -17.2465 C   0  0  0  0  0  0  0  0  0  0  0  0
   27.8290  -23.1364  -16.5507 C   0  0  0  0  0  0  0  0  0  0  0  0
   27.0008  -21.9708  -16.1505 C   0  0  2  0  0  0  0  0  0  0  0  0
   27.7204  -20.7378  -15.9797 N   0  0  0  0  0  0  0  0  0  0  0  0
   26.1177  -22.2409  -14.9921 C   0  0  0  0  0  0  0  0  0  0  0  0
   25.3524  -23.2379  -15.0446 O   0  0  0  0  0  0  0  0  0  0  0  0
   29.6323  -25.1394  -21.3900 C   0  0  0  0  0  0  0  0  0  0  0  0
   25.3295  -20.8872   -8.9984 C   0  0  0  0  0  0  0  0  0  0  0  0
   24.7620  -21.4523  -10.2857 C   0  0  2  0  0  0  0  0  0  0  0  0
   25.6745  -21.1127  -11.4465 C   0  0  0  0  0  0  0  0  0  0  0  0
   25.8998  -19.6218  -11.5411 C   0  0  2  0  0  0  0  0  0  0  0  0
   25.1579  -21.6863  -12.7449 N   0  0  0  0  0  0  0  0  0  0  0  0
   26.0810  -21.4479  -13.8311 C   0  0  0  0  0  0  0  0  0  0  0  0
   23.8430  -20.9945  -13.0128 O   0  0  0  0  0  0  0  0  0  0  0  0
   23.8067  -19.7912  -13.3843 N   0  0  0  0  0  0  0  0  0  0  0  0
   17.5931  -22.5794  -17.7020 C   0  0  0  0  0  0  0  0  0  0  0  0
   18.5963  -23.4929  -17.2381 N   0  0  0  0  0  0  0  0  0  0  0  0
   19.1112  -24.2922  -18.0969 N   0  0  0  0  0  0  0  0  0  0  0  0
   18.9648  -23.4686  -15.8729 C   0  0  0  0  0  0  0  0  0  0  0  0
   18.1912  -22.6210  -14.9823 C   0  0  0  0  0  0  0  0  0  0  0  0
   19.1076  -21.5843  -14.4068 C   0  0  0  0  0  0  0  0  0  0  0  0
   20.4646  -22.0544  -14.0402 C   0  0  1  0  0  0  0  0  0  0  0  0
   21.3427  -21.1051  -13.3124 N   0  0  0  0  0  0  0  0  0  0  0  0
   22.6020  -21.6654  -12.8588 C   0  0  0  0  0  0  0  0  0  0  0  0
   20.7088  -20.4052  -12.1705 O   0  0  0  0  0  0  0  0  0  0  0  0
   21.0012  -20.6429  -10.9703 O   0  0  0  0  0  0  0  0  0  0  0  0
  2  1  1  0
  3  2  2  0
  4  2  1  0
  5  4  1  0
  6  5  1  0
  7  6  1  0
  8  7  1  0
  8  9  1  1
 10  8  1  0
 10 11  2  0
 13 12  1  0
 14 16  1  0
 14 13  1  0
 14 15  1  6
 16 17  1  6
 17 10  1  0
 18 16  1  0
 19 18  2  0
 21 22  2  0
 21 20  1  0
 23 21  1  0
 24 23  1  0
 25 24  1  0
 26 25  1  0
 27 26  1  6
 27 28  1  0
 28 18  1  0
 29 31  1  0
 29 27  1  0
 30 29  2  0
M  END
$$$$
