RIR.pdb
     RDKit          3D

 31 30  0  0  1  0  0  0  0  0999 V2000
   17.4432  -24.1458  -11.4226 N   0  0  0  0  0  0  0  0  0  0  0  0
   18.5832  -24.7611  -12.0113 C   0  0  0  0  0  0  0  0  0  0  0  0
   18.5026  -25.9871  -12.3987 N   0  0  0  0  0  0  0  0  0  0  0  0
   19.8145  -24.0890  -12.1955 N   0  0  0  0  0  0  0  0  0  0  0  0
   19.8156  -22.7417  -12.6686 C   0  0  0  0  0  0  0  0  0  0  0  0
   20.2859  -22.5785  -14.0689 C   0  0  0  0  0  0  0  0  0  0  0  0
   21.6504  -22.0460  -14.2703 C   0  0  0  0  0  0  0  0  0  0  0  0
   21.9117  -20.6924  -13.7187 C   0  0  2  0  0  0  0  0  0  0  0  0
   21.0156  -19.6631  -14.1714 N   0  0  0  0  0  0  0  0  0  0  0  0
   23.3248  -20.2649  -13.8413 C   0  0  0  0  0  0  0  0  0  0  0  0
   23.5829  -19.2489  -14.5367 O   0  0  0  0  0  0  0  0  0  0  0  0
   19.3137  -26.4712  -12.8403 C   0  0  0  0  0  0  0  0  0  0  0  0
   28.9405  -21.2406  -11.3419 C   0  0  0  0  0  0  0  0  0  0  0  0
   28.0959  -20.6502  -12.4539 C   0  0  2  0  0  0  0  0  0  0  0  0
   26.6462  -21.0510  -12.2711 C   0  0  0  0  0  0  0  0  0  0  0  0
   26.5108  -22.5496  -12.1358 C   0  0  2  0  0  0  0  0  0  0  0  0
   25.7757  -20.5059  -13.3786 N   0  0  0  0  0  0  0  0  0  0  0  0
   24.4018  -20.9277  -13.2257 C   0  0  0  0  0  0  0  0  0  0  0  0
   26.3501  -21.0471  -14.6656 O   0  0  0  0  0  0  0  0  0  0  0  0
   26.1145  -22.2283  -15.0353 N   0  0  0  0  0  0  0  0  0  0  0  0
   30.2136  -25.4587  -18.4154 C   0  0  0  0  0  0  0  0  0  0  0  0
   30.8137  -24.9007  -17.2386 N   0  0  0  0  0  0  0  0  0  0  0  0
   31.2135  -25.7161  -16.3349 N   0  0  0  0  0  0  0  0  0  0  0  0
   30.9340  -23.4955  -17.1328 C   0  0  0  0  0  0  0  0  0  0  0  0
   30.2796  -22.6861  -18.1461 C   0  0  0  0  0  0  0  0  0  0  0  0
   28.8009  -22.7425  -17.9095 C   0  0  0  0  0  0  0  0  0  0  0  0
   28.3243  -22.1197  -16.6519 C   0  0  1  0  0  0  0  0  0  0  0  0
   27.7508  -20.7540  -16.7406 N   0  0  0  0  0  0  0  0  0  0  0  0
   27.1733  -20.2543  -15.5068 C   0  0  0  0  0  0  0  0  0  0  0  0
   26.7659  -20.5510  -17.8290 O   0  0  0  0  0  0  0  0  0  0  0  0
   25.5633  -20.2467  -17.6199 O   0  0  0  0  0  0  0  0  0  0  0  0
  2  1  1  0
  3  2  2  0
  4  2  1  0
  5  4  1  0
  6  5  1  0
  7  6  1  0
  8  7  1  0
  8  9  1  6
 10  8  1  0
 10 11  2  0
 13 12  1  0
 14 16  1  0
 14 13  1  0
 14 15  1  1
 16 17  1  6
 17 10  1  0
 18 16  1  0
 19 18  2  0
 21 22  2  0
 21 20  1  0
 23 21  1  0
 24 23  1  0
 25 24  1  0
 26 25  1  0
 27 26  1  1
 27 28  1  0
 28 18  1  0
 29 31  1  0
 29 27  1  0
 30 29  2  0
M  END
$$$$
