RIR.pdb
     RDKit          3D

 31 30  0  0  1  0  0  0  0  0999 V2000
   21.9347  -19.7358  -13.4416 N   0  0  0  0  0  0  0  0  0  0  0  0
   20.6254  -19.2060  -13.2685 C   0  0  0  0  0  0  0  0  0  0  0  0
   20.0201  -18.6901  -14.2819 N   0  0  0  0  0  0  0  0  0  0  0  0
   19.9460  -19.2169  -12.0276 N   0  0  0  0  0  0  0  0  0  0  0  0
   20.5300  -19.8916  -10.9127 C   0  0  0  0  0  0  0  0  0  0  0  0
   20.5171  -21.3744  -11.0115 C   0  0  0  0  0  0  0  0  0  0  0  0
   19.4221  -22.0922  -10.3247 C   0  0  0  0  0  0  0  0  0  0  0  0
   19.3510  -23.5563  -10.5614 C   0  0  2  0  0  0  0  0  0  0  0  0
   19.2083  -23.9481  -11.9375 N   0  0  0  0  0  0  0  0  0  0  0  0
   18.3628  -24.2485   -9.7018 C   0  0  0  0  0  0  0  0  0  0  0  0
   17.1467  -24.1807  -10.0165 O   0  0  0  0  0  0  0  0  0  0  0  0
   19.0682  -18.2740  -14.1914 C   0  0  0  0  0  0  0  0  0  0  0  0
   18.0462  -29.2668   -8.8440 C   0  0  0  0  0  0  0  0  0  0  0  0
   17.8145  -27.7743   -8.9743 C   0  0  2  0  0  0  0  0  0  0  0  0
   17.9485  -27.1096   -7.6194 C   0  0  0  0  0  0  0  0  0  0  0  0
   17.0402  -27.7615   -6.6033 C   0  0  2  0  0  0  0  0  0  0  0  0
   17.7160  -25.6196   -7.7066 N   0  0  0  0  0  0  0  0  0  0  0  0
   18.7010  -24.9806   -8.5495 C   0  0  0  0  0  0  0  0  0  0  0  0
   17.8175  -25.0980   -6.2935 O   0  0  0  0  0  0  0  0  0  0  0  0
   18.8116  -25.3731   -5.5701 N   0  0  0  0  0  0  0  0  0  0  0  0
   11.2799  -21.6459   -1.2919 C   0  0  0  0  0  0  0  0  0  0  0  0
   12.5315  -20.9480   -1.3446 N   0  0  0  0  0  0  0  0  0  0  0  0
   12.5279  -19.7030   -1.0421 N   0  0  0  0  0  0  0  0  0  0  0  0
   13.6949  -21.6576   -1.7229 C   0  0  0  0  0  0  0  0  0  0  0  0
   13.5300  -23.0292   -2.1717 C   0  0  0  0  0  0  0  0  0  0  0  0
   14.8846  -23.5844   -2.4925 C   0  0  0  0  0  0  0  0  0  0  0  0
   15.2627  -23.5762   -3.9255 C   0  0  1  0  0  0  0  0  0  0  0  0
   16.5356  -24.2405   -4.2998 N   0  0  0  0  0  0  0  0  0  0  0  0
   16.8053  -24.2820   -5.7249 C   0  0  0  0  0  0  0  0  0  0  0  0
   16.7217  -25.6051   -3.7529 O   0  0  0  0  0  0  0  0  0  0  0  0
   16.1340  -26.6169   -4.2148 O   0  0  0  0  0  0  0  0  0  0  0  0
  2  1  1  0
  3  2  2  0
  4  2  1  0
  5  4  1  0
  6  5  1  0
  7  6  1  0
  8  7  1  0
  8  9  1  6
 10  8  1  0
 10 11  2  0
 13 12  1  0
 14 16  1  0
 14 13  1  0
 14 15  1  1
 16 17  1  6
 17 10  1  0
 18 16  1  0
 19 18  2  0
 21 22  2  0
 21 20  1  0
 23 21  1  0
 24 23  1  0
 25 24  1  0
 26 25  1  0
 27 26  1  1
 27 28  1  0
 28 18  1  0
 29 31  1  0
 29 27  1  0
 30 29  2  0
M  END
$$$$
