RIR.pdb
     RDKit          3D

 31 30  0  0  1  0  0  0  0  0999 V2000
   18.3838  -24.7296   -7.3087 N   0  0  0  0  0  0  0  0  0  0  0  0
   18.0395  -26.0949   -7.5144 C   0  0  0  0  0  0  0  0  0  0  0  0
   17.8157  -26.5100   -8.7132 N   0  0  0  0  0  0  0  0  0  0  0  0
   17.9292  -27.0307   -6.4591 N   0  0  0  0  0  0  0  0  0  0  0  0
   18.0425  -26.5828   -5.1080 C   0  0  0  0  0  0  0  0  0  0  0  0
   17.8234  -27.6392   -4.0859 C   0  0  0  0  0  0  0  0  0  0  0  0
   17.8669  -27.2308   -2.6656 C   0  0  0  0  0  0  0  0  0  0  0  0
   17.5235  -28.2803   -1.6730 C   0  0  2  0  0  0  0  0  0  0  0  0
   17.5550  -27.8577   -0.2990 N   0  0  0  0  0  0  0  0  0  0  0  0
   18.2736  -29.5437   -1.8625 C   0  0  0  0  0  0  0  0  0  0  0  0
   19.4752  -29.5857   -1.4926 O   0  0  0  0  0  0  0  0  0  0  0  0
   17.5379  -27.4970   -8.9028 C   0  0  0  0  0  0  0  0  0  0  0  0
   16.7821  -34.3265   -0.1638 C   0  0  0  0  0  0  0  0  0  0  0  0
   17.6095  -33.1395   -0.6163 C   0  0  2  0  0  0  0  0  0  0  0  0
   17.7148  -33.1282   -2.1277 C   0  0  0  0  0  0  0  0  0  0  0  0
   18.3093  -34.4193   -2.6397 C   0  0  2  0  0  0  0  0  0  0  0  0
   18.4792  -31.9228   -2.6219 N   0  0  0  0  0  0  0  0  0  0  0  0
   17.7234  -30.7053   -2.4336 C   0  0  0  0  0  0  0  0  0  0  0  0
   18.7307  -32.1618   -4.0912 O   0  0  0  0  0  0  0  0  0  0  0  0
   18.3525  -31.3294   -4.9581 N   0  0  0  0  0  0  0  0  0  0  0  0
   25.9829  -32.9624   -8.8886 C   0  0  0  0  0  0  0  0  0  0  0  0
   24.9425  -32.4049   -8.0743 N   0  0  0  0  0  0  0  0  0  0  0  0
   25.2130  -32.1768   -6.8429 N   0  0  0  0  0  0  0  0  0  0  0  0
   23.6840  -32.1370   -8.6612 C   0  0  0  0  0  0  0  0  0  0  0  0
   22.6406  -31.6050   -7.8019 C   0  0  0  0  0  0  0  0  0  0  0  0
   21.7485  -32.7367   -7.3905 C   0  0  0  0  0  0  0  0  0  0  0  0
   20.6368  -32.3827   -6.4765 C   0  0  1  0  0  0  0  0  0  0  0  0
   19.8193  -33.4952   -5.9326 N   0  0  0  0  0  0  0  0  0  0  0  0
   19.3987  -33.3250   -4.5543 C   0  0  0  0  0  0  0  0  0  0  0  0
   20.4148  -34.8449   -6.0721 O   0  0  0  0  0  0  0  0  0  0  0  0
   20.8166  -35.5237   -5.0922 O   0  0  0  0  0  0  0  0  0  0  0  0
  2  1  1  0
  3  2  2  0
  4  2  1  0
  5  4  1  0
  6  5  1  0
  7  6  1  0
  8  7  1  0
  8  9  1  1
 10  8  1  0
 10 11  2  0
 13 12  1  0
 14 16  1  0
 14 13  1  0
 14 15  1  6
 16 17  1  1
 17 10  1  0
 18 16  1  0
 19 18  2  0
 21 22  2  0
 21 20  1  0
 23 21  1  0
 24 23  1  0
 25 24  1  0
 26 25  1  0
 27 26  1  6
 27 28  1  0
 28 18  1  0
 29 31  1  0
 29 27  1  0
 30 29  2  0
M  END
$$$$
