RIR.pdb
     RDKit          3D

 31 30  0  0  1  0  0  0  0  0999 V2000
   29.7970  -25.7081  -15.8118 N   0  0  0  0  0  0  0  0  0  0  0  0
   31.0202  -25.1053  -16.2180 C   0  0  0  0  0  0  0  0  0  0  0  0
   31.9131  -25.8306  -16.7978 N   0  0  0  0  0  0  0  0  0  0  0  0
   31.3101  -23.7353  -16.0163 N   0  0  0  0  0  0  0  0  0  0  0  0
   30.2475  -22.8284  -15.7206 C   0  0  0  0  0  0  0  0  0  0  0  0
   29.6206  -22.2006  -16.9130 C   0  0  0  0  0  0  0  0  0  0  0  0
   28.1455  -22.2400  -17.0058 C   0  0  0  0  0  0  0  0  0  0  0  0
   27.4133  -21.2209  -16.2121 C   0  0  2  0  0  0  0  0  0  0  0  0
   28.2424  -20.2700  -15.5223 N   0  0  0  0  0  0  0  0  0  0  0  0
   26.3912  -21.7964  -15.3073 C   0  0  0  0  0  0  0  0  0  0  0  0
   25.6234  -22.6833  -15.7615 O   0  0  0  0  0  0  0  0  0  0  0  0
   32.8168  -25.4234  -17.1216 C   0  0  0  0  0  0  0  0  0  0  0  0
   25.5370  -19.9336   -9.8778 C   0  0  0  0  0  0  0  0  0  0  0  0
   25.2429  -20.2120  -11.3387 C   0  0  2  0  0  0  0  0  0  0  0  0
   25.4972  -21.6732  -11.6485 C   0  0  0  0  0  0  0  0  0  0  0  0
   26.8941  -22.0789  -11.2406 C   0  0  1  0  0  0  0  0  0  0  0  0
   25.2215  -21.9891  -13.0996 N   0  0  0  0  0  0  0  0  0  0  0  0
   26.2243  -21.4109  -13.9650 C   0  0  0  0  0  0  0  0  0  0  0  0
   23.8645  -21.4018  -13.4040 O   0  0  0  0  0  0  0  0  0  0  0  0
   23.7492  -20.2239  -13.8361 N   0  0  0  0  0  0  0  0  0  0  0  0
   16.1010  -24.0267  -14.1759 C   0  0  0  0  0  0  0  0  0  0  0  0
   15.9340  -22.9819  -15.1437 N   0  0  0  0  0  0  0  0  0  0  0  0
   14.7490  -22.5317  -15.3299 N   0  0  0  0  0  0  0  0  0  0  0  0
   17.0701  -22.5043  -15.8376 C   0  0  0  0  0  0  0  0  0  0  0  0
   18.3510  -23.1182  -15.5339 C   0  0  0  0  0  0  0  0  0  0  0  0
   19.1478  -22.1570  -14.7050 C   0  0  0  0  0  0  0  0  0  0  0  0
   20.5352  -22.5724  -14.3902 C   0  0  1  0  0  0  0  0  0  0  0  0
   21.3616  -21.6390  -13.5853 N   0  0  0  0  0  0  0  0  0  0  0  0
   22.6706  -22.1460  -13.2179 C   0  0  0  0  0  0  0  0  0  0  0  0
   20.7102  -21.1096  -12.3641 O   0  0  0  0  0  0  0  0  0  0  0  0
   21.0219  -21.4799  -11.2030 O   0  0  0  0  0  0  0  0  0  0  0  0
  2  1  1  0
  3  2  2  0
  4  2  1  0
  5  4  1  0
  6  5  1  0
  7  6  1  0
  8  7  1  0
  8  9  1  1
 10  8  1  0
 10 11  2  0
 13 12  1  0
 14 16  1  0
 14 13  1  0
 14 15  1  1
 16 17  1  6
 17 10  1  0
 18 16  1  0
 19 18  2  0
 21 22  2  0
 21 20  1  0
 23 21  1  0
 24 23  1  0
 25 24  1  0
 26 25  1  0
 27 26  1  6
 27 28  1  0
 28 18  1  0
 29 31  1  0
 29 27  1  0
 30 29  2  0
M  END
$$$$
