RIR.pdb
     RDKit          3D

 31 30  0  0  1  0  0  0  0  0999 V2000
   30.9030  -22.0355  -19.9672 N   0  0  0  0  0  0  0  0  0  0  0  0
   29.6027  -21.8588  -20.5175 C   0  0  0  0  0  0  0  0  0  0  0  0
   29.4241  -22.0586  -21.7775 N   0  0  0  0  0  0  0  0  0  0  0  0
   28.4833  -21.4711  -19.7441 N   0  0  0  0  0  0  0  0  0  0  0  0
   28.6383  -21.2595  -18.3404 C   0  0  0  0  0  0  0  0  0  0  0  0
   28.8936  -22.4942  -17.5535 C   0  0  0  0  0  0  0  0  0  0  0  0
   28.2292  -22.6116  -16.2379 C   0  0  0  0  0  0  0  0  0  0  0  0
   27.1574  -21.6233  -15.9565 C   0  0  2  0  0  0  0  0  0  0  0  0
   27.5889  -20.2532  -15.8927 N   0  0  0  0  0  0  0  0  0  0  0  0
   26.3179  -21.9758  -14.7880 C   0  0  0  0  0  0  0  0  0  0  0  0
   25.8901  -23.1551  -14.6944 O   0  0  0  0  0  0  0  0  0  0  0  0
   28.4786  -21.9814  -22.2106 C   0  0  0  0  0  0  0  0  0  0  0  0
   25.3587  -20.6982   -8.8992 C   0  0  0  0  0  0  0  0  0  0  0  0
   24.7800  -21.2593  -10.1832 C   0  0  2  0  0  0  0  0  0  0  0  0
   25.6411  -20.8507  -11.3609 C   0  0  0  0  0  0  0  0  0  0  0  0
   25.7843  -19.3485  -11.4327 C   0  0  2  0  0  0  0  0  0  0  0  0
   25.1205  -21.4281  -12.6560 N   0  0  0  0  0  0  0  0  0  0  0  0
   25.9670  -21.0696  -13.7713 C   0  0  0  0  0  0  0  0  0  0  0  0
   23.7367  -20.8540  -12.8423 O   0  0  0  0  0  0  0  0  0  0  0  0
   23.5312  -19.6141  -12.7538 N   0  0  0  0  0  0  0  0  0  0  0  0
   16.1120  -23.4091  -11.8365 C   0  0  0  0  0  0  0  0  0  0  0  0
   16.9433  -24.3403  -12.5422 N   0  0  0  0  0  0  0  0  0  0  0  0
   16.7671  -25.5873  -12.3066 N   0  0  0  0  0  0  0  0  0  0  0  0
   17.9054  -23.8446  -13.4526 C   0  0  0  0  0  0  0  0  0  0  0  0
   17.8444  -22.4341  -13.7941 C   0  0  0  0  0  0  0  0  0  0  0  0
   18.7995  -21.6944  -12.9072 C   0  0  0  0  0  0  0  0  0  0  0  0
   20.2021  -22.1726  -12.9281 C   0  0  1  0  0  0  0  0  0  0  0  0
   21.2616  -21.1699  -13.1995 N   0  0  0  0  0  0  0  0  0  0  0  0
   22.6178  -21.6803  -13.1231 C   0  0  0  0  0  0  0  0  0  0  0  0
   21.1854  -19.9332  -12.3866 O   0  0  0  0  0  0  0  0  0  0  0  0
   21.6879  -19.8337  -11.2377 O   0  0  0  0  0  0  0  0  0  0  0  0
  2  1  1  0
  3  2  2  0
  4  2  1  0
  5  4  1  0
  6  5  1  0
  7  6  1  0
  8  7  1  0
  8  9  1  1
 10  8  1  0
 10 11  2  0
 13 12  1  0
 14 16  1  0
 14 13  1  0
 14 15  1  6
 16 17  1  6
 17 10  1  0
 18 16  1  0
 19 18  2  0
 21 22  2  0
 21 20  1  0
 23 21  1  0
 24 23  1  0
 25 24  1  0
 26 25  1  0
 27 26  1  6
 27 28  1  0
 28 18  1  0
 29 31  1  0
 29 27  1  0
 30 29  2  0
M  END
$$$$
