RIR.pdb
     RDKit          3D

 31 30  0  0  1  0  0  0  0  0999 V2000
   28.3810  -18.0589  -19.7134 N   0  0  0  0  0  0  0  0  0  0  0  0
   28.1516  -16.8401  -19.0157 C   0  0  0  0  0  0  0  0  0  0  0  0
   27.9455  -15.7622  -19.6903 N   0  0  0  0  0  0  0  0  0  0  0  0
   28.1377  -16.7496  -17.6039 N   0  0  0  0  0  0  0  0  0  0  0  0
   28.3788  -17.9201  -16.8223 C   0  0  0  0  0  0  0  0  0  0  0  0
   27.3230  -18.9609  -16.9258 C   0  0  0  0  0  0  0  0  0  0  0  0
   26.7709  -19.4973  -15.6635 C   0  0  0  0  0  0  0  0  0  0  0  0
   27.5403  -20.5974  -15.0290 C   0  0  2  0  0  0  0  0  0  0  0  0
   27.8857  -21.6862  -15.9022 N   0  0  0  0  0  0  0  0  0  0  0  0
   26.9386  -21.0913  -13.7686 C   0  0  0  0  0  0  0  0  0  0  0  0
   26.1284  -22.0516  -13.8301 O   0  0  0  0  0  0  0  0  0  0  0  0
   27.8060  -14.8438  -19.2165 C   0  0  0  0  0  0  0  0  0  0  0  0
   29.7950  -20.9418   -9.4093 C   0  0  0  0  0  0  0  0  0  0  0  0
   28.7159  -21.5770  -10.2640 C   0  0  2  0  0  0  0  0  0  0  0  0
   27.4079  -20.8341  -10.0824 C   0  0  0  0  0  0  0  0  0  0  0  0
   26.6996  -21.2823   -8.8254 C   0  0  2  0  0  0  0  0  0  0  0  0
   26.5240  -20.9604  -11.3008 N   0  0  0  0  0  0  0  0  0  0  0  0
   27.2180  -20.5508  -12.5006 C   0  0  0  0  0  0  0  0  0  0  0  0
   25.3365  -20.0627  -11.0496 O   0  0  0  0  0  0  0  0  0  0  0  0
   25.4210  -18.8156  -11.2068 N   0  0  0  0  0  0  0  0  0  0  0  0
   18.8573  -19.3126  -14.4911 C   0  0  0  0  0  0  0  0  0  0  0  0
   19.6360  -19.0273  -15.6609 N   0  0  0  0  0  0  0  0  0  0  0  0
   19.0031  -18.7499  -16.7398 N   0  0  0  0  0  0  0  0  0  0  0  0
   21.0468  -19.0651  -15.5694 C   0  0  0  0  0  0  0  0  0  0  0  0
   21.6512  -20.2475  -14.9807 C   0  0  0  0  0  0  0  0  0  0  0  0
   21.5874  -20.1145  -13.4893 C   0  0  0  0  0  0  0  0  0  0  0  0
   22.8327  -20.4475  -12.7578 C   0  0  2  0  0  0  0  0  0  0  0  0
   22.8341  -20.2510  -11.2871 N   0  0  0  0  0  0  0  0  0  0  0  0
   24.0845  -20.5820  -10.6293 C   0  0  0  0  0  0  0  0  0  0  0  0
   21.7342  -20.9249  -10.5577 O   0  0  0  0  0  0  0  0  0  0  0  0
   20.5262  -20.5953  -10.6781 O   0  0  0  0  0  0  0  0  0  0  0  0
  2  1  1  0
  3  2  2  0
  4  2  1  0
  5  4  1  0
  6  5  1  0
  7  6  1  0
  8  7  1  0
  8  9  1  6
 10  8  1  0
 10 11  2  0
 13 12  1  0
 14 16  1  0
 14 13  1  0
 14 15  1  6
 16 17  1  6
 17 10  1  0
 18 16  1  0
 19 18  2  0
 21 22  2  0
 21 20  1  0
 23 21  1  0
 24 23  1  0
 25 24  1  0
 26 25  1  0
 27 26  1  6
 27 28  1  0
 28 18  1  0
 29 31  1  0
 29 27  1  0
 30 29  2  0
M  END
$$$$
