RIR.pdb
     RDKit          3D

 31 30  0  0  1  0  0  0  0  0999 V2000
   17.8007  -17.0169  -15.9266 N   0  0  0  0  0  0  0  0  0  0  0  0
   18.3087  -17.4039  -17.1982 C   0  0  0  0  0  0  0  0  0  0  0  0
   18.0445  -16.6739  -18.2262 N   0  0  0  0  0  0  0  0  0  0  0  0
   19.0981  -18.5615  -17.3944 N   0  0  0  0  0  0  0  0  0  0  0  0
   19.8231  -19.1124  -16.2944 C   0  0  0  0  0  0  0  0  0  0  0  0
   19.1329  -19.0038  -14.9826 C   0  0  0  0  0  0  0  0  0  0  0  0
   19.7693  -19.6639  -13.8228 C   0  0  0  0  0  0  0  0  0  0  0  0
   19.9945  -21.1264  -13.9456 C   0  0  2  0  0  0  0  0  0  0  0  0
   19.0253  -21.9535  -13.2791 N   0  0  0  0  0  0  0  0  0  0  0  0
   21.3759  -21.5437  -13.6109 C   0  0  0  0  0  0  0  0  0  0  0  0
   21.6384  -21.8352  -12.4156 O   0  0  0  0  0  0  0  0  0  0  0  0
   18.4183  -16.9105  -19.1704 C   0  0  0  0  0  0  0  0  0  0  0  0
   26.3229  -24.3707  -15.7822 C   0  0  0  0  0  0  0  0  0  0  0  0
   25.7358  -23.4417  -14.7379 C   0  0  2  0  0  0  0  0  0  0  0  0
   24.3632  -22.9727  -15.1758 C   0  0  0  0  0  0  0  0  0  0  0  0
   24.4040  -22.4087  -16.5767 C   0  0  2  0  0  0  0  0  0  0  0  0
   23.7721  -21.9909  -14.1918 N   0  0  0  0  0  0  0  0  0  0  0  0
   22.4182  -21.6347  -14.5508 C   0  0  0  0  0  0  0  0  0  0  0  0
   24.6629  -20.7726  -14.2318 O   0  0  0  0  0  0  0  0  0  0  0  0
   24.8207  -20.1188  -15.2971 N   0  0  0  0  0  0  0  0  0  0  0  0
   31.0669  -21.1108   -8.6770 C   0  0  0  0  0  0  0  0  0  0  0  0
   31.4807  -21.6910   -9.9213 N   0  0  0  0  0  0  0  0  0  0  0  0
   32.5463  -22.4024   -9.9171 N   0  0  0  0  0  0  0  0  0  0  0  0
   30.7035  -21.4534  -11.0787 C   0  0  0  0  0  0  0  0  0  0  0  0
   29.8502  -20.2779  -11.0864 C   0  0  0  0  0  0  0  0  0  0  0  0
   29.1165  -20.2386  -12.3925 C   0  0  0  0  0  0  0  0  0  0  0  0
   27.6926  -20.6473  -12.3455 C   0  0  1  0  0  0  0  0  0  0  0  0
   26.7232  -19.8358  -13.1223 N   0  0  0  0  0  0  0  0  0  0  0  0
   25.3545  -20.3160  -13.0799 C   0  0  0  0  0  0  0  0  0  0  0  0
   27.0877  -19.5995  -14.5390 O   0  0  0  0  0  0  0  0  0  0  0  0
   27.2218  -20.5268  -15.3783 O   0  0  0  0  0  0  0  0  0  0  0  0
  2  1  1  0
  3  2  2  0
  4  2  1  0
  5  4  1  0
  6  5  1  0
  7  6  1  0
  8  7  1  0
  8  9  1  1
 10  8  1  0
 10 11  2  0
 13 12  1  0
 14 16  1  0
 14 13  1  0
 14 15  1  1
 16 17  1  1
 17 10  1  0
 18 16  1  0
 19 18  2  0
 21 22  2  0
 21 20  1  0
 23 21  1  0
 24 23  1  0
 25 24  1  0
 26 25  1  0
 27 26  1  1
 27 28  1  0
 28 18  1  0
 29 31  1  0
 29 27  1  0
 30 29  2  0
M  END
$$$$
