HRH.pdb
     RDKit          3D

 32 33  0  0  1  0  0  0  0  0999 V2000
   18.4409  -28.3461    8.6281 N   0  0  0  0  0  0  0  0  0  0  0  0
   19.3768  -27.2596    8.5792 C   0  0  1  0  0  0  0  0  0  0  0  0
   18.7292  -26.0634    7.9381 C   0  0  0  0  0  0  0  0  0  0  0  0
   18.4805  -26.3411    6.5052 C   0  0  0  0  0  0  0  0  0  0  0  0
   19.3087  -26.0275    5.4555 C   0  0  0  0  0  0  0  0  0  0  0  0
   18.6984  -26.4542    4.3215 N   0  0  0  0  0  0  0  0  0  0  0  0
   17.5267  -27.0167    4.6474 C   0  0  0  0  0  0  0  0  0  0  0  0
   17.3778  -26.9549    5.9872 N   0  0  0  0  0  0  0  0  0  0  0  0
   19.9179  -26.9245    9.9198 C   0  0  0  0  0  0  0  0  0  0  0  0
   19.1670  -26.9484   10.9034 O   0  0  0  0  0  0  0  0  0  0  0  0
   28.1530  -28.1527   10.6974 N   0  0  0  0  0  0  0  0  0  0  0  0
   27.1719  -27.9942    9.6879 C   0  0  0  0  0  0  0  0  0  0  0  0
   27.4896  -27.9545    8.4164 N   0  0  0  0  0  0  0  0  0  0  0  0
   25.7784  -27.8680    9.9767 N   0  0  0  0  0  0  0  0  0  0  0  0
   25.2095  -28.1234   11.2827 C   0  0  0  0  0  0  0  0  0  0  0  0
   23.7323  -27.8902   11.3262 C   0  0  0  0  0  0  0  0  0  0  0  0
   23.3926  -26.4459   11.1785 C   0  0  0  0  0  0  0  0  0  0  0  0
   21.8953  -26.2740   11.2628 C   0  0  2  0  0  0  0  0  0  0  0  0
   21.2799  -26.5895   10.0132 N   0  0  0  0  0  0  0  0  0  0  0  0
   21.6016  -24.8223   11.5643 C   0  0  0  0  0  0  0  0  0  0  0  0
   21.4958  -24.0243   10.5994 O   0  0  0  0  0  0  0  0  0  0  0  0
   26.7014  -27.8820    7.7401 N   0  0  0  0  0  0  0  0  0  0  0  0
   21.4598  -24.4219   12.8989 C   0  0  1  0  0  0  0  0  0  0  0  0
   21.1676  -23.0173   13.1975 C   0  0  0  0  0  0  0  0  0  0  0  0
   20.1764  -22.9498   14.3209 C   0  0  0  0  0  0  0  0  0  0  0  0
   18.8258  -23.3180   13.8493 C   0  0  0  0  0  0  0  0  0  0  0  0
   18.3129  -24.6158   13.8406 N   0  0  0  0  0  0  0  0  0  0  0  0
   17.0712  -24.5859   13.3556 C   0  0  0  0  0  0  0  0  0  0  0  0
   16.7540  -23.3241   13.0481 N   0  0  0  0  0  0  0  0  0  0  0  0
   17.8256  -22.5784   13.3537 C   0  0  0  0  0  0  0  0  0  0  0  0
   22.4608  -22.3257   13.5123 O   0  0  0  0  0  0  0  0  0  0  0  0
   22.4005  -20.9299   13.6570 O   0  0  0  0  0  0  0  0  0  0  0  0
  2  1  1  1
  2  3  1  0
  4  3  1  0
  5  4  2  0
  6  5  1  0
  7  6  1  0
  7  8  2  0
  8  4  1  0
  9  2  1  0
  9 10  2  0
 12 11  1  0
 13 12  2  0
 14 12  1  0
 15 14  1  0
 16 17  1  0
 16 15  1  0
 18 19  1  0
 18 17  1  6
 19  9  1  0
 20 18  1  0
 21 20  2  0
 22 20  1  0
 23 22  1  0
 23 24  1  6
 24 25  1  0
 25 26  2  0
 25 29  1  0
 26 27  1  0
 27 28  1  0
 29 28  2  0
 30 23  1  0
 30 31  1  0
 32 30  2  0
M  END
$$$$
