HRH.pdb
     RDKit          3D

 32 33  0  0  1  0  0  0  0  0999 V2000
   29.1673  -22.1746  -18.0108 N   0  0  0  0  0  0  0  0  0  0  0  0
   28.3376  -21.1283  -17.4857 C   0  0  1  0  0  0  0  0  0  0  0  0
   27.3389  -20.7048  -18.5271 C   0  0  0  0  0  0  0  0  0  0  0  0
   27.9797  -19.7696  -19.4793 C   0  0  0  0  0  0  0  0  0  0  0  0
   28.3992  -20.0602  -20.7543 C   0  0  0  0  0  0  0  0  0  0  0  0
   28.9303  -18.9237  -21.2709 N   0  0  0  0  0  0  0  0  0  0  0  0
   28.8473  -17.9520  -20.3519 C   0  0  0  0  0  0  0  0  0  0  0  0
   28.2649  -18.4564  -19.2440 N   0  0  0  0  0  0  0  0  0  0  0  0
   27.6641  -21.5260  -16.2246 C   0  0  0  0  0  0  0  0  0  0  0  0
   27.1816  -22.6612  -16.1232 O   0  0  0  0  0  0  0  0  0  0  0  0
   30.9758  -22.7346  -10.6433 N   0  0  0  0  0  0  0  0  0  0  0  0
   30.1683  -21.8545   -9.8816 C   0  0  0  0  0  0  0  0  0  0  0  0
   30.2662  -21.7832   -8.5760 N   0  0  0  0  0  0  0  0  0  0  0  0
   29.1985  -20.9878  -10.4728 N   0  0  0  0  0  0  0  0  0  0  0  0
   27.8694  -21.4193  -10.8493 C   0  0  0  0  0  0  0  0  0  0  0  0
   27.0770  -20.3389  -11.5151 C   0  0  0  0  0  0  0  0  0  0  0  0
   27.6414  -19.9752  -12.8465 C   0  0  0  0  0  0  0  0  0  0  0  0
   27.0887  -20.9096  -13.8952 C   0  0  2  0  0  0  0  0  0  0  0  0
   27.6033  -20.5805  -15.1862 N   0  0  0  0  0  0  0  0  0  0  0  0
   25.5881  -20.7342  -13.9422 C   0  0  0  0  0  0  0  0  0  0  0  0
   25.1291  -19.6629  -14.4122 O   0  0  0  0  0  0  0  0  0  0  0  0
   29.6925  -21.0539   -8.1038 N   0  0  0  0  0  0  0  0  0  0  0  0
   24.7694  -21.7645  -13.4628 C   0  0  2  0  0  0  0  0  0  0  0  0
   23.3144  -21.5908  -13.4836 C   0  0  0  0  0  0  0  0  0  0  0  0
   22.7263  -22.2263  -12.2591 C   0  0  0  0  0  0  0  0  0  0  0  0
   21.2510  -22.1565  -12.2912 C   0  0  0  0  0  0  0  0  0  0  0  0
   20.5072  -21.4988  -13.2718 N   0  0  0  0  0  0  0  0  0  0  0  0
   19.2102  -21.6373  -12.9952 C   0  0  0  0  0  0  0  0  0  0  0  0
   19.0781  -22.3569  -11.8763 N   0  0  0  0  0  0  0  0  0  0  0  0
   20.3198  -22.6583  -11.4701 C   0  0  0  0  0  0  0  0  0  0  0  0
   23.0183  -20.1239  -13.5843 O   0  0  0  0  0  0  0  0  0  0  0  0
   22.1309  -19.7369  -14.6019 O   0  0  0  0  0  0  0  0  0  0  0  0
  2  1  1  6
  2  3  1  0
  4  3  1  0
  5  4  2  0
  6  5  1  0
  7  6  1  0
  7  8  2  0
  8  4  1  0
  9  2  1  0
  9 10  2  0
 12 11  1  0
 13 12  2  0
 14 12  1  0
 15 14  1  0
 16 17  1  0
 16 15  1  0
 18 19  1  0
 18 17  1  1
 19  9  1  0
 20 18  1  0
 21 20  2  0
 22 20  1  0
 23 22  1  0
 23 24  1  6
 24 25  1  0
 25 26  2  0
 25 29  1  0
 26 27  1  0
 27 28  1  0
 29 28  2  0
 30 23  1  0
 30 31  1  0
 32 30  2  0
M  END
$$$$
