HRH.pdb
     RDKit          3D

 32 33  0  0  1  0  0  0  0  0999 V2000
   18.1891  -25.5305  -10.0887 N   0  0  0  0  0  0  0  0  0  0  0  0
   17.7374  -24.6016   -9.0928 C   0  0  1  0  0  0  0  0  0  0  0  0
   16.7531  -23.6435   -9.7048 C   0  0  0  0  0  0  0  0  0  0  0  0
   17.3937  -22.9229  -10.8285 C   0  0  0  0  0  0  0  0  0  0  0  0
   17.0573  -23.0146  -12.1568 C   0  0  0  0  0  0  0  0  0  0  0  0
   17.8950  -22.1951  -12.8404 N   0  0  0  0  0  0  0  0  0  0  0  0
   18.7293  -21.6085  -11.9713 C   0  0  0  0  0  0  0  0  0  0  0  0
   18.4338  -22.0459  -10.7293 N   0  0  0  0  0  0  0  0  0  0  0  0
   17.1584  -25.2852   -7.9097 C   0  0  0  0  0  0  0  0  0  0  0  0
   16.4512  -26.2880   -8.0709 O   0  0  0  0  0  0  0  0  0  0  0  0
   19.3896  -30.3142   -2.3970 N   0  0  0  0  0  0  0  0  0  0  0  0
   18.0042  -30.0505   -2.5314 C   0  0  0  0  0  0  0  0  0  0  0  0
   17.1042  -30.9921   -2.3802 N   0  0  0  0  0  0  0  0  0  0  0  0
   17.4899  -28.7532   -2.8375 N   0  0  0  0  0  0  0  0  0  0  0  0
   18.2976  -27.5524   -2.8215 C   0  0  0  0  0  0  0  0  0  0  0  0
   17.5465  -26.3436   -3.2831 C   0  0  0  0  0  0  0  0  0  0  0  0
   18.0921  -25.8044   -4.5617 C   0  0  0  0  0  0  0  0  0  0  0  0
   16.9507  -25.3565   -5.4421 C   0  0  2  0  0  0  0  0  0  0  0  0
   17.4433  -24.7542   -6.6397 N   0  0  0  0  0  0  0  0  0  0  0  0
   16.1591  -24.3082   -4.6944 C   0  0  0  0  0  0  0  0  0  0  0  0
   16.7805  -23.5242   -3.9339 O   0  0  0  0  0  0  0  0  0  0  0  0
   16.1106  -30.7155   -2.5224 N   0  0  0  0  0  0  0  0  0  0  0  0
   14.7714  -24.2495   -4.8745 C   0  0  2  0  0  0  0  0  0  0  0  0
   13.8967  -24.2454   -3.6987 C   0  0  0  0  0  0  0  0  0  0  0  0
   13.2595  -25.5954   -3.5557 C   0  0  0  0  0  0  0  0  0  0  0  0
   12.2235  -25.5756   -2.5029 C   0  0  0  0  0  0  0  0  0  0  0  0
   11.8793  -24.4541   -1.7470 N   0  0  0  0  0  0  0  0  0  0  0  0
   10.9100  -24.7889   -0.8947 C   0  0  0  0  0  0  0  0  0  0  0  0
   10.6088  -26.0804   -1.0635 N   0  0  0  0  0  0  0  0  0  0  0  0
   11.4122  -26.5334   -2.0367 C   0  0  0  0  0  0  0  0  0  0  0  0
   14.7164  -23.8530   -2.5055 O   0  0  0  0  0  0  0  0  0  0  0  0
   14.1153  -22.9584   -1.6049 O   0  0  0  0  0  0  0  0  0  0  0  0
  2  1  1  6
  2  3  1  0
  4  3  1  0
  5  4  2  0
  6  5  1  0
  7  6  1  0
  7  8  2  0
  8  4  1  0
  9  2  1  0
  9 10  2  0
 12 11  1  0
 13 12  2  0
 14 12  1  0
 15 14  1  0
 16 17  1  0
 16 15  1  0
 18 19  1  0
 18 17  1  1
 19  9  1  0
 20 18  1  0
 21 20  2  0
 22 20  1  0
 23 22  1  0
 23 24  1  6
 24 25  1  0
 25 26  2  0
 25 29  1  0
 26 27  1  0
 27 28  1  0
 29 28  2  0
 30 23  1  0
 30 31  1  0
 32 30  2  0
M  END
$$$$
