HRH.pdb
     RDKit          3D

 32 33  0  0  1  0  0  0  0  0999 V2000
   20.1798  -21.5515  -12.9759 N   0  0  0  0  0  0  0  0  0  0  0  0
   20.5939  -20.5974  -13.9643 C   0  0  1  0  0  0  0  0  0  0  0  0
   19.7522  -19.3562  -13.8523 C   0  0  0  0  0  0  0  0  0  0  0  0
   18.4460  -19.5802  -14.5123 C   0  0  0  0  0  0  0  0  0  0  0  0
   17.2951  -20.0332  -13.9155 C   0  0  0  0  0  0  0  0  0  0  0  0
   16.3417  -20.0964  -14.8786 N   0  0  0  0  0  0  0  0  0  0  0  0
   16.8752  -19.6968  -16.0410 C   0  0  0  0  0  0  0  0  0  0  0  0
   18.1693  -19.3758  -15.8324 N   0  0  0  0  0  0  0  0  0  0  0  0
   22.0397  -20.2779  -13.8645 C   0  0  0  0  0  0  0  0  0  0  0  0
   22.5247  -19.9863  -12.7638 O   0  0  0  0  0  0  0  0  0  0  0  0
   28.6980  -24.5154  -16.1645 N   0  0  0  0  0  0  0  0  0  0  0  0
   27.2936  -24.5736  -16.3412 C   0  0  0  0  0  0  0  0  0  0  0  0
   26.6384  -25.7085  -16.2956 N   0  0  0  0  0  0  0  0  0  0  0  0
   26.4952  -23.4128  -16.5787 N   0  0  0  0  0  0  0  0  0  0  0  0
   27.0462  -22.0815  -16.7143 C   0  0  0  0  0  0  0  0  0  0  0  0
   26.3520  -21.0770  -15.8498 C   0  0  0  0  0  0  0  0  0  0  0  0
   24.8765  -21.2899  -15.8245 C   0  0  0  0  0  0  0  0  0  0  0  0
   24.2264  -20.1869  -15.0251 C   0  0  2  0  0  0  0  0  0  0  0  0
   22.8046  -20.3211  -15.0431 N   0  0  0  0  0  0  0  0  0  0  0  0
   24.5698  -18.8659  -15.6745 C   0  0  0  0  0  0  0  0  0  0  0  0
   23.6305  -18.1617  -16.1227 O   0  0  0  0  0  0  0  0  0  0  0  0
   25.6016  -25.6524  -16.3716 N   0  0  0  0  0  0  0  0  0  0  0  0
   25.9132  -18.4777  -15.7532 C   0  0  2  0  0  0  0  0  0  0  0  0
   26.2434  -17.1388  -16.2492 C   0  0  0  0  0  0  0  0  0  0  0  0
   26.5634  -16.2488  -15.0853 C   0  0  0  0  0  0  0  0  0  0  0  0
   26.9849  -14.9115  -15.5503 C   0  0  0  0  0  0  0  0  0  0  0  0
   26.9831  -14.4957  -16.8824 N   0  0  0  0  0  0  0  0  0  0  0  0
   27.4192  -13.2371  -16.9423 C   0  0  0  0  0  0  0  0  0  0  0  0
   27.7049  -12.8160  -15.7061 N   0  0  0  0  0  0  0  0  0  0  0  0
   27.4358  -13.8408  -14.8844 C   0  0  0  0  0  0  0  0  0  0  0  0
   27.3782  -17.2654  -17.2218 O   0  0  0  0  0  0  0  0  0  0  0  0
   28.4377  -18.1027  -16.8358 O   0  0  0  0  0  0  0  0  0  0  0  0
  2  1  1  1
  2  3  1  0
  4  3  1  0
  5  4  2  0
  6  5  1  0
  7  6  1  0
  7  8  2  0
  8  4  1  0
  9  2  1  0
  9 10  2  0
 12 11  1  0
 13 12  2  0
 14 12  1  0
 15 14  1  0
 16 17  1  0
 16 15  1  0
 18 19  1  0
 18 17  1  6
 19  9  1  0
 20 18  1  0
 21 20  2  0
 22 20  1  0
 23 22  1  0
 23 24  1  1
 24 25  1  0
 25 26  2  0
 25 29  1  0
 26 27  1  0
 27 28  1  0
 29 28  2  0
 30 23  1  0
 30 31  1  0
 32 30  2  0
M  END
$$$$
