HRH.pdb
     RDKit          3D

 32 33  0  0  1  0  0  0  0  0999 V2000
   24.6385  -20.3571  -15.7811 N   0  0  0  0  0  0  0  0  0  0  0  0
   24.5792  -19.3781  -14.7338 C   0  0  1  0  0  0  0  0  0  0  0  0
   25.0928  -18.0602  -15.2444 C   0  0  0  0  0  0  0  0  0  0  0  0
   26.4421  -18.2439  -15.8255 C   0  0  0  0  0  0  0  0  0  0  0  0
   27.2819  -19.3113  -15.6220 C   0  0  0  0  0  0  0  0  0  0  0  0
   28.4116  -19.0747  -16.3349 N   0  0  0  0  0  0  0  0  0  0  0  0
   28.2861  -17.8987  -16.9649 C   0  0  0  0  0  0  0  0  0  0  0  0
   27.0799  -17.3750  -16.6617 N   0  0  0  0  0  0  0  0  0  0  0  0
   23.2131  -19.2414  -14.1704 C   0  0  0  0  0  0  0  0  0  0  0  0
   22.9578  -18.2958  -13.4138 O   0  0  0  0  0  0  0  0  0  0  0  0
   17.9079  -19.3498  -19.8913 N   0  0  0  0  0  0  0  0  0  0  0  0
   19.3221  -19.3704  -19.8103 C   0  0  0  0  0  0  0  0  0  0  0  0
   20.0737  -19.4654  -20.8805 N   0  0  0  0  0  0  0  0  0  0  0  0
   20.0271  -19.2892  -18.5703 N   0  0  0  0  0  0  0  0  0  0  0  0
   19.3708  -19.1306  -17.2902 C   0  0  0  0  0  0  0  0  0  0  0  0
   20.3270  -19.1746  -16.1403 C   0  0  0  0  0  0  0  0  0  0  0  0
   19.9104  -20.1667  -15.1081 C   0  0  0  0  0  0  0  0  0  0  0  0
   20.9305  -20.1881  -13.9957 C   0  0  2  0  0  0  0  0  0  0  0  0
   22.2561  -20.2074  -14.5268 N   0  0  0  0  0  0  0  0  0  0  0  0
   20.7372  -21.4588  -13.2004 C   0  0  0  0  0  0  0  0  0  0  0  0
   21.3078  -22.5040  -13.6018 O   0  0  0  0  0  0  0  0  0  0  0  0
   21.1032  -19.4896  -20.7275 N   0  0  0  0  0  0  0  0  0  0  0  0
   19.9343  -21.4257  -12.0534 C   0  0  1  0  0  0  0  0  0  0  0  0
   19.7612  -22.6490  -11.2653 C   0  0  0  0  0  0  0  0  0  0  0  0
   19.7738  -22.2999   -9.8069 C   0  0  0  0  0  0  0  0  0  0  0  0
   19.3827  -23.4648   -8.9870 C   0  0  0  0  0  0  0  0  0  0  0  0
   19.0005  -24.7054   -9.4993 N   0  0  0  0  0  0  0  0  0  0  0  0
   18.7179  -25.5229   -8.4846 C   0  0  0  0  0  0  0  0  0  0  0  0
   18.8996  -24.8673   -7.3337 N   0  0  0  0  0  0  0  0  0  0  0  0
   19.2997  -23.6301   -7.6608 C   0  0  0  0  0  0  0  0  0  0  0  0
   18.4874  -23.3110  -11.7001 O   0  0  0  0  0  0  0  0  0  0  0  0
   18.4775  -24.7153  -11.6787 O   0  0  0  0  0  0  0  0  0  0  0  0
  2  1  1  6
  2  3  1  0
  4  3  1  0
  5  4  2  0
  6  5  1  0
  7  6  1  0
  7  8  2  0
  8  4  1  0
  9  2  1  0
  9 10  2  0
 12 11  1  0
 13 12  2  0
 14 12  1  0
 15 14  1  0
 16 17  1  0
 16 15  1  0
 18 19  1  0
 18 17  1  6
 19  9  1  0
 20 18  1  0
 21 20  2  0
 22 20  1  0
 23 22  1  0
 23 24  1  6
 24 25  1  0
 25 26  2  0
 25 29  1  0
 26 27  1  0
 27 28  1  0
 29 28  2  0
 30 23  1  0
 30 31  1  0
 32 30  2  0
M  END
$$$$
