HRH.pdb
     RDKit          3D

 32 33  0  0  1  0  0  0  0  0999 V2000
   22.6290  -15.4422  -18.0202 N   0  0  0  0  0  0  0  0  0  0  0  0
   21.7065  -16.0564  -17.1089 C   0  0  1  0  0  0  0  0  0  0  0  0
   20.4357  -15.2538  -17.0588 C   0  0  0  0  0  0  0  0  0  0  0  0
   20.7347  -13.8773  -16.6029 C   0  0  0  0  0  0  0  0  0  0  0  0
   20.5454  -13.3751  -15.3388 C   0  0  0  0  0  0  0  0  0  0  0  0
   20.9446  -12.0786  -15.3582 N   0  0  0  0  0  0  0  0  0  0  0  0
   21.3703  -11.7764  -16.5923 C   0  0  0  0  0  0  0  0  0  0  0  0
   21.2475  -12.8724  -17.3700 N   0  0  0  0  0  0  0  0  0  0  0  0
   21.4346  -17.4734  -17.4558 C   0  0  0  0  0  0  0  0  0  0  0  0
   20.3821  -17.7674  -18.0367 O   0  0  0  0  0  0  0  0  0  0  0  0
   28.0804  -21.4814  -16.9497 N   0  0  0  0  0  0  0  0  0  0  0  0
   27.3467  -22.6895  -16.8554 C   0  0  0  0  0  0  0  0  0  0  0  0
   27.7864  -23.7122  -16.1625 N   0  0  0  0  0  0  0  0  0  0  0  0
   26.0863  -22.8813  -17.5004 N   0  0  0  0  0  0  0  0  0  0  0  0
   25.3945  -21.8357  -18.2232 C   0  0  0  0  0  0  0  0  0  0  0  0
   24.1784  -21.3425  -17.5045 C   0  0  0  0  0  0  0  0  0  0  0  0
   23.4904  -20.2547  -18.2572 C   0  0  0  0  0  0  0  0  0  0  0  0
   22.2753  -19.8035  -17.4836 C   0  0  2  0  0  0  0  0  0  0  0  0
   22.3997  -18.4327  -17.1029 N   0  0  0  0  0  0  0  0  0  0  0  0
   22.1886  -20.6243  -16.2173 C   0  0  0  0  0  0  0  0  0  0  0  0
   23.0702  -20.4556  -15.3378 O   0  0  0  0  0  0  0  0  0  0  0  0
   27.1557  -24.5380  -16.0973 N   0  0  0  0  0  0  0  0  0  0  0  0
   21.1365  -21.5372  -16.0714 C   0  0  1  0  0  0  0  0  0  0  0  0
   21.0948  -22.3976  -14.8858 C   0  0  0  0  0  0  0  0  0  0  0  0
   22.4885  -22.8364  -14.5480 C   0  0  0  0  0  0  0  0  0  0  0  0
   23.0166  -22.0649  -13.4042 C   0  0  0  0  0  0  0  0  0  0  0  0
   22.3542  -21.0023  -12.7880 N   0  0  0  0  0  0  0  0  0  0  0  0
   23.1122  -20.5398  -11.7934 C   0  0  0  0  0  0  0  0  0  0  0  0
   24.2398  -21.2557  -11.7360 N   0  0  0  0  0  0  0  0  0  0  0  0
   24.1602  -22.1681  -12.7153 C   0  0  0  0  0  0  0  0  0  0  0  0
   20.4332  -21.6356  -13.7761 O   0  0  0  0  0  0  0  0  0  0  0  0
   20.1209  -22.3678  -12.6189 O   0  0  0  0  0  0  0  0  0  0  0  0
  2  1  1  6
  2  3  1  0
  4  3  1  0
  5  4  2  0
  6  5  1  0
  7  6  1  0
  7  8  2  0
  8  4  1  0
  9  2  1  0
  9 10  2  0
 12 11  1  0
 13 12  2  0
 14 12  1  0
 15 14  1  0
 16 17  1  0
 16 15  1  0
 18 19  1  0
 18 17  1  1
 19  9  1  0
 20 18  1  0
 21 20  2  0
 22 20  1  0
 23 22  1  0
 23 24  1  1
 24 25  1  0
 25 26  2  0
 25 29  1  0
 26 27  1  0
 27 28  1  0
 29 28  2  0
 30 23  1  0
 30 31  1  0
 32 30  2  0
M  END
$$$$
