HRH.pdb
     RDKit          3D

 32 33  0  0  1  0  0  0  0  0999 V2000
   25.6141  -17.2857  -19.8961 N   0  0  0  0  0  0  0  0  0  0  0  0
   25.2686  -17.7948  -18.5998 C   0  0  1  0  0  0  0  0  0  0  0  0
   25.8879  -16.9307  -17.5362 C   0  0  0  0  0  0  0  0  0  0  0  0
   27.3634  -17.0183  -17.6212 C   0  0  0  0  0  0  0  0  0  0  0  0
   28.2003  -16.1324  -18.2542 C   0  0  0  0  0  0  0  0  0  0  0  0
   29.4668  -16.5910  -18.0924 N   0  0  0  0  0  0  0  0  0  0  0  0
   29.4272  -17.7264  -17.3819 C   0  0  0  0  0  0  0  0  0  0  0  0
   28.1403  -18.0029  -17.0843 N   0  0  0  0  0  0  0  0  0  0  0  0
   23.8006  -17.9073  -18.4144 C   0  0  0  0  0  0  0  0  0  0  0  0
   23.0507  -17.1077  -18.9890 O   0  0  0  0  0  0  0  0  0  0  0  0
   19.2907  -25.2820  -16.8416 N   0  0  0  0  0  0  0  0  0  0  0  0
   18.9000  -24.3864  -17.8673 C   0  0  0  0  0  0  0  0  0  0  0  0
   18.2147  -24.7879  -18.9106 N   0  0  0  0  0  0  0  0  0  0  0  0
   19.2194  -22.9941  -17.8414 N   0  0  0  0  0  0  0  0  0  0  0  0
   19.9329  -22.3609  -16.7531 C   0  0  0  0  0  0  0  0  0  0  0  0
   20.2305  -20.9187  -17.0176 C   0  0  0  0  0  0  0  0  0  0  0  0
   21.6918  -20.6738  -17.1844 C   0  0  0  0  0  0  0  0  0  0  0  0
   21.9252  -19.2060  -17.4483 C   0  0  2  0  0  0  0  0  0  0  0  0
   23.3206  -18.9327  -17.5811 N   0  0  0  0  0  0  0  0  0  0  0  0
   21.4166  -18.4243  -16.2588 C   0  0  0  0  0  0  0  0  0  0  0  0
   22.2517  -17.8044  -15.5536 O   0  0  0  0  0  0  0  0  0  0  0  0
   17.9690  -24.0622  -19.6154 N   0  0  0  0  0  0  0  0  0  0  0  0
   20.0426  -18.4199  -15.9872 C   0  0  2  0  0  0  0  0  0  0  0  0
   19.4155  -17.1927  -15.4889 C   0  0  0  0  0  0  0  0  0  0  0  0
   19.7365  -16.0632  -16.4219 C   0  0  0  0  0  0  0  0  0  0  0  0
   18.9991  -14.8422  -16.0377 C   0  0  0  0  0  0  0  0  0  0  0  0
   18.2477  -14.7013  -14.8702 N   0  0  0  0  0  0  0  0  0  0  0  0
   17.7221  -13.4762  -14.8404 C   0  0  0  0  0  0  0  0  0  0  0  0
   18.0991  -12.8138  -15.9387 N   0  0  0  0  0  0  0  0  0  0  0  0
   18.8672  -13.6560  -16.6448 C   0  0  0  0  0  0  0  0  0  0  0  0
   17.9427  -17.4408  -15.3513 O   0  0  0  0  0  0  0  0  0  0  0  0
   17.3813  -17.1707  -14.0925 O   0  0  0  0  0  0  0  0  0  0  0  0
  2  1  1  6
  2  3  1  0
  4  3  1  0
  5  4  2  0
  6  5  1  0
  7  6  1  0
  7  8  2  0
  8  4  1  0
  9  2  1  0
  9 10  2  0
 12 11  1  0
 13 12  2  0
 14 12  1  0
 15 14  1  0
 16 17  1  0
 16 15  1  0
 18 19  1  0
 18 17  1  1
 19  9  1  0
 20 18  1  0
 21 20  2  0
 22 20  1  0
 23 22  1  0
 23 24  1  6
 24 25  1  0
 25 26  2  0
 25 29  1  0
 26 27  1  0
 27 28  1  0
 29 28  2  0
 30 23  1  0
 30 31  1  0
 32 30  2  0
M  END
$$$$
