YLY.pdb
     RDKit          3D

 33 34  0  0  1  0  0  0  0  0999 V2000
    6.6553  -23.0202   18.2366 O   0  0  0  0  0  0  0  0  0  0  0  0
    7.0618  -21.9291   19.0139 C   0  0  0  0  0  0  0  0  0  0  0  0
    8.3960  -21.6098   19.1900 C   0  0  0  0  0  0  0  0  0  0  0  0
    8.7645  -20.5269   19.9630 C   0  0  0  0  0  0  0  0  0  0  0  0
    7.8295  -19.7291   20.5833 C   0  0  0  0  0  0  0  0  0  0  0  0
    8.2746  -18.5944   21.3907 C   0  0  0  0  0  0  0  0  0  0  0  0
    8.0107  -17.2540   20.7293 C   0  0  2  0  0  0  0  0  0  0  0  0
    8.7082  -17.1205   19.4802 N   0  0  0  0  0  0  0  0  0  0  0  0
    8.5108  -16.2115   21.6564 C   0  0  0  0  0  0  0  0  0  0  0  0
    9.6707  -15.7742   21.4825 O   0  0  0  0  0  0  0  0  0  0  0  0
    6.4973  -20.0330   20.4183 C   0  0  0  0  0  0  0  0  0  0  0  0
    6.1447  -21.1140   19.6462 C   0  0  0  0  0  0  0  0  0  0  0  0
    6.2696  -13.1083   26.5797 C   0  0  0  0  0  0  0  0  0  0  0  0
    7.4736  -13.2815   25.6101 C   0  0  2  0  0  0  0  0  0  0  0  0
    7.7254  -11.9018   25.0458 C   0  0  0  0  0  0  0  0  0  0  0  0
    7.1258  -14.2976   24.5739 C   0  0  0  0  0  0  0  0  0  0  0  0
    8.2317  -14.6662   23.6462 C   0  0  2  0  0  0  0  0  0  0  0  0
    7.7157  -15.7133   22.7121 N   0  0  0  0  0  0  0  0  0  0  0  0
    9.4185  -15.2398   24.3001 C   0  0  0  0  0  0  0  0  0  0  0  0
   10.5108  -14.5431   24.3212 O   0  0  0  0  0  0  0  0  0  0  0  0
   10.6561  -13.3386   30.8734 O   0  0  0  0  0  0  0  0  0  0  0  0
   10.4908  -14.3192   29.8922 C   0  0  0  0  0  0  0  0  0  0  0  0
    9.4473  -14.3113   28.9944 C   0  0  0  0  0  0  0  0  0  0  0  0
    9.3030  -15.2842   28.0378 C   0  0  0  0  0  0  0  0  0  0  0  0
   10.2369  -16.3053   27.9748 C   0  0  0  0  0  0  0  0  0  0  0  0
   10.1683  -17.3956   26.9919 C   0  0  0  0  0  0  0  0  0  0  0  0
   10.6464  -16.9948   25.6060 C   0  0  2  0  0  0  0  0  0  0  0  0
    9.4403  -16.5078   24.9172 N   0  0  0  0  0  0  0  0  0  0  0  0
   11.1678  -18.1471   24.8684 C   0  0  0  0  0  0  0  0  0  0  0  0
   10.5868  -18.5334   23.8265 O   0  0  0  0  0  0  0  0  0  0  0  0
   11.2765  -16.2982   28.8821 C   0  0  0  0  0  0  0  0  0  0  0  0
   11.4338  -15.3246   29.8504 C   0  0  0  0  0  0  0  0  0  0  0  0
   12.2899  -18.8143   25.3027 O   0  0  0  0  0  0  0  0  0  0  0  0
  2  1  1  0
  3  2  2  0
  4  3  1  0
  5  4  2  0
  5 11  1  0
  6  5  1  0
  7  8  1  6
  7  6  1  0
  9  7  1  0
 10  9  2  0
 11 12  2  0
 12  2  1  0
 14 13  1  1
 14 16  1  0
 15 14  1  0
 17 16  1  1
 17 19  1  0
 17 18  1  0
 18  9  1  0
 19 28  1  0
 20 19  2  0
 22 32  2  0
 22 21  1  0
 23 22  1  0
 24 25  1  0
 24 23  2  0
 25 31  2  0
 26 25  1  0
 27 26  1  1
 27 29  1  0
 28 27  1  0
 29 30  2  0
 29 33  1  0
 31 32  1  0
M  END
$$$$
