YLY.pdb
     RDKit          3D

 33 34  0  0  1  0  0  0  0  0999 V2000
    8.6899  -24.5905   19.8219 O   0  0  0  0  0  0  0  0  0  0  0  0
    9.0491  -23.2689   20.1121 C   0  0  0  0  0  0  0  0  0  0  0  0
   10.3685  -22.8540   20.1305 C   0  0  0  0  0  0  0  0  0  0  0  0
   10.6900  -21.5431   20.4204 C   0  0  0  0  0  0  0  0  0  0  0  0
    9.7217  -20.6054   20.7001 C   0  0  0  0  0  0  0  0  0  0  0  0
   10.1176  -19.2304   21.0007 C   0  0  0  0  0  0  0  0  0  0  0  0
    9.7861  -18.2583   19.8832 C   0  0  2  0  0  0  0  0  0  0  0  0
   10.5876  -18.4862   18.7126 N   0  0  0  0  0  0  0  0  0  0  0  0
   10.0828  -16.8991   20.3940 C   0  0  0  0  0  0  0  0  0  0  0  0
   11.2531  -16.4691   20.2828 O   0  0  0  0  0  0  0  0  0  0  0  0
    8.4036  -21.0017   20.6861 C   0  0  0  0  0  0  0  0  0  0  0  0
    8.0979  -22.3099   20.3959 C   0  0  0  0  0  0  0  0  0  0  0  0
    8.8873  -12.8967   19.0690 C   0  0  0  0  0  0  0  0  0  0  0  0
    7.7970  -13.7185   19.8143 C   0  0  2  0  0  0  0  0  0  0  0  0
    6.5157  -12.9404   19.6182 C   0  0  0  0  0  0  0  0  0  0  0  0
    8.1914  -13.8712   21.2455 C   0  0  0  0  0  0  0  0  0  0  0  0
    9.3913  -14.7200   21.4888 C   0  0  2  0  0  0  0  0  0  0  0  0
    9.0862  -16.0969   20.9924 N   0  0  0  0  0  0  0  0  0  0  0  0
    9.7686  -14.8617   22.9040 C   0  0  0  0  0  0  0  0  0  0  0  0
   10.0008  -13.7891   23.5929 O   0  0  0  0  0  0  0  0  0  0  0  0
    5.7146  -11.6722   26.6052 O   0  0  0  0  0  0  0  0  0  0  0  0
    6.4599  -12.8326   26.3822 C   0  0  0  0  0  0  0  0  0  0  0  0
    7.5307  -13.1968   27.1668 C   0  0  0  0  0  0  0  0  0  0  0  0
    8.2499  -14.3411   26.9309 C   0  0  0  0  0  0  0  0  0  0  0  0
    7.8860  -15.1541   25.8701 C   0  0  0  0  0  0  0  0  0  0  0  0
    8.5945  -16.3963   25.5315 C   0  0  0  0  0  0  0  0  0  0  0  0
   10.0115  -16.1699   25.0306 C   0  0  2  0  0  0  0  0  0  0  0  0
    9.8872  -16.1016   23.5656 N   0  0  0  0  0  0  0  0  0  0  0  0
   10.8827  -17.2968   25.3696 C   0  0  0  0  0  0  0  0  0  0  0  0
   11.0009  -18.2545   24.5689 O   0  0  0  0  0  0  0  0  0  0  0  0
    6.8104  -14.7745   25.0936 C   0  0  0  0  0  0  0  0  0  0  0  0
    6.0775  -13.6248   25.3201 C   0  0  0  0  0  0  0  0  0  0  0  0
   11.5764  -17.3202   26.5575 O   0  0  0  0  0  0  0  0  0  0  0  0
  2  1  1  0
  3  2  2  0
  4  3  1  0
  5  4  2  0
  5 11  1  0
  6  5  1  0
  7  8  1  6
  7  6  1  0
  9  7  1  0
 10  9  2  0
 11 12  2  0
 12  2  1  0
 14 13  1  6
 14 16  1  0
 15 14  1  0
 17 16  1  1
 17 19  1  0
 17 18  1  0
 18  9  1  0
 19 28  1  0
 20 19  2  0
 22 32  2  0
 22 21  1  0
 23 22  1  0
 24 25  1  0
 24 23  2  0
 25 31  2  0
 26 25  1  0
 27 26  1  1
 27 29  1  0
 28 27  1  0
 29 30  2  0
 29 33  1  0
 31 32  1  0
M  END
$$$$
