YLY.pdb
     RDKit          3D

 33 34  0  0  1  0  0  0  0  0999 V2000
    9.3704  -23.1207   20.1038 O   0  0  0  0  0  0  0  0  0  0  0  0
    9.3909  -21.7882   20.5325 C   0  0  0  0  0  0  0  0  0  0  0  0
    8.4130  -21.2687   21.3614 C   0  0  0  0  0  0  0  0  0  0  0  0
    8.4617  -19.9499   21.7666 C   0  0  0  0  0  0  0  0  0  0  0  0
    9.4741  -19.1069   21.3669 C   0  0  0  0  0  0  0  0  0  0  0  0
    9.4773  -17.7187   21.8257 C   0  0  0  0  0  0  0  0  0  0  0  0
    8.3404  -16.8978   21.2449 C   0  0  2  0  0  0  0  0  0  0  0  0
    8.4302  -16.7846   19.8153 N   0  0  0  0  0  0  0  0  0  0  0  0
    8.4496  -15.5397   21.8280 C   0  0  0  0  0  0  0  0  0  0  0  0
    9.3555  -14.7866   21.4046 O   0  0  0  0  0  0  0  0  0  0  0  0
   10.4553  -19.6081   20.5418 C   0  0  0  0  0  0  0  0  0  0  0  0
   10.3944  -20.9229   20.1461 C   0  0  0  0  0  0  0  0  0  0  0  0
    5.8842  -12.8637   26.8429 C   0  0  0  0  0  0  0  0  0  0  0  0
    7.1141  -12.8945   25.8910 C   0  0  2  0  0  0  0  0  0  0  0  0
    7.2674  -11.4726   25.4008 C   0  0  0  0  0  0  0  0  0  0  0  0
    6.8638  -13.8803   24.7989 C   0  0  0  0  0  0  0  0  0  0  0  0
    7.9893  -14.0703   23.8414 C   0  0  2  0  0  0  0  0  0  0  0  0
    7.5656  -15.0901   22.8336 N   0  0  0  0  0  0  0  0  0  0  0  0
    9.2333  -14.5733   24.4454 C   0  0  0  0  0  0  0  0  0  0  0  0
   10.3394  -13.9456   24.1976 O   0  0  0  0  0  0  0  0  0  0  0  0
   12.5188  -16.6858   32.2996 O   0  0  0  0  0  0  0  0  0  0  0  0
   11.7495  -16.5905   31.1374 C   0  0  0  0  0  0  0  0  0  0  0  0
   11.3149  -17.6917   30.4349 C   0  0  0  0  0  0  0  0  0  0  0  0
   10.5599  -17.5765   29.2952 C   0  0  0  0  0  0  0  0  0  0  0  0
   10.2252  -16.3122   28.8386 C   0  0  0  0  0  0  0  0  0  0  0  0
    9.4260  -16.0825   27.6269 C   0  0  0  0  0  0  0  0  0  0  0  0
   10.2628  -15.7635   26.3989 C   0  0  2  0  0  0  0  0  0  0  0  0
    9.2970  -15.7009   25.2901 N   0  0  0  0  0  0  0  0  0  0  0  0
   11.2236  -16.8317   26.1168 C   0  0  0  0  0  0  0  0  0  0  0  0
   12.3805  -16.7704   26.5965 O   0  0  0  0  0  0  0  0  0  0  0  0
   10.6689  -15.2192   29.5544 C   0  0  0  0  0  0  0  0  0  0  0  0
   11.4298  -15.3210   30.7036 C   0  0  0  0  0  0  0  0  0  0  0  0
   10.8744  -17.9058   25.3311 O   0  0  0  0  0  0  0  0  0  0  0  0
  2  1  1  0
  3  2  2  0
  4  3  1  0
  5  4  2  0
  5 11  1  0
  6  5  1  0
  7  8  1  6
  7  6  1  0
  9  7  1  0
 10  9  2  0
 11 12  2  0
 12  2  1  0
 14 13  1  1
 14 16  1  0
 15 14  1  0
 17 16  1  1
 17 19  1  0
 17 18  1  0
 18  9  1  0
 19 28  1  0
 20 19  2  0
 22 32  2  0
 22 21  1  0
 23 22  1  0
 24 25  1  0
 24 23  2  0
 25 31  2  0
 26 25  1  0
 27 26  1  1
 27 29  1  0
 28 27  1  0
 29 30  2  0
 29 33  1  0
 31 32  1  0
M  END
$$$$
