YLY.pdb
     RDKit          3D

 33 34  0  0  1  0  0  0  0  0999 V2000
    7.1172  -13.9138   15.7596 O   0  0  0  0  0  0  0  0  0  0  0  0
    7.6756  -13.9846   17.0414 C   0  0  0  0  0  0  0  0  0  0  0  0
    7.5620  -12.9478   17.9499 C   0  0  0  0  0  0  0  0  0  0  0  0
    8.1241  -13.0486   19.2068 C   0  0  0  0  0  0  0  0  0  0  0  0
    8.8132  -14.1726   19.6032 C   0  0  0  0  0  0  0  0  0  0  0  0
    9.3887  -14.2269   20.9461 C   0  0  0  0  0  0  0  0  0  0  0  0
    8.9135  -15.4242   21.7490 C   0  0  2  0  0  0  0  0  0  0  0  0
    7.4979  -15.6342   21.6203 N   0  0  0  0  0  0  0  0  0  0  0  0
    9.2146  -15.1349   23.1710 C   0  0  0  0  0  0  0  0  0  0  0  0
   10.3758  -14.7732   23.4667 O   0  0  0  0  0  0  0  0  0  0  0  0
    8.9355  -15.2137   18.7112 C   0  0  0  0  0  0  0  0  0  0  0  0
    8.3709  -15.0998   17.4633 C   0  0  0  0  0  0  0  0  0  0  0  0
    8.6796  -12.1008   26.4430 C   0  0  0  0  0  0  0  0  0  0  0  0
    7.4016  -12.7795   25.8721 C   0  0  2  0  0  0  0  0  0  0  0  0
    6.2464  -12.0328   26.4994 C   0  0  0  0  0  0  0  0  0  0  0  0
    7.4275  -14.2334   26.2079 C   0  0  0  0  0  0  0  0  0  0  0  0
    8.5561  -15.0044   25.6152 C   0  0  2  0  0  0  0  0  0  0  0  0
    8.2319  -15.2583   24.1779 N   0  0  0  0  0  0  0  0  0  0  0  0
    8.7910  -16.3214   26.2281 C   0  0  0  0  0  0  0  0  0  0  0  0
    7.7701  -17.0812   26.4725 O   0  0  0  0  0  0  0  0  0  0  0  0
   11.8163  -19.2737   21.0813 O   0  0  0  0  0  0  0  0  0  0  0  0
   11.8111  -19.0823   22.4650 C   0  0  0  0  0  0  0  0  0  0  0  0
   12.8056  -18.4016   23.1303 C   0  0  0  0  0  0  0  0  0  0  0  0
   12.7817  -18.2244   24.4906 C   0  0  0  0  0  0  0  0  0  0  0  0
   11.7234  -18.7472   25.2156 C   0  0  0  0  0  0  0  0  0  0  0  0
   11.6084  -18.6161   26.6748 C   0  0  0  0  0  0  0  0  0  0  0  0
   10.2339  -18.1611   27.1371 C   0  0  2  0  0  0  0  0  0  0  0  0
   10.0686  -16.8163   26.5623 N   0  0  0  0  0  0  0  0  0  0  0  0
   10.1715  -18.0524   28.5959 C   0  0  0  0  0  0  0  0  0  0  0  0
   10.1820  -16.9209   29.1363 O   0  0  0  0  0  0  0  0  0  0  0  0
   10.7351  -19.4267   24.5333 C   0  0  0  0  0  0  0  0  0  0  0  0
   10.7469  -19.6123   23.1638 C   0  0  0  0  0  0  0  0  0  0  0  0
   10.1007  -19.1771   29.3852 O   0  0  0  0  0  0  0  0  0  0  0  0
  2  1  1  0
  3  2  2  0
  4  3  1  0
  5  4  2  0
  5 11  1  0
  6  5  1  0
  7  8  1  1
  7  6  1  0
  9  7  1  0
 10  9  2  0
 11 12  2  0
 12  2  1  0
 14 13  1  1
 14 16  1  0
 15 14  1  0
 17 16  1  1
 17 19  1  0
 17 18  1  0
 18  9  1  0
 19 28  1  0
 20 19  2  0
 22 32  2  0
 22 21  1  0
 23 22  1  0
 24 25  1  0
 24 23  2  0
 25 31  2  0
 26 25  1  0
 27 26  1  1
 27 29  1  0
 28 27  1  0
 29 30  2  0
 29 33  1  0
 31 32  1  0
M  END
$$$$
