YLY.pdb
     RDKit          3D

 33 34  0  0  1  0  0  0  0  0999 V2000
    6.6333  -14.1050   15.6693 O   0  0  0  0  0  0  0  0  0  0  0  0
    7.3938  -14.1742   16.8427 C   0  0  0  0  0  0  0  0  0  0  0  0
    7.9126  -13.0442   17.4488 C   0  0  0  0  0  0  0  0  0  0  0  0
    8.6589  -13.1460   18.6057 C   0  0  0  0  0  0  0  0  0  0  0  0
    8.9146  -14.3626   19.1972 C   0  0  0  0  0  0  0  0  0  0  0  0
    9.7110  -14.4133   20.4223 C   0  0  0  0  0  0  0  0  0  0  0  0
    9.4486  -15.6575   21.2511 C   0  0  2  0  0  0  0  0  0  0  0  0
    8.1255  -16.1774   21.0423 N   0  0  0  0  0  0  0  0  0  0  0  0
    9.5745  -15.2607   22.6735 C   0  0  0  0  0  0  0  0  0  0  0  0
   10.7193  -15.0246   23.1213 O   0  0  0  0  0  0  0  0  0  0  0  0
    8.4057  -15.4970   18.6068 C   0  0  0  0  0  0  0  0  0  0  0  0
    7.6644  -15.3810   17.4552 C   0  0  0  0  0  0  0  0  0  0  0  0
    5.9358  -12.6878   26.9093 C   0  0  0  0  0  0  0  0  0  0  0  0
    7.3283  -13.3300   26.6478 C   0  0  2  0  0  0  0  0  0  0  0  0
    8.3192  -12.2001   26.8113 C   0  0  0  0  0  0  0  0  0  0  0  0
    7.3377  -13.9421   25.2868 C   0  0  0  0  0  0  0  0  0  0  0  0
    8.5769  -14.6893   24.9326 C   0  0  2  0  0  0  0  0  0  0  0  0
    8.4461  -15.1468   23.5152 N   0  0  0  0  0  0  0  0  0  0  0  0
    8.8201  -15.8959   25.7389 C   0  0  0  0  0  0  0  0  0  0  0  0
    7.8816  -16.7856   25.8198 O   0  0  0  0  0  0  0  0  0  0  0  0
   12.4336  -19.5067   21.5659 O   0  0  0  0  0  0  0  0  0  0  0  0
   12.2031  -19.1375   22.8934 C   0  0  0  0  0  0  0  0  0  0  0  0
   11.4206  -19.8770   23.7510 C   0  0  0  0  0  0  0  0  0  0  0  0
   11.2067  -19.4969   25.0518 C   0  0  0  0  0  0  0  0  0  0  0  0
   11.7972  -18.3326   25.5150 C   0  0  0  0  0  0  0  0  0  0  0  0
   11.6258  -17.8374   26.8879 C   0  0  0  0  0  0  0  0  0  0  0  0
   10.2067  -17.3912   27.1998 C   0  0  2  0  0  0  0  0  0  0  0  0
   10.0234  -16.1509   26.4290 N   0  0  0  0  0  0  0  0  0  0  0  0
   10.0461  -17.0813   28.6217 C   0  0  0  0  0  0  0  0  0  0  0  0
   10.1694  -17.9922   29.4746 O   0  0  0  0  0  0  0  0  0  0  0  0
   12.5785  -17.6031   24.6423 C   0  0  0  0  0  0  0  0  0  0  0  0
   12.8021  -17.9746   23.3300 C   0  0  0  0  0  0  0  0  0  0  0  0
    9.7616  -15.8010   29.0374 O   0  0  0  0  0  0  0  0  0  0  0  0
  2  1  1  0
  3  2  2  0
  4  3  1  0
  5  4  2  0
  5 11  1  0
  6  5  1  0
  7  8  1  1
  7  6  1  0
  9  7  1  0
 10  9  2  0
 11 12  2  0
 12  2  1  0
 14 13  1  6
 14 16  1  0
 15 14  1  0
 17 16  1  1
 17 19  1  0
 17 18  1  0
 18  9  1  0
 19 28  1  0
 20 19  2  0
 22 32  2  0
 22 21  1  0
 23 22  1  0
 24 25  1  0
 24 23  2  0
 25 31  2  0
 26 25  1  0
 27 26  1  1
 27 29  1  0
 28 27  1  0
 29 30  2  0
 29 33  1  0
 31 32  1  0
M  END
$$$$
