YLY.pdb
     RDKit          3D

 33 34  0  0  1  0  0  0  0  0999 V2000
   12.2193  -23.0735   14.8575 O   0  0  0  0  0  0  0  0  0  0  0  0
   12.1218  -22.0136   15.7670 C   0  0  0  0  0  0  0  0  0  0  0  0
   13.1744  -21.1470   15.9999 C   0  0  0  0  0  0  0  0  0  0  0  0
   13.0465  -20.1112   16.9034 C   0  0  0  0  0  0  0  0  0  0  0  0
   11.8791  -19.9003   17.6020 C   0  0  0  0  0  0  0  0  0  0  0  0
   11.7975  -18.7878   18.5472 C   0  0  0  0  0  0  0  0  0  0  0  0
   10.6191  -17.8683   18.2832 C   0  0  2  0  0  0  0  0  0  0  0  0
   10.7317  -17.1939   17.0195 N   0  0  0  0  0  0  0  0  0  0  0  0
   10.6211  -16.8480   19.3581 C   0  0  0  0  0  0  0  0  0  0  0  0
   11.7133  -16.5622   19.8987 O   0  0  0  0  0  0  0  0  0  0  0  0
   10.8217  -20.7536   17.3821 C   0  0  0  0  0  0  0  0  0  0  0  0
   10.9629  -21.7807   16.4797 C   0  0  0  0  0  0  0  0  0  0  0  0
    8.9299  -12.5444   19.5207 C   0  0  0  0  0  0  0  0  0  0  0  0
    7.8951  -13.7020   19.6153 C   0  0  2  0  0  0  0  0  0  0  0  0
    6.5439  -13.0248   19.5840 C   0  0  0  0  0  0  0  0  0  0  0  0
    8.1451  -14.4817   20.8630 C   0  0  0  0  0  0  0  0  0  0  0  0
    9.4358  -15.2246   20.9024 C   0  0  2  0  0  0  0  0  0  0  0  0
    9.4341  -16.2054   19.7740 N   0  0  0  0  0  0  0  0  0  0  0  0
    9.6608  -16.0033   22.1306 C   0  0  0  0  0  0  0  0  0  0  0  0
    9.2061  -17.2153   22.1868 O   0  0  0  0  0  0  0  0  0  0  0  0
   13.3386  -21.5561   21.3878 O   0  0  0  0  0  0  0  0  0  0  0  0
   13.0308  -20.3763   22.0698 C   0  0  0  0  0  0  0  0  0  0  0  0
   12.0103  -20.2878   22.9894 C   0  0  0  0  0  0  0  0  0  0  0  0
   11.7242  -19.1191   23.6487 C   0  0  0  0  0  0  0  0  0  0  0  0
   12.4867  -17.9943   23.3795 C   0  0  0  0  0  0  0  0  0  0  0  0
   12.2571  -16.6956   24.0279 C   0  0  0  0  0  0  0  0  0  0  0  0
   10.7937  -16.4179   24.3299 C   0  0  2  0  0  0  0  0  0  0  0  0
   10.3525  -15.5120   23.2572 N   0  0  0  0  0  0  0  0  0  0  0  0
   10.6359  -15.7291   25.6123 C   0  0  0  0  0  0  0  0  0  0  0  0
   10.1837  -16.3526   26.6017 O   0  0  0  0  0  0  0  0  0  0  0  0
   13.5055  -18.1003   22.4551 C   0  0  0  0  0  0  0  0  0  0  0  0
   13.8044  -19.2710   21.7840 C   0  0  0  0  0  0  0  0  0  0  0  0
   10.9783  -14.4035   25.7484 O   0  0  0  0  0  0  0  0  0  0  0  0
  2  1  1  0
  3  2  2  0
  4  3  1  0
  5  4  2  0
  5 11  1  0
  6  5  1  0
  7  8  1  6
  7  6  1  0
  9  7  1  0
 10  9  2  0
 11 12  2  0
 12  2  1  0
 14 13  1  1
 14 16  1  0
 15 14  1  0
 17 16  1  1
 17 19  1  0
 17 18  1  0
 18  9  1  0
 19 28  1  0
 20 19  2  0
 22 32  2  0
 22 21  1  0
 23 22  1  0
 24 25  1  0
 24 23  2  0
 25 31  2  0
 26 25  1  0
 27 26  1  6
 27 29  1  0
 28 27  1  0
 29 30  2  0
 29 33  1  0
 31 32  1  0
M  END
$$$$
