YLY.pdb
     RDKit          3D

 33 34  0  0  1  0  0  0  0  0999 V2000
   12.2779  -23.3964   15.6697 O   0  0  0  0  0  0  0  0  0  0  0  0
   12.1478  -22.3040   16.5355 C   0  0  0  0  0  0  0  0  0  0  0  0
   13.2111  -21.4697   16.8296 C   0  0  0  0  0  0  0  0  0  0  0  0
   13.0502  -20.4003   17.6877 C   0  0  0  0  0  0  0  0  0  0  0  0
   11.8384  -20.1234   18.2795 C   0  0  0  0  0  0  0  0  0  0  0  0
   11.7233  -18.9778   19.1806 C   0  0  0  0  0  0  0  0  0  0  0  0
   10.8181  -17.8853   18.6412 C   0  0  2  0  0  0  0  0  0  0  0  0
   11.3707  -17.2513   17.4761 N   0  0  0  0  0  0  0  0  0  0  0  0
   10.6902  -16.8666   19.7099 C   0  0  0  0  0  0  0  0  0  0  0  0
   11.7344  -16.3233   20.1356 O   0  0  0  0  0  0  0  0  0  0  0  0
   10.7698  -20.9438   17.9975 C   0  0  0  0  0  0  0  0  0  0  0  0
   10.9442  -22.0048   17.1414 C   0  0  0  0  0  0  0  0  0  0  0  0
    8.6021  -12.8433   19.7544 C   0  0  0  0  0  0  0  0  0  0  0  0
    7.6592  -14.0785   19.8264 C   0  0  2  0  0  0  0  0  0  0  0  0
    6.2607  -13.5110   19.7399 C   0  0  0  0  0  0  0  0  0  0  0  0
    7.9251  -14.8247   21.0911 C   0  0  0  0  0  0  0  0  0  0  0  0
    9.2996  -15.3840   21.2242 C   0  0  2  0  0  0  0  0  0  0  0  0
    9.4339  -16.5061   20.2454 N   0  0  0  0  0  0  0  0  0  0  0  0
    9.6098  -15.9467   22.5480 C   0  0  0  0  0  0  0  0  0  0  0  0
    9.1920  -17.1414   22.8259 O   0  0  0  0  0  0  0  0  0  0  0  0
   11.2109  -15.8079   31.2212 O   0  0  0  0  0  0  0  0  0  0  0  0
   11.0311  -15.4422   29.8850 C   0  0  0  0  0  0  0  0  0  0  0  0
   10.2894  -14.3477   29.5018 C   0  0  0  0  0  0  0  0  0  0  0  0
   10.1251  -14.0054   28.1833 C   0  0  0  0  0  0  0  0  0  0  0  0
   10.7247  -14.7863   27.2089 C   0  0  0  0  0  0  0  0  0  0  0  0
   10.6047  -14.5072   25.7711 C   0  0  0  0  0  0  0  0  0  0  0  0
   10.3785  -15.7513   24.9278 C   0  0  2  0  0  0  0  0  0  0  0  0
   10.3460  -15.2649   23.5391 N   0  0  0  0  0  0  0  0  0  0  0  0
    9.0881  -16.3731   25.2314 C   0  0  0  0  0  0  0  0  0  0  0  0
    9.0509  -17.4378   25.8926 O   0  0  0  0  0  0  0  0  0  0  0  0
   11.4646  -15.8797   27.6101 C   0  0  0  0  0  0  0  0  0  0  0  0
   11.6381  -16.2357   28.9343 C   0  0  0  0  0  0  0  0  0  0  0  0
    7.9117  -15.8041   24.8009 O   0  0  0  0  0  0  0  0  0  0  0  0
  2  1  1  0
  3  2  2  0
  4  3  1  0
  5  4  2  0
  5 11  1  0
  6  5  1  0
  7  8  1  6
  7  6  1  0
  9  7  1  0
 10  9  2  0
 11 12  2  0
 12  2  1  0
 14 13  1  1
 14 16  1  0
 15 14  1  0
 17 16  1  1
 17 19  1  0
 17 18  1  0
 18  9  1  0
 19 28  1  0
 20 19  2  0
 22 32  2  0
 22 21  1  0
 23 22  1  0
 24 25  1  0
 24 23  2  0
 25 31  2  0
 26 25  1  0
 27 26  1  1
 27 29  1  0
 28 27  1  0
 29 30  2  0
 29 33  1  0
 31 32  1  0
M  END
$$$$
