YLY.pdb
     RDKit          3D

 33 34  0  0  1  0  0  0  0  0999 V2000
    6.6765  -19.0740   16.4547 O   0  0  0  0  0  0  0  0  0  0  0  0
    7.1076  -18.6215   17.7074 C   0  0  0  0  0  0  0  0  0  0  0  0
    6.2278  -18.1190   18.6490 C   0  0  0  0  0  0  0  0  0  0  0  0
    6.6846  -17.6807   19.8758 C   0  0  0  0  0  0  0  0  0  0  0  0
    8.0197  -17.7251   20.2088 C   0  0  0  0  0  0  0  0  0  0  0  0
    8.4496  -17.2478   21.5222 C   0  0  0  0  0  0  0  0  0  0  0  0
    8.5850  -15.7375   21.5911 C   0  0  2  0  0  0  0  0  0  0  0  0
    9.6214  -15.2473   20.7249 N   0  0  0  0  0  0  0  0  0  0  0  0
    8.9475  -15.4020   22.9883 C   0  0  0  0  0  0  0  0  0  0  0  0
   10.1433  -15.5311   23.3352 O   0  0  0  0  0  0  0  0  0  0  0  0
    8.9087  -18.2223   19.2831 C   0  0  0  0  0  0  0  0  0  0  0  0
    8.4401  -18.6553   18.0657 C   0  0  0  0  0  0  0  0  0  0  0  0
    8.3740  -11.7066   26.0426 C   0  0  0  0  0  0  0  0  0  0  0  0
    7.1399  -12.4933   25.5156 C   0  0  2  0  0  0  0  0  0  0  0  0
    5.9401  -11.7621   26.0735 C   0  0  0  0  0  0  0  0  0  0  0  0
    7.2365  -13.9136   25.9633 C   0  0  0  0  0  0  0  0  0  0  0  0
    8.3405  -14.7022   25.3478 C   0  0  2  0  0  0  0  0  0  0  0  0
    7.9847  -14.9478   23.9165 N   0  0  0  0  0  0  0  0  0  0  0  0
    8.5651  -16.0241   25.9538 C   0  0  0  0  0  0  0  0  0  0  0  0
    8.0189  -17.0600   25.3992 O   0  0  0  0  0  0  0  0  0  0  0  0
   15.2859  -21.0910   26.0311 O   0  0  0  0  0  0  0  0  0  0  0  0
   14.3157  -20.0865   25.9923 C   0  0  0  0  0  0  0  0  0  0  0  0
   14.2607  -19.1370   24.9973 C   0  0  0  0  0  0  0  0  0  0  0  0
   13.2993  -18.1584   24.9775 C   0  0  0  0  0  0  0  0  0  0  0  0
   12.3554  -18.1263   25.9909 C   0  0  0  0  0  0  0  0  0  0  0  0
   11.2896  -17.1170   26.0629 C   0  0  0  0  0  0  0  0  0  0  0  0
   10.2923  -17.3657   27.1824 C   0  0  2  0  0  0  0  0  0  0  0  0
    9.3502  -16.2376   27.1059 N   0  0  0  0  0  0  0  0  0  0  0  0
   10.9445  -17.3367   28.4930 C   0  0  0  0  0  0  0  0  0  0  0  0
   11.1611  -16.2372   29.0557 O   0  0  0  0  0  0  0  0  0  0  0  0
   12.4249  -19.0853   26.9806 C   0  0  0  0  0  0  0  0  0  0  0  0
   13.3878  -20.0763   27.0125 C   0  0  0  0  0  0  0  0  0  0  0  0
   11.3240  -18.5018   29.1187 O   0  0  0  0  0  0  0  0  0  0  0  0
  2  1  1  0
  3  2  2  0
  4  3  1  0
  5  4  2  0
  5 11  1  0
  6  5  1  0
  7  8  1  6
  7  6  1  0
  9  7  1  0
 10  9  2  0
 11 12  2  0
 12  2  1  0
 14 13  1  1
 14 16  1  0
 15 14  1  0
 17 16  1  1
 17 19  1  0
 17 18  1  0
 18  9  1  0
 19 28  1  0
 20 19  2  0
 22 32  2  0
 22 21  1  0
 23 22  1  0
 24 25  1  0
 24 23  2  0
 25 31  2  0
 26 25  1  0
 27 26  1  6
 27 29  1  0
 28 27  1  0
 29 30  2  0
 29 33  1  0
 31 32  1  0
M  END
$$$$
