YLY.pdb
     RDKit          3D

 33 34  0  0  1  0  0  0  0  0999 V2000
    7.0256  -20.0505   16.7738 O   0  0  0  0  0  0  0  0  0  0  0  0
    7.5327  -19.3982   17.9040 C   0  0  0  0  0  0  0  0  0  0  0  0
    7.8266  -18.0465   17.9012 C   0  0  0  0  0  0  0  0  0  0  0  0
    8.3257  -17.4325   19.0325 C   0  0  0  0  0  0  0  0  0  0  0  0
    8.5491  -18.1324   20.1968 C   0  0  0  0  0  0  0  0  0  0  0  0
    9.0791  -17.4326   21.3660 C   0  0  0  0  0  0  0  0  0  0  0  0
    9.0833  -15.9234   21.2046 C   0  0  2  0  0  0  0  0  0  0  0  0
   10.1093  -15.4787   20.3023 N   0  0  0  0  0  0  0  0  0  0  0  0
    9.3581  -15.3489   22.5428 C   0  0  0  0  0  0  0  0  0  0  0  0
   10.5498  -15.2678   22.9170 O   0  0  0  0  0  0  0  0  0  0  0  0
    8.2620  -19.4784   20.2165 C   0  0  0  0  0  0  0  0  0  0  0  0
    7.7656  -20.0767   19.0832 C   0  0  0  0  0  0  0  0  0  0  0  0
    6.1598  -12.1984   26.8362 C   0  0  0  0  0  0  0  0  0  0  0  0
    7.5185  -12.8705   26.4866 C   0  0  2  0  0  0  0  0  0  0  0  0
    8.5303  -11.7476   26.5109 C   0  0  0  0  0  0  0  0  0  0  0  0
    7.4045  -13.5448   25.1602 C   0  0  0  0  0  0  0  0  0  0  0  0
    8.6056  -14.3149   24.7313 C   0  0  2  0  0  0  0  0  0  0  0  0
    8.3177  -14.9002   23.3861 N   0  0  0  0  0  0  0  0  0  0  0  0
    8.9601  -15.4418   25.6086 C   0  0  0  0  0  0  0  0  0  0  0  0
    8.2322  -16.5129   25.5648 O   0  0  0  0  0  0  0  0  0  0  0  0
   13.0199  -18.8219   21.9652 O   0  0  0  0  0  0  0  0  0  0  0  0
   12.7703  -18.2886   23.2320 C   0  0  0  0  0  0  0  0  0  0  0  0
   13.4197  -17.1760   23.7171 C   0  0  0  0  0  0  0  0  0  0  0  0
   13.1599  -16.6678   24.9647 C   0  0  0  0  0  0  0  0  0  0  0  0
   12.2145  -17.2948   25.7597 C   0  0  0  0  0  0  0  0  0  0  0  0
   11.8685  -16.8322   27.1109 C   0  0  0  0  0  0  0  0  0  0  0  0
   10.3785  -16.6124   27.3146 C   0  0  2  0  0  0  0  0  0  0  0  0
   10.0559  -15.4323   26.4964 N   0  0  0  0  0  0  0  0  0  0  0  0
   10.0716  -16.3048   28.7128 C   0  0  0  0  0  0  0  0  0  0  0  0
   10.1523  -17.2066   29.5803 O   0  0  0  0  0  0  0  0  0  0  0  0
   11.5728  -18.4088   25.2583 C   0  0  0  0  0  0  0  0  0  0  0  0
   11.8249  -18.9310   24.0038 C   0  0  0  0  0  0  0  0  0  0  0  0
    9.6954  -15.0364   29.0904 O   0  0  0  0  0  0  0  0  0  0  0  0
  2  1  1  0
  3  2  2  0
  4  3  1  0
  5  4  2  0
  5 11  1  0
  6  5  1  0
  7  8  1  6
  7  6  1  0
  9  7  1  0
 10  9  2  0
 11 12  2  0
 12  2  1  0
 14 13  1  6
 14 16  1  0
 15 14  1  0
 17 16  1  1
 17 19  1  0
 17 18  1  0
 18  9  1  0
 19 28  1  0
 20 19  2  0
 22 32  2  0
 22 21  1  0
 23 22  1  0
 24 25  1  0
 24 23  2  0
 25 31  2  0
 26 25  1  0
 27 26  1  1
 27 29  1  0
 28 27  1  0
 29 30  2  0
 29 33  1  0
 31 32  1  0
M  END
$$$$
