YLY.pdb
     RDKit          3D

 33 34  0  0  1  0  0  0  0  0999 V2000
    5.1556  -20.0250   18.0497 O   0  0  0  0  0  0  0  0  0  0  0  0
    5.8751  -19.3364   19.0336 C   0  0  0  0  0  0  0  0  0  0  0  0
    5.9388  -17.9550   19.0647 C   0  0  0  0  0  0  0  0  0  0  0  0
    6.6571  -17.3056   20.0485 C   0  0  0  0  0  0  0  0  0  0  0  0
    7.3321  -17.9983   21.0283 C   0  0  0  0  0  0  0  0  0  0  0  0
    8.0776  -17.2604   22.0468 C   0  0  0  0  0  0  0  0  0  0  0  0
    7.9246  -15.7554   21.9223 C   0  0  2  0  0  0  0  0  0  0  0  0
    8.5708  -15.2415   20.7463 N   0  0  0  0  0  0  0  0  0  0  0  0
    8.5764  -15.1574   23.1114 C   0  0  0  0  0  0  0  0  0  0  0  0
    9.8228  -15.0423   23.1061 O   0  0  0  0  0  0  0  0  0  0  0  0
    7.2790  -19.3736   21.0119 C   0  0  0  0  0  0  0  0  0  0  0  0
    6.5601  -20.0071   20.0266 C   0  0  0  0  0  0  0  0  0  0  0  0
    7.2265  -11.4334   25.1207 C   0  0  0  0  0  0  0  0  0  0  0  0
    6.5569  -12.7719   25.5448 C   0  0  2  0  0  0  0  0  0  0  0  0
    5.3317  -12.3664   26.3322 C   0  0  0  0  0  0  0  0  0  0  0  0
    7.5336  -13.5805   26.3318 C   0  0  0  0  0  0  0  0  0  0  0  0
    8.4933  -14.3840   25.5239 C   0  0  2  0  0  0  0  0  0  0  0  0
    7.8287  -14.7238   24.2284 N   0  0  0  0  0  0  0  0  0  0  0  0
    8.8933  -15.6617   26.1344 C   0  0  0  0  0  0  0  0  0  0  0  0
    7.9756  -16.5407   26.3876 O   0  0  0  0  0  0  0  0  0  0  0  0
   15.7210  -15.5999   23.7569 O   0  0  0  0  0  0  0  0  0  0  0  0
   14.5752  -16.2003   24.2843 C   0  0  0  0  0  0  0  0  0  0  0  0
   13.3252  -16.0440   23.7294 C   0  0  0  0  0  0  0  0  0  0  0  0
   12.2120  -16.6427   24.2630 C   0  0  0  0  0  0  0  0  0  0  0  0
   12.3519  -17.4285   25.3952 C   0  0  0  0  0  0  0  0  0  0  0  0
   11.2221  -18.1073   26.0451 C   0  0  0  0  0  0  0  0  0  0  0  0
   10.5472  -17.2702   27.1193 C   0  0  2  0  0  0  0  0  0  0  0  0
   10.2249  -15.9958   26.4573 N   0  0  0  0  0  0  0  0  0  0  0  0
   11.4583  -16.9968   28.2323 C   0  0  0  0  0  0  0  0  0  0  0  0
   11.8981  -17.9459   28.9237 O   0  0  0  0  0  0  0  0  0  0  0  0
   13.6118  -17.5747   25.9387 C   0  0  0  0  0  0  0  0  0  0  0  0
   14.7411  -16.9775   25.4114 C   0  0  0  0  0  0  0  0  0  0  0  0
   11.8409  -15.7095   28.5315 O   0  0  0  0  0  0  0  0  0  0  0  0
  2  1  1  0
  3  2  2  0
  4  3  1  0
  5  4  2  0
  5 11  1  0
  6  5  1  0
  7  8  1  6
  7  6  1  0
  9  7  1  0
 10  9  2  0
 11 12  2  0
 12  2  1  0
 14 13  1  1
 14 16  1  0
 15 14  1  0
 17 16  1  1
 17 19  1  0
 17 18  1  0
 18  9  1  0
 19 28  1  0
 20 19  2  0
 22 32  2  0
 22 21  1  0
 23 22  1  0
 24 25  1  0
 24 23  2  0
 25 31  2  0
 26 25  1  0
 27 26  1  6
 27 29  1  0
 28 27  1  0
 29 30  2  0
 29 33  1  0
 31 32  1  0
M  END
$$$$
