YLY.pdb
     RDKit          3D

 33 34  0  0  1  0  0  0  0  0999 V2000
   10.6470  -24.2343   18.0319 O   0  0  0  0  0  0  0  0  0  0  0  0
   10.7740  -22.9665   18.6121 C   0  0  0  0  0  0  0  0  0  0  0  0
   10.0318  -22.5866   19.7157 C   0  0  0  0  0  0  0  0  0  0  0  0
   10.1804  -21.3287   20.2646 C   0  0  0  0  0  0  0  0  0  0  0  0
   11.0634  -20.4108   19.7420 C   0  0  0  0  0  0  0  0  0  0  0  0
   11.1812  -19.0922   20.3626 C   0  0  0  0  0  0  0  0  0  0  0  0
   10.0454  -18.1564   19.9909 C   0  0  2  0  0  0  0  0  0  0  0  0
    9.9762  -17.9257   18.5744 N   0  0  0  0  0  0  0  0  0  0  0  0
   10.3176  -16.8629   20.6612 C   0  0  0  0  0  0  0  0  0  0  0  0
   11.4634  -16.3709   20.5516 O   0  0  0  0  0  0  0  0  0  0  0  0
   11.8098  -20.7728   18.6437 C   0  0  0  0  0  0  0  0  0  0  0  0
   11.6518  -22.0284   18.1075 C   0  0  0  0  0  0  0  0  0  0  0  0
    8.8263  -12.9995   19.7529 C   0  0  0  0  0  0  0  0  0  0  0  0
    7.8256  -13.8600   20.5762 C   0  0  2  0  0  0  0  0  0  0  0  0
    6.5211  -13.0974   20.5305 C   0  0  0  0  0  0  0  0  0  0  0  0
    8.3611  -14.0478   21.9565 C   0  0  0  0  0  0  0  0  0  0  0  0
    9.5998  -14.8699   22.0532 C   0  0  2  0  0  0  0  0  0  0  0  0
    9.3248  -16.1897   21.4068 N   0  0  0  0  0  0  0  0  0  0  0  0
   10.0390  -15.1624   23.4268 C   0  0  0  0  0  0  0  0  0  0  0  0
   11.0085  -14.4642   23.9284 O   0  0  0  0  0  0  0  0  0  0  0  0
    5.6707  -11.5056   26.2378 O   0  0  0  0  0  0  0  0  0  0  0  0
    6.3439  -12.7297   26.2456 C   0  0  0  0  0  0  0  0  0  0  0  0
    5.9241  -13.8195   25.5170 C   0  0  0  0  0  0  0  0  0  0  0  0
    6.5998  -15.0134   25.5385 C   0  0  0  0  0  0  0  0  0  0  0  0
    7.7396  -15.1240   26.3179 C   0  0  0  0  0  0  0  0  0  0  0  0
    8.5299  -16.3593   26.4128 C   0  0  0  0  0  0  0  0  0  0  0  0
    9.8461  -16.2979   25.6553 C   0  0  2  0  0  0  0  0  0  0  0  0
    9.4614  -16.1582   24.2415 N   0  0  0  0  0  0  0  0  0  0  0  0
   10.6070  -17.5394   25.8080 C   0  0  0  0  0  0  0  0  0  0  0  0
   10.8139  -18.2690   24.8094 O   0  0  0  0  0  0  0  0  0  0  0  0
    8.1465  -14.0222   27.0421 C   0  0  0  0  0  0  0  0  0  0  0  0
    7.4754  -12.8140   27.0295 C   0  0  0  0  0  0  0  0  0  0  0  0
   11.1006  -17.9184   27.0351 O   0  0  0  0  0  0  0  0  0  0  0  0
  2  1  1  0
  3  2  2  0
  4  3  1  0
  5  4  2  0
  5 11  1  0
  6  5  1  0
  7  8  1  6
  7  6  1  0
  9  7  1  0
 10  9  2  0
 11 12  2  0
 12  2  1  0
 14 13  1  6
 14 16  1  0
 15 14  1  0
 17 16  1  1
 17 19  1  0
 17 18  1  0
 18  9  1  0
 19 28  1  0
 20 19  2  0
 22 32  2  0
 22 21  1  0
 23 22  1  0
 24 25  1  0
 24 23  2  0
 25 31  2  0
 26 25  1  0
 27 26  1  1
 27 29  1  0
 28 27  1  0
 29 30  2  0
 29 33  1  0
 31 32  1  0
M  END
$$$$
