YLY.pdb
     RDKit          3D

 33 34  0  0  1  0  0  0  0  0999 V2000
    7.4291  -14.8440   16.0972 O   0  0  0  0  0  0  0  0  0  0  0  0
    7.7916  -14.6030   17.4277 C   0  0  0  0  0  0  0  0  0  0  0  0
    8.3552  -15.5835   18.2241 C   0  0  0  0  0  0  0  0  0  0  0  0
    8.7018  -15.3140   19.5330 C   0  0  0  0  0  0  0  0  0  0  0  0
    8.5030  -14.0722   20.0932 C   0  0  0  0  0  0  0  0  0  0  0  0
    8.8885  -13.8409   21.4844 C   0  0  0  0  0  0  0  0  0  0  0  0
    8.7015  -15.0633   22.3645 C   0  0  2  0  0  0  0  0  0  0  0  0
    7.3274  -15.4785   22.4287 N   0  0  0  0  0  0  0  0  0  0  0  0
    9.1374  -14.6815   23.7285 C   0  0  0  0  0  0  0  0  0  0  0  0
   10.3639  -14.5507   23.9413 O   0  0  0  0  0  0  0  0  0  0  0  0
    7.9432  -13.0851   19.3143 C   0  0  0  0  0  0  0  0  0  0  0  0
    7.6029  -13.3672   18.0129 C   0  0  0  0  0  0  0  0  0  0  0  0
    7.3977  -11.1931   25.3513 C   0  0  0  0  0  0  0  0  0  0  0  0
    6.6250  -12.4693   25.7917 C   0  0  2  0  0  0  0  0  0  0  0  0
    5.3480  -11.9587   26.4195 C   0  0  0  0  0  0  0  0  0  0  0  0
    7.4775  -13.2597   26.7274 C   0  0  0  0  0  0  0  0  0  0  0  0
    8.6445  -13.9437   26.1029 C   0  0  2  0  0  0  0  0  0  0  0  0
    8.2096  -14.4670   24.7716 N   0  0  0  0  0  0  0  0  0  0  0  0
    9.1572  -15.0985   26.8571 C   0  0  0  0  0  0  0  0  0  0  0  0
    9.5498  -14.9152   28.0783 O   0  0  0  0  0  0  0  0  0  0  0  0
   10.2678  -22.6567   30.8314 O   0  0  0  0  0  0  0  0  0  0  0  0
    9.8516  -21.5695   30.0590 C   0  0  0  0  0  0  0  0  0  0  0  0
    9.1147  -21.7098   28.9048 C   0  0  0  0  0  0  0  0  0  0  0  0
    8.7157  -20.6286   28.1603 C   0  0  0  0  0  0  0  0  0  0  0  0
    9.0660  -19.3573   28.5845 C   0  0  0  0  0  0  0  0  0  0  0  0
    8.6922  -18.1371   27.8557 C   0  0  0  0  0  0  0  0  0  0  0  0
    9.8513  -17.4958   27.1106 C   0  0  2  0  0  0  0  0  0  0  0  0
    9.2422  -16.4050   26.3326 N   0  0  0  0  0  0  0  0  0  0  0  0
   10.4725  -18.4388   26.1787 C   0  0  0  0  0  0  0  0  0  0  0  0
   11.1511  -19.3955   26.6220 O   0  0  0  0  0  0  0  0  0  0  0  0
    9.8048  -19.2345   29.7433 C   0  0  0  0  0  0  0  0  0  0  0  0
   10.2132  -20.3148   30.5026 C   0  0  0  0  0  0  0  0  0  0  0  0
   10.3218  -18.2907   24.8192 O   0  0  0  0  0  0  0  0  0  0  0  0
  2  1  1  0
  3  2  2  0
  4  3  1  0
  5  4  2  0
  5 11  1  0
  6  5  1  0
  7  8  1  1
  7  6  1  0
  9  7  1  0
 10  9  2  0
 11 12  2  0
 12  2  1  0
 14 13  1  1
 14 16  1  0
 15 14  1  0
 17 16  1  1
 17 19  1  0
 17 18  1  0
 18  9  1  0
 19 28  1  0
 20 19  2  0
 22 32  2  0
 22 21  1  0
 23 22  1  0
 24 25  1  0
 24 23  2  0
 25 31  2  0
 26 25  1  0
 27 26  1  6
 27 29  1  0
 28 27  1  0
 29 30  2  0
 29 33  1  0
 31 32  1  0
M  END
$$$$
