YLY.pdb
     RDKit          3D

 33 34  0  0  1  0  0  0  0  0999 V2000
    6.7498  -23.4369   14.8748 O   0  0  0  0  0  0  0  0  0  0  0  0
    7.4389  -22.4460   15.5841 C   0  0  0  0  0  0  0  0  0  0  0  0
    8.2117  -22.7401   16.6929 C   0  0  0  0  0  0  0  0  0  0  0  0
    8.8791  -21.7398   17.3710 C   0  0  0  0  0  0  0  0  0  0  0  0
    8.8039  -20.4231   16.9760 C   0  0  0  0  0  0  0  0  0  0  0  0
    9.5310  -19.4034   17.7303 C   0  0  0  0  0  0  0  0  0  0  0  0
    9.3146  -17.9999   17.1942 C   0  0  2  0  0  0  0  0  0  0  0  0
   10.0636  -17.7587   15.9920 N   0  0  0  0  0  0  0  0  0  0  0  0
    9.7934  -17.0628   18.2377 C   0  0  0  0  0  0  0  0  0  0  0  0
   11.0242  -16.8507   18.3209 O   0  0  0  0  0  0  0  0  0  0  0  0
    8.0390  -20.1132   15.8744 C   0  0  0  0  0  0  0  0  0  0  0  0
    7.3799  -21.1191   15.2088 C   0  0  0  0  0  0  0  0  0  0  0  0
    8.6597  -12.6090   19.3633 C   0  0  0  0  0  0  0  0  0  0  0  0
    7.6586  -13.7658   19.6450 C   0  0  2  0  0  0  0  0  0  0  0  0
    6.3886  -13.0843   20.1012 C   0  0  0  0  0  0  0  0  0  0  0  0
    8.2450  -14.6836   20.6652 C   0  0  0  0  0  0  0  0  0  0  0  0
    9.3969  -15.5044   20.1971 C   0  0  2  0  0  0  0  0  0  0  0  0
    8.9011  -16.4180   19.1225 N   0  0  0  0  0  0  0  0  0  0  0  0
   10.0003  -16.3633   21.2283 C   0  0  0  0  0  0  0  0  0  0  0  0
    9.3214  -17.3773   21.6640 O   0  0  0  0  0  0  0  0  0  0  0  0
   15.9260  -20.8606   25.8046 O   0  0  0  0  0  0  0  0  0  0  0  0
   15.3185  -19.9716   24.9145 C   0  0  0  0  0  0  0  0  0  0  0  0
   15.9687  -19.4458   23.8211 C   0  0  0  0  0  0  0  0  0  0  0  0
   15.3538  -18.5737   22.9587 C   0  0  0  0  0  0  0  0  0  0  0  0
   14.0379  -18.2123   23.1969 C   0  0  0  0  0  0  0  0  0  0  0  0
   13.2932  -17.2823   22.3367 C   0  0  0  0  0  0  0  0  0  0  0  0
   11.8480  -17.0849   22.7639 C   0  0  2  0  0  0  0  0  0  0  0  0
   11.2850  -16.1550   21.7717 N   0  0  0  0  0  0  0  0  0  0  0  0
   11.7638  -16.4596   24.0851 C   0  0  0  0  0  0  0  0  0  0  0  0
   11.8771  -15.2154   24.1927 O   0  0  0  0  0  0  0  0  0  0  0  0
   13.4010  -18.7484   24.2973 C   0  0  0  0  0  0  0  0  0  0  0  0
   14.0084  -19.6276   25.1738 C   0  0  0  0  0  0  0  0  0  0  0  0
   11.5611  -17.2193   25.2141 O   0  0  0  0  0  0  0  0  0  0  0  0
  2  1  1  0
  3  2  2  0
  4  3  1  0
  5  4  2  0
  5 11  1  0
  6  5  1  0
  7  8  1  6
  7  6  1  0
  9  7  1  0
 10  9  2  0
 11 12  2  0
 12  2  1  0
 14 13  1  1
 14 16  1  0
 15 14  1  0
 17 16  1  1
 17 19  1  0
 17 18  1  0
 18  9  1  0
 19 28  1  0
 20 19  2  0
 22 32  2  0
 22 21  1  0
 23 22  1  0
 24 25  1  0
 24 23  2  0
 25 31  2  0
 26 25  1  0
 27 26  1  6
 27 29  1  0
 28 27  1  0
 29 30  2  0
 29 33  1  0
 31 32  1  0
M  END
$$$$
