FQA.pdb
     RDKit          3D

 26 26  0  0  1  0  0  0  0  0999 V2000
   26.9843  -18.0855   -8.1842 N   0  0  0  0  0  0  0  0  0  0  0  0
   27.0316  -19.4887   -8.4485 C   0  0  1  0  0  0  0  0  0  0  0  0
   26.7132  -20.3353   -7.2434 C   0  0  0  0  0  0  0  0  0  0  0  0
   27.6673  -20.1731   -6.1439 C   0  0  0  0  0  0  0  0  0  0  0  0
   27.1624  -19.9956   -4.8714 C   0  0  0  0  0  0  0  0  0  0  0  0
   27.9876  -19.8346   -3.7741 C   0  0  0  0  0  0  0  0  0  0  0  0
   29.3506  -19.8478   -3.9276 C   0  0  0  0  0  0  0  0  0  0  0  0
   29.8696  -20.0218   -5.1763 C   0  0  0  0  0  0  0  0  0  0  0  0
   29.0396  -20.1843   -6.2841 C   0  0  0  0  0  0  0  0  0  0  0  0
   26.0508  -19.8831   -9.5229 C   0  0  0  0  0  0  0  0  0  0  0  0
   24.9016  -19.3755   -9.5618 O   0  0  0  0  0  0  0  0  0  0  0  0
   28.3088  -19.9046  -14.4461 N   0  0  0  0  0  0  0  0  0  0  0  0
   27.2300  -20.6036  -15.0362 C   0  0  0  0  0  0  0  0  0  0  0  0
   27.0608  -20.4204  -16.2845 O   0  0  0  0  0  0  0  0  0  0  0  0
   26.3432  -21.5004  -14.2494 C   0  0  0  0  0  0  0  0  0  0  0  0
   26.8288  -21.5098  -12.8380 C   0  0  0  0  0  0  0  0  0  0  0  0
   25.9290  -20.7383  -11.8986 C   0  0  2  0  0  0  0  0  0  0  0  0
   26.3786  -20.8323  -10.5237 N   0  0  0  0  0  0  0  0  0  0  0  0
   24.5163  -21.2146  -12.0006 C   0  0  0  0  0  0  0  0  0  0  0  0
   24.2019  -22.3521  -11.5500 O   0  0  0  0  0  0  0  0  0  0  0  0
   21.2521  -19.6881  -13.0203 C   0  0  0  0  0  0  0  0  0  0  0  0
   22.1365  -20.8586  -12.7134 C   0  0  2  0  0  0  0  0  0  0  0  0
   23.4968  -20.4228  -12.5952 N   0  0  0  0  0  0  0  0  0  0  0  0
   21.9798  -21.9584  -13.7051 C   0  0  0  0  0  0  0  0  0  0  0  0
   20.9240  -22.8587  -13.6672 O   0  0  0  0  0  0  0  0  0  0  0  0
   22.8251  -22.0991  -14.6250 O   0  0  0  0  0  0  0  0  0  0  0  0
  2  1  1  1
  2 10  1  0
  3  2  1  0
  3  4  1  0
  4  5  2  0
  4  9  1  0
  5  6  1  0
  6  7  2  0
  8  7  1  0
  9  8  2  0
 10 11  2  0
 13 12  1  0
 13 15  1  0
 14 13  2  0
 16 15  1  0
 17 16  1  6
 17 19  1  0
 18 17  1  0
 18 10  1  0
 19 20  2  0
 22 21  1  6
 22 24  1  0
 23 22  1  0
 23 19  1  0
 24 26  2  0
 24 25  1  0
M  END
$$$$
