FQA.pdb
     RDKit          3D

 26 26  0  0  1  0  0  0  0  0999 V2000
   25.5373  -21.4725   -6.8110 N   0  0  0  0  0  0  0  0  0  0  0  0
   26.0676  -20.5590   -7.7730 C   0  0  1  0  0  0  0  0  0  0  0  0
   27.5596  -20.3776   -7.6666 C   0  0  0  0  0  0  0  0  0  0  0  0
   27.9899  -19.7896   -6.3959 C   0  0  0  0  0  0  0  0  0  0  0  0
   28.6961  -20.5898   -5.5202 C   0  0  0  0  0  0  0  0  0  0  0  0
   29.1420  -20.1197   -4.2990 C   0  0  0  0  0  0  0  0  0  0  0  0
   28.8885  -18.8252   -3.9232 C   0  0  0  0  0  0  0  0  0  0  0  0
   28.1924  -18.0183   -4.7739 C   0  0  0  0  0  0  0  0  0  0  0  0
   27.7418  -18.4900   -6.0055 C   0  0  0  0  0  0  0  0  0  0  0  0
   25.7889  -21.0153   -9.1822 C   0  0  0  0  0  0  0  0  0  0  0  0
   26.2766  -22.0883   -9.6186 O   0  0  0  0  0  0  0  0  0  0  0  0
   20.7874  -19.4059  -12.5568 N   0  0  0  0  0  0  0  0  0  0  0  0
   21.5077  -20.2039  -13.4760 C   0  0  0  0  0  0  0  0  0  0  0  0
   20.9117  -20.4760  -14.5674 O   0  0  0  0  0  0  0  0  0  0  0  0
   22.8799  -20.6982  -13.1892 C   0  0  0  0  0  0  0  0  0  0  0  0
   23.2576  -20.2463  -11.8177 C   0  0  0  0  0  0  0  0  0  0  0  0
   24.6477  -20.6839  -11.4134 C   0  0  2  0  0  0  0  0  0  0  0  0
   24.9742  -20.2626  -10.0654 N   0  0  0  0  0  0  0  0  0  0  0  0
   25.6715  -20.1594  -12.3672 C   0  0  0  0  0  0  0  0  0  0  0  0
   26.0744  -18.9666  -12.2643 O   0  0  0  0  0  0  0  0  0  0  0  0
   28.3681  -21.4903  -14.3292 C   0  0  0  0  0  0  0  0  0  0  0  0
   27.2391  -20.5051  -14.2963 C   0  0  2  0  0  0  0  0  0  0  0  0
   26.2175  -20.9655  -13.4026 N   0  0  0  0  0  0  0  0  0  0  0  0
   26.7091  -20.2101  -15.6563 C   0  0  0  0  0  0  0  0  0  0  0  0
   27.5099  -19.7422  -16.6890 O   0  0  0  0  0  0  0  0  0  0  0  0
   25.4891  -20.3836  -15.9056 O   0  0  0  0  0  0  0  0  0  0  0  0
  2  1  1  1
  2 10  1  0
  3  2  1  0
  3  4  1  0
  4  5  2  0
  4  9  1  0
  5  6  1  0
  6  7  2  0
  8  7  1  0
  9  8  2  0
 10 11  2  0
 13 12  1  0
 13 15  1  0
 14 13  2  0
 16 15  1  0
 17 16  1  6
 17 19  1  0
 18 17  1  0
 18 10  1  0
 19 20  2  0
 22 21  1  6
 22 24  1  0
 23 22  1  0
 23 19  1  0
 24 26  2  0
 24 25  1  0
M  END
$$$$
