FQA.pdb
     RDKit          3D

 26 26  0  0  1  0  0  0  0  0999 V2000
   23.9542   -8.6600  -15.2612 N   0  0  0  0  0  0  0  0  0  0  0  0
   22.5766   -8.8157  -14.9163 C   0  0  1  0  0  0  0  0  0  0  0  0
   22.3102  -10.0154  -14.0446 C   0  0  0  0  0  0  0  0  0  0  0  0
   22.6347  -11.2911  -14.6871 C   0  0  0  0  0  0  0  0  0  0  0  0
   21.7551  -11.7806  -15.6318 C   0  0  0  0  0  0  0  0  0  0  0  0
   21.9800  -12.9759  -16.2890 C   0  0  0  0  0  0  0  0  0  0  0  0
   23.1017  -13.7153  -16.0125 C   0  0  0  0  0  0  0  0  0  0  0  0
   23.9832  -13.2493  -15.0825 C   0  0  0  0  0  0  0  0  0  0  0  0
   23.7586  -12.0446  -14.4187 C   0  0  0  0  0  0  0  0  0  0  0  0
   22.0540   -7.6158  -14.1687 C   0  0  0  0  0  0  0  0  0  0  0  0
   22.7186   -7.1014  -13.2341 O   0  0  0  0  0  0  0  0  0  0  0  0
   21.6880   -2.7195  -14.6710 N   0  0  0  0  0  0  0  0  0  0  0  0
   20.3992   -2.4984  -14.1317 C   0  0  0  0  0  0  0  0  0  0  0  0
   20.1925   -1.3463  -13.6312 O   0  0  0  0  0  0  0  0  0  0  0  0
   19.3450   -3.5462  -14.1460 C   0  0  0  0  0  0  0  0  0  0  0  0
   19.9093   -4.7618  -14.8030 C   0  0  0  0  0  0  0  0  0  0  0  0
   20.2832   -5.8463  -13.8175 C   0  0  2  0  0  0  0  0  0  0  0  0
   20.8053   -7.0230  -14.4838 N   0  0  0  0  0  0  0  0  0  0  0  0
   19.1120   -6.2250  -12.9701 C   0  0  0  0  0  0  0  0  0  0  0  0
   18.1911   -6.9417  -13.4539 O   0  0  0  0  0  0  0  0  0  0  0  0
   18.1665   -5.7909   -9.3657 C   0  0  0  0  0  0  0  0  0  0  0  0
   17.8616   -6.1148  -10.7970 C   0  0  2  0  0  0  0  0  0  0  0  0
   18.9937   -5.8021  -11.6184 N   0  0  0  0  0  0  0  0  0  0  0  0
   16.6174   -5.4488  -11.2725 C   0  0  0  0  0  0  0  0  0  0  0  0
   15.3500   -5.8605  -10.8841 O   0  0  0  0  0  0  0  0  0  0  0  0
   16.6905   -4.4707  -12.0590 O   0  0  0  0  0  0  0  0  0  0  0  0
  2  1  1  1
  2 10  1  0
  3  2  1  0
  3  4  1  0
  4  5  2  0
  4  9  1  0
  5  6  1  0
  6  7  2  0
  8  7  1  0
  9  8  2  0
 10 11  2  0
 13 12  1  0
 13 15  1  0
 14 13  2  0
 16 15  1  0
 17 16  1  6
 17 19  1  0
 18 17  1  0
 18 10  1  0
 19 20  2  0
 22 21  1  1
 22 24  1  0
 23 22  1  0
 23 19  1  0
 24 26  2  0
 24 25  1  0
M  END
$$$$
