FQA.pdb
     RDKit          3D

 26 26  0  0  1  0  0  0  0  0999 V2000
   27.8552  -21.3004   -8.2962 N   0  0  0  0  0  0  0  0  0  0  0  0
   26.6903  -20.5083   -8.0587 C   0  0  1  0  0  0  0  0  0  0  0  0
   26.9747  -19.2394   -7.2976 C   0  0  0  0  0  0  0  0  0  0  0  0
   27.8058  -19.4424   -6.1086 C   0  0  0  0  0  0  0  0  0  0  0  0
   27.2329  -20.0671   -5.0191 C   0  0  0  0  0  0  0  0  0  0  0  0
   27.9412  -20.3005   -3.8551 C   0  0  0  0  0  0  0  0  0  0  0  0
   29.2522  -19.9098   -3.7547 C   0  0  0  0  0  0  0  0  0  0  0  0
   29.8369  -19.2910   -4.8197 C   0  0  0  0  0  0  0  0  0  0  0  0
   29.1248  -19.0547   -5.9942 C   0  0  0  0  0  0  0  0  0  0  0  0
   26.0279  -20.0972   -9.3487 C   0  0  0  0  0  0  0  0  0  0  0  0
   25.5328  -18.9493   -9.4795 O   0  0  0  0  0  0  0  0  0  0  0  0
   28.0542  -21.8118  -14.8480 N   0  0  0  0  0  0  0  0  0  0  0  0
   26.8874  -21.1062  -15.2241 C   0  0  0  0  0  0  0  0  0  0  0  0
   26.7505  -20.8744  -16.4683 O   0  0  0  0  0  0  0  0  0  0  0  0
   25.8775  -20.6594  -14.2290 C   0  0  0  0  0  0  0  0  0  0  0  0
   26.3643  -21.0431  -12.8711 C   0  0  0  0  0  0  0  0  0  0  0  0
   25.4478  -20.5777  -11.7618 C   0  0  2  0  0  0  0  0  0  0  0  0
   25.9360  -20.9770  -10.4566 N   0  0  0  0  0  0  0  0  0  0  0  0
   24.0609  -21.0969  -11.9615 C   0  0  0  0  0  0  0  0  0  0  0  0
   23.6077  -21.9920  -11.1939 O   0  0  0  0  0  0  0  0  0  0  0  0
   21.1915  -20.1952  -11.7859 C   0  0  0  0  0  0  0  0  0  0  0  0
   21.7993  -20.8093  -13.0106 C   0  0  2  0  0  0  0  0  0  0  0  0
   23.2191  -20.6135  -12.9995 N   0  0  0  0  0  0  0  0  0  0  0  0
   21.1696  -20.3082  -14.2636 C   0  0  0  0  0  0  0  0  0  0  0  0
   20.0083  -20.8557  -14.7912 O   0  0  0  0  0  0  0  0  0  0  0  0
   21.6916  -19.3505  -14.8887 O   0  0  0  0  0  0  0  0  0  0  0  0
  2  1  1  6
  2 10  1  0
  3  2  1  0
  3  4  1  0
  4  5  2  0
  4  9  1  0
  5  6  1  0
  6  7  2  0
  8  7  1  0
  9  8  2  0
 10 11  2  0
 13 12  1  0
 13 15  1  0
 14 13  2  0
 16 15  1  0
 17 16  1  6
 17 19  1  0
 18 17  1  0
 18 10  1  0
 19 20  2  0
 22 21  1  1
 22 24  1  0
 23 22  1  0
 23 19  1  0
 24 26  2  0
 24 25  1  0
M  END
$$$$
