FQA.pdb
     RDKit          3D

 26 26  0  0  1  0  0  0  0  0999 V2000
   24.1148  -15.9460  -16.8389 N   0  0  0  0  0  0  0  0  0  0  0  0
   25.0294  -16.8652  -16.2393 C   0  0  1  0  0  0  0  0  0  0  0  0
   26.2216  -16.1957  -15.6063 C   0  0  0  0  0  0  0  0  0  0  0  0
   27.3077  -15.9182  -16.5492 C   0  0  0  0  0  0  0  0  0  0  0  0
   27.3813  -14.6525  -17.0954 C   0  0  0  0  0  0  0  0  0  0  0  0
   28.3719  -14.3010  -17.9933 C   0  0  0  0  0  0  0  0  0  0  0  0
   29.3205  -15.2179  -18.3684 C   0  0  0  0  0  0  0  0  0  0  0  0
   29.2656  -16.4738  -17.8404 C   0  0  0  0  0  0  0  0  0  0  0  0
   28.2679  -16.8304  -16.9350 C   0  0  0  0  0  0  0  0  0  0  0  0
   24.3672  -17.6783  -15.1565 C   0  0  0  0  0  0  0  0  0  0  0  0
   23.5012  -17.1636  -14.4050 O   0  0  0  0  0  0  0  0  0  0  0  0
   20.8292  -21.4947  -14.7254 N   0  0  0  0  0  0  0  0  0  0  0  0
   21.4429  -22.0635  -13.5850 C   0  0  0  0  0  0  0  0  0  0  0  0
   20.6658  -22.6531  -12.7671 O   0  0  0  0  0  0  0  0  0  0  0  0
   22.9085  -21.9805  -13.3509 C   0  0  0  0  0  0  0  0  0  0  0  0
   23.5004  -21.1238  -14.4203 C   0  0  0  0  0  0  0  0  0  0  0  0
   24.1107  -19.8479  -13.8847 C   0  0  2  0  0  0  0  0  0  0  0  0
   24.6891  -19.0423  -14.9420 N   0  0  0  0  0  0  0  0  0  0  0  0
   25.1492  -20.1449  -12.8521 C   0  0  0  0  0  0  0  0  0  0  0  0
   26.3030  -20.5153  -13.2087 O   0  0  0  0  0  0  0  0  0  0  0  0
   25.2196  -20.2147   -9.0928 C   0  0  0  0  0  0  0  0  0  0  0  0
   25.8406  -20.3597  -10.4492 C   0  0  2  0  0  0  0  0  0  0  0  0
   24.8829  -20.0241  -11.4613 N   0  0  0  0  0  0  0  0  0  0  0  0
   26.4319  -21.7107  -10.6565 C   0  0  0  0  0  0  0  0  0  0  0  0
   27.6746  -22.0715  -10.1544 O   0  0  0  0  0  0  0  0  0  0  0  0
   25.7994  -22.5788  -11.3098 O   0  0  0  0  0  0  0  0  0  0  0  0
  2  1  1  1
  2 10  1  0
  3  2  1  0
  3  4  1  0
  4  5  2  0
  4  9  1  0
  5  6  1  0
  6  7  2  0
  8  7  1  0
  9  8  2  0
 10 11  2  0
 13 12  1  0
 13 15  1  0
 14 13  2  0
 16 15  1  0
 17 16  1  6
 17 19  1  0
 18 17  1  0
 18 10  1  0
 19 20  2  0
 22 21  1  1
 22 24  1  0
 23 22  1  0
 23 19  1  0
 24 26  2  0
 24 25  1  0
M  END
$$$$
