FQA.pdb
     RDKit          3D

 26 26  0  0  1  0  0  0  0  0999 V2000
   27.9520  -18.7133  -16.6421 N   0  0  0  0  0  0  0  0  0  0  0  0
   27.1890  -18.2021  -15.5479 C   0  0  1  0  0  0  0  0  0  0  0  0
   26.2338  -17.1066  -15.9450 C   0  0  0  0  0  0  0  0  0  0  0  0
   26.8795  -15.8058  -16.1355 C   0  0  0  0  0  0  0  0  0  0  0  0
   27.1909  -15.4218  -17.4245 C   0  0  0  0  0  0  0  0  0  0  0  0
   27.8009  -14.2120  -17.6990 C   0  0  0  0  0  0  0  0  0  0  0  0
   28.1161  -13.3508  -16.6791 C   0  0  0  0  0  0  0  0  0  0  0  0
   27.8170  -13.7112  -15.3986 C   0  0  0  0  0  0  0  0  0  0  0  0
   27.2020  -14.9303  -15.1194 C   0  0  0  0  0  0  0  0  0  0  0  0
   26.3606  -19.2810  -14.8985 C   0  0  0  0  0  0  0  0  0  0  0  0
   25.9529  -20.2662  -15.5639 O   0  0  0  0  0  0  0  0  0  0  0  0
   26.3176  -20.3783   -8.7238 N   0  0  0  0  0  0  0  0  0  0  0  0
   25.3369  -21.2929   -9.1735 C   0  0  0  0  0  0  0  0  0  0  0  0
   24.8418  -22.0622   -8.2883 O   0  0  0  0  0  0  0  0  0  0  0  0
   24.9063  -21.3561  -10.5948 C   0  0  0  0  0  0  0  0  0  0  0  0
   25.6755  -20.3294  -11.3577 C   0  0  0  0  0  0  0  0  0  0  0  0
   25.3310  -20.3066  -12.8301 C   0  0  2  0  0  0  0  0  0  0  0  0
   26.0102  -19.2314  -13.5257 N   0  0  0  0  0  0  0  0  0  0  0  0
   23.8554  -20.1843  -13.0317 C   0  0  0  0  0  0  0  0  0  0  0  0
   23.2944  -19.0595  -12.9058 O   0  0  0  0  0  0  0  0  0  0  0  0
   21.1894  -22.3739  -14.4452 C   0  0  0  0  0  0  0  0  0  0  0  0
   21.6401  -21.2047  -13.6229 C   0  0  2  0  0  0  0  0  0  0  0  0
   23.0465  -21.3043  -13.3652 N   0  0  0  0  0  0  0  0  0  0  0  0
   20.8456  -21.0561  -12.3721 C   0  0  0  0  0  0  0  0  0  0  0  0
   19.5582  -20.5376  -12.3575 O   0  0  0  0  0  0  0  0  0  0  0  0
   21.3386  -21.4076  -11.2702 O   0  0  0  0  0  0  0  0  0  0  0  0
  2  1  1  6
  2 10  1  0
  3  2  1  0
  3  4  1  0
  4  5  2  0
  4  9  1  0
  5  6  1  0
  6  7  2  0
  8  7  1  0
  9  8  2  0
 10 11  2  0
 13 12  1  0
 13 15  1  0
 14 13  2  0
 16 15  1  0
 17 16  1  1
 17 19  1  0
 18 17  1  0
 18 10  1  0
 19 20  2  0
 22 21  1  1
 22 24  1  0
 23 22  1  0
 23 19  1  0
 24 26  2  0
 24 25  1  0
M  END
$$$$
