FQA.pdb
     RDKit          3D

 26 26  0  0  1  0  0  0  0  0999 V2000
   27.3626   -5.9799  -18.6862 N   0  0  0  0  0  0  0  0  0  0  0  0
   26.5980   -7.1857  -18.6375 C   0  0  1  0  0  0  0  0  0  0  0  0
   27.2054   -8.2437  -17.7533 C   0  0  0  0  0  0  0  0  0  0  0  0
   28.4036   -8.8659  -18.3212 C   0  0  0  0  0  0  0  0  0  0  0  0
   29.6119   -8.2223  -18.1431 C   0  0  0  0  0  0  0  0  0  0  0  0
   30.7937   -8.7357  -18.6439 C   0  0  0  0  0  0  0  0  0  0  0  0
   30.7925   -9.9168  -19.3413 C   0  0  0  0  0  0  0  0  0  0  0  0
   29.6095  -10.5683  -19.5283 C   0  0  0  0  0  0  0  0  0  0  0  0
   28.4168  -10.0527  -19.0243 C   0  0  0  0  0  0  0  0  0  0  0  0
   25.2052   -6.9376  -18.1175 C   0  0  0  0  0  0  0  0  0  0  0  0
   24.9715   -5.9801  -17.3376 O   0  0  0  0  0  0  0  0  0  0  0  0
   19.9860   -9.2586  -20.2600 N   0  0  0  0  0  0  0  0  0  0  0  0
   19.4848   -8.1952  -19.4734 C   0  0  0  0  0  0  0  0  0  0  0  0
   18.2181   -8.1248  -19.3698 O   0  0  0  0  0  0  0  0  0  0  0  0
   20.3805   -7.2150  -18.8051 C   0  0  0  0  0  0  0  0  0  0  0  0
   21.7840   -7.5166  -19.2137 C   0  0  0  0  0  0  0  0  0  0  0  0
   22.7486   -7.5296  -18.0490 C   0  0  2  0  0  0  0  0  0  0  0  0
   24.1121   -7.7639  -18.4815 N   0  0  0  0  0  0  0  0  0  0  0  0
   22.3553   -8.5605  -17.0412 C   0  0  0  0  0  0  0  0  0  0  0  0
   22.4254   -9.7869  -17.3356 O   0  0  0  0  0  0  0  0  0  0  0  0
   22.4566   -9.2491  -13.6545 C   0  0  0  0  0  0  0  0  0  0  0  0
   21.4651   -9.1722  -14.7759 C   0  0  2  0  0  0  0  0  0  0  0  0
   21.8981   -8.2068  -15.7428 N   0  0  0  0  0  0  0  0  0  0  0  0
   20.0836   -8.9036  -14.2889 C   0  0  0  0  0  0  0  0  0  0  0  0
   19.3097   -9.8673  -13.6572 O   0  0  0  0  0  0  0  0  0  0  0  0
   19.5739   -7.7649  -14.4440 O   0  0  0  0  0  0  0  0  0  0  0  0
  2  1  1  1
  2 10  1  0
  3  2  1  0
  3  4  1  0
  4  5  2  0
  4  9  1  0
  5  6  1  0
  6  7  2  0
  8  7  1  0
  9  8  2  0
 10 11  2  0
 13 12  1  0
 13 15  1  0
 14 13  2  0
 16 15  1  0
 17 16  1  6
 17 19  1  0
 18 17  1  0
 18 10  1  0
 19 20  2  0
 22 21  1  1
 22 24  1  0
 23 22  1  0
 23 19  1  0
 24 26  2  0
 24 25  1  0
M  END
$$$$
