FQA.pdb
     RDKit          3D

 26 26  0  0  1  0  0  0  0  0999 V2000
   28.5424  -24.8597  -17.0681 N   0  0  0  0  0  0  0  0  0  0  0  0
   27.6213  -25.9517  -17.0781 C   0  0  1  0  0  0  0  0  0  0  0  0
   26.5242  -25.7994  -18.0996 C   0  0  0  0  0  0  0  0  0  0  0  0
   25.6464  -24.6534  -17.8512 C   0  0  0  0  0  0  0  0  0  0  0  0
   25.5265  -23.7040  -18.8463 C   0  0  0  0  0  0  0  0  0  0  0  0
   24.7211  -22.5901  -18.6997 C   0  0  0  0  0  0  0  0  0  0  0  0
   24.0105  -22.3996  -17.5420 C   0  0  0  0  0  0  0  0  0  0  0  0
   24.1151  -23.3257  -16.5468 C   0  0  0  0  0  0  0  0  0  0  0  0
   24.9264  -24.4495  -16.6924 C   0  0  0  0  0  0  0  0  0  0  0  0
   28.3127  -27.2565  -17.3803 C   0  0  0  0  0  0  0  0  0  0  0  0
   29.3890  -27.2784  -18.0290 O   0  0  0  0  0  0  0  0  0  0  0  0
   27.7033  -32.4479  -13.9764 N   0  0  0  0  0  0  0  0  0  0  0  0
   28.5896  -32.8755  -14.9925 C   0  0  0  0  0  0  0  0  0  0  0  0
   29.1108  -34.0258  -14.8323 O   0  0  0  0  0  0  0  0  0  0  0  0
   28.8974  -32.0351  -16.1793 C   0  0  0  0  0  0  0  0  0  0  0  0
   28.1540  -30.7482  -16.0407 C   0  0  0  0  0  0  0  0  0  0  0  0
   28.4528  -29.7705  -17.1551 C   0  0  2  0  0  0  0  0  0  0  0  0
   27.7849  -28.5003  -16.9507 N   0  0  0  0  0  0  0  0  0  0  0  0
   28.0629  -30.3371  -18.4818 C   0  0  0  0  0  0  0  0  0  0  0  0
   26.8489  -30.3435  -18.8308 O   0  0  0  0  0  0  0  0  0  0  0  0
   29.9372  -31.7017  -21.4400 C   0  0  0  0  0  0  0  0  0  0  0  0
   28.6872  -31.3541  -20.6895 C   0  0  2  0  0  0  0  0  0  0  0  0
   29.0225  -30.8778  -19.3799 N   0  0  0  0  0  0  0  0  0  0  0  0
   27.7214  -32.4868  -20.6486 C   0  0  0  0  0  0  0  0  0  0  0  0
   27.5968  -33.3280  -19.5516 O   0  0  0  0  0  0  0  0  0  0  0  0
   26.9763  -32.7121  -21.6359 O   0  0  0  0  0  0  0  0  0  0  0  0
  2  1  1  6
  2 10  1  0
  3  2  1  0
  3  4  1  0
  4  5  2  0
  4  9  1  0
  5  6  1  0
  6  7  2  0
  8  7  1  0
  9  8  2  0
 10 11  2  0
 13 12  1  0
 13 15  1  0
 14 13  2  0
 16 15  1  0
 17 16  1  1
 17 19  1  0
 18 17  1  0
 18 10  1  0
 19 20  2  0
 22 21  1  1
 22 24  1  0
 23 22  1  0
 23 19  1  0
 24 26  2  0
 24 25  1  0
M  END
$$$$
