FQA.pdb
     RDKit          3D

 26 26  0  0  1  0  0  0  0  0999 V2000
   27.0651  -21.5147  -11.0529 N   0  0  0  0  0  0  0  0  0  0  0  0
   25.8113  -20.9684  -11.4657 C   0  0  1  0  0  0  0  0  0  0  0  0
   25.2985  -19.8883  -10.5488 C   0  0  0  0  0  0  0  0  0  0  0  0
   25.0087  -20.3590   -9.1924 C   0  0  0  0  0  0  0  0  0  0  0  0
   25.9128  -20.0521   -8.1952 C   0  0  0  0  0  0  0  0  0  0  0  0
   25.7213  -20.4547   -6.8867 C   0  0  0  0  0  0  0  0  0  0  0  0
   24.6094  -21.1807   -6.5434 C   0  0  0  0  0  0  0  0  0  0  0  0
   23.7041  -21.4943   -7.5136 C   0  0  0  0  0  0  0  0  0  0  0  0
   23.8950  -21.0896   -8.8335 C   0  0  0  0  0  0  0  0  0  0  0  0
   25.8989  -20.3592  -12.8416 C   0  0  0  0  0  0  0  0  0  0  0  0
   26.7760  -19.4998  -13.1093 O   0  0  0  0  0  0  0  0  0  0  0  0
   26.7606  -23.5438  -17.4514 N   0  0  0  0  0  0  0  0  0  0  0  0
   27.6407  -22.8439  -16.5933 C   0  0  0  0  0  0  0  0  0  0  0  0
   28.8417  -23.2644  -16.5602 O   0  0  0  0  0  0  0  0  0  0  0  0
   27.1944  -21.6850  -15.7763 C   0  0  0  0  0  0  0  0  0  0  0  0
   25.7672  -21.4045  -16.1115 C   0  0  0  0  0  0  0  0  0  0  0  0
   25.1647  -20.3094  -15.2600 C   0  0  2  0  0  0  0  0  0  0  0  0
   25.0062  -20.7253  -13.8805 N   0  0  0  0  0  0  0  0  0  0  0  0
   23.8458  -19.8707  -15.8088 C   0  0  0  0  0  0  0  0  0  0  0  0
   22.7893  -20.4695  -15.4611 O   0  0  0  0  0  0  0  0  0  0  0  0
   22.6447  -17.0319  -17.9430 C   0  0  0  0  0  0  0  0  0  0  0  0
   22.4885  -18.3769  -17.3003 C   0  0  2  0  0  0  0  0  0  0  0  0
   23.7341  -18.7874  -16.7220 N   0  0  0  0  0  0  0  0  0  0  0  0
   21.9418  -19.3916  -18.2432 C   0  0  0  0  0  0  0  0  0  0  0  0
   20.5823  -19.5411  -18.4798 O   0  0  0  0  0  0  0  0  0  0  0  0
   22.7229  -20.1571  -18.8633 O   0  0  0  0  0  0  0  0  0  0  0  0
  2  1  1  1
  2 10  1  0
  3  2  1  0
  3  4  1  0
  4  5  2  0
  4  9  1  0
  5  6  1  0
  6  7  2  0
  8  7  1  0
  9  8  2  0
 10 11  2  0
 13 12  1  0
 13 15  1  0
 14 13  2  0
 16 15  1  0
 17 16  1  6
 17 19  1  0
 18 17  1  0
 18 10  1  0
 19 20  2  0
 22 21  1  6
 22 24  1  0
 23 22  1  0
 23 19  1  0
 24 26  2  0
 24 25  1  0
M  END
$$$$
