FQA.pdb
     RDKit          3D

 26 26  0  0  1  0  0  0  0  0999 V2000
   16.7451  -10.4050  -16.0476 N   0  0  0  0  0  0  0  0  0  0  0  0
   16.9545   -9.1174  -16.6301 C   0  0  1  0  0  0  0  0  0  0  0  0
   15.7270   -8.5577  -17.3011 C   0  0  0  0  0  0  0  0  0  0  0  0
   15.4287   -9.1811  -18.5926 C   0  0  0  0  0  0  0  0  0  0  0  0
   15.8278   -8.5196  -19.7366 C   0  0  0  0  0  0  0  0  0  0  0  0
   15.5890   -9.0327  -20.9979 C   0  0  0  0  0  0  0  0  0  0  0  0
   14.9386  -10.2315  -21.1437 C   0  0  0  0  0  0  0  0  0  0  0  0
   14.5360  -10.9008  -20.0261 C   0  0  0  0  0  0  0  0  0  0  0  0
   14.7757  -10.3856  -18.7536 C   0  0  0  0  0  0  0  0  0  0  0  0
   17.3799   -8.1051  -15.5976 C   0  0  0  0  0  0  0  0  0  0  0  0
   17.0393   -8.2323  -14.3944 O   0  0  0  0  0  0  0  0  0  0  0  0
   22.7237   -5.8684  -14.3489 N   0  0  0  0  0  0  0  0  0  0  0  0
   21.9332   -4.9600  -13.6068 C   0  0  0  0  0  0  0  0  0  0  0  0
   22.5566   -4.2287  -12.7720 O   0  0  0  0  0  0  0  0  0  0  0  0
   20.4610   -4.8614  -13.7874 C   0  0  0  0  0  0  0  0  0  0  0  0
   20.0469   -5.8916  -14.7849 C   0  0  0  0  0  0  0  0  0  0  0  0
   18.5494   -5.9484  -14.9886 C   0  0  2  0  0  0  0  0  0  0  0  0
   18.1732   -6.9796  -15.9352 N   0  0  0  0  0  0  0  0  0  0  0  0
   18.0221   -4.6273  -15.4466 C   0  0  0  0  0  0  0  0  0  0  0  0
   18.2806   -4.2170  -16.6130 O   0  0  0  0  0  0  0  0  0  0  0  0
   15.6724   -2.0597  -14.0538 C   0  0  0  0  0  0  0  0  0  0  0  0
   16.7301   -2.5205  -15.0105 C   0  0  2  0  0  0  0  0  0  0  0  0
   17.2279   -3.8019  -14.6052 N   0  0  0  0  0  0  0  0  0  0  0  0
   17.8185   -1.5171  -15.1728 C   0  0  0  0  0  0  0  0  0  0  0  0
   17.7351   -0.4565  -16.0643 O   0  0  0  0  0  0  0  0  0  0  0  0
   18.8670   -1.6120  -14.4857 O   0  0  0  0  0  0  0  0  0  0  0  0
  2  1  1  1
  2 10  1  0
  3  2  1  0
  3  4  1  0
  4  5  2  0
  4  9  1  0
  5  6  1  0
  6  7  2  0
  8  7  1  0
  9  8  2  0
 10 11  2  0
 13 12  1  0
 13 15  1  0
 14 13  2  0
 16 15  1  0
 17 16  1  6
 17 19  1  0
 18 17  1  0
 18 10  1  0
 19 20  2  0
 22 21  1  1
 22 24  1  0
 23 22  1  0
 23 19  1  0
 24 26  2  0
 24 25  1  0
M  END
$$$$
