FQA.pdb
     RDKit          3D

 26 26  0  0  1  0  0  0  0  0999 V2000
   27.3630  -22.3540  -11.2150 N   0  0  0  0  0  0  0  0  0  0  0  0
   26.3046  -21.4515  -10.8891 C   0  0  1  0  0  0  0  0  0  0  0  0
   26.7863  -20.0706  -10.5269 C   0  0  0  0  0  0  0  0  0  0  0  0
   27.3270  -19.9753   -9.1689 C   0  0  0  0  0  0  0  0  0  0  0  0
   28.6392  -20.3543   -8.9680 C   0  0  0  0  0  0  0  0  0  0  0  0
   29.2330  -20.2978   -7.7209 C   0  0  0  0  0  0  0  0  0  0  0  0
   28.5194  -19.8562   -6.6360 C   0  0  0  0  0  0  0  0  0  0  0  0
   27.2217  -19.4771   -6.8131 C   0  0  0  0  0  0  0  0  0  0  0  0
   26.6209  -19.5332   -8.0694 C   0  0  0  0  0  0  0  0  0  0  0  0
   25.3452  -21.2847  -12.0395 C   0  0  0  0  0  0  0  0  0  0  0  0
   25.7345  -21.4243  -13.2264 O   0  0  0  0  0  0  0  0  0  0  0  0
   19.1902  -24.0796  -12.9196 N   0  0  0  0  0  0  0  0  0  0  0  0
   19.5276  -22.7227  -12.7059 C   0  0  0  0  0  0  0  0  0  0  0  0
   18.7666  -22.0745  -11.9179 O   0  0  0  0  0  0  0  0  0  0  0  0
   20.7007  -22.0865  -13.3607 C   0  0  0  0  0  0  0  0  0  0  0  0
   21.7343  -21.8334  -12.3141 C   0  0  0  0  0  0  0  0  0  0  0  0
   22.9564  -21.1221  -12.8505 C   0  0  2  0  0  0  0  0  0  0  0  0
   23.9787  -20.9671  -11.8346 N   0  0  0  0  0  0  0  0  0  0  0  0
   22.5938  -19.7842  -13.4087 C   0  0  0  0  0  0  0  0  0  0  0  0
   22.2777  -18.8419  -12.6290 O   0  0  0  0  0  0  0  0  0  0  0  0
   22.9233  -18.1242  -16.7244 C   0  0  0  0  0  0  0  0  0  0  0  0
   22.3010  -18.2408  -15.3658 C   0  0  2  0  0  0  0  0  0  0  0  0
   22.5912  -19.5282  -14.8067 N   0  0  0  0  0  0  0  0  0  0  0  0
   20.8405  -17.9508  -15.3885 C   0  0  0  0  0  0  0  0  0  0  0  0
   19.8782  -18.9479  -15.4687 O   0  0  0  0  0  0  0  0  0  0  0  0
   20.4360  -16.7617  -15.3339 O   0  0  0  0  0  0  0  0  0  0  0  0
  2  1  1  6
  2 10  1  0
  3  2  1  0
  3  4  1  0
  4  5  2  0
  4  9  1  0
  5  6  1  0
  6  7  2  0
  8  7  1  0
  9  8  2  0
 10 11  2  0
 13 12  1  0
 13 15  1  0
 14 13  2  0
 16 15  1  0
 17 16  1  1
 17 19  1  0
 18 17  1  0
 18 10  1  0
 19 20  2  0
 22 21  1  6
 22 24  1  0
 23 22  1  0
 23 19  1  0
 24 26  2  0
 24 25  1  0
M  END
$$$$
