FQA.pdb
     RDKit          3D

 26 26  0  0  1  0  0  0  0  0999 V2000
   26.9480  -20.4677  -17.6357 N   0  0  0  0  0  0  0  0  0  0  0  0
   26.6451  -19.9273  -16.3485 C   0  0  1  0  0  0  0  0  0  0  0  0
   26.5851  -18.4218  -16.3309 C   0  0  0  0  0  0  0  0  0  0  0  0
   27.8265  -17.7802  -16.7700 C   0  0  0  0  0  0  0  0  0  0  0  0
   27.7484  -16.8511  -17.7881 C   0  0  0  0  0  0  0  0  0  0  0  0
   28.8678  -16.1960  -18.2664 C   0  0  0  0  0  0  0  0  0  0  0  0
   30.1029  -16.4588  -17.7310 C   0  0  0  0  0  0  0  0  0  0  0  0
   30.2018  -17.3732  -16.7245 C   0  0  0  0  0  0  0  0  0  0  0  0
   29.0747  -18.0349  -16.2406 C   0  0  0  0  0  0  0  0  0  0  0  0
   25.3127  -20.4170  -15.8419 C   0  0  0  0  0  0  0  0  0  0  0  0
   24.4542  -20.8795  -16.6348 O   0  0  0  0  0  0  0  0  0  0  0  0
   25.0075  -24.7289  -13.8422 N   0  0  0  0  0  0  0  0  0  0  0  0
   24.2299  -23.7281  -13.2142 C   0  0  0  0  0  0  0  0  0  0  0  0
   22.9677  -23.8461  -13.3292 O   0  0  0  0  0  0  0  0  0  0  0  0
   24.8456  -22.6027  -12.4632 C   0  0  0  0  0  0  0  0  0  0  0  0
   23.9129  -21.4391  -12.5257 C   0  0  0  0  0  0  0  0  0  0  0  0
   23.7343  -20.8998  -13.9272 C   0  0  2  0  0  0  0  0  0  0  0  0
   24.9747  -20.3775  -14.4655 N   0  0  0  0  0  0  0  0  0  0  0  0
   22.6835  -19.8378  -13.9611 C   0  0  0  0  0  0  0  0  0  0  0  0
   22.8596  -18.7583  -13.3291 O   0  0  0  0  0  0  0  0  0  0  0  0
   19.8349  -18.9469  -16.0911 C   0  0  0  0  0  0  0  0  0  0  0  0
   20.4411  -19.0065  -14.7217 C   0  0  2  0  0  0  0  0  0  0  0  0
   21.4739  -19.9996  -14.6895 N   0  0  0  0  0  0  0  0  0  0  0  0
   19.4176  -19.2212  -13.6615 C   0  0  0  0  0  0  0  0  0  0  0  0
   18.5868  -18.2079  -13.2036 O   0  0  0  0  0  0  0  0  0  0  0  0
   19.2800  -20.3584  -13.1433 O   0  0  0  0  0  0  0  0  0  0  0  0
  2  1  1  6
  2 10  1  0
  3  2  1  0
  3  4  1  0
  4  5  2  0
  4  9  1  0
  5  6  1  0
  6  7  2  0
  8  7  1  0
  9  8  2  0
 10 11  2  0
 13 12  1  0
 13 15  1  0
 14 13  2  0
 16 15  1  0
 17 16  1  1
 17 19  1  0
 18 17  1  0
 18 10  1  0
 19 20  2  0
 22 21  1  6
 22 24  1  0
 23 22  1  0
 23 19  1  0
 24 26  2  0
 24 25  1  0
M  END
$$$$
