AMQ.pdb
     RDKit          3D

 23 22  0  0  1  0  0  0  0  0999 V2000
    7.6756  -12.6209   19.6532 C   0  0  0  0  0  0  0  0  0  0  0  0
    8.0184  -14.0521   20.0165 C   0  0  2  0  0  0  0  0  0  0  0  0
    6.8295  -14.8451   19.8602 N   0  0  0  0  0  0  0  0  0  0  0  0
    8.4590  -14.0714   21.4385 C   0  0  0  0  0  0  0  0  0  0  0  0
    9.6575  -13.8208   21.7371 O   0  0  0  0  0  0  0  0  0  0  0  0
    7.6837  -11.0825   27.2996 C   0  0  0  0  0  0  0  0  0  0  0  0
    6.2852  -12.0007   26.5992 S   0  0  0  0  0  0  0  0  0  0  0  0
    6.7562  -12.6103   24.9877 C   0  0  0  0  0  0  0  0  0  0  0  0
    7.0668  -14.0550   24.8982 C   0  0  0  0  0  0  0  0  0  0  0  0
    8.0471  -14.4895   23.8755 C   0  0  2  0  0  0  0  0  0  0  0  0
    7.5757  -14.3664   22.5166 N   0  0  0  0  0  0  0  0  0  0  0  0
    8.6133  -15.8407   24.1398 C   0  0  0  0  0  0  0  0  0  0  0  0
    7.9044  -16.8534   23.8169 O   0  0  0  0  0  0  0  0  0  0  0  0
   12.9956  -18.9222   22.0355 N   0  0  0  0  0  0  0  0  0  0  0  0
   12.8139  -19.3654   23.3632 C   0  0  0  0  0  0  0  0  0  0  0  0
   12.6992  -20.5957   23.5763 O   0  0  0  0  0  0  0  0  0  0  0  0
   12.7671  -18.4155   24.4665 C   0  0  0  0  0  0  0  0  0  0  0  0
   11.8455  -17.2717   24.3541 C   0  0  0  0  0  0  0  0  0  0  0  0
   10.4799  -17.3806   24.9214 C   0  0  2  0  0  0  0  0  0  0  0  0
    9.8778  -16.0389   24.7218 N   0  0  0  0  0  0  0  0  0  0  0  0
   10.4788  -17.5798   26.3725 C   0  0  0  0  0  0  0  0  0  0  0  0
   10.4715  -16.6124   27.2020 O   0  0  0  0  0  0  0  0  0  0  0  0
   10.4774  -18.8618   26.9246 O   0  0  0  0  0  0  0  0  0  0  0  0
  2  1  1  1
  2  3  1  0
  4  5  2  0
  4  2  1  0
  7  6  1  0
  8  7  1  0
  8  9  1  0
 10  9  1  1
 10 11  1  0
 10 12  1  0
 11  4  1  0
 12 20  1  0
 13 12  2  0
 15 14  1  0
 15 16  2  0
 17 15  1  0
 18 17  1  0
 19 18  1  1
 19 21  1  0
 20 19  1  0
 21 22  2  0
 21 23  1  0
M  END
$$$$
