AMQ.pdb
     RDKit          3D

 23 22  0  0  1  0  0  0  0  0999 V2000
    7.8797  -12.9756   19.1460 C   0  0  0  0  0  0  0  0  0  0  0  0
    8.1805  -14.3154   19.7881 C   0  0  2  0  0  0  0  0  0  0  0  0
    7.0309  -15.1599   19.6090 N   0  0  0  0  0  0  0  0  0  0  0  0
    8.4208  -14.0849   21.2393 C   0  0  0  0  0  0  0  0  0  0  0  0
    9.5171  -13.6052   21.6347 O   0  0  0  0  0  0  0  0  0  0  0  0
    7.3608  -12.1686   28.3419 C   0  0  0  0  0  0  0  0  0  0  0  0
    6.9740  -12.0699   26.5727 S   0  0  0  0  0  0  0  0  0  0  0  0
    6.7957  -13.7296   25.9370 C   0  0  0  0  0  0  0  0  0  0  0  0
    6.5901  -13.8538   24.4763 C   0  0  0  0  0  0  0  0  0  0  0  0
    7.7478  -14.2638   23.6473 C   0  0  2  0  0  0  0  0  0  0  0  0
    7.4518  -14.3849   22.2396 N   0  0  0  0  0  0  0  0  0  0  0  0
    8.4457  -15.4714   24.1674 C   0  0  0  0  0  0  0  0  0  0  0  0
    7.8473  -16.5948   24.0570 O   0  0  0  0  0  0  0  0  0  0  0  0
   14.3608  -15.8167   23.0509 N   0  0  0  0  0  0  0  0  0  0  0  0
   14.2699  -16.8880   23.9654 C   0  0  0  0  0  0  0  0  0  0  0  0
   15.3029  -17.5517   24.2191 O   0  0  0  0  0  0  0  0  0  0  0  0
   13.0041  -17.2139   24.6085 C   0  0  0  0  0  0  0  0  0  0  0  0
   11.8723  -16.2916   24.4120 C   0  0  0  0  0  0  0  0  0  0  0  0
   10.5532  -16.6243   25.0017 C   0  0  2  0  0  0  0  0  0  0  0  0
    9.7173  -15.4209   24.7653 N   0  0  0  0  0  0  0  0  0  0  0  0
   10.5992  -16.7684   26.4586 C   0  0  0  0  0  0  0  0  0  0  0  0
   10.4071  -15.7925   27.2551 O   0  0  0  0  0  0  0  0  0  0  0  0
   10.8519  -18.0056   27.0534 O   0  0  0  0  0  0  0  0  0  0  0  0
  2  1  1  6
  2  3  1  0
  4  5  2  0
  4  2  1  0
  7  6  1  0
  8  7  1  0
  8  9  1  0
 10  9  1  1
 10 11  1  0
 10 12  1  0
 11  4  1  0
 12 20  1  0
 13 12  2  0
 15 14  1  0
 15 16  2  0
 17 15  1  0
 18 17  1  0
 19 18  1  1
 19 21  1  0
 20 19  1  0
 21 22  2  0
 21 23  1  0
M  END
$$$$
