AMQ.pdb
     RDKit          3D

 23 22  0  0  1  0  0  0  0  0999 V2000
    7.3054  -15.3882   19.9594 C   0  0  0  0  0  0  0  0  0  0  0  0
    7.3352  -13.9596   20.4654 C   0  0  2  0  0  0  0  0  0  0  0  0
    8.2016  -13.2028   19.6032 N   0  0  0  0  0  0  0  0  0  0  0  0
    7.8828  -13.9747   21.8498 C   0  0  0  0  0  0  0  0  0  0  0  0
    9.1275  -13.9300   22.0427 O   0  0  0  0  0  0  0  0  0  0  0  0
    7.2380  -11.5940   27.9066 C   0  0  0  0  0  0  0  0  0  0  0  0
    5.8188  -11.4520   26.7862 S   0  0  0  0  0  0  0  0  0  0  0  0
    6.2028  -12.3164   25.2711 C   0  0  0  0  0  0  0  0  0  0  0  0
    6.7451  -13.6861   25.4170 C   0  0  0  0  0  0  0  0  0  0  0  0
    7.6064  -14.2084   24.3302 C   0  0  2  0  0  0  0  0  0  0  0  0
    7.0545  -14.0388   23.0071 N   0  0  0  0  0  0  0  0  0  0  0  0
    8.0609  -15.6071   24.5603 C   0  0  0  0  0  0  0  0  0  0  0  0
    7.1952  -16.5388   24.4384 O   0  0  0  0  0  0  0  0  0  0  0  0
   13.7955  -15.2192   23.5817 N   0  0  0  0  0  0  0  0  0  0  0  0
   13.0543  -16.4005   23.3641 C   0  0  0  0  0  0  0  0  0  0  0  0
   13.0709  -16.9196   22.2229 O   0  0  0  0  0  0  0  0  0  0  0  0
   12.2899  -17.0105   24.4437 C   0  0  0  0  0  0  0  0  0  0  0  0
   10.9425  -17.5193   24.1337 C   0  0  0  0  0  0  0  0  0  0  0  0
    9.8494  -17.3270   25.1168 C   0  0  2  0  0  0  0  0  0  0  0  0
    9.3853  -15.9339   24.9010 N   0  0  0  0  0  0  0  0  0  0  0  0
   10.3180  -17.3553   26.5043 C   0  0  0  0  0  0  0  0  0  0  0  0
   10.3449  -16.3186   27.2449 O   0  0  0  0  0  0  0  0  0  0  0  0
   10.7572  -18.5421   27.0933 O   0  0  0  0  0  0  0  0  0  0  0  0
  2  1  1  6
  2  3  1  0
  4  5  2  0
  4  2  1  0
  7  6  1  0
  8  7  1  0
  8  9  1  0
 10  9  1  1
 10 11  1  0
 10 12  1  0
 11  4  1  0
 12 20  1  0
 13 12  2  0
 15 14  1  0
 15 16  2  0
 17 15  1  0
 18 17  1  0
 19 18  1  6
 19 21  1  0
 20 19  1  0
 21 22  2  0
 21 23  1  0
M  END
$$$$
