AMQ.pdb
     RDKit          3D

 23 22  0  0  1  0  0  0  0  0999 V2000
    9.0622  -19.1365   21.8544 C   0  0  0  0  0  0  0  0  0  0  0  0
    8.7138  -17.8765   21.0871 C   0  0  2  0  0  0  0  0  0  0  0  0
    9.5556  -17.8203   19.9230 N   0  0  0  0  0  0  0  0  0  0  0  0
    8.9897  -16.7103   21.9706 C   0  0  0  0  0  0  0  0  0  0  0  0
   10.1021  -16.1203   21.9173 O   0  0  0  0  0  0  0  0  0  0  0  0
    6.3550  -11.1401   26.8978 C   0  0  0  0  0  0  0  0  0  0  0  0
    5.9588  -12.7205   26.1011 S   0  0  0  0  0  0  0  0  0  0  0  0
    7.1654  -13.0290   24.8206 C   0  0  0  0  0  0  0  0  0  0  0  0
    7.0271  -14.3051   24.0830 C   0  0  0  0  0  0  0  0  0  0  0  0
    8.2665  -14.9854   23.6394 C   0  0  2  0  0  0  0  0  0  0  0  0
    8.0383  -16.2060   22.9033 N   0  0  0  0  0  0  0  0  0  0  0  0
    9.2544  -15.1818   24.7355 C   0  0  0  0  0  0  0  0  0  0  0  0
    9.5781  -14.1603   25.4312 O   0  0  0  0  0  0  0  0  0  0  0  0
   10.3801  -14.4689   29.1668 N   0  0  0  0  0  0  0  0  0  0  0  0
   10.4826  -15.8379   29.4944 C   0  0  0  0  0  0  0  0  0  0  0  0
   11.2328  -16.1756   30.4407 O   0  0  0  0  0  0  0  0  0  0  0  0
    9.7280  -16.8402   28.7542 C   0  0  0  0  0  0  0  0  0  0  0  0
    9.4247  -16.5695   27.3382 C   0  0  0  0  0  0  0  0  0  0  0  0
   10.4911  -16.7377   26.3218 C   0  0  2  0  0  0  0  0  0  0  0  0
    9.8339  -16.4292   25.0274 N   0  0  0  0  0  0  0  0  0  0  0  0
   10.9421  -18.1252   26.1919 C   0  0  0  0  0  0  0  0  0  0  0  0
   10.2982  -19.0008   25.5266 O   0  0  0  0  0  0  0  0  0  0  0  0
   12.1238  -18.5590   26.7949 O   0  0  0  0  0  0  0  0  0  0  0  0
  2  1  1  1
  2  3  1  0
  4  5  2  0
  4  2  1  0
  7  6  1  0
  8  7  1  0
  8  9  1  0
 10  9  1  1
 10 11  1  0
 10 12  1  0
 11  4  1  0
 12 20  1  0
 13 12  2  0
 15 14  1  0
 15 16  2  0
 17 15  1  0
 18 17  1  0
 19 18  1  1
 19 21  1  0
 20 19  1  0
 21 22  2  0
 21 23  1  0
M  END
$$$$
