AMQ.pdb
     RDKit          3D

 23 22  0  0  1  0  0  0  0  0999 V2000
    7.6790  -12.8100   19.8001 C   0  0  0  0  0  0  0  0  0  0  0  0
    7.8377  -14.2574   20.2214 C   0  0  2  0  0  0  0  0  0  0  0  0
    6.5383  -14.8717   20.1926 N   0  0  0  0  0  0  0  0  0  0  0  0
    8.3775  -14.2747   21.6089 C   0  0  0  0  0  0  0  0  0  0  0  0
    9.5764  -13.9550   21.8296 O   0  0  0  0  0  0  0  0  0  0  0  0
    6.5816  -11.5811   27.5169 C   0  0  0  0  0  0  0  0  0  0  0  0
    5.4824  -12.1594   26.1953 S   0  0  0  0  0  0  0  0  0  0  0  0
    6.4849  -12.7918   24.8590 C   0  0  0  0  0  0  0  0  0  0  0  0
    7.1324  -14.1031   25.0889 C   0  0  0  0  0  0  0  0  0  0  0  0
    8.1125  -14.5762   24.0832 C   0  0  2  0  0  0  0  0  0  0  0  0
    7.5918  -14.6438   22.7385 N   0  0  0  0  0  0  0  0  0  0  0  0
    8.7913  -15.8423   24.4734 C   0  0  0  0  0  0  0  0  0  0  0  0
    8.0859  -16.9070   24.5049 O   0  0  0  0  0  0  0  0  0  0  0  0
   14.6310  -17.1652   22.1632 N   0  0  0  0  0  0  0  0  0  0  0  0
   14.0122  -16.3891   23.1668 C   0  0  0  0  0  0  0  0  0  0  0  0
   14.6979  -15.5319   23.7728 O   0  0  0  0  0  0  0  0  0  0  0  0
   12.6037  -16.5733   23.4893 C   0  0  0  0  0  0  0  0  0  0  0  0
   12.2562  -16.9631   24.8668 C   0  0  0  0  0  0  0  0  0  0  0  0
   10.8317  -17.1582   25.2292 C   0  0  2  0  0  0  0  0  0  0  0  0
   10.1567  -15.9072   24.8027 N   0  0  0  0  0  0  0  0  0  0  0  0
   10.6151  -17.2264   26.6763 C   0  0  0  0  0  0  0  0  0  0  0  0
   10.1693  -16.2440   27.3544 O   0  0  0  0  0  0  0  0  0  0  0  0
   10.8839  -18.3945   27.3916 O   0  0  0  0  0  0  0  0  0  0  0  0
  2  1  1  1
  2  3  1  0
  4  5  2  0
  4  2  1  0
  7  6  1  0
  8  7  1  0
  8  9  1  0
 10  9  1  1
 10 11  1  0
 10 12  1  0
 11  4  1  0
 12 20  1  0
 13 12  2  0
 15 14  1  0
 15 16  2  0
 17 15  1  0
 18 17  1  0
 19 18  1  1
 19 21  1  0
 20 19  1  0
 21 22  2  0
 21 23  1  0
M  END
$$$$
