AMQ.pdb
     RDKit          3D

 23 22  0  0  1  0  0  0  0  0999 V2000
    7.5661  -15.1833   19.5386 C   0  0  0  0  0  0  0  0  0  0  0  0
    7.4009  -13.8143   20.1680 C   0  0  2  0  0  0  0  0  0  0  0  0
    8.1021  -12.8633   19.3491 N   0  0  0  0  0  0  0  0  0  0  0  0
    8.0063  -13.8583   21.5275 C   0  0  0  0  0  0  0  0  0  0  0  0
    9.2384  -13.6438   21.6830 O   0  0  0  0  0  0  0  0  0  0  0  0
    7.0629  -10.9188   27.4148 C   0  0  0  0  0  0  0  0  0  0  0  0
    5.8919  -12.2055   26.9025 S   0  0  0  0  0  0  0  0  0  0  0  0
    6.3202  -12.7386   25.2524 C   0  0  0  0  0  0  0  0  0  0  0  0
    6.9662  -14.0658   25.1390 C   0  0  0  0  0  0  0  0  0  0  0  0
    7.8755  -14.2966   23.9921 C   0  0  2  0  0  0  0  0  0  0  0  0
    7.2490  -14.1380   22.7013 N   0  0  0  0  0  0  0  0  0  0  0  0
    8.6252  -15.5794   24.0845 C   0  0  0  0  0  0  0  0  0  0  0  0
    8.0153  -16.6479   23.7399 O   0  0  0  0  0  0  0  0  0  0  0  0
   14.6763  -15.7487   23.0302 N   0  0  0  0  0  0  0  0  0  0  0  0
   14.4858  -17.0593   23.5184 C   0  0  0  0  0  0  0  0  0  0  0  0
   15.4615  -17.8467   23.5248 O   0  0  0  0  0  0  0  0  0  0  0  0
   13.1844  -17.4892   24.0119 C   0  0  0  0  0  0  0  0  0  0  0  0
   12.0883  -16.5048   24.0168 C   0  0  0  0  0  0  0  0  0  0  0  0
   10.7500  -16.9102   24.5097 C   0  0  2  0  0  0  0  0  0  0  0  0
    9.9568  -15.6560   24.5295 N   0  0  0  0  0  0  0  0  0  0  0  0
   10.7680  -17.3642   25.9022 C   0  0  0  0  0  0  0  0  0  0  0  0
   11.1678  -18.5247   26.2446 O   0  0  0  0  0  0  0  0  0  0  0  0
   10.3482  -16.5289   26.9387 O   0  0  0  0  0  0  0  0  0  0  0  0
  2  1  1  6
  2  3  1  0
  4  5  2  0
  4  2  1  0
  7  6  1  0
  8  7  1  0
  8  9  1  0
 10  9  1  1
 10 11  1  0
 10 12  1  0
 11  4  1  0
 12 20  1  0
 13 12  2  0
 15 14  1  0
 15 16  2  0
 17 15  1  0
 18 17  1  0
 19 18  1  1
 19 21  1  0
 20 19  1  0
 21 22  2  0
 21 23  1  0
M  END
$$$$
