AMQ.pdb
     RDKit          3D

 23 22  0  0  1  0  0  0  0  0999 V2000
    7.1387  -14.9521   19.5818 C   0  0  0  0  0  0  0  0  0  0  0  0
    7.6938  -15.9302   20.5982 C   0  0  2  0  0  0  0  0  0  0  0  0
    6.6135  -16.7690   21.0409 N   0  0  0  0  0  0  0  0  0  0  0  0
    8.2307  -15.1457   21.7441 C   0  0  0  0  0  0  0  0  0  0  0  0
    9.2917  -14.4776   21.6167 O   0  0  0  0  0  0  0  0  0  0  0  0
    5.8650  -10.2399   26.3857 C   0  0  0  0  0  0  0  0  0  0  0  0
    5.9263  -11.9907   26.8555 S   0  0  0  0  0  0  0  0  0  0  0  0
    7.2973  -12.7587   26.0065 C   0  0  0  0  0  0  0  0  0  0  0  0
    6.9501  -13.7417   24.9554 C   0  0  0  0  0  0  0  0  0  0  0  0
    8.0349  -14.2105   24.0615 C   0  0  2  0  0  0  0  0  0  0  0  0
    7.5940  -15.1050   23.0178 N   0  0  0  0  0  0  0  0  0  0  0  0
    9.2070  -14.7600   24.7966 C   0  0  0  0  0  0  0  0  0  0  0  0
    9.6303  -14.1064   25.8094 O   0  0  0  0  0  0  0  0  0  0  0  0
   11.0186  -20.4654   26.7028 N   0  0  0  0  0  0  0  0  0  0  0  0
   10.6889  -19.4277   27.6010 C   0  0  0  0  0  0  0  0  0  0  0  0
   10.6426  -19.6855   28.8272 O   0  0  0  0  0  0  0  0  0  0  0  0
   10.4142  -18.0816   27.1168 C   0  0  0  0  0  0  0  0  0  0  0  0
   10.5002  -17.8388   25.6663 C   0  0  0  0  0  0  0  0  0  0  0  0
   10.9936  -16.5291   25.1769 C   0  0  2  0  0  0  0  0  0  0  0  0
    9.8533  -15.9514   24.4228 N   0  0  0  0  0  0  0  0  0  0  0  0
   12.0690  -16.6565   24.1906 C   0  0  0  0  0  0  0  0  0  0  0  0
   11.8614  -16.6159   22.9340 O   0  0  0  0  0  0  0  0  0  0  0  0
   13.3965  -16.8233   24.5884 O   0  0  0  0  0  0  0  0  0  0  0  0
  2  1  1  6
  2  3  1  0
  4  5  2  0
  4  2  1  0
  7  6  1  0
  8  7  1  0
  8  9  1  0
 10  9  1  1
 10 11  1  0
 10 12  1  0
 11  4  1  0
 12 20  1  0
 13 12  2  0
 15 14  1  0
 15 16  2  0
 17 15  1  0
 18 17  1  0
 19 18  1  6
 19 21  1  0
 20 19  1  0
 21 22  2  0
 21 23  1  0
M  END
$$$$
