AMQ.pdb
     RDKit          3D

 23 22  0  0  1  0  0  0  0  0999 V2000
    8.0921  -14.1457   19.2029 C   0  0  0  0  0  0  0  0  0  0  0  0
    8.0008  -15.4056   20.0408 C   0  0  2  0  0  0  0  0  0  0  0  0
    6.6321  -15.8451   20.0314 N   0  0  0  0  0  0  0  0  0  0  0  0
    8.4155  -15.0640   21.4294 C   0  0  0  0  0  0  0  0  0  0  0  0
    9.6361  -15.0444   21.7427 O   0  0  0  0  0  0  0  0  0  0  0  0
    6.9461  -11.4834   28.2992 C   0  0  0  0  0  0  0  0  0  0  0  0
    6.2976  -11.8498   26.6455 S   0  0  0  0  0  0  0  0  0  0  0  0
    7.3662  -13.0530   25.8703 C   0  0  0  0  0  0  0  0  0  0  0  0
    7.0377  -13.4184   24.4739 C   0  0  0  0  0  0  0  0  0  0  0  0
    7.9085  -14.4062   23.7944 C   0  0  2  0  0  0  0  0  0  0  0  0
    7.4822  -14.7476   22.4582 N   0  0  0  0  0  0  0  0  0  0  0  0
    8.1712  -15.6209   24.6140 C   0  0  0  0  0  0  0  0  0  0  0  0
    7.1813  -16.3859   24.8733 O   0  0  0  0  0  0  0  0  0  0  0  0
   11.1016  -19.9318   22.5280 N   0  0  0  0  0  0  0  0  0  0  0  0
   11.9634  -18.9036   22.9666 C   0  0  0  0  0  0  0  0  0  0  0  0
   13.0840  -18.7828   22.4173 O   0  0  0  0  0  0  0  0  0  0  0  0
   11.5590  -17.9953   24.0311 C   0  0  0  0  0  0  0  0  0  0  0  0
   10.1875  -18.1135   24.5557 C   0  0  0  0  0  0  0  0  0  0  0  0
    9.7728  -17.2694   25.7020 C   0  0  2  0  0  0  0  0  0  0  0  0
    9.4471  -15.9506   25.1041 N   0  0  0  0  0  0  0  0  0  0  0  0
   10.8677  -16.9973   26.6361 C   0  0  0  0  0  0  0  0  0  0  0  0
   11.3764  -17.8952   27.3837 O   0  0  0  0  0  0  0  0  0  0  0  0
   11.4207  -15.7205   26.7471 O   0  0  0  0  0  0  0  0  0  0  0  0
  2  1  1  6
  2  3  1  0
  4  5  2  0
  4  2  1  0
  7  6  1  0
  8  7  1  0
  8  9  1  0
 10  9  1  1
 10 11  1  0
 10 12  1  0
 11  4  1  0
 12 20  1  0
 13 12  2  0
 15 14  1  0
 15 16  2  0
 17 15  1  0
 18 17  1  0
 19 18  1  6
 19 21  1  0
 20 19  1  0
 21 22  2  0
 21 23  1  0
M  END
$$$$
