AMQ.pdb
     RDKit          3D

 23 22  0  0  1  0  0  0  0  0999 V2000
    7.7024  -12.9003   19.6990 C   0  0  0  0  0  0  0  0  0  0  0  0
    7.8481  -14.3128   20.2294 C   0  0  2  0  0  0  0  0  0  0  0  0
    6.5506  -14.9313   20.2033 N   0  0  0  0  0  0  0  0  0  0  0  0
    8.3424  -14.2276   21.6313 C   0  0  0  0  0  0  0  0  0  0  0  0
    9.5313  -13.8822   21.8672 O   0  0  0  0  0  0  0  0  0  0  0  0
    7.1120  -11.7206   27.5861 C   0  0  0  0  0  0  0  0  0  0  0  0
    5.8113  -11.8125   26.3255 S   0  0  0  0  0  0  0  0  0  0  0  0
    6.4741  -12.6339   24.8845 C   0  0  0  0  0  0  0  0  0  0  0  0
    7.0645  -13.9731   25.1067 C   0  0  0  0  0  0  0  0  0  0  0  0
    8.0360  -14.4752   24.1068 C   0  0  2  0  0  0  0  0  0  0  0  0
    7.5229  -14.5235   22.7584 N   0  0  0  0  0  0  0  0  0  0  0  0
    8.6715  -15.7630   24.4988 C   0  0  0  0  0  0  0  0  0  0  0  0
    7.9832  -16.8301   24.3579 O   0  0  0  0  0  0  0  0  0  0  0  0
   14.1430  -16.4044   21.7116 N   0  0  0  0  0  0  0  0  0  0  0  0
   13.7193  -16.3336   23.0561 C   0  0  0  0  0  0  0  0  0  0  0  0
   14.5386  -15.9539   23.9259 O   0  0  0  0  0  0  0  0  0  0  0  0
   12.3560  -16.6875   23.4278 C   0  0  0  0  0  0  0  0  0  0  0  0
   12.0664  -16.9158   24.8541 C   0  0  0  0  0  0  0  0  0  0  0  0
   10.6644  -17.1329   25.2851 C   0  0  2  0  0  0  0  0  0  0  0  0
    9.9788  -15.8457   25.0096 N   0  0  0  0  0  0  0  0  0  0  0  0
   10.5351  -17.3243   26.7315 C   0  0  0  0  0  0  0  0  0  0  0  0
   10.9471  -18.3719   27.3286 O   0  0  0  0  0  0  0  0  0  0  0  0
    9.9513  -16.3469   27.5391 O   0  0  0  0  0  0  0  0  0  0  0  0
  2  1  1  1
  2  3  1  0
  4  5  2  0
  4  2  1  0
  7  6  1  0
  8  7  1  0
  8  9  1  0
 10  9  1  1
 10 11  1  0
 10 12  1  0
 11  4  1  0
 12 20  1  0
 13 12  2  0
 15 14  1  0
 15 16  2  0
 17 15  1  0
 18 17  1  0
 19 18  1  1
 19 21  1  0
 20 19  1  0
 21 22  2  0
 21 23  1  0
M  END
$$$$
