AMQ.pdb
     RDKit          3D

 23 22  0  0  1  0  0  0  0  0999 V2000
    7.8923  -19.8063   20.9776 C   0  0  0  0  0  0  0  0  0  0  0  0
    7.9095  -18.6095   20.0475 C   0  0  2  0  0  0  0  0  0  0  0  0
    8.7247  -18.9437   18.9115 N   0  0  0  0  0  0  0  0  0  0  0  0
    8.5104  -17.4641   20.7848 C   0  0  0  0  0  0  0  0  0  0  0  0
    9.7290  -17.1795   20.6353 O   0  0  0  0  0  0  0  0  0  0  0  0
    7.0277  -11.9695   19.1322 C   0  0  0  0  0  0  0  0  0  0  0  0
    7.9795  -12.7068   20.4887 S   0  0  0  0  0  0  0  0  0  0  0  0
    6.8891  -13.7467   21.4478 C   0  0  0  0  0  0  0  0  0  0  0  0
    7.4833  -14.4006   22.6356 C   0  0  0  0  0  0  0  0  0  0  0  0
    8.3761  -15.5618   22.4117 C   0  0  2  0  0  0  0  0  0  0  0  0
    7.7634  -16.6442   21.6789 N   0  0  0  0  0  0  0  0  0  0  0  0
    9.0359  -16.0452   23.6555 C   0  0  0  0  0  0  0  0  0  0  0  0
    8.4018  -16.8923   24.3715 O   0  0  0  0  0  0  0  0  0  0  0  0
   11.6584  -21.1933   25.5060 N   0  0  0  0  0  0  0  0  0  0  0  0
   10.7808  -20.1211   25.7751 C   0  0  0  0  0  0  0  0  0  0  0  0
    9.5631  -20.3681   25.9437 O   0  0  0  0  0  0  0  0  0  0  0  0
   11.2779  -18.7547   25.8626 C   0  0  0  0  0  0  0  0  0  0  0  0
   10.6111  -17.7240   25.0482 C   0  0  0  0  0  0  0  0  0  0  0  0
   11.1366  -16.3375   25.0583 C   0  0  2  0  0  0  0  0  0  0  0  0
   10.3094  -15.6106   24.0634 N   0  0  0  0  0  0  0  0  0  0  0  0
   12.5063  -16.2426   24.5480 C   0  0  0  0  0  0  0  0  0  0  0  0
   13.5303  -16.4569   25.2755 O   0  0  0  0  0  0  0  0  0  0  0  0
   12.7582  -15.9149   23.2147 O   0  0  0  0  0  0  0  0  0  0  0  0
  2  1  1  1
  2  3  1  0
  4  5  2  0
  4  2  1  0
  7  6  1  0
  8  7  1  0
  8  9  1  0
 10  9  1  1
 10 11  1  0
 10 12  1  0
 11  4  1  0
 12 20  1  0
 13 12  2  0
 15 14  1  0
 15 16  2  0
 17 15  1  0
 18 17  1  0
 19 18  1  6
 19 21  1  0
 20 19  1  0
 21 22  2  0
 21 23  1  0
M  END
$$$$
