AMQ.pdb
     RDKit          3D

 23 22  0  0  1  0  0  0  0  0999 V2000
    7.6538  -16.2820   19.1385 C   0  0  0  0  0  0  0  0  0  0  0  0
    8.2833  -16.9035   20.3694 C   0  0  2  0  0  0  0  0  0  0  0  0
    7.3088  -17.7693   20.9756 N   0  0  0  0  0  0  0  0  0  0  0  0
    8.6395  -15.8035   21.3075 C   0  0  0  0  0  0  0  0  0  0  0  0
    9.6432  -15.0752   21.0829 O   0  0  0  0  0  0  0  0  0  0  0  0
    6.8181  -11.4214   27.6186 C   0  0  0  0  0  0  0  0  0  0  0  0
    6.3675  -12.8248   26.5618 S   0  0  0  0  0  0  0  0  0  0  0  0
    7.4085  -12.8001   25.1106 C   0  0  0  0  0  0  0  0  0  0  0  0
    7.1133  -13.8155   24.0745 C   0  0  0  0  0  0  0  0  0  0  0  0
    8.2593  -14.4535   23.3851 C   0  0  2  0  0  0  0  0  0  0  0  0
    7.8870  -15.5171   22.4828 N   0  0  0  0  0  0  0  0  0  0  0  0
    9.3436  -14.8756   24.3135 C   0  0  0  0  0  0  0  0  0  0  0  0
    9.8034  -14.0012   25.1237 O   0  0  0  0  0  0  0  0  0  0  0  0
   10.1034  -20.7465   26.7063 N   0  0  0  0  0  0  0  0  0  0  0  0
   10.7468  -19.7574   27.4807 C   0  0  0  0  0  0  0  0  0  0  0  0
   10.8480  -19.9334   28.7180 O   0  0  0  0  0  0  0  0  0  0  0  0
   11.2897  -18.5582   26.8568 C   0  0  0  0  0  0  0  0  0  0  0  0
   10.4176  -17.8004   25.9427 C   0  0  0  0  0  0  0  0  0  0  0  0
   10.9557  -16.6056   25.2490 C   0  0  2  0  0  0  0  0  0  0  0  0
    9.8707  -16.1790   24.3306 N   0  0  0  0  0  0  0  0  0  0  0  0
   12.0879  -16.9158   24.3730 C   0  0  0  0  0  0  0  0  0  0  0  0
   11.9551  -17.1338   23.1245 O   0  0  0  0  0  0  0  0  0  0  0  0
   13.3898  -16.9801   24.8723 O   0  0  0  0  0  0  0  0  0  0  0  0
  2  1  1  6
  2  3  1  0
  4  5  2  0
  4  2  1  0
  7  6  1  0
  8  7  1  0
  8  9  1  0
 10  9  1  1
 10 11  1  0
 10 12  1  0
 11  4  1  0
 12 20  1  0
 13 12  2  0
 15 14  1  0
 15 16  2  0
 17 15  1  0
 18 17  1  0
 19 18  1  6
 19 21  1  0
 20 19  1  0
 21 22  2  0
 21 23  1  0
M  END
$$$$
