KDF.pdb
     RDKit          3D

 29 29  0  0  1  0  0  0  0  0999 V2000
   16.9972  -12.9679  -17.2534 N   0  0  0  0  0  0  0  0  0  0  0  0
   18.4215  -12.6059  -17.3269 C   0  0  1  0  0  0  0  0  0  0  0  0
   18.9937  -13.3277  -18.5277 C   0  0  0  0  0  0  0  0  0  0  0  0
   18.9605  -14.8058  -18.3874 C   0  0  0  0  0  0  0  0  0  0  0  0
   20.2872  -15.4700  -18.2539 C   0  0  0  0  0  0  0  0  0  0  0  0
   20.2177  -16.9693  -18.1655 C   0  0  0  0  0  0  0  0  0  0  0  0
   21.5445  -17.5516  -18.1096 N   0  0  0  0  0  0  0  0  0  0  0  0
   18.4514  -11.1317  -17.5059 C   0  0  0  0  0  0  0  0  0  0  0  0
   18.1695  -10.5452  -18.5662 O   0  0  0  0  0  0  0  0  0  0  0  0
   18.8329  -10.3190  -16.3751 N   0  0  0  0  0  0  0  0  0  0  0  0
   18.9191   -8.8799  -16.4907 C   0  0  1  0  0  0  0  0  0  0  0  0
   17.5607   -8.2393  -16.4420 C   0  0  0  0  0  0  0  0  0  0  0  0
   17.6365   -6.7656  -16.5497 C   0  0  0  0  0  0  0  0  0  0  0  0
   16.9982   -5.9920  -15.7977 O   0  0  0  0  0  0  0  0  0  0  0  0
   19.7600   -8.2875  -15.4246 C   0  0  0  0  0  0  0  0  0  0  0  0
   19.5583   -8.5110  -14.2042 O   0  0  0  0  0  0  0  0  0  0  0  0
   18.4471   -6.2005  -17.5228 O   0  0  0  0  0  0  0  0  0  0  0  0
   20.8415   -7.4312  -15.7648 N   0  0  0  0  0  0  0  0  0  0  0  0
   21.7669   -6.9314  -14.7832 C   0  0  1  0  0  0  0  0  0  0  0  0
   23.1696   -7.3573  -15.1831 C   0  0  0  0  0  0  0  0  0  0  0  0
   23.3171   -8.8132  -15.2342 C   0  0  0  0  0  0  0  0  0  0  0  0
   23.6223   -9.5140  -14.0882 C   0  0  0  0  0  0  0  0  0  0  0  0
   23.7697  -10.8768  -14.0902 C   0  0  0  0  0  0  0  0  0  0  0  0
   23.6134  -11.5822  -15.2537 C   0  0  0  0  0  0  0  0  0  0  0  0
   23.3074  -10.8795  -16.4027 C   0  0  0  0  0  0  0  0  0  0  0  0
   23.1587   -9.5145  -16.4065 C   0  0  0  0  0  0  0  0  0  0  0  0
   21.6670   -5.4692  -14.6496 C   0  0  0  0  0  0  0  0  0  0  0  0
   22.2537   -4.8613  -13.5526 O   0  0  0  0  0  0  0  0  0  0  0  0
   21.0828   -4.7262  -15.4659 O   0  0  0  0  0  0  0  0  0  0  0  0
  2  1  1  6
  2  3  1  0
  4  3  1  0
  4  5  1  0
  6  7  1  0
  6  5  1  0
  8  2  1  0
  9  8  2  0
 10  8  1  0
 11 10  1  0
 11 12  1  1
 12 13  1  0
 13 17  1  0
 14 13  2  0
 15 16  2  0
 15 11  1  0
 18 15  1  0
 19 18  1  0
 19 20  1  6
 20 21  1  0
 21 26  2  0
 21 22  1  0
 22 23  2  0
 23 24  1  0
 25 24  2  0
 26 25  1  0
 27 28  1  0
 27 19  1  0
 29 27  2  0
M  END
$$$$
