KDF.pdb
     RDKit          3D

 29 29  0  0  1  0  0  0  0  0999 V2000
   25.5651  -18.1723  -15.6191 N   0  0  0  0  0  0  0  0  0  0  0  0
   26.6649  -18.4659  -14.6868 C   0  0  1  0  0  0  0  0  0  0  0  0
   27.4272  -17.1734  -14.4905 C   0  0  0  0  0  0  0  0  0  0  0  0
   28.4649  -16.9472  -15.5285 C   0  0  0  0  0  0  0  0  0  0  0  0
   28.0273  -17.1670  -16.9354 C   0  0  0  0  0  0  0  0  0  0  0  0
   29.1102  -16.9537  -17.9563 C   0  0  0  0  0  0  0  0  0  0  0  0
   28.6468  -17.2913  -19.2881 N   0  0  0  0  0  0  0  0  0  0  0  0
   26.0149  -18.9174  -13.4299 C   0  0  0  0  0  0  0  0  0  0  0  0
   25.2124  -18.2352  -12.7678 O   0  0  0  0  0  0  0  0  0  0  0  0
   26.3326  -20.2373  -12.9385 N   0  0  0  0  0  0  0  0  0  0  0  0
   25.6639  -20.7770  -11.7751 C   0  0  1  0  0  0  0  0  0  0  0  0
   25.0917  -22.1391  -12.0490 C   0  0  0  0  0  0  0  0  0  0  0  0
   24.0349  -22.1009  -13.0838 C   0  0  0  0  0  0  0  0  0  0  0  0
   24.0691  -22.8034  -14.1214 O   0  0  0  0  0  0  0  0  0  0  0  0
   26.5715  -20.8711  -10.6080 C   0  0  0  0  0  0  0  0  0  0  0  0
   27.6624  -21.4939  -10.6506 O   0  0  0  0  0  0  0  0  0  0  0  0
   22.9509  -21.2534  -12.9108 O   0  0  0  0  0  0  0  0  0  0  0  0
   26.2214  -20.2438   -9.3822 N   0  0  0  0  0  0  0  0  0  0  0  0
   26.8582  -20.5780   -8.1362 C   0  0  1  0  0  0  0  0  0  0  0  0
   27.5731  -19.3429   -7.6143 C   0  0  0  0  0  0  0  0  0  0  0  0
   28.1877  -19.5661   -6.3042 C   0  0  0  0  0  0  0  0  0  0  0  0
   29.2306  -20.4570   -6.1768 C   0  0  0  0  0  0  0  0  0  0  0  0
   29.8351  -20.6967   -4.9702 C   0  0  0  0  0  0  0  0  0  0  0  0
   29.4062  -20.0428   -3.8458 C   0  0  0  0  0  0  0  0  0  0  0  0
   28.3605  -19.1495   -3.9735 C   0  0  0  0  0  0  0  0  0  0  0  0
   27.7513  -18.9056   -5.1796 C   0  0  0  0  0  0  0  0  0  0  0  0
   25.8845  -21.0888   -7.1579 C   0  0  0  0  0  0  0  0  0  0  0  0
   26.3311  -21.9337   -6.1560 O   0  0  0  0  0  0  0  0  0  0  0  0
   24.6669  -20.8111   -7.1662 O   0  0  0  0  0  0  0  0  0  0  0  0
  2  1  1  6
  2  3  1  0
  4  3  1  0
  4  5  1  0
  6  7  1  0
  6  5  1  0
  8  2  1  0
  9  8  2  0
 10  8  1  0
 11 10  1  0
 11 12  1  6
 12 13  1  0
 13 17  1  0
 14 13  2  0
 15 16  2  0
 15 11  1  0
 18 15  1  0
 19 18  1  0
 19 20  1  1
 20 21  1  0
 21 26  2  0
 21 22  1  0
 22 23  2  0
 23 24  1  0
 25 24  2  0
 26 25  1  0
 27 28  1  0
 27 19  1  0
 29 27  2  0
M  END
$$$$
