KDF.pdb
     RDKit          3D

 29 29  0  0  1  0  0  0  0  0999 V2000
   27.0040  -18.7540  -17.1343 N   0  0  0  0  0  0  0  0  0  0  0  0
   27.7555  -18.5006  -15.8949 C   0  0  1  0  0  0  0  0  0  0  0  0
   28.3732  -17.1259  -16.0325 C   0  0  0  0  0  0  0  0  0  0  0  0
   29.0828  -16.9340  -17.3229 C   0  0  0  0  0  0  0  0  0  0  0  0
   28.5437  -15.8578  -18.2005 C   0  0  0  0  0  0  0  0  0  0  0  0
   29.3131  -15.6630  -19.4774 C   0  0  0  0  0  0  0  0  0  0  0  0
   28.6382  -14.7283  -20.3569 N   0  0  0  0  0  0  0  0  0  0  0  0
   26.7513  -18.5454  -14.8014 C   0  0  0  0  0  0  0  0  0  0  0  0
   26.5148  -17.6036  -14.0236 O   0  0  0  0  0  0  0  0  0  0  0  0
   25.9953  -19.7626  -14.6246 N   0  0  0  0  0  0  0  0  0  0  0  0
   25.0095  -19.8778  -13.5725 C   0  0  1  0  0  0  0  0  0  0  0  0
   23.6502  -20.2065  -14.1224 C   0  0  0  0  0  0  0  0  0  0  0  0
   22.6144  -20.2332  -13.0663 C   0  0  0  0  0  0  0  0  0  0  0  0
   22.5801  -19.4093  -12.1222 O   0  0  0  0  0  0  0  0  0  0  0  0
   25.3794  -20.9107  -12.5770 C   0  0  0  0  0  0  0  0  0  0  0  0
   25.5106  -22.1234  -12.8804 O   0  0  0  0  0  0  0  0  0  0  0  0
   21.6301  -21.2091  -13.1104 O   0  0  0  0  0  0  0  0  0  0  0  0
   25.6000  -20.5458  -11.2217 N   0  0  0  0  0  0  0  0  0  0  0  0
   25.7589  -21.5220  -10.1769 C   0  0  1  0  0  0  0  0  0  0  0  0
   27.1926  -21.4631   -9.6770 C   0  0  0  0  0  0  0  0  0  0  0  0
   27.3393  -20.5985   -8.5044 C   0  0  0  0  0  0  0  0  0  0  0  0
   26.5991  -19.4409   -8.4068 C   0  0  0  0  0  0  0  0  0  0  0  0
   26.7047  -18.6025   -7.3276 C   0  0  0  0  0  0  0  0  0  0  0  0
   27.5646  -18.9048   -6.3054 C   0  0  0  0  0  0  0  0  0  0  0  0
   28.3068  -20.0655   -6.4032 C   0  0  0  0  0  0  0  0  0  0  0  0
   28.2050  -20.9089   -7.4819 C   0  0  0  0  0  0  0  0  0  0  0  0
   24.7992  -21.2968   -9.0840 C   0  0  0  0  0  0  0  0  0  0  0  0
   24.7935  -22.1758   -8.0142 O   0  0  0  0  0  0  0  0  0  0  0  0
   23.9779  -20.3567   -9.0513 O   0  0  0  0  0  0  0  0  0  0  0  0
  2  1  1  6
  2  3  1  0
  4  3  1  0
  4  5  1  0
  6  7  1  0
  6  5  1  0
  8  2  1  0
  9  8  2  0
 10  8  1  0
 11 10  1  0
 11 12  1  6
 12 13  1  0
 13 17  1  0
 14 13  2  0
 15 16  2  0
 15 11  1  0
 18 15  1  0
 19 18  1  0
 19 20  1  1
 20 21  1  0
 21 26  2  0
 21 22  1  0
 22 23  2  0
 23 24  1  0
 25 24  2  0
 26 25  1  0
 27 28  1  0
 27 19  1  0
 29 27  2  0
M  END
$$$$
