KDF.pdb
     RDKit          3D

 29 29  0  0  1  0  0  0  0  0999 V2000
   25.4346  -14.1264  -19.9259 N   0  0  0  0  0  0  0  0  0  0  0  0
   24.0519  -13.8245  -19.5236 C   0  0  1  0  0  0  0  0  0  0  0  0
   23.4879  -12.8875  -20.5697 C   0  0  0  0  0  0  0  0  0  0  0  0
   23.6424  -11.4548  -20.2105 C   0  0  0  0  0  0  0  0  0  0  0  0
   22.5331  -10.8688  -19.4073 C   0  0  0  0  0  0  0  0  0  0  0  0
   22.6604   -9.3895  -19.1709 C   0  0  0  0  0  0  0  0  0  0  0  0
   21.5247   -8.8794  -18.4276 N   0  0  0  0  0  0  0  0  0  0  0  0
   23.3431  -15.1297  -19.5150 C   0  0  0  0  0  0  0  0  0  0  0  0
   22.1087  -15.2613  -19.5969 O   0  0  0  0  0  0  0  0  0  0  0  0
   24.1361  -16.3312  -19.4042 N   0  0  0  0  0  0  0  0  0  0  0  0
   23.5066  -17.6299  -19.3099 C   0  0  1  0  0  0  0  0  0  0  0  0
   24.4487  -18.7308  -19.7078 C   0  0  0  0  0  0  0  0  0  0  0  0
   23.7829  -20.0519  -19.7300 C   0  0  0  0  0  0  0  0  0  0  0  0
   23.9064  -20.8947  -18.8103 O   0  0  0  0  0  0  0  0  0  0  0  0
   23.0071  -17.9058  -17.9428 C   0  0  0  0  0  0  0  0  0  0  0  0
   23.7596  -17.9003  -16.9359 O   0  0  0  0  0  0  0  0  0  0  0  0
   22.9823  -20.3864  -20.8119 O   0  0  0  0  0  0  0  0  0  0  0  0
   21.6312  -18.1905  -17.7320 N   0  0  0  0  0  0  0  0  0  0  0  0
   21.1029  -18.5236  -16.4360 C   0  0  1  0  0  0  0  0  0  0  0  0
   20.8305  -17.2334  -15.6810 C   0  0  0  0  0  0  0  0  0  0  0  0
   20.1140  -17.4629  -14.4248 C   0  0  0  0  0  0  0  0  0  0  0  0
   18.7511  -17.2719  -14.3658 C   0  0  0  0  0  0  0  0  0  0  0  0
   18.0405  -17.4749  -13.2114 C   0  0  0  0  0  0  0  0  0  0  0  0
   18.6836  -17.8794  -12.0719 C   0  0  0  0  0  0  0  0  0  0  0  0
   20.0502  -18.0710  -12.1310 C   0  0  0  0  0  0  0  0  0  0  0  0
   20.7669  -17.8691  -13.2846 C   0  0  0  0  0  0  0  0  0  0  0  0
   19.8880  -19.3466  -16.5490 C   0  0  0  0  0  0  0  0  0  0  0  0
   19.6921  -20.3695  -15.6365 O   0  0  0  0  0  0  0  0  0  0  0  0
   19.0084  -19.1869  -17.4209 O   0  0  0  0  0  0  0  0  0  0  0  0
  2  1  1  6
  2  3  1  0
  4  3  1  0
  4  5  1  0
  6  7  1  0
  6  5  1  0
  8  2  1  0
  9  8  2  0
 10  8  1  0
 11 10  1  0
 11 12  1  1
 12 13  1  0
 13 17  1  0
 14 13  2  0
 15 16  2  0
 15 11  1  0
 18 15  1  0
 19 18  1  0
 19 20  1  6
 20 21  1  0
 21 26  2  0
 21 22  1  0
 22 23  2  0
 23 24  1  0
 25 24  2  0
 26 25  1  0
 27 28  1  0
 27 19  1  0
 29 27  2  0
M  END
$$$$
