KDF.pdb
     RDKit          3D

 29 29  0  0  1  0  0  0  0  0999 V2000
   24.4541  -15.7734  -17.4947 N   0  0  0  0  0  0  0  0  0  0  0  0
   23.0346  -16.1411  -17.3731 C   0  0  1  0  0  0  0  0  0  0  0  0
   22.3577  -15.6965  -18.6515 C   0  0  0  0  0  0  0  0  0  0  0  0
   22.9592  -14.4686  -19.2310 C   0  0  0  0  0  0  0  0  0  0  0  0
   22.6923  -13.2070  -18.4852 C   0  0  0  0  0  0  0  0  0  0  0  0
   23.1143  -11.9614  -19.2138 C   0  0  0  0  0  0  0  0  0  0  0  0
   22.8505  -10.7769  -18.4201 N   0  0  0  0  0  0  0  0  0  0  0  0
   23.0147  -17.6189  -17.2255 C   0  0  0  0  0  0  0  0  0  0  0  0
   21.9798  -18.3059  -17.1563 O   0  0  0  0  0  0  0  0  0  0  0  0
   24.2803  -18.3105  -17.1572 N   0  0  0  0  0  0  0  0  0  0  0  0
   24.3383  -19.7243  -16.8577 C   0  0  1  0  0  0  0  0  0  0  0  0
   25.6808  -20.3068  -17.1987 C   0  0  0  0  0  0  0  0  0  0  0  0
   25.7337  -21.7646  -16.9514 C   0  0  0  0  0  0  0  0  0  0  0  0
   24.7326  -22.4359  -16.6072 O   0  0  0  0  0  0  0  0  0  0  0  0
   24.0513  -20.0009  -15.4309 C   0  0  0  0  0  0  0  0  0  0  0  0
   24.8345  -19.6630  -14.5077 O   0  0  0  0  0  0  0  0  0  0  0  0
   26.9399  -22.4319  -17.1037 O   0  0  0  0  0  0  0  0  0  0  0  0
   22.8539  -20.6714  -15.0630 N   0  0  0  0  0  0  0  0  0  0  0  0
   22.5842  -21.0805  -13.7104 C   0  0  1  0  0  0  0  0  0  0  0  0
   22.6536  -19.8555  -12.8140 C   0  0  0  0  0  0  0  0  0  0  0  0
   21.4253  -19.0599  -12.8607 C   0  0  0  0  0  0  0  0  0  0  0  0
   21.2748  -18.0832  -13.8204 C   0  0  0  0  0  0  0  0  0  0  0  0
   20.1424  -17.3152  -13.9009 C   0  0  0  0  0  0  0  0  0  0  0  0
   19.1184  -17.5072  -13.0119 C   0  0  0  0  0  0  0  0  0  0  0  0
   19.2692  -18.4865  -12.0496 C   0  0  0  0  0  0  0  0  0  0  0  0
   20.4013  -19.2587  -11.9644 C   0  0  0  0  0  0  0  0  0  0  0  0
   21.2780  -21.7503  -13.6045 C   0  0  0  0  0  0  0  0  0  0  0  0
   20.4772  -21.8251  -14.7315 O   0  0  0  0  0  0  0  0  0  0  0  0
   20.8333  -22.2637  -12.5565 O   0  0  0  0  0  0  0  0  0  0  0  0
  2  1  1  6
  2  3  1  0
  4  3  1  0
  4  5  1  0
  6  7  1  0
  6  5  1  0
  8  2  1  0
  9  8  2  0
 10  8  1  0
 11 10  1  0
 11 12  1  1
 12 13  1  0
 13 17  1  0
 14 13  2  0
 15 16  2  0
 15 11  1  0
 18 15  1  0
 19 18  1  0
 19 20  1  1
 20 21  1  0
 21 26  2  0
 21 22  1  0
 22 23  2  0
 23 24  1  0
 25 24  2  0
 26 25  1  0
 27 28  1  0
 27 19  1  0
 29 27  2  0
M  END
$$$$
