KDF.pdb
     RDKit          3D

 29 29  0  0  1  0  0  0  0  0999 V2000
   27.5664  -19.7222  -15.7195 N   0  0  0  0  0  0  0  0  0  0  0  0
   27.9936  -18.7569  -14.6945 C   0  0  1  0  0  0  0  0  0  0  0  0
   27.9376  -17.3869  -15.3351 C   0  0  0  0  0  0  0  0  0  0  0  0
   28.1417  -17.4242  -16.8056 C   0  0  0  0  0  0  0  0  0  0  0  0
   29.5573  -17.5328  -17.2567 C   0  0  0  0  0  0  0  0  0  0  0  0
   29.7380  -17.4230  -18.7453 C   0  0  0  0  0  0  0  0  0  0  0  0
   31.1032  -17.7246  -19.1296 N   0  0  0  0  0  0  0  0  0  0  0  0
   27.0116  -18.8870  -13.5877 C   0  0  0  0  0  0  0  0  0  0  0  0
   26.5963  -17.9374  -12.8994 O   0  0  0  0  0  0  0  0  0  0  0  0
   26.5008  -20.2032  -13.2857 N   0  0  0  0  0  0  0  0  0  0  0  0
   25.5913  -20.4109  -12.1804 C   0  0  1  0  0  0  0  0  0  0  0  0
   24.5432  -21.4352  -12.5122 C   0  0  0  0  0  0  0  0  0  0  0  0
   23.3548  -21.3182  -11.6385 C   0  0  0  0  0  0  0  0  0  0  0  0
   22.5035  -22.2303  -11.5175 O   0  0  0  0  0  0  0  0  0  0  0  0
   26.3002  -20.8401  -10.9524 C   0  0  0  0  0  0  0  0  0  0  0  0
   27.1369  -21.7781  -10.9497 O   0  0  0  0  0  0  0  0  0  0  0  0
   23.1613  -20.1513  -10.9145 O   0  0  0  0  0  0  0  0  0  0  0  0
   26.0446  -20.1852   -9.7177 N   0  0  0  0  0  0  0  0  0  0  0  0
   26.6774  -20.5837   -8.4887 C   0  0  1  0  0  0  0  0  0  0  0  0
   27.5218  -19.4255   -7.9843 C   0  0  0  0  0  0  0  0  0  0  0  0
   28.1306  -19.7048   -6.6822 C   0  0  0  0  0  0  0  0  0  0  0  0
   27.6733  -19.0565   -5.5561 C   0  0  0  0  0  0  0  0  0  0  0  0
   28.2139  -19.2872   -4.3178 C   0  0  0  0  0  0  0  0  0  0  0  0
   29.2388  -20.1839   -4.1727 C   0  0  0  0  0  0  0  0  0  0  0  0
   29.6974  -20.8340   -5.3018 C   0  0  0  0  0  0  0  0  0  0  0  0
   29.1597  -20.6068   -6.5446 C   0  0  0  0  0  0  0  0  0  0  0  0
   25.6837  -21.0006   -7.4862 C   0  0  0  0  0  0  0  0  0  0  0  0
   26.1032  -21.7761   -6.4186 O   0  0  0  0  0  0  0  0  0  0  0  0
   24.4721  -20.7012   -7.5295 O   0  0  0  0  0  0  0  0  0  0  0  0
  2  1  1  6
  2  3  1  0
  4  3  1  0
  4  5  1  0
  6  7  1  0
  6  5  1  0
  8  2  1  0
  9  8  2  0
 10  8  1  0
 11 10  1  0
 11 12  1  6
 12 13  1  0
 13 17  1  0
 14 13  2  0
 15 16  2  0
 15 11  1  0
 18 15  1  0
 19 18  1  0
 19 20  1  1
 20 21  1  0
 21 26  2  0
 21 22  1  0
 22 23  2  0
 23 24  1  0
 25 24  2  0
 26 25  1  0
 27 28  1  0
 27 19  1  0
 29 27  2  0
M  END
$$$$
