KDF.pdb
     RDKit          3D

 29 29  0  0  1  0  0  0  0  0999 V2000
   26.8159  -20.1106  -15.0226 N   0  0  0  0  0  0  0  0  0  0  0  0
   27.5480  -19.2082  -14.1201 C   0  0  1  0  0  0  0  0  0  0  0  0
   27.5862  -17.8538  -14.7941 C   0  0  0  0  0  0  0  0  0  0  0  0
   28.4257  -17.8376  -16.0190 C   0  0  0  0  0  0  0  0  0  0  0  0
   27.7057  -17.5434  -17.2895 C   0  0  0  0  0  0  0  0  0  0  0  0
   28.5928  -17.4991  -18.5026 C   0  0  0  0  0  0  0  0  0  0  0  0
   27.8159  -17.3042  -19.7113 N   0  0  0  0  0  0  0  0  0  0  0  0
   26.7598  -19.1742  -12.8616 C   0  0  0  0  0  0  0  0  0  0  0  0
   26.7712  -18.2324  -12.0489 O   0  0  0  0  0  0  0  0  0  0  0  0
   25.9216  -20.3093  -12.5558 N   0  0  0  0  0  0  0  0  0  0  0  0
   25.1114  -20.3322  -11.3579 C   0  0  1  0  0  0  0  0  0  0  0  0
   23.8986  -21.2030  -11.5276 C   0  0  0  0  0  0  0  0  0  0  0  0
   22.8703  -20.5650  -12.3789 C   0  0  0  0  0  0  0  0  0  0  0  0
   21.8800  -21.1842  -12.8339 O   0  0  0  0  0  0  0  0  0  0  0  0
   25.8750  -20.8089  -10.1813 C   0  0  0  0  0  0  0  0  0  0  0  0
   26.3332  -21.9767  -10.1027 O   0  0  0  0  0  0  0  0  0  0  0  0
   22.9953  -19.2207  -12.6958 O   0  0  0  0  0  0  0  0  0  0  0  0
   26.1135  -19.9354   -9.0864 N   0  0  0  0  0  0  0  0  0  0  0  0
   26.8235  -20.3539   -7.9072 C   0  0  1  0  0  0  0  0  0  0  0  0
   27.5542  -19.1517   -7.3331 C   0  0  0  0  0  0  0  0  0  0  0  0
   28.2490  -19.4661   -6.0831 C   0  0  0  0  0  0  0  0  0  0  0  0
   29.4981  -20.0459   -6.1178 C   0  0  0  0  0  0  0  0  0  0  0  0
   30.1842  -20.3570   -4.9727 C   0  0  0  0  0  0  0  0  0  0  0  0
   29.6311  -20.0926   -3.7480 C   0  0  0  0  0  0  0  0  0  0  0  0
   28.3786  -19.5113   -3.7132 C   0  0  0  0  0  0  0  0  0  0  0  0
   27.6869  -19.1975   -4.8570 C   0  0  0  0  0  0  0  0  0  0  0  0
   25.9121  -20.9513   -6.9180 C   0  0  0  0  0  0  0  0  0  0  0  0
   26.4371  -21.8048   -5.9624 O   0  0  0  0  0  0  0  0  0  0  0  0
   24.6817  -20.7411   -6.8775 O   0  0  0  0  0  0  0  0  0  0  0  0
  2  1  1  6
  2  3  1  0
  4  3  1  0
  4  5  1  0
  6  7  1  0
  6  5  1  0
  8  2  1  0
  9  8  2  0
 10  8  1  0
 11 10  1  0
 11 12  1  6
 12 13  1  0
 13 17  1  0
 14 13  2  0
 15 16  2  0
 15 11  1  0
 18 15  1  0
 19 18  1  0
 19 20  1  1
 20 21  1  0
 21 26  2  0
 21 22  1  0
 22 23  2  0
 23 24  1  0
 25 24  2  0
 26 25  1  0
 27 28  1  0
 27 19  1  0
 29 27  2  0
M  END
$$$$
