KDF.pdb
     RDKit          3D

 29 29  0  0  1  0  0  0  0  0999 V2000
   31.9090  -30.5892  -18.9348 N   0  0  0  0  0  0  0  0  0  0  0  0
   30.9958  -29.7005  -18.1991 C   0  0  1  0  0  0  0  0  0  0  0  0
   31.0788  -28.3431  -18.8633 C   0  0  0  0  0  0  0  0  0  0  0  0
   32.4067  -28.0739  -19.4714 C   0  0  0  0  0  0  0  0  0  0  0  0
   32.3863  -27.6379  -20.8957 C   0  0  0  0  0  0  0  0  0  0  0  0
   33.7252  -27.2048  -21.4250 C   0  0  0  0  0  0  0  0  0  0  0  0
   33.6369  -26.8238  -22.8213 N   0  0  0  0  0  0  0  0  0  0  0  0
   29.6460  -30.3028  -18.3458 C   0  0  0  0  0  0  0  0  0  0  0  0
   29.3004  -31.0347  -19.2906 O   0  0  0  0  0  0  0  0  0  0  0  0
   28.6642  -30.0230  -17.3249 N   0  0  0  0  0  0  0  0  0  0  0  0
   27.3891  -30.7056  -17.3144 C   0  0  1  0  0  0  0  0  0  0  0  0
   27.1420  -31.3947  -16.0022 C   0  0  0  0  0  0  0  0  0  0  0  0
   25.9982  -32.3306  -16.0720 C   0  0  0  0  0  0  0  0  0  0  0  0
   25.3082  -32.4901  -17.1064 O   0  0  0  0  0  0  0  0  0  0  0  0
   26.2631  -29.7810  -17.5826 C   0  0  0  0  0  0  0  0  0  0  0  0
   26.2758  -28.5788  -17.2160 O   0  0  0  0  0  0  0  0  0  0  0  0
   25.6628  -33.0719  -14.9490 O   0  0  0  0  0  0  0  0  0  0  0  0
   25.1135  -30.2428  -18.2780 N   0  0  0  0  0  0  0  0  0  0  0  0
   24.0030  -29.3823  -18.5880 C   0  0  1  0  0  0  0  0  0  0  0  0
   24.4924  -28.2780  -19.5099 C   0  0  0  0  0  0  0  0  0  0  0  0
   23.4236  -27.3502  -19.8851 C   0  0  0  0  0  0  0  0  0  0  0  0
   23.1622  -26.2488  -19.1001 C   0  0  0  0  0  0  0  0  0  0  0  0
   22.1715  -25.3548  -19.4134 C   0  0  0  0  0  0  0  0  0  0  0  0
   21.4074  -25.5422  -20.5345 C   0  0  0  0  0  0  0  0  0  0  0  0
   21.6696  -26.6465  -21.3216 C   0  0  0  0  0  0  0  0  0  0  0  0
   22.6606  -27.5452  -21.0125 C   0  0  0  0  0  0  0  0  0  0  0  0
   22.8947  -30.1369  -19.1949 C   0  0  0  0  0  0  0  0  0  0  0  0
   23.1867  -31.2894  -19.9047 O   0  0  0  0  0  0  0  0  0  0  0  0
   21.6925  -29.8082  -19.1148 O   0  0  0  0  0  0  0  0  0  0  0  0
  2  1  1  6
  2  3  1  0
  4  3  1  0
  4  5  1  0
  6  7  1  0
  6  5  1  0
  8  2  1  0
  9  8  2  0
 10  8  1  0
 11 10  1  0
 11 12  1  1
 12 13  1  0
 13 17  1  0
 14 13  2  0
 15 16  2  0
 15 11  1  0
 18 15  1  0
 19 18  1  0
 19 20  1  6
 20 21  1  0
 21 26  2  0
 21 22  1  0
 22 23  2  0
 23 24  1  0
 25 24  2  0
 26 25  1  0
 27 28  1  0
 27 19  1  0
 29 27  2  0
M  END
$$$$
