KDF.pdb
     RDKit          3D

 29 29  0  0  1  0  0  0  0  0999 V2000
   27.2222  -24.8933  -16.5967 N   0  0  0  0  0  0  0  0  0  0  0  0
   27.4089  -23.5273  -16.0829 C   0  0  1  0  0  0  0  0  0  0  0  0
   28.4430  -22.8658  -16.9679 C   0  0  0  0  0  0  0  0  0  0  0  0
   29.1945  -23.8336  -17.8071 C   0  0  0  0  0  0  0  0  0  0  0  0
   30.2905  -23.2546  -18.6333 C   0  0  0  0  0  0  0  0  0  0  0  0
   31.0787  -24.2728  -19.4094 C   0  0  0  0  0  0  0  0  0  0  0  0
   32.0503  -23.6328  -20.2748 N   0  0  0  0  0  0  0  0  0  0  0  0
   26.0822  -22.8699  -16.2013 C   0  0  0  0  0  0  0  0  0  0  0  0
   25.8504  -21.8745  -16.9107 O   0  0  0  0  0  0  0  0  0  0  0  0
   24.9831  -23.4197  -15.4436 N   0  0  0  0  0  0  0  0  0  0  0  0
   23.6463  -22.8846  -15.5802 C   0  0  1  0  0  0  0  0  0  0  0  0
   22.7229  -23.8670  -16.2435 C   0  0  0  0  0  0  0  0  0  0  0  0
   21.4001  -23.2743  -16.5402 C   0  0  0  0  0  0  0  0  0  0  0  0
   21.1637  -22.0473  -16.4411 O   0  0  0  0  0  0  0  0  0  0  0  0
   23.0670  -22.4997  -14.2722 C   0  0  0  0  0  0  0  0  0  0  0  0
   23.0175  -23.2916  -13.2973 O   0  0  0  0  0  0  0  0  0  0  0  0
   20.3652  -24.1026  -16.9477 O   0  0  0  0  0  0  0  0  0  0  0  0
   22.5403  -21.1937  -14.0840 N   0  0  0  0  0  0  0  0  0  0  0  0
   21.9361  -20.7774  -12.8465 C   0  0  1  0  0  0  0  0  0  0  0  0
   22.7681  -19.6493  -12.2599 C   0  0  0  0  0  0  0  0  0  0  0  0
   23.9111  -20.1421  -11.4888 C   0  0  0  0  0  0  0  0  0  0  0  0
   23.8028  -20.3020  -10.1248 C   0  0  0  0  0  0  0  0  0  0  0  0
   24.8468  -20.7602   -9.3641 C   0  0  0  0  0  0  0  0  0  0  0  0
   26.0413  -21.0742   -9.9561 C   0  0  0  0  0  0  0  0  0  0  0  0
   26.1499  -20.9140  -11.3237 C   0  0  0  0  0  0  0  0  0  0  0  0
   25.1074  -20.4554  -12.0905 C   0  0  0  0  0  0  0  0  0  0  0  0
   20.5373  -20.3654  -13.0462 C   0  0  0  0  0  0  0  0  0  0  0  0
   19.7299  -20.1966  -11.9341 O   0  0  0  0  0  0  0  0  0  0  0  0
   20.0185  -20.1540  -14.1623 O   0  0  0  0  0  0  0  0  0  0  0  0
  2  1  1  6
  2  3  1  0
  4  3  1  0
  4  5  1  0
  6  7  1  0
  6  5  1  0
  8  2  1  0
  9  8  2  0
 10  8  1  0
 11 10  1  0
 11 12  1  1
 12 13  1  0
 13 17  1  0
 14 13  2  0
 15 16  2  0
 15 11  1  0
 18 15  1  0
 19 18  1  0
 19 20  1  6
 20 21  1  0
 21 26  2  0
 21 22  1  0
 22 23  2  0
 23 24  1  0
 25 24  2  0
 26 25  1  0
 27 28  1  0
 27 19  1  0
 29 27  2  0
M  END
$$$$
