KDF.pdb
     RDKit          3D

 29 29  0  0  1  0  0  0  0  0999 V2000
   22.0808  -20.1780  -13.5112 N   0  0  0  0  0  0  0  0  0  0  0  0
   21.8798  -19.9692  -12.0686 C   0  0  1  0  0  0  0  0  0  0  0  0
   20.5881  -20.6676  -11.7025 C   0  0  0  0  0  0  0  0  0  0  0  0
   19.6773  -20.8500  -12.8613 C   0  0  0  0  0  0  0  0  0  0  0  0
   19.5847  -19.6936  -13.7959 C   0  0  0  0  0  0  0  0  0  0  0  0
   18.3283  -19.6696  -14.6213 C   0  0  0  0  0  0  0  0  0  0  0  0
   18.5595  -20.2232  -15.9414 N   0  0  0  0  0  0  0  0  0  0  0  0
   23.0514  -20.5971  -11.4059 C   0  0  0  0  0  0  0  0  0  0  0  0
   22.9829  -21.3389  -10.4095 O   0  0  0  0  0  0  0  0  0  0  0  0
   24.3616  -20.3317  -11.9512 N   0  0  0  0  0  0  0  0  0  0  0  0
   25.5427  -20.9315  -11.3705 C   0  0  1  0  0  0  0  0  0  0  0  0
   26.6721  -20.9975  -12.3594 C   0  0  0  0  0  0  0  0  0  0  0  0
   26.2520  -21.5981  -13.6446 C   0  0  0  0  0  0  0  0  0  0  0  0
   25.6632  -22.7020  -13.7226 O   0  0  0  0  0  0  0  0  0  0  0  0
   26.0061  -20.1951  -10.1716 C   0  0  0  0  0  0  0  0  0  0  0  0
   25.8179  -18.9612  -10.0235 O   0  0  0  0  0  0  0  0  0  0  0  0
   26.5152  -20.9196  -14.8251 O   0  0  0  0  0  0  0  0  0  0  0  0
   26.6915  -20.8833   -9.1347 N   0  0  0  0  0  0  0  0  0  0  0  0
   27.5217  -20.2035   -8.1764 C   0  0  1  0  0  0  0  0  0  0  0  0
   27.0178  -20.5351   -6.7817 C   0  0  0  0  0  0  0  0  0  0  0  0
   27.8792  -19.9865   -5.7324 C   0  0  0  0  0  0  0  0  0  0  0  0
   27.8127  -18.6469   -5.4188 C   0  0  0  0  0  0  0  0  0  0  0  0
   28.6002  -18.0912   -4.4442 C   0  0  0  0  0  0  0  0  0  0  0  0
   29.4857  -18.8717   -3.7496 C   0  0  0  0  0  0  0  0  0  0  0  0
   29.5524  -20.2150   -4.0640 C   0  0  0  0  0  0  0  0  0  0  0  0
   28.7659  -20.7768   -5.0393 C   0  0  0  0  0  0  0  0  0  0  0  0
   28.9373  -20.5726   -8.3379 C   0  0  0  0  0  0  0  0  0  0  0  0
   29.2463  -21.7309   -9.0307 O   0  0  0  0  0  0  0  0  0  0  0  0
   29.8938  -19.9068   -7.8889 O   0  0  0  0  0  0  0  0  0  0  0  0
  2  1  1  6
  2  3  1  0
  4  3  1  0
  4  5  1  0
  6  7  1  0
  6  5  1  0
  8  2  1  0
  9  8  2  0
 10  8  1  0
 11 10  1  0
 11 12  1  6
 12 13  1  0
 13 17  1  0
 14 13  2  0
 15 16  2  0
 15 11  1  0
 18 15  1  0
 19 18  1  0
 19 20  1  1
 20 21  1  0
 21 26  2  0
 21 22  1  0
 22 23  2  0
 23 24  1  0
 25 24  2  0
 26 25  1  0
 27 28  1  0
 27 19  1  0
 29 27  2  0
M  END
$$$$
