KDF.pdb
     RDKit          3D

 29 29  0  0  1  0  0  0  0  0999 V2000
   24.9016  -21.0560  -17.5766 N   0  0  0  0  0  0  0  0  0  0  0  0
   25.1099  -19.6240  -17.3103 C   0  0  1  0  0  0  0  0  0  0  0  0
   24.3659  -18.8669  -18.3890 C   0  0  0  0  0  0  0  0  0  0  0  0
   24.5077  -19.4814  -19.7335 C   0  0  0  0  0  0  0  0  0  0  0  0
   24.4405  -20.9690  -19.7721 C   0  0  0  0  0  0  0  0  0  0  0  0
   24.6072  -21.5563  -21.1461 C   0  0  0  0  0  0  0  0  0  0  0  0
   24.5831  -23.0054  -21.1016 N   0  0  0  0  0  0  0  0  0  0  0  0
   24.5292  -19.3779  -15.9655 C   0  0  0  0  0  0  0  0  0  0  0  0
   24.2931  -18.2502  -15.4961 O   0  0  0  0  0  0  0  0  0  0  0  0
   24.2155  -20.5221  -15.1428 N   0  0  0  0  0  0  0  0  0  0  0  0
   23.6020  -20.3563  -13.8436 C   0  0  1  0  0  0  0  0  0  0  0  0
   22.2755  -21.0579  -13.7652 C   0  0  0  0  0  0  0  0  0  0  0  0
   21.6258  -20.8740  -12.4487 C   0  0  0  0  0  0  0  0  0  0  0  0
   21.0534  -19.8109  -12.1119 O   0  0  0  0  0  0  0  0  0  0  0  0
   24.4687  -20.8601  -12.7529 C   0  0  0  0  0  0  0  0  0  0  0  0
   24.8221  -22.0637  -12.6737 O   0  0  0  0  0  0  0  0  0  0  0  0
   21.6434  -21.9176  -11.5354 O   0  0  0  0  0  0  0  0  0  0  0  0
   24.9327  -19.9724  -11.7452 N   0  0  0  0  0  0  0  0  0  0  0  0
   25.7036  -20.4226  -10.6171 C   0  0  1  0  0  0  0  0  0  0  0  0
   26.7003  -19.3358  -10.2504 C   0  0  0  0  0  0  0  0  0  0  0  0
   27.4896  -19.6795   -9.0661 C   0  0  0  0  0  0  0  0  0  0  0  0
   28.5544  -20.5464   -9.1773 C   0  0  0  0  0  0  0  0  0  0  0  0
   29.3201  -20.8957   -8.0954 C   0  0  0  0  0  0  0  0  0  0  0  0
   29.0364  -20.3800   -6.8587 C   0  0  0  0  0  0  0  0  0  0  0  0
   27.9687  -19.5109   -6.7471 C   0  0  0  0  0  0  0  0  0  0  0  0
   27.1984  -19.1576   -7.8275 C   0  0  0  0  0  0  0  0  0  0  0  0
   24.8361  -20.7626   -9.4778 C   0  0  0  0  0  0  0  0  0  0  0  0
   25.2778  -21.7060   -8.5656 O   0  0  0  0  0  0  0  0  0  0  0  0
   23.7143  -20.2543   -9.2712 O   0  0  0  0  0  0  0  0  0  0  0  0
  2  1  1  6
  2  3  1  0
  4  3  1  0
  4  5  1  0
  6  7  1  0
  6  5  1  0
  8  2  1  0
  9  8  2  0
 10  8  1  0
 11 10  1  0
 11 12  1  6
 12 13  1  0
 13 17  1  0
 14 13  2  0
 15 16  2  0
 15 11  1  0
 18 15  1  0
 19 18  1  0
 19 20  1  1
 20 21  1  0
 21 26  2  0
 21 22  1  0
 22 23  2  0
 23 24  1  0
 25 24  2  0
 26 25  1  0
 27 28  1  0
 27 19  1  0
 29 27  2  0
M  END
$$$$
