KDF.pdb
     RDKit          3D

 29 29  0  0  1  0  0  0  0  0999 V2000
   24.8541  -13.0884  -20.3061 N   0  0  0  0  0  0  0  0  0  0  0  0
   26.1195  -12.9328  -19.5717 C   0  0  1  0  0  0  0  0  0  0  0  0
   27.0028  -14.0942  -19.9733 C   0  0  0  0  0  0  0  0  0  0  0  0
   26.4495  -15.4119  -19.5695 C   0  0  0  0  0  0  0  0  0  0  0  0
   27.2218  -16.6016  -20.0250 C   0  0  0  0  0  0  0  0  0  0  0  0
   26.5819  -17.9180  -19.6813 C   0  0  0  0  0  0  0  0  0  0  0  0
   27.3896  -19.0289  -20.1463 N   0  0  0  0  0  0  0  0  0  0  0  0
   26.6839  -11.6330  -20.0170 C   0  0  0  0  0  0  0  0  0  0  0  0
   26.8901  -11.3247  -21.2045 O   0  0  0  0  0  0  0  0  0  0  0  0
   27.0178  -10.6571  -19.0068 N   0  0  0  0  0  0  0  0  0  0  0  0
   27.5646   -9.3687  -19.3714 C   0  0  1  0  0  0  0  0  0  0  0  0
   26.5493   -8.2725  -19.2126 C   0  0  0  0  0  0  0  0  0  0  0  0
   27.0700   -6.9625  -19.6622 C   0  0  0  0  0  0  0  0  0  0  0  0
   27.5824   -6.7823  -20.7919 O   0  0  0  0  0  0  0  0  0  0  0  0
   28.7603   -9.0262  -18.5666 C   0  0  0  0  0  0  0  0  0  0  0  0
   28.7718   -9.0979  -17.3117 O   0  0  0  0  0  0  0  0  0  0  0  0
   26.9941   -5.8754  -18.8045 O   0  0  0  0  0  0  0  0  0  0  0  0
   29.9523   -8.5977  -19.2102 N   0  0  0  0  0  0  0  0  0  0  0  0
   31.1577   -8.3026  -18.4825 C   0  0  1  0  0  0  0  0  0  0  0  0
   32.2990   -9.0925  -19.1008 C   0  0  0  0  0  0  0  0  0  0  0  0
   32.1215  -10.5383  -18.9518 C   0  0  0  0  0  0  0  0  0  0  0  0
   31.5324  -11.2664  -19.9619 C   0  0  0  0  0  0  0  0  0  0  0  0
   31.3465  -12.6210  -19.8648 C   0  0  0  0  0  0  0  0  0  0  0  0
   31.7504  -13.2902  -18.7402 C   0  0  0  0  0  0  0  0  0  0  0  0
   32.3411  -12.5602  -17.7273 C   0  0  0  0  0  0  0  0  0  0  0  0
   32.5298  -11.2032  -17.8193 C   0  0  0  0  0  0  0  0  0  0  0  0
   31.4422   -6.8586  -18.4818 C   0  0  0  0  0  0  0  0  0  0  0  0
   32.3336   -6.3582  -17.5479 O   0  0  0  0  0  0  0  0  0  0  0  0
   30.9305   -6.0401  -19.2742 O   0  0  0  0  0  0  0  0  0  0  0  0
  2  1  1  6
  2  3  1  0
  4  3  1  0
  4  5  1  0
  6  7  1  0
  6  5  1  0
  8  2  1  0
  9  8  2  0
 10  8  1  0
 11 10  1  0
 11 12  1  1
 12 13  1  0
 13 17  1  0
 14 13  2  0
 15 16  2  0
 15 11  1  0
 18 15  1  0
 19 18  1  0
 19 20  1  6
 20 21  1  0
 21 26  2  0
 21 22  1  0
 22 23  2  0
 23 24  1  0
 25 24  2  0
 26 25  1  0
 27 28  1  0
 27 19  1  0
 29 27  2  0
M  END
$$$$
