KDF.pdb
     RDKit          3D

 29 29  0  0  1  0  0  0  0  0999 V2000
   28.0421  -20.3297  -15.1995 N   0  0  0  0  0  0  0  0  0  0  0  0
   28.2242  -19.0449  -14.5060 C   0  0  1  0  0  0  0  0  0  0  0  0
   28.0212  -17.9585  -15.5398 C   0  0  0  0  0  0  0  0  0  0  0  0
   28.1330  -18.4554  -16.9348 C   0  0  0  0  0  0  0  0  0  0  0  0
   29.0431  -19.6180  -17.1333 C   0  0  0  0  0  0  0  0  0  0  0  0
   29.1710  -20.0610  -18.5644 C   0  0  0  0  0  0  0  0  0  0  0  0
   30.0588  -21.2015  -18.6810 N   0  0  0  0  0  0  0  0  0  0  0  0
   27.1765  -19.0055  -13.4538 C   0  0  0  0  0  0  0  0  0  0  0  0
   26.7753  -17.9673  -12.8981 O   0  0  0  0  0  0  0  0  0  0  0  0
   26.5796  -20.2548  -13.0444 N   0  0  0  0  0  0  0  0  0  0  0  0
   25.5838  -20.2932  -11.9962 C   0  0  1  0  0  0  0  0  0  0  0  0
   24.2891  -20.8784  -12.4852 C   0  0  0  0  0  0  0  0  0  0  0  0
   23.2253  -20.8107  -11.4591 C   0  0  0  0  0  0  0  0  0  0  0  0
   22.8771  -21.7983  -10.7700 O   0  0  0  0  0  0  0  0  0  0  0  0
   26.0428  -21.0739  -10.8238 C   0  0  0  0  0  0  0  0  0  0  0  0
   27.0436  -21.8330  -10.8690 O   0  0  0  0  0  0  0  0  0  0  0  0
   22.5752  -19.6057  -11.2389 O   0  0  0  0  0  0  0  0  0  0  0  0
   25.3452  -20.9807   -9.5896 N   0  0  0  0  0  0  0  0  0  0  0  0
   26.0070  -21.1095   -8.3187 C   0  0  1  0  0  0  0  0  0  0  0  0
   26.9945  -19.9641   -8.1718 C   0  0  0  0  0  0  0  0  0  0  0  0
   27.6569  -19.9628   -6.8660 C   0  0  0  0  0  0  0  0  0  0  0  0
   26.9333  -20.2426   -5.7277 C   0  0  0  0  0  0  0  0  0  0  0  0
   27.5124  -20.2524   -4.4854 C   0  0  0  0  0  0  0  0  0  0  0  0
   28.8474  -19.9789   -4.3485 C   0  0  0  0  0  0  0  0  0  0  0  0
   29.5730  -19.6983   -5.4898 C   0  0  0  0  0  0  0  0  0  0  0  0
   28.9980  -19.6871   -6.7366 C   0  0  0  0  0  0  0  0  0  0  0  0
   25.0384  -21.1292   -7.2108 C   0  0  0  0  0  0  0  0  0  0  0  0
   25.2615  -21.9898   -6.1493 O   0  0  0  0  0  0  0  0  0  0  0  0
   24.0149  -20.4154   -7.1581 O   0  0  0  0  0  0  0  0  0  0  0  0
  2  1  1  6
  2  3  1  0
  4  3  1  0
  4  5  1  0
  6  7  1  0
  6  5  1  0
  8  2  1  0
  9  8  2  0
 10  8  1  0
 11 10  1  0
 11 12  1  6
 12 13  1  0
 13 17  1  0
 14 13  2  0
 15 16  2  0
 15 11  1  0
 18 15  1  0
 19 18  1  0
 19 20  1  1
 20 21  1  0
 21 26  2  0
 21 22  1  0
 22 23  2  0
 23 24  1  0
 25 24  2  0
 26 25  1  0
 27 28  1  0
 27 19  1  0
 29 27  2  0
M  END
$$$$
