LIE.pdb
     RDKit          3D

 26 25  0  0  1  0  0  0  0  0999 V2000
   18.5664  -14.6330  -19.2512 C   0  0  0  0  0  0  0  0  0  0  0  0
   20.0287  -14.5749  -18.9004 C   0  0  1  0  0  0  0  0  0  0  0  0
   20.8827  -14.4262  -20.1595 C   0  0  0  0  0  0  0  0  0  0  0  0
   20.3553  -13.4476  -17.9926 C   0  0  0  0  0  0  0  0  0  0  0  0
   21.8245  -13.3123  -17.7581 C   0  0  2  0  0  0  0  0  0  0  0  0
   22.2387  -14.4452  -16.8753 N   0  0  0  0  0  0  0  0  0  0  0  0
   22.2358  -12.0910  -17.0386 C   0  0  0  0  0  0  0  0  0  0  0  0
   21.5210  -11.7196  -16.0466 O   0  0  0  0  0  0  0  0  0  0  0  0
   27.2190  -10.9868  -15.5053 C   0  0  0  0  0  0  0  0  0  0  0  0
   25.7098  -11.0924  -15.5553 C   0  0  0  0  0  0  0  0  0  0  0  0
   25.1176   -9.9604  -16.3470 C   0  0  2  0  0  0  0  0  0  0  0  0
   25.4184   -8.6168  -15.7192 C   0  0  0  0  0  0  0  0  0  0  0  0
   23.6434  -10.0588  -16.5429 C   0  0  2  0  0  0  0  0  0  0  0  0
   23.3492  -11.2733  -17.3241 N   0  0  0  0  0  0  0  0  0  0  0  0
   23.0522   -8.8659  -17.2126 C   0  0  0  0  0  0  0  0  0  0  0  0
   23.3183   -8.5497  -18.4029 O   0  0  0  0  0  0  0  0  0  0  0  0
   22.1440   -8.0129  -16.5280 N   0  0  0  0  0  0  0  0  0  0  0  0
   21.4818   -6.8960  -17.2141 C   0  0  1  0  0  0  0  0  0  0  0  0
   20.1835   -6.6621  -16.4776 C   0  0  0  0  0  0  0  0  0  0  0  0
   19.4128   -5.4762  -16.9389 C   0  0  0  0  0  0  0  0  0  0  0  0
   18.2305   -5.3086  -16.0511 C   0  0  0  0  0  0  0  0  0  0  0  0
   17.1772   -5.9254  -16.3412 O   0  0  0  0  0  0  0  0  0  0  0  0
   22.3808   -5.7310  -17.1101 C   0  0  0  0  0  0  0  0  0  0  0  0
   22.4254   -4.7773  -18.1055 O   0  0  0  0  0  0  0  0  0  0  0  0
   18.2902   -4.5022  -14.9459 O   0  0  0  0  0  0  0  0  0  0  0  0
   23.1335   -5.5617  -16.1230 O   0  0  0  0  0  0  0  0  0  0  0  0
  2  3  1  6
  2  1  1  0
  4  2  1  0
  4  5  1  0
  5  7  1  0
  5  6  1  1
  7  8  2  0
 10  9  1  0
 11 10  1  0
 11 12  1  1
 13 11  1  0
 13 14  1  6
 14  7  1  0
 15 16  2  0
 15 13  1  0
 17 15  1  0
 18 23  1  0
 18 17  1  0
 18 19  1  1
 20 19  1  0
 20 21  1  0
 21 25  1  0
 22 21  2  0
 23 24  1  0
 26 23  2  0
M  END
$$$$
