LIE.pdb
     RDKit          3D

 26 25  0  0  1  0  0  0  0  0999 V2000
   21.9962  -24.5772  -18.6960 C   0  0  0  0  0  0  0  0  0  0  0  0
   23.2625  -24.4843  -17.8881 C   0  0  1  0  0  0  0  0  0  0  0  0
   24.2504  -23.5157  -18.5381 C   0  0  0  0  0  0  0  0  0  0  0  0
   23.0222  -24.0253  -16.4977 C   0  0  0  0  0  0  0  0  0  0  0  0
   24.2833  -23.9334  -15.7021 C   0  0  2  0  0  0  0  0  0  0  0  0
   24.7686  -25.3293  -15.4779 N   0  0  0  0  0  0  0  0  0  0  0  0
   24.1338  -23.3545  -14.3528 C   0  0  0  0  0  0  0  0  0  0  0  0
   23.4407  -24.0088  -13.5016 O   0  0  0  0  0  0  0  0  0  0  0  0
   28.1182  -21.0009  -11.6992 C   0  0  0  0  0  0  0  0  0  0  0  0
   26.8845  -21.8214  -12.0096 C   0  0  0  0  0  0  0  0  0  0  0  0
   25.6546  -20.9576  -12.0266 C   0  0  2  0  0  0  0  0  0  0  0  0
   25.3511  -20.3836  -10.6597 C   0  0  0  0  0  0  0  0  0  0  0  0
   24.4299  -21.6496  -12.5190 C   0  0  2  0  0  0  0  0  0  0  0  0
   24.6804  -22.1408  -13.8857 N   0  0  0  0  0  0  0  0  0  0  0  0
   23.2135  -20.7888  -12.5013 C   0  0  0  0  0  0  0  0  0  0  0  0
   22.7410  -20.2969  -11.4418 O   0  0  0  0  0  0  0  0  0  0  0  0
   22.5162  -20.4762  -13.7001 N   0  0  0  0  0  0  0  0  0  0  0  0
   21.3451  -19.5901  -13.6925 C   0  0  1  0  0  0  0  0  0  0  0  0
   21.3801  -18.8377  -15.0022 C   0  0  0  0  0  0  0  0  0  0  0  0
   20.1624  -18.0326  -15.2886 C   0  0  0  0  0  0  0  0  0  0  0  0
   20.1442  -17.7068  -16.7404 C   0  0  0  0  0  0  0  0  0  0  0  0
   19.4836  -18.4479  -17.5076 O   0  0  0  0  0  0  0  0  0  0  0  0
   20.1518  -20.4519  -13.5949 C   0  0  0  0  0  0  0  0  0  0  0  0
   18.9841  -19.9865  -13.0271 O   0  0  0  0  0  0  0  0  0  0  0  0
   20.8306  -16.6263  -17.2269 O   0  0  0  0  0  0  0  0  0  0  0  0
   20.1499  -21.6305  -14.0195 O   0  0  0  0  0  0  0  0  0  0  0  0
  2  3  1  6
  2  1  1  0
  4  2  1  0
  4  5  1  0
  5  7  1  0
  5  6  1  1
  7  8  2  0
 10  9  1  0
 11 10  1  0
 11 12  1  1
 13 11  1  0
 13 14  1  6
 14  7  1  0
 15 16  2  0
 15 13  1  0
 17 15  1  0
 18 23  1  0
 18 17  1  0
 18 19  1  6
 20 19  1  0
 20 21  1  0
 21 25  1  0
 22 21  2  0
 23 24  1  0
 26 23  2  0
M  END
$$$$
