LIE.pdb
     RDKit          3D

 26 25  0  0  1  0  0  0  0  0999 V2000
   27.8662  -19.4542  -19.4734 C   0  0  0  0  0  0  0  0  0  0  0  0
   28.4076  -20.1076  -18.2305 C   0  0  1  0  0  0  0  0  0  0  0  0
   29.1860  -19.1007  -17.3839 C   0  0  0  0  0  0  0  0  0  0  0  0
   27.3413  -20.6908  -17.3793 C   0  0  0  0  0  0  0  0  0  0  0  0
   27.8740  -21.2437  -16.0979 C   0  0  2  0  0  0  0  0  0  0  0  0
   28.5620  -22.5305  -16.4224 N   0  0  0  0  0  0  0  0  0  0  0  0
   26.8522  -21.5944  -15.0923 C   0  0  0  0  0  0  0  0  0  0  0  0
   26.3182  -22.7528  -15.1704 O   0  0  0  0  0  0  0  0  0  0  0  0
   25.5383  -20.9054   -9.2192 C   0  0  0  0  0  0  0  0  0  0  0  0
   25.0038  -21.3561  -10.5618 C   0  0  0  0  0  0  0  0  0  0  0  0
   25.9110  -20.9166  -11.6766 C   0  0  2  0  0  0  0  0  0  0  0  0
   26.1542  -19.4233  -11.6487 C   0  0  0  0  0  0  0  0  0  0  0  0
   25.4248  -21.2798  -13.0379 C   0  0  2  0  0  0  0  0  0  0  0  0
   26.3909  -20.7836  -14.0341 N   0  0  0  0  0  0  0  0  0  0  0  0
   24.0635  -20.7551  -13.3420 C   0  0  0  0  0  0  0  0  0  0  0  0
   23.8294  -19.5306  -13.5255 O   0  0  0  0  0  0  0  0  0  0  0  0
   22.9447  -21.6265  -13.4413 N   0  0  0  0  0  0  0  0  0  0  0  0
   21.6007  -21.1120  -13.7337 C   0  0  1  0  0  0  0  0  0  0  0  0
   20.6797  -22.3097  -13.7136 C   0  0  0  0  0  0  0  0  0  0  0  0
   19.2385  -21.9879  -13.8936 C   0  0  0  0  0  0  0  0  0  0  0  0
   18.4562  -23.2479  -13.7732 C   0  0  0  0  0  0  0  0  0  0  0  0
   17.5099  -23.2837  -12.9503 O   0  0  0  0  0  0  0  0  0  0  0  0
   21.2636  -20.1518  -12.6657 C   0  0  0  0  0  0  0  0  0  0  0  0
   20.5831  -18.9858  -12.9478 O   0  0  0  0  0  0  0  0  0  0  0  0
   18.7611  -24.3404  -14.5407 O   0  0  0  0  0  0  0  0  0  0  0  0
   21.5787  -20.3541  -11.4702 O   0  0  0  0  0  0  0  0  0  0  0  0
  2  3  1  1
  2  1  1  0
  4  2  1  0
  4  5  1  0
  5  7  1  0
  5  6  1  6
  7  8  2  0
 10  9  1  0
 11 10  1  0
 11 12  1  6
 13 11  1  0
 13 14  1  6
 14  7  1  0
 15 16  2  0
 15 13  1  0
 17 15  1  0
 18 23  1  0
 18 17  1  0
 18 19  1  1
 20 19  1  0
 20 21  1  0
 21 25  1  0
 22 21  2  0
 23 24  1  0
 26 23  2  0
M  END
$$$$
