LIE.pdb
     RDKit          3D

 26 25  0  0  1  0  0  0  0  0999 V2000
   29.0369  -12.0164  -16.3301 C   0  0  0  0  0  0  0  0  0  0  0  0
   27.6835  -12.6303  -16.5670 C   0  0  1  0  0  0  0  0  0  0  0  0
   27.3628  -13.6676  -15.4910 C   0  0  0  0  0  0  0  0  0  0  0  0
   26.5918  -11.6255  -16.5710 C   0  0  0  0  0  0  0  0  0  0  0  0
   25.2711  -12.2205  -16.9364 C   0  0  2  0  0  0  0  0  0  0  0  0
   25.4234  -12.8418  -18.2874 N   0  0  0  0  0  0  0  0  0  0  0  0
   24.1644  -11.2544  -17.0775 C   0  0  0  0  0  0  0  0  0  0  0  0
   24.1567  -10.5112  -18.1171 O   0  0  0  0  0  0  0  0  0  0  0  0
   20.0501  -13.1964  -17.2052 C   0  0  0  0  0  0  0  0  0  0  0  0
   20.5493  -11.8401  -17.6555 C   0  0  0  0  0  0  0  0  0  0  0  0
   20.7075  -10.9100  -16.4856 C   0  0  2  0  0  0  0  0  0  0  0  0
   19.5626   -9.9250  -16.3908 C   0  0  0  0  0  0  0  0  0  0  0  0
   21.9821  -10.1374  -16.4886 C   0  0  2  0  0  0  0  0  0  0  0  0
   23.0933  -11.0553  -16.1814 N   0  0  0  0  0  0  0  0  0  0  0  0
   21.9858   -8.9939  -15.5329 C   0  0  0  0  0  0  0  0  0  0  0  0
   22.0803   -9.1472  -14.2858 O   0  0  0  0  0  0  0  0  0  0  0  0
   21.8812   -7.6522  -15.9910 N   0  0  0  0  0  0  0  0  0  0  0  0
   21.8342   -6.5262  -15.0495 C   0  0  1  0  0  0  0  0  0  0  0  0
   22.7935   -5.4899  -15.5869 C   0  0  0  0  0  0  0  0  0  0  0  0
   24.2214   -5.9072  -15.5887 C   0  0  0  0  0  0  0  0  0  0  0  0
   25.0145   -4.8681  -16.2996 C   0  0  0  0  0  0  0  0  0  0  0  0
   25.9082   -5.2439  -17.0960 O   0  0  0  0  0  0  0  0  0  0  0  0
   20.4461   -6.0268  -15.0419 C   0  0  0  0  0  0  0  0  0  0  0  0
   19.9682   -5.2731  -13.9903 O   0  0  0  0  0  0  0  0  0  0  0  0
   24.7755   -3.5360  -16.0902 O   0  0  0  0  0  0  0  0  0  0  0  0
   19.6520   -6.2646  -15.9813 O   0  0  0  0  0  0  0  0  0  0  0  0
  2  3  1  1
  2  1  1  0
  4  2  1  0
  4  5  1  0
  5  7  1  0
  5  6  1  6
  7  8  2  0
 10  9  1  0
 11 10  1  0
 11 12  1  6
 13 11  1  0
 13 14  1  1
 14  7  1  0
 15 16  2  0
 15 13  1  0
 17 15  1  0
 18 23  1  0
 18 17  1  0
 18 19  1  6
 20 19  1  0
 20 21  1  0
 21 25  1  0
 22 21  2  0
 23 24  1  0
 26 23  2  0
M  END
$$$$
