LIE.pdb
     RDKit          3D

 26 25  0  0  1  0  0  0  0  0999 V2000
   27.7991  -18.1058  -18.1603 C   0  0  0  0  0  0  0  0  0  0  0  0
   28.1862  -19.0005  -17.0138 C   0  0  1  0  0  0  0  0  0  0  0  0
   28.9057  -18.2052  -15.9246 C   0  0  0  0  0  0  0  0  0  0  0  0
   27.0183  -19.6717  -16.3917 C   0  0  0  0  0  0  0  0  0  0  0  0
   27.3815  -20.4041  -15.1414 C   0  0  2  0  0  0  0  0  0  0  0  0
   28.0990  -21.6501  -15.5500 N   0  0  0  0  0  0  0  0  0  0  0  0
   26.2387  -20.8647  -14.3288 C   0  0  0  0  0  0  0  0  0  0  0  0
   25.5976  -21.8917  -14.7379 O   0  0  0  0  0  0  0  0  0  0  0  0
   26.2295  -20.6013   -8.9345 C   0  0  0  0  0  0  0  0  0  0  0  0
   25.9910  -21.1663  -10.3184 C   0  0  0  0  0  0  0  0  0  0  0  0
   24.7740  -20.5492  -10.9486 C   0  0  2  0  0  0  0  0  0  0  0  0
   23.5023  -20.9641  -10.2412 C   0  0  0  0  0  0  0  0  0  0  0  0
   24.6165  -20.8551  -12.3988 C   0  0  2  0  0  0  0  0  0  0  0  0
   25.7660  -20.2923  -13.1294 N   0  0  0  0  0  0  0  0  0  0  0  0
   23.3430  -20.3429  -12.9790 C   0  0  0  0  0  0  0  0  0  0  0  0
   23.0525  -19.1172  -13.0122 O   0  0  0  0  0  0  0  0  0  0  0  0
   22.3782  -21.2285  -13.5323 N   0  0  0  0  0  0  0  0  0  0  0  0
   21.1193  -20.7277  -14.0986 C   0  0  1  0  0  0  0  0  0  0  0  0
   20.8075  -21.6173  -15.2794 C   0  0  0  0  0  0  0  0  0  0  0  0
   19.5064  -21.3350  -15.9432 C   0  0  0  0  0  0  0  0  0  0  0  0
   19.3715  -22.2384  -17.1179 C   0  0  0  0  0  0  0  0  0  0  0  0
   20.3977  -22.8265  -17.5364 O   0  0  0  0  0  0  0  0  0  0  0  0
   20.0937  -20.8472  -13.0450 C   0  0  0  0  0  0  0  0  0  0  0  0
   18.9726  -20.0439  -13.0507 O   0  0  0  0  0  0  0  0  0  0  0  0
   18.1588  -22.4232  -17.7267 O   0  0  0  0  0  0  0  0  0  0  0  0
   20.1979  -21.6753  -12.1107 O   0  0  0  0  0  0  0  0  0  0  0  0
  2  3  1  1
  2  1  1  0
  4  2  1  0
  4  5  1  0
  5  7  1  0
  5  6  1  6
  7  8  2  0
 10  9  1  0
 11 10  1  0
 11 12  1  1
 13 11  1  0
 13 14  1  6
 14  7  1  0
 15 16  2  0
 15 13  1  0
 17 15  1  0
 18 23  1  0
 18 17  1  0
 18 19  1  6
 20 19  1  0
 20 21  1  0
 21 25  1  0
 22 21  2  0
 23 24  1  0
 26 23  2  0
M  END
$$$$
