LIE.pdb
     RDKit          3D

 26 25  0  0  1  0  0  0  0  0999 V2000
   26.6165  -17.0943  -16.8639 C   0  0  0  0  0  0  0  0  0  0  0  0
   27.3835  -17.9628  -15.9035 C   0  0  1  0  0  0  0  0  0  0  0  0
   28.3642  -17.1268  -15.0813 C   0  0  0  0  0  0  0  0  0  0  0  0
   26.5003  -18.6895  -14.9583 C   0  0  0  0  0  0  0  0  0  0  0  0
   27.2582  -19.6296  -14.0788 C   0  0  2  0  0  0  0  0  0  0  0  0
   27.9489  -20.6109  -14.9699 N   0  0  0  0  0  0  0  0  0  0  0  0
   26.4292  -20.4475  -13.1720 C   0  0  0  0  0  0  0  0  0  0  0  0
   25.9214  -21.5218  -13.6421 O   0  0  0  0  0  0  0  0  0  0  0  0
   25.8020  -19.6136   -7.5257 C   0  0  0  0  0  0  0  0  0  0  0  0
   25.4633  -19.5788   -9.0006 C   0  0  0  0  0  0  0  0  0  0  0  0
   25.5682  -20.9492   -9.6088 C   0  0  2  0  0  0  0  0  0  0  0  0
   26.9613  -21.5229   -9.4666 C   0  0  0  0  0  0  0  0  0  0  0  0
   25.1897  -21.0080  -11.0492 C   0  0  2  0  0  0  0  0  0  0  0  0
   26.1299  -20.1756  -11.8205 N   0  0  0  0  0  0  0  0  0  0  0  0
   23.7888  -20.5735  -11.3133 C   0  0  0  0  0  0  0  0  0  0  0  0
   23.4796  -19.3760  -11.5543 O   0  0  0  0  0  0  0  0  0  0  0  0
   22.7158  -21.5061  -11.3059 N   0  0  0  0  0  0  0  0  0  0  0  0
   21.3308  -21.0774  -11.5396 C   0  0  1  0  0  0  0  0  0  0  0  0
   20.9313  -21.6599  -12.8752 C   0  0  0  0  0  0  0  0  0  0  0  0
   19.4921  -21.5008  -13.2165 C   0  0  0  0  0  0  0  0  0  0  0  0
   19.3716  -20.4630  -14.2760 C   0  0  0  0  0  0  0  0  0  0  0  0
   20.2089  -20.4673  -15.2103 O   0  0  0  0  0  0  0  0  0  0  0  0
   20.5159  -21.6312  -10.4416 C   0  0  0  0  0  0  0  0  0  0  0  0
   19.2038  -21.2440  -10.2660 O   0  0  0  0  0  0  0  0  0  0  0  0
   18.3727  -19.5272  -14.2327 O   0  0  0  0  0  0  0  0  0  0  0  0
   20.9777  -22.4677   -9.6314 O   0  0  0  0  0  0  0  0  0  0  0  0
  2  3  1  1
  2  1  1  0
  4  2  1  0
  4  5  1  0
  5  7  1  0
  5  6  1  6
  7  8  2  0
 10  9  1  0
 11 10  1  0
 11 12  1  6
 13 11  1  0
 13 14  1  6
 14  7  1  0
 15 16  2  0
 15 13  1  0
 17 15  1  0
 18 23  1  0
 18 17  1  0
 18 19  1  6
 20 19  1  0
 20 21  1  0
 21 25  1  0
 22 21  2  0
 23 24  1  0
 26 23  2  0
M  END
$$$$
