LIE.pdb
     RDKit          3D

 26 25  0  0  1  0  0  0  0  0999 V2000
   15.2115  -10.0164  -18.3365 C   0  0  0  0  0  0  0  0  0  0  0  0
   16.4573  -10.8606  -18.3233 C   0  0  1  0  0  0  0  0  0  0  0  0
   17.2547  -10.6704  -19.6135 C   0  0  0  0  0  0  0  0  0  0  0  0
   17.3523  -10.5425  -17.1834 C   0  0  0  0  0  0  0  0  0  0  0  0
   18.6103  -11.3478  -17.2049 C   0  0  2  0  0  0  0  0  0  0  0  0
   18.2577  -12.7326  -16.7666 N   0  0  0  0  0  0  0  0  0  0  0  0
   19.6585  -10.9004  -16.2670 C   0  0  0  0  0  0  0  0  0  0  0  0
   19.4548  -11.0868  -15.0193 O   0  0  0  0  0  0  0  0  0  0  0  0
   25.2008  -11.2062  -14.4958 C   0  0  0  0  0  0  0  0  0  0  0  0
   24.0295  -10.2472  -14.4981 C   0  0  0  0  0  0  0  0  0  0  0  0
   23.0253  -10.6276  -15.5496 C   0  0  2  0  0  0  0  0  0  0  0  0
   23.6271  -10.6026  -16.9378 C   0  0  0  0  0  0  0  0  0  0  0  0
   21.8021   -9.7762  -15.5613 C   0  0  2  0  0  0  0  0  0  0  0  0
   20.8827  -10.2818  -16.5962 N   0  0  0  0  0  0  0  0  0  0  0  0
   22.0860   -8.3317  -15.7928 C   0  0  0  0  0  0  0  0  0  0  0  0
   22.5015   -7.8861  -16.8958 O   0  0  0  0  0  0  0  0  0  0  0  0
   21.8983   -7.3708  -14.7619 N   0  0  0  0  0  0  0  0  0  0  0  0
   22.1053   -5.9379  -15.0079 C   0  0  1  0  0  0  0  0  0  0  0  0
   20.8146   -5.4237  -15.6017 C   0  0  0  0  0  0  0  0  0  0  0  0
   19.6227   -5.5785  -14.7250 C   0  0  0  0  0  0  0  0  0  0  0  0
   18.4182   -5.1552  -15.4893 C   0  0  0  0  0  0  0  0  0  0  0  0
   17.5226   -6.0065  -15.7066 O   0  0  0  0  0  0  0  0  0  0  0  0
   22.3880   -5.3118  -13.7024 C   0  0  0  0  0  0  0  0  0  0  0  0
   22.8385   -4.0107  -13.6214 O   0  0  0  0  0  0  0  0  0  0  0  0
   18.2901   -3.8697  -15.9438 O   0  0  0  0  0  0  0  0  0  0  0  0
   22.2319   -5.9301  -12.6241 O   0  0  0  0  0  0  0  0  0  0  0  0
  2  3  1  6
  2  1  1  0
  4  2  1  0
  4  5  1  0
  5  7  1  0
  5  6  1  1
  7  8  2  0
 10  9  1  0
 11 10  1  0
 11 12  1  6
 13 11  1  0
 13 14  1  6
 14  7  1  0
 15 16  2  0
 15 13  1  0
 17 15  1  0
 18 23  1  0
 18 17  1  0
 18 19  1  1
 20 19  1  0
 20 21  1  0
 21 25  1  0
 22 21  2  0
 23 24  1  0
 26 23  2  0
M  END
$$$$
