LIE.pdb
     RDKit          3D

 26 25  0  0  1  0  0  0  0  0999 V2000
   21.3865  -17.3330  -18.3258 C   0  0  0  0  0  0  0  0  0  0  0  0
   21.7020  -15.9765  -18.8959 C   0  0  1  0  0  0  0  0  0  0  0  0
   20.5565  -15.4792  -19.7775 C   0  0  0  0  0  0  0  0  0  0  0  0
   21.9446  -14.9565  -17.8459 C   0  0  0  0  0  0  0  0  0  0  0  0
   23.2570  -15.1479  -17.1583 C   0  0  2  0  0  0  0  0  0  0  0  0
   23.0615  -16.2004  -16.1151 N   0  0  0  0  0  0  0  0  0  0  0  0
   23.7613  -13.9686  -16.4280 C   0  0  0  0  0  0  0  0  0  0  0  0
   23.1860  -13.6629  -15.3286 O   0  0  0  0  0  0  0  0  0  0  0  0
   28.9028  -13.0369  -15.6851 C   0  0  0  0  0  0  0  0  0  0  0  0
   27.4063  -13.1174  -15.4716 C   0  0  0  0  0  0  0  0  0  0  0  0
   26.7219  -11.8845  -15.9915 C   0  0  2  0  0  0  0  0  0  0  0  0
   27.1200  -10.6493  -15.2133 C   0  0  0  0  0  0  0  0  0  0  0  0
   25.2339  -11.9684  -15.9948 C   0  0  2  0  0  0  0  0  0  0  0  0
   24.8263  -13.1263  -16.8103 N   0  0  0  0  0  0  0  0  0  0  0  0
   24.5703  -10.7320  -16.4969 C   0  0  0  0  0  0  0  0  0  0  0  0
   24.6425  -10.3586  -17.6982 O   0  0  0  0  0  0  0  0  0  0  0  0
   23.8111   -9.9005  -15.6290 N   0  0  0  0  0  0  0  0  0  0  0  0
   23.0417   -8.7608  -16.1445 C   0  0  1  0  0  0  0  0  0  0  0  0
   22.1316   -8.3262  -15.0195 C   0  0  0  0  0  0  0  0  0  0  0  0
   21.3031   -7.1274  -15.3189 C   0  0  0  0  0  0  0  0  0  0  0  0
   19.9511   -7.3309  -14.7316 C   0  0  0  0  0  0  0  0  0  0  0  0
   19.7544   -8.3545  -14.0332 O   0  0  0  0  0  0  0  0  0  0  0  0
   24.0125   -7.7064  -16.4937 C   0  0  0  0  0  0  0  0  0  0  0  0
   23.9034   -7.0037  -17.6755 O   0  0  0  0  0  0  0  0  0  0  0  0
   18.9473   -6.4247  -14.9476 O   0  0  0  0  0  0  0  0  0  0  0  0
   24.9668   -7.4089  -15.7385 O   0  0  0  0  0  0  0  0  0  0  0  0
  2  3  1  1
  2  1  1  0
  4  2  1  0
  4  5  1  0
  5  7  1  0
  5  6  1  1
  7  8  2  0
 10  9  1  0
 11 10  1  0
 11 12  1  1
 13 11  1  0
 13 14  1  6
 14  7  1  0
 15 16  2  0
 15 13  1  0
 17 15  1  0
 18 23  1  0
 18 17  1  0
 18 19  1  1
 20 19  1  0
 20 21  1  0
 21 25  1  0
 22 21  2  0
 23 24  1  0
 26 23  2  0
M  END
$$$$
