LIE.pdb
     RDKit          3D

 26 25  0  0  1  0  0  0  0  0999 V2000
   14.8375   -8.4525  -19.3427 C   0  0  0  0  0  0  0  0  0  0  0  0
   15.8625   -9.5046  -19.0150 C   0  0  1  0  0  0  0  0  0  0  0  0
   16.8046   -9.7305  -20.1974 C   0  0  0  0  0  0  0  0  0  0  0  0
   16.6892   -9.1506  -17.8349 C   0  0  0  0  0  0  0  0  0  0  0  0
   17.6815  -10.2142  -17.4947 C   0  0  2  0  0  0  0  0  0  0  0  0
   16.9196  -11.3629  -16.9166 N   0  0  0  0  0  0  0  0  0  0  0  0
   18.6681   -9.8452  -16.4609 C   0  0  0  0  0  0  0  0  0  0  0  0
   18.2673   -9.8043  -15.2482 O   0  0  0  0  0  0  0  0  0  0  0  0
   24.1822  -10.7196  -14.3687 C   0  0  0  0  0  0  0  0  0  0  0  0
   23.0507   -9.7144  -14.3947 C   0  0  0  0  0  0  0  0  0  0  0  0
   22.0617  -10.0460  -15.4768 C   0  0  2  0  0  0  0  0  0  0  0  0
   22.7145  -10.0910  -16.8413 C   0  0  0  0  0  0  0  0  0  0  0  0
   20.9022   -9.1125  -15.5504 C   0  0  2  0  0  0  0  0  0  0  0  0
   20.0282   -9.5291  -16.6614 N   0  0  0  0  0  0  0  0  0  0  0  0
   21.2981   -7.6858  -15.7202 C   0  0  0  0  0  0  0  0  0  0  0  0
   21.6973   -7.2144  -16.8184 O   0  0  0  0  0  0  0  0  0  0  0  0
   21.2430   -6.7728  -14.6318 N   0  0  0  0  0  0  0  0  0  0  0  0
   21.5441   -5.3473  -14.8160 C   0  0  1  0  0  0  0  0  0  0  0  0
   20.2128   -4.6590  -15.0080 C   0  0  0  0  0  0  0  0  0  0  0  0
   20.2784   -3.1729  -15.0221 C   0  0  0  0  0  0  0  0  0  0  0  0
   18.8952   -2.6420  -15.1606 C   0  0  0  0  0  0  0  0  0  0  0  0
   17.9709   -3.4509  -15.4164 O   0  0  0  0  0  0  0  0  0  0  0  0
   22.2199   -4.8862  -13.5885 C   0  0  0  0  0  0  0  0  0  0  0  0
   22.9150   -3.6951  -13.5650 O   0  0  0  0  0  0  0  0  0  0  0  0
   18.6375   -1.3051  -15.0127 O   0  0  0  0  0  0  0  0  0  0  0  0
   22.1906   -5.5512  -12.5271 O   0  0  0  0  0  0  0  0  0  0  0  0
  2  3  1  6
  2  1  1  0
  4  2  1  0
  4  5  1  0
  5  7  1  0
  5  6  1  1
  7  8  2  0
 10  9  1  0
 11 10  1  0
 11 12  1  6
 13 11  1  0
 13 14  1  6
 14  7  1  0
 15 16  2  0
 15 13  1  0
 17 15  1  0
 18 23  1  0
 18 17  1  0
 18 19  1  1
 20 19  1  0
 20 21  1  0
 21 25  1  0
 22 21  2  0
 23 24  1  0
 26 23  2  0
M  END
$$$$
