LIE.pdb
     RDKit          3D

 26 25  0  0  1  0  0  0  0  0999 V2000
   27.6450  -18.5488  -18.4472 C   0  0  0  0  0  0  0  0  0  0  0  0
   28.0714  -19.2931  -17.2106 C   0  0  1  0  0  0  0  0  0  0  0  0
   28.8802  -18.3857  -16.2837 C   0  0  0  0  0  0  0  0  0  0  0  0
   26.9219  -19.8254  -16.4379 C   0  0  0  0  0  0  0  0  0  0  0  0
   27.3450  -20.4687  -15.1578 C   0  0  2  0  0  0  0  0  0  0  0  0
   28.0471  -21.7401  -15.5114 N   0  0  0  0  0  0  0  0  0  0  0  0
   26.2426  -20.8717  -14.2630 C   0  0  0  0  0  0  0  0  0  0  0  0
   25.5383  -21.8803  -14.6091 O   0  0  0  0  0  0  0  0  0  0  0  0
   26.5695  -20.4981   -8.8920 C   0  0  0  0  0  0  0  0  0  0  0  0
   26.2220  -21.0826  -10.2444 C   0  0  0  0  0  0  0  0  0  0  0  0
   24.9905  -20.4330  -10.8104 C   0  0  2  0  0  0  0  0  0  0  0  0
   23.7503  -20.7962  -10.0232 C   0  0  0  0  0  0  0  0  0  0  0  0
   24.7371  -20.7516  -12.2442 C   0  0  2  0  0  0  0  0  0  0  0  0
   25.8721  -20.2617  -13.0463 N   0  0  0  0  0  0  0  0  0  0  0  0
   23.4618  -20.1810  -12.7630 C   0  0  0  0  0  0  0  0  0  0  0  0
   23.2515  -18.9412  -12.8426 O   0  0  0  0  0  0  0  0  0  0  0  0
   22.4034  -21.0233  -13.2005 N   0  0  0  0  0  0  0  0  0  0  0  0
   21.1354  -20.4648  -13.6870 C   0  0  1  0  0  0  0  0  0  0  0  0
   20.7739  -21.2581  -14.9210 C   0  0  0  0  0  0  0  0  0  0  0  0
   21.3226  -20.7138  -16.1921 C   0  0  0  0  0  0  0  0  0  0  0  0
   20.2985  -20.8841  -17.2581 C   0  0  0  0  0  0  0  0  0  0  0  0
   19.8559  -22.0373  -17.4783 O   0  0  0  0  0  0  0  0  0  0  0  0
   20.1411  -20.6505  -12.6132 C   0  0  0  0  0  0  0  0  0  0  0  0
   19.0535  -19.8100  -12.4992 O   0  0  0  0  0  0  0  0  0  0  0  0
   19.8505  -19.8103  -17.9803 O   0  0  0  0  0  0  0  0  0  0  0  0
   20.2427  -21.5705  -11.7689 O   0  0  0  0  0  0  0  0  0  0  0  0
  2  3  1  1
  2  1  1  0
  4  2  1  0
  4  5  1  0
  5  7  1  0
  5  6  1  6
  7  8  2  0
 10  9  1  0
 11 10  1  0
 11 12  1  1
 13 11  1  0
 13 14  1  6
 14  7  1  0
 15 16  2  0
 15 13  1  0
 17 15  1  0
 18 23  1  0
 18 17  1  0
 18 19  1  6
 20 19  1  0
 20 21  1  0
 21 25  1  0
 22 21  2  0
 23 24  1  0
 26 23  2  0
M  END
$$$$
