CCD.pdb
     RDKit          3D

 21 20  0  0  1  0  0  0  0  0999 V2000
    9.9906  -16.3202   15.3696 N   0  0  0  0  0  0  0  0  0  0  0  0
    9.1796  -16.6786   16.5132 C   0  0  1  0  0  0  0  0  0  0  0  0
    9.4158  -18.1539   16.7700 C   0  0  0  0  0  0  0  0  0  0  0  0
    8.5744  -18.6288   18.2994 S   0  0  0  0  0  0  0  0  0  0  0  0
    9.6222  -15.9619   17.7450 C   0  0  0  0  0  0  0  0  0  0  0  0
   10.8384  -15.9405   18.0549 O   0  0  0  0  0  0  0  0  0  0  0  0
    8.7118  -15.2866   18.6043 N   0  0  0  0  0  0  0  0  0  0  0  0
    9.0947  -14.6563   19.8346 C   0  0  1  0  0  0  0  0  0  0  0  0
    7.8902  -13.8961   20.3826 C   0  0  0  0  0  0  0  0  0  0  0  0
    7.3879  -12.5962   19.1934 S   0  0  0  0  0  0  0  0  0  0  0  0
    9.5899  -15.6438   20.8441 C   0  0  0  0  0  0  0  0  0  0  0  0
    9.0323  -16.7631   20.9957 O   0  0  0  0  0  0  0  0  0  0  0  0
   10.7101  -15.3519   21.6692 N   0  0  0  0  0  0  0  0  0  0  0  0
   11.2063  -16.2279   22.6942 C   0  0  1  0  0  0  0  0  0  0  0  0
   12.6627  -15.9878   23.0010 C   0  0  0  0  0  0  0  0  0  0  0  0
   13.5409  -16.0491   21.8115 C   0  0  0  0  0  0  0  0  0  0  0  0
   13.4961  -16.9989   20.9708 O   0  0  0  0  0  0  0  0  0  0  0  0
   10.3379  -16.2511   23.8911 C   0  0  0  0  0  0  0  0  0  0  0  0
    9.2272  -15.4112   24.0228 O   0  0  0  0  0  0  0  0  0  0  0  0
   14.4881  -15.0603   21.5265 O   0  0  0  0  0  0  0  0  0  0  0  0
   10.5439  -17.0230   24.8583 O   0  0  0  0  0  0  0  0  0  0  0  0
  2  3  1  0
  2  1  1  6
  4  3  1  0
  5  6  2  0
  5  2  1  0
  7  5  1  0
  8 11  1  0
  8  7  1  0
  9 10  1  0
  8  9  1  1
 11 13  1  0
 12 11  2  0
 13 14  1  0
 14 18  1  0
 14 15  1  1
 16 15  1  0
 17 16  2  0
 18 21  2  0
 18 19  1  0
 20 16  1  0
M  END
$$$$
