CCD.pdb
     RDKit          3D

 21 20  0  0  1  0  0  0  0  0999 V2000
    8.0405  -12.9292   19.5058 N   0  0  0  0  0  0  0  0  0  0  0  0
    7.0856  -13.1087   20.5781 C   0  0  1  0  0  0  0  0  0  0  0  0
    6.3183  -14.3796   20.2706 C   0  0  0  0  0  0  0  0  0  0  0  0
    7.4762  -15.7681   20.2109 S   0  0  0  0  0  0  0  0  0  0  0  0
    7.7670  -13.3358   21.8862 C   0  0  0  0  0  0  0  0  0  0  0  0
    8.9872  -13.6288   21.9147 O   0  0  0  0  0  0  0  0  0  0  0  0
    7.0850  -13.2341   23.1303 N   0  0  0  0  0  0  0  0  0  0  0  0
    7.7220  -13.4003   24.4048 C   0  0  1  0  0  0  0  0  0  0  0  0
    6.7487  -12.9546   25.4924 C   0  0  0  0  0  0  0  0  0  0  0  0
    7.5373  -13.1320   27.1365 S   0  0  0  0  0  0  0  0  0  0  0  0
    8.1532  -14.8138   24.6399 C   0  0  0  0  0  0  0  0  0  0  0  0
    7.3652  -15.7794   24.4571 O   0  0  0  0  0  0  0  0  0  0  0  0
    9.4710  -15.1166   25.0788 N   0  0  0  0  0  0  0  0  0  0  0  0
    9.9492  -16.4468   25.3360 C   0  0  1  0  0  0  0  0  0  0  0  0
   11.2682  -16.7245   24.6608 C   0  0  0  0  0  0  0  0  0  0  0  0
   11.7819  -18.0925   24.8949 C   0  0  0  0  0  0  0  0  0  0  0  0
   11.8446  -18.6163   26.0492 O   0  0  0  0  0  0  0  0  0  0  0  0
    9.9286  -16.7898   26.7743 C   0  0  0  0  0  0  0  0  0  0  0  0
    9.8477  -18.1116   27.2246 O   0  0  0  0  0  0  0  0  0  0  0  0
   12.2375  -18.9107   23.8561 O   0  0  0  0  0  0  0  0  0  0  0  0
    9.9822  -15.9190   27.6757 O   0  0  0  0  0  0  0  0  0  0  0  0
  2  3  1  0
  2  1  1  6
  4  3  1  0
  5  6  2  0
  5  2  1  0
  7  5  1  0
  8 11  1  0
  8  7  1  0
  9 10  1  0
  8  9  1  1
 11 13  1  0
 12 11  2  0
 13 14  1  0
 14 18  1  0
 14 15  1  1
 16 15  1  0
 17 16  2  0
 18 21  2  0
 18 19  1  0
 20 16  1  0
M  END
$$$$
