CCD.pdb
     RDKit          3D

 21 20  0  0  1  0  0  0  0  0999 V2000
    8.5661  -16.3116   20.0134 N   0  0  0  0  0  0  0  0  0  0  0  0
    7.7647  -16.1982   21.2130 C   0  0  1  0  0  0  0  0  0  0  0  0
    7.4464  -17.6114   21.6600 C   0  0  0  0  0  0  0  0  0  0  0  0
    6.4473  -18.4217   20.3882 S   0  0  0  0  0  0  0  0  0  0  0  0
    8.5324  -15.5683   22.3270 C   0  0  0  0  0  0  0  0  0  0  0  0
    9.7347  -15.2497   22.1581 O   0  0  0  0  0  0  0  0  0  0  0  0
    7.9543  -15.3058   23.5998 N   0  0  0  0  0  0  0  0  0  0  0  0
    8.6391  -14.6273   24.6621 C   0  0  1  0  0  0  0  0  0  0  0  0
    7.5982  -14.0735   25.6309 C   0  0  0  0  0  0  0  0  0  0  0  0
    8.4384  -13.3046   27.0659 S   0  0  0  0  0  0  0  0  0  0  0  0
    9.5941  -15.5263   25.3825 C   0  0  0  0  0  0  0  0  0  0  0  0
   10.3686  -15.0835   26.2717 O   0  0  0  0  0  0  0  0  0  0  0  0
    9.6602  -16.9154   25.0875 N   0  0  0  0  0  0  0  0  0  0  0  0
   10.5198  -17.8439   25.7679 C   0  0  1  0  0  0  0  0  0  0  0  0
   11.9793  -17.5839   25.4937 C   0  0  0  0  0  0  0  0  0  0  0  0
   12.4275  -18.0458   24.1611 C   0  0  0  0  0  0  0  0  0  0  0  0
   12.9068  -17.2616   23.2859 O   0  0  0  0  0  0  0  0  0  0  0  0
   10.1938  -17.9721   27.2047 C   0  0  0  0  0  0  0  0  0  0  0  0
    9.1788  -17.2228   27.8086 O   0  0  0  0  0  0  0  0  0  0  0  0
   12.3551  -19.3862   23.7681 O   0  0  0  0  0  0  0  0  0  0  0  0
   10.8058  -18.7582   27.9671 O   0  0  0  0  0  0  0  0  0  0  0  0
  2  3  1  0
  2  1  1  6
  4  3  1  0
  5  6  2  0
  5  2  1  0
  7  5  1  0
  8 11  1  0
  8  7  1  0
  9 10  1  0
  8  9  1  1
 11 13  1  0
 12 11  2  0
 13 14  1  0
 14 18  1  0
 14 15  1  1
 16 15  1  0
 17 16  2  0
 18 21  2  0
 18 19  1  0
 20 16  1  0
M  END
$$$$
