CCD.pdb
     RDKit          3D

 21 20  0  0  1  0  0  0  0  0999 V2000
    7.6306  -12.8025   18.4625 N   0  0  0  0  0  0  0  0  0  0  0  0
    7.1489  -13.7002   19.4902 C   0  0  1  0  0  0  0  0  0  0  0  0
    7.1556  -15.0927   18.8908 C   0  0  0  0  0  0  0  0  0  0  0  0
    6.6187  -16.2785   20.1470 S   0  0  0  0  0  0  0  0  0  0  0  0
    8.0754  -13.7420   20.6593 C   0  0  0  0  0  0  0  0  0  0  0  0
    9.3106  -13.6018   20.4855 O   0  0  0  0  0  0  0  0  0  0  0  0
    7.6159  -13.9376   21.9912 N   0  0  0  0  0  0  0  0  0  0  0  0
    8.4823  -13.9989   23.1328 C   0  0  1  0  0  0  0  0  0  0  0  0
    7.6971  -13.5430   24.3594 C   0  0  0  0  0  0  0  0  0  0  0  0
    6.3753  -14.7558   24.7315 S   0  0  0  0  0  0  0  0  0  0  0  0
    9.0338  -15.3730   23.3492 C   0  0  0  0  0  0  0  0  0  0  0  0
    8.4377  -16.3951   22.9171 O   0  0  0  0  0  0  0  0  0  0  0  0
   10.2533  -15.5729   24.0519 N   0  0  0  0  0  0  0  0  0  0  0  0
   10.9808  -16.8118   24.0677 C   0  0  1  0  0  0  0  0  0  0  0  0
   12.2640  -16.7356   23.2802 C   0  0  0  0  0  0  0  0  0  0  0  0
   13.0494  -17.9897   23.2965 C   0  0  0  0  0  0  0  0  0  0  0  0
   12.6410  -19.0650   22.7600 O   0  0  0  0  0  0  0  0  0  0  0  0
   11.1471  -17.3556   25.4329 C   0  0  0  0  0  0  0  0  0  0  0  0
   11.2325  -18.7291   25.6831 O   0  0  0  0  0  0  0  0  0  0  0  0
   14.3043  -18.0811   23.9072 O   0  0  0  0  0  0  0  0  0  0  0  0
   11.2217  -16.6205   26.4467 O   0  0  0  0  0  0  0  0  0  0  0  0
  2  3  1  0
  2  1  1  6
  4  3  1  0
  5  6  2  0
  5  2  1  0
  7  5  1  0
  8 11  1  0
  8  7  1  0
  9 10  1  0
  8  9  1  1
 11 13  1  0
 12 11  2  0
 13 14  1  0
 14 18  1  0
 14 15  1  1
 16 15  1  0
 17 16  2  0
 18 21  2  0
 18 19  1  0
 20 16  1  0
M  END
$$$$
