CCD.pdb
     RDKit          3D

 21 20  0  0  1  0  0  0  0  0999 V2000
    7.9066  -14.4130   20.0879 N   0  0  0  0  0  0  0  0  0  0  0  0
    7.2200  -14.8304   21.2914 C   0  0  1  0  0  0  0  0  0  0  0  0
    7.0659  -16.3361   21.2055 C   0  0  0  0  0  0  0  0  0  0  0  0
    6.2615  -16.9338   22.7116 S   0  0  0  0  0  0  0  0  0  0  0  0
    8.0379  -14.5609   22.5102 C   0  0  0  0  0  0  0  0  0  0  0  0
    9.2878  -14.6654   22.4619 O   0  0  0  0  0  0  0  0  0  0  0  0
    7.4562  -14.1829   23.7519 N   0  0  0  0  0  0  0  0  0  0  0  0
    8.2099  -13.9704   24.9538 C   0  0  1  0  0  0  0  0  0  0  0  0
    7.3861  -13.0917   25.8908 C   0  0  0  0  0  0  0  0  0  0  0  0
    8.3041  -12.8267   27.4541 S   0  0  0  0  0  0  0  0  0  0  0  0
    8.5697  -15.2565   25.6288 C   0  0  0  0  0  0  0  0  0  0  0  0
    7.7014  -16.1366   25.8699 O   0  0  0  0  0  0  0  0  0  0  0  0
    9.9080  -15.5303   26.0224 N   0  0  0  0  0  0  0  0  0  0  0  0
   10.3188  -16.7255   26.7057 C   0  0  1  0  0  0  0  0  0  0  0  0
   11.6604  -17.2258   26.2339 C   0  0  0  0  0  0  0  0  0  0  0  0
   11.6698  -17.6661   24.8211 C   0  0  0  0  0  0  0  0  0  0  0  0
   10.6191  -18.0187   24.2027 O   0  0  0  0  0  0  0  0  0  0  0  0
   10.2068  -16.6067   28.1755 C   0  0  0  0  0  0  0  0  0  0  0  0
   10.3981  -17.6985   29.0285 O   0  0  0  0  0  0  0  0  0  0  0  0
   12.8428  -17.7257   24.0616 O   0  0  0  0  0  0  0  0  0  0  0  0
    9.9345  -15.5227   28.7452 O   0  0  0  0  0  0  0  0  0  0  0  0
  2  3  1  0
  2  1  1  6
  4  3  1  0
  5  6  2  0
  5  2  1  0
  7  5  1  0
  8 11  1  0
  8  7  1  0
  9 10  1  0
  8  9  1  1
 11 13  1  0
 12 11  2  0
 13 14  1  0
 14 18  1  0
 14 15  1  1
 16 15  1  0
 17 16  2  0
 18 21  2  0
 18 19  1  0
 20 16  1  0
M  END
$$$$
