CCD.pdb
     RDKit          3D

 21 20  0  0  1  0  0  0  0  0999 V2000
    8.8228  -17.2956   15.8159 N   0  0  0  0  0  0  0  0  0  0  0  0
    8.0661  -17.2922   17.0494 C   0  0  1  0  0  0  0  0  0  0  0  0
    8.0038  -18.7297   17.5267 C   0  0  0  0  0  0  0  0  0  0  0  0
    7.1667  -18.7836   19.1294 S   0  0  0  0  0  0  0  0  0  0  0  0
    8.7672  -16.5244   18.1200 C   0  0  0  0  0  0  0  0  0  0  0  0
   10.0110  -16.6277   18.2533 O   0  0  0  0  0  0  0  0  0  0  0  0
    8.0782  -15.6618   19.0169 N   0  0  0  0  0  0  0  0  0  0  0  0
    8.7174  -14.9427   20.0809 C   0  0  1  0  0  0  0  0  0  0  0  0
    7.6975  -13.9922   20.7017 C   0  0  0  0  0  0  0  0  0  0  0  0
    7.2427  -12.6972   19.4882 S   0  0  0  0  0  0  0  0  0  0  0  0
    9.2774  -15.8582   21.1237 C   0  0  0  0  0  0  0  0  0  0  0  0
    8.7082  -16.9423   21.4196 O   0  0  0  0  0  0  0  0  0  0  0  0
   10.4749  -15.5352   21.8185 N   0  0  0  0  0  0  0  0  0  0  0  0
   11.0380  -16.3364   22.8697 C   0  0  1  0  0  0  0  0  0  0  0  0
   12.5358  -16.1931   22.9630 C   0  0  0  0  0  0  0  0  0  0  0  0
   13.2747  -16.9795   21.9502 C   0  0  0  0  0  0  0  0  0  0  0  0
   12.8229  -18.0545   21.4493 O   0  0  0  0  0  0  0  0  0  0  0  0
   10.3375  -16.1555   24.1595 C   0  0  0  0  0  0  0  0  0  0  0  0
    9.3467  -15.1849   24.3401 O   0  0  0  0  0  0  0  0  0  0  0  0
   14.5300  -16.5930   21.4696 O   0  0  0  0  0  0  0  0  0  0  0  0
   10.5882  -16.8593   25.1672 O   0  0  0  0  0  0  0  0  0  0  0  0
  2  3  1  0
  2  1  1  6
  4  3  1  0
  5  6  2  0
  5  2  1  0
  7  5  1  0
  8 11  1  0
  8  7  1  0
  9 10  1  0
  8  9  1  1
 11 13  1  0
 12 11  2  0
 13 14  1  0
 14 18  1  0
 14 15  1  1
 16 15  1  0
 17 16  2  0
 18 21  2  0
 18 19  1  0
 20 16  1  0
M  END
$$$$
