CCD.pdb
     RDKit          3D

 21 20  0  0  1  0  0  0  0  0999 V2000
    7.8693  -16.8643   15.1373 N   0  0  0  0  0  0  0  0  0  0  0  0
    7.4839  -16.5910   16.5051 C   0  0  1  0  0  0  0  0  0  0  0  0
    7.3007  -17.9344   17.1833 C   0  0  0  0  0  0  0  0  0  0  0  0
    6.8313  -17.6650   18.9094 S   0  0  0  0  0  0  0  0  0  0  0  0
    8.5697  -15.8891   17.2504 C   0  0  0  0  0  0  0  0  0  0  0  0
    9.7717  -16.1392   16.9896 O   0  0  0  0  0  0  0  0  0  0  0  0
    8.3020  -14.9287   18.2649 N   0  0  0  0  0  0  0  0  0  0  0  0
    9.3229  -14.2248   18.9859 C   0  0  1  0  0  0  0  0  0  0  0  0
    8.7388  -12.9065   19.4858 C   0  0  0  0  0  0  0  0  0  0  0  0
    7.2801  -13.2395   20.5430 S   0  0  0  0  0  0  0  0  0  0  0  0
    9.8577  -15.0246   20.1320 C   0  0  0  0  0  0  0  0  0  0  0  0
    9.1128  -15.3956   21.0777 O   0  0  0  0  0  0  0  0  0  0  0  0
   11.2289  -15.3948   20.1932 N   0  0  0  0  0  0  0  0  0  0  0  0
   11.8235  -16.1064   21.2905 C   0  0  1  0  0  0  0  0  0  0  0  0
   12.3699  -17.4492   20.8770 C   0  0  0  0  0  0  0  0  0  0  0  0
   11.3665  -18.3314   20.2407 C   0  0  0  0  0  0  0  0  0  0  0  0
   10.3185  -18.7255   20.8384 O   0  0  0  0  0  0  0  0  0  0  0  0
   12.7832  -15.2778   22.0517 C   0  0  0  0  0  0  0  0  0  0  0  0
   13.3239  -15.6946   23.2725 O   0  0  0  0  0  0  0  0  0  0  0  0
   11.5011  -18.7968   18.9287 O   0  0  0  0  0  0  0  0  0  0  0  0
   13.1699  -14.1540   21.6501 O   0  0  0  0  0  0  0  0  0  0  0  0
  2  3  1  0
  2  1  1  6
  4  3  1  0
  5  6  2  0
  5  2  1  0
  7  5  1  0
  8 11  1  0
  8  7  1  0
  9 10  1  0
  8  9  1  1
 11 13  1  0
 12 11  2  0
 13 14  1  0
 14 18  1  0
 14 15  1  6
 16 15  1  0
 17 16  2  0
 18 21  2  0
 18 19  1  0
 20 16  1  0
M  END
$$$$
