CCD.pdb
     RDKit          3D

 21 20  0  0  1  0  0  0  0  0999 V2000
    9.2013  -17.6794   15.9676 N   0  0  0  0  0  0  0  0  0  0  0  0
    8.1931  -17.2375   16.9069 C   0  0  1  0  0  0  0  0  0  0  0  0
    7.8763  -18.4235   17.7966 C   0  0  0  0  0  0  0  0  0  0  0  0
    9.3791  -18.9234   18.6709 S   0  0  0  0  0  0  0  0  0  0  0  0
    8.7138  -16.1659   17.8056 C   0  0  0  0  0  0  0  0  0  0  0  0
    9.9242  -15.8376   17.7536 O   0  0  0  0  0  0  0  0  0  0  0  0
    7.8859  -15.4832   18.7392 N   0  0  0  0  0  0  0  0  0  0  0  0
    8.3371  -14.3961   19.5593 C   0  0  1  0  0  0  0  0  0  0  0  0
    7.1155  -13.6339   20.0649 C   0  0  0  0  0  0  0  0  0  0  0  0
    7.6551  -12.1450   20.9861 S   0  0  0  0  0  0  0  0  0  0  0  0
    9.1703  -14.8657   20.7101 C   0  0  0  0  0  0  0  0  0  0  0  0
    9.6832  -14.0525   21.5240 O   0  0  0  0  0  0  0  0  0  0  0  0
    9.4125  -16.2499   20.9252 N   0  0  0  0  0  0  0  0  0  0  0  0
   10.2296  -16.7698   21.9865 C   0  0  1  0  0  0  0  0  0  0  0  0
    9.9738  -18.2327   22.2456 C   0  0  0  0  0  0  0  0  0  0  0  0
    8.6173  -18.5188   22.7632 C   0  0  0  0  0  0  0  0  0  0  0  0
    8.0401  -17.7863   23.6240 O   0  0  0  0  0  0  0  0  0  0  0  0
   11.6597  -16.4319   21.8202 C   0  0  0  0  0  0  0  0  0  0  0  0
   12.6319  -16.8285   22.7443 O   0  0  0  0  0  0  0  0  0  0  0  0
    7.8697  -19.6222   22.3390 O   0  0  0  0  0  0  0  0  0  0  0  0
   12.0868  -15.7711   20.8432 O   0  0  0  0  0  0  0  0  0  0  0  0
  2  3  1  0
  2  1  1  6
  4  3  1  0
  5  6  2  0
  5  2  1  0
  7  5  1  0
  8 11  1  0
  8  7  1  0
  9 10  1  0
  8  9  1  1
 11 13  1  0
 12 11  2  0
 13 14  1  0
 14 18  1  0
 14 15  1  6
 16 15  1  0
 17 16  2  0
 18 21  2  0
 18 19  1  0
 20 16  1  0
M  END
$$$$
