CCD.pdb
     RDKit          3D

 21 20  0  0  1  0  0  0  0  0999 V2000
    8.8363  -15.8817   18.0566 N   0  0  0  0  0  0  0  0  0  0  0  0
    7.9129  -16.1439   19.1395 C   0  0  1  0  0  0  0  0  0  0  0  0
    7.6575  -17.6382   19.1426 C   0  0  0  0  0  0  0  0  0  0  0  0
    6.5823  -18.0502   20.5377 S   0  0  0  0  0  0  0  0  0  0  0  0
    8.5164  -15.8184   20.4650 C   0  0  0  0  0  0  0  0  0  0  0  0
    9.7295  -16.0608   20.6778 O   0  0  0  0  0  0  0  0  0  0  0  0
    7.7663  -15.2337   21.5226 N   0  0  0  0  0  0  0  0  0  0  0  0
    8.3150  -14.9189   22.8101 C   0  0  1  0  0  0  0  0  0  0  0  0
    7.2668  -14.1456   23.6053 C   0  0  0  0  0  0  0  0  0  0  0  0
    7.8774  -13.8505   25.3072 S   0  0  0  0  0  0  0  0  0  0  0  0
    8.7363  -16.1442   23.5586 C   0  0  0  0  0  0  0  0  0  0  0  0
    7.9706  -17.1376   23.6757 O   0  0  0  0  0  0  0  0  0  0  0  0
   10.0192  -16.2298   24.1651 N   0  0  0  0  0  0  0  0  0  0  0  0
   10.4943  -17.3772   24.8877 C   0  0  1  0  0  0  0  0  0  0  0  0
   11.8291  -17.8629   24.3828 C   0  0  0  0  0  0  0  0  0  0  0  0
   11.7315  -18.9838   23.4216 C   0  0  0  0  0  0  0  0  0  0  0  0
   10.6250  -19.5019   23.0781 O   0  0  0  0  0  0  0  0  0  0  0  0
   10.4411  -17.1876   26.3534 C   0  0  0  0  0  0  0  0  0  0  0  0
   10.2361  -18.2530   27.2361 O   0  0  0  0  0  0  0  0  0  0  0  0
   12.8567  -19.5559   22.8194 O   0  0  0  0  0  0  0  0  0  0  0  0
   10.5763  -16.0631   26.8928 O   0  0  0  0  0  0  0  0  0  0  0  0
  2  3  1  0
  2  1  1  6
  4  3  1  0
  5  6  2  0
  5  2  1  0
  7  5  1  0
  8 11  1  0
  8  7  1  0
  9 10  1  0
  8  9  1  1
 11 13  1  0
 12 11  2  0
 13 14  1  0
 14 18  1  0
 14 15  1  6
 16 15  1  0
 17 16  2  0
 18 21  2  0
 18 19  1  0
 20 16  1  0
M  END
$$$$
