CCD.pdb
     RDKit          3D

 21 20  0  0  1  0  0  0  0  0999 V2000
    8.9877  -14.7622   19.8943 N   0  0  0  0  0  0  0  0  0  0  0  0
    7.9205  -14.7536   20.8716 C   0  0  1  0  0  0  0  0  0  0  0  0
    7.2558  -16.1144   20.8032 C   0  0  0  0  0  0  0  0  0  0  0  0
    6.9465  -16.5337   19.0709 S   0  0  0  0  0  0  0  0  0  0  0  0
    8.4502  -14.6144   22.2599 C   0  0  0  0  0  0  0  0  0  0  0  0
    9.5911  -15.0547   22.5425 O   0  0  0  0  0  0  0  0  0  0  0  0
    7.7075  -13.9930   23.3017 N   0  0  0  0  0  0  0  0  0  0  0  0
    8.1133  -13.9895   24.6776 C   0  0  1  0  0  0  0  0  0  0  0  0
    7.1404  -13.1167   25.4654 C   0  0  0  0  0  0  0  0  0  0  0  0
    7.6459  -13.0632   27.2255 S   0  0  0  0  0  0  0  0  0  0  0  0
    8.1595  -15.3691   25.2555 C   0  0  0  0  0  0  0  0  0  0  0  0
    7.4089  -16.2856   24.8273 O   0  0  0  0  0  0  0  0  0  0  0  0
    9.0550  -15.6940   26.3107 N   0  0  0  0  0  0  0  0  0  0  0  0
    9.6533  -16.9878   26.4906 C   0  0  1  0  0  0  0  0  0  0  0  0
   10.3562  -17.4743   25.2489 C   0  0  0  0  0  0  0  0  0  0  0  0
   11.0224  -18.7852   25.4152 C   0  0  0  0  0  0  0  0  0  0  0  0
   12.1023  -18.9311   26.0659 O   0  0  0  0  0  0  0  0  0  0  0  0
   10.4779  -17.0671   27.7157 C   0  0  0  0  0  0  0  0  0  0  0  0
   10.5591  -18.2319   28.4857 O   0  0  0  0  0  0  0  0  0  0  0  0
   10.5078  -19.9636   24.8650 O   0  0  0  0  0  0  0  0  0  0  0  0
   11.1528  -16.0975   28.1377 O   0  0  0  0  0  0  0  0  0  0  0  0
  2  3  1  0
  2  1  1  6
  4  3  1  0
  5  6  2  0
  5  2  1  0
  7  5  1  0
  8 11  1  0
  8  7  1  0
  9 10  1  0
  8  9  1  1
 11 13  1  0
 12 11  2  0
 13 14  1  0
 14 18  1  0
 14 15  1  6
 16 15  1  0
 17 16  2  0
 18 21  2  0
 18 19  1  0
 20 16  1  0
M  END
$$$$
