CCD.pdb
     RDKit          3D

 21 20  0  0  1  0  0  0  0  0999 V2000
    6.5955  -14.8034   20.5256 N   0  0  0  0  0  0  0  0  0  0  0  0
    7.9205  -14.2232   20.5683 C   0  0  1  0  0  0  0  0  0  0  0  0
    7.8226  -12.8633   19.9054 C   0  0  0  0  0  0  0  0  0  0  0  0
    7.2604  -13.0776   18.1994 S   0  0  0  0  0  0  0  0  0  0  0  0
    8.3650  -13.9753   21.9712 C   0  0  0  0  0  0  0  0  0  0  0  0
    9.5334  -13.5760   22.1972 O   0  0  0  0  0  0  0  0  0  0  0  0
    7.5092  -14.1741   23.0898 N   0  0  0  0  0  0  0  0  0  0  0  0
    7.9358  -14.0442   24.4532 C   0  0  1  0  0  0  0  0  0  0  0  0
    6.7876  -13.4491   25.2634 C   0  0  0  0  0  0  0  0  0  0  0  0
    7.2754  -13.3239   27.0249 S   0  0  0  0  0  0  0  0  0  0  0  0
    8.3611  -15.3541   25.0384 C   0  0  0  0  0  0  0  0  0  0  0  0
    7.6028  -16.3598   25.0169 O   0  0  0  0  0  0  0  0  0  0  0  0
    9.6396  -15.5094   25.6404 N   0  0  0  0  0  0  0  0  0  0  0  0
   10.1397  -16.7514   26.1615 C   0  0  1  0  0  0  0  0  0  0  0  0
   11.2948  -17.2897   25.3562 C   0  0  0  0  0  0  0  0  0  0  0  0
   11.7940  -18.5994   25.8308 C   0  0  0  0  0  0  0  0  0  0  0  0
   11.1801  -19.2986   26.6939 O   0  0  0  0  0  0  0  0  0  0  0  0
   10.3990  -16.6938   27.6163 C   0  0  0  0  0  0  0  0  0  0  0  0
   10.2642  -17.8143   28.4426 O   0  0  0  0  0  0  0  0  0  0  0  0
   12.9840  -19.1641   25.3603 O   0  0  0  0  0  0  0  0  0  0  0  0
   10.7546  -15.6398   28.1963 O   0  0  0  0  0  0  0  0  0  0  0  0
  2  3  1  0
  2  1  1  1
  4  3  1  0
  5  6  2  0
  5  2  1  0
  7  5  1  0
  8 11  1  0
  8  7  1  0
  9 10  1  0
  8  9  1  1
 11 13  1  0
 12 11  2  0
 13 14  1  0
 14 18  1  0
 14 15  1  6
 16 15  1  0
 17 16  2  0
 18 21  2  0
 18 19  1  0
 20 16  1  0
M  END
$$$$
