CCD.pdb
     RDKit          3D

 21 20  0  0  1  0  0  0  0  0999 V2000
    7.6160  -13.1838   19.5671 N   0  0  0  0  0  0  0  0  0  0  0  0
    6.9136  -13.5843   20.7672 C   0  0  1  0  0  0  0  0  0  0  0  0
    6.3158  -14.9492   20.4876 C   0  0  0  0  0  0  0  0  0  0  0  0
    7.6523  -16.1217   20.1541 S   0  0  0  0  0  0  0  0  0  0  0  0
    7.8494  -13.7632   21.9159 C   0  0  0  0  0  0  0  0  0  0  0  0
    9.0893  -13.7607   21.7204 O   0  0  0  0  0  0  0  0  0  0  0  0
    7.3937  -13.9405   23.2516 N   0  0  0  0  0  0  0  0  0  0  0  0
    8.2660  -14.0239   24.3873 C   0  0  1  0  0  0  0  0  0  0  0  0
    7.5576  -13.4004   25.5866 C   0  0  0  0  0  0  0  0  0  0  0  0
    5.8856  -14.1283   25.7624 S   0  0  0  0  0  0  0  0  0  0  0  0
    8.6616  -15.4345   24.6923 C   0  0  0  0  0  0  0  0  0  0  0  0
    7.8355  -16.3814   24.6048 O   0  0  0  0  0  0  0  0  0  0  0  0
    9.9874  -15.7555   25.0924 N   0  0  0  0  0  0  0  0  0  0  0  0
   10.4081  -17.0633   25.5129 C   0  0  1  0  0  0  0  0  0  0  0  0
   11.8440  -17.3491   25.1535 C   0  0  0  0  0  0  0  0  0  0  0  0
   12.1671  -17.0871   23.7333 C   0  0  0  0  0  0  0  0  0  0  0  0
   11.4571  -17.5199   22.7745 O   0  0  0  0  0  0  0  0  0  0  0  0
   10.0788  -17.3384   26.9282 C   0  0  0  0  0  0  0  0  0  0  0  0
    9.5415  -16.3610   27.7722 O   0  0  0  0  0  0  0  0  0  0  0  0
   13.2833  -16.3401   23.3433 O   0  0  0  0  0  0  0  0  0  0  0  0
   10.2605  -18.4616   27.4564 O   0  0  0  0  0  0  0  0  0  0  0  0
  2  3  1  0
  2  1  1  6
  4  3  1  0
  5  6  2  0
  5  2  1  0
  7  5  1  0
  8 11  1  0
  8  7  1  0
  9 10  1  0
  8  9  1  1
 11 13  1  0
 12 11  2  0
 13 14  1  0
 14 18  1  0
 14 15  1  1
 16 15  1  0
 17 16  2  0
 18 21  2  0
 18 19  1  0
 20 16  1  0
M  END
$$$$
