NMT.pdb
     RDKit          3D

 24 23  0  0  1  0  0  0  0  0999 V2000
   13.6417  -15.9738   23.0742 N   0  0  0  0  0  0  0  0  0  0  0  0
   13.5792  -15.7276   24.4740 C   0  0  0  0  0  0  0  0  0  0  0  0
   14.6229  -15.4042   25.0659 O   0  0  0  0  0  0  0  0  0  0  0  0
   12.2729  -15.8706   25.1482 C   0  0  0  0  0  0  0  0  0  0  0  0
   11.2177  -16.3770   24.1998 C   0  0  2  0  0  0  0  0  0  0  0  0
   11.1211  -15.5045   23.0419 N   0  0  0  0  0  0  0  0  0  0  0  0
    9.9273  -16.3929   24.9604 C   0  0  0  0  0  0  0  0  0  0  0  0
    9.8739  -17.1503   25.9616 O   0  0  0  0  0  0  0  0  0  0  0  0
    8.0246  -11.3515   28.3341 C   0  0  0  0  0  0  0  0  0  0  0  0
    7.0031  -12.1004   27.0464 S   0  0  0  0  0  0  0  0  0  0  0  0
    7.7152  -13.7264   26.6491 C   0  0  0  0  0  0  0  0  0  0  0  0
    7.0219  -14.3886   25.5128 C   0  0  0  0  0  0  0  0  0  0  0  0
    7.5539  -15.7636   25.2209 C   0  0  2  0  0  0  0  0  0  0  0  0
    8.8510  -15.5948   24.5550 N   0  0  0  0  0  0  0  0  0  0  0  0
    6.6636  -16.4825   24.2906 C   0  0  0  0  0  0  0  0  0  0  0  0
    5.4605  -16.7763   24.5647 O   0  0  0  0  0  0  0  0  0  0  0  0
    6.0112  -15.4832   20.7488 C   0  0  0  0  0  0  0  0  0  0  0  0
    6.4384  -16.9348   20.7272 C   0  0  1  0  0  0  0  0  0  0  0  0
    7.7890  -17.0430   20.3560 O   0  0  0  0  0  0  0  0  0  0  0  0
    6.2727  -17.5617   22.0957 C   0  0  2  0  0  0  0  0  0  0  0  0
    7.1516  -16.8774   23.0188 N   0  0  0  0  0  0  0  0  0  0  0  0
    6.5976  -18.9903   22.0495 C   0  0  0  0  0  0  0  0  0  0  0  0
    5.8709  -19.8200   21.2057 O   0  0  0  0  0  0  0  0  0  0  0  0
    7.5205  -19.5105   22.7508 O   0  0  0  0  0  0  0  0  0  0  0  0
  1  2  1  0
  2  3  2  0
  4  2  1  0
  5  7  1  0
  5  4  1  0
  5  6  1  6
  7  8  2  0
  9 10  1  0
 10 11  1  0
 11 12  1  0
 13 12  1  6
 14  7  1  0
 14 13  1  0
 15 21  1  0
 15 13  1  0
 16 15  2  0
 18 17  1  1
 18 19  1  0
 20 22  1  0
 20 18  1  0
 20 21  1  1
 22 23  1  0
 24 22  2  0
M  END
$$$$
