NMT.pdb
     RDKit          3D

 24 23  0  0  1  0  0  0  0  0999 V2000
   11.0506  -16.3648   17.3238 N   0  0  0  0  0  0  0  0  0  0  0  0
    9.8486  -16.2334   18.0735 C   0  0  0  0  0  0  0  0  0  0  0  0
    8.7808  -16.5912   17.5482 O   0  0  0  0  0  0  0  0  0  0  0  0
    9.9371  -15.6772   19.4387 C   0  0  0  0  0  0  0  0  0  0  0  0
    9.3321  -16.6122   20.4532 C   0  0  2  0  0  0  0  0  0  0  0  0
    7.9040  -16.7487   20.2231 N   0  0  0  0  0  0  0  0  0  0  0  0
    9.5969  -16.0147   21.8010 C   0  0  0  0  0  0  0  0  0  0  0  0
   10.8023  -15.8670   22.1238 O   0  0  0  0  0  0  0  0  0  0  0  0
    7.2495  -11.3522   27.4199 C   0  0  0  0  0  0  0  0  0  0  0  0
    6.5792  -12.4629   26.1630 S   0  0  0  0  0  0  0  0  0  0  0  0
    7.8700  -13.6760   25.7493 C   0  0  0  0  0  0  0  0  0  0  0  0
    7.7388  -14.1954   24.3625 C   0  0  0  0  0  0  0  0  0  0  0  0
    8.8393  -15.1469   23.9851 C   0  0  2  0  0  0  0  0  0  0  0  0
    8.5372  -15.6482   22.6390 N   0  0  0  0  0  0  0  0  0  0  0  0
    8.8659  -16.3048   24.8981 C   0  0  0  0  0  0  0  0  0  0  0  0
    7.8557  -17.0382   25.1225 O   0  0  0  0  0  0  0  0  0  0  0  0
   10.4178  -19.2766   24.4293 C   0  0  0  0  0  0  0  0  0  0  0  0
   11.0023  -18.8414   25.7556 C   0  0  1  0  0  0  0  0  0  0  0  0
   12.2725  -18.2711   25.5683 O   0  0  0  0  0  0  0  0  0  0  0  0
   10.1140  -17.8097   26.4188 C   0  0  2  0  0  0  0  0  0  0  0  0
   10.0685  -16.6373   25.5724 N   0  0  0  0  0  0  0  0  0  0  0  0
   10.6337  -17.4595   27.7439 C   0  0  0  0  0  0  0  0  0  0  0  0
   11.1280  -16.1795   27.9576 O   0  0  0  0  0  0  0  0  0  0  0  0
   10.6537  -18.2785   28.7152 O   0  0  0  0  0  0  0  0  0  0  0  0
  1  2  1  0
  2  3  2  0
  4  2  1  0
  5  7  1  0
  5  4  1  0
  5  6  1  6
  7  8  2  0
  9 10  1  0
 10 11  1  0
 11 12  1  0
 13 12  1  1
 14  7  1  0
 14 13  1  0
 15 21  1  0
 15 13  1  0
 16 15  2  0
 18 17  1  6
 18 19  1  0
 20 22  1  0
 20 18  1  0
 20 21  1  6
 22 23  1  0
 24 22  2  0
M  END
$$$$
