NMT.pdb
     RDKit          3D

 24 23  0  0  1  0  0  0  0  0999 V2000
    7.9854  -17.0358   17.8588 N   0  0  0  0  0  0  0  0  0  0  0  0
    8.3520  -15.6687   18.0022 C   0  0  0  0  0  0  0  0  0  0  0  0
    8.4386  -14.9681   16.9795 O   0  0  0  0  0  0  0  0  0  0  0  0
    8.6100  -15.1564   19.3631 C   0  0  0  0  0  0  0  0  0  0  0  0
    8.4154  -16.2310   20.4008 C   0  0  2  0  0  0  0  0  0  0  0  0
    7.0004  -16.5102   20.5770 N   0  0  0  0  0  0  0  0  0  0  0  0
    9.0162  -15.7154   21.6724 C   0  0  0  0  0  0  0  0  0  0  0  0
   10.2709  -15.6723   21.7247 O   0  0  0  0  0  0  0  0  0  0  0  0
    5.7090  -12.4794   26.2883 C   0  0  0  0  0  0  0  0  0  0  0  0
    7.4345  -12.2002   26.7437 S   0  0  0  0  0  0  0  0  0  0  0  0
    8.4217  -13.5522   26.0323 C   0  0  0  0  0  0  0  0  0  0  0  0
    7.8986  -14.0073   24.7171 C   0  0  0  0  0  0  0  0  0  0  0  0
    8.8226  -14.9633   24.0163 C   0  0  2  0  0  0  0  0  0  0  0  0
    8.1986  -15.3085   22.7334 N   0  0  0  0  0  0  0  0  0  0  0  0
    8.9718  -16.2095   24.7908 C   0  0  0  0  0  0  0  0  0  0  0  0
    8.0501  -17.0734   24.9046 O   0  0  0  0  0  0  0  0  0  0  0  0
   12.0550  -19.6746   26.0680 C   0  0  0  0  0  0  0  0  0  0  0  0
   11.6989  -18.3531   25.4223 C   0  0  1  0  0  0  0  0  0  0  0  0
   11.4951  -18.5206   24.0425 O   0  0  0  0  0  0  0  0  0  0  0  0
   10.4280  -17.7896   26.0228 C   0  0  2  0  0  0  0  0  0  0  0  0
   10.1969  -16.4805   25.4521 N   0  0  0  0  0  0  0  0  0  0  0  0
   10.5465  -17.6942   27.4807 C   0  0  0  0  0  0  0  0  0  0  0  0
   10.8254  -16.4612   28.0553 O   0  0  0  0  0  0  0  0  0  0  0  0
   10.4049  -18.6949   28.2509 O   0  0  0  0  0  0  0  0  0  0  0  0
  1  2  1  0
  2  3  2  0
  4  2  1  0
  5  7  1  0
  5  4  1  0
  5  6  1  1
  7  8  2  0
  9 10  1  0
 10 11  1  0
 11 12  1  0
 13 12  1  1
 14  7  1  0
 14 13  1  0
 15 21  1  0
 15 13  1  0
 16 15  2  0
 18 17  1  1
 18 19  1  0
 20 22  1  0
 20 18  1  0
 20 21  1  6
 22 23  1  0
 24 22  2  0
M  END
$$$$
