NMT.pdb
     RDKit          3D

 24 23  0  0  1  0  0  0  0  0999 V2000
   10.2980  -17.9868   17.9069 N   0  0  0  0  0  0  0  0  0  0  0  0
   10.1001  -16.6344   18.3015 C   0  0  0  0  0  0  0  0  0  0  0  0
    9.6563  -15.8316   17.4631 O   0  0  0  0  0  0  0  0  0  0  0  0
   10.4341  -16.2585   19.6901 C   0  0  0  0  0  0  0  0  0  0  0  0
    9.3518  -16.6807   20.6491 C   0  0  2  0  0  0  0  0  0  0  0  0
    8.0468  -16.3053   20.1321 N   0  0  0  0  0  0  0  0  0  0  0  0
    9.6290  -15.9829   21.9453 C   0  0  0  0  0  0  0  0  0  0  0  0
   10.8255  -15.9626   22.3285 O   0  0  0  0  0  0  0  0  0  0  0  0
    5.3381  -12.5466   26.6562 C   0  0  0  0  0  0  0  0  0  0  0  0
    6.8223  -11.8253   25.9218 S   0  0  0  0  0  0  0  0  0  0  0  0
    8.0089  -13.1731   25.6318 C   0  0  0  0  0  0  0  0  0  0  0  0
    7.8733  -13.7684   24.2762 C   0  0  0  0  0  0  0  0  0  0  0  0
    8.8762  -14.8555   24.0090 C   0  0  2  0  0  0  0  0  0  0  0  0
    8.5896  -15.3917   22.6731 N   0  0  0  0  0  0  0  0  0  0  0  0
    8.7226  -15.9582   24.9761 C   0  0  0  0  0  0  0  0  0  0  0  0
    7.6729  -16.6645   25.0663 O   0  0  0  0  0  0  0  0  0  0  0  0
   11.4655  -18.2813   24.7663 C   0  0  0  0  0  0  0  0  0  0  0  0
   10.1550  -18.6024   25.4514 C   0  0  1  0  0  0  0  0  0  0  0  0
   10.2254  -19.8559   26.0818 O   0  0  0  0  0  0  0  0  0  0  0  0
    9.8321  -17.5619   26.5032 C   0  0  2  0  0  0  0  0  0  0  0  0
    9.7865  -16.2659   25.8620 N   0  0  0  0  0  0  0  0  0  0  0  0
   10.8458  -17.5693   27.5619 C   0  0  0  0  0  0  0  0  0  0  0  0
   10.9379  -18.6731   28.3995 O   0  0  0  0  0  0  0  0  0  0  0  0
   11.6517  -16.6054   27.7517 O   0  0  0  0  0  0  0  0  0  0  0  0
  1  2  1  0
  2  3  2  0
  4  2  1  0
  5  7  1  0
  5  4  1  0
  5  6  1  6
  7  8  2  0
  9 10  1  0
 10 11  1  0
 11 12  1  0
 13 12  1  1
 14  7  1  0
 14 13  1  0
 15 21  1  0
 15 13  1  0
 16 15  2  0
 18 17  1  1
 18 19  1  0
 20 22  1  0
 20 18  1  0
 20 21  1  6
 22 23  1  0
 24 22  2  0
M  END
$$$$
