NMT.pdb
     RDKit          3D

 24 23  0  0  1  0  0  0  0  0999 V2000
    8.0923  -15.7156   18.7503 N   0  0  0  0  0  0  0  0  0  0  0  0
    7.9786  -14.3575   19.1584 C   0  0  0  0  0  0  0  0  0  0  0  0
    7.7424  -13.4968   18.2936 O   0  0  0  0  0  0  0  0  0  0  0  0
    8.1480  -14.0450   20.5919 C   0  0  0  0  0  0  0  0  0  0  0  0
    8.3802  -15.2933   21.4026 C   0  0  2  0  0  0  0  0  0  0  0  0
    7.1867  -16.1218   21.4040 N   0  0  0  0  0  0  0  0  0  0  0  0
    8.7175  -14.8474   22.7923 C   0  0  0  0  0  0  0  0  0  0  0  0
    9.8402  -14.3063   22.9526 O   0  0  0  0  0  0  0  0  0  0  0  0
    6.7981  -11.5092   27.9200 C   0  0  0  0  0  0  0  0  0  0  0  0
    6.0297  -11.4222   26.2876 S   0  0  0  0  0  0  0  0  0  0  0  0
    6.9061  -12.5868   25.1993 C   0  0  0  0  0  0  0  0  0  0  0  0
    7.1099  -13.9155   25.8345 C   0  0  0  0  0  0  0  0  0  0  0  0
    8.2276  -14.7009   25.2080 C   0  0  2  0  0  0  0  0  0  0  0  0
    7.8099  -15.0359   23.8413 N   0  0  0  0  0  0  0  0  0  0  0  0
    8.4471  -15.9670   25.9317 C   0  0  0  0  0  0  0  0  0  0  0  0
    8.6116  -16.0320   27.1877 O   0  0  0  0  0  0  0  0  0  0  0  0
    6.5148  -19.3285   25.3350 C   0  0  0  0  0  0  0  0  0  0  0  0
    8.0086  -19.5422   25.2218 C   0  0  1  0  0  0  0  0  0  0  0  0
    8.3993  -19.5694   23.8726 O   0  0  0  0  0  0  0  0  0  0  0  0
    8.7628  -18.4236   25.9098 C   0  0  2  0  0  0  0  0  0  0  0  0
    8.4808  -17.1884   25.2115 N   0  0  0  0  0  0  0  0  0  0  0  0
   10.2034  -18.6940   25.9018 C   0  0  0  0  0  0  0  0  0  0  0  0
   10.6938  -19.7580   26.6473 O   0  0  0  0  0  0  0  0  0  0  0  0
   11.0325  -17.9951   25.2395 O   0  0  0  0  0  0  0  0  0  0  0  0
  1  2  1  0
  2  3  2  0
  4  2  1  0
  5  7  1  0
  5  4  1  0
  5  6  1  1
  7  8  2  0
  9 10  1  0
 10 11  1  0
 11 12  1  0
 13 12  1  1
 14  7  1  0
 14 13  1  0
 15 21  1  0
 15 13  1  0
 16 15  2  0
 18 17  1  6
 18 19  1  0
 20 22  1  0
 20 18  1  0
 20 21  1  6
 22 23  1  0
 24 22  2  0
M  END
$$$$
