NMT.pdb
     RDKit          3D

 24 23  0  0  1  0  0  0  0  0999 V2000
    8.1605  -17.5490   17.9890 N   0  0  0  0  0  0  0  0  0  0  0  0
    8.9512  -16.3674   18.0417 C   0  0  0  0  0  0  0  0  0  0  0  0
    9.3437  -15.8690   16.9732 O   0  0  0  0  0  0  0  0  0  0  0  0
    9.2626  -15.7971   19.3680 C   0  0  0  0  0  0  0  0  0  0  0  0
    8.7095  -16.6526   20.4777 C   0  0  2  0  0  0  0  0  0  0  0  0
    7.2663  -16.7665   20.3538 N   0  0  0  0  0  0  0  0  0  0  0  0
    9.0795  -15.9808   21.7644 C   0  0  0  0  0  0  0  0  0  0  0  0
   10.3068  -15.8861   22.0168 O   0  0  0  0  0  0  0  0  0  0  0  0
    7.0033  -11.3893   27.6996 C   0  0  0  0  0  0  0  0  0  0  0  0
    6.4014  -12.2351   26.2214 S   0  0  0  0  0  0  0  0  0  0  0  0
    7.6459  -13.4734   25.7453 C   0  0  0  0  0  0  0  0  0  0  0  0
    7.4028  -14.0317   24.3890 C   0  0  0  0  0  0  0  0  0  0  0  0
    8.4847  -14.9727   23.9385 C   0  0  2  0  0  0  0  0  0  0  0  0
    8.0887  -15.4921   22.6240 N   0  0  0  0  0  0  0  0  0  0  0  0
    8.5961  -16.1204   24.8579 C   0  0  0  0  0  0  0  0  0  0  0  0
    7.6265  -16.8914   25.1303 O   0  0  0  0  0  0  0  0  0  0  0  0
   10.4346  -19.0101   24.3751 C   0  0  0  0  0  0  0  0  0  0  0  0
   10.9515  -18.5139   25.7080 C   0  0  1  0  0  0  0  0  0  0  0  0
   12.1717  -17.8383   25.5401 O   0  0  0  0  0  0  0  0  0  0  0  0
    9.9643  -17.5562   26.3417 C   0  0  2  0  0  0  0  0  0  0  0  0
    9.8384  -16.3987   25.4831 N   0  0  0  0  0  0  0  0  0  0  0  0
   10.4226  -17.1526   27.6742 C   0  0  0  0  0  0  0  0  0  0  0  0
   10.8434  -15.8446   27.8749 O   0  0  0  0  0  0  0  0  0  0  0  0
   10.4535  -17.9495   28.6634 O   0  0  0  0  0  0  0  0  0  0  0  0
  1  2  1  0
  2  3  2  0
  4  2  1  0
  5  7  1  0
  5  4  1  0
  5  6  1  6
  7  8  2  0
  9 10  1  0
 10 11  1  0
 11 12  1  0
 13 12  1  1
 14  7  1  0
 14 13  1  0
 15 21  1  0
 15 13  1  0
 16 15  2  0
 18 17  1  6
 18 19  1  0
 20 22  1  0
 20 18  1  0
 20 21  1  6
 22 23  1  0
 24 22  2  0
M  END
$$$$
