NMT.pdb
     RDKit          3D

 24 23  0  0  1  0  0  0  0  0999 V2000
    8.6116  -17.6290   18.0104 N   0  0  0  0  0  0  0  0  0  0  0  0
    9.1835  -16.3282   18.0786 C   0  0  0  0  0  0  0  0  0  0  0  0
    9.6502  -15.8310   17.0397 O   0  0  0  0  0  0  0  0  0  0  0  0
    9.1909  -15.6387   19.3847 C   0  0  0  0  0  0  0  0  0  0  0  0
    8.6495  -16.5243   20.4765 C   0  0  2  0  0  0  0  0  0  0  0  0
    7.2056  -16.6384   20.3624 N   0  0  0  0  0  0  0  0  0  0  0  0
    9.0295  -15.8854   21.7770 C   0  0  0  0  0  0  0  0  0  0  0  0
   10.2555  -15.6896   21.9705 O   0  0  0  0  0  0  0  0  0  0  0  0
    7.2185  -11.0271   26.7813 C   0  0  0  0  0  0  0  0  0  0  0  0
    6.3833  -12.6185   26.6015 S   0  0  0  0  0  0  0  0  0  0  0  0
    7.6101  -13.8254   26.0121 C   0  0  0  0  0  0  0  0  0  0  0  0
    7.3717  -14.2369   24.6034 C   0  0  0  0  0  0  0  0  0  0  0  0
    8.4686  -15.1031   24.0509 C   0  0  2  0  0  0  0  0  0  0  0  0
    8.0487  -15.5339   22.7120 N   0  0  0  0  0  0  0  0  0  0  0  0
    8.6452  -16.3132   24.8752 C   0  0  0  0  0  0  0  0  0  0  0  0
    7.6992  -17.1114   25.1523 O   0  0  0  0  0  0  0  0  0  0  0  0
   10.5491  -19.1801   24.1715 C   0  0  0  0  0  0  0  0  0  0  0  0
   11.0941  -18.7188   25.5057 C   0  0  1  0  0  0  0  0  0  0  0  0
   12.2905  -18.0046   25.3264 O   0  0  0  0  0  0  0  0  0  0  0  0
   10.1024  -17.8118   26.2039 C   0  0  2  0  0  0  0  0  0  0  0  0
    9.9267  -16.6237   25.3975 N   0  0  0  0  0  0  0  0  0  0  0  0
   10.5870  -17.4519   27.5396 C   0  0  0  0  0  0  0  0  0  0  0  0
   10.5674  -18.4098   28.5448 O   0  0  0  0  0  0  0  0  0  0  0  0
   11.0281  -16.2948   27.8245 O   0  0  0  0  0  0  0  0  0  0  0  0
  1  2  1  0
  2  3  2  0
  4  2  1  0
  5  7  1  0
  5  4  1  0
  5  6  1  6
  7  8  2  0
  9 10  1  0
 10 11  1  0
 11 12  1  0
 13 12  1  1
 14  7  1  0
 14 13  1  0
 15 21  1  0
 15 13  1  0
 16 15  2  0
 18 17  1  6
 18 19  1  0
 20 22  1  0
 20 18  1  0
 20 21  1  6
 22 23  1  0
 24 22  2  0
M  END
$$$$
