NMT.pdb
     RDKit          3D

 24 23  0  0  1  0  0  0  0  0999 V2000
    7.3362  -12.2957   18.2529 N   0  0  0  0  0  0  0  0  0  0  0  0
    8.0553  -13.4365   18.7063 C   0  0  0  0  0  0  0  0  0  0  0  0
    8.2273  -14.3806   17.9167 O   0  0  0  0  0  0  0  0  0  0  0  0
    8.5590  -13.4353   20.0946 C   0  0  0  0  0  0  0  0  0  0  0  0
    8.6544  -14.8340   20.6457 C   0  0  2  0  0  0  0  0  0  0  0  0
    7.3771  -15.5143   20.5162 N   0  0  0  0  0  0  0  0  0  0  0  0
    9.0415  -14.7034   22.0869 C   0  0  0  0  0  0  0  0  0  0  0  0
   10.1444  -14.1504   22.3252 O   0  0  0  0  0  0  0  0  0  0  0  0
    6.2618  -10.5672   26.5120 C   0  0  0  0  0  0  0  0  0  0  0  0
    6.4939  -12.3454   26.7282 S   0  0  0  0  0  0  0  0  0  0  0  0
    7.0847  -13.0240   25.1473 C   0  0  0  0  0  0  0  0  0  0  0  0
    7.3055  -14.4931   25.2060 C   0  0  0  0  0  0  0  0  0  0  0  0
    8.5579  -14.9276   24.4978 C   0  0  2  0  0  0  0  0  0  0  0  0
    8.1989  -15.1814   23.0974 N   0  0  0  0  0  0  0  0  0  0  0  0
    9.0683  -16.1899   25.0646 C   0  0  0  0  0  0  0  0  0  0  0  0
    9.1981  -16.3920   26.3100 O   0  0  0  0  0  0  0  0  0  0  0  0
    8.4997  -19.8111   23.1835 C   0  0  0  0  0  0  0  0  0  0  0  0
    9.9121  -19.5380   23.6530 C   0  0  1  0  0  0  0  0  0  0  0  0
   10.6985  -19.0614   22.5909 O   0  0  0  0  0  0  0  0  0  0  0  0
    9.9187  -18.4950   24.7509 C   0  0  2  0  0  0  0  0  0  0  0  0
    9.4404  -17.2475   24.1960 N   0  0  0  0  0  0  0  0  0  0  0  0
   11.2708  -18.3253   25.2908 C   0  0  0  0  0  0  0  0  0  0  0  0
   11.8524  -19.3722   25.9938 O   0  0  0  0  0  0  0  0  0  0  0  0
   11.9424  -17.2566   25.1450 O   0  0  0  0  0  0  0  0  0  0  0  0
  1  2  1  0
  2  3  2  0
  4  2  1  0
  5  7  1  0
  5  4  1  0
  5  6  1  1
  7  8  2  0
  9 10  1  0
 10 11  1  0
 11 12  1  0
 13 12  1  1
 14  7  1  0
 14 13  1  0
 15 21  1  0
 15 13  1  0
 16 15  2  0
 18 17  1  6
 18 19  1  0
 20 22  1  0
 20 18  1  0
 20 21  1  6
 22 23  1  0
 24 22  2  0
M  END
$$$$
