NMT.pdb
     RDKit          3D

 24 23  0  0  1  0  0  0  0  0999 V2000
    8.3136  -16.9901   18.1589 N   0  0  0  0  0  0  0  0  0  0  0  0
    8.4742  -15.6175   18.4968 C   0  0  0  0  0  0  0  0  0  0  0  0
    8.4827  -14.7788   17.5799 O   0  0  0  0  0  0  0  0  0  0  0  0
    8.6223  -15.2646   19.9232 C   0  0  0  0  0  0  0  0  0  0  0  0
    8.7361  -16.4951   20.7847 C   0  0  2  0  0  0  0  0  0  0  0  0
    7.4697  -17.2067   20.8157 N   0  0  0  0  0  0  0  0  0  0  0  0
    9.1145  -16.0268   22.1563 C   0  0  0  0  0  0  0  0  0  0  0  0
   10.3350  -15.8069   22.3589 O   0  0  0  0  0  0  0  0  0  0  0  0
    6.8952  -10.9626   26.8304 C   0  0  0  0  0  0  0  0  0  0  0  0
    6.5916  -12.7411   26.7449 S   0  0  0  0  0  0  0  0  0  0  0  0
    7.5625  -13.4035   25.3566 C   0  0  0  0  0  0  0  0  0  0  0  0
    7.3960  -14.8721   25.1956 C   0  0  0  0  0  0  0  0  0  0  0  0
    8.5639  -15.5241   24.5103 C   0  0  2  0  0  0  0  0  0  0  0  0
    8.1383  -15.8512   23.1441 N   0  0  0  0  0  0  0  0  0  0  0  0
    8.9255  -16.7869   25.1806 C   0  0  0  0  0  0  0  0  0  0  0  0
    8.1694  -17.8050   25.2029 O   0  0  0  0  0  0  0  0  0  0  0  0
   12.2794  -19.8916   26.6400 C   0  0  0  0  0  0  0  0  0  0  0  0
   11.8118  -18.6514   25.9098 C   0  0  1  0  0  0  0  0  0  0  0  0
   11.5750  -18.9397   24.5554 O   0  0  0  0  0  0  0  0  0  0  0  0
   10.5252  -18.1283   26.5135 C   0  0  2  0  0  0  0  0  0  0  0  0
   10.1757  -16.8958   25.8415 N   0  0  0  0  0  0  0  0  0  0  0  0
   10.6900  -17.8939   27.9510 C   0  0  0  0  0  0  0  0  0  0  0  0
   10.5763  -18.9658   28.8264 O   0  0  0  0  0  0  0  0  0  0  0  0
   10.9341  -16.7463   28.4390 O   0  0  0  0  0  0  0  0  0  0  0  0
  1  2  1  0
  2  3  2  0
  4  2  1  0
  5  7  1  0
  5  4  1  0
  5  6  1  1
  7  8  2  0
  9 10  1  0
 10 11  1  0
 11 12  1  0
 13 12  1  1
 14  7  1  0
 14 13  1  0
 15 21  1  0
 15 13  1  0
 16 15  2  0
 18 17  1  1
 18 19  1  0
 20 22  1  0
 20 18  1  0
 20 21  1  6
 22 23  1  0
 24 22  2  0
M  END
$$$$
