NMT.pdb
     RDKit          3D

 24 23  0  0  1  0  0  0  0  0999 V2000
    8.9283  -12.7585   17.4167 N   0  0  0  0  0  0  0  0  0  0  0  0
    7.9295  -13.4249   18.1799 C   0  0  0  0  0  0  0  0  0  0  0  0
    7.0535  -14.0676   17.5767 O   0  0  0  0  0  0  0  0  0  0  0  0
    7.9896  -13.3155   19.6515 C   0  0  0  0  0  0  0  0  0  0  0  0
    8.3822  -14.6250   20.2843 C   0  0  2  0  0  0  0  0  0  0  0  0
    7.2988  -15.5860   20.1658 N   0  0  0  0  0  0  0  0  0  0  0  0
    8.6789  -14.3357   21.7237 C   0  0  0  0  0  0  0  0  0  0  0  0
    9.6715  -13.6012   21.9568 O   0  0  0  0  0  0  0  0  0  0  0  0
    6.7694  -10.9020   26.6341 C   0  0  0  0  0  0  0  0  0  0  0  0
    6.2305  -12.5791   27.0336 S   0  0  0  0  0  0  0  0  0  0  0  0
    7.4105  -13.7365   26.2742 C   0  0  0  0  0  0  0  0  0  0  0  0
    7.1908  -13.8952   24.8124 C   0  0  0  0  0  0  0  0  0  0  0  0
    8.2805  -14.6790   24.1362 C   0  0  2  0  0  0  0  0  0  0  0  0
    7.8753  -14.8689   22.7383 N   0  0  0  0  0  0  0  0  0  0  0  0
    8.4206  -16.0141   24.7467 C   0  0  0  0  0  0  0  0  0  0  0  0
    7.4526  -16.8222   24.8842 O   0  0  0  0  0  0  0  0  0  0  0  0
   10.2906  -18.7143   23.4981 C   0  0  0  0  0  0  0  0  0  0  0  0
   10.8310  -18.5306   24.8996 C   0  0  1  0  0  0  0  0  0  0  0  0
   12.0333  -17.8044   24.8704 O   0  0  0  0  0  0  0  0  0  0  0  0
    9.8415  -17.7722   25.7593 C   0  0  2  0  0  0  0  0  0  0  0  0
    9.6903  -16.4414   25.2124 N   0  0  0  0  0  0  0  0  0  0  0  0
   10.3134  -17.7011   27.1452 C   0  0  0  0  0  0  0  0  0  0  0  0
   10.3139  -18.8552   27.9174 O   0  0  0  0  0  0  0  0  0  0  0  0
   10.7257  -16.6242   27.6788 O   0  0  0  0  0  0  0  0  0  0  0  0
  1  2  1  0
  2  3  2  0
  4  2  1  0
  5  7  1  0
  5  4  1  0
  5  6  1  1
  7  8  2  0
  9 10  1  0
 10 11  1  0
 11 12  1  0
 13 12  1  1
 14  7  1  0
 14 13  1  0
 15 21  1  0
 15 13  1  0
 16 15  2  0
 18 17  1  6
 18 19  1  0
 20 22  1  0
 20 18  1  0
 20 21  1  6
 22 23  1  0
 24 22  2  0
M  END
$$$$
