NMT.pdb
     RDKit          3D

 24 23  0  0  1  0  0  0  0  0999 V2000
    7.2298  -17.7470   17.8733 N   0  0  0  0  0  0  0  0  0  0  0  0
    8.0668  -16.5996   17.7902 C   0  0  0  0  0  0  0  0  0  0  0  0
    8.3892  -16.1817   16.6651 O   0  0  0  0  0  0  0  0  0  0  0  0
    8.5075  -15.9669   19.0498 C   0  0  0  0  0  0  0  0  0  0  0  0
    8.0169  -16.7331   20.2505 C   0  0  2  0  0  0  0  0  0  0  0  0
    6.5642  -16.7497   20.2779 N   0  0  0  0  0  0  0  0  0  0  0  0
    8.5617  -16.0351   21.4587 C   0  0  0  0  0  0  0  0  0  0  0  0
    9.8126  -15.9506   21.5432 O   0  0  0  0  0  0  0  0  0  0  0  0
    7.0064  -11.7566   27.8501 C   0  0  0  0  0  0  0  0  0  0  0  0
    6.3470  -12.4344   26.3112 S   0  0  0  0  0  0  0  0  0  0  0  0
    7.6158  -13.5244   25.5965 C   0  0  0  0  0  0  0  0  0  0  0  0
    7.2308  -14.0437   24.2576 C   0  0  0  0  0  0  0  0  0  0  0  0
    8.2734  -14.9425   23.6541 C   0  0  2  0  0  0  0  0  0  0  0  0
    7.6992  -15.5123   22.4294 N   0  0  0  0  0  0  0  0  0  0  0  0
    8.5895  -16.0606   24.5623 C   0  0  0  0  0  0  0  0  0  0  0  0
    7.7502  -16.9558   24.8833 O   0  0  0  0  0  0  0  0  0  0  0  0
   12.0506  -19.1038   25.9667 C   0  0  0  0  0  0  0  0  0  0  0  0
   11.5255  -17.9202   25.1836 C   0  0  1  0  0  0  0  0  0  0  0  0
   11.2113  -18.3025   23.8687 O   0  0  0  0  0  0  0  0  0  0  0  0
   10.2715  -17.3666   25.8273 C   0  0  2  0  0  0  0  0  0  0  0  0
    9.8897  -16.1642   25.1194 N   0  0  0  0  0  0  0  0  0  0  0  0
   10.5087  -17.0689   27.2428 C   0  0  0  0  0  0  0  0  0  0  0  0
   10.1440  -18.0071   28.1994 O   0  0  0  0  0  0  0  0  0  0  0  0
   11.0368  -15.9837   27.6400 O   0  0  0  0  0  0  0  0  0  0  0  0
  1  2  1  0
  2  3  2  0
  4  2  1  0
  5  7  1  0
  5  4  1  0
  5  6  1  1
  7  8  2  0
  9 10  1  0
 10 11  1  0
 11 12  1  0
 13 12  1  1
 14  7  1  0
 14 13  1  0
 15 21  1  0
 15 13  1  0
 16 15  2  0
 18 17  1  1
 18 19  1  0
 20 22  1  0
 20 18  1  0
 20 21  1  6
 22 23  1  0
 24 22  2  0
M  END
$$$$
