NMT.pdb
     RDKit          3D

 24 23  0  0  1  0  0  0  0  0999 V2000
    9.4640  -18.2859   18.1430 N   0  0  0  0  0  0  0  0  0  0  0  0
    8.4817  -17.8590   19.0795 C   0  0  0  0  0  0  0  0  0  0  0  0
    7.2840  -17.9310   18.7561 O   0  0  0  0  0  0  0  0  0  0  0  0
    8.9417  -17.3523   20.3882 C   0  0  0  0  0  0  0  0  0  0  0  0
    8.5226  -15.9211   20.6015 C   0  0  2  0  0  0  0  0  0  0  0  0
    9.2442  -15.0449   19.6945 N   0  0  0  0  0  0  0  0  0  0  0  0
    8.8413  -15.5870   22.0265 C   0  0  0  0  0  0  0  0  0  0  0  0
   10.0507  -15.3828   22.2995 O   0  0  0  0  0  0  0  0  0  0  0  0
    7.2242  -10.8016   26.5108 C   0  0  0  0  0  0  0  0  0  0  0  0
    7.4367  -12.5902   26.6455 S   0  0  0  0  0  0  0  0  0  0  0  0
    6.8147  -13.3400   25.1094 C   0  0  0  0  0  0  0  0  0  0  0  0
    6.9533  -14.8203   25.1024 C   0  0  0  0  0  0  0  0  0  0  0  0
    8.1901  -15.2910   24.3898 C   0  0  2  0  0  0  0  0  0  0  0  0
    7.8244  -15.5125   22.9857 N   0  0  0  0  0  0  0  0  0  0  0  0
    8.6528  -16.5787   24.9400 C   0  0  0  0  0  0  0  0  0  0  0  0
    7.9198  -17.6117   25.0059 O   0  0  0  0  0  0  0  0  0  0  0  0
   12.7518  -17.2418   25.1863 C   0  0  0  0  0  0  0  0  0  0  0  0
   11.7026  -18.3230   25.0439 C   0  0  1  0  0  0  0  0  0  0  0  0
   12.2037  -19.5552   25.4958 O   0  0  0  0  0  0  0  0  0  0  0  0
   10.4723  -17.9853   25.8599 C   0  0  2  0  0  0  0  0  0  0  0  0
    9.9796  -16.6957   25.4273 N   0  0  0  0  0  0  0  0  0  0  0  0
   10.7964  -17.9517   27.2889 C   0  0  0  0  0  0  0  0  0  0  0  0
   11.1774  -19.1277   27.9217 O   0  0  0  0  0  0  0  0  0  0  0  0
   10.7451  -16.8886   27.9829 O   0  0  0  0  0  0  0  0  0  0  0  0
  1  2  1  0
  2  3  2  0
  4  2  1  0
  5  7  1  0
  5  4  1  0
  5  6  1  6
  7  8  2  0
  9 10  1  0
 10 11  1  0
 11 12  1  0
 13 12  1  1
 14  7  1  0
 14 13  1  0
 15 21  1  0
 15 13  1  0
 16 15  2  0
 18 17  1  1
 18 19  1  0
 20 22  1  0
 20 18  1  0
 20 21  1  6
 22 23  1  0
 24 22  2  0
M  END
$$$$
