NMT.pdb
     RDKit          3D

 24 23  0  0  1  0  0  0  0  0999 V2000
    7.7341  -17.2691   17.6876 N   0  0  0  0  0  0  0  0  0  0  0  0
    8.3995  -16.0118   17.7093 C   0  0  0  0  0  0  0  0  0  0  0  0
    8.6099  -15.4341   16.6293 O   0  0  0  0  0  0  0  0  0  0  0  0
    8.8045  -15.4612   19.0185 C   0  0  0  0  0  0  0  0  0  0  0  0
    8.4954  -16.4211   20.1376 C   0  0  2  0  0  0  0  0  0  0  0  0
    7.0714  -16.7067   20.1769 N   0  0  0  0  0  0  0  0  0  0  0  0
    8.9385  -15.7599   21.4065 C   0  0  0  0  0  0  0  0  0  0  0  0
   10.1662  -15.5145   21.5140 O   0  0  0  0  0  0  0  0  0  0  0  0
    7.1801  -11.5655   27.6942 C   0  0  0  0  0  0  0  0  0  0  0  0
    6.4748  -12.4323   26.2752 S   0  0  0  0  0  0  0  0  0  0  0  0
    7.7427  -13.5672   25.6323 C   0  0  0  0  0  0  0  0  0  0  0  0
    7.4396  -14.0369   24.2546 C   0  0  0  0  0  0  0  0  0  0  0  0
    8.5033  -14.9389   23.6943 C   0  0  2  0  0  0  0  0  0  0  0  0
    8.0114  -15.4420   22.4061 N   0  0  0  0  0  0  0  0  0  0  0  0
    8.7206  -16.1016   24.5750 C   0  0  0  0  0  0  0  0  0  0  0  0
    7.8402  -16.9899   24.7860 O   0  0  0  0  0  0  0  0  0  0  0  0
   11.9928  -19.2957   26.0706 C   0  0  0  0  0  0  0  0  0  0  0  0
   11.5452  -18.0670   25.3092 C   0  0  1  0  0  0  0  0  0  0  0  0
   11.2975  -18.3869   23.9638 O   0  0  0  0  0  0  0  0  0  0  0  0
   10.2711  -17.5039   25.9034 C   0  0  2  0  0  0  0  0  0  0  0  0
    9.9677  -16.2589   25.2321 N   0  0  0  0  0  0  0  0  0  0  0  0
   10.4309  -17.2789   27.3429 C   0  0  0  0  0  0  0  0  0  0  0  0
   11.0923  -16.1379   27.7777 O   0  0  0  0  0  0  0  0  0  0  0  0
    9.9892  -18.0851   28.2201 O   0  0  0  0  0  0  0  0  0  0  0  0
  1  2  1  0
  2  3  2  0
  4  2  1  0
  5  7  1  0
  5  4  1  0
  5  6  1  1
  7  8  2  0
  9 10  1  0
 10 11  1  0
 11 12  1  0
 13 12  1  1
 14  7  1  0
 14 13  1  0
 15 21  1  0
 15 13  1  0
 16 15  2  0
 18 17  1  1
 18 19  1  0
 20 22  1  0
 20 18  1  0
 20 21  1  6
 22 23  1  0
 24 22  2  0
M  END
$$$$
