NMT.pdb
     RDKit          3D

 24 23  0  0  1  0  0  0  0  0999 V2000
    6.4962  -19.6384   19.6681 N   0  0  0  0  0  0  0  0  0  0  0  0
    7.8569  -19.2238   19.6905 C   0  0  0  0  0  0  0  0  0  0  0  0
    8.5612  -19.4486   18.6916 O   0  0  0  0  0  0  0  0  0  0  0  0
    8.3584  -18.5471   20.9036 C   0  0  0  0  0  0  0  0  0  0  0  0
    8.3706  -17.0504   20.7327 C   0  0  2  0  0  0  0  0  0  0  0  0
    9.3334  -16.6680   19.7139 N   0  0  0  0  0  0  0  0  0  0  0  0
    8.7453  -16.4685   22.0610 C   0  0  0  0  0  0  0  0  0  0  0  0
    9.9738  -16.3432   22.2939 O   0  0  0  0  0  0  0  0  0  0  0  0
    7.4657  -11.6442   27.7104 C   0  0  0  0  0  0  0  0  0  0  0  0
    7.0492  -12.2680   26.0672 S   0  0  0  0  0  0  0  0  0  0  0  0
    7.2529  -14.0754   26.0919 C   0  0  0  0  0  0  0  0  0  0  0  0
    6.9979  -14.6946   24.7646 C   0  0  0  0  0  0  0  0  0  0  0  0
    8.1670  -15.4882   24.2523 C   0  0  2  0  0  0  0  0  0  0  0  0
    7.7574  -16.0914   22.9784 N   0  0  0  0  0  0  0  0  0  0  0  0
    8.5013  -16.5852   25.1796 C   0  0  0  0  0  0  0  0  0  0  0  0
    7.6630  -17.4601   25.5547 O   0  0  0  0  0  0  0  0  0  0  0  0
   11.2084  -18.9721   24.5505 C   0  0  0  0  0  0  0  0  0  0  0  0
   11.4474  -18.4366   25.9455 C   0  0  1  0  0  0  0  0  0  0  0  0
   12.4394  -17.4420   25.9259 O   0  0  0  0  0  0  0  0  0  0  0  0
   10.1802  -17.8291   26.5097 C   0  0  2  0  0  0  0  0  0  0  0  0
    9.8190  -16.6906   25.6934 N   0  0  0  0  0  0  0  0  0  0  0  0
   10.3845  -17.4126   27.9001 C   0  0  0  0  0  0  0  0  0  0  0  0
   10.5839  -18.3837   28.8725 O   0  0  0  0  0  0  0  0  0  0  0  0
   10.3880  -16.1945   28.2616 O   0  0  0  0  0  0  0  0  0  0  0  0
  1  2  1  0
  2  3  2  0
  4  2  1  0
  5  7  1  0
  5  4  1  0
  5  6  1  6
  7  8  2  0
  9 10  1  0
 10 11  1  0
 11 12  1  0
 13 12  1  1
 14  7  1  0
 14 13  1  0
 15 21  1  0
 15 13  1  0
 16 15  2  0
 18 17  1  6
 18 19  1  0
 20 22  1  0
 20 18  1  0
 20 21  1  6
 22 23  1  0
 24 22  2  0
M  END
$$$$
