GGA.pdb
     RDKit          3D

 14 13  0  0  1  0  0  0  0  0999 V2000
   -1.8870  -26.5692   30.4337 N   0  0  0  0  0  0  0  0  0  0  0  0
   -1.9349  -25.6354   29.3260 C   0  0  0  0  0  0  0  0  0  0  0  0
   -3.3539  -25.2873   29.0728 C   0  0  0  0  0  0  0  0  0  0  0  0
   -3.6620  -24.2860   28.4045 O   0  0  0  0  0  0  0  0  0  0  0  0
   -4.4105  -26.0862   29.5854 N   0  0  0  0  0  0  0  0  0  0  0  0
   -5.7955  -25.7705   29.3415 C   0  0  0  0  0  0  0  0  0  0  0  0
   -6.1885  -24.5515   30.1066 C   0  0  0  0  0  0  0  0  0  0  0  0
   -6.0156  -24.5141   31.3524 O   0  0  0  0  0  0  0  0  0  0  0  0
   -7.1728  -21.0736   29.3669 C   0  0  0  0  0  0  0  0  0  0  0  0
   -7.1762  -22.2946   30.2919 C   0  0  2  0  0  0  0  0  0  0  0  0
   -6.7557  -23.4123   29.5016 N   0  0  0  0  0  0  0  0  0  0  0  0
   -8.5410  -22.4220   30.8219 C   0  0  0  0  0  0  0  0  0  0  0  0
   -8.9924  -21.5220   31.5614 O   0  0  0  0  0  0  0  0  0  0  0  0
   -9.3492  -23.5021   30.5343 O   0  0  0  0  0  0  0  0  0  0  0  0
  2  1  1  0
  3  2  1  0
  4  3  2  0
  5  3  1  0
  6  5  1  0
  7  8  2  0
  7  6  1  0
 10  9  1  6
 10 11  1  0
 11  7  1  0
 12 10  1  0
 13 12  2  0
 14 12  1  0
M  END
$$$$
