GGA.pdb
     RDKit          3D

 14 13  0  0  1  0  0  0  0  0999 V2000
    8.2414  -13.3786   17.1273 N   0  0  0  0  0  0  0  0  0  0  0  0
    8.2280  -12.9344   18.5070 C   0  0  0  0  0  0  0  0  0  0  0  0
    7.7368  -14.0512   19.3498 C   0  0  0  0  0  0  0  0  0  0  0  0
    7.4724  -15.1613   18.8579 O   0  0  0  0  0  0  0  0  0  0  0  0
    7.5511  -13.8910   20.7488 N   0  0  0  0  0  0  0  0  0  0  0  0
    7.1144  -14.9758   21.5915 C   0  0  0  0  0  0  0  0  0  0  0  0
    8.2762  -15.8285   21.9772 C   0  0  0  0  0  0  0  0  0  0  0  0
    8.0843  -16.8845   22.6339 O   0  0  0  0  0  0  0  0  0  0  0  0
   11.8701  -16.0109   21.0966 C   0  0  0  0  0  0  0  0  0  0  0  0
   10.6794  -16.4018   21.9775 C   0  0  2  0  0  0  0  0  0  0  0  0
    9.6078  -15.5133   21.6410 N   0  0  0  0  0  0  0  0  0  0  0  0
   11.1280  -16.2896   23.3724 C   0  0  0  0  0  0  0  0  0  0  0  0
   10.6223  -15.4131   24.1050 O   0  0  0  0  0  0  0  0  0  0  0  0
   12.0912  -17.1181   23.9094 O   0  0  0  0  0  0  0  0  0  0  0  0
  2  1  1  0
  3  2  1  0
  4  3  2  0
  5  3  1  0
  6  5  1  0
  7  8  2  0
  7  6  1  0
 10  9  1  6
 10 11  1  0
 11  7  1  0
 12 10  1  0
 13 12  2  0
 14 12  1  0
M  END
$$$$
