GGA.pdb
     RDKit          3D

 14 13  0  0  1  0  0  0  0  0999 V2000
    8.3754  -12.6164   18.7463 N   0  0  0  0  0  0  0  0  0  0  0  0
    8.6149  -13.8593   19.4527 C   0  0  0  0  0  0  0  0  0  0  0  0
    7.9706  -13.7681   20.7851 C   0  0  0  0  0  0  0  0  0  0  0  0
    7.6062  -12.6751   21.2508 O   0  0  0  0  0  0  0  0  0  0  0  0
    7.7474  -14.9268   21.5756 N   0  0  0  0  0  0  0  0  0  0  0  0
    7.0122  -14.8774   22.8144 C   0  0  0  0  0  0  0  0  0  0  0  0
    7.8964  -14.4060   23.9198 C   0  0  0  0  0  0  0  0  0  0  0  0
    9.1360  -14.3073   23.7282 O   0  0  0  0  0  0  0  0  0  0  0  0
    7.4699  -12.6701   27.1294 C   0  0  0  0  0  0  0  0  0  0  0  0
    8.3010  -13.5692   26.2088 C   0  0  2  0  0  0  0  0  0  0  0  0
    7.4131  -14.0565   25.1964 N   0  0  0  0  0  0  0  0  0  0  0  0
    8.8759  -14.6258   27.0531 C   0  0  0  0  0  0  0  0  0  0  0  0
    8.4312  -15.7894   26.9579 O   0  0  0  0  0  0  0  0  0  0  0  0
    9.8934  -14.3836   27.9523 O   0  0  0  0  0  0  0  0  0  0  0  0
  2  1  1  0
  3  2  1  0
  4  3  2  0
  5  3  1  0
  6  5  1  0
  7  8  2  0
  7  6  1  0
 10  9  1  1
 10 11  1  0
 11  7  1  0
 12 10  1  0
 13 12  2  0
 14 12  1  0
M  END
$$$$
