GGA.pdb
     RDKit          3D

 14 13  0  0  1  0  0  0  0  0999 V2000
    8.1760  -13.9591   15.6624 N   0  0  0  0  0  0  0  0  0  0  0  0
    7.8557  -14.5991   16.9230 C   0  0  0  0  0  0  0  0  0  0  0  0
    8.2288  -13.6753   18.0212 C   0  0  0  0  0  0  0  0  0  0  0  0
    9.4187  -13.4761   18.3190 O   0  0  0  0  0  0  0  0  0  0  0  0
    7.2392  -12.9857   18.7711 N   0  0  0  0  0  0  0  0  0  0  0  0
    7.5820  -12.0749   19.8343 C   0  0  0  0  0  0  0  0  0  0  0  0
    8.0052  -12.8342   21.0468 C   0  0  0  0  0  0  0  0  0  0  0  0
    8.3730  -12.2113   22.0762 O   0  0  0  0  0  0  0  0  0  0  0  0
    7.5979  -16.2181   22.3654 C   0  0  0  0  0  0  0  0  0  0  0  0
    8.4099  -14.9205   22.3067 C   0  0  2  0  0  0  0  0  0  0  0  0
    8.0174  -14.2419   21.1082 N   0  0  0  0  0  0  0  0  0  0  0  0
    9.8279  -15.3052   22.3341 C   0  0  0  0  0  0  0  0  0  0  0  0
   10.4627  -15.3642   21.2597 O   0  0  0  0  0  0  0  0  0  0  0  0
   10.4911  -15.6059   23.5055 O   0  0  0  0  0  0  0  0  0  0  0  0
  2  1  1  0
  3  2  1  0
  4  3  2  0
  5  3  1  0
  6  5  1  0
  7  8  2  0
  7  6  1  0
 10  9  1  6
 10 11  1  0
 11  7  1  0
 12 10  1  0
 13 12  2  0
 14 12  1  0
M  END
$$$$
