GGA.pdb
     RDKit          3D

 14 13  0  0  1  0  0  0  0  0999 V2000
    8.4866  -17.2430   18.7864 N   0  0  0  0  0  0  0  0  0  0  0  0
    9.0555  -16.5281   19.9118 C   0  0  0  0  0  0  0  0  0  0  0  0
    7.9460  -15.9180   20.6835 C   0  0  0  0  0  0  0  0  0  0  0  0
    6.7798  -15.9310   20.2546 O   0  0  0  0  0  0  0  0  0  0  0  0
    8.1775  -15.2973   21.9399 N   0  0  0  0  0  0  0  0  0  0  0  0
    7.0986  -14.8147   22.7647 C   0  0  0  0  0  0  0  0  0  0  0  0
    7.6413  -14.0922   23.9520 C   0  0  0  0  0  0  0  0  0  0  0  0
    8.8803  -14.0944   24.1710 O   0  0  0  0  0  0  0  0  0  0  0  0
    6.2824  -11.8368   26.5816 C   0  0  0  0  0  0  0  0  0  0  0  0
    7.4061  -12.6717   25.9596 C   0  0  2  0  0  0  0  0  0  0  0  0
    6.8281  -13.3907   24.8643 N   0  0  0  0  0  0  0  0  0  0  0  0
    7.9330  -13.5357   27.0252 C   0  0  0  0  0  0  0  0  0  0  0  0
    8.5871  -13.0214   27.9571 O   0  0  0  0  0  0  0  0  0  0  0  0
    7.7336  -14.9004   27.0384 O   0  0  0  0  0  0  0  0  0  0  0  0
  2  1  1  0
  3  2  1  0
  4  3  2  0
  5  3  1  0
  6  5  1  0
  7  8  2  0
  7  6  1  0
 10  9  1  1
 10 11  1  0
 11  7  1  0
 12 10  1  0
 13 12  2  0
 14 12  1  0
M  END
$$$$
