GGA.pdb
     RDKit          3D

 14 13  0  0  1  0  0  0  0  0999 V2000
    8.3581  -13.1869   17.5668 N   0  0  0  0  0  0  0  0  0  0  0  0
    7.3728  -13.8224   18.4191 C   0  0  0  0  0  0  0  0  0  0  0  0
    7.9175  -13.8785   19.7971 C   0  0  0  0  0  0  0  0  0  0  0  0
    9.0671  -13.4815   20.0519 O   0  0  0  0  0  0  0  0  0  0  0  0
    7.1441  -14.3878   20.8741 N   0  0  0  0  0  0  0  0  0  0  0  0
    7.5786  -14.2828   22.2443 C   0  0  0  0  0  0  0  0  0  0  0  0
    8.4136  -15.4632   22.6120 C   0  0  0  0  0  0  0  0  0  0  0  0
    8.0054  -16.2672   23.4896 O   0  0  0  0  0  0  0  0  0  0  0  0
   11.5164  -17.0578   21.3263 C   0  0  0  0  0  0  0  0  0  0  0  0
   10.3870  -16.9268   22.3529 C   0  0  2  0  0  0  0  0  0  0  0  0
    9.6625  -15.7372   22.0200 N   0  0  0  0  0  0  0  0  0  0  0  0
   11.0206  -16.8849   23.6782 C   0  0  0  0  0  0  0  0  0  0  0  0
   11.4733  -17.9407   24.1692 O   0  0  0  0  0  0  0  0  0  0  0  0
   11.1365  -15.7197   24.4071 O   0  0  0  0  0  0  0  0  0  0  0  0
  2  1  1  0
  3  2  1  0
  4  3  2  0
  5  3  1  0
  6  5  1  0
  7  8  2  0
  7  6  1  0
 10  9  1  6
 10 11  1  0
 11  7  1  0
 12 10  1  0
 13 12  2  0
 14 12  1  0
M  END
$$$$
