GGA.pdb
     RDKit          3D

 14 13  0  0  1  0  0  0  0  0999 V2000
    6.1982  -19.5925   23.9882 N   0  0  0  0  0  0  0  0  0  0  0  0
    5.6029  -18.2855   23.7916 C   0  0  0  0  0  0  0  0  0  0  0  0
    6.6326  -17.3881   23.2146 C   0  0  0  0  0  0  0  0  0  0  0  0
    7.8227  -17.7378   23.1392 O   0  0  0  0  0  0  0  0  0  0  0  0
    6.2947  -16.0972   22.7279 N   0  0  0  0  0  0  0  0  0  0  0  0
    7.2918  -15.1808   22.2346 C   0  0  0  0  0  0  0  0  0  0  0  0
    7.8411  -14.3645   23.3561 C   0  0  0  0  0  0  0  0  0  0  0  0
    8.9738  -13.8287   23.2414 O   0  0  0  0  0  0  0  0  0  0  0  0
    6.6468  -12.6889   26.3723 C   0  0  0  0  0  0  0  0  0  0  0  0
    7.7642  -13.4464   25.6485 C   0  0  2  0  0  0  0  0  0  0  0  0
    7.1494  -14.1532   24.5654 N   0  0  0  0  0  0  0  0  0  0  0  0
    8.3986  -14.3212   26.6444 C   0  0  0  0  0  0  0  0  0  0  0  0
    9.0164  -13.8062   27.6003 O   0  0  0  0  0  0  0  0  0  0  0  0
    8.3393  -15.6970   26.5664 O   0  0  0  0  0  0  0  0  0  0  0  0
  2  1  1  0
  3  2  1  0
  4  3  2  0
  5  3  1  0
  6  5  1  0
  7  8  2  0
  7  6  1  0
 10  9  1  1
 10 11  1  0
 11  7  1  0
 12 10  1  0
 13 12  2  0
 14 12  1  0
M  END
$$$$
