GGA.pdb
     RDKit          3D

 14 13  0  0  1  0  0  0  0  0999 V2000
    5.6914  -18.5570   21.0310 N   0  0  0  0  0  0  0  0  0  0  0  0
    5.7875  -17.7085   22.2023 C   0  0  0  0  0  0  0  0  0  0  0  0
    6.4594  -16.4468   21.8082 C   0  0  0  0  0  0  0  0  0  0  0  0
    7.1458  -16.3783   20.7746 O   0  0  0  0  0  0  0  0  0  0  0  0
    6.3420  -15.2724   22.5984 N   0  0  0  0  0  0  0  0  0  0  0  0
    7.2497  -14.1617   22.4572 C   0  0  0  0  0  0  0  0  0  0  0  0
    8.0412  -13.9808   23.7089 C   0  0  0  0  0  0  0  0  0  0  0  0
    9.2349  -14.3758   23.7548 O   0  0  0  0  0  0  0  0  0  0  0  0
    7.5636  -12.2424   26.9604 C   0  0  0  0  0  0  0  0  0  0  0  0
    8.3402  -13.1740   26.0248 C   0  0  2  0  0  0  0  0  0  0  0  0
    7.5177  -13.3791   24.8705 N   0  0  0  0  0  0  0  0  0  0  0  0
    8.6172  -14.4024   26.7824 C   0  0  0  0  0  0  0  0  0  0  0  0
    9.4025  -14.3540   27.7529 O   0  0  0  0  0  0  0  0  0  0  0  0
    8.0418  -15.6147   26.4636 O   0  0  0  0  0  0  0  0  0  0  0  0
  2  1  1  0
  3  2  1  0
  4  3  2  0
  5  3  1  0
  6  5  1  0
  7  8  2  0
  7  6  1  0
 10  9  1  1
 10 11  1  0
 11  7  1  0
 12 10  1  0
 13 12  2  0
 14 12  1  0
M  END
$$$$
