GGA.pdb
     RDKit          3D

 14 13  0  0  1  0  0  0  0  0999 V2000
    7.1586  -20.5224   25.5526 N   0  0  0  0  0  0  0  0  0  0  0  0
    6.9592  -19.1356   25.9245 C   0  0  0  0  0  0  0  0  0  0  0  0
    8.0278  -18.3263   25.2906 C   0  0  0  0  0  0  0  0  0  0  0  0
    9.2070  -18.7180   25.2718 O   0  0  0  0  0  0  0  0  0  0  0  0
    7.7410  -17.0752   24.6826 N   0  0  0  0  0  0  0  0  0  0  0  0
    8.7735  -16.2486   24.1098 C   0  0  0  0  0  0  0  0  0  0  0  0
    9.4282  -15.4315   25.1726 C   0  0  0  0  0  0  0  0  0  0  0  0
   10.5952  -14.9960   24.9948 O   0  0  0  0  0  0  0  0  0  0  0  0
    8.4866  -13.4028   28.0193 C   0  0  0  0  0  0  0  0  0  0  0  0
    9.4982  -14.3752   27.4049 C   0  0  2  0  0  0  0  0  0  0  0  0
    8.8013  -15.1112   26.3933 N   0  0  0  0  0  0  0  0  0  0  0  0
   10.0061  -15.2096   28.5028 C   0  0  0  0  0  0  0  0  0  0  0  0
    9.6890  -16.4173   28.5453 O   0  0  0  0  0  0  0  0  0  0  0  0
   10.8242  -14.7106   29.4948 O   0  0  0  0  0  0  0  0  0  0  0  0
  2  1  1  0
  3  2  1  0
  4  3  2  0
  5  3  1  0
  6  5  1  0
  7  8  2  0
  7  6  1  0
 10  9  1  1
 10 11  1  0
 11  7  1  0
 12 10  1  0
 13 12  2  0
 14 12  1  0
M  END
$$$$
