GGA.pdb
     RDKit          3D

 14 13  0  0  1  0  0  0  0  0999 V2000
   -0.8863  -26.4998   30.8804 N   0  0  0  0  0  0  0  0  0  0  0  0
   -2.1560  -26.7906   31.5165 C   0  0  0  0  0  0  0  0  0  0  0  0
   -3.2412  -26.2996   30.6334 C   0  0  0  0  0  0  0  0  0  0  0  0
   -3.0279  -26.0317   29.4388 O   0  0  0  0  0  0  0  0  0  0  0  0
   -4.5625  -26.1183   31.1220 N   0  0  0  0  0  0  0  0  0  0  0  0
   -5.6498  -25.7282   30.2600 C   0  0  0  0  0  0  0  0  0  0  0  0
   -5.9534  -24.2783   30.4378 C   0  0  0  0  0  0  0  0  0  0  0  0
   -5.4870  -23.6603   31.4296 O   0  0  0  0  0  0  0  0  0  0  0  0
   -7.4505  -21.5799   28.3901 C   0  0  0  0  0  0  0  0  0  0  0  0
   -6.9745  -22.1418   29.7333 C   0  0  2  0  0  0  0  0  0  0  0  0
   -6.7508  -23.5429   29.5386 N   0  0  0  0  0  0  0  0  0  0  0  0
   -8.0241  -21.8391   30.7163 C   0  0  0  0  0  0  0  0  0  0  0  0
   -8.8127  -22.7443   31.0619 O   0  0  0  0  0  0  0  0  0  0  0  0
   -8.1751  -20.5879   31.2768 O   0  0  0  0  0  0  0  0  0  0  0  0
  2  1  1  0
  3  2  1  0
  4  3  2  0
  5  3  1  0
  6  5  1  0
  7  8  2  0
  7  6  1  0
 10  9  1  6
 10 11  1  0
 11  7  1  0
 12 10  1  0
 13 12  2  0
 14 12  1  0
M  END
$$$$
