GGA.pdb
     RDKit          3D

 14 13  0  0  1  0  0  0  0  0999 V2000
    8.7475  -12.7918   18.5269 N   0  0  0  0  0  0  0  0  0  0  0  0
    8.6534  -13.9823   19.3486 C   0  0  0  0  0  0  0  0  0  0  0  0
    7.8837  -13.6441   20.5701 C   0  0  0  0  0  0  0  0  0  0  0  0
    7.6240  -12.4643   20.8617 O   0  0  0  0  0  0  0  0  0  0  0  0
    7.4162  -14.6567   21.4494 N   0  0  0  0  0  0  0  0  0  0  0  0
    6.5189  -14.3683   22.5398 C   0  0  0  0  0  0  0  0  0  0  0  0
    7.2852  -13.8751   23.7211 C   0  0  0  0  0  0  0  0  0  0  0  0
    8.5423  -13.8404   23.6791 O   0  0  0  0  0  0  0  0  0  0  0  0
    6.5090  -12.0927   26.8675 C   0  0  0  0  0  0  0  0  0  0  0  0
    7.4511  -12.9313   25.9982 C   0  0  2  0  0  0  0  0  0  0  0  0
    6.6691  -13.4353   24.9095 N   0  0  0  0  0  0  0  0  0  0  0  0
    8.0079  -13.9796   26.8646 C   0  0  0  0  0  0  0  0  0  0  0  0
    7.6104  -15.1560   26.7279 O   0  0  0  0  0  0  0  0  0  0  0  0
    8.9580  -13.7159   27.8292 O   0  0  0  0  0  0  0  0  0  0  0  0
  2  1  1  0
  3  2  1  0
  4  3  2  0
  5  3  1  0
  6  5  1  0
  7  8  2  0
  7  6  1  0
 10  9  1  1
 10 11  1  0
 11  7  1  0
 12 10  1  0
 13 12  2  0
 14 12  1  0
M  END
$$$$
