GGA.pdb
     RDKit          3D

 14 13  0  0  1  0  0  0  0  0999 V2000
    2.0386  -19.0939   21.2556 N   0  0  0  0  0  0  0  0  0  0  0  0
    3.4168  -19.0439   20.8092 C   0  0  0  0  0  0  0  0  0  0  0  0
    4.2021  -18.2822   21.8102 C   0  0  0  0  0  0  0  0  0  0  0  0
    4.0443  -18.4673   23.0288 O   0  0  0  0  0  0  0  0  0  0  0  0
    5.1620  -17.3145   21.4111 N   0  0  0  0  0  0  0  0  0  0  0  0
    6.5611  -17.6344   21.2790 C   0  0  0  0  0  0  0  0  0  0  0  0
    7.3198  -17.1247   22.4582 C   0  0  0  0  0  0  0  0  0  0  0  0
    8.5450  -16.8614   22.3456 O   0  0  0  0  0  0  0  0  0  0  0  0
    6.7426  -15.5699   25.6833 C   0  0  0  0  0  0  0  0  0  0  0  0
    7.5343  -16.5914   24.8610 C   0  0  2  0  0  0  0  0  0  0  0  0
    6.7305  -16.9156   23.7210 N   0  0  0  0  0  0  0  0  0  0  0  0
    7.7993  -17.7348   25.7453 C   0  0  0  0  0  0  0  0  0  0  0  0
    7.0685  -18.7451   25.6683 O   0  0  0  0  0  0  0  0  0  0  0  0
    8.8290  -17.7381   26.6631 O   0  0  0  0  0  0  0  0  0  0  0  0
  2  1  1  0
  3  2  1  0
  4  3  2  0
  5  3  1  0
  6  5  1  0
  7  8  2  0
  7  6  1  0
 10  9  1  1
 10 11  1  0
 11  7  1  0
 12 10  1  0
 13 12  2  0
 14 12  1  0
M  END
$$$$
