FFK.pdb
     RDKit          3D

 32 33  0  0  1  0  0  0  0  0999 V2000
    7.5640  -17.2609   21.0910 N   0  0  0  0  0  0  0  0  0  0  0  0
    8.9643  -16.9085   21.2197 C   0  0  1  0  0  0  0  0  0  0  0  0
    9.3266  -15.8575   20.1924 C   0  0  0  0  0  0  0  0  0  0  0  0
    8.4826  -14.6691   20.4373 C   0  0  0  0  0  0  0  0  0  0  0  0
    7.1427  -14.6785   20.1305 C   0  0  0  0  0  0  0  0  0  0  0  0
    6.3330  -13.5628   20.3569 C   0  0  0  0  0  0  0  0  0  0  0  0
    6.9049  -12.4181   20.9067 C   0  0  0  0  0  0  0  0  0  0  0  0
    8.2397  -12.4007   21.2153 C   0  0  0  0  0  0  0  0  0  0  0  0
    9.0116  -13.5171   20.9801 C   0  0  0  0  0  0  0  0  0  0  0  0
    9.1914  -16.4371   22.6032 C   0  0  0  0  0  0  0  0  0  0  0  0
   10.2853  -15.9438   22.9529 O   0  0  0  0  0  0  0  0  0  0  0  0
    8.1330  -16.5559   23.5391 N   0  0  0  0  0  0  0  0  0  0  0  0
    8.3473  -16.2345   24.9203 C   0  0  1  0  0  0  0  0  0  0  0  0
    7.0196  -15.7409   25.5107 C   0  0  0  0  0  0  0  0  0  0  0  0
    7.0889  -14.3244   25.8785 C   0  0  0  0  0  0  0  0  0  0  0  0
    8.2456  -13.7895   26.3956 C   0  0  0  0  0  0  0  0  0  0  0  0
    8.3036  -12.4334   26.7455 C   0  0  0  0  0  0  0  0  0  0  0  0
    7.2139  -11.6207   26.5791 C   0  0  0  0  0  0  0  0  0  0  0  0
    6.0557  -12.1498   26.0629 C   0  0  0  0  0  0  0  0  0  0  0  0
    6.0021  -13.4996   25.7160 C   0  0  0  0  0  0  0  0  0  0  0  0
    8.7509  -17.4158   25.7228 C   0  0  0  0  0  0  0  0  0  0  0  0
    7.9169  -18.3489   25.8577 O   0  0  0  0  0  0  0  0  0  0  0  0
   10.0028  -17.5613   26.3421 N   0  0  0  0  0  0  0  0  0  0  0  0
   10.4679  -18.8168   26.9052 C   0  0  1  0  0  0  0  0  0  0  0  0
   11.8676  -19.1494   26.4334 C   0  0  0  0  0  0  0  0  0  0  0  0
   12.4147  -20.4222   26.9629 C   0  0  0  0  0  0  0  0  0  0  0  0
   13.7712  -20.8208   26.5368 C   0  0  0  0  0  0  0  0  0  0  0  0
   14.2981  -22.1114   27.0502 C   0  0  0  0  0  0  0  0  0  0  0  0
   15.5492  -22.4323   26.4155 N   0  0  0  0  0  0  0  0  0  0  0  0
   10.4840  -18.6586   28.3730 C   0  0  0  0  0  0  0  0  0  0  0  0
   10.4735  -19.7556   29.2111 O   0  0  0  0  0  0  0  0  0  0  0  0
   10.5073  -17.5205   28.8738 O   0  0  0  0  0  0  0  0  0  0  0  0
  2  1  1  1
  3  2  1  0
  3  4  1  0
  4  5  2  0
  5  6  1  0
  7  6  2  0
  8  7  1  0
  9  4  1  0
  9  8  2  0
 10 12  1  0
 10  2  1  0
 11 10  2  0
 13 12  1  0
 13 14  1  1
 15 16  2  0
 15 14  1  0
 17 16  1  0
 18 17  2  0
 19 18  1  0
 19 20  2  0
 20 15  1  0
 21 22  2  0
 21 13  1  0
 23 21  1  0
 24 25  1  6
 24 23  1  0
 26 27  1  0
 26 25  1  0
 27 28  1  0
 28 29  1  0
 30 24  1  0
 31 30  1  0
 32 30  2  0
M  END
$$$$
