FFK.pdb
     RDKit          3D

 32 33  0  0  1  0  0  0  0  0999 V2000
    8.2651  -16.8329   21.4719 N   0  0  0  0  0  0  0  0  0  0  0  0
    9.6357  -16.4046   21.6708 C   0  0  1  0  0  0  0  0  0  0  0  0
    9.9759  -15.2994   20.6940 C   0  0  0  0  0  0  0  0  0  0  0  0
    8.7753  -14.4543   20.5239 C   0  0  0  0  0  0  0  0  0  0  0  0
    7.6090  -14.9772   20.0179 C   0  0  0  0  0  0  0  0  0  0  0  0
    6.4666  -14.1905   19.8520 C   0  0  0  0  0  0  0  0  0  0  0  0
    6.5191  -12.8457   20.2102 C   0  0  0  0  0  0  0  0  0  0  0  0
    7.6777  -12.3169   20.7152 C   0  0  0  0  0  0  0  0  0  0  0  0
    8.7874  -13.1187   20.8668 C   0  0  0  0  0  0  0  0  0  0  0  0
    9.7787  -15.9690   23.0771 C   0  0  0  0  0  0  0  0  0  0  0  0
   10.8542  -15.5011   23.5089 O   0  0  0  0  0  0  0  0  0  0  0  0
    8.6600  -16.0929   23.9392 N   0  0  0  0  0  0  0  0  0  0  0  0
    8.7931  -15.8275   25.3423 C   0  0  1  0  0  0  0  0  0  0  0  0
    7.3947  -15.5631   25.9165 C   0  0  0  0  0  0  0  0  0  0  0  0
    7.0783  -14.1325   25.9228 C   0  0  0  0  0  0  0  0  0  0  0  0
    8.0415  -13.2022   26.2359 C   0  0  0  0  0  0  0  0  0  0  0  0
    7.7306  -11.8354   26.2402 C   0  0  0  0  0  0  0  0  0  0  0  0
    6.4673  -11.4044   25.9337 C   0  0  0  0  0  0  0  0  0  0  0  0
    5.5011  -12.3295   25.6201 C   0  0  0  0  0  0  0  0  0  0  0  0
    5.8145  -13.6885   25.6170 C   0  0  0  0  0  0  0  0  0  0  0  0
    9.3427  -16.9854   26.0903 C   0  0  0  0  0  0  0  0  0  0  0  0
    9.2818  -16.9570   27.3473 O   0  0  0  0  0  0  0  0  0  0  0  0
    9.9268  -18.1114   25.4879 N   0  0  0  0  0  0  0  0  0  0  0  0
   10.4525  -19.2333   26.2459 C   0  0  1  0  0  0  0  0  0  0  0  0
   11.0045  -20.3072   25.3326 C   0  0  0  0  0  0  0  0  0  0  0  0
   11.5111  -21.5144   26.0299 C   0  0  0  0  0  0  0  0  0  0  0  0
   12.1243  -22.5787   25.2102 C   0  0  0  0  0  0  0  0  0  0  0  0
   12.4740  -23.8514   25.8918 C   0  0  0  0  0  0  0  0  0  0  0  0
   13.0609  -24.7769   24.9591 N   0  0  0  0  0  0  0  0  0  0  0  0
   11.5474  -18.7159   27.0906 C   0  0  0  0  0  0  0  0  0  0  0  0
   12.4675  -17.8133   26.5958 O   0  0  0  0  0  0  0  0  0  0  0  0
   11.6517  -19.0938   28.2708 O   0  0  0  0  0  0  0  0  0  0  0  0
  2  1  1  1
  3  2  1  0
  3  4  1  0
  4  5  2  0
  5  6  1  0
  7  6  2  0
  8  7  1  0
  9  4  1  0
  9  8  2  0
 10 12  1  0
 10  2  1  0
 11 10  2  0
 13 12  1  0
 13 14  1  1
 15 16  2  0
 15 14  1  0
 17 16  1  0
 18 17  2  0
 19 18  1  0
 19 20  2  0
 20 15  1  0
 21 22  2  0
 21 13  1  0
 23 21  1  0
 24 25  1  6
 24 23  1  0
 26 27  1  0
 26 25  1  0
 27 28  1  0
 28 29  1  0
 30 24  1  0
 31 30  1  0
 32 30  2  0
M  END
$$$$
