FFK.pdb
     RDKit          3D

 32 33  0  0  1  0  0  0  0  0999 V2000
  -21.7844  -47.5566  -28.4204 N   0  0  0  0  0  0  0  0  0  0  0  0
  -22.8674  -47.3071  -27.4895 C   0  0  1  0  0  0  0  0  0  0  0  0
  -24.0734  -46.7759  -28.2342 C   0  0  0  0  0  0  0  0  0  0  0  0
  -23.6996  -45.4836  -28.8464 C   0  0  0  0  0  0  0  0  0  0  0  0
  -24.2645  -44.3072  -28.4144 C   0  0  0  0  0  0  0  0  0  0  0  0
  -23.9205  -43.0787  -28.9835 C   0  0  0  0  0  0  0  0  0  0  0  0
  -22.9822  -43.0540  -30.0123 C   0  0  0  0  0  0  0  0  0  0  0  0
  -22.4145  -44.2222  -30.4487 C   0  0  0  0  0  0  0  0  0  0  0  0
  -22.7747  -45.4177  -29.8671 C   0  0  0  0  0  0  0  0  0  0  0  0
  -23.1620  -48.5722  -26.7819 C   0  0  0  0  0  0  0  0  0  0  0  0
  -22.2531  -49.2592  -26.2682 O   0  0  0  0  0  0  0  0  0  0  0  0
  -24.5115  -48.9983  -26.6948 N   0  0  0  0  0  0  0  0  0  0  0  0
  -24.8698  -50.3448  -27.0348 C   0  0  1  0  0  0  0  0  0  0  0  0
  -25.9813  -50.8021  -26.0806 C   0  0  0  0  0  0  0  0  0  0  0  0
  -26.5301  -52.1010  -26.4784 C   0  0  0  0  0  0  0  0  0  0  0  0
  -26.9823  -52.3087  -27.7604 C   0  0  0  0  0  0  0  0  0  0  0  0
  -27.5064  -53.5543  -28.1330 C   0  0  0  0  0  0  0  0  0  0  0  0
  -27.5769  -54.5819  -27.2304 C   0  0  0  0  0  0  0  0  0  0  0  0
  -27.1264  -54.3799  -25.9481 C   0  0  0  0  0  0  0  0  0  0  0  0
  -26.6057  -53.1391  -25.5815 C   0  0  0  0  0  0  0  0  0  0  0  0
  -25.4219  -50.4568  -28.4077 C   0  0  0  0  0  0  0  0  0  0  0  0
  -24.6096  -50.5915  -29.3598 O   0  0  0  0  0  0  0  0  0  0  0  0
  -26.7916  -50.4225  -28.7150 N   0  0  0  0  0  0  0  0  0  0  0  0
  -27.6762  -51.5584  -28.5230 C   0  0  1  0  0  0  0  0  0  0  0  0
  -28.3556  -51.9549  -29.8166 C   0  0  0  0  0  0  0  0  0  0  0  0
  -27.4526  -52.5397  -30.8376 C   0  0  0  0  0  0  0  0  0  0  0  0
  -26.2576  -51.7646  -31.2276 C   0  0  0  0  0  0  0  0  0  0  0  0
  -25.1257  -52.5114  -31.8342 C   0  0  0  0  0  0  0  0  0  0  0  0
  -25.6054  -53.4230  -32.8390 N   0  0  0  0  0  0  0  0  0  0  0  0
  -26.8453  -52.6857  -28.0552 C   0  0  0  0  0  0  0  0  0  0  0  0
  -27.3150  -53.9835  -28.0900 O   0  0  0  0  0  0  0  0  0  0  0  0
  -25.6999  -52.4730  -27.6199 O   0  0  0  0  0  0  0  0  0  0  0  0
  2  1  1  6
  3  2  1  0
  3  4  1  0
  4  5  2  0
  5  6  1  0
  7  6  2  0
  8  7  1  0
  9  4  1  0
  9  8  2  0
 10 12  1  0
 10  2  1  0
 11 10  2  0
 13 12  1  0
 13 14  1  1
 15 16  2  0
 15 14  1  0
 17 16  1  0
 18 17  2  0
 19 18  1  0
 19 20  2  0
 20 15  1  0
 21 22  2  0
 21 13  1  0
 23 21  1  0
 24 25  1  6
 24 23  1  0
 26 27  1  0
 26 25  1  0
 27 28  1  0
 28 29  1  0
 30 24  1  0
 31 30  1  0
 32 30  2  0
M  END
$$$$
