FFK.pdb
     RDKit          3D

 32 33  0  0  1  0  0  0  0  0999 V2000
    7.7974  -17.4206   20.6723 N   0  0  0  0  0  0  0  0  0  0  0  0
    9.1816  -16.9933   20.7263 C   0  0  1  0  0  0  0  0  0  0  0  0
    9.5120  -16.1643   19.5036 C   0  0  0  0  0  0  0  0  0  0  0  0
    8.8086  -14.8701   19.6253 C   0  0  0  0  0  0  0  0  0  0  0  0
    7.4414  -14.7947   19.5043 C   0  0  0  0  0  0  0  0  0  0  0  0
    6.7634  -13.5785   19.6174 C   0  0  0  0  0  0  0  0  0  0  0  0
    7.4977  -12.4198   19.8584 C   0  0  0  0  0  0  0  0  0  0  0  0
    8.8608  -12.4865   19.9802 C   0  0  0  0  0  0  0  0  0  0  0  0
    9.5001  -13.7011   19.8636 C   0  0  0  0  0  0  0  0  0  0  0  0
    9.3774  -16.2366   21.9821 C   0  0  0  0  0  0  0  0  0  0  0  0
   10.5062  -15.8253   22.3266 O   0  0  0  0  0  0  0  0  0  0  0  0
    8.2476  -15.9821   22.7999 N   0  0  0  0  0  0  0  0  0  0  0  0
    8.3972  -15.2932   24.0490 C   0  0  1  0  0  0  0  0  0  0  0  0
    7.1780  -14.3820   24.2446 C   0  0  0  0  0  0  0  0  0  0  0  0
    7.2487  -13.6555   25.5149 C   0  0  0  0  0  0  0  0  0  0  0  0
    6.1210  -13.0922   26.0648 C   0  0  0  0  0  0  0  0  0  0  0  0
    6.1972  -12.3982   27.2803 C   0  0  0  0  0  0  0  0  0  0  0  0
    7.3910  -12.2697   27.9389 C   0  0  0  0  0  0  0  0  0  0  0  0
    8.5209  -12.8305   27.3941 C   0  0  0  0  0  0  0  0  0  0  0  0
    8.4409  -13.5201   26.1845 C   0  0  0  0  0  0  0  0  0  0  0  0
    8.4212  -16.2183   25.2091 C   0  0  0  0  0  0  0  0  0  0  0  0
    7.3600  -16.8321   25.4948 O   0  0  0  0  0  0  0  0  0  0  0  0
    9.5504  -16.4543   26.0098 N   0  0  0  0  0  0  0  0  0  0  0  0
    9.7248  -17.6609   26.7993 C   0  0  1  0  0  0  0  0  0  0  0  0
   10.2455  -18.8040   25.9541 C   0  0  0  0  0  0  0  0  0  0  0  0
   10.4624  -20.0723   26.6919 C   0  0  0  0  0  0  0  0  0  0  0  0
   10.9014  -21.2529   25.9212 C   0  0  0  0  0  0  0  0  0  0  0  0
   11.1045  -22.5208   26.6681 C   0  0  0  0  0  0  0  0  0  0  0  0
   11.5254  -23.5685   25.7758 N   0  0  0  0  0  0  0  0  0  0  0  0
   10.7144  -17.3559   27.8517 C   0  0  0  0  0  0  0  0  0  0  0  0
   10.7403  -18.0640   29.0364 O   0  0  0  0  0  0  0  0  0  0  0  0
   11.5443  -16.4461   27.6775 O   0  0  0  0  0  0  0  0  0  0  0  0
  2  1  1  6
  3  2  1  0
  3  4  1  0
  4  5  2  0
  5  6  1  0
  7  6  2  0
  8  7  1  0
  9  4  1  0
  9  8  2  0
 10 12  1  0
 10  2  1  0
 11 10  2  0
 13 12  1  0
 13 14  1  1
 15 16  2  0
 15 14  1  0
 17 16  1  0
 18 17  2  0
 19 18  1  0
 19 20  2  0
 20 15  1  0
 21 22  2  0
 21 13  1  0
 23 21  1  0
 24 25  1  6
 24 23  1  0
 26 27  1  0
 26 25  1  0
 27 28  1  0
 28 29  1  0
 30 24  1  0
 31 30  1  0
 32 30  2  0
M  END
$$$$
