FFK.pdb
     RDKit          3D

 32 33  0  0  1  0  0  0  0  0999 V2000
   10.2056  -15.1928   20.0773 N   0  0  0  0  0  0  0  0  0  0  0  0
    9.1747  -14.7377   20.9892 C   0  0  1  0  0  0  0  0  0  0  0  0
    7.8298  -15.2822   20.5579 C   0  0  0  0  0  0  0  0  0  0  0  0
    7.3921  -14.5268   19.3653 C   0  0  0  0  0  0  0  0  0  0  0  0
    7.3681  -15.1175   18.1242 C   0  0  0  0  0  0  0  0  0  0  0  0
    6.9565  -14.4158   16.9885 C   0  0  0  0  0  0  0  0  0  0  0  0
    6.5629  -13.0870   17.1257 C   0  0  0  0  0  0  0  0  0  0  0  0
    6.5840  -12.4910   18.3592 C   0  0  0  0  0  0  0  0  0  0  0  0
    6.9950  -13.2097   19.4601 C   0  0  0  0  0  0  0  0  0  0  0  0
    9.5433  -15.1785   22.3522 C   0  0  0  0  0  0  0  0  0  0  0  0
   10.3926  -16.0760   22.5401 O   0  0  0  0  0  0  0  0  0  0  0  0
    8.9085  -14.5573   23.4572 N   0  0  0  0  0  0  0  0  0  0  0  0
    9.3665  -14.8104   24.7926 C   0  0  1  0  0  0  0  0  0  0  0  0
    8.4854  -14.0118   25.7626 C   0  0  0  0  0  0  0  0  0  0  0  0
    8.9216  -14.1841   27.1506 C   0  0  0  0  0  0  0  0  0  0  0  0
    9.9310  -13.4081   27.6703 C   0  0  0  0  0  0  0  0  0  0  0  0
   10.3429  -13.5794   28.9992 C   0  0  0  0  0  0  0  0  0  0  0  0
    9.7496  -14.5189   29.7998 C   0  0  0  0  0  0  0  0  0  0  0  0
    8.7406  -15.2970   29.2858 C   0  0  0  0  0  0  0  0  0  0  0  0
    8.3337  -15.1233   27.9631 C   0  0  0  0  0  0  0  0  0  0  0  0
    9.2314  -16.2368   25.1792 C   0  0  0  0  0  0  0  0  0  0  0  0
    8.2089  -16.8584   24.7887 O   0  0  0  0  0  0  0  0  0  0  0  0
   10.1698  -16.9393   25.9523 N   0  0  0  0  0  0  0  0  0  0  0  0
   10.1921  -18.3884   26.0490 C   0  0  1  0  0  0  0  0  0  0  0  0
   10.5324  -19.0259   24.7186 C   0  0  0  0  0  0  0  0  0  0  0  0
   10.7394  -20.4938   24.7689 C   0  0  0  0  0  0  0  0  0  0  0  0
   11.0295  -21.1939   23.5015 C   0  0  0  0  0  0  0  0  0  0  0  0
   11.1968  -22.6689   23.5574 C   0  0  0  0  0  0  0  0  0  0  0  0
   11.3433  -23.2092   22.2317 N   0  0  0  0  0  0  0  0  0  0  0  0
   11.2360  -18.7453   27.0303 C   0  0  0  0  0  0  0  0  0  0  0  0
   12.1080  -17.7960   27.5245 O   0  0  0  0  0  0  0  0  0  0  0  0
   11.3401  -19.9200   27.4252 O   0  0  0  0  0  0  0  0  0  0  0  0
  2  1  1  6
  3  2  1  0
  3  4  1  0
  4  5  2  0
  5  6  1  0
  7  6  2  0
  8  7  1  0
  9  4  1  0
  9  8  2  0
 10 12  1  0
 10  2  1  0
 11 10  2  0
 13 12  1  0
 13 14  1  1
 15 16  2  0
 15 14  1  0
 17 16  1  0
 18 17  2  0
 19 18  1  0
 19 20  2  0
 20 15  1  0
 21 22  2  0
 21 13  1  0
 23 21  1  0
 24 25  1  6
 24 23  1  0
 26 27  1  0
 26 25  1  0
 27 28  1  0
 28 29  1  0
 30 24  1  0
 31 30  1  0
 32 30  2  0
M  END
$$$$
