FFK.pdb
     RDKit          3D

 32 33  0  0  1  0  0  0  0  0999 V2000
   10.3156  -16.6280   19.2909 N   0  0  0  0  0  0  0  0  0  0  0  0
    9.2903  -16.9818   20.2527 C   0  0  1  0  0  0  0  0  0  0  0  0
    9.3613  -18.4626   20.5586 C   0  0  0  0  0  0  0  0  0  0  0  0
    8.9088  -19.1991   19.3597 C   0  0  0  0  0  0  0  0  0  0  0  0
    9.8150  -19.7348   18.4757 C   0  0  0  0  0  0  0  0  0  0  0  0
    9.4017  -20.4336   17.3388 C   0  0  0  0  0  0  0  0  0  0  0  0
    8.0377  -20.5864   17.1029 C   0  0  0  0  0  0  0  0  0  0  0  0
    7.1281  -20.0553   17.9792 C   0  0  0  0  0  0  0  0  0  0  0  0
    7.5673  -19.3716   19.0914 C   0  0  0  0  0  0  0  0  0  0  0  0
    9.4919  -16.1528   21.4610 C   0  0  0  0  0  0  0  0  0  0  0  0
   10.6303  -15.7710   21.8076 O   0  0  0  0  0  0  0  0  0  0  0  0
    8.3563  -15.7935   22.2301 N   0  0  0  0  0  0  0  0  0  0  0  0
    8.5047  -14.9960   23.4129 C   0  0  1  0  0  0  0  0  0  0  0  0
    7.1989  -14.2218   23.6378 C   0  0  0  0  0  0  0  0  0  0  0  0
    7.2433  -13.4422   24.8775 C   0  0  0  0  0  0  0  0  0  0  0  0
    6.4449  -13.7772   25.9459 C   0  0  0  0  0  0  0  0  0  0  0  0
    6.4929  -13.0259   27.1284 C   0  0  0  0  0  0  0  0  0  0  0  0
    7.3325  -11.9497   27.2398 C   0  0  0  0  0  0  0  0  0  0  0  0
    8.1324  -11.6105   26.1754 C   0  0  0  0  0  0  0  0  0  0  0  0
    8.0816  -12.3606   25.0007 C   0  0  0  0  0  0  0  0  0  0  0  0
    8.7209  -15.8181   24.6295 C   0  0  0  0  0  0  0  0  0  0  0  0
    7.8503  -16.6792   24.9206 O   0  0  0  0  0  0  0  0  0  0  0  0
    9.8335  -15.6984   25.4778 N   0  0  0  0  0  0  0  0  0  0  0  0
   10.0756  -16.5897   26.5988 C   0  0  1  0  0  0  0  0  0  0  0  0
   11.3246  -17.4185   26.3863 C   0  0  0  0  0  0  0  0  0  0  0  0
   11.4457  -18.0234   25.0374 C   0  0  0  0  0  0  0  0  0  0  0  0
   12.6688  -18.7929   24.7332 C   0  0  0  0  0  0  0  0  0  0  0  0
   12.7809  -19.3923   23.3786 C   0  0  0  0  0  0  0  0  0  0  0  0
   11.6402  -20.2244   23.1006 N   0  0  0  0  0  0  0  0  0  0  0  0
   10.2605  -15.7461   27.7963 C   0  0  0  0  0  0  0  0  0  0  0  0
   10.4043  -16.3054   29.0503 O   0  0  0  0  0  0  0  0  0  0  0  0
   10.2887  -14.5079   27.6842 O   0  0  0  0  0  0  0  0  0  0  0  0
  2  1  1  6
  3  2  1  0
  3  4  1  0
  4  5  2  0
  5  6  1  0
  7  6  2  0
  8  7  1  0
  9  4  1  0
  9  8  2  0
 10 12  1  0
 10  2  1  0
 11 10  2  0
 13 12  1  0
 13 14  1  1
 15 16  2  0
 15 14  1  0
 17 16  1  0
 18 17  2  0
 19 18  1  0
 19 20  2  0
 20 15  1  0
 21 22  2  0
 21 13  1  0
 23 21  1  0
 24 25  1  6
 24 23  1  0
 26 27  1  0
 26 25  1  0
 27 28  1  0
 28 29  1  0
 30 24  1  0
 31 30  1  0
 32 30  2  0
M  END
$$$$
