FFK.pdb
     RDKit          3D

 32 33  0  0  1  0  0  0  0  0999 V2000
    4.7801  -16.0888   21.7357 N   0  0  0  0  0  0  0  0  0  0  0  0
    6.0954  -16.6685   21.9236 C   0  0  1  0  0  0  0  0  0  0  0  0
    6.8967  -16.5506   20.6448 C   0  0  0  0  0  0  0  0  0  0  0  0
    7.2566  -15.1289   20.4605 C   0  0  0  0  0  0  0  0  0  0  0  0
    6.3919  -14.2552   19.8453 C   0  0  0  0  0  0  0  0  0  0  0  0
    6.7185  -12.9090   19.6646 C   0  0  0  0  0  0  0  0  0  0  0  0
    7.9513  -12.4496   20.1216 C   0  0  0  0  0  0  0  0  0  0  0  0
    8.8188  -13.3141   20.7358 C   0  0  0  0  0  0  0  0  0  0  0  0
    8.4674  -14.6359   20.8991 C   0  0  0  0  0  0  0  0  0  0  0  0
    6.7448  -15.9707   23.0546 C   0  0  0  0  0  0  0  0  0  0  0  0
    6.2437  -14.9444   23.5623 O   0  0  0  0  0  0  0  0  0  0  0  0
    7.9622  -16.4927   23.5603 N   0  0  0  0  0  0  0  0  0  0  0  0
    8.7037  -15.7704   24.5532 C   0  0  1  0  0  0  0  0  0  0  0  0
    7.8695  -15.7289   25.8405 C   0  0  0  0  0  0  0  0  0  0  0  0
    8.6152  -15.1189   26.9444 C   0  0  0  0  0  0  0  0  0  0  0  0
    8.5545  -13.7633   27.1675 C   0  0  0  0  0  0  0  0  0  0  0  0
    9.2714  -13.1873   28.2256 C   0  0  0  0  0  0  0  0  0  0  0  0
   10.0414  -13.9615   29.0521 C   0  0  0  0  0  0  0  0  0  0  0  0
   10.1057  -15.3165   28.8337 C   0  0  0  0  0  0  0  0  0  0  0  0
    9.3909  -15.8857   27.7800 C   0  0  0  0  0  0  0  0  0  0  0  0
    9.9834  -16.4357   24.9026 C   0  0  0  0  0  0  0  0  0  0  0  0
    9.9359  -17.4490   25.6478 O   0  0  0  0  0  0  0  0  0  0  0  0
   11.2446  -16.0089   24.4565 N   0  0  0  0  0  0  0  0  0  0  0  0
   12.3062  -16.9271   24.0830 C   0  0  1  0  0  0  0  0  0  0  0  0
   13.1886  -16.3414   23.0011 C   0  0  0  0  0  0  0  0  0  0  0  0
   12.4797  -15.9848   21.7480 C   0  0  0  0  0  0  0  0  0  0  0  0
   13.2664  -15.3668   20.6617 C   0  0  0  0  0  0  0  0  0  0  0  0
   12.5402  -14.9832   19.4239 C   0  0  0  0  0  0  0  0  0  0  0  0
   13.4403  -14.3734   18.4810 N   0  0  0  0  0  0  0  0  0  0  0  0
   13.1239  -17.1644   25.2893 C   0  0  0  0  0  0  0  0  0  0  0  0
   12.8627  -16.5024   26.4723 O   0  0  0  0  0  0  0  0  0  0  0  0
   14.0675  -17.9735   25.2495 O   0  0  0  0  0  0  0  0  0  0  0  0
  2  1  1  6
  3  2  1  0
  3  4  1  0
  4  5  2  0
  5  6  1  0
  7  6  2  0
  8  7  1  0
  9  4  1  0
  9  8  2  0
 10 12  1  0
 10  2  1  0
 11 10  2  0
 13 12  1  0
 13 14  1  1
 15 16  2  0
 15 14  1  0
 17 16  1  0
 18 17  2  0
 19 18  1  0
 19 20  2  0
 20 15  1  0
 21 22  2  0
 21 13  1  0
 23 21  1  0
 24 25  1  6
 24 23  1  0
 26 27  1  0
 26 25  1  0
 27 28  1  0
 28 29  1  0
 30 24  1  0
 31 30  1  0
 32 30  2  0
M  END
$$$$
