FFK.pdb
     RDKit          3D

 32 33  0  0  1  0  0  0  0  0999 V2000
    7.8636  -18.0851   19.9199 N   0  0  0  0  0  0  0  0  0  0  0  0
    7.4057  -18.2798   21.2815 C   0  0  1  0  0  0  0  0  0  0  0  0
    7.8091  -19.6553   21.7679 C   0  0  0  0  0  0  0  0  0  0  0  0
    7.0322  -20.6554   21.0057 C   0  0  0  0  0  0  0  0  0  0  0  0
    7.6165  -21.3860   19.9984 C   0  0  0  0  0  0  0  0  0  0  0  0
    6.8947  -22.3347   19.2701 C   0  0  0  0  0  0  0  0  0  0  0  0
    5.5520  -22.5389   19.5781 C   0  0  0  0  0  0  0  0  0  0  0  0
    4.9622  -21.8148   20.5807 C   0  0  0  0  0  0  0  0  0  0  0  0
    5.7009  -20.8865   21.2807 C   0  0  0  0  0  0  0  0  0  0  0  0
    7.9818  -17.2026   22.1156 C   0  0  0  0  0  0  0  0  0  0  0  0
    9.1808  -16.8662   22.0097 O   0  0  0  0  0  0  0  0  0  0  0  0
    7.1395  -16.5491   23.0502 N   0  0  0  0  0  0  0  0  0  0  0  0
    7.6846  -15.6010   23.9781 C   0  0  1  0  0  0  0  0  0  0  0  0
    6.5199  -14.9145   24.7041 C   0  0  0  0  0  0  0  0  0  0  0  0
    6.9994  -13.9372   25.6848 C   0  0  0  0  0  0  0  0  0  0  0  0
    7.5130  -12.7284   25.2773 C   0  0  0  0  0  0  0  0  0  0  0  0
    7.9701  -11.7990   26.2219 C   0  0  0  0  0  0  0  0  0  0  0  0
    7.9134  -12.0776   27.5616 C   0  0  0  0  0  0  0  0  0  0  0  0
    7.4012  -13.2839   27.9743 C   0  0  0  0  0  0  0  0  0  0  0  0
    6.9474  -14.2058   27.0313 C   0  0  0  0  0  0  0  0  0  0  0  0
    8.5134  -16.2446   25.0276 C   0  0  0  0  0  0  0  0  0  0  0  0
    8.1076  -17.3325   25.5135 O   0  0  0  0  0  0  0  0  0  0  0  0
    9.7212  -15.7195   25.5147 N   0  0  0  0  0  0  0  0  0  0  0  0
   10.8810  -16.5419   25.8116 C   0  0  1  0  0  0  0  0  0  0  0  0
   11.8831  -16.5145   24.6770 C   0  0  0  0  0  0  0  0  0  0  0  0
   13.0993  -17.3328   24.9035 C   0  0  0  0  0  0  0  0  0  0  0  0
   14.1199  -17.3626   23.8367 C   0  0  0  0  0  0  0  0  0  0  0  0
   15.3227  -18.2042   24.0639 C   0  0  0  0  0  0  0  0  0  0  0  0
   16.1689  -18.1970   22.8999 N   0  0  0  0  0  0  0  0  0  0  0  0
   11.5152  -15.9830   27.0221 C   0  0  0  0  0  0  0  0  0  0  0  0
   11.2902  -14.6773   27.4099 O   0  0  0  0  0  0  0  0  0  0  0  0
   12.2677  -16.6933   27.7120 O   0  0  0  0  0  0  0  0  0  0  0  0
  2  1  1  6
  3  2  1  0
  3  4  1  0
  4  5  2  0
  5  6  1  0
  7  6  2  0
  8  7  1  0
  9  4  1  0
  9  8  2  0
 10 12  1  0
 10  2  1  0
 11 10  2  0
 13 12  1  0
 13 14  1  1
 15 16  2  0
 15 14  1  0
 17 16  1  0
 18 17  2  0
 19 18  1  0
 19 20  2  0
 20 15  1  0
 21 22  2  0
 21 13  1  0
 23 21  1  0
 24 25  1  6
 24 23  1  0
 26 27  1  0
 26 25  1  0
 27 28  1  0
 28 29  1  0
 30 24  1  0
 31 30  1  0
 32 30  2  0
M  END
$$$$
