FFK.pdb
     RDKit          3D

 32 33  0  0  1  0  0  0  0  0999 V2000
    6.1554  -17.5994   21.7471 N   0  0  0  0  0  0  0  0  0  0  0  0
    6.9390  -16.4447   21.3546 C   0  0  1  0  0  0  0  0  0  0  0  0
    6.0245  -15.3526   20.8426 C   0  0  0  0  0  0  0  0  0  0  0  0
    6.8682  -14.2404   20.3571 C   0  0  0  0  0  0  0  0  0  0  0  0
    7.0442  -13.1052   21.1120 C   0  0  0  0  0  0  0  0  0  0  0  0
    7.8390  -12.0464   20.6660 C   0  0  0  0  0  0  0  0  0  0  0  0
    8.4642  -12.1517   19.4260 C   0  0  0  0  0  0  0  0  0  0  0  0
    8.2938  -13.2799   18.6674 C   0  0  0  0  0  0  0  0  0  0  0  0
    7.5038  -14.3067   19.1351 C   0  0  0  0  0  0  0  0  0  0  0  0
    7.7271  -16.0074   22.5274 C   0  0  0  0  0  0  0  0  0  0  0  0
    8.5556  -15.0752   22.4458 O   0  0  0  0  0  0  0  0  0  0  0  0
    7.5243  -16.6726   23.7630 N   0  0  0  0  0  0  0  0  0  0  0  0
    8.3185  -16.3330   24.9080 C   0  0  1  0  0  0  0  0  0  0  0  0
    7.3761  -15.8658   26.0253 C   0  0  0  0  0  0  0  0  0  0  0  0
    7.2628  -14.4053   26.0568 C   0  0  0  0  0  0  0  0  0  0  0  0
    8.2968  -13.6314   26.5294 C   0  0  0  0  0  0  0  0  0  0  0  0
    8.1804  -12.2348   26.5566 C   0  0  0  0  0  0  0  0  0  0  0  0
    7.0396  -11.6192   26.1149 C   0  0  0  0  0  0  0  0  0  0  0  0
    6.0034  -12.3875   25.6417 C   0  0  0  0  0  0  0  0  0  0  0  0
    6.1233  -13.7768   25.6162 C   0  0  0  0  0  0  0  0  0  0  0  0
    9.0655  -17.4966   25.4471 C   0  0  0  0  0  0  0  0  0  0  0  0
    8.4023  -18.4943   25.8333 O   0  0  0  0  0  0  0  0  0  0  0  0
   10.4642  -17.5579   25.5548 N   0  0  0  0  0  0  0  0  0  0  0  0
   11.1748  -18.7482   25.9883 C   0  0  1  0  0  0  0  0  0  0  0  0
   12.5819  -18.7857   25.4306 C   0  0  0  0  0  0  0  0  0  0  0  0
   13.3992  -19.9366   25.8860 C   0  0  0  0  0  0  0  0  0  0  0  0
   14.7860  -20.0382   25.3888 C   0  0  0  0  0  0  0  0  0  0  0  0
   15.5822  -21.2164   25.8183 C   0  0  0  0  0  0  0  0  0  0  0  0
   16.8826  -21.1965   25.2022 N   0  0  0  0  0  0  0  0  0  0  0  0
   11.2467  -18.7022   27.4623 C   0  0  0  0  0  0  0  0  0  0  0  0
   11.2448  -19.8595   28.2151 O   0  0  0  0  0  0  0  0  0  0  0  0
   11.3102  -17.6060   28.0461 O   0  0  0  0  0  0  0  0  0  0  0  0
  2  1  1  1
  3  2  1  0
  3  4  1  0
  4  5  2  0
  5  6  1  0
  7  6  2  0
  8  7  1  0
  9  4  1  0
  9  8  2  0
 10 12  1  0
 10  2  1  0
 11 10  2  0
 13 12  1  0
 13 14  1  1
 15 16  2  0
 15 14  1  0
 17 16  1  0
 18 17  2  0
 19 18  1  0
 19 20  2  0
 20 15  1  0
 21 22  2  0
 21 13  1  0
 23 21  1  0
 24 25  1  6
 24 23  1  0
 26 27  1  0
 26 25  1  0
 27 28  1  0
 28 29  1  0
 30 24  1  0
 31 30  1  0
 32 30  2  0
M  END
$$$$
