FFK.pdb
     RDKit          3D

 32 33  0  0  1  0  0  0  0  0999 V2000
    4.8409  -19.9953   22.5504 N   0  0  0  0  0  0  0  0  0  0  0  0
    5.6104  -19.8395   23.7690 C   0  0  1  0  0  0  0  0  0  0  0  0
    6.5823  -20.9908   23.9142 C   0  0  0  0  0  0  0  0  0  0  0  0
    7.2123  -20.8916   25.2476 C   0  0  0  0  0  0  0  0  0  0  0  0
    6.4809  -21.1031   26.3921 C   0  0  0  0  0  0  0  0  0  0  0  0
    7.0631  -21.0131   27.6589 C   0  0  0  0  0  0  0  0  0  0  0  0
    8.4170  -20.7012   27.7554 C   0  0  0  0  0  0  0  0  0  0  0  0
    9.1529  -20.4889   26.6193 C   0  0  0  0  0  0  0  0  0  0  0  0
    8.5497  -20.5850   25.3847 C   0  0  0  0  0  0  0  0  0  0  0  0
    6.2998  -18.5322   23.7100 C   0  0  0  0  0  0  0  0  0  0  0  0
    6.9839  -18.1998   22.7182 O   0  0  0  0  0  0  0  0  0  0  0  0
    6.1698  -17.6501   24.8124 N   0  0  0  0  0  0  0  0  0  0  0  0
    6.7829  -16.3540   24.7799 C   0  0  1  0  0  0  0  0  0  0  0  0
    6.1793  -15.5081   25.9091 C   0  0  0  0  0  0  0  0  0  0  0  0
    6.7913  -14.1783   25.9702 C   0  0  0  0  0  0  0  0  0  0  0  0
    7.7719  -13.8990   26.8930 C   0  0  0  0  0  0  0  0  0  0  0  0
    8.3523  -12.6241   26.9453 C   0  0  0  0  0  0  0  0  0  0  0  0
    7.9544  -11.6385   26.0818 C   0  0  0  0  0  0  0  0  0  0  0  0
    6.9750  -11.9120   25.1577 C   0  0  0  0  0  0  0  0  0  0  0  0
    6.4002  -13.1818   25.1090 C   0  0  0  0  0  0  0  0  0  0  0  0
    8.2443  -16.4099   25.0316 C   0  0  0  0  0  0  0  0  0  0  0  0
    8.6483  -17.0987   26.0046 O   0  0  0  0  0  0  0  0  0  0  0  0
    9.2070  -15.7447   24.2552 N   0  0  0  0  0  0  0  0  0  0  0  0
   10.5132  -16.3065   23.9589 C   0  0  1  0  0  0  0  0  0  0  0  0
   11.1138  -15.6839   22.7164 C   0  0  0  0  0  0  0  0  0  0  0  0
   12.4749  -16.1656   22.3770 C   0  0  0  0  0  0  0  0  0  0  0  0
   12.9198  -16.0454   20.9740 C   0  0  0  0  0  0  0  0  0  0  0  0
   14.2401  -16.6286   20.6226 C   0  0  0  0  0  0  0  0  0  0  0  0
   14.4545  -16.5680   19.2009 N   0  0  0  0  0  0  0  0  0  0  0  0
   11.3879  -16.0115   25.1112 C   0  0  0  0  0  0  0  0  0  0  0  0
   11.0149  -15.0988   26.0775 O   0  0  0  0  0  0  0  0  0  0  0  0
   12.4829  -16.5905   25.2226 O   0  0  0  0  0  0  0  0  0  0  0  0
  2  1  1  6
  3  2  1  0
  3  4  1  0
  4  5  2  0
  5  6  1  0
  7  6  2  0
  8  7  1  0
  9  4  1  0
  9  8  2  0
 10 12  1  0
 10  2  1  0
 11 10  2  0
 13 12  1  0
 13 14  1  1
 15 16  2  0
 15 14  1  0
 17 16  1  0
 18 17  2  0
 19 18  1  0
 19 20  2  0
 20 15  1  0
 21 22  2  0
 21 13  1  0
 23 21  1  0
 24 25  1  6
 24 23  1  0
 26 27  1  0
 26 25  1  0
 27 28  1  0
 28 29  1  0
 30 24  1  0
 31 30  1  0
 32 30  2  0
M  END
$$$$
