FFK.pdb
     RDKit          3D

 32 33  0  0  1  0  0  0  0  0999 V2000
    8.3368  -18.7033   20.7124 N   0  0  0  0  0  0  0  0  0  0  0  0
    7.6018  -18.6474   21.9607 C   0  0  1  0  0  0  0  0  0  0  0  0
    7.7470  -19.9591   22.7021 C   0  0  0  0  0  0  0  0  0  0  0  0
    7.0671  -21.0077   21.9129 C   0  0  0  0  0  0  0  0  0  0  0  0
    5.6986  -21.0192   21.7835 C   0  0  0  0  0  0  0  0  0  0  0  0
    5.0427  -22.0037   21.0405 C   0  0  0  0  0  0  0  0  0  0  0  0
    5.8008  -22.9933   20.4195 C   0  0  0  0  0  0  0  0  0  0  0  0
    7.1653  -22.9890   20.5436 C   0  0  0  0  0  0  0  0  0  0  0  0
    7.7825  -22.0043   21.2832 C   0  0  0  0  0  0  0  0  0  0  0  0
    8.1185  -17.5042   22.7442 C   0  0  0  0  0  0  0  0  0  0  0  0
    9.3286  -17.1924   22.7227 O   0  0  0  0  0  0  0  0  0  0  0  0
    7.2055  -16.7576   23.5311 N   0  0  0  0  0  0  0  0  0  0  0  0
    7.6739  -15.6940   24.3716 C   0  0  1  0  0  0  0  0  0  0  0  0
    6.5090  -14.7252   24.6154 C   0  0  0  0  0  0  0  0  0  0  0  0
    6.9161  -13.5962   25.4557 C   0  0  0  0  0  0  0  0  0  0  0  0
    6.2978  -13.3598   26.6611 C   0  0  0  0  0  0  0  0  0  0  0  0
    6.6929  -12.2772   27.4590 C   0  0  0  0  0  0  0  0  0  0  0  0
    7.6975  -11.4393   27.0537 C   0  0  0  0  0  0  0  0  0  0  0  0
    8.3188  -11.6708   25.8502 C   0  0  0  0  0  0  0  0  0  0  0  0
    7.9227  -12.7491   25.0593 C   0  0  0  0  0  0  0  0  0  0  0  0
    8.1080  -16.1740   25.7071 C   0  0  0  0  0  0  0  0  0  0  0  0
    7.2931  -16.8568   26.3810 O   0  0  0  0  0  0  0  0  0  0  0  0
    9.3690  -15.9166   26.2689 N   0  0  0  0  0  0  0  0  0  0  0  0
    9.8109  -16.4967   27.5251 C   0  0  1  0  0  0  0  0  0  0  0  0
   10.9764  -17.4407   27.3183 C   0  0  0  0  0  0  0  0  0  0  0  0
   10.6545  -18.6629   26.5421 C   0  0  0  0  0  0  0  0  0  0  0  0
   11.7689  -19.5573   26.1694 C   0  0  0  0  0  0  0  0  0  0  0  0
   11.4442  -20.7453   25.3387 C   0  0  0  0  0  0  0  0  0  0  0  0
   12.6496  -21.4035   24.9091 N   0  0  0  0  0  0  0  0  0  0  0  0
   10.2462  -15.3834   28.3918 C   0  0  0  0  0  0  0  0  0  0  0  0
   10.5131  -14.1331   27.8707 O   0  0  0  0  0  0  0  0  0  0  0  0
   10.3782  -15.5650   29.6150 O   0  0  0  0  0  0  0  0  0  0  0  0
  2  1  1  6
  3  2  1  0
  3  4  1  0
  4  5  2  0
  5  6  1  0
  7  6  2  0
  8  7  1  0
  9  4  1  0
  9  8  2  0
 10 12  1  0
 10  2  1  0
 11 10  2  0
 13 12  1  0
 13 14  1  1
 15 16  2  0
 15 14  1  0
 17 16  1  0
 18 17  2  0
 19 18  1  0
 19 20  2  0
 20 15  1  0
 21 22  2  0
 21 13  1  0
 23 21  1  0
 24 25  1  6
 24 23  1  0
 26 27  1  0
 26 25  1  0
 27 28  1  0
 28 29  1  0
 30 24  1  0
 31 30  1  0
 32 30  2  0
M  END
$$$$
