FFK.pdb
     RDKit          3D

 32 33  0  0  1  0  0  0  0  0999 V2000
   10.3283  -15.4153   20.2324 N   0  0  0  0  0  0  0  0  0  0  0  0
    9.3326  -14.9876   21.1954 C   0  0  1  0  0  0  0  0  0  0  0  0
    7.9615  -15.4600   20.7615 C   0  0  0  0  0  0  0  0  0  0  0  0
    7.4829  -14.5556   19.6950 C   0  0  0  0  0  0  0  0  0  0  0  0
    7.2360  -15.0263   18.4273 C   0  0  0  0  0  0  0  0  0  0  0  0
    6.7830  -14.1831   17.4097 C   0  0  0  0  0  0  0  0  0  0  0  0
    6.5795  -12.8352   17.6948 C   0  0  0  0  0  0  0  0  0  0  0  0
    6.8233  -12.3582   18.9558 C   0  0  0  0  0  0  0  0  0  0  0  0
    7.2693  -13.2150   19.9378 C   0  0  0  0  0  0  0  0  0  0  0  0
    9.7152  -15.5273   22.5183 C   0  0  0  0  0  0  0  0  0  0  0  0
   10.6131  -16.3886   22.6366 O   0  0  0  0  0  0  0  0  0  0  0  0
    9.0369  -15.0445   23.6660 N   0  0  0  0  0  0  0  0  0  0  0  0
    9.6133  -15.2048   24.9695 C   0  0  1  0  0  0  0  0  0  0  0  0
    8.7515  -14.4294   25.9750 C   0  0  0  0  0  0  0  0  0  0  0  0
    9.2963  -14.5203   27.3320 C   0  0  0  0  0  0  0  0  0  0  0  0
    8.9019  -15.5283   28.1803 C   0  0  0  0  0  0  0  0  0  0  0  0
    9.4276  -15.6081   29.4774 C   0  0  0  0  0  0  0  0  0  0  0  0
   10.3393  -14.6873   29.9205 C   0  0  0  0  0  0  0  0  0  0  0  0
   10.7369  -13.6781   29.0771 C   0  0  0  0  0  0  0  0  0  0  0  0
   10.2115  -13.6023   27.7874 C   0  0  0  0  0  0  0  0  0  0  0  0
    9.6157  -16.6187   25.4202 C   0  0  0  0  0  0  0  0  0  0  0  0
    8.5115  -17.2201   25.4780 O   0  0  0  0  0  0  0  0  0  0  0  0
   10.7694  -17.3305   25.7866 N   0  0  0  0  0  0  0  0  0  0  0  0
   10.7469  -18.7275   26.1833 C   0  0  1  0  0  0  0  0  0  0  0  0
   11.7145  -19.5514   25.3604 C   0  0  0  0  0  0  0  0  0  0  0  0
   11.8399  -20.9673   25.7841 C   0  0  0  0  0  0  0  0  0  0  0  0
   12.0580  -21.9847   24.7363 C   0  0  0  0  0  0  0  0  0  0  0  0
   12.0377  -23.4106   25.1523 C   0  0  0  0  0  0  0  0  0  0  0  0
   12.3024  -24.2670   24.0265 N   0  0  0  0  0  0  0  0  0  0  0  0
   11.1554  -18.7864   27.6009 C   0  0  0  0  0  0  0  0  0  0  0  0
   12.1382  -17.9536   28.0975 O   0  0  0  0  0  0  0  0  0  0  0  0
   10.6105  -19.5976   28.3700 O   0  0  0  0  0  0  0  0  0  0  0  0
  2  1  1  6
  3  2  1  0
  3  4  1  0
  4  5  2  0
  5  6  1  0
  7  6  2  0
  8  7  1  0
  9  4  1  0
  9  8  2  0
 10 12  1  0
 10  2  1  0
 11 10  2  0
 13 12  1  0
 13 14  1  1
 15 16  2  0
 15 14  1  0
 17 16  1  0
 18 17  2  0
 19 18  1  0
 19 20  2  0
 20 15  1  0
 21 22  2  0
 21 13  1  0
 23 21  1  0
 24 25  1  6
 24 23  1  0
 26 27  1  0
 26 25  1  0
 27 28  1  0
 28 29  1  0
 30 24  1  0
 31 30  1  0
 32 30  2  0
M  END
$$$$
