DYT.pdb
     RDKit          3D

 28 28  0  0  1  0  0  0  0  0999 V2000
   20.3209  -10.9197  -21.1459 N   0  0  0  0  0  0  0  0  0  0  0  0
   20.9966   -9.7371  -20.5864 C   0  0  1  0  0  0  0  0  0  0  0  0
   20.4979   -8.4957  -21.2468 C   0  0  0  0  0  0  0  0  0  0  0  0
   20.9717   -8.2892  -22.6161 C   0  0  0  0  0  0  0  0  0  0  0  0
   21.9670   -8.8461  -23.1112 O   0  0  0  0  0  0  0  0  0  0  0  0
   20.6673   -9.7408  -19.1150 C   0  0  0  0  0  0  0  0  0  0  0  0
   19.5065   -9.9366  -18.7388 O   0  0  0  0  0  0  0  0  0  0  0  0
   20.2812   -7.4042  -23.4712 O   0  0  0  0  0  0  0  0  0  0  0  0
   19.4977  -15.6806  -17.0487 O   0  0  0  0  0  0  0  0  0  0  0  0
   20.0945  -14.4597  -16.7768 C   0  0  0  0  0  0  0  0  0  0  0  0
   19.6535  -13.6327  -15.7369 C   0  0  0  0  0  0  0  0  0  0  0  0
   20.2948  -12.4357  -15.5271 C   0  0  0  0  0  0  0  0  0  0  0  0
   21.3707  -12.0163  -16.3154 C   0  0  0  0  0  0  0  0  0  0  0  0
   21.9663  -10.7264  -16.0549 C   0  0  0  0  0  0  0  0  0  0  0  0
   21.3817   -9.5158  -16.6854 C   0  0  2  0  0  0  0  0  0  0  0  0
   21.6890   -9.5191  -18.1335 N   0  0  0  0  0  0  0  0  0  0  0  0
   21.9078   -8.2539  -16.1680 C   0  0  0  0  0  0  0  0  0  0  0  0
   23.0885   -7.8967  -16.5243 O   0  0  0  0  0  0  0  0  0  0  0  0
   21.7797  -12.8578  -17.3335 C   0  0  0  0  0  0  0  0  0  0  0  0
   21.1558  -14.0610  -17.5651 C   0  0  0  0  0  0  0  0  0  0  0  0
   19.7187   -4.8696  -15.1023 C   0  0  0  0  0  0  0  0  0  0  0  0
   21.1637   -4.9015  -15.5564 C   0  0  1  0  0  0  0  0  0  0  0  0
   21.7852   -3.7279  -15.1236 O   0  0  0  0  0  0  0  0  0  0  0  0
   21.8666   -6.0781  -14.9016 C   0  0  2  0  0  0  0  0  0  0  0  0
   21.2697   -7.3342  -15.3016 N   0  0  0  0  0  0  0  0  0  0  0  0
   22.0149   -5.9176  -13.4629 C   0  0  0  0  0  0  0  0  0  0  0  0
   21.5240   -6.8105  -12.5436 O   0  0  0  0  0  0  0  0  0  0  0  0
   22.6267   -4.9091  -12.9774 O   0  0  0  0  0  0  0  0  0  0  0  0
  2  1  1  6
  2  3  1  0
  4  3  1  0
  4  8  1  0
  5  4  2  0
  6  7  2  0
  6  2  1  0
  9 10  1  0
 10 11  2  0
 11 12  1  0
 13 12  2  0
 13 14  1  0
 15 14  1  1
 15 16  1  0
 16  6  1  0
 17 18  2  0
 17 15  1  0
 19 13  1  0
 20 10  1  0
 20 19  2  0
 22 21  1  1
 22 23  1  0
 24 22  1  0
 24 25  1  1
 25 17  1  0
 26 24  1  0
 27 26  1  0
 28 26  2  0
M  END
$$$$
