DYT.pdb
     RDKit          3D

 28 28  0  0  1  0  0  0  0  0999 V2000
   20.1800   -8.5427  -18.8075 N   0  0  0  0  0  0  0  0  0  0  0  0
   18.8761   -8.3879  -18.1411 C   0  0  1  0  0  0  0  0  0  0  0  0
   18.5498   -9.6114  -17.3523 C   0  0  0  0  0  0  0  0  0  0  0  0
   18.4838  -10.8501  -18.1293 C   0  0  0  0  0  0  0  0  0  0  0  0
   18.9040  -11.9529  -17.7383 O   0  0  0  0  0  0  0  0  0  0  0  0
   19.0199   -7.1844  -17.2443 C   0  0  0  0  0  0  0  0  0  0  0  0
   18.0810   -6.8323  -16.5218 O   0  0  0  0  0  0  0  0  0  0  0  0
   17.9107  -10.8393  -19.4188 O   0  0  0  0  0  0  0  0  0  0  0  0
   20.8973   -9.1708  -11.0925 O   0  0  0  0  0  0  0  0  0  0  0  0
   21.0626   -8.2767  -12.1385 C   0  0  0  0  0  0  0  0  0  0  0  0
   20.2842   -7.1189  -12.2558 C   0  0  0  0  0  0  0  0  0  0  0  0
   20.5053   -6.2790  -13.3206 C   0  0  0  0  0  0  0  0  0  0  0  0
   21.4792   -6.5407  -14.2890 C   0  0  0  0  0  0  0  0  0  0  0  0
   21.6234   -5.6277  -15.3989 C   0  0  0  0  0  0  0  0  0  0  0  0
   20.4446   -5.3278  -16.2506 C   0  0  2  0  0  0  0  0  0  0  0  0
   20.2410   -6.4329  -17.2142 N   0  0  0  0  0  0  0  0  0  0  0  0
   20.5765   -4.1147  -17.0555 C   0  0  0  0  0  0  0  0  0  0  0  0
   21.4778   -4.0877  -17.9697 O   0  0  0  0  0  0  0  0  0  0  0  0
   22.2293   -7.6929  -14.1420 C   0  0  0  0  0  0  0  0  0  0  0  0
   22.0290   -8.5506  -13.0861 C   0  0  0  0  0  0  0  0  0  0  0  0
   18.6679   -2.7747  -19.6649 C   0  0  0  0  0  0  0  0  0  0  0  0
   18.8200   -1.5753  -18.7518 C   0  0  1  0  0  0  0  0  0  0  0  0
   17.6779   -1.4851  -17.9527 O   0  0  0  0  0  0  0  0  0  0  0  0
   20.0177   -1.7892  -17.8425 C   0  0  2  0  0  0  0  0  0  0  0  0
   19.8159   -2.9242  -16.9678 N   0  0  0  0  0  0  0  0  0  0  0  0
   20.4317   -0.5732  -17.1587 C   0  0  0  0  0  0  0  0  0  0  0  0
   20.3791   -0.4111  -15.7970 O   0  0  0  0  0  0  0  0  0  0  0  0
   20.8758    0.4266  -17.8146 O   0  0  0  0  0  0  0  0  0  0  0  0
  2  1  1  1
  2  3  1  0
  4  3  1  0
  4  8  1  0
  5  4  2  0
  6  7  2  0
  6  2  1  0
  9 10  1  0
 10 11  2  0
 11 12  1  0
 13 12  2  0
 13 14  1  0
 15 14  1  6
 15 16  1  0
 16  6  1  0
 17 18  2  0
 17 15  1  0
 19 13  1  0
 20 10  1  0
 20 19  2  0
 22 21  1  6
 22 23  1  0
 24 22  1  0
 24 25  1  1
 25 17  1  0
 26 24  1  0
 27 26  1  0
 28 26  2  0
M  END
$$$$
