DYT.pdb
     RDKit          3D

 28 28  0  0  1  0  0  0  0  0999 V2000
   25.6410  -18.0373  -17.7732 N   0  0  0  0  0  0  0  0  0  0  0  0
   24.6827  -19.1059  -18.1019 C   0  0  1  0  0  0  0  0  0  0  0  0
   25.1973  -19.9324  -19.2322 C   0  0  0  0  0  0  0  0  0  0  0  0
   25.2987  -19.2340  -20.5145 C   0  0  0  0  0  0  0  0  0  0  0  0
   25.7706  -18.0934  -20.6626 O   0  0  0  0  0  0  0  0  0  0  0  0
   24.5455  -19.9275  -16.8451 C   0  0  0  0  0  0  0  0  0  0  0  0
   24.3647  -21.1480  -16.9175 O   0  0  0  0  0  0  0  0  0  0  0  0
   24.8411  -19.8612  -21.6929 O   0  0  0  0  0  0  0  0  0  0  0  0
   24.6843  -21.4893   -8.0096 O   0  0  0  0  0  0  0  0  0  0  0  0
   24.8165  -20.9740   -9.2894 C   0  0  0  0  0  0  0  0  0  0  0  0
   23.9518  -19.9922   -9.7877 C   0  0  0  0  0  0  0  0  0  0  0  0
   24.1448  -19.5290  -11.0668 C   0  0  0  0  0  0  0  0  0  0  0  0
   25.1733  -20.0040  -11.8862 C   0  0  0  0  0  0  0  0  0  0  0  0
   25.2855  -19.4937  -13.2328 C   0  0  0  0  0  0  0  0  0  0  0  0
   24.4616  -20.0986  -14.3098 C   0  0  2  0  0  0  0  0  0  0  0  0
   24.6227  -19.3109  -15.5527 N   0  0  0  0  0  0  0  0  0  0  0  0
   23.0266  -20.1172  -14.0315 C   0  0  0  0  0  0  0  0  0  0  0  0
   22.3700  -19.0206  -14.1544 O   0  0  0  0  0  0  0  0  0  0  0  0
   26.0084  -20.9734  -11.3619 C   0  0  0  0  0  0  0  0  0  0  0  0
   25.8378  -21.4543  -10.0851 C   0  0  0  0  0  0  0  0  0  0  0  0
   18.5913  -22.1325  -13.3264 C   0  0  0  0  0  0  0  0  0  0  0  0
   20.0169  -22.2482  -13.8264 C   0  0  1  0  0  0  0  0  0  0  0  0
   20.0033  -22.1387  -15.2188 O   0  0  0  0  0  0  0  0  0  0  0  0
   20.8359  -21.0967  -13.2693 C   0  0  2  0  0  0  0  0  0  0  0  0
   22.2301  -21.2189  -13.6371 N   0  0  0  0  0  0  0  0  0  0  0  0
   20.6089  -20.8778  -11.8488 C   0  0  0  0  0  0  0  0  0  0  0  0
   19.7923  -19.8928  -11.3522 O   0  0  0  0  0  0  0  0  0  0  0  0
   21.1759  -21.6141  -10.9750 O   0  0  0  0  0  0  0  0  0  0  0  0
  2  1  1  1
  2  3  1  0
  4  3  1  0
  4  8  1  0
  5  4  2  0
  6  7  2  0
  6  2  1  0
  9 10  1  0
 10 11  2  0
 11 12  1  0
 13 12  2  0
 13 14  1  0
 15 14  1  1
 15 16  1  0
 16  6  1  0
 17 18  2  0
 17 15  1  0
 19 13  1  0
 20 10  1  0
 20 19  2  0
 22 21  1  1
 22 23  1  0
 24 22  1  0
 24 25  1  1
 25 17  1  0
 26 24  1  0
 27 26  1  0
 28 26  2  0
M  END
$$$$
