DYT.pdb
     RDKit          3D

 28 28  0  0  1  0  0  0  0  0999 V2000
   22.2161  -12.1369  -17.8127 N   0  0  0  0  0  0  0  0  0  0  0  0
   21.4414  -10.9675  -18.2605 C   0  0  1  0  0  0  0  0  0  0  0  0
   20.0067  -11.3354  -18.4398 C   0  0  0  0  0  0  0  0  0  0  0  0
   19.6998  -12.0455  -19.6823 C   0  0  0  0  0  0  0  0  0  0  0  0
   20.5226  -12.2792  -20.5846 O   0  0  0  0  0  0  0  0  0  0  0  0
   21.6066   -9.9328  -17.1763 C   0  0  0  0  0  0  0  0  0  0  0  0
   21.3839  -10.2278  -15.9970 O   0  0  0  0  0  0  0  0  0  0  0  0
   18.3903  -12.5167  -19.9156 O   0  0  0  0  0  0  0  0  0  0  0  0
   27.5414  -10.8766  -15.2687 O   0  0  0  0  0  0  0  0  0  0  0  0
   26.5504   -9.9393  -15.5143 C   0  0  0  0  0  0  0  0  0  0  0  0
   25.5344   -9.6729  -14.5886 C   0  0  0  0  0  0  0  0  0  0  0  0
   24.5857   -8.7296  -14.9019 C   0  0  0  0  0  0  0  0  0  0  0  0
   24.6003   -8.0282  -16.1113 C   0  0  0  0  0  0  0  0  0  0  0  0
   23.5448   -7.0799  -16.3814 C   0  0  0  0  0  0  0  0  0  0  0  0
   22.1399   -7.5562  -16.4474 C   0  0  2  0  0  0  0  0  0  0  0  0
   22.0230   -8.5976  -17.4930 N   0  0  0  0  0  0  0  0  0  0  0  0
   21.1698   -6.5221  -16.8029 C   0  0  0  0  0  0  0  0  0  0  0  0
   21.3797   -5.8320  -17.8653 O   0  0  0  0  0  0  0  0  0  0  0  0
   25.6178   -8.3166  -17.0020 C   0  0  0  0  0  0  0  0  0  0  0  0
   26.5800   -9.2557  -16.7137 C   0  0  0  0  0  0  0  0  0  0  0  0
   17.7571   -6.7253  -17.9193 C   0  0  0  0  0  0  0  0  0  0  0  0
   17.6906   -5.6817  -16.8230 C   0  0  1  0  0  0  0  0  0  0  0  0
   17.2530   -6.3039  -15.6515 O   0  0  0  0  0  0  0  0  0  0  0  0
   19.0839   -5.1306  -16.5737 C   0  0  2  0  0  0  0  0  0  0  0  0
   19.9839   -6.1674  -16.1164 N   0  0  0  0  0  0  0  0  0  0  0  0
   19.0780   -3.9349  -15.7444 C   0  0  0  0  0  0  0  0  0  0  0  0
   18.4478   -2.7679  -16.0972 O   0  0  0  0  0  0  0  0  0  0  0  0
   19.6764   -3.9176  -14.6180 O   0  0  0  0  0  0  0  0  0  0  0  0
  2  1  1  1
  2  3  1  0
  4  3  1  0
  4  8  1  0
  5  4  2  0
  6  7  2  0
  6  2  1  0
  9 10  1  0
 10 11  2  0
 11 12  1  0
 13 12  2  0
 13 14  1  0
 15 14  1  6
 15 16  1  0
 16  6  1  0
 17 18  2  0
 17 15  1  0
 19 13  1  0
 20 10  1  0
 20 19  2  0
 22 21  1  6
 22 23  1  0
 24 22  1  0
 24 25  1  1
 25 17  1  0
 26 24  1  0
 27 26  1  0
 28 26  2  0
M  END
$$$$
