DYT.pdb
     RDKit          3D

 28 28  0  0  1  0  0  0  0  0999 V2000
   20.4288  -11.7704  -17.5985 N   0  0  0  0  0  0  0  0  0  0  0  0
   21.2744  -10.5649  -17.6080 C   0  0  1  0  0  0  0  0  0  0  0  0
   21.2889   -9.9540  -18.9690 C   0  0  0  0  0  0  0  0  0  0  0  0
   21.9357  -10.7622  -20.0038 C   0  0  0  0  0  0  0  0  0  0  0  0
   23.1126  -11.1601  -19.9573 O   0  0  0  0  0  0  0  0  0  0  0  0
   20.6581   -9.6300  -16.5983 C   0  0  0  0  0  0  0  0  0  0  0  0
   19.4296   -9.5683  -16.4776 O   0  0  0  0  0  0  0  0  0  0  0  0
   21.2103  -11.1402  -21.1538 O   0  0  0  0  0  0  0  0  0  0  0  0
   19.2839   -5.6274   -8.8829 O   0  0  0  0  0  0  0  0  0  0  0  0
   19.7283   -6.3138  -10.0019 C   0  0  0  0  0  0  0  0  0  0  0  0
   18.9833   -7.3464  -10.5840 C   0  0  0  0  0  0  0  0  0  0  0  0
   19.4884   -7.9817  -11.6928 C   0  0  0  0  0  0  0  0  0  0  0  0
   20.7186   -7.6328  -12.2583 C   0  0  0  0  0  0  0  0  0  0  0  0
   21.1975   -8.3751  -13.4010 C   0  0  0  0  0  0  0  0  0  0  0  0
   20.8924   -7.8813  -14.7677 C   0  0  2  0  0  0  0  0  0  0  0  0
   21.4816   -8.8022  -15.7657 N   0  0  0  0  0  0  0  0  0  0  0  0
   21.4436   -6.5610  -15.0677 C   0  0  0  0  0  0  0  0  0  0  0  0
   22.7162   -6.4496  -15.1978 O   0  0  0  0  0  0  0  0  0  0  0  0
   21.4275   -6.6088  -11.6576 C   0  0  0  0  0  0  0  0  0  0  0  0
   20.9453   -5.9563  -10.5475 C   0  0  0  0  0  0  0  0  0  0  0  0
   21.3607   -4.4238  -17.9368 C   0  0  0  0  0  0  0  0  0  0  0  0
   20.9728   -3.4798  -16.8170 C   0  0  1  0  0  0  0  0  0  0  0  0
   19.5815   -3.3561  -16.8101 O   0  0  0  0  0  0  0  0  0  0  0  0
   21.4010   -4.0790  -15.4885 C   0  0  2  0  0  0  0  0  0  0  0  0
   20.7423   -5.3447  -15.2476 N   0  0  0  0  0  0  0  0  0  0  0  0
   21.3037   -3.1345  -14.3858 C   0  0  0  0  0  0  0  0  0  0  0  0
   22.1035   -2.0262  -14.2611 O   0  0  0  0  0  0  0  0  0  0  0  0
   20.4444   -3.2995  -13.4577 O   0  0  0  0  0  0  0  0  0  0  0  0
  2  1  1  6
  2  3  1  0
  4  3  1  0
  4  8  1  0
  5  4  2  0
  6  7  2  0
  6  2  1  0
  9 10  1  0
 10 11  2  0
 11 12  1  0
 13 12  2  0
 13 14  1  0
 15 14  1  1
 15 16  1  0
 16  6  1  0
 17 18  2  0
 17 15  1  0
 19 13  1  0
 20 10  1  0
 20 19  2  0
 22 21  1  6
 22 23  1  0
 24 22  1  0
 24 25  1  1
 25 17  1  0
 26 24  1  0
 27 26  1  0
 28 26  2  0
M  END
$$$$
