DYT.pdb
     RDKit          3D

 28 28  0  0  1  0  0  0  0  0999 V2000
   22.7565  -10.1774  -18.4657 N   0  0  0  0  0  0  0  0  0  0  0  0
   21.4711   -9.4594  -18.4842 C   0  0  1  0  0  0  0  0  0  0  0  0
   20.4851  -10.1857  -19.3362 C   0  0  0  0  0  0  0  0  0  0  0  0
   20.6665  -10.0126  -20.7783 C   0  0  0  0  0  0  0  0  0  0  0  0
   21.5633   -9.3283  -21.3007 O   0  0  0  0  0  0  0  0  0  0  0  0
   21.0154   -9.4078  -17.0478 C   0  0  0  0  0  0  0  0  0  0  0  0
   20.9266  -10.4482  -16.3866 O   0  0  0  0  0  0  0  0  0  0  0  0
   19.7844  -10.6490  -21.6774 O   0  0  0  0  0  0  0  0  0  0  0  0
   26.0809   -5.9798  -16.7151 O   0  0  0  0  0  0  0  0  0  0  0  0
   24.9064   -6.3624  -16.0865 C   0  0  0  0  0  0  0  0  0  0  0  0
   24.6296   -7.7003  -15.7807 C   0  0  0  0  0  0  0  0  0  0  0  0
   23.4437   -8.0038  -15.1564 C   0  0  0  0  0  0  0  0  0  0  0  0
   22.5059   -7.0239  -14.8169 C   0  0  0  0  0  0  0  0  0  0  0  0
   21.2659   -7.4291  -14.1969 C   0  0  0  0  0  0  0  0  0  0  0  0
   20.2240   -8.0917  -15.0216 C   0  0  2  0  0  0  0  0  0  0  0  0
   20.6801   -8.1588  -16.4283 N   0  0  0  0  0  0  0  0  0  0  0  0
   18.9421   -7.3898  -15.0499 C   0  0  0  0  0  0  0  0  0  0  0  0
   18.8967   -6.2304  -15.6000 O   0  0  0  0  0  0  0  0  0  0  0  0
   22.8119   -5.7132  -15.1338 C   0  0  0  0  0  0  0  0  0  0  0  0
   23.9913   -5.3818  -15.7582 C   0  0  0  0  0  0  0  0  0  0  0  0
   14.0075   -7.0918  -14.6978 C   0  0  0  0  0  0  0  0  0  0  0  0
   15.2508   -7.9370  -14.5097 C   0  0  1  0  0  0  0  0  0  0  0  0
   15.2875   -8.8949  -15.5255 O   0  0  0  0  0  0  0  0  0  0  0  0
   16.4794   -7.0546  -14.6471 C   0  0  2  0  0  0  0  0  0  0  0  0
   17.6965   -7.8302  -14.5419 N   0  0  0  0  0  0  0  0  0  0  0  0
   16.4366   -5.8879  -13.7784 C   0  0  0  0  0  0  0  0  0  0  0  0
   16.0973   -4.6302  -14.2105 O   0  0  0  0  0  0  0  0  0  0  0  0
   16.7209   -5.9852  -12.5387 O   0  0  0  0  0  0  0  0  0  0  0  0
  2  1  1  1
  2  3  1  0
  4  3  1  0
  4  8  1  0
  5  4  2  0
  6  7  2  0
  6  2  1  0
  9 10  1  0
 10 11  2  0
 11 12  1  0
 13 12  2  0
 13 14  1  0
 15 14  1  1
 15 16  1  0
 16  6  1  0
 17 18  2  0
 17 15  1  0
 19 13  1  0
 20 10  1  0
 20 19  2  0
 22 21  1  6
 22 23  1  0
 24 22  1  0
 24 25  1  1
 25 17  1  0
 26 24  1  0
 27 26  1  0
 28 26  2  0
M  END
$$$$
