DYT.pdb
     RDKit          3D

 28 28  0  0  1  0  0  0  0  0999 V2000
   18.8018  -14.4340  -16.5344 N   0  0  0  0  0  0  0  0  0  0  0  0
   18.8198  -13.2163  -17.3621 C   0  0  1  0  0  0  0  0  0  0  0  0
   17.5527  -13.1018  -18.1412 C   0  0  0  0  0  0  0  0  0  0  0  0
   17.3334  -14.1616  -19.1266 C   0  0  0  0  0  0  0  0  0  0  0  0
   17.9457  -14.2628  -20.2039 O   0  0  0  0  0  0  0  0  0  0  0  0
   18.9685  -12.0704  -16.3934 C   0  0  0  0  0  0  0  0  0  0  0  0
   18.3977  -12.1051  -15.2977 O   0  0  0  0  0  0  0  0  0  0  0  0
   16.3686  -15.1611  -18.8785 O   0  0  0  0  0  0  0  0  0  0  0  0
   22.6999   -4.5711  -13.1374 O   0  0  0  0  0  0  0  0  0  0  0  0
   22.3298   -5.7831  -13.6988 C   0  0  0  0  0  0  0  0  0  0  0  0
   21.8110   -6.8307  -12.9285 C   0  0  0  0  0  0  0  0  0  0  0  0
   21.4659   -8.0038  -13.5552 C   0  0  0  0  0  0  0  0  0  0  0  0
   21.6152   -8.1866  -14.9334 C   0  0  0  0  0  0  0  0  0  0  0  0
   21.2651   -9.4636  -15.5104 C   0  0  0  0  0  0  0  0  0  0  0  0
   19.8439   -9.7507  -15.8308 C   0  0  2  0  0  0  0  0  0  0  0  0
   19.7701  -10.9284  -16.7246 N   0  0  0  0  0  0  0  0  0  0  0  0
   19.1555   -8.6704  -16.5352 C   0  0  0  0  0  0  0  0  0  0  0  0
   19.4797   -8.4381  -17.7558 O   0  0  0  0  0  0  0  0  0  0  0  0
   22.1306   -7.1312  -15.6631 C   0  0  0  0  0  0  0  0  0  0  0  0
   22.4839   -5.9465  -15.0613 C   0  0  0  0  0  0  0  0  0  0  0  0
   15.5741   -7.9858  -17.4022 C   0  0  0  0  0  0  0  0  0  0  0  0
   16.0831   -6.7061  -16.7708 C   0  0  1  0  0  0  0  0  0  0  0  0
   15.6714   -6.6817  -15.4363 O   0  0  0  0  0  0  0  0  0  0  0  0
   17.6019   -6.7066  -16.7972 C   0  0  2  0  0  0  0  0  0  0  0  0
   18.1391   -7.8179  -16.0419 N   0  0  0  0  0  0  0  0  0  0  0  0
   18.1729   -5.4144  -16.4483 C   0  0  0  0  0  0  0  0  0  0  0  0
   18.0061   -4.2805  -17.2033 O   0  0  0  0  0  0  0  0  0  0  0  0
   18.8753   -5.2736  -15.3929 O   0  0  0  0  0  0  0  0  0  0  0  0
  2  1  1  1
  2  3  1  0
  4  3  1  0
  4  8  1  0
  5  4  2  0
  6  7  2  0
  6  2  1  0
  9 10  1  0
 10 11  2  0
 11 12  1  0
 13 12  2  0
 13 14  1  0
 15 14  1  6
 15 16  1  0
 16  6  1  0
 17 18  2  0
 17 15  1  0
 19 13  1  0
 20 10  1  0
 20 19  2  0
 22 21  1  1
 22 23  1  0
 24 22  1  0
 24 25  1  1
 25 17  1  0
 26 24  1  0
 27 26  1  0
 28 26  2  0
M  END
$$$$
