DYT.pdb
     RDKit          3D

 28 28  0  0  1  0  0  0  0  0999 V2000
   22.4952  -11.6564  -19.4728 N   0  0  0  0  0  0  0  0  0  0  0  0
   23.0511  -10.3309  -19.1531 C   0  0  1  0  0  0  0  0  0  0  0  0
   23.3837   -9.5935  -20.4067 C   0  0  0  0  0  0  0  0  0  0  0  0
   24.5773  -10.0695  -21.1074 C   0  0  0  0  0  0  0  0  0  0  0  0
   25.3819   -9.3380  -21.7100 O   0  0  0  0  0  0  0  0  0  0  0  0
   21.9762   -9.6188  -18.3715 C   0  0  0  0  0  0  0  0  0  0  0  0
   20.8364   -9.5128  -18.8373 O   0  0  0  0  0  0  0  0  0  0  0  0
   24.8760  -11.4485  -21.1266 O   0  0  0  0  0  0  0  0  0  0  0  0
   16.8520  -13.2472  -16.2607 O   0  0  0  0  0  0  0  0  0  0  0  0
   17.8330  -12.3007  -16.0106 C   0  0  0  0  0  0  0  0  0  0  0  0
   19.1792  -12.6505  -15.8513 C   0  0  0  0  0  0  0  0  0  0  0  0
   20.0957  -11.6567  -15.6055 C   0  0  0  0  0  0  0  0  0  0  0  0
   19.7302  -10.3105  -15.5090 C   0  0  0  0  0  0  0  0  0  0  0  0
   20.7481   -9.3303  -15.2101 C   0  0  0  0  0  0  0  0  0  0  0  0
   21.1992   -8.4028  -16.2783 C   0  0  2  0  0  0  0  0  0  0  0  0
   22.2563   -9.0565  -17.0823 N   0  0  0  0  0  0  0  0  0  0  0  0
   21.7843   -7.1568  -15.7861 C   0  0  0  0  0  0  0  0  0  0  0  0
   22.9664   -7.1969  -15.2864 O   0  0  0  0  0  0  0  0  0  0  0  0
   18.3924  -10.0011  -15.6715 C   0  0  0  0  0  0  0  0  0  0  0  0
   17.4546  -10.9758  -15.9186 C   0  0  0  0  0  0  0  0  0  0  0  0
   21.9680   -2.2354  -15.1285 C   0  0  0  0  0  0  0  0  0  0  0  0
   21.1959   -3.4177  -15.6774 C   0  0  1  0  0  0  0  0  0  0  0  0
   21.2514   -3.3681  -17.0722 O   0  0  0  0  0  0  0  0  0  0  0  0
   21.8638   -4.7041  -15.2230 C   0  0  2  0  0  0  0  0  0  0  0  0
   21.2094   -5.8634  -15.7902 N   0  0  0  0  0  0  0  0  0  0  0  0
   22.0468   -4.7662  -13.7807 C   0  0  0  0  0  0  0  0  0  0  0  0
   23.1838   -4.3423  -13.1396 O   0  0  0  0  0  0  0  0  0  0  0  0
   21.1305   -5.2314  -13.0250 O   0  0  0  0  0  0  0  0  0  0  0  0
  2  1  1  6
  2  3  1  0
  4  3  1  0
  4  8  1  0
  5  4  2  0
  6  7  2  0
  6  2  1  0
  9 10  1  0
 10 11  2  0
 11 12  1  0
 13 12  2  0
 13 14  1  0
 15 14  1  1
 15 16  1  0
 16  6  1  0
 17 18  2  0
 17 15  1  0
 19 13  1  0
 20 10  1  0
 20 19  2  0
 22 21  1  1
 22 23  1  0
 24 22  1  0
 24 25  1  1
 25 17  1  0
 26 24  1  0
 27 26  1  0
 28 26  2  0
M  END
$$$$
