DYT.pdb
     RDKit          3D

 28 28  0  0  1  0  0  0  0  0999 V2000
   28.4691  -23.7500  -17.2077 N   0  0  0  0  0  0  0  0  0  0  0  0
   28.0899  -22.3593  -16.9068 C   0  0  1  0  0  0  0  0  0  0  0  0
   27.4977  -21.7121  -18.1135 C   0  0  0  0  0  0  0  0  0  0  0  0
   28.4497  -21.4050  -19.1820 C   0  0  0  0  0  0  0  0  0  0  0  0
   29.3704  -20.5745  -19.0911 O   0  0  0  0  0  0  0  0  0  0  0  0
   27.0839  -22.4470  -15.7871 C   0  0  0  0  0  0  0  0  0  0  0  0
   26.4041  -23.4688  -15.6415 O   0  0  0  0  0  0  0  0  0  0  0  0
   28.3540  -22.0747  -20.4204 O   0  0  0  0  0  0  0  0  0  0  0  0
   23.7443  -20.5107   -7.7332 O   0  0  0  0  0  0  0  0  0  0  0  0
   24.4279  -20.5255   -8.9387 C   0  0  0  0  0  0  0  0  0  0  0  0
   23.8721  -20.0062  -10.1140 C   0  0  0  0  0  0  0  0  0  0  0  0
   24.6100  -20.0558  -11.2721 C   0  0  0  0  0  0  0  0  0  0  0  0
   25.8945  -20.6064  -11.3166 C   0  0  0  0  0  0  0  0  0  0  0  0
   26.5896  -20.6557  -12.5817 C   0  0  0  0  0  0  0  0  0  0  0  0
   26.0317  -21.4775  -13.6854 C   0  0  2  0  0  0  0  0  0  0  0  0
   26.9004  -21.3535  -14.8776 N   0  0  0  0  0  0  0  0  0  0  0  0
   24.6957  -21.0740  -14.1205 C   0  0  0  0  0  0  0  0  0  0  0  0
   24.5756  -19.9736  -14.7711 O   0  0  0  0  0  0  0  0  0  0  0  0
   26.4121  -21.1101  -10.1375 C   0  0  0  0  0  0  0  0  0  0  0  0
   25.6954  -21.0729   -8.9647 C   0  0  0  0  0  0  0  0  0  0  0  0
   22.5999  -21.9169  -16.6499 C   0  0  0  0  0  0  0  0  0  0  0  0
   21.6130  -21.9672  -15.5015 C   0  0  1  0  0  0  0  0  0  0  0  0
   21.4428  -23.3023  -15.1280 O   0  0  0  0  0  0  0  0  0  0  0  0
   22.1894  -21.2140  -14.3150 C   0  0  2  0  0  0  0  0  0  0  0  0
   23.4719  -21.7569  -13.9221 N   0  0  0  0  0  0  0  0  0  0  0  0
   21.2398  -21.0712  -13.2217 C   0  0  0  0  0  0  0  0  0  0  0  0
   20.0551  -20.3867  -13.3280 O   0  0  0  0  0  0  0  0  0  0  0  0
   21.4733  -21.5919  -12.0809 O   0  0  0  0  0  0  0  0  0  0  0  0
  2  1  1  6
  2  3  1  0
  4  3  1  0
  4  8  1  0
  5  4  2  0
  6  7  2  0
  6  2  1  0
  9 10  1  0
 10 11  2  0
 11 12  1  0
 13 12  2  0
 13 14  1  0
 15 14  1  1
 15 16  1  0
 16  6  1  0
 17 18  2  0
 17 15  1  0
 19 13  1  0
 20 10  1  0
 20 19  2  0
 22 21  1  6
 22 23  1  0
 24 22  1  0
 24 25  1  1
 25 17  1  0
 26 24  1  0
 27 26  1  0
 28 26  2  0
M  END
$$$$
