DYT.pdb
     RDKit          3D

 28 28  0  0  1  0  0  0  0  0999 V2000
   21.7566  -11.0201  -18.2324 N   0  0  0  0  0  0  0  0  0  0  0  0
   22.4015   -9.8059  -18.7600 C   0  0  1  0  0  0  0  0  0  0  0  0
   22.2082   -9.7177  -20.2366 C   0  0  0  0  0  0  0  0  0  0  0  0
   22.9959  -10.6686  -21.0224 C   0  0  0  0  0  0  0  0  0  0  0  0
   23.7413  -11.5384  -20.5392 O   0  0  0  0  0  0  0  0  0  0  0  0
   21.7336   -8.6532  -18.0538 C   0  0  0  0  0  0  0  0  0  0  0  0
   20.5022   -8.6142  -17.9557 O   0  0  0  0  0  0  0  0  0  0  0  0
   22.9363  -10.6327  -22.4319 O   0  0  0  0  0  0  0  0  0  0  0  0
   19.1095   -9.0627  -11.4048 O   0  0  0  0  0  0  0  0  0  0  0  0
   19.9162   -8.4759  -12.3669 C   0  0  0  0  0  0  0  0  0  0  0  0
   21.1649   -9.0059  -12.7129 C   0  0  0  0  0  0  0  0  0  0  0  0
   21.9092   -8.3690  -13.6765 C   0  0  0  0  0  0  0  0  0  0  0  0
   21.4629   -7.2117  -14.3217 C   0  0  0  0  0  0  0  0  0  0  0  0
   22.3218   -6.5801  -15.2962 C   0  0  0  0  0  0  0  0  0  0  0  0
   21.8786   -6.4992  -16.7110 C   0  0  2  0  0  0  0  0  0  0  0  0
   22.5109   -7.5897  -17.4870 N   0  0  0  0  0  0  0  0  0  0  0  0
   22.2509   -5.2585  -17.3885 C   0  0  0  0  0  0  0  0  0  0  0  0
   23.4976   -4.9618  -17.4701 O   0  0  0  0  0  0  0  0  0  0  0  0
   20.2252   -6.7159  -13.9553 C   0  0  0  0  0  0  0  0  0  0  0  0
   19.4599   -7.3335  -12.9943 C   0  0  0  0  0  0  0  0  0  0  0  0
   21.6592   -4.1618  -20.9047 C   0  0  0  0  0  0  0  0  0  0  0  0
   21.2554   -2.9796  -20.0475 C   0  0  1  0  0  0  0  0  0  0  0  0
   19.8669   -3.0012  -19.8972 O   0  0  0  0  0  0  0  0  0  0  0  0
   21.8824   -3.1237  -18.6715 C   0  0  2  0  0  0  0  0  0  0  0  0
   21.3964   -4.3071  -17.9952 N   0  0  0  0  0  0  0  0  0  0  0  0
   21.7958   -1.9049  -17.8813 C   0  0  0  0  0  0  0  0  0  0  0  0
   22.4229   -0.7323  -18.2209 O   0  0  0  0  0  0  0  0  0  0  0  0
   21.1121   -1.8709  -16.8049 O   0  0  0  0  0  0  0  0  0  0  0  0
  2  1  1  1
  2  3  1  0
  4  3  1  0
  4  8  1  0
  5  4  2  0
  6  7  2  0
  6  2  1  0
  9 10  1  0
 10 11  2  0
 11 12  1  0
 13 12  2  0
 13 14  1  0
 15 14  1  1
 15 16  1  0
 16  6  1  0
 17 18  2  0
 17 15  1  0
 19 13  1  0
 20 10  1  0
 20 19  2  0
 22 21  1  6
 22 23  1  0
 24 22  1  0
 24 25  1  1
 25 17  1  0
 26 24  1  0
 27 26  1  0
 28 26  2  0
M  END
$$$$
