DYT.pdb
     RDKit          3D

 28 28  0  0  1  0  0  0  0  0999 V2000
   22.9084  -11.5126  -19.5084 N   0  0  0  0  0  0  0  0  0  0  0  0
   23.5710  -10.4006  -18.8065 C   0  0  1  0  0  0  0  0  0  0  0  0
   24.3557   -9.5751  -19.7700 C   0  0  0  0  0  0  0  0  0  0  0  0
   25.5382  -10.2319  -20.3290 C   0  0  0  0  0  0  0  0  0  0  0  0
   25.8521  -10.2181  -21.5318 O   0  0  0  0  0  0  0  0  0  0  0  0
   22.4592   -9.5971  -18.1806 C   0  0  0  0  0  0  0  0  0  0  0  0
   21.4230   -9.3709  -18.8151 O   0  0  0  0  0  0  0  0  0  0  0  0
   26.4127  -10.9429  -19.4798 O   0  0  0  0  0  0  0  0  0  0  0  0
   17.5652  -13.5594  -16.6098 O   0  0  0  0  0  0  0  0  0  0  0  0
   18.4012  -12.5138  -16.2509 C   0  0  0  0  0  0  0  0  0  0  0  0
   19.6649  -12.7325  -15.6895 C   0  0  0  0  0  0  0  0  0  0  0  0
   20.4382  -11.6459  -15.3588 C   0  0  0  0  0  0  0  0  0  0  0  0
   20.0067  -10.3318  -15.5634 C   0  0  0  0  0  0  0  0  0  0  0  0
   20.8634   -9.2437  -15.1531 C   0  0  0  0  0  0  0  0  0  0  0  0
   21.4703   -8.3676  -16.1870 C   0  0  2  0  0  0  0  0  0  0  0  0
   22.5842   -9.0853  -16.8468 N   0  0  0  0  0  0  0  0  0  0  0  0
   22.0461   -7.1296  -15.6647 C   0  0  0  0  0  0  0  0  0  0  0  0
   23.0595   -7.2149  -14.8806 O   0  0  0  0  0  0  0  0  0  0  0  0
   18.7535  -10.1528  -16.1196 C   0  0  0  0  0  0  0  0  0  0  0  0
   17.9593  -11.2224  -16.4599 C   0  0  0  0  0  0  0  0  0  0  0  0
   22.5306   -3.7225  -17.6368 C   0  0  0  0  0  0  0  0  0  0  0  0
   22.0829   -3.4140  -16.2226 C   0  0  1  0  0  0  0  0  0  0  0  0
   20.7166   -3.1254  -16.2484 O   0  0  0  0  0  0  0  0  0  0  0  0
   22.2903   -4.6430  -15.3544 C   0  0  2  0  0  0  0  0  0  0  0  0
   21.6299   -5.8007  -15.9179 N   0  0  0  0  0  0  0  0  0  0  0  0
   21.9830   -4.4023  -13.9525 C   0  0  0  0  0  0  0  0  0  0  0  0
   22.6362   -3.4756  -13.1791 O   0  0  0  0  0  0  0  0  0  0  0  0
   21.0645   -5.0617  -13.3621 O   0  0  0  0  0  0  0  0  0  0  0  0
  2  1  1  6
  2  3  1  0
  4  3  1  0
  4  8  1  0
  5  4  2  0
  6  7  2  0
  6  2  1  0
  9 10  1  0
 10 11  2  0
 11 12  1  0
 13 12  2  0
 13 14  1  0
 15 14  1  1
 15 16  1  0
 16  6  1  0
 17 18  2  0
 17 15  1  0
 19 13  1  0
 20 10  1  0
 20 19  2  0
 22 21  1  6
 22 23  1  0
 24 22  1  0
 24 25  1  6
 25 17  1  0
 26 24  1  0
 27 26  1  0
 28 26  2  0
M  END
$$$$
