SVP.pdb
     RDKit          3D

 21 21  0  0  1  0  0  0  0  0999 V2000
    9.7832  -16.9319   21.5695 O   0  0  0  0  0  0  0  0  0  0  0  0
    9.2720  -16.0649   20.6341 C   0  0  0  0  0  0  0  0  0  0  0  0
    8.0754  -15.2813   21.1210 C   0  0  2  0  0  0  0  0  0  0  0  0
    7.7008  -14.3733   20.0587 N   0  0  0  0  0  0  0  0  0  0  0  0
    8.3784  -14.4821   22.3217 C   0  0  0  0  0  0  0  0  0  0  0  0
    9.0237  -13.4402   22.2365 O   0  0  0  0  0  0  0  0  0  0  0  0
    5.9075  -14.5423   25.7550 C   0  0  0  0  0  0  0  0  0  0  0  0
    6.9581  -13.5121   25.4389 C   0  0  1  0  0  0  0  0  0  0  0  0
    7.2435  -12.5746   26.5485 C   0  0  0  0  0  0  0  0  0  0  0  0
    8.1308  -14.1886   24.8084 C   0  0  2  0  0  0  0  0  0  0  0  0
    7.9467  -14.8722   23.6071 N   0  0  0  0  0  0  0  0  0  0  0  0
    8.9554  -14.9349   25.7761 C   0  0  0  0  0  0  0  0  0  0  0  0
    9.1120  -16.2101   25.5886 O   0  0  0  0  0  0  0  0  0  0  0  0
    9.6214  -14.4300   26.9188 N   0  0  0  0  0  0  0  0  0  0  0  0
    9.5875  -13.1090   27.4795 C   0  0  0  0  0  0  0  0  0  0  0  0
   10.1218  -13.2611   28.8960 C   0  0  0  0  0  0  0  0  0  0  0  0
   11.0105  -14.4818   28.8513 C   0  0  0  0  0  0  0  0  0  0  0  0
   10.5068  -15.2985   27.7214 C   0  0  1  0  0  0  0  0  0  0  0  0
    9.7344  -16.4457   28.2635 C   0  0  0  0  0  0  0  0  0  0  0  0
   10.4240  -17.4464   28.9012 O   0  0  0  0  0  0  0  0  0  0  0  0
    8.4986  -16.5201   28.1553 O   0  0  0  0  0  0  0  0  0  0  0  0
  2  1  1  0
  3  4  1  6
  3  2  1  0
  5  6  2  0
  5  3  1  0
  8  7  1  1
  8 10  1  0
  9  8  1  0
 10 11  1  6
 10 12  1  0
 11  5  1  0
 12 14  1  0
 13 12  2  0
 14 15  1  0
 14 18  1  0
 15 16  1  0
 16 17  1  0
 18 17  1  0
 19 20  1  0
 18 19  1  1
 21 19  2  0
M  END
$$$$
