SVP.pdb
     RDKit          3D

 21 21  0  0  1  0  0  0  0  0999 V2000
   11.7440  -16.3299   21.3131 O   0  0  0  0  0  0  0  0  0  0  0  0
   10.5341  -16.9566   21.1360 C   0  0  0  0  0  0  0  0  0  0  0  0
    9.3578  -16.0090   21.1008 C   0  0  2  0  0  0  0  0  0  0  0  0
    9.5217  -15.1707   19.9330 N   0  0  0  0  0  0  0  0  0  0  0  0
    9.3040  -15.1366   22.2875 C   0  0  0  0  0  0  0  0  0  0  0  0
    9.6698  -13.9655   22.2233 O   0  0  0  0  0  0  0  0  0  0  0  0
    6.3286  -15.5644   25.1031 C   0  0  0  0  0  0  0  0  0  0  0  0
    7.2495  -14.3778   25.0084 C   0  0  1  0  0  0  0  0  0  0  0  0
    7.1124  -13.4115   26.1215 C   0  0  0  0  0  0  0  0  0  0  0  0
    8.6296  -14.8550   24.6951 C   0  0  2  0  0  0  0  0  0  0  0  0
    8.8360  -15.6006   23.5351 N   0  0  0  0  0  0  0  0  0  0  0  0
    9.3289  -15.4090   25.8687 C   0  0  0  0  0  0  0  0  0  0  0  0
    9.5690  -16.6849   25.8896 O   0  0  0  0  0  0  0  0  0  0  0  0
    9.7890  -14.7129   27.0123 N   0  0  0  0  0  0  0  0  0  0  0  0
    9.5215  -13.3634   27.4222 C   0  0  0  0  0  0  0  0  0  0  0  0
    9.9050  -13.3080   28.8937 C   0  0  0  0  0  0  0  0  0  0  0  0
   10.9424  -14.3918   29.0699 C   0  0  0  0  0  0  0  0  0  0  0  0
   10.6808  -15.3716   27.9887 C   0  0  1  0  0  0  0  0  0  0  0  0
   10.0053  -16.5602   28.5694 C   0  0  0  0  0  0  0  0  0  0  0  0
   10.7447  -17.4016   29.3624 O   0  0  0  0  0  0  0  0  0  0  0  0
    8.8058  -16.8074   28.3581 O   0  0  0  0  0  0  0  0  0  0  0  0
  2  1  1  0
  3  4  1  6
  3  2  1  0
  5  6  2  0
  5  3  1  0
  8  7  1  1
  8 10  1  0
  9  8  1  0
 10 11  1  6
 10 12  1  0
 11  5  1  0
 12 14  1  0
 13 12  2  0
 14 15  1  0
 14 18  1  0
 15 16  1  0
 16 17  1  0
 18 17  1  0
 19 20  1  0
 18 19  1  1
 21 19  2  0
M  END
$$$$
