SVP.pdb
     RDKit          3D

 21 21  0  0  1  0  0  0  0  0999 V2000
   10.2277  -16.1731   21.0690 O   0  0  0  0  0  0  0  0  0  0  0  0
    8.8692  -16.3787   21.0665 C   0  0  0  0  0  0  0  0  0  0  0  0
    8.0613  -15.1066   21.1754 C   0  0  2  0  0  0  0  0  0  0  0  0
    8.4032  -14.2866   20.0335 N   0  0  0  0  0  0  0  0  0  0  0  0
    8.3757  -14.3448   22.3974 C   0  0  0  0  0  0  0  0  0  0  0  0
    9.2059  -13.4394   22.3771 O   0  0  0  0  0  0  0  0  0  0  0  0
    5.8224  -14.4068   25.9209 C   0  0  0  0  0  0  0  0  0  0  0  0
    6.8446  -13.3575   25.5754 C   0  0  1  0  0  0  0  0  0  0  0  0
    7.1854  -12.4494   26.6937 C   0  0  0  0  0  0  0  0  0  0  0  0
    7.9847  -14.0040   24.8595 C   0  0  2  0  0  0  0  0  0  0  0  0
    7.7457  -14.6172   23.6302 N   0  0  0  0  0  0  0  0  0  0  0  0
    8.8422  -14.8090   25.7484 C   0  0  0  0  0  0  0  0  0  0  0  0
    8.9656  -16.0762   25.4936 O   0  0  0  0  0  0  0  0  0  0  0  0
    9.5732  -14.3701   26.8786 N   0  0  0  0  0  0  0  0  0  0  0  0
    9.5565  -13.0910   27.5297 C   0  0  0  0  0  0  0  0  0  0  0  0
   10.1833  -13.3285   28.8958 C   0  0  0  0  0  0  0  0  0  0  0  0
   11.0847  -14.5266   28.7111 C   0  0  0  0  0  0  0  0  0  0  0  0
   10.5210  -15.2742   27.5618 C   0  0  1  0  0  0  0  0  0  0  0  0
    9.8018  -16.4697   28.0717 C   0  0  0  0  0  0  0  0  0  0  0  0
   10.5443  -17.4911   28.6092 O   0  0  0  0  0  0  0  0  0  0  0  0
    8.5636  -16.5660   28.0242 O   0  0  0  0  0  0  0  0  0  0  0  0
  2  1  1  0
  3  4  1  6
  3  2  1  0
  5  6  2  0
  5  3  1  0
  8  7  1  1
  8 10  1  0
  9  8  1  0
 10 11  1  6
 10 12  1  0
 11  5  1  0
 12 14  1  0
 13 12  2  0
 14 15  1  0
 14 18  1  0
 15 16  1  0
 16 17  1  0
 18 17  1  0
 19 20  1  0
 18 19  1  1
 21 19  2  0
M  END
$$$$
