SVP.pdb
     RDKit          3D

 21 21  0  0  1  0  0  0  0  0999 V2000
    5.4110  -19.2749   22.8671 O   0  0  0  0  0  0  0  0  0  0  0  0
    6.7395  -19.6214   22.9192 C   0  0  0  0  0  0  0  0  0  0  0  0
    7.2306  -19.9408   24.3120 C   0  0  2  0  0  0  0  0  0  0  0  0
    6.4152  -21.0263   24.8120 N   0  0  0  0  0  0  0  0  0  0  0  0
    7.0886  -18.7989   25.2329 C   0  0  0  0  0  0  0  0  0  0  0  0
    6.1462  -18.7391   26.0188 O   0  0  0  0  0  0  0  0  0  0  0  0
    9.0201  -15.3831   27.9877 C   0  0  0  0  0  0  0  0  0  0  0  0
    9.0135  -16.7170   27.2907 C   0  0  1  0  0  0  0  0  0  0  0  0
    8.9000  -17.8783   28.2018 C   0  0  0  0  0  0  0  0  0  0  0  0
    8.0589  -16.6634   26.1434 C   0  0  2  0  0  0  0  0  0  0  0  0
    8.0164  -17.7361   25.2536 N   0  0  0  0  0  0  0  0  0  0  0  0
    8.0414  -15.3530   25.4682 C   0  0  0  0  0  0  0  0  0  0  0  0
    8.9388  -15.1235   24.5583 O   0  0  0  0  0  0  0  0  0  0  0  0
    7.1471  -14.2773   25.6860 N   0  0  0  0  0  0  0  0  0  0  0  0
    6.0418  -14.1860   26.5973 C   0  0  0  0  0  0  0  0  0  0  0  0
    5.7338  -12.6999   26.7061 C   0  0  0  0  0  0  0  0  0  0  0  0
    6.2213  -12.1019   25.4074 C   0  0  0  0  0  0  0  0  0  0  0  0
    7.2750  -13.0222   24.9173 C   0  0  1  0  0  0  0  0  0  0  0  0
    8.6044  -12.4086   25.1677 C   0  0  0  0  0  0  0  0  0  0  0  0
    8.9695  -11.3242   24.4099 O   0  0  0  0  0  0  0  0  0  0  0  0
    9.3816  -12.8463   26.0330 O   0  0  0  0  0  0  0  0  0  0  0  0
  2  1  1  0
  3  4  1  1
  3  2  1  0
  5  6  2  0
  5  3  1  0
  8  7  1  1
  8 10  1  0
  9  8  1  0
 10 11  1  6
 10 12  1  0
 11  5  1  0
 12 14  1  0
 13 12  2  0
 14 15  1  0
 14 18  1  0
 15 16  1  0
 16 17  1  0
 18 17  1  0
 19 20  1  0
 18 19  1  1
 21 19  2  0
M  END
$$$$
