SVP.pdb
     RDKit          3D

 21 21  0  0  1  0  0  0  0  0999 V2000
    9.8088  -14.4040   20.1446 O   0  0  0  0  0  0  0  0  0  0  0  0
    9.1657  -15.3939   19.4414 C   0  0  0  0  0  0  0  0  0  0  0  0
    8.7417  -16.5677   20.2931 C   0  0  2  0  0  0  0  0  0  0  0  0
    8.0131  -17.4755   19.4337 N   0  0  0  0  0  0  0  0  0  0  0  0
    7.8511  -16.1676   21.3972 C   0  0  0  0  0  0  0  0  0  0  0  0
    6.6514  -15.9877   21.2029 O   0  0  0  0  0  0  0  0  0  0  0  0
    8.2802  -18.1138   24.7351 C   0  0  0  0  0  0  0  0  0  0  0  0
    7.1008  -17.2137   24.4823 C   0  0  1  0  0  0  0  0  0  0  0  0
    6.1597  -17.1108   25.6204 C   0  0  0  0  0  0  0  0  0  0  0  0
    7.5839  -15.9316   23.8879 C   0  0  2  0  0  0  0  0  0  0  0  0
    8.3296  -15.9754   22.7105 N   0  0  0  0  0  0  0  0  0  0  0  0
    8.1419  -15.0053   24.8899 C   0  0  0  0  0  0  0  0  0  0  0  0
    9.3925  -15.1374   25.2132 O   0  0  0  0  0  0  0  0  0  0  0  0
    7.4747  -13.9566   25.5676 N   0  0  0  0  0  0  0  0  0  0  0  0
    6.0909  -13.5786   25.5164 C   0  0  0  0  0  0  0  0  0  0  0  0
    5.8704  -12.6987   26.7381 C   0  0  0  0  0  0  0  0  0  0  0  0
    7.2259  -12.1070   27.0454 C   0  0  0  0  0  0  0  0  0  0  0  0
    8.2120  -13.0583   26.4797 C   0  0  1  0  0  0  0  0  0  0  0  0
    8.8128  -13.8443   27.5878 C   0  0  0  0  0  0  0  0  0  0  0  0
    8.4319  -15.1549   27.7319 O   0  0  0  0  0  0  0  0  0  0  0  0
    9.6388  -13.3518   28.3749 O   0  0  0  0  0  0  0  0  0  0  0  0
  2  1  1  0
  3  4  1  6
  3  2  1  0
  5  6  2  0
  5  3  1  0
  8  7  1  1
  8 10  1  0
  9  8  1  0
 10 11  1  6
 10 12  1  0
 11  5  1  0
 12 14  1  0
 13 12  2  0
 14 15  1  0
 14 18  1  0
 15 16  1  0
 16 17  1  0
 18 17  1  0
 19 20  1  0
 18 19  1  1
 21 19  2  0
M  END
$$$$
