SVP.pdb
     RDKit          3D

 21 21  0  0  1  0  0  0  0  0999 V2000
    8.9233  -17.5134   20.2138 O   0  0  0  0  0  0  0  0  0  0  0  0
    9.3542  -16.6264   21.1706 C   0  0  0  0  0  0  0  0  0  0  0  0
    8.3463  -15.5501   21.5002 C   0  0  2  0  0  0  0  0  0  0  0  0
    8.3362  -14.6225   20.3898 N   0  0  0  0  0  0  0  0  0  0  0  0
    8.7022  -14.8021   22.7192 C   0  0  0  0  0  0  0  0  0  0  0  0
    9.5209  -13.8870   22.6782 O   0  0  0  0  0  0  0  0  0  0  0  0
    6.7152  -12.6028   25.0709 C   0  0  0  0  0  0  0  0  0  0  0  0
    7.1590  -13.8039   25.8619 C   0  0  1  0  0  0  0  0  0  0  0  0
    6.0575  -14.7062   26.2665 C   0  0  0  0  0  0  0  0  0  0  0  0
    8.3299  -14.4318   25.1799 C   0  0  2  0  0  0  0  0  0  0  0  0
    8.1264  -15.0990   23.9726 N   0  0  0  0  0  0  0  0  0  0  0  0
    9.2093  -15.1693   26.1052 C   0  0  0  0  0  0  0  0  0  0  0  0
    9.4147  -16.4309   25.8765 O   0  0  0  0  0  0  0  0  0  0  0  0
    9.8819  -14.6691   27.2461 N   0  0  0  0  0  0  0  0  0  0  0  0
    9.8885  -13.3388   27.7853 C   0  0  0  0  0  0  0  0  0  0  0  0
   10.4043  -13.4861   29.2092 C   0  0  0  0  0  0  0  0  0  0  0  0
   11.2505  -14.7373   29.1927 C   0  0  0  0  0  0  0  0  0  0  0  0
   10.7293  -15.5545   28.0711 C   0  0  1  0  0  0  0  0  0  0  0  0
    9.9127  -16.6653   28.6239 C   0  0  0  0  0  0  0  0  0  0  0  0
   10.5622  -17.6839   29.2752 O   0  0  0  0  0  0  0  0  0  0  0  0
    8.6752  -16.6943   28.5129 O   0  0  0  0  0  0  0  0  0  0  0  0
  2  1  1  0
  3  4  1  6
  3  2  1  0
  5  6  2  0
  5  3  1  0
  8  7  1  6
  8 10  1  0
  9  8  1  0
 10 11  1  6
 10 12  1  0
 11  5  1  0
 12 14  1  0
 13 12  2  0
 14 15  1  0
 14 18  1  0
 15 16  1  0
 16 17  1  0
 18 17  1  0
 19 20  1  0
 18 19  1  1
 21 19  2  0
M  END
$$$$
