SVP.pdb
     RDKit          3D

 21 21  0  0  1  0  0  0  0  0999 V2000
   12.1524  -17.9444   24.3951 O   0  0  0  0  0  0  0  0  0  0  0  0
   12.8480  -17.5466   23.2790 C   0  0  0  0  0  0  0  0  0  0  0  0
   11.9648  -17.0676   22.1505 C   0  0  2  0  0  0  0  0  0  0  0  0
   12.8382  -16.5980   21.0969 N   0  0  0  0  0  0  0  0  0  0  0  0
   11.0931  -15.9502   22.5554 C   0  0  0  0  0  0  0  0  0  0  0  0
   11.5597  -14.8329   22.7634 O   0  0  0  0  0  0  0  0  0  0  0  0
    6.5824  -14.0526   22.9347 C   0  0  0  0  0  0  0  0  0  0  0  0
    7.5264  -15.0019   22.2470 C   0  0  1  0  0  0  0  0  0  0  0  0
    7.7030  -14.7422   20.8003 C   0  0  0  0  0  0  0  0  0  0  0  0
    8.7687  -15.1332   23.0657 C   0  0  2  0  0  0  0  0  0  0  0  0
    9.7011  -16.1108   22.7205 N   0  0  0  0  0  0  0  0  0  0  0  0
    8.5136  -15.0662   24.5161 C   0  0  0  0  0  0  0  0  0  0  0  0
    8.6965  -16.1431   25.2181 O   0  0  0  0  0  0  0  0  0  0  0  0
    8.0827  -13.9480   25.2699 N   0  0  0  0  0  0  0  0  0  0  0  0
    7.7966  -12.6121   24.8294 C   0  0  0  0  0  0  0  0  0  0  0  0
    6.9835  -11.9853   25.9526 C   0  0  0  0  0  0  0  0  0  0  0  0
    7.3920  -12.7355   27.1986 C   0  0  0  0  0  0  0  0  0  0  0  0
    7.8692  -14.0576   26.7276 C   0  0  1  0  0  0  0  0  0  0  0  0
    6.8247  -15.0750   27.0110 C   0  0  0  0  0  0  0  0  0  0  0  0
    6.8590  -15.7171   28.2235 O   0  0  0  0  0  0  0  0  0  0  0  0
    5.9347  -15.3546   26.1899 O   0  0  0  0  0  0  0  0  0  0  0  0
  2  1  1  0
  3  4  1  6
  3  2  1  0
  5  6  2  0
  5  3  1  0
  8  7  1  1
  8 10  1  0
  9  8  1  0
 10 11  1  1
 10 12  1  0
 11  5  1  0
 12 14  1  0
 13 12  2  0
 14 15  1  0
 14 18  1  0
 15 16  1  0
 16 17  1  0
 18 17  1  0
 19 20  1  0
 18 19  1  6
 21 19  2  0
M  END
$$$$
