SVP.pdb
     RDKit          3D

 21 21  0  0  1  0  0  0  0  0999 V2000
   11.1881  -19.0842   22.7357 O   0  0  0  0  0  0  0  0  0  0  0  0
   10.5386  -18.8705   21.5439 C   0  0  0  0  0  0  0  0  0  0  0  0
   10.9443  -17.5904   20.8512 C   0  0  2  0  0  0  0  0  0  0  0  0
   12.3906  -17.5529   20.8399 N   0  0  0  0  0  0  0  0  0  0  0  0
   10.4601  -16.3915   21.5587 C   0  0  0  0  0  0  0  0  0  0  0  0
   11.1997  -15.7671   22.3154 O   0  0  0  0  0  0  0  0  0  0  0  0
    6.9510  -13.0006   22.2724 C   0  0  0  0  0  0  0  0  0  0  0  0
    7.5407  -14.0120   21.3266 C   0  0  1  0  0  0  0  0  0  0  0  0
    7.9602  -13.4520   20.0220 C   0  0  0  0  0  0  0  0  0  0  0  0
    8.5448  -14.8389   22.0604 C   0  0  2  0  0  0  0  0  0  0  0  0
    9.1424  -15.9124   21.4011 N   0  0  0  0  0  0  0  0  0  0  0  0
    8.1278  -15.1667   23.4358 C   0  0  0  0  0  0  0  0  0  0  0  0
    7.7761  -16.3902   23.6915 O   0  0  0  0  0  0  0  0  0  0  0  0
    8.0583  -14.2976   24.5512 N   0  0  0  0  0  0  0  0  0  0  0  0
    8.2379  -12.8744   24.6055 C   0  0  0  0  0  0  0  0  0  0  0  0
    7.6346  -12.4448   25.9348 C   0  0  0  0  0  0  0  0  0  0  0  0
    7.7332  -13.6631   26.8225 C   0  0  0  0  0  0  0  0  0  0  0  0
    7.7703  -14.8239   25.9012 C   0  0  1  0  0  0  0  0  0  0  0  0
    6.4425  -15.4896   25.9122 C   0  0  0  0  0  0  0  0  0  0  0  0
    6.1393  -16.3110   26.9690 O   0  0  0  0  0  0  0  0  0  0  0  0
    5.6126  -15.3234   25.0021 O   0  0  0  0  0  0  0  0  0  0  0  0
  2  1  1  0
  3  4  1  1
  3  2  1  0
  5  6  2  0
  5  3  1  0
  8  7  1  1
  8 10  1  0
  9  8  1  0
 10 11  1  6
 10 12  1  0
 11  5  1  0
 12 14  1  0
 13 12  2  0
 14 15  1  0
 14 18  1  0
 15 16  1  0
 16 17  1  0
 18 17  1  0
 19 20  1  0
 18 19  1  6
 21 19  2  0
M  END
$$$$
