SVP.pdb
     RDKit          3D

 21 21  0  0  1  0  0  0  0  0999 V2000
   12.0630  -19.6523   22.9355 O   0  0  0  0  0  0  0  0  0  0  0  0
   11.5870  -18.4134   23.2908 C   0  0  0  0  0  0  0  0  0  0  0  0
   11.2201  -17.5418   22.1123 C   0  0  2  0  0  0  0  0  0  0  0  0
   12.4322  -17.3197   21.3540 N   0  0  0  0  0  0  0  0  0  0  0  0
   10.6921  -16.2298   22.5273 C   0  0  0  0  0  0  0  0  0  0  0  0
   11.4479  -15.2800   22.7173 O   0  0  0  0  0  0  0  0  0  0  0  0
    8.4076  -13.5808   21.0416 C   0  0  0  0  0  0  0  0  0  0  0  0
    7.6895  -14.1941   22.2135 C   0  0  1  0  0  0  0  0  0  0  0  0
    6.5118  -15.0117   21.8446 C   0  0  0  0  0  0  0  0  0  0  0  0
    8.6913  -14.8256   23.1235 C   0  0  2  0  0  0  0  0  0  0  0  0
    9.3125  -16.0078   22.7226 N   0  0  0  0  0  0  0  0  0  0  0  0
    8.2556  -14.8519   24.5317 C   0  0  0  0  0  0  0  0  0  0  0  0
    8.0843  -16.0089   25.0958 O   0  0  0  0  0  0  0  0  0  0  0  0
    7.9916  -13.7484   25.3784 N   0  0  0  0  0  0  0  0  0  0  0  0
    8.0533  -12.3445   25.0856 C   0  0  0  0  0  0  0  0  0  0  0  0
    7.2699  -11.6678   26.2008 C   0  0  0  0  0  0  0  0  0  0  0  0
    7.3597  -12.6150   27.3742 C   0  0  0  0  0  0  0  0  0  0  0  0
    7.5919  -13.9556   26.7854 C   0  0  1  0  0  0  0  0  0  0  0  0
    6.3271  -14.7321   26.8432 C   0  0  0  0  0  0  0  0  0  0  0  0
    5.9606  -15.2834   28.0454 O   0  0  0  0  0  0  0  0  0  0  0  0
    5.6041  -14.8923   25.8451 O   0  0  0  0  0  0  0  0  0  0  0  0
  2  1  1  0
  3  4  1  6
  3  2  1  0
  5  6  2  0
  5  3  1  0
  8  7  1  6
  8 10  1  0
  9  8  1  0
 10 11  1  6
 10 12  1  0
 11  5  1  0
 12 14  1  0
 13 12  2  0
 14 15  1  0
 14 18  1  0
 15 16  1  0
 16 17  1  0
 18 17  1  0
 19 20  1  0
 18 19  1  6
 21 19  2  0
M  END
$$$$
