SVP.pdb
     RDKit          3D

 21 21  0  0  1  0  0  0  0  0999 V2000
   11.8024  -18.3655   23.8428 O   0  0  0  0  0  0  0  0  0  0  0  0
   11.4023  -18.4517   22.5312 C   0  0  0  0  0  0  0  0  0  0  0  0
   11.4694  -17.1383   21.7874 C   0  0  2  0  0  0  0  0  0  0  0  0
   12.8620  -16.7491   21.7362 N   0  0  0  0  0  0  0  0  0  0  0  0
   10.7192  -16.0682   22.4688 C   0  0  0  0  0  0  0  0  0  0  0  0
   11.2937  -15.2670   23.2019 O   0  0  0  0  0  0  0  0  0  0  0  0
    6.5932  -13.3824   22.6980 C   0  0  0  0  0  0  0  0  0  0  0  0
    7.3788  -14.4159   21.9366 C   0  0  1  0  0  0  0  0  0  0  0  0
    7.6808  -14.0404   20.5369 C   0  0  0  0  0  0  0  0  0  0  0  0
    8.5271  -14.8719   22.7758 C   0  0  2  0  0  0  0  0  0  0  0  0
    9.3251  -15.9171   22.3124 N   0  0  0  0  0  0  0  0  0  0  0  0
    8.1837  -14.9979   24.2039 C   0  0  0  0  0  0  0  0  0  0  0  0
    8.1865  -16.1853   24.7296 O   0  0  0  0  0  0  0  0  0  0  0  0
    7.8413  -13.9636   25.1079 N   0  0  0  0  0  0  0  0  0  0  0  0
    7.7662  -12.5481   24.8815 C   0  0  0  0  0  0  0  0  0  0  0  0
    6.9529  -11.9988   26.0443 C   0  0  0  0  0  0  0  0  0  0  0  0
    7.1594  -12.9863   27.1687 C   0  0  0  0  0  0  0  0  0  0  0  0
    7.4986  -14.2711   26.5117 C   0  0  1  0  0  0  0  0  0  0  0  0
    6.3123  -15.1637   26.5591 C   0  0  0  0  0  0  0  0  0  0  0  0
    6.0859  -15.8785   27.7086 O   0  0  0  0  0  0  0  0  0  0  0  0
    5.5320  -15.2772   25.5984 O   0  0  0  0  0  0  0  0  0  0  0  0
  2  1  1  0
  3  4  1  1
  3  2  1  0
  5  6  2  0
  5  3  1  0
  8  7  1  1
  8 10  1  0
  9  8  1  0
 10 11  1  6
 10 12  1  0
 11  5  1  0
 12 14  1  0
 13 12  2  0
 14 15  1  0
 14 18  1  0
 15 16  1  0
 16 17  1  0
 18 17  1  0
 19 20  1  0
 18 19  1  6
 21 19  2  0
M  END
$$$$
