SVP.pdb
     RDKit          3D

 21 21  0  0  1  0  0  0  0  0999 V2000
   10.5585  -12.6745   20.0888 O   0  0  0  0  0  0  0  0  0  0  0  0
   10.4366  -14.0414   20.0215 C   0  0  0  0  0  0  0  0  0  0  0  0
    9.0141  -14.5170   19.8395 C   0  0  2  0  0  0  0  0  0  0  0  0
    8.4011  -13.6563   18.8511 N   0  0  0  0  0  0  0  0  0  0  0  0
    8.2269  -14.4214   21.0819 C   0  0  0  0  0  0  0  0  0  0  0  0
    7.3589  -13.5615   21.2110 O   0  0  0  0  0  0  0  0  0  0  0  0
    7.9320  -17.8271   23.4655 C   0  0  0  0  0  0  0  0  0  0  0  0
    6.9657  -16.6839   23.6224 C   0  0  1  0  0  0  0  0  0  0  0  0
    6.1585  -16.7361   24.8622 C   0  0  0  0  0  0  0  0  0  0  0  0
    7.6751  -15.4020   23.3324 C   0  0  2  0  0  0  0  0  0  0  0  0
    8.4317  -15.3015   22.1655 N   0  0  0  0  0  0  0  0  0  0  0  0
    8.3576  -14.8405   24.5123 C   0  0  0  0  0  0  0  0  0  0  0  0
    9.5287  -15.3093   24.8203 O   0  0  0  0  0  0  0  0  0  0  0  0
    7.8917  -13.8250   25.3818 N   0  0  0  0  0  0  0  0  0  0  0  0
    6.7483  -12.9680   25.2461 C   0  0  0  0  0  0  0  0  0  0  0  0
    6.5038  -12.4025   26.6374 C   0  0  0  0  0  0  0  0  0  0  0  0
    7.8510  -12.4431   27.3197 C   0  0  0  0  0  0  0  0  0  0  0  0
    8.6111  -13.5156   26.6345 C   0  0  1  0  0  0  0  0  0  0  0  0
    8.6440  -14.7160   27.5088 C   0  0  0  0  0  0  0  0  0  0  0  0
    9.4992  -14.7113   28.5822 O   0  0  0  0  0  0  0  0  0  0  0  0
    7.9274  -15.7087   27.2954 O   0  0  0  0  0  0  0  0  0  0  0  0
  2  1  1  0
  3  4  1  6
  3  2  1  0
  5  6  2  0
  5  3  1  0
  8  7  1  1
  8 10  1  0
  9  8  1  0
 10 11  1  6
 10 12  1  0
 11  5  1  0
 12 14  1  0
 13 12  2  0
 14 15  1  0
 14 18  1  0
 15 16  1  0
 16 17  1  0
 18 17  1  0
 19 20  1  0
 18 19  1  1
 21 19  2  0
M  END
$$$$
