SVP.pdb
     RDKit          3D

 21 21  0  0  1  0  0  0  0  0999 V2000
    8.9508  -17.6082   22.2657 O   0  0  0  0  0  0  0  0  0  0  0  0
    9.0244  -16.7549   21.1913 C   0  0  0  0  0  0  0  0  0  0  0  0
    8.2006  -15.4988   21.3547 C   0  0  2  0  0  0  0  0  0  0  0  0
    8.4446  -14.6757   20.1901 N   0  0  0  0  0  0  0  0  0  0  0  0
    8.5850  -14.7270   22.5501 C   0  0  0  0  0  0  0  0  0  0  0  0
    9.5674  -13.9895   22.5326 O   0  0  0  0  0  0  0  0  0  0  0  0
    5.8530  -14.2302   25.8815 C   0  0  0  0  0  0  0  0  0  0  0  0
    7.0081  -13.3189   25.5645 C   0  0  1  0  0  0  0  0  0  0  0  0
    7.3860  -12.4094   26.6697 C   0  0  0  0  0  0  0  0  0  0  0  0
    8.1056  -14.1198   24.9443 C   0  0  2  0  0  0  0  0  0  0  0  0
    7.8517  -14.7991   23.7534 N   0  0  0  0  0  0  0  0  0  0  0  0
    8.8517  -14.9312   25.9232 C   0  0  0  0  0  0  0  0  0  0  0  0
    8.7767  -16.2240   25.8277 O   0  0  0  0  0  0  0  0  0  0  0  0
    9.6662  -14.4740   26.9872 N   0  0  0  0  0  0  0  0  0  0  0  0
    9.8195  -13.1445   27.5063 C   0  0  0  0  0  0  0  0  0  0  0  0
   10.4600  -13.3202   28.8753 C   0  0  0  0  0  0  0  0  0  0  0  0
   11.2100  -14.6290   28.7926 C   0  0  0  0  0  0  0  0  0  0  0  0
   10.5252  -15.4131   27.7372 C   0  0  1  0  0  0  0  0  0  0  0  0
    9.6900  -16.4594   28.3806 C   0  0  0  0  0  0  0  0  0  0  0  0
   10.3240  -17.5425   28.9359 O   0  0  0  0  0  0  0  0  0  0  0  0
    8.4507  -16.3791   28.4274 O   0  0  0  0  0  0  0  0  0  0  0  0
  2  1  1  0
  3  4  1  6
  3  2  1  0
  5  6  2  0
  5  3  1  0
  8  7  1  1
  8 10  1  0
  9  8  1  0
 10 11  1  6
 10 12  1  0
 11  5  1  0
 12 14  1  0
 13 12  2  0
 14 15  1  0
 14 18  1  0
 15 16  1  0
 16 17  1  0
 18 17  1  0
 19 20  1  0
 18 19  1  1
 21 19  2  0
M  END
$$$$
