SQW.pdb
     RDKit          3D

 30 31  0  0  1  0  0  0  0  0999 V2000
   28.4701  -24.9896  -16.7489 O   0  0  0  0  0  0  0  0  0  0  0  0
   29.1410  -24.1878  -17.6784 C   0  0  0  0  0  0  0  0  0  0  0  0
   30.2181  -23.3692  -16.9742 C   0  0  2  0  0  0  0  0  0  0  0  0
   31.1494  -24.2602  -16.3042 N   0  0  0  0  0  0  0  0  0  0  0  0
   29.5408  -22.4660  -16.0170 C   0  0  0  0  0  0  0  0  0  0  0  0
   29.8133  -22.5976  -14.7957 O   0  0  0  0  0  0  0  0  0  0  0  0
   28.3906  -16.8357  -16.4657 N   0  0  0  0  0  0  0  0  0  0  0  0
   27.3690  -17.0445  -15.5047 C   0  0  0  0  0  0  0  0  0  0  0  0
   26.9693  -16.1192  -14.7817 O   0  0  0  0  0  0  0  0  0  0  0  0
   26.7518  -18.4008  -15.3484 C   0  0  0  0  0  0  0  0  0  0  0  0
   27.4631  -19.3464  -16.2595 C   0  0  0  0  0  0  0  0  0  0  0  0
   28.0409  -20.4998  -15.5285 C   0  0  2  0  0  0  0  0  0  0  0  0
   28.6170  -21.4816  -16.4441 N   0  0  0  0  0  0  0  0  0  0  0  0
   27.0456  -21.1629  -14.6910 C   0  0  0  0  0  0  0  0  0  0  0  0
   26.1004  -21.8259  -15.1344 O   0  0  0  0  0  0  0  0  0  0  0  0
   27.1326  -21.0642  -13.2505 N   0  0  0  0  0  0  0  0  0  0  0  0
   26.1856  -21.7856  -12.3927 C   0  0  1  0  0  0  0  0  0  0  0  0
   26.9233  -22.1330  -11.1184 C   0  0  0  0  0  0  0  0  0  0  0  0
   26.7015  -21.1777  -10.0289 C   0  0  0  0  0  0  0  0  0  0  0  0
   25.5933  -20.3819   -9.8744 C   0  0  0  0  0  0  0  0  0  0  0  0
   25.7902  -19.6633   -8.7565 N   0  0  0  0  0  0  0  0  0  0  0  0
   26.9775  -19.9703   -8.1950 C   0  0  0  0  0  0  0  0  0  0  0  0
   27.6081  -19.4970   -7.0507 C   0  0  0  0  0  0  0  0  0  0  0  0
   28.8292  -19.9765   -6.6931 C   0  0  0  0  0  0  0  0  0  0  0  0
   29.4337  -20.9433   -7.4869 C   0  0  0  0  0  0  0  0  0  0  0  0
   28.8081  -21.4124   -8.6216 C   0  0  0  0  0  0  0  0  0  0  0  0
   27.5698  -20.9293   -8.9884 C   0  0  0  0  0  0  0  0  0  0  0  0
   24.9795  -20.9909  -12.1506 C   0  0  0  0  0  0  0  0  0  0  0  0
   24.9139  -19.6530  -12.4792 O   0  0  0  0  0  0  0  0  0  0  0  0
   23.9742  -21.5360  -11.6302 O   0  0  0  0  0  0  0  0  0  0  0  0
  1  2  1  0
  2  3  1  0
  3  4  1  1
  3  5  1  0
  5  6  2  0
  8  7  1  0
  8  9  2  0
 10 11  1  0
 10  8  1  0
 12 11  1  6
 12 14  1  0
 13  5  1  0
 13 12  1  0
 14 15  2  0
 16 17  1  0
 16 14  1  0
 17 28  1  0
 17 18  1  1
 19 18  1  0
 20 19  2  0
 21 22  1  0
 21 20  1  0
 22 27  2  0
 23 24  2  0
 23 22  1  0
 24 25  1  0
 25 26  2  0
 27 26  1  0
 27 19  1  0
 28 30  2  0
 28 29  1  0
M  END
$$$$
