SQW.pdb
     RDKit          3D

 30 31  0  0  1  0  0  0  0  0999 V2000
   29.7523  -22.6576  -15.7669 O   0  0  0  0  0  0  0  0  0  0  0  0
   29.4194  -22.9584  -17.0919 C   0  0  0  0  0  0  0  0  0  0  0  0
   28.7411  -21.7565  -17.7412 C   0  0  2  0  0  0  0  0  0  0  0  0
   29.7241  -20.7165  -17.9911 N   0  0  0  0  0  0  0  0  0  0  0  0
   27.6760  -21.2929  -16.8239 C   0  0  0  0  0  0  0  0  0  0  0  0
   27.6935  -20.0857  -16.4701 O   0  0  0  0  0  0  0  0  0  0  0  0
   22.9515  -24.2646  -14.9053 N   0  0  0  0  0  0  0  0  0  0  0  0
   22.4815  -22.9544  -14.6349 C   0  0  0  0  0  0  0  0  0  0  0  0
   21.6054  -22.7505  -13.7809 O   0  0  0  0  0  0  0  0  0  0  0  0
   23.0434  -21.7859  -15.3858 C   0  0  0  0  0  0  0  0  0  0  0  0
   24.2404  -22.2512  -16.1480 C   0  0  0  0  0  0  0  0  0  0  0  0
   25.5008  -21.6836  -15.6116 C   0  0  2  0  0  0  0  0  0  0  0  0
   26.6643  -22.1643  -16.3528 N   0  0  0  0  0  0  0  0  0  0  0  0
   25.6781  -22.0011  -14.1975 C   0  0  0  0  0  0  0  0  0  0  0  0
   26.5215  -22.7975  -13.7685 O   0  0  0  0  0  0  0  0  0  0  0  0
   24.8379  -21.3686  -13.2044 N   0  0  0  0  0  0  0  0  0  0  0  0
   25.0850  -21.5767  -11.7732 C   0  0  1  0  0  0  0  0  0  0  0  0
   26.4858  -21.0794  -11.4919 C   0  0  0  0  0  0  0  0  0  0  0  0
   26.6770  -20.5980  -10.1206 C   0  0  0  0  0  0  0  0  0  0  0  0
   25.7165  -20.0060   -9.3382 C   0  0  0  0  0  0  0  0  0  0  0  0
   26.3019  -19.7196   -8.1634 N   0  0  0  0  0  0  0  0  0  0  0  0
   27.5943  -20.1056   -8.1678 C   0  0  0  0  0  0  0  0  0  0  0  0
   28.5871  -20.0204   -7.1993 C   0  0  0  0  0  0  0  0  0  0  0  0
   29.8367  -20.4913   -7.4556 C   0  0  0  0  0  0  0  0  0  0  0  0
   30.1037  -21.0567   -8.6962 C   0  0  0  0  0  0  0  0  0  0  0  0
   29.1189  -21.1411   -9.6565 C   0  0  0  0  0  0  0  0  0  0  0  0
   27.8502  -20.6649   -9.4014 C   0  0  0  0  0  0  0  0  0  0  0  0
   24.0708  -20.9048  -10.9578 C   0  0  0  0  0  0  0  0  0  0  0  0
   23.1550  -20.0343  -11.5107 O   0  0  0  0  0  0  0  0  0  0  0  0
   24.0280  -21.1227   -9.7212 O   0  0  0  0  0  0  0  0  0  0  0  0
  1  2  1  0
  2  3  1  0
  3  4  1  1
  3  5  1  0
  5  6  2  0
  8  7  1  0
  8  9  2  0
 10 11  1  0
 10  8  1  0
 12 11  1  6
 12 14  1  0
 13  5  1  0
 13 12  1  0
 14 15  2  0
 16 17  1  0
 16 14  1  0
 17 28  1  0
 17 18  1  1
 19 18  1  0
 20 19  2  0
 21 22  1  0
 21 20  1  0
 22 27  2  0
 23 24  2  0
 23 22  1  0
 24 25  1  0
 25 26  2  0
 27 26  1  0
 27 19  1  0
 28 30  2  0
 28 29  1  0
M  END
$$$$
