SQW.pdb
     RDKit          3D

 30 31  0  0  1  0  0  0  0  0999 V2000
   28.8639  -22.7055  -15.3730 O   0  0  0  0  0  0  0  0  0  0  0  0
   28.1014  -22.1520  -16.4070 C   0  0  0  0  0  0  0  0  0  0  0  0
   28.1753  -20.6298  -16.3473 C   0  0  2  0  0  0  0  0  0  0  0  0
   29.5591  -20.2028  -16.4607 N   0  0  0  0  0  0  0  0  0  0  0  0
   27.5744  -20.2016  -15.0641 C   0  0  0  0  0  0  0  0  0  0  0  0
   28.3294  -19.6566  -14.2179 O   0  0  0  0  0  0  0  0  0  0  0  0
   21.1731  -20.2819  -12.7086 N   0  0  0  0  0  0  0  0  0  0  0  0
   22.0176  -19.1444  -12.6486 C   0  0  0  0  0  0  0  0  0  0  0  0
   21.5635  -17.9996  -12.7962 O   0  0  0  0  0  0  0  0  0  0  0  0
   23.4861  -19.3123  -12.4030 C   0  0  0  0  0  0  0  0  0  0  0  0
   24.1236  -19.7705  -13.6734 C   0  0  0  0  0  0  0  0  0  0  0  0
   25.5890  -19.9475  -13.5320 C   0  0  2  0  0  0  0  0  0  0  0  0
   26.1995  -20.3898  -14.7833 N   0  0  0  0  0  0  0  0  0  0  0  0
   25.9191  -20.9060  -12.4813 C   0  0  0  0  0  0  0  0  0  0  0  0
   26.0072  -22.1263  -12.6619 O   0  0  0  0  0  0  0  0  0  0  0  0
   26.1656  -20.4433  -11.1331 N   0  0  0  0  0  0  0  0  0  0  0  0
   26.2936  -21.3979  -10.0263 C   0  0  1  0  0  0  0  0  0  0  0  0
   27.6453  -21.1562   -9.3911 C   0  0  0  0  0  0  0  0  0  0  0  0
   27.6185  -20.1766   -8.3010 C   0  0  0  0  0  0  0  0  0  0  0  0
   26.8369  -19.0486   -8.2567 C   0  0  0  0  0  0  0  0  0  0  0  0
   27.1156  -18.4345   -7.0948 N   0  0  0  0  0  0  0  0  0  0  0  0
   28.0417  -19.1262   -6.3998 C   0  0  0  0  0  0  0  0  0  0  0  0
   28.6373  -18.8909   -5.1665 C   0  0  0  0  0  0  0  0  0  0  0  0
   29.5633  -19.7575   -4.6762 C   0  0  0  0  0  0  0  0  0  0  0  0
   29.9031  -20.8773   -5.4251 C   0  0  0  0  0  0  0  0  0  0  0  0
   29.3123  -21.1103   -6.6481 C   0  0  0  0  0  0  0  0  0  0  0  0
   28.3727  -20.2345   -7.1495 C   0  0  0  0  0  0  0  0  0  0  0  0
   25.1879  -21.2579   -9.0761 C   0  0  0  0  0  0  0  0  0  0  0  0
   24.2038  -20.3062   -9.2430 O   0  0  0  0  0  0  0  0  0  0  0  0
   25.1280  -22.0218   -8.0804 O   0  0  0  0  0  0  0  0  0  0  0  0
  1  2  1  0
  2  3  1  0
  3  4  1  1
  3  5  1  0
  5  6  2  0
  8  7  1  0
  8  9  2  0
 10 11  1  0
 10  8  1  0
 12 11  1  6
 12 14  1  0
 13  5  1  0
 13 12  1  0
 14 15  2  0
 16 17  1  0
 16 14  1  0
 17 28  1  0
 17 18  1  1
 19 18  1  0
 20 19  2  0
 21 22  1  0
 21 20  1  0
 22 27  2  0
 23 24  2  0
 23 22  1  0
 24 25  1  0
 25 26  2  0
 27 26  1  0
 27 19  1  0
 28 30  2  0
 28 29  1  0
M  END
$$$$
