SQW.pdb
     RDKit          3D

 30 31  0  0  1  0  0  0  0  0999 V2000
   29.3595  -22.4230  -15.9482 O   0  0  0  0  0  0  0  0  0  0  0  0
   27.9706  -22.5784  -16.0098 C   0  0  0  0  0  0  0  0  0  0  0  0
   27.3177  -21.2537  -16.3905 C   0  0  2  0  0  0  0  0  0  0  0  0
   28.2093  -20.4996  -17.2546 N   0  0  0  0  0  0  0  0  0  0  0  0
   27.0229  -20.5227  -15.1376 C   0  0  0  0  0  0  0  0  0  0  0  0
   27.6662  -19.4651  -14.9125 O   0  0  0  0  0  0  0  0  0  0  0  0
   20.8132  -21.1278  -13.0916 N   0  0  0  0  0  0  0  0  0  0  0  0
   21.9509  -20.2817  -13.1132 C   0  0  0  0  0  0  0  0  0  0  0  0
   21.8332  -19.0506  -13.2078 O   0  0  0  0  0  0  0  0  0  0  0  0
   23.3256  -20.8704  -13.0209 C   0  0  0  0  0  0  0  0  0  0  0  0
   24.3154  -19.7522  -13.0350 C   0  0  0  0  0  0  0  0  0  0  0  0
   25.7143  -20.2427  -13.0015 C   0  0  2  0  0  0  0  0  0  0  0  0
   26.0529  -20.9829  -14.2146 N   0  0  0  0  0  0  0  0  0  0  0  0
   25.9602  -21.0972  -11.8434 C   0  0  0  0  0  0  0  0  0  0  0  0
   25.9259  -22.3330  -11.8766 O   0  0  0  0  0  0  0  0  0  0  0  0
   26.2658  -20.5039  -10.5601 N   0  0  0  0  0  0  0  0  0  0  0  0
   26.4460  -21.3446   -9.3711 C   0  0  1  0  0  0  0  0  0  0  0  0
   27.8237  -21.0428   -8.8238 C   0  0  0  0  0  0  0  0  0  0  0  0
   27.8240  -20.0639   -7.7327 C   0  0  0  0  0  0  0  0  0  0  0  0
   27.1494  -18.8680   -7.7292 C   0  0  0  0  0  0  0  0  0  0  0  0
   27.4151  -18.2814   -6.5501 N   0  0  0  0  0  0  0  0  0  0  0  0
   28.2304  -19.0557   -5.8051 C   0  0  0  0  0  0  0  0  0  0  0  0
   28.7716  -18.8758   -4.5379 C   0  0  0  0  0  0  0  0  0  0  0  0
   29.5825  -19.8243   -3.9980 C   0  0  0  0  0  0  0  0  0  0  0  0
   29.8602  -20.9716   -4.7308 C   0  0  0  0  0  0  0  0  0  0  0  0
   29.3234  -21.1497   -5.9874 C   0  0  0  0  0  0  0  0  0  0  0  0
   28.5004  -20.1907   -6.5392 C   0  0  0  0  0  0  0  0  0  0  0  0
   25.3832  -21.1101   -8.3911 C   0  0  0  0  0  0  0  0  0  0  0  0
   25.3114  -21.8247   -7.2136 O   0  0  0  0  0  0  0  0  0  0  0  0
   24.5107  -20.2363   -8.6226 O   0  0  0  0  0  0  0  0  0  0  0  0
  1  2  1  0
  2  3  1  0
  3  4  1  6
  3  5  1  0
  5  6  2  0
  8  7  1  0
  8  9  2  0
 10 11  1  0
 10  8  1  0
 12 11  1  6
 12 14  1  0
 13  5  1  0
 13 12  1  0
 14 15  2  0
 16 17  1  0
 16 14  1  0
 17 28  1  0
 17 18  1  1
 19 18  1  0
 20 19  2  0
 21 22  1  0
 21 20  1  0
 22 27  2  0
 23 24  2  0
 23 22  1  0
 24 25  1  0
 25 26  2  0
 27 26  1  0
 27 19  1  0
 28 30  2  0
 28 29  1  0
M  END
$$$$
