SQW.pdb
     RDKit          3D

 30 31  0  0  1  0  0  0  0  0999 V2000
   22.6951  -10.5136  -18.2039 O   0  0  0  0  0  0  0  0  0  0  0  0
   21.6499   -9.5838  -18.1985 C   0  0  0  0  0  0  0  0  0  0  0  0
   20.4849  -10.1092  -19.0307 C   0  0  2  0  0  0  0  0  0  0  0  0
   20.8492  -10.1086  -20.4370 N   0  0  0  0  0  0  0  0  0  0  0  0
   19.3173   -9.2382  -18.7681 C   0  0  0  0  0  0  0  0  0  0  0  0
   19.2474   -8.1493  -19.3946 O   0  0  0  0  0  0  0  0  0  0  0  0
   14.8504  -10.1275  -14.7935 N   0  0  0  0  0  0  0  0  0  0  0  0
   14.1763   -9.1729  -15.5966 C   0  0  0  0  0  0  0  0  0  0  0  0
   13.1072   -8.6639  -15.2271 O   0  0  0  0  0  0  0  0  0  0  0  0
   14.7532   -8.7618  -16.9168 C   0  0  0  0  0  0  0  0  0  0  0  0
   15.9648   -9.5949  -17.1779 C   0  0  0  0  0  0  0  0  0  0  0  0
   17.1207   -8.7784  -17.6203 C   0  0  2  0  0  0  0  0  0  0  0  0
   18.3047   -9.6032  -17.8483 N   0  0  0  0  0  0  0  0  0  0  0  0
   17.4502   -7.7376  -16.6508 C   0  0  0  0  0  0  0  0  0  0  0  0
   16.7353   -6.7546  -16.4224 O   0  0  0  0  0  0  0  0  0  0  0  0
   18.6774   -7.8220  -15.8897 N   0  0  0  0  0  0  0  0  0  0  0  0
   19.0511   -6.7568  -14.9525 C   0  0  1  0  0  0  0  0  0  0  0  0
   20.0785   -7.3420  -14.0086 C   0  0  0  0  0  0  0  0  0  0  0  0
   21.4574   -6.9589  -14.3258 C   0  0  0  0  0  0  0  0  0  0  0  0
   21.9399   -5.6746  -14.3792 C   0  0  0  0  0  0  0  0  0  0  0  0
   23.2411   -5.7670  -14.7004 N   0  0  0  0  0  0  0  0  0  0  0  0
   23.6044   -7.0570  -14.8530 C   0  0  0  0  0  0  0  0  0  0  0  0
   24.8222   -7.6413  -15.1792 C   0  0  0  0  0  0  0  0  0  0  0  0
   24.9301   -8.9934  -15.2736 C   0  0  0  0  0  0  0  0  0  0  0  0
   23.8077   -9.7781  -15.0398 C   0  0  0  0  0  0  0  0  0  0  0  0
   22.6001   -9.1983  -14.7163 C   0  0  0  0  0  0  0  0  0  0  0  0
   22.4857   -7.8276  -14.6193 C   0  0  0  0  0  0  0  0  0  0  0  0
   19.5434   -5.5749  -15.6636 C   0  0  0  0  0  0  0  0  0  0  0  0
   19.5934   -4.3347  -15.0622 O   0  0  0  0  0  0  0  0  0  0  0  0
   19.9324   -5.6865  -16.8530 O   0  0  0  0  0  0  0  0  0  0  0  0
  1  2  1  0
  2  3  1  0
  3  4  1  6
  3  5  1  0
  5  6  2  0
  8  7  1  0
  8  9  2  0
 10 11  1  0
 10  8  1  0
 12 11  1  1
 12 14  1  0
 13  5  1  0
 13 12  1  0
 14 15  2  0
 16 17  1  0
 16 14  1  0
 17 28  1  0
 17 18  1  1
 19 18  1  0
 20 19  2  0
 21 22  1  0
 21 20  1  0
 22 27  2  0
 23 24  2  0
 23 22  1  0
 24 25  1  0
 25 26  2  0
 27 26  1  0
 27 19  1  0
 28 30  2  0
 28 29  1  0
M  END
$$$$
