SQW.pdb
     RDKit          3D

 30 31  0  0  1  0  0  0  0  0999 V2000
   26.6926  -19.0854  -16.6149 O   0  0  0  0  0  0  0  0  0  0  0  0
   27.8711  -19.2282  -15.8748 C   0  0  0  0  0  0  0  0  0  0  0  0
   28.0963  -20.6985  -15.5381 C   0  0  2  0  0  0  0  0  0  0  0  0
   28.1275  -21.4810  -16.7616 N   0  0  0  0  0  0  0  0  0  0  0  0
   26.9980  -21.1269  -14.6430 C   0  0  0  0  0  0  0  0  0  0  0  0
   26.0768  -21.8248  -15.1404 O   0  0  0  0  0  0  0  0  0  0  0  0
   26.5321  -19.9421   -8.4606 N   0  0  0  0  0  0  0  0  0  0  0  0
   25.3319  -20.6573   -8.7028 C   0  0  0  0  0  0  0  0  0  0  0  0
   24.5755  -20.9752   -7.7725 O   0  0  0  0  0  0  0  0  0  0  0  0
   24.9572  -21.0425  -10.1014 C   0  0  0  0  0  0  0  0  0  0  0  0
   26.0857  -20.6727  -11.0069 C   0  0  0  0  0  0  0  0  0  0  0  0
   25.8210  -21.0535  -12.4152 C   0  0  2  0  0  0  0  0  0  0  0  0
   26.9705  -20.7737  -13.2722 N   0  0  0  0  0  0  0  0  0  0  0  0
   24.6527  -20.3616  -12.9521 C   0  0  0  0  0  0  0  0  0  0  0  0
   24.6171  -19.1485  -13.1905 O   0  0  0  0  0  0  0  0  0  0  0  0
   23.4428  -21.1013  -13.2368 N   0  0  0  0  0  0  0  0  0  0  0  0
   22.2525  -20.4177  -13.7550 C   0  0  1  0  0  0  0  0  0  0  0  0
   22.2880  -20.5540  -15.2614 C   0  0  0  0  0  0  0  0  0  0  0  0
   21.1554  -19.9158  -15.9386 C   0  0  0  0  0  0  0  0  0  0  0  0
   21.0352  -18.5747  -16.2076 C   0  0  0  0  0  0  0  0  0  0  0  0
   19.8581  -18.4136  -16.8348 N   0  0  0  0  0  0  0  0  0  0  0  0
   19.2263  -19.5971  -16.9751 C   0  0  0  0  0  0  0  0  0  0  0  0
   18.0048  -19.9300  -17.5478 C   0  0  0  0  0  0  0  0  0  0  0  0
   17.5843  -21.2229  -17.5621 C   0  0  0  0  0  0  0  0  0  0  0  0
   18.3922  -22.2018  -16.9971 C   0  0  0  0  0  0  0  0  0  0  0  0
   19.6036  -21.8714  -16.4292 C   0  0  0  0  0  0  0  0  0  0  0  0
   20.0344  -20.5616  -16.4123 C   0  0  0  0  0  0  0  0  0  0  0  0
   21.0288  -20.9652  -13.1654 C   0  0  0  0  0  0  0  0  0  0  0  0
   19.8966  -20.1957  -12.9980 O   0  0  0  0  0  0  0  0  0  0  0  0
   21.0027  -22.1671  -12.8003 O   0  0  0  0  0  0  0  0  0  0  0  0
  1  2  1  0
  2  3  1  0
  3  4  1  6
  3  5  1  0
  5  6  2  0
  8  7  1  0
  8  9  2  0
 10 11  1  0
 10  8  1  0
 12 11  1  1
 12 14  1  0
 13  5  1  0
 13 12  1  0
 14 15  2  0
 16 17  1  0
 16 14  1  0
 17 28  1  0
 17 18  1  6
 19 18  1  0
 20 19  2  0
 21 22  1  0
 21 20  1  0
 22 27  2  0
 23 24  2  0
 23 22  1  0
 24 25  1  0
 25 26  2  0
 27 26  1  0
 27 19  1  0
 28 30  2  0
 28 29  1  0
M  END
$$$$
