SQW.pdb
     RDKit          3D

 30 31  0  0  1  0  0  0  0  0999 V2000
   24.6476  -15.4776  -15.0594 O   0  0  0  0  0  0  0  0  0  0  0  0
   25.1714  -15.9858  -16.2528 C   0  0  0  0  0  0  0  0  0  0  0  0
   24.0758  -16.7015  -17.0361 C   0  0  2  0  0  0  0  0  0  0  0  0
   22.9303  -15.8214  -17.1897 N   0  0  0  0  0  0  0  0  0  0  0  0
   23.7240  -17.9321  -16.2928 C   0  0  0  0  0  0  0  0  0  0  0  0
   22.6518  -17.9312  -15.6343 O   0  0  0  0  0  0  0  0  0  0  0  0
   24.8745  -24.4001  -14.4930 N   0  0  0  0  0  0  0  0  0  0  0  0
   24.7980  -23.5279  -15.6084 C   0  0  0  0  0  0  0  0  0  0  0  0
   25.7288  -23.4463  -16.4241 O   0  0  0  0  0  0  0  0  0  0  0  0
   23.5779  -22.6841  -15.8187 C   0  0  0  0  0  0  0  0  0  0  0  0
   23.9882  -21.4373  -16.5310 C   0  0  0  0  0  0  0  0  0  0  0  0
   24.2082  -20.3062  -15.5978 C   0  0  2  0  0  0  0  0  0  0  0  0
   24.5530  -19.0798  -16.3126 N   0  0  0  0  0  0  0  0  0  0  0  0
   25.2613  -20.6004  -14.6302 C   0  0  0  0  0  0  0  0  0  0  0  0
   26.4553  -20.3289  -14.8044 O   0  0  0  0  0  0  0  0  0  0  0  0
   24.9324  -21.2479  -13.3793 N   0  0  0  0  0  0  0  0  0  0  0  0
   25.9772  -21.5428  -12.3922 C   0  0  1  0  0  0  0  0  0  0  0  0
   26.6001  -20.2203  -12.0027 C   0  0  0  0  0  0  0  0  0  0  0  0
   27.6614  -20.3407  -10.9988 C   0  0  0  0  0  0  0  0  0  0  0  0
   28.9742  -20.6513  -11.2543 C   0  0  0  0  0  0  0  0  0  0  0  0
   29.6045  -20.6581  -10.0679 N   0  0  0  0  0  0  0  0  0  0  0  0
   28.7459  -20.3644   -9.0699 C   0  0  0  0  0  0  0  0  0  0  0  0
   28.9283  -20.2551   -7.6967 C   0  0  0  0  0  0  0  0  0  0  0  0
   27.8802  -19.9422   -6.8890 C   0  0  0  0  0  0  0  0  0  0  0  0
   26.6292  -19.7345   -7.4564 C   0  0  0  0  0  0  0  0  0  0  0  0
   26.4486  -19.8430   -8.8183 C   0  0  0  0  0  0  0  0  0  0  0  0
   27.5084  -20.1600   -9.6416 C   0  0  0  0  0  0  0  0  0  0  0  0
   25.4312  -22.2717  -11.2453 C   0  0  0  0  0  0  0  0  0  0  0  0
   26.1387  -23.2778  -10.6213 O   0  0  0  0  0  0  0  0  0  0  0  0
   24.2889  -21.9776  -10.8129 O   0  0  0  0  0  0  0  0  0  0  0  0
  1  2  1  0
  2  3  1  0
  3  4  1  1
  3  5  1  0
  5  6  2  0
  8  7  1  0
  8  9  2  0
 10 11  1  0
 10  8  1  0
 12 11  1  6
 12 14  1  0
 13  5  1  0
 13 12  1  0
 14 15  2  0
 16 17  1  0
 16 14  1  0
 17 28  1  0
 17 18  1  1
 19 18  1  0
 20 19  2  0
 21 22  1  0
 21 20  1  0
 22 27  2  0
 23 24  2  0
 23 22  1  0
 24 25  1  0
 25 26  2  0
 27 26  1  0
 27 19  1  0
 28 30  2  0
 28 29  1  0
M  END
$$$$
