SQW.pdb
     RDKit          3D

 30 31  0  0  1  0  0  0  0  0999 V2000
   24.7488  -21.1716  -24.6488 O   0  0  0  0  0  0  0  0  0  0  0  0
   26.0054  -20.5633  -24.7374 C   0  0  0  0  0  0  0  0  0  0  0  0
   26.8009  -20.8299  -23.4637 C   0  0  2  0  0  0  0  0  0  0  0  0
   26.8288  -22.2572  -23.1946 N   0  0  0  0  0  0  0  0  0  0  0  0
   26.1530  -20.0790  -22.3649 C   0  0  0  0  0  0  0  0  0  0  0  0
   26.2084  -20.5711  -21.2083 O   0  0  0  0  0  0  0  0  0  0  0  0
   25.8023  -14.1532  -21.5746 N   0  0  0  0  0  0  0  0  0  0  0  0
   25.0888  -14.5709  -20.4226 C   0  0  0  0  0  0  0  0  0  0  0  0
   24.6483  -13.7469  -19.6069 O   0  0  0  0  0  0  0  0  0  0  0  0
   24.8547  -16.0296  -20.1730 C   0  0  0  0  0  0  0  0  0  0  0  0
   25.5101  -16.8031  -21.2696 C   0  0  0  0  0  0  0  0  0  0  0  0
   24.8393  -18.1022  -21.5163 C   0  0  2  0  0  0  0  0  0  0  0  0
   25.4913  -18.8477  -22.5902 N   0  0  0  0  0  0  0  0  0  0  0  0
   23.4291  -17.9276  -21.8518 C   0  0  0  0  0  0  0  0  0  0  0  0
   23.0045  -17.7958  -23.0060 O   0  0  0  0  0  0  0  0  0  0  0  0
   22.4347  -17.9011  -20.8017 N   0  0  0  0  0  0  0  0  0  0  0  0
   21.0121  -17.7396  -21.1224 C   0  0  1  0  0  0  0  0  0  0  0  0
   20.8059  -18.3117  -22.5077 C   0  0  0  0  0  0  0  0  0  0  0  0
   19.8822  -19.4492  -22.5450 C   0  0  0  0  0  0  0  0  0  0  0  0
   18.6135  -19.4686  -22.0200 C   0  0  0  0  0  0  0  0  0  0  0  0
   18.1146  -20.6910  -22.2682 N   0  0  0  0  0  0  0  0  0  0  0  0
   19.0140  -21.4483  -22.9291 C   0  0  0  0  0  0  0  0  0  0  0  0
   18.9564  -22.7566  -23.3938 C   0  0  0  0  0  0  0  0  0  0  0  0
   20.0200  -23.3009  -24.0428 C   0  0  0  0  0  0  0  0  0  0  0  0
   21.1608  -22.5310  -24.2330 C   0  0  0  0  0  0  0  0  0  0  0  0
   21.2177  -21.2335  -23.7721 C   0  0  0  0  0  0  0  0  0  0  0  0
   20.1416  -20.6771  -23.1134 C   0  0  0  0  0  0  0  0  0  0  0  0
   20.1659  -18.3801  -20.1131 C   0  0  0  0  0  0  0  0  0  0  0  0
   20.6283  -19.4179  -19.3311 O   0  0  0  0  0  0  0  0  0  0  0  0
   18.9867  -17.9785  -19.9498 O   0  0  0  0  0  0  0  0  0  0  0  0
  1  2  1  0
  2  3  1  0
  3  4  1  1
  3  5  1  0
  5  6  2  0
  8  7  1  0
  8  9  2  0
 10 11  1  0
 10  8  1  0
 12 11  1  6
 12 14  1  0
 13  5  1  0
 13 12  1  0
 14 15  2  0
 16 17  1  0
 16 14  1  0
 17 28  1  0
 17 18  1  6
 19 18  1  0
 20 19  2  0
 21 22  1  0
 21 20  1  0
 22 27  2  0
 23 24  2  0
 23 22  1  0
 24 25  1  0
 25 26  2  0
 27 26  1  0
 27 19  1  0
 28 30  2  0
 28 29  1  0
M  END
$$$$
