SQW.pdb
     RDKit          3D

 30 31  0  0  1  0  0  0  0  0999 V2000
   27.1127  -18.1469  -15.6663 O   0  0  0  0  0  0  0  0  0  0  0  0
   28.2557  -18.9535  -15.6704 C   0  0  0  0  0  0  0  0  0  0  0  0
   28.2891  -19.7980  -16.9400 C   0  0  2  0  0  0  0  0  0  0  0  0
   28.2285  -18.9320  -18.1048 N   0  0  0  0  0  0  0  0  0  0  0  0
   27.1390  -20.7284  -16.8901 C   0  0  0  0  0  0  0  0  0  0  0  0
   26.0650  -20.3602  -17.4322 O   0  0  0  0  0  0  0  0  0  0  0  0
   27.3832  -26.8705  -15.9278 N   0  0  0  0  0  0  0  0  0  0  0  0
   27.6682  -26.2046  -17.1468 C   0  0  0  0  0  0  0  0  0  0  0  0
   28.2504  -26.7863  -18.0748 O   0  0  0  0  0  0  0  0  0  0  0  0
   27.2651  -24.7735  -17.3320 C   0  0  0  0  0  0  0  0  0  0  0  0
   26.5502  -24.3254  -16.0998 C   0  0  0  0  0  0  0  0  0  0  0  0
   26.0979  -22.9167  -16.1962 C   0  0  2  0  0  0  0  0  0  0  0  0
   27.2280  -21.9932  -16.2598 N   0  0  0  0  0  0  0  0  0  0  0  0
   25.2466  -22.5437  -15.0701 C   0  0  0  0  0  0  0  0  0  0  0  0
   25.6735  -22.2687  -13.9424 O   0  0  0  0  0  0  0  0  0  0  0  0
   23.8116  -22.4797  -15.2398 N   0  0  0  0  0  0  0  0  0  0  0  0
   22.9526  -21.9762  -14.1621 C   0  0  1  0  0  0  0  0  0  0  0  0
   23.4068  -20.5650  -13.8606 C   0  0  0  0  0  0  0  0  0  0  0  0
   22.5137  -19.8386  -12.9533 C   0  0  0  0  0  0  0  0  0  0  0  0
   22.4483  -20.0032  -11.5917 C   0  0  0  0  0  0  0  0  0  0  0  0
   21.5087  -19.1520  -11.1473 N   0  0  0  0  0  0  0  0  0  0  0  0
   20.9751  -18.4538  -12.1706 C   0  0  0  0  0  0  0  0  0  0  0  0
   19.9882  -17.4761  -12.2066 C   0  0  0  0  0  0  0  0  0  0  0  0
   19.6211  -16.9163  -13.3900 C   0  0  0  0  0  0  0  0  0  0  0  0
   20.2459  -17.3357  -14.5579 C   0  0  0  0  0  0  0  0  0  0  0  0
   21.2246  -18.3053  -14.5219 C   0  0  0  0  0  0  0  0  0  0  0  0
   21.6004  -18.8760  -13.3242 C   0  0  0  0  0  0  0  0  0  0  0  0
   21.5382  -22.0487  -14.5349 C   0  0  0  0  0  0  0  0  0  0  0  0
   20.5532  -22.2944  -13.6013 O   0  0  0  0  0  0  0  0  0  0  0  0
   21.2060  -21.8834  -15.7353 O   0  0  0  0  0  0  0  0  0  0  0  0
  1  2  1  0
  2  3  1  0
  3  4  1  6
  3  5  1  0
  5  6  2  0
  8  7  1  0
  8  9  2  0
 10 11  1  0
 10  8  1  0
 12 11  1  1
 12 14  1  0
 13  5  1  0
 13 12  1  0
 14 15  2  0
 16 17  1  0
 16 14  1  0
 17 28  1  0
 17 18  1  6
 19 18  1  0
 20 19  2  0
 21 22  1  0
 21 20  1  0
 22 27  2  0
 23 24  2  0
 23 22  1  0
 24 25  1  0
 25 26  2  0
 27 26  1  0
 27 19  1  0
 28 30  2  0
 28 29  1  0
M  END
$$$$
