SQW.pdb
     RDKit          3D

 30 31  0  0  1  0  0  0  0  0999 V2000
   28.9718  -27.8024  -19.9849 O   0  0  0  0  0  0  0  0  0  0  0  0
   28.4870  -28.5978  -18.9412 C   0  0  0  0  0  0  0  0  0  0  0  0
   28.0611  -29.9588  -19.4820 C   0  0  2  0  0  0  0  0  0  0  0  0
   27.5715  -29.8130  -20.8419 N   0  0  0  0  0  0  0  0  0  0  0  0
   27.0168  -30.4932  -18.5794 C   0  0  0  0  0  0  0  0  0  0  0  0
   25.9940  -31.0031  -19.1057 O   0  0  0  0  0  0  0  0  0  0  0  0
   25.6865  -33.7639  -14.1521 N   0  0  0  0  0  0  0  0  0  0  0  0
   26.9983  -33.8803  -14.6778 C   0  0  0  0  0  0  0  0  0  0  0  0
   27.5680  -34.9802  -14.7431 O   0  0  0  0  0  0  0  0  0  0  0  0
   27.7214  -32.6627  -15.1671 C   0  0  0  0  0  0  0  0  0  0  0  0
   26.8214  -31.4834  -14.9953 C   0  0  0  0  0  0  0  0  0  0  0  0
   26.1868  -31.0731  -16.2710 C   0  0  2  0  0  0  0  0  0  0  0  0
   27.1492  -30.4418  -17.1707 N   0  0  0  0  0  0  0  0  0  0  0  0
   25.0739  -30.1541  -16.0504 C   0  0  0  0  0  0  0  0  0  0  0  0
   25.2089  -28.9422  -15.8440 O   0  0  0  0  0  0  0  0  0  0  0  0
   23.7147  -30.6489  -16.0660 N   0  0  0  0  0  0  0  0  0  0  0  0
   22.5850  -29.7393  -15.8447 C   0  0  1  0  0  0  0  0  0  0  0  0
   21.7973  -29.6942  -17.1356 C   0  0  0  0  0  0  0  0  0  0  0  0
   22.3605  -28.7866  -18.1393 C   0  0  0  0  0  0  0  0  0  0  0  0
   23.6441  -28.2992  -18.1482 C   0  0  0  0  0  0  0  0  0  0  0  0
   23.7472  -27.5104  -19.2308 N   0  0  0  0  0  0  0  0  0  0  0  0
   22.5820  -27.4771  -19.9095 C   0  0  0  0  0  0  0  0  0  0  0  0
   22.2080  -26.8117  -21.0707 C   0  0  0  0  0  0  0  0  0  0  0  0
   20.9465  -26.9443  -21.5605 C   0  0  0  0  0  0  0  0  0  0  0  0
   20.0412  -27.7523  -20.8839 C   0  0  0  0  0  0  0  0  0  0  0  0
   20.4124  -28.4120  -19.7323 C   0  0  0  0  0  0  0  0  0  0  0  0
   21.6905  -28.2807  -19.2318 C   0  0  0  0  0  0  0  0  0  0  0  0
   21.7758  -30.1685  -14.7019 C   0  0  0  0  0  0  0  0  0  0  0  0
   22.0893  -31.2972  -13.9739 O   0  0  0  0  0  0  0  0  0  0  0  0
   20.7682  -29.4953  -14.3702 O   0  0  0  0  0  0  0  0  0  0  0  0
  1  2  1  0
  2  3  1  0
  3  4  1  6
  3  5  1  0
  5  6  2  0
  8  7  1  0
  8  9  2  0
 10 11  1  0
 10  8  1  0
 12 11  1  1
 12 14  1  0
 13  5  1  0
 13 12  1  0
 14 15  2  0
 16 17  1  0
 16 14  1  0
 17 28  1  0
 17 18  1  6
 19 18  1  0
 20 19  2  0
 21 22  1  0
 21 20  1  0
 22 27  2  0
 23 24  2  0
 23 22  1  0
 24 25  1  0
 25 26  2  0
 27 26  1  0
 27 19  1  0
 28 30  2  0
 28 29  1  0
M  END
$$$$
