SQW.pdb
     RDKit          3D

 30 31  0  0  1  0  0  0  0  0999 V2000
   26.3938  -17.3466  -17.1074 O   0  0  0  0  0  0  0  0  0  0  0  0
   27.4755  -17.4500  -16.2263 C   0  0  0  0  0  0  0  0  0  0  0  0
   27.9479  -18.8983  -16.1539 C   0  0  2  0  0  0  0  0  0  0  0  0
   28.1889  -19.4016  -17.4951 N   0  0  0  0  0  0  0  0  0  0  0  0
   26.8997  -19.6776  -15.4576 C   0  0  0  0  0  0  0  0  0  0  0  0
   26.1405  -20.3944  -16.1598 O   0  0  0  0  0  0  0  0  0  0  0  0
   26.1162  -20.1919   -9.2206 N   0  0  0  0  0  0  0  0  0  0  0  0
   25.1140  -21.0685   -9.7082 C   0  0  0  0  0  0  0  0  0  0  0  0
   24.4359  -21.7615   -8.9346 O   0  0  0  0  0  0  0  0  0  0  0  0
   24.8579  -21.1701  -11.1810 C   0  0  0  0  0  0  0  0  0  0  0  0
   25.8648  -20.3256  -11.8904 C   0  0  0  0  0  0  0  0  0  0  0  0
   25.6655  -20.3327  -13.3597 C   0  0  2  0  0  0  0  0  0  0  0  0
   26.7441  -19.6308  -14.0511 N   0  0  0  0  0  0  0  0  0  0  0  0
   24.3913  -19.7270  -13.7355 C   0  0  0  0  0  0  0  0  0  0  0  0
   24.1305  -18.5256  -13.5999 O   0  0  0  0  0  0  0  0  0  0  0  0
   23.3427  -20.5449  -14.3045 N   0  0  0  0  0  0  0  0  0  0  0  0
   22.0609  -19.9500  -14.6991 C   0  0  1  0  0  0  0  0  0  0  0  0
   22.0036  -19.9912  -16.2103 C   0  0  0  0  0  0  0  0  0  0  0  0
   20.7675  -19.4361  -16.7695 C   0  0  0  0  0  0  0  0  0  0  0  0
   20.3036  -18.1585  -16.5757 C   0  0  0  0  0  0  0  0  0  0  0  0
   19.1501  -18.0619  -17.2576 N   0  0  0  0  0  0  0  0  0  0  0  0
   18.8629  -19.2255  -17.8763 C   0  0  0  0  0  0  0  0  0  0  0  0
   17.7964  -19.6042  -18.6828 C   0  0  0  0  0  0  0  0  0  0  0  0
   17.7372  -20.8626  -19.1942 C   0  0  0  0  0  0  0  0  0  0  0  0
   18.7558  -21.7601  -18.8988 C   0  0  0  0  0  0  0  0  0  0  0  0
   19.8132  -21.3842  -18.0990 C   0  0  0  0  0  0  0  0  0  0  0  0
   19.8778  -20.1091  -17.5780 C   0  0  0  0  0  0  0  0  0  0  0  0
   20.9375  -20.6483  -14.0703 C   0  0  0  0  0  0  0  0  0  0  0  0
   20.9185  -22.0210  -13.9383 O   0  0  0  0  0  0  0  0  0  0  0  0
   19.9619  -19.9855  -13.6373 O   0  0  0  0  0  0  0  0  0  0  0  0
  1  2  1  0
  2  3  1  0
  3  4  1  6
  3  5  1  0
  5  6  2  0
  8  7  1  0
  8  9  2  0
 10 11  1  0
 10  8  1  0
 12 11  1  1
 12 14  1  0
 13  5  1  0
 13 12  1  0
 14 15  2  0
 16 17  1  0
 16 14  1  0
 17 28  1  0
 17 18  1  6
 19 18  1  0
 20 19  2  0
 21 22  1  0
 21 20  1  0
 22 27  2  0
 23 24  2  0
 23 22  1  0
 24 25  1  0
 25 26  2  0
 27 26  1  0
 27 19  1  0
 28 30  2  0
 28 29  1  0
M  END
$$$$
