SQW.pdb
     RDKit          3D

 30 31  0  0  1  0  0  0  0  0999 V2000
   29.4435  -23.3761  -16.0098 O   0  0  0  0  0  0  0  0  0  0  0  0
   29.0572  -22.2340  -15.3005 C   0  0  0  0  0  0  0  0  0  0  0  0
   27.9555  -21.5012  -16.0590 C   0  0  2  0  0  0  0  0  0  0  0  0
   28.5465  -20.6430  -17.0712 N   0  0  0  0  0  0  0  0  0  0  0  0
   27.1725  -20.7238  -15.0724 C   0  0  0  0  0  0  0  0  0  0  0  0
   27.3137  -19.4736  -15.0682 O   0  0  0  0  0  0  0  0  0  0  0  0
   21.4541  -20.7179  -14.5797 N   0  0  0  0  0  0  0  0  0  0  0  0
   21.6925  -19.9922  -13.3851 C   0  0  0  0  0  0  0  0  0  0  0  0
   20.7606  -19.4699  -12.7548 O   0  0  0  0  0  0  0  0  0  0  0  0
   23.0890  -19.8453  -12.8624 C   0  0  0  0  0  0  0  0  0  0  0  0
   24.0103  -20.5867  -13.7744 C   0  0  0  0  0  0  0  0  0  0  0  0
   25.4075  -20.5883  -13.2779 C   0  0  2  0  0  0  0  0  0  0  0  0
   26.2895  -21.3494  -14.1593 N   0  0  0  0  0  0  0  0  0  0  0  0
   25.5011  -21.1373  -11.9282 C   0  0  0  0  0  0  0  0  0  0  0  0
   25.3945  -22.3405  -11.6626 O   0  0  0  0  0  0  0  0  0  0  0  0
   25.7318  -20.2561  -10.8045 N   0  0  0  0  0  0  0  0  0  0  0  0
   25.8288  -20.7913   -9.4418 C   0  0  1  0  0  0  0  0  0  0  0  0
   26.8131  -19.9179   -8.6954 C   0  0  0  0  0  0  0  0  0  0  0  0
   27.0251  -20.3242   -7.3031 C   0  0  0  0  0  0  0  0  0  0  0  0
   26.3307  -21.3062   -6.6406 C   0  0  0  0  0  0  0  0  0  0  0  0
   26.8344  -21.3589   -5.3963 N   0  0  0  0  0  0  0  0  0  0  0  0
   27.8200  -20.4512   -5.2417 C   0  0  0  0  0  0  0  0  0  0  0  0
   28.6238  -20.1367   -4.1526 C   0  0  0  0  0  0  0  0  0  0  0  0
   29.5636  -19.1594   -4.2541 C   0  0  0  0  0  0  0  0  0  0  0  0
   29.7067  -18.4829   -5.4591 C   0  0  0  0  0  0  0  0  0  0  0  0
   28.9094  -18.7950   -6.5390 C   0  0  0  0  0  0  0  0  0  0  0  0
   27.9549  -19.7853   -6.4410 C   0  0  0  0  0  0  0  0  0  0  0  0
   24.5143  -20.8414   -8.7980 C   0  0  0  0  0  0  0  0  0  0  0  0
   24.1964  -21.8126   -7.8719 O   0  0  0  0  0  0  0  0  0  0  0  0
   23.6486  -19.9797   -9.0923 O   0  0  0  0  0  0  0  0  0  0  0  0
  1  2  1  0
  2  3  1  0
  3  4  1  6
  3  5  1  0
  5  6  2  0
  8  7  1  0
  8  9  2  0
 10 11  1  0
 10  8  1  0
 12 11  1  6
 12 14  1  0
 13  5  1  0
 13 12  1  0
 14 15  2  0
 16 17  1  0
 16 14  1  0
 17 28  1  0
 17 18  1  1
 19 18  1  0
 20 19  2  0
 21 22  1  0
 21 20  1  0
 22 27  2  0
 23 24  2  0
 23 22  1  0
 24 25  1  0
 25 26  2  0
 27 26  1  0
 27 19  1  0
 28 30  2  0
 28 29  1  0
M  END
$$$$
