SQW.pdb
     RDKit          3D

 30 31  0  0  1  0  0  0  0  0999 V2000
   25.2004  -25.5371  -16.4639 O   0  0  0  0  0  0  0  0  0  0  0  0
   25.7246  -25.0668  -17.6726 C   0  0  0  0  0  0  0  0  0  0  0  0
   27.1914  -24.6910  -17.4896 C   0  0  2  0  0  0  0  0  0  0  0  0
   27.9485  -25.8613  -17.0806 N   0  0  0  0  0  0  0  0  0  0  0  0
   27.2556  -23.6160  -16.4741 C   0  0  0  0  0  0  0  0  0  0  0  0
   28.2096  -23.6423  -15.6542 O   0  0  0  0  0  0  0  0  0  0  0  0
   28.4845  -18.7280  -16.7932 N   0  0  0  0  0  0  0  0  0  0  0  0
   27.6453  -18.2434  -15.7579 C   0  0  0  0  0  0  0  0  0  0  0  0
   27.9529  -17.2374  -15.1007 O   0  0  0  0  0  0  0  0  0  0  0  0
   26.3616  -18.9480  -15.4410 C   0  0  0  0  0  0  0  0  0  0  0  0
   26.2611  -20.1537  -16.3164 C   0  0  0  0  0  0  0  0  0  0  0  0
   26.4421  -21.4138  -15.5562 C   0  0  2  0  0  0  0  0  0  0  0  0
   26.2863  -22.5857  -16.4145 N   0  0  0  0  0  0  0  0  0  0  0  0
   25.5009  -21.5147  -14.4446 C   0  0  0  0  0  0  0  0  0  0  0  0
   24.2883  -21.7159  -14.5818 O   0  0  0  0  0  0  0  0  0  0  0  0
   25.9726  -21.3771  -13.0841 N   0  0  0  0  0  0  0  0  0  0  0  0
   25.0711  -21.6175  -11.9518 C   0  0  1  0  0  0  0  0  0  0  0  0
   25.9399  -21.7693  -10.7225 C   0  0  0  0  0  0  0  0  0  0  0  0
   26.2970  -20.4956  -10.0912 C   0  0  0  0  0  0  0  0  0  0  0  0
   26.3824  -19.2820  -10.7279 C   0  0  0  0  0  0  0  0  0  0  0  0
   26.7342  -18.3829   -9.7938 N   0  0  0  0  0  0  0  0  0  0  0  0
   26.8754  -18.9756   -8.5904 C   0  0  0  0  0  0  0  0  0  0  0  0
   27.2224  -18.4663   -7.3449 C   0  0  0  0  0  0  0  0  0  0  0  0
   27.2983  -19.2891   -6.2651 C   0  0  0  0  0  0  0  0  0  0  0  0
   27.0246  -20.6416   -6.4264 C   0  0  0  0  0  0  0  0  0  0  0  0
   26.6805  -21.1463   -7.6617 C   0  0  0  0  0  0  0  0  0  0  0  0
   26.6022  -20.3159   -8.7597 C   0  0  0  0  0  0  0  0  0  0  0  0
   24.0872  -20.5407  -11.8207 C   0  0  0  0  0  0  0  0  0  0  0  0
   22.9935  -20.6545  -10.9882 O   0  0  0  0  0  0  0  0  0  0  0  0
   24.2373  -19.4823  -12.4809 O   0  0  0  0  0  0  0  0  0  0  0  0
  1  2  1  0
  2  3  1  0
  3  4  1  1
  3  5  1  0
  5  6  2  0
  8  7  1  0
  8  9  2  0
 10 11  1  0
 10  8  1  0
 12 11  1  6
 12 14  1  0
 13  5  1  0
 13 12  1  0
 14 15  2  0
 16 17  1  0
 16 14  1  0
 17 28  1  0
 17 18  1  1
 19 18  1  0
 20 19  2  0
 21 22  1  0
 21 20  1  0
 22 27  2  0
 23 24  2  0
 23 22  1  0
 24 25  1  0
 25 26  2  0
 27 26  1  0
 27 19  1  0
 28 30  2  0
 28 29  1  0
M  END
$$$$
