ISQ.pdb
     RDKit          3D

 24 23  0  0  1  0  0  0  0  0999 V2000
    7.8932  -11.8223   20.0779 C   0  0  0  0  0  0  0  0  0  0  0  0
    7.5898  -13.3034   20.0723 C   0  0  0  0  0  0  0  0  0  0  0  0
    7.9414  -13.9252   21.4162 C   0  0  2  0  0  0  0  0  0  0  0  0
    9.4075  -13.7367   21.7302 C   0  0  0  0  0  0  0  0  0  0  0  0
    7.6474  -15.4162   21.3910 C   0  0  2  0  0  0  0  0  0  0  0  0
    6.2664  -15.6827   21.0634 N   0  0  0  0  0  0  0  0  0  0  0  0
    8.0441  -16.0363   22.6772 C   0  0  0  0  0  0  0  0  0  0  0  0
    7.3361  -15.9120   23.7039 O   0  0  0  0  0  0  0  0  0  0  0  0
   11.6199  -18.2299   23.0677 O   0  0  0  0  0  0  0  0  0  0  0  0
   10.5723  -18.5300   23.9145 C   0  0  0  0  0  0  0  0  0  0  0  0
    9.5911  -17.3904   24.0588 C   0  0  2  0  0  0  0  0  0  0  0  0
    9.2397  -16.7929   22.7929 N   0  0  0  0  0  0  0  0  0  0  0  0
   10.1800  -16.3913   24.9945 C   0  0  0  0  0  0  0  0  0  0  0  0
   11.1061  -15.6187   24.7110 O   0  0  0  0  0  0  0  0  0  0  0  0
    6.4289  -13.6581   27.0466 N   0  0  0  0  0  0  0  0  0  0  0  0
    7.5136  -12.9121   26.5240 C   0  0  0  0  0  0  0  0  0  0  0  0
    7.2075  -11.8725   25.8407 O   0  0  0  0  0  0  0  0  0  0  0  0
    8.9414  -13.2519   26.7225 C   0  0  0  0  0  0  0  0  0  0  0  0
    9.0752  -14.4437   27.5812 C   0  0  0  0  0  0  0  0  0  0  0  0
   10.1781  -15.3988   27.3277 C   0  0  2  0  0  0  0  0  0  0  0  0
    9.6369  -16.3255   26.2998 N   0  0  0  0  0  0  0  0  0  0  0  0
   10.7513  -16.1611   28.4071 C   0  0  0  0  0  0  0  0  0  0  0  0
   10.7074  -17.5419   28.5354 O   0  0  0  0  0  0  0  0  0  0  0  0
   11.3631  -15.5697   29.3666 O   0  0  0  0  0  0  0  0  0  0  0  0
  1  2  1  0
  3  5  1  0
  3  2  1  0
  3  4  1  6
  5  7  1  0
  5  6  1  1
  7  8  2  0
 10  9  1  0
 11 10  1  6
 12 11  1  0
 12  7  1  0
 13 21  1  0
 13 11  1  0
 14 13  2  0
 16 17  2  0
 16 15  1  0
 18 16  1  0
 19 18  1  0
 20 21  1  0
 20 19  1  1
 22 20  1  0
 23 22  1  0
 24 22  2  0
M  END
$$$$
