ISQ.pdb
     RDKit          3D

 24 23  0  0  1  0  0  0  0  0999 V2000
    7.3021  -15.6320   14.6237 C   0  0  0  0  0  0  0  0  0  0  0  0
    8.5984  -14.8576   14.7008 C   0  0  0  0  0  0  0  0  0  0  0  0
    9.1462  -14.8742   16.1206 C   0  0  2  0  0  0  0  0  0  0  0  0
    9.2875  -16.2908   16.6273 C   0  0  0  0  0  0  0  0  0  0  0  0
    8.2028  -14.1277   17.0496 C   0  0  2  0  0  0  0  0  0  0  0  0
    7.9663  -12.7767   16.5976 N   0  0  0  0  0  0  0  0  0  0  0  0
    8.7167  -14.1681   18.4390 C   0  0  0  0  0  0  0  0  0  0  0  0
    9.8660  -13.7537   18.7186 O   0  0  0  0  0  0  0  0  0  0  0  0
    6.9443  -16.5569   21.4374 O   0  0  0  0  0  0  0  0  0  0  0  0
    7.5194  -15.3652   21.8292 C   0  0  0  0  0  0  0  0  0  0  0  0
    8.5042  -14.8293   20.8166 C   0  0  2  0  0  0  0  0  0  0  0  0
    7.9267  -14.6776   19.5027 N   0  0  0  0  0  0  0  0  0  0  0  0
    9.6851  -15.7379   20.7973 C   0  0  0  0  0  0  0  0  0  0  0  0
   10.1403  -16.2826   19.7819 O   0  0  0  0  0  0  0  0  0  0  0  0
   13.4095  -14.6386   18.7909 N   0  0  0  0  0  0  0  0  0  0  0  0
   14.2911  -14.7789   19.8905 C   0  0  0  0  0  0  0  0  0  0  0  0
   15.5425  -14.7163   19.6231 O   0  0  0  0  0  0  0  0  0  0  0  0
   13.8610  -14.9813   21.2931 C   0  0  0  0  0  0  0  0  0  0  0  0
   12.3926  -15.0955   21.3728 C   0  0  0  0  0  0  0  0  0  0  0  0
   11.7936  -16.2261   22.1181 C   0  0  2  0  0  0  0  0  0  0  0  0
   10.3287  -15.9922   22.0319 N   0  0  0  0  0  0  0  0  0  0  0  0
   12.1597  -16.4779   23.4884 C   0  0  0  0  0  0  0  0  0  0  0  0
   13.2449  -17.2322   23.9106 O   0  0  0  0  0  0  0  0  0  0  0  0
   11.4579  -15.9958   24.4473 O   0  0  0  0  0  0  0  0  0  0  0  0
  1  2  1  0
  3  5  1  0
  3  2  1  0
  3  4  1  1
  5  7  1  0
  5  6  1  6
  7  8  2  0
 10  9  1  0
 11 10  1  1
 12 11  1  0
 12  7  1  0
 13 21  1  0
 13 11  1  0
 14 13  2  0
 16 17  2  0
 16 15  1  0
 18 16  1  0
 19 18  1  0
 20 21  1  0
 20 19  1  1
 22 20  1  0
 23 22  1  0
 24 22  2  0
M  END
$$$$
