ISQ.pdb
     RDKit          3D

 24 23  0  0  1  0  0  0  0  0999 V2000
    6.9570  -12.7564   18.3692 C   0  0  0  0  0  0  0  0  0  0  0  0
    8.2947  -13.2480   18.8738 C   0  0  0  0  0  0  0  0  0  0  0  0
    8.1262  -14.0014   20.1854 C   0  0  2  0  0  0  0  0  0  0  0  0
    7.6265  -13.0814   21.2751 C   0  0  0  0  0  0  0  0  0  0  0  0
    9.4604  -14.5812   20.6259 C   0  0  2  0  0  0  0  0  0  0  0  0
   10.0963  -15.3248   19.5638 N   0  0  0  0  0  0  0  0  0  0  0  0
    9.2825  -15.3989   21.8490 C   0  0  0  0  0  0  0  0  0  0  0  0
    8.6872  -14.9437   22.8536 O   0  0  0  0  0  0  0  0  0  0  0  0
   11.8012  -18.6310   22.7822 O   0  0  0  0  0  0  0  0  0  0  0  0
   10.4717  -18.7571   23.1304 C   0  0  0  0  0  0  0  0  0  0  0  0
    9.7527  -17.4296   23.1870 C   0  0  2  0  0  0  0  0  0  0  0  0
    9.7796  -16.7262   21.9270 N   0  0  0  0  0  0  0  0  0  0  0  0
   10.3621  -16.6223   24.2813 C   0  0  0  0  0  0  0  0  0  0  0  0
   11.0419  -15.6007   24.1105 O   0  0  0  0  0  0  0  0  0  0  0  0
    7.2013  -13.2616   25.8640 N   0  0  0  0  0  0  0  0  0  0  0  0
    7.9557  -13.1023   27.0521 C   0  0  0  0  0  0  0  0  0  0  0  0
    7.6283  -12.1162   27.8016 O   0  0  0  0  0  0  0  0  0  0  0  0
    9.0657  -13.9897   27.4692 C   0  0  0  0  0  0  0  0  0  0  0  0
    9.2539  -15.0776   26.4911 C   0  0  0  0  0  0  0  0  0  0  0  0
   10.2536  -16.1345   26.7671 C   0  0  2  0  0  0  0  0  0  0  0  0
   10.1439  -17.0598   25.6095 N   0  0  0  0  0  0  0  0  0  0  0  0
   10.2033  -16.8904   27.9923 C   0  0  0  0  0  0  0  0  0  0  0  0
   10.8343  -16.5497   29.1800 O   0  0  0  0  0  0  0  0  0  0  0  0
    9.5391  -17.9857   28.0528 O   0  0  0  0  0  0  0  0  0  0  0  0
  1  2  1  0
  3  5  1  0
  3  2  1  0
  3  4  1  1
  5  7  1  0
  5  6  1  6
  7  8  2  0
 10  9  1  0
 11 10  1  6
 12 11  1  0
 12  7  1  0
 13 21  1  0
 13 11  1  0
 14 13  2  0
 16 17  2  0
 16 15  1  0
 18 16  1  0
 19 18  1  0
 20 21  1  0
 20 19  1  1
 22 20  1  0
 23 22  1  0
 24 22  2  0
M  END
$$$$
