ISQ.pdb
     RDKit          3D

 24 23  0  0  1  0  0  0  0  0999 V2000
    5.7679  -11.5185   26.4901 C   0  0  0  0  0  0  0  0  0  0  0  0
    5.4333  -12.8832   25.9319 C   0  0  0  0  0  0  0  0  0  0  0  0
    6.7011  -13.6143   25.5141 C   0  0  2  0  0  0  0  0  0  0  0  0
    7.4392  -12.8445   24.4435 C   0  0  0  0  0  0  0  0  0  0  0  0
    6.3507  -14.9853   24.9594 C   0  0  2  0  0  0  0  0  0  0  0  0
    5.5403  -15.7439   25.8831 N   0  0  0  0  0  0  0  0  0  0  0  0
    7.5844  -15.7109   24.5752 C   0  0  0  0  0  0  0  0  0  0  0  0
    8.2883  -16.2944   25.4325 O   0  0  0  0  0  0  0  0  0  0  0  0
    8.6987  -15.6074   20.7085 O   0  0  0  0  0  0  0  0  0  0  0  0
    9.4835  -16.5114   21.3951 C   0  0  0  0  0  0  0  0  0  0  0  0
    9.1831  -16.5418   22.8754 C   0  0  2  0  0  0  0  0  0  0  0  0
    8.0134  -15.7712   23.2234 N   0  0  0  0  0  0  0  0  0  0  0  0
   10.3935  -16.0632   23.6009 C   0  0  0  0  0  0  0  0  0  0  0  0
   10.7261  -14.8750   23.7122 O   0  0  0  0  0  0  0  0  0  0  0  0
   11.7919  -15.1416   29.3351 N   0  0  0  0  0  0  0  0  0  0  0  0
   11.0627  -16.0534   28.5332 C   0  0  0  0  0  0  0  0  0  0  0  0
   10.4456  -16.9868   29.1574 O   0  0  0  0  0  0  0  0  0  0  0  0
   10.9697  -15.9873   27.0566 C   0  0  0  0  0  0  0  0  0  0  0  0
   11.9292  -16.9197   26.4354 C   0  0  0  0  0  0  0  0  0  0  0  0
   12.3841  -16.6729   25.0481 C   0  0  2  0  0  0  0  0  0  0  0  0
   11.2180  -17.0425   24.2044 N   0  0  0  0  0  0  0  0  0  0  0  0
   13.5682  -17.3160   24.5388 C   0  0  0  0  0  0  0  0  0  0  0  0
   14.8717  -16.8819   24.7321 O   0  0  0  0  0  0  0  0  0  0  0  0
   13.4754  -18.3826   23.8329 O   0  0  0  0  0  0  0  0  0  0  0  0
  1  2  1  0
  3  5  1  0
  3  2  1  0
  3  4  1  6
  5  7  1  0
  5  6  1  1
  7  8  2  0
 10  9  1  0
 11 10  1  6
 12 11  1  0
 12  7  1  0
 13 21  1  0
 13 11  1  0
 14 13  2  0
 16 17  2  0
 16 15  1  0
 18 16  1  0
 19 18  1  0
 20 21  1  0
 20 19  1  1
 22 20  1  0
 23 22  1  0
 24 22  2  0
M  END
$$$$
