ISQ.pdb
     RDKit          3D

 24 23  0  0  1  0  0  0  0  0999 V2000
    7.8159  -11.9040   19.0405 C   0  0  0  0  0  0  0  0  0  0  0  0
    7.8440  -13.4108   18.9203 C   0  0  0  0  0  0  0  0  0  0  0  0
    7.8409  -14.0561   20.2987 C   0  0  2  0  0  0  0  0  0  0  0  0
    9.0258  -13.5920   21.1137 C   0  0  0  0  0  0  0  0  0  0  0  0
    7.9180  -15.5681   20.1641 C   0  0  2  0  0  0  0  0  0  0  0  0
    6.7911  -16.0972   19.4324 N   0  0  0  0  0  0  0  0  0  0  0  0
    8.0571  -16.1930   21.5007 C   0  0  0  0  0  0  0  0  0  0  0  0
    7.1182  -16.1670   22.3306 O   0  0  0  0  0  0  0  0  0  0  0  0
   11.7044  -17.9503   22.8683 O   0  0  0  0  0  0  0  0  0  0  0  0
   10.4903  -18.3691   23.3734 C   0  0  0  0  0  0  0  0  0  0  0  0
    9.4088  -17.3225   23.2420 C   0  0  2  0  0  0  0  0  0  0  0  0
    9.2578  -16.8429   21.8892 N   0  0  0  0  0  0  0  0  0  0  0  0
    9.7235  -16.2141   24.1870 C   0  0  0  0  0  0  0  0  0  0  0  0
   10.3492  -15.1874   23.8879 O   0  0  0  0  0  0  0  0  0  0  0  0
    6.4854  -11.1664   27.1399 N   0  0  0  0  0  0  0  0  0  0  0  0
    6.7938  -12.5024   26.7847 C   0  0  0  0  0  0  0  0  0  0  0  0
    5.9063  -13.1249   26.1018 O   0  0  0  0  0  0  0  0  0  0  0  0
    8.0511  -13.1990   27.1416 C   0  0  0  0  0  0  0  0  0  0  0  0
    8.2393  -14.3928   26.2960 C   0  0  0  0  0  0  0  0  0  0  0  0
    9.4220  -15.2564   26.5152 C   0  0  2  0  0  0  0  0  0  0  0  0
    9.2713  -16.3506   25.5212 N   0  0  0  0  0  0  0  0  0  0  0  0
    9.6881  -15.8206   27.8136 C   0  0  0  0  0  0  0  0  0  0  0  0
   10.3710  -15.1919   28.8448 O   0  0  0  0  0  0  0  0  0  0  0  0
    9.2906  -17.0056   28.1007 O   0  0  0  0  0  0  0  0  0  0  0  0
  1  2  1  0
  3  5  1  0
  3  2  1  0
  3  4  1  1
  5  7  1  0
  5  6  1  1
  7  8  2  0
 10  9  1  0
 11 10  1  6
 12 11  1  0
 12  7  1  0
 13 21  1  0
 13 11  1  0
 14 13  2  0
 16 17  2  0
 16 15  1  0
 18 16  1  0
 19 18  1  0
 20 21  1  0
 20 19  1  1
 22 20  1  0
 23 22  1  0
 24 22  2  0
M  END
$$$$
