ISQ.pdb
     RDKit          3D

 24 23  0  0  1  0  0  0  0  0999 V2000
    8.2594  -12.1879   19.4655 C   0  0  0  0  0  0  0  0  0  0  0  0
    7.2657  -13.2707   19.8205 C   0  0  0  0  0  0  0  0  0  0  0  0
    7.7270  -14.0347   21.0534 C   0  0  2  0  0  0  0  0  0  0  0  0
    9.1194  -13.6111   21.4603 C   0  0  0  0  0  0  0  0  0  0  0  0
    7.7488  -15.5262   20.7616 C   0  0  2  0  0  0  0  0  0  0  0  0
    6.4618  -16.0009   20.3104 N   0  0  0  0  0  0  0  0  0  0  0  0
    8.2325  -16.2712   21.9479 C   0  0  0  0  0  0  0  0  0  0  0  0
    7.5258  -16.3834   22.9769 O   0  0  0  0  0  0  0  0  0  0  0  0
   12.2539  -17.7648   22.3619 O   0  0  0  0  0  0  0  0  0  0  0  0
   11.1773  -18.4150   22.9300 C   0  0  0  0  0  0  0  0  0  0  0  0
   10.0012  -17.4983   23.1730 C   0  0  2  0  0  0  0  0  0  0  0  0
    9.5128  -16.8841   21.9618 N   0  0  0  0  0  0  0  0  0  0  0  0
   10.4119  -16.4795   24.1800 C   0  0  0  0  0  0  0  0  0  0  0  0
   10.6428  -15.2890   23.9262 O   0  0  0  0  0  0  0  0  0  0  0  0
    7.1534  -13.5550   26.1376 N   0  0  0  0  0  0  0  0  0  0  0  0
    8.0155  -13.2743   27.2258 C   0  0  0  0  0  0  0  0  0  0  0  0
    7.6439  -12.3347   28.0135 O   0  0  0  0  0  0  0  0  0  0  0  0
    9.2828  -13.9894   27.5013 C   0  0  0  0  0  0  0  0  0  0  0  0
    9.5069  -15.0496   26.5005 C   0  0  0  0  0  0  0  0  0  0  0  0
   10.6770  -15.9456   26.6444 C   0  0  2  0  0  0  0  0  0  0  0  0
   10.5455  -16.9100   25.5216 N   0  0  0  0  0  0  0  0  0  0  0  0
   10.9037  -16.6653   27.8714 C   0  0  0  0  0  0  0  0  0  0  0  0
   11.6146  -16.1949   28.9661 O   0  0  0  0  0  0  0  0  0  0  0  0
   10.4390  -17.8507   28.0244 O   0  0  0  0  0  0  0  0  0  0  0  0
  1  2  1  0
  3  5  1  0
  3  2  1  0
  3  4  1  6
  5  7  1  0
  5  6  1  1
  7  8  2  0
 10  9  1  0
 11 10  1  6
 12 11  1  0
 12  7  1  0
 13 21  1  0
 13 11  1  0
 14 13  2  0
 16 17  2  0
 16 15  1  0
 18 16  1  0
 19 18  1  0
 20 21  1  0
 20 19  1  1
 22 20  1  0
 23 22  1  0
 24 22  2  0
M  END
$$$$
