ISQ.pdb
     RDKit          3D

 24 23  0  0  1  0  0  0  0  0999 V2000
    7.8519  -12.4363   19.0955 C   0  0  0  0  0  0  0  0  0  0  0  0
    7.6934  -13.9338   19.2312 C   0  0  0  0  0  0  0  0  0  0  0  0
    7.4473  -14.3148   20.6840 C   0  0  2  0  0  0  0  0  0  0  0  0
    8.6333  -13.9478   21.5457 C   0  0  0  0  0  0  0  0  0  0  0  0
    7.2222  -15.8137   20.7965 C   0  0  2  0  0  0  0  0  0  0  0  0
    6.1742  -16.2643   19.9110 N   0  0  0  0  0  0  0  0  0  0  0  0
    6.9582  -16.1857   22.2065 C   0  0  0  0  0  0  0  0  0  0  0  0
    6.0212  -15.6603   22.8522 O   0  0  0  0  0  0  0  0  0  0  0  0
    8.8832  -19.3792   24.2692 O   0  0  0  0  0  0  0  0  0  0  0  0
    7.7286  -18.7748   24.7230 C   0  0  0  0  0  0  0  0  0  0  0  0
    7.6207  -17.3278   24.3022 C   0  0  2  0  0  0  0  0  0  0  0  0
    7.7563  -17.1497   22.8764 N   0  0  0  0  0  0  0  0  0  0  0  0
    8.6471  -16.5519   25.0539 C   0  0  0  0  0  0  0  0  0  0  0  0
    9.7699  -16.2600   24.6191 O   0  0  0  0  0  0  0  0  0  0  0  0
    5.6645  -12.5046   26.3802 N   0  0  0  0  0  0  0  0  0  0  0  0
    6.9385  -12.3904   26.9885 C   0  0  0  0  0  0  0  0  0  0  0  0
    7.0254  -11.5697   27.9684 O   0  0  0  0  0  0  0  0  0  0  0  0
    8.1403  -13.1494   26.5726 C   0  0  0  0  0  0  0  0  0  0  0  0
    8.5074  -14.1414   27.6006 C   0  0  0  0  0  0  0  0  0  0  0  0
    9.2601  -15.3526   27.2020 C   0  0  2  0  0  0  0  0  0  0  0  0
    8.3076  -16.1199   26.3582 N   0  0  0  0  0  0  0  0  0  0  0  0
    9.8287  -16.2242   28.1981 C   0  0  0  0  0  0  0  0  0  0  0  0
   10.9185  -15.9293   29.0045 O   0  0  0  0  0  0  0  0  0  0  0  0
    9.3333  -17.3896   28.4004 O   0  0  0  0  0  0  0  0  0  0  0  0
  1  2  1  0
  3  5  1  0
  3  2  1  0
  3  4  1  1
  5  7  1  0
  5  6  1  6
  7  8  2  0
 10  9  1  0
 11 10  1  6
 12 11  1  0
 12  7  1  0
 13 21  1  0
 13 11  1  0
 14 13  2  0
 16 17  2  0
 16 15  1  0
 18 16  1  0
 19 18  1  0
 20 21  1  0
 20 19  1  1
 22 20  1  0
 23 22  1  0
 24 22  2  0
M  END
$$$$
