ISQ.pdb
     RDKit          3D

 24 23  0  0  1  0  0  0  0  0999 V2000
    7.3966  -12.0167   19.6561 C   0  0  0  0  0  0  0  0  0  0  0  0
    7.5569  -13.5172   19.5619 C   0  0  0  0  0  0  0  0  0  0  0  0
    7.6851  -14.1283   20.9499 C   0  0  2  0  0  0  0  0  0  0  0  0
    8.9793  -13.7074   21.6067 C   0  0  0  0  0  0  0  0  0  0  0  0
    7.6714  -15.6450   20.8524 C   0  0  2  0  0  0  0  0  0  0  0  0
    6.4575  -16.1298   20.2387 N   0  0  0  0  0  0  0  0  0  0  0  0
    7.8976  -16.2443   22.1888 C   0  0  0  0  0  0  0  0  0  0  0  0
    6.9666  -16.3436   23.0219 O   0  0  0  0  0  0  0  0  0  0  0  0
   11.3408  -18.4806   23.1238 O   0  0  0  0  0  0  0  0  0  0  0  0
   10.1459  -18.6269   23.7986 C   0  0  0  0  0  0  0  0  0  0  0  0
    9.3507  -17.3441   23.8663 C   0  0  2  0  0  0  0  0  0  0  0  0
    9.1759  -16.7270   22.5734 N   0  0  0  0  0  0  0  0  0  0  0  0
   10.0327  -16.4297   24.8250 C   0  0  0  0  0  0  0  0  0  0  0  0
   11.0597  -15.7832   24.5753 O   0  0  0  0  0  0  0  0  0  0  0  0
    7.4183  -12.2407   28.0426 N   0  0  0  0  0  0  0  0  0  0  0  0
    7.6656  -12.5739   26.6883 C   0  0  0  0  0  0  0  0  0  0  0  0
    7.0617  -11.8611   25.8116 O   0  0  0  0  0  0  0  0  0  0  0  0
    8.5623  -13.6642   26.2404 C   0  0  0  0  0  0  0  0  0  0  0  0
    9.1510  -14.3596   27.4004 C   0  0  0  0  0  0  0  0  0  0  0  0
   10.1002  -15.4728   27.1721 C   0  0  2  0  0  0  0  0  0  0  0  0
    9.4600  -16.2943   26.1122 N   0  0  0  0  0  0  0  0  0  0  0  0
   10.5071  -16.3250   28.2599 C   0  0  0  0  0  0  0  0  0  0  0  0
   10.2480  -17.6840   28.3639 O   0  0  0  0  0  0  0  0  0  0  0  0
   11.1633  -15.8441   29.2512 O   0  0  0  0  0  0  0  0  0  0  0  0
  1  2  1  0
  3  5  1  0
  3  2  1  0
  3  4  1  6
  5  7  1  0
  5  6  1  1
  7  8  2  0
 10  9  1  0
 11 10  1  6
 12 11  1  0
 12  7  1  0
 13 21  1  0
 13 11  1  0
 14 13  2  0
 16 17  2  0
 16 15  1  0
 18 16  1  0
 19 18  1  0
 20 21  1  0
 20 19  1  1
 22 20  1  0
 23 22  1  0
 24 22  2  0
M  END
$$$$
