ISQ.pdb
     RDKit          3D

 24 23  0  0  1  0  0  0  0  0999 V2000
    5.9430  -11.5018   26.3792 C   0  0  0  0  0  0  0  0  0  0  0  0
    5.6067  -12.8695   25.8296 C   0  0  0  0  0  0  0  0  0  0  0  0
    6.8769  -13.6274   25.4707 C   0  0  2  0  0  0  0  0  0  0  0  0
    7.6587  -12.8949   24.4051 C   0  0  0  0  0  0  0  0  0  0  0  0
    6.5252  -15.0075   24.9397 C   0  0  2  0  0  0  0  0  0  0  0  0
    5.7314  -15.7570   25.8849 N   0  0  0  0  0  0  0  0  0  0  0  0
    7.7569  -15.7327   24.5483 C   0  0  0  0  0  0  0  0  0  0  0  0
    8.4805  -16.2930   25.4046 O   0  0  0  0  0  0  0  0  0  0  0  0
    9.4564  -15.4515   20.6953 O   0  0  0  0  0  0  0  0  0  0  0  0
    9.5622  -16.6607   21.3517 C   0  0  0  0  0  0  0  0  0  0  0  0
    9.3652  -16.5361   22.8444 C   0  0  2  0  0  0  0  0  0  0  0  0
    8.1615  -15.8189   23.1904 N   0  0  0  0  0  0  0  0  0  0  0  0
   10.5775  -15.8850   23.4161 C   0  0  0  0  0  0  0  0  0  0  0  0
   10.7651  -14.6613   23.4649 O   0  0  0  0  0  0  0  0  0  0  0  0
   10.6072  -14.2512   28.0678 N   0  0  0  0  0  0  0  0  0  0  0  0
   11.1372  -15.5460   28.2892 C   0  0  0  0  0  0  0  0  0  0  0  0
   10.9465  -16.0431   29.4545 O   0  0  0  0  0  0  0  0  0  0  0  0
   11.8725  -16.3384   27.2769 C   0  0  0  0  0  0  0  0  0  0  0  0
   11.9006  -15.6284   25.9843 C   0  0  0  0  0  0  0  0  0  0  0  0
   12.6425  -16.2214   24.8484 C   0  0  2  0  0  0  0  0  0  0  0  0
   11.5832  -16.7320   23.9400 N   0  0  0  0  0  0  0  0  0  0  0  0
   13.6226  -17.2533   25.0707 C   0  0  0  0  0  0  0  0  0  0  0  0
   13.4529  -18.6031   24.7981 O   0  0  0  0  0  0  0  0  0  0  0  0
   14.7691  -16.9640   25.5672 O   0  0  0  0  0  0  0  0  0  0  0  0
  1  2  1  0
  3  5  1  0
  3  2  1  0
  3  4  1  6
  5  7  1  0
  5  6  1  1
  7  8  2  0
 10  9  1  0
 11 10  1  6
 12 11  1  0
 12  7  1  0
 13 21  1  0
 13 11  1  0
 14 13  2  0
 16 17  2  0
 16 15  1  0
 18 16  1  0
 19 18  1  0
 20 21  1  0
 20 19  1  1
 22 20  1  0
 23 22  1  0
 24 22  2  0
M  END
$$$$
