ISQ.pdb
     RDKit          3D

 24 23  0  0  1  0  0  0  0  0999 V2000
    7.0962  -12.2220   18.9827 C   0  0  0  0  0  0  0  0  0  0  0  0
    7.4508  -13.6764   19.1942 C   0  0  0  0  0  0  0  0  0  0  0  0
    7.7343  -13.9481   20.6646 C   0  0  2  0  0  0  0  0  0  0  0  0
    8.9686  -13.2057   21.1217 C   0  0  0  0  0  0  0  0  0  0  0  0
    7.9643  -15.4346   20.8828 C   0  0  2  0  0  0  0  0  0  0  0  0
    6.8280  -16.2186   20.4590 N   0  0  0  0  0  0  0  0  0  0  0  0
    8.3230  -15.6933   22.2972 C   0  0  0  0  0  0  0  0  0  0  0  0
    9.3196  -15.1465   22.8249 O   0  0  0  0  0  0  0  0  0  0  0  0
    6.0900  -18.3356   24.7214 O   0  0  0  0  0  0  0  0  0  0  0  0
    6.8019  -17.3190   25.3248 C   0  0  0  0  0  0  0  0  0  0  0  0
    7.9432  -16.8169   24.4717 C   0  0  2  0  0  0  0  0  0  0  0  0
    7.5514  -16.5693   23.1049 N   0  0  0  0  0  0  0  0  0  0  0  0
    9.0518  -17.8092   24.5554 C   0  0  0  0  0  0  0  0  0  0  0  0
    9.2376  -18.7300   23.7476 O   0  0  0  0  0  0  0  0  0  0  0  0
   14.5946  -16.3685   23.3973 N   0  0  0  0  0  0  0  0  0  0  0  0
   13.2353  -16.7235   23.5772 C   0  0  0  0  0  0  0  0  0  0  0  0
   12.3721  -15.8255   23.2775 O   0  0  0  0  0  0  0  0  0  0  0  0
   12.7678  -18.0390   24.0716 C   0  0  0  0  0  0  0  0  0  0  0  0
   12.2795  -17.9268   25.4589 C   0  0  0  0  0  0  0  0  0  0  0  0
   11.0552  -18.6582   25.8571 C   0  0  2  0  0  0  0  0  0  0  0  0
    9.9542  -17.6845   25.6386 N   0  0  0  0  0  0  0  0  0  0  0  0
   10.9370  -19.2288   27.1744 C   0  0  0  0  0  0  0  0  0  0  0  0
   11.6107  -20.3515   27.6336 O   0  0  0  0  0  0  0  0  0  0  0  0
   10.1525  -18.7031   28.0420 O   0  0  0  0  0  0  0  0  0  0  0  0
  1  2  1  0
  3  5  1  0
  3  2  1  0
  3  4  1  6
  5  7  1  0
  5  6  1  1
  7  8  2  0
 10  9  1  0
 11 10  1  1
 12 11  1  0
 12  7  1  0
 13 21  1  0
 13 11  1  0
 14 13  2  0
 16 17  2  0
 16 15  1  0
 18 16  1  0
 19 18  1  0
 20 21  1  0
 20 19  1  1
 22 20  1  0
 23 22  1  0
 24 22  2  0
M  END
$$$$
