TKP.pdb
     RDKit          3D

 24 24  0  0  1  0  0  0  0  0999 V2000
   26.5408  -15.2080  -16.5965 C   0  0  0  0  0  0  0  0  0  0  0  0
   25.2229  -14.5548  -16.9795 C   0  0  1  0  0  0  0  0  0  0  0  0
   24.1620  -15.2354  -16.3982 O   0  0  0  0  0  0  0  0  0  0  0  0
   25.2866  -13.1192  -16.5465 C   0  0  2  0  0  0  0  0  0  0  0  0
   25.5492  -12.9996  -15.1451 N   0  0  0  0  0  0  0  0  0  0  0  0
   24.0984  -12.3334  -16.9636 C   0  0  0  0  0  0  0  0  0  0  0  0
   23.9364  -11.9048  -18.1283 O   0  0  0  0  0  0  0  0  0  0  0  0
   23.1102  -12.0667  -15.9783 N   0  0  0  0  0  0  0  0  0  0  0  0
   21.8881  -11.3015  -16.3076 C   0  0  1  0  0  0  0  0  0  0  0  0
   20.8216  -12.0647  -15.5103 C   0  0  0  0  0  0  0  0  0  0  0  0
   19.8883  -12.8529  -16.3441 C   0  0  0  0  0  0  0  0  0  0  0  0
   18.8265  -13.5291  -15.4527 C   0  0  0  0  0  0  0  0  0  0  0  0
   17.9300  -14.4073  -16.3053 C   0  0  0  0  0  0  0  0  0  0  0  0
   16.9101  -14.9430  -15.4185 N   0  0  0  0  0  0  0  0  0  0  0  0
   22.0653   -9.9581  -15.6390 C   0  0  0  0  0  0  0  0  0  0  0  0
   22.3930  -10.0604  -14.4115 O   0  0  0  0  0  0  0  0  0  0  0  0
   21.8831   -8.7609  -16.3267 N   0  0  0  0  0  0  0  0  0  0  0  0
   21.8688   -8.6549  -17.8034 C   0  0  0  0  0  0  0  0  0  0  0  0
   20.7642   -7.6664  -18.0874 C   0  0  0  0  0  0  0  0  0  0  0  0
   20.3640   -7.1447  -16.7331 C   0  0  0  0  0  0  0  0  0  0  0  0
   21.6677   -7.4251  -15.9214 C   0  0  1  0  0  0  0  0  0  0  0  0
   21.4620   -7.0993  -14.5301 C   0  0  0  0  0  0  0  0  0  0  0  0
   20.5682   -7.8816  -13.7857 O   0  0  0  0  0  0  0  0  0  0  0  0
   22.0104   -6.1793  -13.9259 O   0  0  0  0  0  0  0  0  0  0  0  0
  2  1  1  1
  2  3  1  0
  4  2  1  0
  4  5  1  1
  6  4  1  0
  7  6  2  0
  8  6  1  0
  9  8  1  0
 10 11  1  0
  9 10  1  1
 12 11  1  0
 13 14  1  0
 13 12  1  0
 15 17  1  0
 15  9  1  0
 16 15  2  0
 17 18  1  0
 19 18  1  0
 20 19  1  0
 21 17  1  0
 21 20  1  0
 22 23  1  0
 21 22  1  1
 24 22  2  0
M  END
$$$$
