TKP.pdb
     RDKit          3D

 24 24  0  0  1  0  0  0  0  0999 V2000
   28.1871  -21.8278  -17.8862 C   0  0  0  0  0  0  0  0  0  0  0  0
   28.7331  -20.7946  -18.8580 C   0  0  1  0  0  0  0  0  0  0  0  0
   29.0905  -21.4012  -20.0542 O   0  0  0  0  0  0  0  0  0  0  0  0
   27.6768  -19.7445  -19.0431 C   0  0  2  0  0  0  0  0  0  0  0  0
   28.0870  -18.7389  -19.9746 N   0  0  0  0  0  0  0  0  0  0  0  0
   27.2050  -19.1630  -17.7616 C   0  0  0  0  0  0  0  0  0  0  0  0
   27.6906  -18.1228  -17.2627 O   0  0  0  0  0  0  0  0  0  0  0  0
   26.1514  -19.8348  -17.0856 N   0  0  0  0  0  0  0  0  0  0  0  0
   25.5123  -19.2464  -15.8885 C   0  0  1  0  0  0  0  0  0  0  0  0
   24.1216  -18.8842  -16.4275 C   0  0  0  0  0  0  0  0  0  0  0  0
   23.2482  -18.2043  -15.4464 C   0  0  0  0  0  0  0  0  0  0  0  0
   22.0853  -17.4994  -16.1743 C   0  0  0  0  0  0  0  0  0  0  0  0
   21.1998  -16.7991  -15.1609 C   0  0  0  0  0  0  0  0  0  0  0  0
   20.1560  -16.1267  -15.9173 N   0  0  0  0  0  0  0  0  0  0  0  0
   25.3295  -20.3973  -14.9265 C   0  0  0  0  0  0  0  0  0  0  0  0
   24.3671  -21.1648  -15.2570 O   0  0  0  0  0  0  0  0  0  0  0  0
   26.1479  -20.5658  -13.8124 N   0  0  0  0  0  0  0  0  0  0  0  0
   27.5949  -20.2523  -13.8001 C   0  0  0  0  0  0  0  0  0  0  0  0
   27.8187  -19.6159  -12.4500 C   0  0  0  0  0  0  0  0  0  0  0  0
   26.5107  -19.7918  -11.7258 C   0  0  0  0  0  0  0  0  0  0  0  0
   25.9207  -21.0166  -12.4933 C   0  0  1  0  0  0  0  0  0  0  0  0
   24.5825  -21.2926  -12.0271 C   0  0  0  0  0  0  0  0  0  0  0  0
   24.4096  -22.2584  -11.0259 O   0  0  0  0  0  0  0  0  0  0  0  0
   23.5595  -20.7469  -12.4365 O   0  0  0  0  0  0  0  0  0  0  0  0
  2  1  1  1
  2  3  1  0
  4  2  1  0
  4  5  1  6
  6  4  1  0
  7  6  2  0
  8  6  1  0
  9  8  1  0
 10 11  1  0
  9 10  1  6
 12 11  1  0
 13 14  1  0
 13 12  1  0
 15 17  1  0
 15  9  1  0
 16 15  2  0
 17 18  1  0
 19 18  1  0
 20 19  1  0
 21 17  1  0
 21 20  1  0
 22 23  1  0
 21 22  1  6
 24 22  2  0
M  END
$$$$
