TKP.pdb
     RDKit          3D

 24 24  0  0  1  0  0  0  0  0999 V2000
   27.0673  -19.0233  -10.6401 C   0  0  0  0  0  0  0  0  0  0  0  0
   26.5352  -19.9541   -9.5629 C   0  0  1  0  0  0  0  0  0  0  0  0
   26.5767  -19.3294   -8.3241 O   0  0  0  0  0  0  0  0  0  0  0  0
   25.1423  -20.3518   -9.9558 C   0  0  2  0  0  0  0  0  0  0  0  0
   24.4625  -21.0228   -8.8906 N   0  0  0  0  0  0  0  0  0  0  0  0
   25.0939  -21.1207  -11.2245 C   0  0  0  0  0  0  0  0  0  0  0  0
   25.3698  -22.3395  -11.2965 O   0  0  0  0  0  0  0  0  0  0  0  0
   24.7138  -20.4209  -12.4010 N   0  0  0  0  0  0  0  0  0  0  0  0
   24.6556  -21.1029  -13.7122 C   0  0  1  0  0  0  0  0  0  0  0  0
   23.2065  -20.8300  -14.1381 C   0  0  0  0  0  0  0  0  0  0  0  0
   22.2075  -21.7070  -13.4898 C   0  0  0  0  0  0  0  0  0  0  0  0
   20.8134  -21.4625  -14.1029 C   0  0  0  0  0  0  0  0  0  0  0  0
   19.7970  -22.3693  -13.4349 C   0  0  0  0  0  0  0  0  0  0  0  0
   18.5051  -22.0431  -14.0167 N   0  0  0  0  0  0  0  0  0  0  0  0
   25.5465  -20.2921  -14.6243 C   0  0  0  0  0  0  0  0  0  0  0  0
   25.1293  -19.0983  -14.7834 O   0  0  0  0  0  0  0  0  0  0  0  0
   26.6923  -20.8290  -15.2060 N   0  0  0  0  0  0  0  0  0  0  0  0
   27.5203  -21.8807  -14.5730 C   0  0  0  0  0  0  0  0  0  0  0  0
   27.8913  -22.7912  -15.7181 C   0  0  0  0  0  0  0  0  0  0  0  0
   27.3984  -22.0755  -16.9474 C   0  0  0  0  0  0  0  0  0  0  0  0
   27.3643  -20.6038  -16.4277 C   0  0  1  0  0  0  0  0  0  0  0  0
   26.7968  -19.7384  -17.4344 C   0  0  0  0  0  0  0  0  0  0  0  0
   27.6450  -18.8438  -18.1017 O   0  0  0  0  0  0  0  0  0  0  0  0
   25.6132  -19.7138  -17.7667 O   0  0  0  0  0  0  0  0  0  0  0  0
  2  1  1  6
  2  3  1  0
  4  2  1  0
  4  5  1  1
  6  4  1  0
  7  6  2  0
  8  6  1  0
  9  8  1  0
 10 11  1  0
  9 10  1  6
 12 11  1  0
 13 14  1  0
 13 12  1  0
 15 17  1  0
 15  9  1  0
 16 15  2  0
 17 18  1  0
 19 18  1  0
 20 19  1  0
 21 17  1  0
 21 20  1  0
 22 23  1  0
 21 22  1  6
 24 22  2  0
M  END
$$$$
