TKP.pdb
     RDKit          3D

 24 24  0  0  1  0  0  0  0  0999 V2000
   20.3094  -12.9084  -19.5536 C   0  0  0  0  0  0  0  0  0  0  0  0
   19.7767  -13.3393  -18.1969 C   0  0  1  0  0  0  0  0  0  0  0  0
   19.9296  -14.7092  -18.0333 O   0  0  0  0  0  0  0  0  0  0  0  0
   20.5126  -12.5535  -17.1513 C   0  0  2  0  0  0  0  0  0  0  0  0
   20.2737  -13.0665  -15.8371 N   0  0  0  0  0  0  0  0  0  0  0  0
   20.2607  -11.0932  -17.2377 C   0  0  0  0  0  0  0  0  0  0  0  0
   20.3582  -10.4444  -18.3035 O   0  0  0  0  0  0  0  0  0  0  0  0
   19.8926  -10.4198  -16.0421 N   0  0  0  0  0  0  0  0  0  0  0  0
   19.4702   -9.0024  -16.0611 C   0  0  1  0  0  0  0  0  0  0  0  0
   18.2250   -9.0393  -15.1646 C   0  0  0  0  0  0  0  0  0  0  0  0
   17.0810   -9.7759  -15.7444 C   0  0  0  0  0  0  0  0  0  0  0  0
   15.9354   -9.8667  -14.7154 C   0  0  0  0  0  0  0  0  0  0  0  0
   14.7943  -10.6819  -15.2940 C   0  0  0  0  0  0  0  0  0  0  0  0
   13.7729  -10.7559  -14.2621 N   0  0  0  0  0  0  0  0  0  0  0  0
   20.5420   -8.2558  -15.3014 C   0  0  0  0  0  0  0  0  0  0  0  0
   20.8008   -8.7846  -14.1709 O   0  0  0  0  0  0  0  0  0  0  0  0
   21.1569   -7.1181  -15.8180 N   0  0  0  0  0  0  0  0  0  0  0  0
   21.2508   -6.8194  -17.2651 C   0  0  0  0  0  0  0  0  0  0  0  0
   21.0013   -5.3332  -17.3476 C   0  0  0  0  0  0  0  0  0  0  0  0
   20.9728   -4.8727  -15.9146 C   0  0  0  0  0  0  0  0  0  0  0  0
   21.8022   -6.0061  -15.2330 C   0  0  1  0  0  0  0  0  0  0  0  0
   21.8046   -5.8224  -13.8010 C   0  0  0  0  0  0  0  0  0  0  0  0
   22.8631   -5.1100  -13.2205 O   0  0  0  0  0  0  0  0  0  0  0  0
   20.9454   -6.2425  -13.0282 O   0  0  0  0  0  0  0  0  0  0  0  0
  2  1  1  6
  2  3  1  0
  4  2  1  0
  4  5  1  1
  6  4  1  0
  7  6  2  0
  8  6  1  0
  9  8  1  0
 10 11  1  0
  9 10  1  1
 12 11  1  0
 13 14  1  0
 13 12  1  0
 15 17  1  0
 15  9  1  0
 16 15  2  0
 17 18  1  0
 19 18  1  0
 20 19  1  0
 21 17  1  0
 21 20  1  0
 22 23  1  0
 21 22  1  1
 24 22  2  0
M  END
$$$$
