TKP.pdb
     RDKit          3D

 24 24  0  0  1  0  0  0  0  0999 V2000
   24.7565  -25.2298  -15.6392 C   0  0  0  0  0  0  0  0  0  0  0  0
   26.1694  -25.6783  -15.9748 C   0  0  1  0  0  0  0  0  0  0  0  0
   26.1366  -26.8043  -16.7858 O   0  0  0  0  0  0  0  0  0  0  0  0
   26.8676  -24.5225  -16.6298 C   0  0  2  0  0  0  0  0  0  0  0  0
   28.2048  -24.8589  -17.0119 N   0  0  0  0  0  0  0  0  0  0  0  0
   26.8110  -23.2773  -15.8240 C   0  0  0  0  0  0  0  0  0  0  0  0
   27.7584  -22.8828  -15.1074 O   0  0  0  0  0  0  0  0  0  0  0  0
   25.6156  -22.5119  -15.8833 N   0  0  0  0  0  0  0  0  0  0  0  0
   25.4617  -21.2705  -15.0941 C   0  0  1  0  0  0  0  0  0  0  0  0
   24.9662  -20.2854  -16.1617 C   0  0  0  0  0  0  0  0  0  0  0  0
   24.7149  -18.9182  -15.6566 C   0  0  0  0  0  0  0  0  0  0  0  0
   24.1902  -18.0221  -16.7972 C   0  0  0  0  0  0  0  0  0  0  0  0
   24.0446  -16.5965  -16.2991 C   0  0  0  0  0  0  0  0  0  0  0  0
   23.5414  -15.8160  -17.4178 N   0  0  0  0  0  0  0  0  0  0  0  0
   24.3034  -21.5319  -14.1597 C   0  0  0  0  0  0  0  0  0  0  0  0
   23.2036  -21.7091  -14.7792 O   0  0  0  0  0  0  0  0  0  0  0  0
   24.4638  -21.5693  -12.7769 N   0  0  0  0  0  0  0  0  0  0  0  0
   25.7425  -21.8966  -12.1060 C   0  0  0  0  0  0  0  0  0  0  0  0
   25.8013  -20.9349  -10.9442 C   0  0  0  0  0  0  0  0  0  0  0  0
   24.4542  -20.2629  -10.9389 C   0  0  0  0  0  0  0  0  0  0  0  0
   23.5975  -21.3325  -11.6867 C   0  0  1  0  0  0  0  0  0  0  0  0
   22.2605  -20.8316  -11.9008 C   0  0  0  0  0  0  0  0  0  0  0  0
   21.2256  -21.3231  -11.0931 O   0  0  0  0  0  0  0  0  0  0  0  0
   21.9400  -19.9962  -12.7442 O   0  0  0  0  0  0  0  0  0  0  0  0
  2  1  1  6
  2  3  1  0
  4  2  1  0
  4  5  1  1
  6  4  1  0
  7  6  2  0
  8  6  1  0
  9  8  1  0
 10 11  1  0
  9 10  1  6
 12 11  1  0
 13 14  1  0
 13 12  1  0
 15 17  1  0
 15  9  1  0
 16 15  2  0
 17 18  1  0
 19 18  1  0
 20 19  1  0
 21 17  1  0
 21 20  1  0
 22 23  1  0
 21 22  1  6
 24 22  2  0
M  END
$$$$
