TKP.pdb
     RDKit          3D

 24 24  0  0  1  0  0  0  0  0999 V2000
   27.6280  -19.6605  -17.6546 C   0  0  0  0  0  0  0  0  0  0  0  0
   28.1857  -21.0739  -17.6912 C   0  0  1  0  0  0  0  0  0  0  0  0
   29.5677  -21.0425  -17.8172 O   0  0  0  0  0  0  0  0  0  0  0  0
   27.7420  -21.7683  -16.4368 C   0  0  2  0  0  0  0  0  0  0  0  0
   28.3160  -23.0740  -16.3226 N   0  0  0  0  0  0  0  0  0  0  0  0
   26.2668  -21.7879  -16.2745 C   0  0  0  0  0  0  0  0  0  0  0  0
   25.5264  -22.6162  -16.8510 O   0  0  0  0  0  0  0  0  0  0  0  0
   25.6884  -20.8117  -15.4196 N   0  0  0  0  0  0  0  0  0  0  0  0
   24.2266  -20.7548  -15.2016 C   0  0  1  0  0  0  0  0  0  0  0  0
   24.1504  -20.3654  -13.7190 C   0  0  0  0  0  0  0  0  0  0  0  0
   22.7777  -20.1231  -13.2246 C   0  0  0  0  0  0  0  0  0  0  0  0
   22.1121  -21.4599  -12.8381 C   0  0  0  0  0  0  0  0  0  0  0  0
   20.6720  -21.2127  -12.4301 C   0  0  0  0  0  0  0  0  0  0  0  0
   20.1705  -22.4693  -11.8980 N   0  0  0  0  0  0  0  0  0  0  0  0
   23.7496  -19.5630  -15.9987 C   0  0  0  0  0  0  0  0  0  0  0  0
   24.2938  -18.4729  -15.6243 O   0  0  0  0  0  0  0  0  0  0  0  0
   22.8167  -19.6864  -17.0251 N   0  0  0  0  0  0  0  0  0  0  0  0
   22.5666  -20.9460  -17.7621 C   0  0  0  0  0  0  0  0  0  0  0  0
   21.0676  -20.9758  -17.9353 C   0  0  0  0  0  0  0  0  0  0  0  0
   20.6020  -19.6304  -17.4459 C   0  0  0  0  0  0  0  0  0  0  0  0
   21.9059  -18.7918  -17.6295 C   0  0  1  0  0  0  0  0  0  0  0  0
   21.7155  -17.4620  -17.1006 C   0  0  0  0  0  0  0  0  0  0  0  0
   22.0381  -16.3669  -17.9140 O   0  0  0  0  0  0  0  0  0  0  0  0
   21.2874  -17.1968  -15.9788 O   0  0  0  0  0  0  0  0  0  0  0  0
  2  1  1  1
  2  3  1  0
  4  2  1  0
  4  5  1  6
  6  4  1  0
  7  6  2  0
  8  6  1  0
  9  8  1  0
 10 11  1  0
  9 10  1  1
 12 11  1  0
 13 14  1  0
 13 12  1  0
 15 17  1  0
 15  9  1  0
 16 15  2  0
 17 18  1  0
 19 18  1  0
 20 19  1  0
 21 17  1  0
 21 20  1  0
 22 23  1  0
 21 22  1  1
 24 22  2  0
M  END
$$$$
