TKP.pdb
     RDKit          3D

 24 24  0  0  1  0  0  0  0  0999 V2000
   23.0953  -18.9418  -14.7847 C   0  0  0  0  0  0  0  0  0  0  0  0
   24.0942  -19.9966  -15.2313 C   0  0  1  0  0  0  0  0  0  0  0  0
   25.3785  -19.4700  -15.2392 O   0  0  0  0  0  0  0  0  0  0  0  0
   23.9625  -21.1674  -14.3015 C   0  0  2  0  0  0  0  0  0  0  0  0
   25.0289  -22.1053  -14.4762 N   0  0  0  0  0  0  0  0  0  0  0  0
   22.6289  -21.8155  -14.3689 C   0  0  0  0  0  0  0  0  0  0  0  0
   22.3132  -22.6397  -15.2565 O   0  0  0  0  0  0  0  0  0  0  0  0
   21.6809  -21.4698  -13.3689 N   0  0  0  0  0  0  0  0  0  0  0  0
   20.3778  -22.1635  -13.2771 C   0  0  1  0  0  0  0  0  0  0  0  0
   20.2292  -22.3421  -11.7600 C   0  0  0  0  0  0  0  0  0  0  0  0
   19.5380  -23.5869  -11.3599 C   0  0  0  0  0  0  0  0  0  0  0  0
   19.4849  -23.6903   -9.8218 C   0  0  0  0  0  0  0  0  0  0  0  0
   18.7577  -24.9601   -9.4213 C   0  0  0  0  0  0  0  0  0  0  0  0
   18.7404  -24.9869   -7.9678 N   0  0  0  0  0  0  0  0  0  0  0  0
   19.3502  -21.1423  -13.7066 C   0  0  0  0  0  0  0  0  0  0  0  0
   19.2553  -20.1684  -12.8898 O   0  0  0  0  0  0  0  0  0  0  0  0
   18.6100  -21.2866  -14.8773 N   0  0  0  0  0  0  0  0  0  0  0  0
   18.9963  -22.1848  -15.9891 C   0  0  0  0  0  0  0  0  0  0  0  0
   17.6898  -22.7928  -16.4375 C   0  0  0  0  0  0  0  0  0  0  0  0
   16.6372  -22.0439  -15.6645 C   0  0  0  0  0  0  0  0  0  0  0  0
   17.4030  -20.7215  -15.3451 C   0  0  1  0  0  0  0  0  0  0  0  0
   16.5999  -19.8812  -14.4888 C   0  0  0  0  0  0  0  0  0  0  0  0
   16.4880  -20.2213  -13.1335 O   0  0  0  0  0  0  0  0  0  0  0  0
   15.9927  -18.8737  -14.8469 O   0  0  0  0  0  0  0  0  0  0  0  0
  2  1  1  1
  2  3  1  0
  4  2  1  0
  4  5  1  6
  6  4  1  0
  7  6  2  0
  8  6  1  0
  9  8  1  0
 10 11  1  0
  9 10  1  1
 12 11  1  0
 13 14  1  0
 13 12  1  0
 15 17  1  0
 15  9  1  0
 16 15  2  0
 17 18  1  0
 19 18  1  0
 20 19  1  0
 21 17  1  0
 21 20  1  0
 22 23  1  0
 21 22  1  1
 24 22  2  0
M  END
$$$$
