TKP.pdb
     RDKit          3D

 24 24  0  0  1  0  0  0  0  0999 V2000
   28.2638  -18.4727  -14.2693 C   0  0  0  0  0  0  0  0  0  0  0  0
   26.9153  -18.6053  -14.9577 C   0  0  1  0  0  0  0  0  0  0  0  0
   26.9693  -18.0557  -16.2311 O   0  0  0  0  0  0  0  0  0  0  0  0
   26.5594  -20.0632  -14.9793 C   0  0  2  0  0  0  0  0  0  0  0  0
   27.4872  -20.8235  -15.7593 N   0  0  0  0  0  0  0  0  0  0  0  0
   25.1525  -20.3118  -15.3816 C   0  0  0  0  0  0  0  0  0  0  0  0
   24.8383  -20.9425  -16.4161 O   0  0  0  0  0  0  0  0  0  0  0  0
   24.1296  -19.8011  -14.5382 N   0  0  0  0  0  0  0  0  0  0  0  0
   22.7003  -19.9872  -14.8698 C   0  0  1  0  0  0  0  0  0  0  0  0
   22.1572  -20.5908  -13.5673 C   0  0  0  0  0  0  0  0  0  0  0  0
   20.7079  -20.8847  -13.5922 C   0  0  0  0  0  0  0  0  0  0  0  0
   20.4794  -22.3987  -13.7795 C   0  0  0  0  0  0  0  0  0  0  0  0
   18.9910  -22.6848  -13.8461 C   0  0  0  0  0  0  0  0  0  0  0  0
   18.8487  -24.1309  -13.8927 N   0  0  0  0  0  0  0  0  0  0  0  0
   22.1314  -18.5920  -14.9833 C   0  0  0  0  0  0  0  0  0  0  0  0
   22.0461  -18.0036  -13.8558 O   0  0  0  0  0  0  0  0  0  0  0  0
   21.7556  -18.0449  -16.2076 N   0  0  0  0  0  0  0  0  0  0  0  0
   22.3271  -18.4664  -17.5067 C   0  0  0  0  0  0  0  0  0  0  0  0
   21.1408  -18.4809  -18.4396 C   0  0  0  0  0  0  0  0  0  0  0  0
   20.0183  -17.8807  -17.6357 C   0  0  0  0  0  0  0  0  0  0  0  0
   20.8270  -17.0514  -16.5892 C   0  0  1  0  0  0  0  0  0  0  0  0
   19.9284  -16.4690  -15.6208 C   0  0  0  0  0  0  0  0  0  0  0  0
   19.7690  -15.0764  -15.6101 O   0  0  0  0  0  0  0  0  0  0  0  0
   19.2768  -17.0958  -14.7874 O   0  0  0  0  0  0  0  0  0  0  0  0
  2  1  1  6
  2  3  1  0
  4  2  1  0
  4  5  1  6
  6  4  1  0
  7  6  2  0
  8  6  1  0
  9  8  1  0
 10 11  1  0
  9 10  1  1
 12 11  1  0
 13 14  1  0
 13 12  1  0
 15 17  1  0
 15  9  1  0
 16 15  2  0
 17 18  1  0
 19 18  1  0
 20 19  1  0
 21 17  1  0
 21 20  1  0
 22 23  1  0
 21 22  1  1
 24 22  2  0
M  END
$$$$
