TKP.pdb
     RDKit          3D

 24 24  0  0  1  0  0  0  0  0999 V2000
   16.3110   -9.8880  -16.4353 C   0  0  0  0  0  0  0  0  0  0  0  0
   15.5571  -11.0065  -15.7348 C   0  0  1  0  0  0  0  0  0  0  0  0
   14.2120  -10.9663  -16.0748 O   0  0  0  0  0  0  0  0  0  0  0  0
   16.2063  -12.3027  -16.1238 C   0  0  2  0  0  0  0  0  0  0  0  0
   15.4932  -13.4291  -15.6043 N   0  0  0  0  0  0  0  0  0  0  0  0
   17.6518  -12.3514  -15.7901 C   0  0  0  0  0  0  0  0  0  0  0  0
   18.0916  -12.8391  -14.7246 O   0  0  0  0  0  0  0  0  0  0  0  0
   18.5619  -11.8137  -16.7392 N   0  0  0  0  0  0  0  0  0  0  0  0
   20.0183  -11.8015  -16.4812 C   0  0  1  0  0  0  0  0  0  0  0  0
   20.5829  -12.0517  -17.8863 C   0  0  0  0  0  0  0  0  0  0  0  0
   21.9251  -12.6729  -17.8997 C   0  0  0  0  0  0  0  0  0  0  0  0
   22.4010  -12.8701  -19.3537 C   0  0  0  0  0  0  0  0  0  0  0  0
   23.7710  -13.5218  -19.3573 C   0  0  0  0  0  0  0  0  0  0  0  0
   24.1171  -13.7512  -20.7506 N   0  0  0  0  0  0  0  0  0  0  0  0
   20.3480  -10.3722  -16.1185 C   0  0  0  0  0  0  0  0  0  0  0  0
   19.8900   -9.5337  -16.9622 O   0  0  0  0  0  0  0  0  0  0  0  0
   21.0744  -10.0491  -14.9751 N   0  0  0  0  0  0  0  0  0  0  0  0
   21.3187  -10.9940  -13.8617 C   0  0  0  0  0  0  0  0  0  0  0  0
   22.7502  -10.7274  -13.4646 C   0  0  0  0  0  0  0  0  0  0  0  0
   23.1464   -9.5146  -14.2636 C   0  0  0  0  0  0  0  0  0  0  0  0
   21.7454   -8.8843  -14.5413 C   0  0  1  0  0  0  0  0  0  0  0  0
   21.8826   -7.7425  -15.4141 C   0  0  0  0  0  0  0  0  0  0  0  0
   21.6807   -6.4633  -14.8776 O   0  0  0  0  0  0  0  0  0  0  0  0
   22.1663   -7.7905  -16.6096 O   0  0  0  0  0  0  0  0  0  0  0  0
  2  1  1  6
  2  3  1  0
  4  2  1  0
  4  5  1  1
  6  4  1  0
  7  6  2  0
  8  6  1  0
  9  8  1  0
 10 11  1  0
  9 10  1  6
 12 11  1  0
 13 14  1  0
 13 12  1  0
 15 17  1  0
 15  9  1  0
 16 15  2  0
 17 18  1  0
 19 18  1  0
 20 19  1  0
 21 17  1  0
 21 20  1  0
 22 23  1  0
 21 22  1  6
 24 22  2  0
M  END
$$$$
