TKP.pdb
     RDKit          3D

 24 24  0  0  1  0  0  0  0  0999 V2000
   26.6295  -10.6273  -15.1273 C   0  0  0  0  0  0  0  0  0  0  0  0
   26.8724  -11.4307  -16.3945 C   0  0  1  0  0  0  0  0  0  0  0  0
   27.9276  -12.3133  -16.2094 O   0  0  0  0  0  0  0  0  0  0  0  0
   25.5919  -12.1348  -16.7366 C   0  0  2  0  0  0  0  0  0  0  0  0
   25.7875  -13.1292  -17.7466 N   0  0  0  0  0  0  0  0  0  0  0  0
   24.4882  -11.2016  -17.0746 C   0  0  0  0  0  0  0  0  0  0  0  0
   24.3122  -10.7385  -18.2241 O   0  0  0  0  0  0  0  0  0  0  0  0
   23.6013  -10.8294  -16.0291 N   0  0  0  0  0  0  0  0  0  0  0  0
   22.4450   -9.9433  -16.2855 C   0  0  1  0  0  0  0  0  0  0  0  0
   21.2902  -10.7640  -15.6954 C   0  0  0  0  0  0  0  0  0  0  0  0
   19.9602  -10.1336  -15.8419 C   0  0  0  0  0  0  0  0  0  0  0  0
   18.8753  -11.0406  -15.2258 C   0  0  0  0  0  0  0  0  0  0  0  0
   17.5095  -10.4133  -15.4320 C   0  0  0  0  0  0  0  0  0  0  0  0
   16.5538  -11.2653  -14.7432 N   0  0  0  0  0  0  0  0  0  0  0  0
   22.6483   -8.7495  -15.3818 C   0  0  0  0  0  0  0  0  0  0  0  0
   22.7435   -9.0749  -14.1531 O   0  0  0  0  0  0  0  0  0  0  0  0
   22.7205   -7.4506  -15.8788 N   0  0  0  0  0  0  0  0  0  0  0  0
   22.9667   -7.1275  -17.3026 C   0  0  0  0  0  0  0  0  0  0  0  0
   22.0443   -5.9650  -17.5775 C   0  0  0  0  0  0  0  0  0  0  0  0
   21.4836   -5.5980  -16.2294 C   0  0  0  0  0  0  0  0  0  0  0  0
   22.5922   -6.1722  -15.2921 C   0  0  1  0  0  0  0  0  0  0  0  0
   22.1937   -6.0293  -13.9119 C   0  0  0  0  0  0  0  0  0  0  0  0
   22.7938   -5.0218  -13.1440 O   0  0  0  0  0  0  0  0  0  0  0  0
   21.3588   -6.7250  -13.3365 O   0  0  0  0  0  0  0  0  0  0  0  0
  2  1  1  1
  2  3  1  0
  4  2  1  0
  4  5  1  6
  6  4  1  0
  7  6  2  0
  8  6  1  0
  9  8  1  0
 10 11  1  0
  9 10  1  1
 12 11  1  0
 13 14  1  0
 13 12  1  0
 15 17  1  0
 15  9  1  0
 16 15  2  0
 17 18  1  0
 19 18  1  0
 20 19  1  0
 21 17  1  0
 21 20  1  0
 22 23  1  0
 21 22  1  1
 24 22  2  0
M  END
$$$$
