TKP.pdb
     RDKit          3D

 24 24  0  0  1  0  0  0  0  0999 V2000
   28.8108  -21.4086  -12.2529 C   0  0  0  0  0  0  0  0  0  0  0  0
   28.2183  -20.8327  -13.5285 C   0  0  1  0  0  0  0  0  0  0  0  0
   28.6107  -21.5882  -14.6248 O   0  0  0  0  0  0  0  0  0  0  0  0
   26.7272  -20.8008  -13.3609 C   0  0  2  0  0  0  0  0  0  0  0  0
   26.0702  -20.3459  -14.5478 N   0  0  0  0  0  0  0  0  0  0  0  0
   26.2940  -20.0488  -12.1567 C   0  0  0  0  0  0  0  0  0  0  0  0
   26.2085  -18.8005  -12.1241 O   0  0  0  0  0  0  0  0  0  0  0  0
   25.9656  -20.8011  -10.9972 N   0  0  0  0  0  0  0  0  0  0  0  0
   25.4739  -20.1392   -9.7693 C   0  0  1  0  0  0  0  0  0  0  0  0
   24.0141  -20.6112   -9.7274 C   0  0  0  0  0  0  0  0  0  0  0  0
   23.1056  -19.8549  -10.6163 C   0  0  0  0  0  0  0  0  0  0  0  0
   22.3605  -20.8237  -11.5574 C   0  0  0  0  0  0  0  0  0  0  0  0
   21.3830  -20.0463  -12.4187 C   0  0  0  0  0  0  0  0  0  0  0  0
   20.7502  -21.0121  -13.3021 N   0  0  0  0  0  0  0  0  0  0  0  0
   26.1943  -20.8231   -8.6307 C   0  0  0  0  0  0  0  0  0  0  0  0
   25.8754  -22.0518   -8.5158 O   0  0  0  0  0  0  0  0  0  0  0  0
   27.1030  -20.1478   -7.8197 N   0  0  0  0  0  0  0  0  0  0  0  0
   28.0076  -19.0824   -8.3084 C   0  0  0  0  0  0  0  0  0  0  0  0
   27.9960  -18.0576   -7.2006 C   0  0  0  0  0  0  0  0  0  0  0  0
   27.2299  -18.7145   -6.0835 C   0  0  0  0  0  0  0  0  0  0  0  0
   27.4278  -20.2198   -6.4470 C   0  0  1  0  0  0  0  0  0  0  0  0
   26.6599  -21.0490   -5.5487 C   0  0  0  0  0  0  0  0  0  0  0  0
   27.2754  -21.5145   -4.3784 O   0  0  0  0  0  0  0  0  0  0  0  0
   25.4913  -21.3914   -5.7198 O   0  0  0  0  0  0  0  0  0  0  0  0
  2  1  1  1
  2  3  1  0
  4  2  1  0
  4  5  1  6
  6  4  1  0
  7  6  2  0
  8  6  1  0
  9  8  1  0
 10 11  1  0
  9 10  1  1
 12 11  1  0
 13 14  1  0
 13 12  1  0
 15 17  1  0
 15  9  1  0
 16 15  2  0
 17 18  1  0
 19 18  1  0
 20 19  1  0
 21 17  1  0
 21 20  1  0
 22 23  1  0
 21 22  1  1
 24 22  2  0
M  END
$$$$
