TKP.pdb
     RDKit          3D

 24 24  0  0  1  0  0  0  0  0999 V2000
   26.1339  -18.1962  -16.0161 C   0  0  0  0  0  0  0  0  0  0  0  0
   26.9846  -19.4260  -16.2881 C   0  0  1  0  0  0  0  0  0  0  0  0
   28.2961  -19.0551  -16.5507 O   0  0  0  0  0  0  0  0  0  0  0  0
   26.8739  -20.3265  -15.0925 C   0  0  2  0  0  0  0  0  0  0  0  0
   27.8407  -21.3806  -15.1319 N   0  0  0  0  0  0  0  0  0  0  0  0
   25.4970  -20.8361  -14.8746 C   0  0  0  0  0  0  0  0  0  0  0  0
   25.0676  -21.8903  -15.3952 O   0  0  0  0  0  0  0  0  0  0  0  0
   24.6425  -20.0760  -14.0318 N   0  0  0  0  0  0  0  0  0  0  0  0
   23.2990  -20.5694  -13.6588 C   0  0  1  0  0  0  0  0  0  0  0  0
   23.1784  -20.0728  -12.2115 C   0  0  0  0  0  0  0  0  0  0  0  0
   23.7192  -21.0082  -11.2015 C   0  0  0  0  0  0  0  0  0  0  0  0
   23.4393  -20.4723   -9.7824 C   0  0  0  0  0  0  0  0  0  0  0  0
   24.0468  -21.4090   -8.7552 C   0  0  0  0  0  0  0  0  0  0  0  0
   23.7810  -20.8229   -7.4515 N   0  0  0  0  0  0  0  0  0  0  0  0
   22.3308  -19.7585  -14.4884 C   0  0  0  0  0  0  0  0  0  0  0  0
   22.3903  -18.5113  -14.2323 O   0  0  0  0  0  0  0  0  0  0  0  0
   21.4839  -20.3493  -15.4228 N   0  0  0  0  0  0  0  0  0  0  0  0
   21.7489  -21.6591  -16.0603 C   0  0  0  0  0  0  0  0  0  0  0  0
   20.3948  -22.3242  -16.1035 C   0  0  0  0  0  0  0  0  0  0  0  0
   19.4326  -21.2561  -15.6564 C   0  0  0  0  0  0  0  0  0  0  0  0
   20.2510  -19.9716  -15.9993 C   0  0  1  0  0  0  0  0  0  0  0  0
   19.5467  -18.7998  -15.5354 C   0  0  0  0  0  0  0  0  0  0  0  0
   18.8881  -17.9990  -16.4787 O   0  0  0  0  0  0  0  0  0  0  0  0
   19.4704  -18.4324  -14.3644 O   0  0  0  0  0  0  0  0  0  0  0  0
  2  1  1  1
  2  3  1  0
  4  2  1  0
  4  5  1  6
  6  4  1  0
  7  6  2  0
  8  6  1  0
  9  8  1  0
 10 11  1  0
  9 10  1  1
 12 11  1  0
 13 14  1  0
 13 12  1  0
 15 17  1  0
 15  9  1  0
 16 15  2  0
 17 18  1  0
 19 18  1  0
 20 19  1  0
 21 17  1  0
 21 20  1  0
 22 23  1  0
 21 22  1  1
 24 22  2  0
M  END
$$$$
