QIC.pdb
     RDKit          3D

 24 23  0  0  1  0  0  0  0  0999 V2000
   27.3772  -18.8164  -18.1913 N   0  0  0  0  0  0  0  0  0  0  0  0
   28.3738  -18.0150  -17.5227 C   0  0  0  0  0  0  0  0  0  0  0  0
   29.1714  -17.3788  -18.2477 O   0  0  0  0  0  0  0  0  0  0  0  0
   28.4018  -17.9847  -16.0616 C   0  0  0  0  0  0  0  0  0  0  0  0
   27.3757  -18.8677  -15.4342 C   0  0  0  0  0  0  0  0  0  0  0  0
   27.9554  -19.9206  -14.5514 C   0  0  2  0  0  0  0  0  0  0  0  0
   28.7822  -20.8507  -15.3355 N   0  0  0  0  0  0  0  0  0  0  0  0
   26.8887  -20.7063  -13.8491 C   0  0  0  0  0  0  0  0  0  0  0  0
   26.5068  -21.7779  -14.3861 O   0  0  0  0  0  0  0  0  0  0  0  0
   26.8396  -20.4478   -8.5170 C   0  0  0  0  0  0  0  0  0  0  0  0
   26.6285  -21.0565   -9.8848 C   0  0  0  0  0  0  0  0  0  0  0  0
   25.3508  -20.6478  -10.5289 C   0  0  2  0  0  0  0  0  0  0  0  0
   24.1345  -21.0463   -9.7126 C   0  0  0  0  0  0  0  0  0  0  0  0
   25.2185  -21.0386  -11.9633 C   0  0  2  0  0  0  0  0  0  0  0  0
   26.3130  -20.2985  -12.6398 N   0  0  0  0  0  0  0  0  0  0  0  0
   23.9831  -20.6349  -12.6348 C   0  0  0  0  0  0  0  0  0  0  0  0
   23.6725  -19.3909  -12.7502 O   0  0  0  0  0  0  0  0  0  0  0  0
   23.0206  -21.5082  -13.2176 N   0  0  0  0  0  0  0  0  0  0  0  0
   21.8076  -21.0193  -13.8482 C   0  0  1  0  0  0  0  0  0  0  0  0
   21.5251  -21.9465  -15.0372 C   0  0  0  0  0  0  0  0  0  0  0  0
   19.9090  -21.5786  -15.7741 S   0  0  0  0  0  0  0  0  0  0  0  0
   20.6389  -21.1265  -12.9510 C   0  0  0  0  0  0  0  0  0  0  0  0
   19.5920  -20.2344  -13.0107 O   0  0  0  0  0  0  0  0  0  0  0  0
   20.6036  -22.0539  -12.1163 O   0  0  0  0  0  0  0  0  0  0  0  0
  1  2  1  0
  2  3  2  0
  4  5  1  0
  4  2  1  0
  5  6  1  0
  6  7  1  6
  8  6  1  0
  9  8  2  0
 11 10  1  0
 11 12  1  0
 12 14  1  0
 12 13  1  1
 14 15  1  6
 15  8  1  0
 16 17  2  0
 16 14  1  0
 18 16  1  0
 19 18  1  0
 19 20  1  6
 21 20  1  0
 22 19  1  0
 23 22  1  0
 24 22  2  0
M  END
$$$$
