QIC.pdb
     RDKit          3D

 24 23  0  0  1  0  0  0  0  0999 V2000
   19.1505  -11.5229  -21.0114 N   0  0  0  0  0  0  0  0  0  0  0  0
   19.8622  -12.6455  -21.5733 C   0  0  0  0  0  0  0  0  0  0  0  0
   19.4492  -13.0899  -22.6681 O   0  0  0  0  0  0  0  0  0  0  0  0
   21.0078  -13.1968  -20.8522 C   0  0  0  0  0  0  0  0  0  0  0  0
   21.2683  -12.5153  -19.5507 C   0  0  0  0  0  0  0  0  0  0  0  0
   22.4489  -13.0588  -18.8195 C   0  0  2  0  0  0  0  0  0  0  0  0
   22.2301  -14.4699  -18.4668 N   0  0  0  0  0  0  0  0  0  0  0  0
   22.7261  -12.2901  -17.5621 C   0  0  0  0  0  0  0  0  0  0  0  0
   22.1827  -12.6939  -16.5018 O   0  0  0  0  0  0  0  0  0  0  0  0
   27.3667  -11.6827  -15.7601 C   0  0  0  0  0  0  0  0  0  0  0  0
   25.8588  -11.6989  -15.8701 C   0  0  0  0  0  0  0  0  0  0  0  0
   25.2659  -10.3606  -16.1375 C   0  0  2  0  0  0  0  0  0  0  0  0
   25.7377   -9.3077  -15.1509 C   0  0  0  0  0  0  0  0  0  0  0  0
   23.7824  -10.3533  -16.3015 C   0  0  2  0  0  0  0  0  0  0  0  0
   23.5522  -11.1604  -17.5258 N   0  0  0  0  0  0  0  0  0  0  0  0
   23.1634   -9.0520  -16.5537 C   0  0  0  0  0  0  0  0  0  0  0  0
   23.5773   -8.3009  -17.5138 O   0  0  0  0  0  0  0  0  0  0  0  0
   22.0856   -8.4789  -15.8198 N   0  0  0  0  0  0  0  0  0  0  0  0
   21.5430   -7.1684  -16.1303 C   0  0  1  0  0  0  0  0  0  0  0  0
   20.0291   -7.3478  -16.3005 C   0  0  0  0  0  0  0  0  0  0  0  0
   19.6642   -8.6153  -17.5456 S   0  0  0  0  0  0  0  0  0  0  0  0
   21.7259   -6.2182  -15.0140 C   0  0  0  0  0  0  0  0  0  0  0  0
   22.0755   -6.6390  -13.7507 O   0  0  0  0  0  0  0  0  0  0  0  0
   21.5577   -4.9998  -15.2266 O   0  0  0  0  0  0  0  0  0  0  0  0
  1  2  1  0
  2  3  2  0
  4  5  1  0
  4  2  1  0
  5  6  1  0
  6  7  1  1
  8  6  1  0
  9  8  2  0
 11 10  1  0
 11 12  1  0
 12 14  1  0
 12 13  1  1
 14 15  1  6
 15  8  1  0
 16 17  2  0
 16 14  1  0
 18 16  1  0
 19 18  1  0
 19 20  1  1
 21 20  1  0
 22 19  1  0
 23 22  1  0
 24 22  2  0
M  END
$$$$
