QIC.pdb
     RDKit          3D

 24 23  0  0  1  0  0  0  0  0999 V2000
   22.2326  -25.5348  -14.3167 N   0  0  0  0  0  0  0  0  0  0  0  0
   20.8142  -25.2731  -14.3638 C   0  0  0  0  0  0  0  0  0  0  0  0
   20.0563  -26.1691  -13.9286 O   0  0  0  0  0  0  0  0  0  0  0  0
   20.3415  -24.0003  -14.9049 C   0  0  0  0  0  0  0  0  0  0  0  0
   21.3971  -22.9464  -14.9396 C   0  0  0  0  0  0  0  0  0  0  0  0
   21.5173  -22.1814  -13.6652 C   0  0  2  0  0  0  0  0  0  0  0  0
   20.3401  -21.3217  -13.4688 N   0  0  0  0  0  0  0  0  0  0  0  0
   22.7451  -21.3208  -13.6472 C   0  0  0  0  0  0  0  0  0  0  0  0
   22.6029  -20.0990  -13.9112 O   0  0  0  0  0  0  0  0  0  0  0  0
   25.7586  -20.8432   -9.6071 C   0  0  0  0  0  0  0  0  0  0  0  0
   25.0773  -20.6830  -10.9473 C   0  0  0  0  0  0  0  0  0  0  0  0
   25.8912  -21.1731  -12.0926 C   0  0  2  0  0  0  0  0  0  0  0  0
   27.3148  -20.6472  -12.0616 C   0  0  0  0  0  0  0  0  0  0  0  0
   25.2565  -21.0003  -13.4324 C   0  0  2  0  0  0  0  0  0  0  0  0
   24.0203  -21.8180  -13.3526 N   0  0  0  0  0  0  0  0  0  0  0  0
   26.0074  -21.5147  -14.5776 C   0  0  0  0  0  0  0  0  0  0  0  0
   26.6204  -22.6446  -14.5094 O   0  0  0  0  0  0  0  0  0  0  0  0
   26.1493  -20.8768  -15.8433 N   0  0  0  0  0  0  0  0  0  0  0  0
   26.9189  -21.4610  -16.9270 C   0  0  1  0  0  0  0  0  0  0  0  0
   26.4987  -20.7309  -18.2089 C   0  0  0  0  0  0  0  0  0  0  0  0
   27.3868  -21.3876  -19.6477 S   0  0  0  0  0  0  0  0  0  0  0  0
   28.3674  -21.2186  -16.7666 C   0  0  0  0  0  0  0  0  0  0  0  0
   29.2965  -22.2181  -16.9481 O   0  0  0  0  0  0  0  0  0  0  0  0
   28.7557  -20.0733  -16.4576 O   0  0  0  0  0  0  0  0  0  0  0  0
  1  2  1  0
  2  3  2  0
  4  5  1  0
  4  2  1  0
  5  6  1  0
  6  7  1  6
  8  6  1  0
  9  8  2  0
 11 10  1  0
 11 12  1  0
 12 14  1  0
 12 13  1  6
 14 15  1  1
 15  8  1  0
 16 17  2  0
 16 14  1  0
 18 16  1  0
 19 18  1  0
 19 20  1  6
 21 20  1  0
 22 19  1  0
 23 22  1  0
 24 22  2  0
M  END
$$$$
