QIC.pdb
     RDKit          3D

 24 23  0  0  1  0  0  0  0  0999 V2000
   27.1881  -18.8650  -18.1019 N   0  0  0  0  0  0  0  0  0  0  0  0
   27.8530  -17.7648  -17.4462 C   0  0  0  0  0  0  0  0  0  0  0  0
   28.5261  -16.9957  -18.1687 O   0  0  0  0  0  0  0  0  0  0  0  0
   27.7099  -17.6045  -16.0005 C   0  0  0  0  0  0  0  0  0  0  0  0
   26.7878  -18.6034  -15.3854 C   0  0  0  0  0  0  0  0  0  0  0  0
   27.4476  -19.4810  -14.3764 C   0  0  2  0  0  0  0  0  0  0  0  0
   28.4951  -20.2959  -15.0106 N   0  0  0  0  0  0  0  0  0  0  0  0
   26.4660  -20.3990  -13.7114 C   0  0  0  0  0  0  0  0  0  0  0  0
   26.2332  -21.5031  -14.2677 O   0  0  0  0  0  0  0  0  0  0  0  0
   26.5636  -20.5579   -8.4256 C   0  0  0  0  0  0  0  0  0  0  0  0
   26.3442  -21.0461   -9.8396 C   0  0  0  0  0  0  0  0  0  0  0  0
   25.0121  -20.6848  -10.3956 C   0  0  2  0  0  0  0  0  0  0  0  0
   23.8666  -21.2282   -9.5607 C   0  0  0  0  0  0  0  0  0  0  0  0
   24.8382  -20.9787  -11.8485 C   0  0  2  0  0  0  0  0  0  0  0  0
   25.8111  -20.0783  -12.5163 N   0  0  0  0  0  0  0  0  0  0  0  0
   23.5317  -20.6587  -12.4237 C   0  0  0  0  0  0  0  0  0  0  0  0
   23.0712  -19.4573  -12.3845 O   0  0  0  0  0  0  0  0  0  0  0  0
   22.6509  -21.5747  -13.0671 N   0  0  0  0  0  0  0  0  0  0  0  0
   21.3087  -21.2045  -13.4790 C   0  0  1  0  0  0  0  0  0  0  0  0
   20.7392  -22.4014  -14.2510 C   0  0  0  0  0  0  0  0  0  0  0  0
   18.9781  -22.1592  -14.6119 S   0  0  0  0  0  0  0  0  0  0  0  0
   20.4158  -20.9940  -12.3211 C   0  0  0  0  0  0  0  0  0  0  0  0
   20.3993  -21.8574  -11.2490 O   0  0  0  0  0  0  0  0  0  0  0  0
   19.6561  -20.0036  -12.3187 O   0  0  0  0  0  0  0  0  0  0  0  0
  1  2  1  0
  2  3  2  0
  4  5  1  0
  4  2  1  0
  5  6  1  0
  6  7  1  6
  8  6  1  0
  9  8  2  0
 11 10  1  0
 11 12  1  0
 12 14  1  0
 12 13  1  1
 14 15  1  6
 15  8  1  0
 16 17  2  0
 16 14  1  0
 18 16  1  0
 19 18  1  0
 19 20  1  6
 21 20  1  0
 22 19  1  0
 23 22  1  0
 24 22  2  0
M  END
$$$$
