QIC.pdb
     RDKit          3D

 24 23  0  0  1  0  0  0  0  0999 V2000
   26.2159  -23.1406  -16.7786 N   0  0  0  0  0  0  0  0  0  0  0  0
   25.8230  -24.5245  -16.8923 C   0  0  0  0  0  0  0  0  0  0  0  0
   26.0035  -25.0773  -18.0007 O   0  0  0  0  0  0  0  0  0  0  0  0
   25.2468  -25.2000  -15.7313 C   0  0  0  0  0  0  0  0  0  0  0  0
   25.1634  -24.3278  -14.5235 C   0  0  0  0  0  0  0  0  0  0  0  0
   25.1619  -22.8705  -14.8401 C   0  0  2  0  0  0  0  0  0  0  0  0
   26.4654  -22.2723  -14.5138 N   0  0  0  0  0  0  0  0  0  0  0  0
   24.0970  -22.1377  -14.0801 C   0  0  0  0  0  0  0  0  0  0  0  0
   24.3470  -21.8194  -12.8890 O   0  0  0  0  0  0  0  0  0  0  0  0
   22.6007  -17.7332  -15.7709 C   0  0  0  0  0  0  0  0  0  0  0  0
   22.8020  -18.9107  -14.8440 C   0  0  0  0  0  0  0  0  0  0  0  0
   21.6206  -19.8113  -14.7585 C   0  0  2  0  0  0  0  0  0  0  0  0
   20.3466  -19.0671  -14.4011 C   0  0  0  0  0  0  0  0  0  0  0  0
   21.8180  -21.0264  -13.9146 C   0  0  2  0  0  0  0  0  0  0  0  0
   22.8576  -21.8010  -14.6374 N   0  0  0  0  0  0  0  0  0  0  0  0
   20.6671  -21.9199  -13.7836 C   0  0  0  0  0  0  0  0  0  0  0  0
   20.0904  -22.4080  -14.8259 O   0  0  0  0  0  0  0  0  0  0  0  0
   20.0699  -22.3459  -12.5627 N   0  0  0  0  0  0  0  0  0  0  0  0
   18.8724  -23.1662  -12.5270 C   0  0  1  0  0  0  0  0  0  0  0  0
   18.7355  -23.6832  -11.0893 C   0  0  0  0  0  0  0  0  0  0  0  0
   17.2020  -24.6303  -10.8862 S   0  0  0  0  0  0  0  0  0  0  0  0
   17.6551  -22.3756  -12.8019 C   0  0  0  0  0  0  0  0  0  0  0  0
   16.6294  -22.8660  -13.5783 O   0  0  0  0  0  0  0  0  0  0  0  0
   17.5578  -21.2307  -12.3144 O   0  0  0  0  0  0  0  0  0  0  0  0
  1  2  1  0
  2  3  2  0
  4  5  1  0
  4  2  1  0
  5  6  1  0
  6  7  1  1
  8  6  1  0
  9  8  2  0
 11 10  1  0
 11 12  1  0
 12 14  1  0
 12 13  1  1
 14 15  1  6
 15  8  1  0
 16 17  2  0
 16 14  1  0
 18 16  1  0
 19 18  1  0
 19 20  1  1
 21 20  1  0
 22 19  1  0
 23 22  1  0
 24 22  2  0
M  END
$$$$
