QIC.pdb
     RDKit          3D

 24 23  0  0  1  0  0  0  0  0999 V2000
   20.2165  -19.6446  -14.7946 N   0  0  0  0  0  0  0  0  0  0  0  0
   19.5519  -20.5420  -15.7087 C   0  0  0  0  0  0  0  0  0  0  0  0
   18.3677  -20.2714  -16.0106 O   0  0  0  0  0  0  0  0  0  0  0  0
   20.2793  -21.6985  -16.2281 C   0  0  0  0  0  0  0  0  0  0  0  0
   21.6864  -21.7781  -15.7382 C   0  0  0  0  0  0  0  0  0  0  0  0
   22.6747  -21.1474  -16.6598 C   0  0  2  0  0  0  0  0  0  0  0  0
   22.8140  -21.9448  -17.8879 N   0  0  0  0  0  0  0  0  0  0  0  0
   24.0248  -21.0152  -16.0209 C   0  0  0  0  0  0  0  0  0  0  0  0
   24.8004  -22.0032  -16.0905 O   0  0  0  0  0  0  0  0  0  0  0  0
   26.5140  -16.2771  -16.0898 C   0  0  0  0  0  0  0  0  0  0  0  0
   26.3935  -17.7830  -16.0276 C   0  0  0  0  0  0  0  0  0  0  0  0
   26.0618  -18.2993  -14.6720 C   0  0  2  0  0  0  0  0  0  0  0  0
   27.0985  -17.9126  -13.6327 C   0  0  0  0  0  0  0  0  0  0  0  0
   25.7270  -19.7528  -14.6191 C   0  0  2  0  0  0  0  0  0  0  0  0
   24.4461  -19.8539  -15.3621 N   0  0  0  0  0  0  0  0  0  0  0  0
   25.4690  -20.3118  -13.2921 C   0  0  0  0  0  0  0  0  0  0  0  0
   24.3521  -20.0922  -12.6908 O   0  0  0  0  0  0  0  0  0  0  0  0
   26.3608  -21.1254  -12.5361 N   0  0  0  0  0  0  0  0  0  0  0  0
   26.0766  -21.5304  -11.1710 C   0  0  1  0  0  0  0  0  0  0  0  0
   27.3306  -22.2472  -10.6544 C   0  0  0  0  0  0  0  0  0  0  0  0
   28.7583  -21.1284  -10.6481 S   0  0  0  0  0  0  0  0  0  0  0  0
   25.8675  -20.3678  -10.2840 C   0  0  0  0  0  0  0  0  0  0  0  0
   25.0982  -20.4509   -9.1453 O   0  0  0  0  0  0  0  0  0  0  0  0
   26.4055  -19.2808  -10.5790 O   0  0  0  0  0  0  0  0  0  0  0  0
  1  2  1  0
  2  3  2  0
  4  5  1  0
  4  2  1  0
  5  6  1  0
  6  7  1  6
  8  6  1  0
  9  8  2  0
 11 10  1  0
 11 12  1  0
 12 14  1  0
 12 13  1  1
 14 15  1  6
 15  8  1  0
 16 17  2  0
 16 14  1  0
 18 16  1  0
 19 18  1  0
 19 20  1  1
 21 20  1  0
 22 19  1  0
 23 22  1  0
 24 22  2  0
M  END
$$$$
