QIC.pdb
     RDKit          3D

 24 23  0  0  1  0  0  0  0  0999 V2000
   21.2990  -17.3948  -16.4461 N   0  0  0  0  0  0  0  0  0  0  0  0
   20.5310  -18.0390  -17.4843 C   0  0  0  0  0  0  0  0  0  0  0  0
   19.7338  -17.3217  -18.1297 O   0  0  0  0  0  0  0  0  0  0  0  0
   20.7187  -19.4679  -17.7277 C   0  0  0  0  0  0  0  0  0  0  0  0
   21.7475  -20.0864  -16.8415 C   0  0  0  0  0  0  0  0  0  0  0  0
   23.1387  -19.9562  -17.3627 C   0  0  2  0  0  0  0  0  0  0  0  0
   23.2862  -20.6972  -18.6248 N   0  0  0  0  0  0  0  0  0  0  0  0
   24.1497  -20.4747  -16.3841 C   0  0  0  0  0  0  0  0  0  0  0  0
   24.1987  -21.7185  -16.2024 O   0  0  0  0  0  0  0  0  0  0  0  0
   28.4586  -18.4389  -16.9599 C   0  0  0  0  0  0  0  0  0  0  0  0
   27.8995  -19.6562  -16.2589 C   0  0  0  0  0  0  0  0  0  0  0  0
   27.2394  -19.3469  -14.9617 C   0  0  2  0  0  0  0  0  0  0  0  0
   28.2106  -19.3687  -13.7951 C   0  0  0  0  0  0  0  0  0  0  0  0
   26.0055  -20.1384  -14.6814 C   0  0  2  0  0  0  0  0  0  0  0  0
   25.0249  -19.6404  -15.6783 N   0  0  0  0  0  0  0  0  0  0  0  0
   25.3874  -19.9352  -13.3711 C   0  0  0  0  0  0  0  0  0  0  0  0
   24.9146  -18.7853  -13.0373 O   0  0  0  0  0  0  0  0  0  0  0  0
   25.2323  -20.9205  -12.3544 N   0  0  0  0  0  0  0  0  0  0  0  0
   24.8131  -20.5867  -11.0050 C   0  0  1  0  0  0  0  0  0  0  0  0
   23.8707  -21.7070  -10.5468 C   0  0  0  0  0  0  0  0  0  0  0  0
   22.1363  -21.2122  -10.7402 S   0  0  0  0  0  0  0  0  0  0  0  0
   25.9486  -20.5865  -10.0599 C   0  0  0  0  0  0  0  0  0  0  0  0
   25.9246  -19.8539   -8.8945 O   0  0  0  0  0  0  0  0  0  0  0  0
   26.9566  -21.2715  -10.3295 O   0  0  0  0  0  0  0  0  0  0  0  0
  1  2  1  0
  2  3  2  0
  4  5  1  0
  4  2  1  0
  5  6  1  0
  6  7  1  6
  8  6  1  0
  9  8  2  0
 11 10  1  0
 11 12  1  0
 12 14  1  0
 12 13  1  1
 14 15  1  6
 15  8  1  0
 16 17  2  0
 16 14  1  0
 18 16  1  0
 19 18  1  0
 19 20  1  1
 21 20  1  0
 22 19  1  0
 23 22  1  0
 24 22  2  0
M  END
$$$$
