QIC.pdb
     RDKit          3D

 24 23  0  0  1  0  0  0  0  0999 V2000
   18.5415  -12.2425  -20.2659 N   0  0  0  0  0  0  0  0  0  0  0  0
   17.5129  -13.2376  -20.0809 C   0  0  0  0  0  0  0  0  0  0  0  0
   17.1997  -13.9236  -21.0799 O   0  0  0  0  0  0  0  0  0  0  0  0
   16.9007  -13.3939  -18.7629 C   0  0  0  0  0  0  0  0  0  0  0  0
   17.4180  -12.4239  -17.7541 C   0  0  0  0  0  0  0  0  0  0  0  0
   18.6260  -12.9088  -17.0264 C   0  0  2  0  0  0  0  0  0  0  0  0
   18.3168  -14.1368  -16.2781 N   0  0  0  0  0  0  0  0  0  0  0  0
   19.1450  -11.8820  -16.0647 C   0  0  0  0  0  0  0  0  0  0  0  0
   18.6331  -11.8498  -14.9159 O   0  0  0  0  0  0  0  0  0  0  0  0
   24.0185  -11.5982  -14.7814 C   0  0  0  0  0  0  0  0  0  0  0  0
   22.5192  -11.4064  -14.8182 C   0  0  0  0  0  0  0  0  0  0  0  0
   22.0986  -10.1031  -15.4004 C   0  0  2  0  0  0  0  0  0  0  0  0
   22.8055   -8.9237  -14.7571 C   0  0  0  0  0  0  0  0  0  0  0  0
   20.6223   -9.8991  -15.4801 C   0  0  2  0  0  0  0  0  0  0  0  0
   20.1596  -10.9746  -16.3924 N   0  0  0  0  0  0  0  0  0  0  0  0
   20.1720   -8.6419  -16.0773 C   0  0  0  0  0  0  0  0  0  0  0  0
   20.3940   -8.3860  -17.3193 O   0  0  0  0  0  0  0  0  0  0  0  0
   19.4687   -7.5993  -15.4084 N   0  0  0  0  0  0  0  0  0  0  0  0
   19.1410   -6.3419  -16.0561 C   0  0  1  0  0  0  0  0  0  0  0  0
   17.6414   -6.1092  -15.8327 C   0  0  0  0  0  0  0  0  0  0  0  0
   17.1804   -4.4079  -16.2609 S   0  0  0  0  0  0  0  0  0  0  0  0
   19.8369   -5.2007  -15.4269 C   0  0  0  0  0  0  0  0  0  0  0  0
   20.2691   -4.1186  -16.1600 O   0  0  0  0  0  0  0  0  0  0  0  0
   20.0366   -5.2222  -14.1950 O   0  0  0  0  0  0  0  0  0  0  0  0
  1  2  1  0
  2  3  2  0
  4  5  1  0
  4  2  1  0
  5  6  1  0
  6  7  1  1
  8  6  1  0
  9  8  2  0
 11 10  1  0
 11 12  1  0
 12 14  1  0
 12 13  1  1
 14 15  1  6
 15  8  1  0
 16 17  2  0
 16 14  1  0
 18 16  1  0
 19 18  1  0
 19 20  1  1
 21 20  1  0
 22 19  1  0
 23 22  1  0
 24 22  2  0
M  END
$$$$
