QIC.pdb
     RDKit          3D

 24 23  0  0  1  0  0  0  0  0999 V2000
   20.8639  -17.2880  -14.2362 N   0  0  0  0  0  0  0  0  0  0  0  0
   21.1706  -17.6109  -15.6089 C   0  0  0  0  0  0  0  0  0  0  0  0
   20.8377  -18.7477  -16.0133 O   0  0  0  0  0  0  0  0  0  0  0  0
   21.8397  -16.6148  -16.4434 C   0  0  0  0  0  0  0  0  0  0  0  0
   22.1323  -15.3421  -15.7217 C   0  0  0  0  0  0  0  0  0  0  0  0
   22.0656  -14.1340  -16.5935 C   0  0  2  0  0  0  0  0  0  0  0  0
   22.9045  -14.3153  -17.7880 N   0  0  0  0  0  0  0  0  0  0  0  0
   22.5229  -12.9018  -15.8718 C   0  0  0  0  0  0  0  0  0  0  0  0
   21.9898  -12.6466  -14.7613 O   0  0  0  0  0  0  0  0  0  0  0  0
   27.6600  -11.8139  -15.8532 C   0  0  0  0  0  0  0  0  0  0  0  0
   26.1934  -11.8873  -15.4930 C   0  0  0  0  0  0  0  0  0  0  0  0
   25.4018  -10.7232  -15.9749 C   0  0  2  0  0  0  0  0  0  0  0  0
   25.9995   -9.3955  -15.5453 C   0  0  0  0  0  0  0  0  0  0  0  0
   23.9384  -10.7994  -15.6917 C   0  0  2  0  0  0  0  0  0  0  0  0
   23.5034  -12.0408  -16.3793 N   0  0  0  0  0  0  0  0  0  0  0  0
   23.1138   -9.7234  -16.2416 C   0  0  0  0  0  0  0  0  0  0  0  0
   23.1818   -9.4135  -17.4892 O   0  0  0  0  0  0  0  0  0  0  0  0
   22.1812   -8.9268  -15.5173 N   0  0  0  0  0  0  0  0  0  0  0  0
   21.4355   -7.8457  -16.1365 C   0  0  1  0  0  0  0  0  0  0  0  0
   19.9527   -8.1123  -15.8485 C   0  0  0  0  0  0  0  0  0  0  0  0
   19.4688   -9.7629  -16.4245 S   0  0  0  0  0  0  0  0  0  0  0  0
   21.7494   -6.5387  -15.5236 C   0  0  0  0  0  0  0  0  0  0  0  0
   21.2652   -5.3581  -16.0404 O   0  0  0  0  0  0  0  0  0  0  0  0
   22.4746   -6.5084  -14.5082 O   0  0  0  0  0  0  0  0  0  0  0  0
  1  2  1  0
  2  3  2  0
  4  5  1  0
  4  2  1  0
  5  6  1  0
  6  7  1  6
  8  6  1  0
  9  8  2  0
 11 10  1  0
 11 12  1  0
 12 14  1  0
 12 13  1  1
 14 15  1  6
 15  8  1  0
 16 17  2  0
 16 14  1  0
 18 16  1  0
 19 18  1  0
 19 20  1  1
 21 20  1  0
 22 19  1  0
 23 22  1  0
 24 22  2  0
M  END
$$$$
