QIC.pdb
     RDKit          3D

 24 23  0  0  1  0  0  0  0  0999 V2000
   16.0099  -13.9525  -12.2697 N   0  0  0  0  0  0  0  0  0  0  0  0
   14.7161  -14.5874  -12.1954 C   0  0  0  0  0  0  0  0  0  0  0  0
   14.6995  -15.8193  -11.9743 O   0  0  0  0  0  0  0  0  0  0  0  0
   13.5129  -13.7777  -12.3766 C   0  0  0  0  0  0  0  0  0  0  0  0
   13.7985  -12.3191  -12.5077 C   0  0  0  0  0  0  0  0  0  0  0  0
   13.1746  -11.4912  -11.4357 C   0  0  2  0  0  0  0  0  0  0  0  0
   11.7148  -11.4412  -11.6089 N   0  0  0  0  0  0  0  0  0  0  0  0
   13.7037  -10.0881  -11.4380 C   0  0  0  0  0  0  0  0  0  0  0  0
   13.0726   -9.2297  -12.1069 O   0  0  0  0  0  0  0  0  0  0  0  0
   13.4484   -6.7380   -8.8876 C   0  0  0  0  0  0  0  0  0  0  0  0
   14.3124   -7.9038   -8.4629 C   0  0  0  0  0  0  0  0  0  0  0  0
   15.5671   -8.0350   -9.2520 C   0  0  2  0  0  0  0  0  0  0  0  0
   16.5253   -6.8813   -9.0168 C   0  0  0  0  0  0  0  0  0  0  0  0
   15.3682   -8.3140  -10.7046 C   0  0  2  0  0  0  0  0  0  0  0  0
   14.8531   -9.7057  -10.7360 N   0  0  0  0  0  0  0  0  0  0  0  0
   16.5712   -8.3101  -11.5371 C   0  0  0  0  0  0  0  0  0  0  0  0
   17.6207   -8.9649  -11.1809 O   0  0  0  0  0  0  0  0  0  0  0  0
   16.7316   -7.6275  -12.7770 N   0  0  0  0  0  0  0  0  0  0  0  0
   17.9777   -7.6501  -13.5219 C   0  0  1  0  0  0  0  0  0  0  0  0
   17.6238   -8.0497  -14.9600 C   0  0  0  0  0  0  0  0  0  0  0  0
   19.0665   -7.8928  -16.0482 S   0  0  0  0  0  0  0  0  0  0  0  0
   18.5951   -6.3105  -13.6029 C   0  0  0  0  0  0  0  0  0  0  0  0
   19.9610   -6.1390  -13.6187 O   0  0  0  0  0  0  0  0  0  0  0  0
   17.8536   -5.3080  -13.6584 O   0  0  0  0  0  0  0  0  0  0  0  0
  1  2  1  0
  2  3  2  0
  4  5  1  0
  4  2  1  0
  5  6  1  0
  6  7  1  6
  8  6  1  0
  9  8  2  0
 11 10  1  0
 11 12  1  0
 12 14  1  0
 12 13  1  6
 14 15  1  1
 15  8  1  0
 16 17  2  0
 16 14  1  0
 18 16  1  0
 19 18  1  0
 19 20  1  6
 21 20  1  0
 22 19  1  0
 23 22  1  0
 24 22  2  0
M  END
$$$$
