QIC.pdb
     RDKit          3D

 24 23  0  0  1  0  0  0  0  0999 V2000
   20.3861  -23.5317  -14.7978 N   0  0  0  0  0  0  0  0  0  0  0  0
   19.1313  -24.0413  -14.2993 C   0  0  0  0  0  0  0  0  0  0  0  0
   18.8141  -25.2031  -14.6401 O   0  0  0  0  0  0  0  0  0  0  0  0
   18.3095  -23.1940  -13.4373 C   0  0  0  0  0  0  0  0  0  0  0  0
   18.9489  -21.8848  -13.1156 C   0  0  0  0  0  0  0  0  0  0  0  0
   20.0231  -21.9834  -12.0860 C   0  0  2  0  0  0  0  0  0  0  0  0
   19.4704  -21.7520  -10.7427 N   0  0  0  0  0  0  0  0  0  0  0  0
   21.1189  -20.9890  -12.3289 C   0  0  0  0  0  0  0  0  0  0  0  0
   20.8795  -19.7831  -12.0626 O   0  0  0  0  0  0  0  0  0  0  0  0
   25.8152  -21.5123  -10.2787 C   0  0  0  0  0  0  0  0  0  0  0  0
   24.5838  -20.9387  -10.9423 C   0  0  0  0  0  0  0  0  0  0  0  0
   24.6509  -20.9422  -12.4288 C   0  0  2  0  0  0  0  0  0  0  0  0
   25.9478  -20.3534  -12.9539 C   0  0  0  0  0  0  0  0  0  0  0  0
   23.4548  -20.3674  -13.1120 C   0  0  2  0  0  0  0  0  0  0  0  0
   22.3755  -21.3471  -12.8318 N   0  0  0  0  0  0  0  0  0  0  0  0
   23.5303  -20.2557  -14.5687 C   0  0  0  0  0  0  0  0  0  0  0  0
   23.7481  -21.2937  -15.2983 O   0  0  0  0  0  0  0  0  0  0  0  0
   23.3790  -19.0600  -15.3278 N   0  0  0  0  0  0  0  0  0  0  0  0
   23.4458  -19.0456  -16.7781 C   0  0  1  0  0  0  0  0  0  0  0  0
   22.6407  -17.8258  -17.2438 C   0  0  0  0  0  0  0  0  0  0  0  0
   22.8304  -17.5694  -19.0294 S   0  0  0  0  0  0  0  0  0  0  0  0
   24.8261  -18.8424  -17.2637 C   0  0  0  0  0  0  0  0  0  0  0  0
   25.3046  -19.4833  -18.3842 O   0  0  0  0  0  0  0  0  0  0  0  0
   25.5768  -18.0665  -16.6372 O   0  0  0  0  0  0  0  0  0  0  0  0
  1  2  1  0
  2  3  2  0
  4  5  1  0
  4  2  1  0
  5  6  1  0
  6  7  1  1
  8  6  1  0
  9  8  2  0
 11 10  1  0
 11 12  1  0
 12 14  1  0
 12 13  1  1
 14 15  1  6
 15  8  1  0
 16 17  2  0
 16 14  1  0
 18 16  1  0
 19 18  1  0
 19 20  1  1
 21 20  1  0
 22 19  1  0
 23 22  1  0
 24 22  2  0
M  END
$$$$
