QIC.pdb
     RDKit          3D

 24 23  0  0  1  0  0  0  0  0999 V2000
   16.6657  -13.0604  -15.6142 N   0  0  0  0  0  0  0  0  0  0  0  0
   16.3587  -12.2028  -16.7335 C   0  0  0  0  0  0  0  0  0  0  0  0
   15.9567  -12.7576  -17.7810 O   0  0  0  0  0  0  0  0  0  0  0  0
   16.5272  -10.7578  -16.5920 C   0  0  0  0  0  0  0  0  0  0  0  0
   16.9573  -10.3460  -15.2239 C   0  0  0  0  0  0  0  0  0  0  0  0
   18.3486   -9.8116  -15.1726 C   0  0  2  0  0  0  0  0  0  0  0  0
   19.3213  -10.8850  -15.4279 N   0  0  0  0  0  0  0  0  0  0  0  0
   18.6580   -9.1939  -13.8417 C   0  0  0  0  0  0  0  0  0  0  0  0
   19.2193   -9.9189  -12.9804 O   0  0  0  0  0  0  0  0  0  0  0  0
   21.9283   -5.5908  -13.8727 C   0  0  0  0  0  0  0  0  0  0  0  0
   21.0118   -6.6708  -13.3437 C   0  0  0  0  0  0  0  0  0  0  0  0
   19.7493   -6.1465  -12.7559 C   0  0  2  0  0  0  0  0  0  0  0  0
   19.9963   -5.0791  -11.7052 C   0  0  0  0  0  0  0  0  0  0  0  0
   18.7964   -7.1929  -12.2819 C   0  0  2  0  0  0  0  0  0  0  0  0
   18.3508   -7.8644  -13.5284 N   0  0  0  0  0  0  0  0  0  0  0  0
   17.5803   -6.7137  -11.6248 C   0  0  0  0  0  0  0  0  0  0  0  0
   16.7202   -6.0041  -12.2679 O   0  0  0  0  0  0  0  0  0  0  0  0
   17.2064   -6.9557  -10.2718 N   0  0  0  0  0  0  0  0  0  0  0  0
   16.0094   -6.3841   -9.6814 C   0  0  1  0  0  0  0  0  0  0  0  0
   15.8356   -7.0470   -8.3091 C   0  0  0  0  0  0  0  0  0  0  0  0
   14.3833   -6.3824   -7.4493 S   0  0  0  0  0  0  0  0  0  0  0  0
   16.1579   -4.9364   -9.4277 C   0  0  0  0  0  0  0  0  0  0  0  0
   17.3120   -4.4058   -8.8968 O   0  0  0  0  0  0  0  0  0  0  0  0
   15.2075   -4.1759   -9.7040 O   0  0  0  0  0  0  0  0  0  0  0  0
  1  2  1  0
  2  3  2  0
  4  5  1  0
  4  2  1  0
  5  6  1  0
  6  7  1  1
  8  6  1  0
  9  8  2  0
 11 10  1  0
 11 12  1  0
 12 14  1  0
 12 13  1  1
 14 15  1  6
 15  8  1  0
 16 17  2  0
 16 14  1  0
 18 16  1  0
 19 18  1  0
 19 20  1  1
 21 20  1  0
 22 19  1  0
 23 22  1  0
 24 22  2  0
M  END
$$$$
