QIC.pdb
     RDKit          3D

 24 23  0  0  1  0  0  0  0  0999 V2000
   16.2447   -7.9633  -19.8966 N   0  0  0  0  0  0  0  0  0  0  0  0
   16.0799   -9.3737  -20.1537 C   0  0  0  0  0  0  0  0  0  0  0  0
   15.1644   -9.7048  -20.9404 O   0  0  0  0  0  0  0  0  0  0  0  0
   16.9725  -10.3273  -19.4977 C   0  0  0  0  0  0  0  0  0  0  0  0
   17.9611   -9.6788  -18.5875 C   0  0  0  0  0  0  0  0  0  0  0  0
   18.9361  -10.6352  -17.9886 C   0  0  2  0  0  0  0  0  0  0  0  0
   18.2854  -11.9240  -17.7075 N   0  0  0  0  0  0  0  0  0  0  0  0
   19.5202  -10.1072  -16.7124 C   0  0  0  0  0  0  0  0  0  0  0  0
   18.9244  -10.3873  -15.6404 O   0  0  0  0  0  0  0  0  0  0  0  0
   23.9076  -11.6225  -15.1095 C   0  0  0  0  0  0  0  0  0  0  0  0
   22.5478  -10.9631  -15.1567 C   0  0  0  0  0  0  0  0  0  0  0  0
   22.6064   -9.4873  -15.3375 C   0  0  2  0  0  0  0  0  0  0  0  0
   23.5342   -8.8157  -14.3412 C   0  0  0  0  0  0  0  0  0  0  0  0
   21.2778   -8.8114  -15.4133 C   0  0  2  0  0  0  0  0  0  0  0  0
   20.6829   -9.3284  -16.6711 N   0  0  0  0  0  0  0  0  0  0  0  0
   21.2971   -7.3546  -15.5450 C   0  0  0  0  0  0  0  0  0  0  0  0
   21.8845   -6.7912  -16.5423 O   0  0  0  0  0  0  0  0  0  0  0  0
   20.7032   -6.4227  -14.6463 N   0  0  0  0  0  0  0  0  0  0  0  0
   20.8856   -4.9885  -14.7799 C   0  0  1  0  0  0  0  0  0  0  0  0
   19.6268   -4.3289  -14.2027 C   0  0  0  0  0  0  0  0  0  0  0  0
   19.7917   -2.5226  -14.1892 S   0  0  0  0  0  0  0  0  0  0  0  0
   22.0198   -4.4998  -13.9692 C   0  0  0  0  0  0  0  0  0  0  0  0
   22.8942   -3.5471  -14.4415 O   0  0  0  0  0  0  0  0  0  0  0  0
   22.1864   -4.9666  -12.8236 O   0  0  0  0  0  0  0  0  0  0  0  0
  1  2  1  0
  2  3  2  0
  4  5  1  0
  4  2  1  0
  5  6  1  0
  6  7  1  1
  8  6  1  0
  9  8  2  0
 11 10  1  0
 11 12  1  0
 12 14  1  0
 12 13  1  1
 14 15  1  6
 15  8  1  0
 16 17  2  0
 16 14  1  0
 18 16  1  0
 19 18  1  0
 19 20  1  1
 21 20  1  0
 22 19  1  0
 23 22  1  0
 24 22  2  0
M  END
$$$$
