QIC.pdb
     RDKit          3D

 24 23  0  0  1  0  0  0  0  0999 V2000
   21.4799  -17.8395  -14.0205 N   0  0  0  0  0  0  0  0  0  0  0  0
   22.0526  -18.3701  -15.2343 C   0  0  0  0  0  0  0  0  0  0  0  0
   22.0810  -17.6104  -16.2286 O   0  0  0  0  0  0  0  0  0  0  0  0
   22.5624  -19.7398  -15.2428 C   0  0  0  0  0  0  0  0  0  0  0  0
   22.4367  -20.4237  -13.9227 C   0  0  0  0  0  0  0  0  0  0  0  0
   23.6179  -20.2257  -13.0343 C   0  0  2  0  0  0  0  0  0  0  0  0
   24.8620  -20.5279  -13.7583 N   0  0  0  0  0  0  0  0  0  0  0  0
   23.5503  -21.0984  -11.8168 C   0  0  0  0  0  0  0  0  0  0  0  0
   23.8047  -22.3217  -11.9632 O   0  0  0  0  0  0  0  0  0  0  0  0
   26.0698  -19.5126   -7.6975 C   0  0  0  0  0  0  0  0  0  0  0  0
   25.3734  -20.4778   -8.6299 C   0  0  0  0  0  0  0  0  0  0  0  0
   23.9337  -20.6799   -8.3127 C   0  0  2  0  0  0  0  0  0  0  0  0
   23.7166  -21.2077   -6.9061 C   0  0  0  0  0  0  0  0  0  0  0  0
   23.1708  -21.4605   -9.3307 C   0  0  2  0  0  0  0  0  0  0  0  0
   23.2204  -20.6107  -10.5466 N   0  0  0  0  0  0  0  0  0  0  0  0
   21.7520  -21.6811   -9.0501 C   0  0  0  0  0  0  0  0  0  0  0  0
   20.9255  -20.6946   -9.0207 O   0  0  0  0  0  0  0  0  0  0  0  0
   21.1330  -22.9376   -8.7918 N   0  0  0  0  0  0  0  0  0  0  0  0
   19.7263  -23.0567   -8.4525 C   0  0  1  0  0  0  0  0  0  0  0  0
   19.2437  -24.3901   -9.0374 C   0  0  0  0  0  0  0  0  0  0  0  0
   17.4362  -24.5166   -8.9529 S   0  0  0  0  0  0  0  0  0  0  0  0
   19.5174  -23.1435   -6.9926 C   0  0  0  0  0  0  0  0  0  0  0  0
   18.2984  -22.8691   -6.4147 O   0  0  0  0  0  0  0  0  0  0  0  0
   20.4764  -23.4755   -6.2658 O   0  0  0  0  0  0  0  0  0  0  0  0
  1  2  1  0
  2  3  2  0
  4  5  1  0
  4  2  1  0
  5  6  1  0
  6  7  1  6
  8  6  1  0
  9  8  2  0
 11 10  1  0
 11 12  1  0
 12 14  1  0
 12 13  1  1
 14 15  1  6
 15  8  1  0
 16 17  2  0
 16 14  1  0
 18 16  1  0
 19 18  1  0
 19 20  1  6
 21 20  1  0
 22 19  1  0
 23 22  1  0
 24 22  2  0
M  END
$$$$
