QIC.pdb
     RDKit          3D

 24 23  0  0  1  0  0  0  0  0999 V2000
   25.4837   -8.7992  -19.4766 N   0  0  0  0  0  0  0  0  0  0  0  0
   25.3451  -10.2244  -19.6563 C   0  0  0  0  0  0  0  0  0  0  0  0
   26.1750  -10.7860  -20.4063 O   0  0  0  0  0  0  0  0  0  0  0  0
   24.2656  -10.9285  -18.9669 C   0  0  0  0  0  0  0  0  0  0  0  0
   23.2878  -10.0112  -18.3120 C   0  0  0  0  0  0  0  0  0  0  0  0
   22.1760  -10.7228  -17.6181 C   0  0  2  0  0  0  0  0  0  0  0  0
   21.4802  -11.6224  -18.5509 N   0  0  0  0  0  0  0  0  0  0  0  0
   21.1758   -9.7646  -17.0436 C   0  0  0  0  0  0  0  0  0  0  0  0
   20.3129   -9.2869  -17.8245 O   0  0  0  0  0  0  0  0  0  0  0  0
   17.6231  -10.9588  -13.8767 C   0  0  0  0  0  0  0  0  0  0  0  0
   18.4630  -10.1629  -14.8498 C   0  0  0  0  0  0  0  0  0  0  0  0
   19.3769   -9.1901  -14.1920 C   0  0  2  0  0  0  0  0  0  0  0  0
   18.6620   -8.3132  -13.1799 C   0  0  0  0  0  0  0  0  0  0  0  0
   20.2238   -8.3935  -15.1280 C   0  0  2  0  0  0  0  0  0  0  0  0
   21.1673   -9.3893  -15.6948 N   0  0  0  0  0  0  0  0  0  0  0  0
   21.0527   -7.3498  -14.5249 C   0  0  0  0  0  0  0  0  0  0  0  0
   21.7929   -7.6050  -13.5031 O   0  0  0  0  0  0  0  0  0  0  0  0
   21.1491   -5.9975  -14.9617 N   0  0  0  0  0  0  0  0  0  0  0  0
   21.9574   -5.0114  -14.2673 C   0  0  1  0  0  0  0  0  0  0  0  0
   23.0964   -4.6260  -15.2199 C   0  0  0  0  0  0  0  0  0  0  0  0
   24.1253   -6.0670  -15.6137 S   0  0  0  0  0  0  0  0  0  0  0  0
   21.2022   -3.7703  -13.9992 C   0  0  0  0  0  0  0  0  0  0  0  0
   21.6825   -2.7948  -13.1550 O   0  0  0  0  0  0  0  0  0  0  0  0
   20.0973   -3.6056  -14.5562 O   0  0  0  0  0  0  0  0  0  0  0  0
  1  2  1  0
  2  3  2  0
  4  5  1  0
  4  2  1  0
  5  6  1  0
  6  7  1  6
  8  6  1  0
  9  8  2  0
 11 10  1  0
 11 12  1  0
 12 14  1  0
 12 13  1  6
 14 15  1  1
 15  8  1  0
 16 17  2  0
 16 14  1  0
 18 16  1  0
 19 18  1  0
 19 20  1  6
 21 20  1  0
 22 19  1  0
 23 22  1  0
 24 22  2  0
M  END
$$$$
