MGH.pdb
     RDKit          3D

 23 23  0  0  1  0  0  0  0  0999 V2000
    7.5267  -11.7205   20.2431 C   0  0  0  0  0  0  0  0  0  0  0  0
    8.7584  -12.6640   19.2687 S   0  0  0  0  0  0  0  0  0  0  0  0
    8.2163  -14.3865   19.1362 C   0  0  0  0  0  0  0  0  0  0  0  0
    9.3105  -15.2396   18.4813 C   0  0  0  0  0  0  0  0  0  0  0  0
    8.8575  -16.6670   18.3479 C   0  0  2  0  0  0  0  0  0  0  0  0
    7.4174  -16.7790   18.4598 N   0  0  0  0  0  0  0  0  0  0  0  0
    9.5434  -17.5323   19.3436 C   0  0  0  0  0  0  0  0  0  0  0  0
    9.0356  -17.7659   20.4703 O   0  0  0  0  0  0  0  0  0  0  0  0
   10.7894  -18.1244   19.0634 N   0  0  0  0  0  0  0  0  0  0  0  0
   11.5427  -18.8972   20.0209 C   0  0  0  0  0  0  0  0  0  0  0  0
   12.6067  -18.0797   20.6273 C   0  0  0  0  0  0  0  0  0  0  0  0
   13.6983  -18.6188   20.9349 O   0  0  0  0  0  0  0  0  0  0  0  0
   12.4872  -16.6931   20.8966 N   0  0  0  0  0  0  0  0  0  0  0  0
   13.5651  -15.8857   21.4413 C   0  0  1  0  0  0  0  0  0  0  0  0
   13.5649  -14.4926   20.9280 C   0  0  0  0  0  0  0  0  0  0  0  0
   14.1189  -14.4644   19.5604 C   0  0  0  0  0  0  0  0  0  0  0  0
   14.5943  -15.6028   18.9082 C   0  0  0  0  0  0  0  0  0  0  0  0
   15.0359  -15.2782   17.6851 N   0  0  0  0  0  0  0  0  0  0  0  0
   14.8539  -13.9596   17.5401 C   0  0  0  0  0  0  0  0  0  0  0  0
   14.2948  -13.4742   18.6884 N   0  0  0  0  0  0  0  0  0  0  0  0
   13.3764  -15.8607   22.9125 C   0  0  0  0  0  0  0  0  0  0  0  0
   14.2305  -15.2593   23.8120 O   0  0  0  0  0  0  0  0  0  0  0  0
   12.3583  -16.4278   23.4459 O   0  0  0  0  0  0  0  0  0  0  0  0
  2  1  1  0
  3  4  1  0
  3  2  1  0
  5  7  1  0
  5  4  1  0
  5  6  1  1
  7  9  1  0
  8  7  2  0
  9 10  1  0
 11 10  1  0
 11 12  2  0
 13 11  1  0
 14 13  1  0
 14 15  1  6
 15 16  1  0
 16 20  1  0
 16 17  2  0
 17 18  1  0
 19 18  1  0
 20 19  2  0
 21 14  1  0
 22 21  1  0
 23 21  2  0
M  END
$$$$
