MGH.pdb
     RDKit          3D

 23 23  0  0  1  0  0  0  0  0999 V2000
    7.9687  -11.9081   20.3683 C   0  0  0  0  0  0  0  0  0  0  0  0
    6.7102  -13.2148   20.1123 S   0  0  0  0  0  0  0  0  0  0  0  0
    7.3897  -14.8056   20.6471 C   0  0  0  0  0  0  0  0  0  0  0  0
    8.0968  -15.5023   19.4773 C   0  0  0  0  0  0  0  0  0  0  0  0
    8.7875  -16.7522   19.9472 C   0  0  2  0  0  0  0  0  0  0  0  0
    7.8420  -17.7126   20.4791 N   0  0  0  0  0  0  0  0  0  0  0  0
    9.8427  -16.4280   20.9433 C   0  0  0  0  0  0  0  0  0  0  0  0
   10.7440  -15.5869   20.6942 O   0  0  0  0  0  0  0  0  0  0  0  0
    9.8737  -17.0506   22.2054 N   0  0  0  0  0  0  0  0  0  0  0  0
   10.8005  -16.6943   23.2521 C   0  0  0  0  0  0  0  0  0  0  0  0
   10.1267  -16.6817   24.5613 C   0  0  0  0  0  0  0  0  0  0  0  0
   10.7400  -16.2437   25.5657 O   0  0  0  0  0  0  0  0  0  0  0  0
    8.8026  -17.1393   24.7776 N   0  0  0  0  0  0  0  0  0  0  0  0
    8.1887  -17.2275   26.0914 C   0  0  1  0  0  0  0  0  0  0  0  0
    6.8401  -16.6092   26.1459 C   0  0  0  0  0  0  0  0  0  0  0  0
    6.9497  -15.1528   25.9334 C   0  0  0  0  0  0  0  0  0  0  0  0
    6.7941  -14.5522   24.6835 C   0  0  0  0  0  0  0  0  0  0  0  0
    6.9470  -13.2251   24.7917 N   0  0  0  0  0  0  0  0  0  0  0  0
    7.1965  -12.9634   26.0809 C   0  0  0  0  0  0  0  0  0  0  0  0
    7.1958  -14.1448   26.7672 N   0  0  0  0  0  0  0  0  0  0  0  0
    8.0737  -18.6715   26.4111 C   0  0  0  0  0  0  0  0  0  0  0  0
    7.6246  -19.1858   27.6088 O   0  0  0  0  0  0  0  0  0  0  0  0
    8.4049  -19.5565   25.5452 O   0  0  0  0  0  0  0  0  0  0  0  0
  2  1  1  0
  3  4  1  0
  3  2  1  0
  5  7  1  0
  5  4  1  0
  5  6  1  1
  7  9  1  0
  8  7  2  0
  9 10  1  0
 11 10  1  0
 11 12  2  0
 13 11  1  0
 14 13  1  0
 14 15  1  6
 15 16  1  0
 16 20  1  0
 16 17  2  0
 17 18  1  0
 19 18  1  0
 20 19  2  0
 21 14  1  0
 22 21  1  0
 23 21  2  0
M  END
$$$$
