MGH.pdb
     RDKit          3D

 23 23  0  0  1  0  0  0  0  0999 V2000
    4.9582  -12.2073   26.4481 C   0  0  0  0  0  0  0  0  0  0  0  0
    6.1313  -11.9904   25.0576 S   0  0  0  0  0  0  0  0  0  0  0  0
    6.5103  -13.6104   24.3432 C   0  0  0  0  0  0  0  0  0  0  0  0
    7.4539  -13.4550   23.1434 C   0  0  0  0  0  0  0  0  0  0  0  0
    7.8041  -14.7999   22.5700 C   0  0  2  0  0  0  0  0  0  0  0  0
    6.8406  -15.8096   22.9590 N   0  0  0  0  0  0  0  0  0  0  0  0
    9.1838  -15.1949   22.9587 C   0  0  0  0  0  0  0  0  0  0  0  0
   10.1836  -14.5163   22.6100 O   0  0  0  0  0  0  0  0  0  0  0  0
    9.4246  -16.3454   23.7333 N   0  0  0  0  0  0  0  0  0  0  0  0
   10.7394  -16.7726   24.1462 C   0  0  0  0  0  0  0  0  0  0  0  0
   10.8989  -16.6304   25.6030 C   0  0  0  0  0  0  0  0  0  0  0  0
   11.9709  -16.9974   26.1442 O   0  0  0  0  0  0  0  0  0  0  0  0
    9.9063  -16.0959   26.4624 N   0  0  0  0  0  0  0  0  0  0  0  0
   10.0211  -16.0831   27.9106 C   0  0  1  0  0  0  0  0  0  0  0  0
   10.5405  -17.3590   28.4641 C   0  0  0  0  0  0  0  0  0  0  0  0
    9.5372  -18.4263   28.2843 C   0  0  0  0  0  0  0  0  0  0  0  0
    8.4381  -18.3022   27.4336 C   0  0  0  0  0  0  0  0  0  0  0  0
    7.7013  -19.4212   27.4722 N   0  0  0  0  0  0  0  0  0  0  0  0
    8.3035  -20.2573   28.3273 C   0  0  0  0  0  0  0  0  0  0  0  0
    9.4206  -19.6411   28.8160 N   0  0  0  0  0  0  0  0  0  0  0  0
   10.9606  -14.9874   28.2532 C   0  0  0  0  0  0  0  0  0  0  0  0
   10.9879  -14.3122   29.4548 O   0  0  0  0  0  0  0  0  0  0  0  0
   11.8365  -14.5942   27.4042 O   0  0  0  0  0  0  0  0  0  0  0  0
  2  1  1  0
  3  4  1  0
  3  2  1  0
  5  7  1  0
  5  4  1  0
  5  6  1  1
  7  9  1  0
  8  7  2  0
  9 10  1  0
 11 10  1  0
 11 12  2  0
 13 11  1  0
 14 13  1  0
 14 15  1  6
 15 16  1  0
 16 20  1  0
 16 17  2  0
 17 18  1  0
 19 18  1  0
 20 19  2  0
 21 14  1  0
 22 21  1  0
 23 21  2  0
M  END
$$$$
