MGH.pdb
     RDKit          3D

 23 23  0  0  1  0  0  0  0  0999 V2000
    7.3057  -12.1293   21.2290 C   0  0  0  0  0  0  0  0  0  0  0  0
    7.4265  -12.3252   19.4114 S   0  0  0  0  0  0  0  0  0  0  0  0
    7.3219  -14.0845   18.9962 C   0  0  0  0  0  0  0  0  0  0  0  0
    8.3688  -14.8806   19.7864 C   0  0  0  0  0  0  0  0  0  0  0  0
    8.2264  -16.3527   19.5163 C   0  0  2  0  0  0  0  0  0  0  0  0
    7.2595  -16.6085   18.4681 N   0  0  0  0  0  0  0  0  0  0  0  0
    7.8758  -17.0850   20.7619 C   0  0  0  0  0  0  0  0  0  0  0  0
    8.7270  -17.7750   21.3792 O   0  0  0  0  0  0  0  0  0  0  0  0
    6.5757  -17.0342   21.2992 N   0  0  0  0  0  0  0  0  0  0  0  0
    6.1645  -17.7661   22.4726 C   0  0  0  0  0  0  0  0  0  0  0  0
    7.3031  -17.9713   23.3833 C   0  0  0  0  0  0  0  0  0  0  0  0
    8.0159  -18.9973   23.2572 O   0  0  0  0  0  0  0  0  0  0  0  0
    7.6638  -17.0730   24.4189 N   0  0  0  0  0  0  0  0  0  0  0  0
    8.9739  -17.0567   25.0467 C   0  0  1  0  0  0  0  0  0  0  0  0
    9.7776  -15.8621   24.6844 C   0  0  0  0  0  0  0  0  0  0  0  0
   10.8082  -16.2349   23.6960 C   0  0  0  0  0  0  0  0  0  0  0  0
   11.1158  -17.5588   23.3796 C   0  0  0  0  0  0  0  0  0  0  0  0
   12.0862  -17.5945   22.4558 N   0  0  0  0  0  0  0  0  0  0  0  0
   12.4059  -16.3251   22.1743 C   0  0  0  0  0  0  0  0  0  0  0  0
   11.6214  -15.5055   22.9354 N   0  0  0  0  0  0  0  0  0  0  0  0
    8.7434  -17.0601   26.5122 C   0  0  0  0  0  0  0  0  0  0  0  0
    9.6829  -17.3991   27.4624 O   0  0  0  0  0  0  0  0  0  0  0  0
    7.6002  -16.7328   26.9902 O   0  0  0  0  0  0  0  0  0  0  0  0
  2  1  1  0
  3  4  1  0
  3  2  1  0
  5  7  1  0
  5  4  1  0
  5  6  1  6
  7  9  1  0
  8  7  2  0
  9 10  1  0
 11 10  1  0
 11 12  2  0
 13 11  1  0
 14 13  1  0
 14 15  1  1
 15 16  1  0
 16 20  1  0
 16 17  2  0
 17 18  1  0
 19 18  1  0
 20 19  2  0
 21 14  1  0
 22 21  1  0
 23 21  2  0
M  END
$$$$
