MGH.pdb
     RDKit          3D

 23 23  0  0  1  0  0  0  0  0999 V2000
    7.1440  -12.5208   27.2943 C   0  0  0  0  0  0  0  0  0  0  0  0
    7.5445  -12.1492   25.5456 S   0  0  0  0  0  0  0  0  0  0  0  0
    7.5541  -13.6922   24.5984 C   0  0  0  0  0  0  0  0  0  0  0  0
    7.7413  -13.3981   23.1043 C   0  0  0  0  0  0  0  0  0  0  0  0
    7.7814  -14.6774   22.3156 C   0  0  2  0  0  0  0  0  0  0  0  0
    6.6867  -15.5561   22.6743 N   0  0  0  0  0  0  0  0  0  0  0  0
    9.0933  -15.3572   22.4815 C   0  0  0  0  0  0  0  0  0  0  0  0
   10.1622  -14.8267   22.0843 O   0  0  0  0  0  0  0  0  0  0  0  0
    9.1899  -16.6227   23.0906 N   0  0  0  0  0  0  0  0  0  0  0  0
   10.4387  -17.3060   23.3249 C   0  0  0  0  0  0  0  0  0  0  0  0
   10.9752  -16.9680   24.6538 C   0  0  0  0  0  0  0  0  0  0  0  0
   11.9725  -16.2100   24.7413 O   0  0  0  0  0  0  0  0  0  0  0  0
   10.4352  -17.4474   25.8738 N   0  0  0  0  0  0  0  0  0  0  0  0
   11.0412  -17.2012   27.1710 C   0  0  1  0  0  0  0  0  0  0  0  0
   10.0766  -16.6861   28.1751 C   0  0  0  0  0  0  0  0  0  0  0  0
    9.5474  -15.3805   27.7350 C   0  0  0  0  0  0  0  0  0  0  0  0
   10.2065  -14.1734   27.9710 C   0  0  0  0  0  0  0  0  0  0  0  0
    9.4957  -13.1573   27.4622 N   0  0  0  0  0  0  0  0  0  0  0  0
    8.3983  -13.6864   26.9068 C   0  0  0  0  0  0  0  0  0  0  0  0
    8.4401  -15.0411   27.0788 N   0  0  0  0  0  0  0  0  0  0  0  0
   11.5833  -18.4998   27.6406 C   0  0  0  0  0  0  0  0  0  0  0  0
   12.3202  -18.6826   28.7913 O   0  0  0  0  0  0  0  0  0  0  0  0
   11.3838  -19.5695   26.9634 O   0  0  0  0  0  0  0  0  0  0  0  0
  2  1  1  0
  3  4  1  0
  3  2  1  0
  5  7  1  0
  5  4  1  0
  5  6  1  1
  7  9  1  0
  8  7  2  0
  9 10  1  0
 11 10  1  0
 11 12  2  0
 13 11  1  0
 14 13  1  0
 14 15  1  1
 15 16  1  0
 16 20  1  0
 16 17  2  0
 17 18  1  0
 19 18  1  0
 20 19  2  0
 21 14  1  0
 22 21  1  0
 23 21  2  0
M  END
$$$$
