MGH.pdb
     RDKit          3D

 23 23  0  0  1  0  0  0  0  0999 V2000
    7.1751  -11.5218   27.4037 C   0  0  0  0  0  0  0  0  0  0  0  0
    6.2342  -12.5868   26.2475 S   0  0  0  0  0  0  0  0  0  0  0  0
    7.2402  -14.0297   25.8180 C   0  0  0  0  0  0  0  0  0  0  0  0
    6.4766  -14.9410   24.8483 C   0  0  0  0  0  0  0  0  0  0  0  0
    7.2278  -16.2246   24.6282 C   0  0  2  0  0  0  0  0  0  0  0  0
    7.8155  -16.7128   25.8592 N   0  0  0  0  0  0  0  0  0  0  0  0
    8.2583  -16.0568   23.5696 C   0  0  0  0  0  0  0  0  0  0  0  0
    8.0363  -16.3936   22.3785 O   0  0  0  0  0  0  0  0  0  0  0  0
    9.5240  -15.5135   23.8603 N   0  0  0  0  0  0  0  0  0  0  0  0
   10.7619  -16.0459   23.3450 C   0  0  0  0  0  0  0  0  0  0  0  0
   11.5230  -16.7181   24.4114 C   0  0  0  0  0  0  0  0  0  0  0  0
   12.7657  -16.8515   24.2912 O   0  0  0  0  0  0  0  0  0  0  0  0
   10.9416  -17.2391   25.5947 N   0  0  0  0  0  0  0  0  0  0  0  0
   11.7131  -17.8281   26.6756 C   0  0  1  0  0  0  0  0  0  0  0  0
   11.1793  -17.4942   28.0202 C   0  0  0  0  0  0  0  0  0  0  0  0
   10.6562  -16.1142   28.0210 C   0  0  0  0  0  0  0  0  0  0  0  0
   10.7048  -15.2812   26.9025 C   0  0  0  0  0  0  0  0  0  0  0  0
   10.1602  -14.0917   27.1943 N   0  0  0  0  0  0  0  0  0  0  0  0
    9.7648  -14.1449   28.4724 C   0  0  0  0  0  0  0  0  0  0  0  0
   10.0718  -15.3813   28.9661 N   0  0  0  0  0  0  0  0  0  0  0  0
   11.6605  -19.2982   26.4840 C   0  0  0  0  0  0  0  0  0  0  0  0
   12.3634  -20.2212   27.2286 O   0  0  0  0  0  0  0  0  0  0  0  0
   10.9220  -19.8074   25.5686 O   0  0  0  0  0  0  0  0  0  0  0  0
  2  1  1  0
  3  4  1  0
  3  2  1  0
  5  7  1  0
  5  4  1  0
  5  6  1  1
  7  9  1  0
  8  7  2  0
  9 10  1  0
 11 10  1  0
 11 12  2  0
 13 11  1  0
 14 13  1  0
 14 15  1  1
 15 16  1  0
 16 20  1  0
 16 17  2  0
 17 18  1  0
 19 18  1  0
 20 19  2  0
 21 14  1  0
 22 21  1  0
 23 21  2  0
M  END
$$$$
