MGH.pdb
     RDKit          3D

 23 23  0  0  1  0  0  0  0  0999 V2000
    6.3160  -11.1134   27.3310 C   0  0  0  0  0  0  0  0  0  0  0  0
    7.0809  -11.6036   25.7400 S   0  0  0  0  0  0  0  0  0  0  0  0
    7.2286  -13.4073   25.6837 C   0  0  0  0  0  0  0  0  0  0  0  0
    7.9120  -13.8446   24.3815 C   0  0  0  0  0  0  0  0  0  0  0  0
    8.0802  -15.3383   24.3498 C   0  0  2  0  0  0  0  0  0  0  0  0
    8.6590  -15.8331   25.5824 N   0  0  0  0  0  0  0  0  0  0  0  0
    8.8878  -15.7523   23.1720 C   0  0  0  0  0  0  0  0  0  0  0  0
    8.3435  -16.1245   22.1011 O   0  0  0  0  0  0  0  0  0  0  0  0
   10.2950  -15.7435   23.2102 N   0  0  0  0  0  0  0  0  0  0  0  0
   11.1043  -16.9378   23.1996 C   0  0  0  0  0  0  0  0  0  0  0  0
   11.6911  -17.1803   24.5281 C   0  0  0  0  0  0  0  0  0  0  0  0
   12.8950  -16.8878   24.7327 O   0  0  0  0  0  0  0  0  0  0  0  0
   10.9792  -17.7338   25.6219 N   0  0  0  0  0  0  0  0  0  0  0  0
   11.5426  -17.8838   26.9526 C   0  0  1  0  0  0  0  0  0  0  0  0
   10.5802  -17.5502   28.0326 C   0  0  0  0  0  0  0  0  0  0  0  0
   10.0616  -16.1827   27.8343 C   0  0  0  0  0  0  0  0  0  0  0  0
   10.7528  -15.2027   27.1209 C   0  0  0  0  0  0  0  0  0  0  0  0
   10.0454  -14.0643   27.1050 N   0  0  0  0  0  0  0  0  0  0  0  0
    8.9187  -14.2937   27.7911 C   0  0  0  0  0  0  0  0  0  0  0  0
    8.9391  -15.5871   28.2307 N   0  0  0  0  0  0  0  0  0  0  0  0
   11.9475  -19.3048   27.0854 C   0  0  0  0  0  0  0  0  0  0  0  0
   12.7187  -19.8181   28.1063 O   0  0  0  0  0  0  0  0  0  0  0  0
   11.5824  -20.1681   26.2113 O   0  0  0  0  0  0  0  0  0  0  0  0
  2  1  1  0
  3  4  1  0
  3  2  1  0
  5  7  1  0
  5  4  1  0
  5  6  1  1
  7  9  1  0
  8  7  2  0
  9 10  1  0
 11 10  1  0
 11 12  2  0
 13 11  1  0
 14 13  1  0
 14 15  1  1
 15 16  1  0
 16 20  1  0
 16 17  2  0
 17 18  1  0
 19 18  1  0
 20 19  2  0
 21 14  1  0
 22 21  1  0
 23 21  2  0
M  END
$$$$
