MGH.pdb
     RDKit          3D

 23 23  0  0  1  0  0  0  0  0999 V2000
    9.0408  -11.2623   19.9897 C   0  0  0  0  0  0  0  0  0  0  0  0
    7.5847  -12.2152   19.4169 S   0  0  0  0  0  0  0  0  0  0  0  0
    8.1109  -13.8873   18.9636 C   0  0  0  0  0  0  0  0  0  0  0  0
    8.1619  -14.7843   20.2073 C   0  0  0  0  0  0  0  0  0  0  0  0
    8.5723  -16.1815   19.8336 C   0  0  2  0  0  0  0  0  0  0  0  0
    7.5051  -16.8825   19.1489 N   0  0  0  0  0  0  0  0  0  0  0  0
    9.0284  -16.9346   21.0317 C   0  0  0  0  0  0  0  0  0  0  0  0
    8.2197  -17.5732   21.7526 O   0  0  0  0  0  0  0  0  0  0  0  0
   10.3852  -16.9620   21.4059 N   0  0  0  0  0  0  0  0  0  0  0  0
   10.9033  -17.7705   22.4826 C   0  0  0  0  0  0  0  0  0  0  0  0
   10.7139  -17.0957   23.7775 C   0  0  0  0  0  0  0  0  0  0  0  0
   11.5927  -16.3006   24.1924 O   0  0  0  0  0  0  0  0  0  0  0  0
    9.5834  -17.2819   24.6124 N   0  0  0  0  0  0  0  0  0  0  0  0
    9.5145  -16.8135   25.9859 C   0  0  1  0  0  0  0  0  0  0  0  0
    8.1226  -16.6287   26.4682 C   0  0  0  0  0  0  0  0  0  0  0  0
    7.5447  -15.4095   25.8700 C   0  0  0  0  0  0  0  0  0  0  0  0
    8.2805  -14.5293   25.0756 C   0  0  0  0  0  0  0  0  0  0  0  0
    7.5010  -13.5158   24.6735 N   0  0  0  0  0  0  0  0  0  0  0  0
    6.2848  -13.7275   25.1919 C   0  0  0  0  0  0  0  0  0  0  0  0
    6.3229  -14.8837   25.9188 N   0  0  0  0  0  0  0  0  0  0  0  0
   10.1846  -17.8412   26.8199 C   0  0  0  0  0  0  0  0  0  0  0  0
   10.5125  -17.6929   28.1507 O   0  0  0  0  0  0  0  0  0  0  0  0
   10.5092  -18.9745   26.3171 O   0  0  0  0  0  0  0  0  0  0  0  0
  2  1  1  0
  3  4  1  0
  3  2  1  0
  5  7  1  0
  5  4  1  0
  5  6  1  1
  7  9  1  0
  8  7  2  0
  9 10  1  0
 11 10  1  0
 11 12  2  0
 13 11  1  0
 14 13  1  0
 14 15  1  1
 15 16  1  0
 16 20  1  0
 16 17  2  0
 17 18  1  0
 19 18  1  0
 20 19  2  0
 21 14  1  0
 22 21  1  0
 23 21  2  0
M  END
$$$$
