MGH.pdb
     RDKit          3D

 23 23  0  0  1  0  0  0  0  0999 V2000
    7.9604  -11.7942   20.7117 C   0  0  0  0  0  0  0  0  0  0  0  0
    6.8846  -12.8759   21.7262 S   0  0  0  0  0  0  0  0  0  0  0  0
    7.1724  -14.6022   21.2620 C   0  0  0  0  0  0  0  0  0  0  0  0
    8.5206  -14.7419   20.5429 C   0  0  0  0  0  0  0  0  0  0  0  0
    8.8215  -16.1879   20.2623 C   0  0  2  0  0  0  0  0  0  0  0  0
    7.7777  -17.0550   20.7698 N   0  0  0  0  0  0  0  0  0  0  0  0
   10.1499  -16.5658   20.8132 C   0  0  0  0  0  0  0  0  0  0  0  0
   11.1853  -15.9063   20.5401 O   0  0  0  0  0  0  0  0  0  0  0  0
   10.3001  -17.6780   21.6630 N   0  0  0  0  0  0  0  0  0  0  0  0
   11.5544  -18.0658   22.2611 C   0  0  0  0  0  0  0  0  0  0  0  0
   11.6301  -17.6033   23.6569 C   0  0  0  0  0  0  0  0  0  0  0  0
   12.6838  -17.7938   24.3129 O   0  0  0  0  0  0  0  0  0  0  0  0
   10.5743  -16.9415   24.3329 N   0  0  0  0  0  0  0  0  0  0  0  0
   10.6932  -16.4079   25.6789 C   0  0  1  0  0  0  0  0  0  0  0  0
    9.4779  -15.6819   26.1261 C   0  0  0  0  0  0  0  0  0  0  0  0
    9.7091  -15.0962   27.4609 C   0  0  0  0  0  0  0  0  0  0  0  0
    9.5876  -13.7312   27.7244 C   0  0  0  0  0  0  0  0  0  0  0  0
    9.8556  -13.4892   29.0152 N   0  0  0  0  0  0  0  0  0  0  0  0
   10.1453  -14.6668   29.5826 C   0  0  0  0  0  0  0  0  0  0  0  0
   10.0530  -15.6386   28.6267 N   0  0  0  0  0  0  0  0  0  0  0  0
   10.9245  -17.5659   26.5767 C   0  0  0  0  0  0  0  0  0  0  0  0
   11.7479  -17.5607   27.6824 O   0  0  0  0  0  0  0  0  0  0  0  0
   10.3412  -18.6855   26.3554 O   0  0  0  0  0  0  0  0  0  0  0  0
  2  1  1  0
  3  4  1  0
  3  2  1  0
  5  7  1  0
  5  4  1  0
  5  6  1  1
  7  9  1  0
  8  7  2  0
  9 10  1  0
 11 10  1  0
 11 12  2  0
 13 11  1  0
 14 13  1  0
 14 15  1  1
 15 16  1  0
 16 20  1  0
 16 17  2  0
 17 18  1  0
 19 18  1  0
 20 19  2  0
 21 14  1  0
 22 21  1  0
 23 21  2  0
M  END
$$$$
