MGH.pdb
     RDKit          3D

 23 23  0  0  1  0  0  0  0  0999 V2000
    7.6716  -11.4811   21.3186 C   0  0  0  0  0  0  0  0  0  0  0  0
    7.8650  -12.2138   19.6506 S   0  0  0  0  0  0  0  0  0  0  0  0
    7.6394  -14.0070   19.7608 C   0  0  0  0  0  0  0  0  0  0  0  0
    7.9471  -14.6657   18.4097 C   0  0  0  0  0  0  0  0  0  0  0  0
    7.8432  -16.1618   18.5163 C   0  0  2  0  0  0  0  0  0  0  0  0
    6.6300  -16.5618   19.1999 N   0  0  0  0  0  0  0  0  0  0  0  0
    9.0468  -16.7270   19.1816 C   0  0  0  0  0  0  0  0  0  0  0  0
   10.0305  -17.1415   18.5165 O   0  0  0  0  0  0  0  0  0  0  0  0
    9.1320  -16.8202   20.5836 N   0  0  0  0  0  0  0  0  0  0  0  0
    8.2684  -17.6527   21.3852 C   0  0  0  0  0  0  0  0  0  0  0  0
    8.6844  -17.6261   22.7974 C   0  0  0  0  0  0  0  0  0  0  0  0
    8.0541  -18.3130   23.6386 O   0  0  0  0  0  0  0  0  0  0  0  0
    9.7723  -16.8626   23.2907 N   0  0  0  0  0  0  0  0  0  0  0  0
    9.7353  -16.1307   24.5451 C   0  0  1  0  0  0  0  0  0  0  0  0
    8.4725  -16.3324   25.2992 C   0  0  0  0  0  0  0  0  0  0  0  0
    7.7427  -15.0537   25.4020 C   0  0  0  0  0  0  0  0  0  0  0  0
    8.1858  -13.8743   24.8021 C   0  0  0  0  0  0  0  0  0  0  0  0
    7.3279  -12.8782   25.0635 N   0  0  0  0  0  0  0  0  0  0  0  0
    6.3473  -13.3930   25.8159 C   0  0  0  0  0  0  0  0  0  0  0  0
    6.6102  -14.7188   26.0160 N   0  0  0  0  0  0  0  0  0  0  0  0
   10.8716  -16.6260   25.3602 C   0  0  0  0  0  0  0  0  0  0  0  0
   11.2398  -16.1298   26.5926 O   0  0  0  0  0  0  0  0  0  0  0  0
   11.6046  -17.5876   24.9354 O   0  0  0  0  0  0  0  0  0  0  0  0
  2  1  1  0
  3  4  1  0
  3  2  1  0
  5  7  1  0
  5  4  1  0
  5  6  1  1
  7  9  1  0
  8  7  2  0
  9 10  1  0
 11 10  1  0
 11 12  2  0
 13 11  1  0
 14 13  1  0
 14 15  1  1
 15 16  1  0
 16 20  1  0
 16 17  2  0
 17 18  1  0
 19 18  1  0
 20 19  2  0
 21 14  1  0
 22 21  1  0
 23 21  2  0
M  END
$$$$
