MGH.pdb
     RDKit          3D

 23 23  0  0  1  0  0  0  0  0999 V2000
    6.4889  -12.7463   27.5551 C   0  0  0  0  0  0  0  0  0  0  0  0
    6.6698  -12.4280   25.7600 S   0  0  0  0  0  0  0  0  0  0  0  0
    7.2121  -13.9485   24.9398 C   0  0  0  0  0  0  0  0  0  0  0  0
    7.1839  -13.7700   23.4162 C   0  0  0  0  0  0  0  0  0  0  0  0
    7.5779  -15.0473   22.7281 C   0  0  2  0  0  0  0  0  0  0  0  0
    6.9590  -16.1989   23.3526 N   0  0  0  0  0  0  0  0  0  0  0  0
    9.0575  -15.1882   22.6865 C   0  0  0  0  0  0  0  0  0  0  0  0
    9.7898  -14.2831   22.2110 O   0  0  0  0  0  0  0  0  0  0  0  0
    9.6967  -16.3419   23.1784 N   0  0  0  0  0  0  0  0  0  0  0  0
   11.1208  -16.5613   23.1063 C   0  0  0  0  0  0  0  0  0  0  0  0
   11.6587  -16.9250   24.4278 C   0  0  0  0  0  0  0  0  0  0  0  0
   12.8904  -17.1331   24.5558 O   0  0  0  0  0  0  0  0  0  0  0  0
   10.8687  -17.0613   25.5969 N   0  0  0  0  0  0  0  0  0  0  0  0
   11.3728  -17.6022   26.8475 C   0  0  1  0  0  0  0  0  0  0  0  0
   10.5860  -17.1667   28.0287 C   0  0  0  0  0  0  0  0  0  0  0  0
   10.6945  -15.7036   28.1890 C   0  0  0  0  0  0  0  0  0  0  0  0
   11.4350  -14.8962   27.3247 C   0  0  0  0  0  0  0  0  0  0  0  0
   11.3539  -13.6159   27.7131 N   0  0  0  0  0  0  0  0  0  0  0  0
   10.5792  -13.5861   28.8047 C   0  0  0  0  0  0  0  0  0  0  0  0
   10.1832  -14.8631   29.0856 N   0  0  0  0  0  0  0  0  0  0  0  0
   11.2985  -19.0794   26.7327 C   0  0  0  0  0  0  0  0  0  0  0  0
   11.9179  -19.9733   27.5799 O   0  0  0  0  0  0  0  0  0  0  0  0
   10.6211  -19.6239   25.7907 O   0  0  0  0  0  0  0  0  0  0  0  0
  2  1  1  0
  3  4  1  0
  3  2  1  0
  5  7  1  0
  5  4  1  0
  5  6  1  1
  7  9  1  0
  8  7  2  0
  9 10  1  0
 11 10  1  0
 11 12  2  0
 13 11  1  0
 14 13  1  0
 14 15  1  1
 15 16  1  0
 16 20  1  0
 16 17  2  0
 17 18  1  0
 19 18  1  0
 20 19  2  0
 21 14  1  0
 22 21  1  0
 23 21  2  0
M  END
$$$$
