FHS.pdb
     RDKit          3D

 28 29  0  0  1  0  0  0  0  0999 V2000
   26.9121  -19.3962  -10.0552 N   0  0  0  0  0  0  0  0  0  0  0  0
   26.7046  -20.7864   -9.8049 C   0  0  1  0  0  0  0  0  0  0  0  0
   26.5531  -20.9747   -8.3017 C   0  0  0  0  0  0  0  0  0  0  0  0
   27.6099  -20.2854   -7.5275 C   0  0  0  0  0  0  0  0  0  0  0  0
   28.8715  -20.8383   -7.4734 C   0  0  0  0  0  0  0  0  0  0  0  0
   29.9035  -20.2314   -6.7540 C   0  0  0  0  0  0  0  0  0  0  0  0
   29.6412  -19.0455   -6.0826 C   0  0  0  0  0  0  0  0  0  0  0  0
   28.3869  -18.4754   -6.1233 C   0  0  0  0  0  0  0  0  0  0  0  0
   27.4001  -19.1079   -6.8445 C   0  0  0  0  0  0  0  0  0  0  0  0
   25.5359  -21.3431  -10.5204 C   0  0  0  0  0  0  0  0  0  0  0  0
   25.2083  -22.5472  -10.4042 O   0  0  0  0  0  0  0  0  0  0  0  0
   24.7715  -20.4973  -11.3538 N   0  0  0  0  0  0  0  0  0  0  0  0
   23.6130  -20.9140  -12.1081 C   0  0  1  0  0  0  0  0  0  0  0  0
   22.6401  -19.7925  -12.2091 C   0  0  0  0  0  0  0  0  0  0  0  0
   21.3902  -20.0929  -12.9377 C   0  0  0  0  0  0  0  0  0  0  0  0
   20.9360  -21.2396  -13.5047 C   0  0  0  0  0  0  0  0  0  0  0  0
   19.7312  -21.0085  -14.0799 N   0  0  0  0  0  0  0  0  0  0  0  0
   19.4398  -19.7261  -13.8715 C   0  0  0  0  0  0  0  0  0  0  0  0
   20.4183  -19.1540  -13.1888 N   0  0  0  0  0  0  0  0  0  0  0  0
   24.0019  -21.2682  -13.5162 C   0  0  0  0  0  0  0  0  0  0  0  0
   24.6925  -20.4593  -14.1829 O   0  0  0  0  0  0  0  0  0  0  0  0
   25.6941  -24.3375  -14.6877 O   0  0  0  0  0  0  0  0  0  0  0  0
   24.5455  -24.3015  -15.5005 C   0  0  0  0  0  0  0  0  0  0  0  0
   24.0482  -22.8751  -15.4641 C   0  0  2  0  0  0  0  0  0  0  0  0
   23.6244  -22.4802  -14.1339 N   0  0  0  0  0  0  0  0  0  0  0  0
   22.9821  -22.6587  -16.4410 C   0  0  0  0  0  0  0  0  0  0  0  0
   23.2302  -22.6803  -17.7971 O   0  0  0  0  0  0  0  0  0  0  0  0
   21.8121  -22.4481  -16.0402 O   0  0  0  0  0  0  0  0  0  0  0  0
  2  1  1  1
  2  3  1  0
  3  4  1  0
  4  9  2  0
  5  6  2  0
  5  4  1  0
  6  7  1  0
  7  8  2  0
  9  8  1  0
 10  2  1  0
 10 12  1  0
 11 10  2  0
 13 12  1  0
 13 14  1  6
 14 15  1  0
 15 19  1  0
 15 16  2  0
 16 17  1  0
 18 17  1  0
 19 18  2  0
 20 21  2  0
 20 13  1  0
 22 23  1  0
 24 23  1  1
 24 25  1  0
 24 26  1  0
 25 20  1  0
 26 28  2  0
 26 27  1  0
M  END
$$$$
