FHS.pdb
     RDKit          3D

 28 29  0  0  1  0  0  0  0  0999 V2000
   39.0223   -2.7338   -2.8226 N   0  0  0  0  0  0  0  0  0  0  0  0
   39.0935   -4.1014   -3.2262 C   0  0  1  0  0  0  0  0  0  0  0  0
   37.8723   -4.8192   -2.6681 C   0  0  0  0  0  0  0  0  0  0  0  0
   36.9820   -3.9224   -1.8973 C   0  0  0  0  0  0  0  0  0  0  0  0
   36.9177   -4.0558   -0.5267 C   0  0  0  0  0  0  0  0  0  0  0  0
   36.0911   -3.2386    0.2476 C   0  0  0  0  0  0  0  0  0  0  0  0
   35.3217   -2.2742   -0.3879 C   0  0  0  0  0  0  0  0  0  0  0  0
   35.3707   -2.1236   -1.7571 C   0  0  0  0  0  0  0  0  0  0  0  0
   36.1993   -2.9507   -2.4806 C   0  0  0  0  0  0  0  0  0  0  0  0
   39.1762   -4.2766   -4.6926 C   0  0  0  0  0  0  0  0  0  0  0  0
   38.5639   -3.5174   -5.4794 O   0  0  0  0  0  0  0  0  0  0  0  0
   39.9643   -5.3243   -5.2178 N   0  0  0  0  0  0  0  0  0  0  0  0
   40.2086   -5.5448   -6.6236 C   0  0  1  0  0  0  0  0  0  0  0  0
   41.6723   -5.5520   -6.8917 C   0  0  0  0  0  0  0  0  0  0  0  0
   42.2924   -4.2264   -7.0954 C   0  0  0  0  0  0  0  0  0  0  0  0
   41.7565   -2.9794   -7.1184 C   0  0  0  0  0  0  0  0  0  0  0  0
   42.7356   -2.0753   -7.3627 N   0  0  0  0  0  0  0  0  0  0  0  0
   43.8721   -2.7570   -7.4909 C   0  0  0  0  0  0  0  0  0  0  0  0
   43.6342   -4.0494   -7.3352 N   0  0  0  0  0  0  0  0  0  0  0  0
   39.6927   -6.8932   -7.0419 C   0  0  0  0  0  0  0  0  0  0  0  0
   39.8922   -7.8835   -6.2967 O   0  0  0  0  0  0  0  0  0  0  0  0
   37.3884   -9.6668  -10.2796 O   0  0  0  0  0  0  0  0  0  0  0  0
   37.6800   -8.3373   -9.9208 C   0  0  0  0  0  0  0  0  0  0  0  0
   38.6539   -8.4161   -8.7682 C   0  0  2  0  0  0  0  0  0  0  0  0
   38.9862   -7.1040   -8.2458 N   0  0  0  0  0  0  0  0  0  0  0  0
   39.8597   -9.1543   -9.1405 C   0  0  0  0  0  0  0  0  0  0  0  0
   41.0200   -8.5049   -9.5052 O   0  0  0  0  0  0  0  0  0  0  0  0
   39.8428  -10.4087   -9.1293 O   0  0  0  0  0  0  0  0  0  0  0  0
  2  1  1  6
  2  3  1  0
  3  4  1  0
  4  9  2  0
  5  6  2  0
  5  4  1  0
  6  7  1  0
  7  8  2  0
  9  8  1  0
 10  2  1  0
 10 12  1  0
 11 10  2  0
 13 12  1  0
 13 14  1  1
 14 15  1  0
 15 19  1  0
 15 16  2  0
 16 17  1  0
 18 17  1  0
 19 18  2  0
 20 21  2  0
 20 13  1  0
 22 23  1  0
 24 23  1  6
 24 25  1  0
 24 26  1  0
 25 20  1  0
 26 28  2  0
 26 27  1  0
M  END
$$$$
