FHS.pdb
     RDKit          3D

 28 29  0  0  1  0  0  0  0  0999 V2000
   24.8014  -21.4420   -8.9048 N   0  0  0  0  0  0  0  0  0  0  0  0
   25.2413  -20.6460  -10.0055 C   0  0  1  0  0  0  0  0  0  0  0  0
   26.7486  -20.8172  -10.1350 C   0  0  0  0  0  0  0  0  0  0  0  0
   27.4886  -20.2905   -8.9661 C   0  0  0  0  0  0  0  0  0  0  0  0
   28.3707  -21.1160   -8.3022 C   0  0  0  0  0  0  0  0  0  0  0  0
   29.0908  -20.6709   -7.1913 C   0  0  0  0  0  0  0  0  0  0  0  0
   28.9061  -19.3664   -6.7553 C   0  0  0  0  0  0  0  0  0  0  0  0
   28.0291  -18.5241   -7.4044 C   0  0  0  0  0  0  0  0  0  0  0  0
   27.3405  -19.0049   -8.4946 C   0  0  0  0  0  0  0  0  0  0  0  0
   24.5672  -20.9818  -11.2785 C   0  0  0  0  0  0  0  0  0  0  0  0
   24.5342  -22.1568  -11.7131 O   0  0  0  0  0  0  0  0  0  0  0  0
   23.9461  -19.9537  -12.0211 N   0  0  0  0  0  0  0  0  0  0  0  0
   23.2356  -20.1496  -13.2627 C   0  0  1  0  0  0  0  0  0  0  0  0
   21.8900  -19.5188  -13.1850 C   0  0  0  0  0  0  0  0  0  0  0  0
   20.8814  -20.2569  -12.3970 C   0  0  0  0  0  0  0  0  0  0  0  0
   20.9304  -21.4691  -11.7880 C   0  0  0  0  0  0  0  0  0  0  0  0
   19.7361  -21.7244  -11.2011 N   0  0  0  0  0  0  0  0  0  0  0  0
   18.9507  -20.6772  -11.4449 C   0  0  0  0  0  0  0  0  0  0  0  0
   19.6132  -19.7827  -12.1604 N   0  0  0  0  0  0  0  0  0  0  0  0
   23.9579  -19.4735  -14.3943 C   0  0  0  0  0  0  0  0  0  0  0  0
   24.4347  -18.3257  -14.2179 O   0  0  0  0  0  0  0  0  0  0  0  0
   25.2464  -21.5731  -17.6319 O   0  0  0  0  0  0  0  0  0  0  0  0
   25.8917  -20.3548  -17.3482 C   0  0  0  0  0  0  0  0  0  0  0  0
   24.8366  -19.4458  -16.7619 C   0  0  2  0  0  0  0  0  0  0  0  0
   24.1290  -20.0723  -15.6611 N   0  0  0  0  0  0  0  0  0  0  0  0
   23.9052  -18.9809  -17.7886 C   0  0  0  0  0  0  0  0  0  0  0  0
   24.3468  -18.3442  -18.9290 O   0  0  0  0  0  0  0  0  0  0  0  0
   22.6740  -19.1637  -17.6323 O   0  0  0  0  0  0  0  0  0  0  0  0
  2  1  1  1
  2  3  1  0
  3  4  1  0
  4  9  2  0
  5  6  2  0
  5  4  1  0
  6  7  1  0
  7  8  2  0
  9  8  1  0
 10  2  1  0
 10 12  1  0
 11 10  2  0
 13 12  1  0
 13 14  1  1
 14 15  1  0
 15 19  1  0
 15 16  2  0
 16 17  1  0
 18 17  1  0
 19 18  2  0
 20 21  2  0
 20 13  1  0
 22 23  1  0
 24 23  1  6
 24 25  1  0
 24 26  1  0
 25 20  1  0
 26 28  2  0
 26 27  1  0
M  END
$$$$
