FHS.pdb
     RDKit          3D

 28 29  0  0  1  0  0  0  0  0999 V2000
   24.2434  -17.7626  -19.2791 N   0  0  0  0  0  0  0  0  0  0  0  0
   24.0953  -17.8347  -17.8609 C   0  0  1  0  0  0  0  0  0  0  0  0
   24.3462  -16.4451  -17.2919 C   0  0  0  0  0  0  0  0  0  0  0  0
   25.6942  -15.9266  -17.6167 C   0  0  0  0  0  0  0  0  0  0  0  0
   25.8137  -14.6778  -18.1879 C   0  0  0  0  0  0  0  0  0  0  0  0
   27.0611  -14.1431  -18.5180 C   0  0  0  0  0  0  0  0  0  0  0  0
   28.1987  -14.8951  -18.2605 C   0  0  0  0  0  0  0  0  0  0  0  0
   28.1021  -16.1461  -17.6900 C   0  0  0  0  0  0  0  0  0  0  0  0
   26.8526  -16.6334  -17.3811 C   0  0  0  0  0  0  0  0  0  0  0  0
   22.7729  -18.3417  -17.4344 C   0  0  0  0  0  0  0  0  0  0  0  0
   21.7182  -17.9918  -18.0139 O   0  0  0  0  0  0  0  0  0  0  0  0
   22.6976  -19.2416  -16.3486 N   0  0  0  0  0  0  0  0  0  0  0  0
   21.5004  -19.9357  -15.9367 C   0  0  1  0  0  0  0  0  0  0  0  0
   21.7566  -21.4002  -15.8729 C   0  0  0  0  0  0  0  0  0  0  0  0
   21.8263  -22.0953  -17.1748 C   0  0  0  0  0  0  0  0  0  0  0  0
   21.5762  -21.6628  -18.4370 C   0  0  0  0  0  0  0  0  0  0  0  0
   21.7611  -22.6857  -19.3061 N   0  0  0  0  0  0  0  0  0  0  0  0
   22.1232  -23.7466  -18.5876 C   0  0  0  0  0  0  0  0  0  0  0  0
   22.1699  -23.4196  -17.3062 N   0  0  0  0  0  0  0  0  0  0  0  0
   21.0979  -19.5132  -14.5515 C   0  0  0  0  0  0  0  0  0  0  0  0
   21.9874  -19.3216  -13.6867 O   0  0  0  0  0  0  0  0  0  0  0  0
   18.0367  -17.5577  -14.2784 O   0  0  0  0  0  0  0  0  0  0  0  0
   18.4101  -17.6802  -12.9268 C   0  0  0  0  0  0  0  0  0  0  0  0
   19.3439  -18.8660  -12.8535 C   0  0  2  0  0  0  0  0  0  0  0  0
   19.7527  -19.3189  -14.1698 N   0  0  0  0  0  0  0  0  0  0  0  0
   18.7555  -19.9591  -12.0810 C   0  0  0  0  0  0  0  0  0  0  0  0
   18.4334  -19.8098  -10.7488 O   0  0  0  0  0  0  0  0  0  0  0  0
   18.5369  -21.0608  -12.6397 O   0  0  0  0  0  0  0  0  0  0  0  0
  2  1  1  6
  2  3  1  0
  3  4  1  0
  4  9  2  0
  5  6  2  0
  5  4  1  0
  6  7  1  0
  7  8  2  0
  9  8  1  0
 10  2  1  0
 10 12  1  0
 11 10  2  0
 13 12  1  0
 13 14  1  1
 14 15  1  0
 15 19  1  0
 15 16  2  0
 16 17  1  0
 18 17  1  0
 19 18  2  0
 20 21  2  0
 20 13  1  0
 22 23  1  0
 24 23  1  6
 24 25  1  0
 24 26  1  0
 25 20  1  0
 26 28  2  0
 26 27  1  0
M  END
$$$$
