FHS.pdb
     RDKit          3D

 28 29  0  0  1  0  0  0  0  0999 V2000
   20.5707  -10.9153  -16.2970 N   0  0  0  0  0  0  0  0  0  0  0  0
   20.5763   -9.7454  -15.4786 C   0  0  1  0  0  0  0  0  0  0  0  0
   22.0263   -9.3501  -15.2356 C   0  0  0  0  0  0  0  0  0  0  0  0
   22.1571   -8.0998  -14.4540 C   0  0  0  0  0  0  0  0  0  0  0  0
   21.9980   -8.1437  -13.0854 C   0  0  0  0  0  0  0  0  0  0  0  0
   22.1068   -6.9929  -12.3013 C   0  0  0  0  0  0  0  0  0  0  0  0
   22.3814   -5.7840  -12.9250 C   0  0  0  0  0  0  0  0  0  0  0  0
   22.5442   -5.7175  -14.2921 C   0  0  0  0  0  0  0  0  0  0  0  0
   22.4285   -6.8763  -15.0254 C   0  0  0  0  0  0  0  0  0  0  0  0
   19.8193   -8.6172  -16.0631 C   0  0  0  0  0  0  0  0  0  0  0  0
   19.9448   -8.2975  -17.2683 O   0  0  0  0  0  0  0  0  0  0  0  0
   18.9341   -7.8833  -15.2432 N   0  0  0  0  0  0  0  0  0  0  0  0
   18.1386   -6.7632  -15.6874 C   0  0  1  0  0  0  0  0  0  0  0  0
   16.8166   -6.7741  -15.0044 C   0  0  0  0  0  0  0  0  0  0  0  0
   15.8400   -5.7744  -15.4840 C   0  0  0  0  0  0  0  0  0  0  0  0
   15.9339   -4.8159  -16.4407 C   0  0  0  0  0  0  0  0  0  0  0  0
   14.7683   -4.1278  -16.5016 N   0  0  0  0  0  0  0  0  0  0  0  0
   13.9562   -4.6557  -15.5880 C   0  0  0  0  0  0  0  0  0  0  0  0
   14.5744   -5.6450  -14.9634 N   0  0  0  0  0  0  0  0  0  0  0  0
   18.8005   -5.4667  -15.3126 C   0  0  0  0  0  0  0  0  0  0  0  0
   19.2418   -5.3188  -14.1468 O   0  0  0  0  0  0  0  0  0  0  0  0
   21.3565   -1.6688  -16.4478 O   0  0  0  0  0  0  0  0  0  0  0  0
   20.7249   -2.8397  -16.9076 C   0  0  0  0  0  0  0  0  0  0  0  0
   19.6464   -3.1604  -15.8989 C   0  0  2  0  0  0  0  0  0  0  0  0
   18.9525   -4.3940  -16.2176 N   0  0  0  0  0  0  0  0  0  0  0  0
   18.7057   -2.0504  -15.7554 C   0  0  0  0  0  0  0  0  0  0  0  0
   18.8583   -1.0974  -14.7708 O   0  0  0  0  0  0  0  0  0  0  0  0
   17.7350   -1.9589  -16.5449 O   0  0  0  0  0  0  0  0  0  0  0  0
  2  1  1  6
  2  3  1  0
  3  4  1  0
  4  9  2  0
  5  6  2  0
  5  4  1  0
  6  7  1  0
  7  8  2  0
  9  8  1  0
 10  2  1  0
 10 12  1  0
 11 10  2  0
 13 12  1  0
 13 14  1  1
 14 15  1  0
 15 19  1  0
 15 16  2  0
 16 17  1  0
 18 17  1  0
 19 18  2  0
 20 21  2  0
 20 13  1  0
 22 23  1  0
 24 23  1  6
 24 25  1  0
 24 26  1  0
 25 20  1  0
 26 28  2  0
 26 27  1  0
M  END
$$$$
