FHS.pdb
     RDKit          3D

 28 29  0  0  1  0  0  0  0  0999 V2000
   24.6023  -20.8085   -8.5664 N   0  0  0  0  0  0  0  0  0  0  0  0
   25.5130  -20.4655   -9.6111 C   0  0  1  0  0  0  0  0  0  0  0  0
   26.8818  -21.0197   -9.2407 C   0  0  0  0  0  0  0  0  0  0  0  0
   27.4774  -20.3412   -8.0676 C   0  0  0  0  0  0  0  0  0  0  0  0
   28.4806  -20.9729   -7.3642 C   0  0  0  0  0  0  0  0  0  0  0  0
   29.0736  -20.3793   -6.2476 C   0  0  0  0  0  0  0  0  0  0  0  0
   28.6349  -19.1253   -5.8466 C   0  0  0  0  0  0  0  0  0  0  0  0
   27.6331  -18.4758   -6.5354 C   0  0  0  0  0  0  0  0  0  0  0  0
   27.0772  -19.0981   -7.6298 C   0  0  0  0  0  0  0  0  0  0  0  0
   25.0931  -20.9592  -10.9407 C   0  0  0  0  0  0  0  0  0  0  0  0
   24.4512  -22.0276  -11.0709 O   0  0  0  0  0  0  0  0  0  0  0  0
   25.4235  -20.2083  -12.0902 N   0  0  0  0  0  0  0  0  0  0  0  0
   25.0207  -20.5433  -13.4356 C   0  0  1  0  0  0  0  0  0  0  0  0
   25.1053  -19.3403  -14.3075 C   0  0  0  0  0  0  0  0  0  0  0  0
   23.8704  -18.5354  -14.4094 C   0  0  0  0  0  0  0  0  0  0  0  0
   22.6211  -18.7438  -13.9210 C   0  0  0  0  0  0  0  0  0  0  0  0
   21.8157  -17.7222  -14.3000 N   0  0  0  0  0  0  0  0  0  0  0  0
   22.5606  -16.8853  -15.0194 C   0  0  0  0  0  0  0  0  0  0  0  0
   23.7970  -17.3495  -15.1005 N   0  0  0  0  0  0  0  0  0  0  0  0
   25.9544  -21.5629  -14.0255 C   0  0  0  0  0  0  0  0  0  0  0  0
   27.1932  -21.4064  -13.8964 O   0  0  0  0  0  0  0  0  0  0  0  0
   24.4733  -24.8927  -15.9329 O   0  0  0  0  0  0  0  0  0  0  0  0
   25.6953  -25.0909  -15.2630 C   0  0  0  0  0  0  0  0  0  0  0  0
   26.3789  -23.7439  -15.2262 C   0  0  2  0  0  0  0  0  0  0  0  0
   25.5019  -22.7019  -14.7262 N   0  0  0  0  0  0  0  0  0  0  0  0
   26.9239  -23.3884  -16.5356 C   0  0  0  0  0  0  0  0  0  0  0  0
   26.4503  -22.3049  -17.2447 O   0  0  0  0  0  0  0  0  0  0  0  0
   27.8445  -24.0830  -17.0294 O   0  0  0  0  0  0  0  0  0  0  0  0
  2  1  1  1
  2  3  1  0
  3  4  1  0
  4  9  2  0
  5  6  2  0
  5  4  1  0
  6  7  1  0
  7  8  2  0
  9  8  1  0
 10  2  1  0
 10 12  1  0
 11 10  2  0
 13 12  1  0
 13 14  1  6
 14 15  1  0
 15 19  1  0
 15 16  2  0
 16 17  1  0
 18 17  1  0
 19 18  2  0
 20 21  2  0
 20 13  1  0
 22 23  1  0
 24 23  1  6
 24 25  1  0
 24 26  1  0
 25 20  1  0
 26 28  2  0
 26 27  1  0
M  END
$$$$
