FHS.pdb
     RDKit          3D

 28 29  0  0  1  0  0  0  0  0999 V2000
   16.5480  -14.1546    6.8326 N   0  0  0  0  0  0  0  0  0  0  0  0
   17.1591  -14.8822    5.7670 C   0  0  1  0  0  0  0  0  0  0  0  0
   18.6565  -14.9391    6.0365 C   0  0  0  0  0  0  0  0  0  0  0  0
   19.3087  -13.6141    5.9349 C   0  0  0  0  0  0  0  0  0  0  0  0
   19.0943  -12.8445    4.8114 C   0  0  0  0  0  0  0  0  0  0  0  0
   19.6886  -11.5893    4.6630 C   0  0  0  0  0  0  0  0  0  0  0  0
   20.5114  -11.1166    5.6757 C   0  0  0  0  0  0  0  0  0  0  0  0
   20.7394  -11.8696    6.8074 C   0  0  0  0  0  0  0  0  0  0  0  0
   20.1332  -13.1008    6.9114 C   0  0  0  0  0  0  0  0  0  0  0  0
   16.6082  -16.2441    5.5953 C   0  0  0  0  0  0  0  0  0  0  0  0
   16.1365  -16.8875    6.5617 O   0  0  0  0  0  0  0  0  0  0  0  0
   16.6141  -16.8327    4.3115 N   0  0  0  0  0  0  0  0  0  0  0  0
   16.2319  -18.1962    4.0299 C   0  0  1  0  0  0  0  0  0  0  0  0
   16.3916  -18.4809    2.5780 C   0  0  0  0  0  0  0  0  0  0  0  0
   15.8857  -19.7925    2.1233 C   0  0  0  0  0  0  0  0  0  0  0  0
   15.3113  -20.8172    2.8036 C   0  0  0  0  0  0  0  0  0  0  0  0
   15.0338  -21.8266    1.9434 N   0  0  0  0  0  0  0  0  0  0  0  0
   15.4341  -21.4309    0.7367 C   0  0  0  0  0  0  0  0  0  0  0  0
   15.9489  -20.2145    0.8167 N   0  0  0  0  0  0  0  0  0  0  0  0
   17.1348  -19.1556    4.7536 C   0  0  0  0  0  0  0  0  0  0  0  0
   18.1856  -18.7237    5.2874 O   0  0  0  0  0  0  0  0  0  0  0  0
   17.5830  -21.7562    8.2167 O   0  0  0  0  0  0  0  0  0  0  0  0
   17.0916  -20.8146    7.2931 C   0  0  0  0  0  0  0  0  0  0  0  0
   17.3759  -21.3818    5.9217 C   0  0  2  0  0  0  0  0  0  0  0  0
   16.8565  -20.5352    4.8641 N   0  0  0  0  0  0  0  0  0  0  0  0
   16.8711  -22.7482    5.7964 C   0  0  0  0  0  0  0  0  0  0  0  0
   17.6354  -23.7521    5.2406 O   0  0  0  0  0  0  0  0  0  0  0  0
   15.7155  -23.0182    6.2032 O   0  0  0  0  0  0  0  0  0  0  0  0
  2  1  1  1
  2  3  1  0
  3  4  1  0
  4  9  2  0
  5  6  2  0
  5  4  1  0
  6  7  1  0
  7  8  2  0
  9  8  1  0
 10  2  1  0
 10 12  1  0
 11 10  2  0
 13 12  1  0
 13 14  1  6
 14 15  1  0
 15 19  1  0
 15 16  2  0
 16 17  1  0
 18 17  1  0
 19 18  2  0
 20 21  2  0
 20 13  1  0
 22 23  1  0
 24 23  1  1
 24 25  1  0
 24 26  1  0
 25 20  1  0
 26 28  2  0
 26 27  1  0
M  END
$$$$
