FHS.pdb
     RDKit          3D

 28 29  0  0  1  0  0  0  0  0999 V2000
   28.0808  -19.1214  -17.0477 N   0  0  0  0  0  0  0  0  0  0  0  0
   27.4813  -18.5722  -15.8742 C   0  0  1  0  0  0  0  0  0  0  0  0
   26.5314  -17.4641  -16.3075 C   0  0  0  0  0  0  0  0  0  0  0  0
   27.2174  -16.1689  -16.5157 C   0  0  0  0  0  0  0  0  0  0  0  0
   27.4760  -15.3634  -15.4274 C   0  0  0  0  0  0  0  0  0  0  0  0
   28.1164  -14.1302  -15.5685 C   0  0  0  0  0  0  0  0  0  0  0  0
   28.4963  -13.7170  -16.8377 C   0  0  0  0  0  0  0  0  0  0  0  0
   28.2474  -14.5067  -17.9397 C   0  0  0  0  0  0  0  0  0  0  0  0
   27.6139  -15.7142  -17.7539 C   0  0  0  0  0  0  0  0  0  0  0  0
   26.7705  -19.5768  -15.0537 C   0  0  0  0  0  0  0  0  0  0  0  0
   26.2314  -20.5832  -15.5706 O   0  0  0  0  0  0  0  0  0  0  0  0
   26.6981  -19.3973  -13.6548 N   0  0  0  0  0  0  0  0  0  0  0  0
   25.9789  -20.2630  -12.7503 C   0  0  1  0  0  0  0  0  0  0  0  0
   26.2868  -19.8968  -11.3412 C   0  0  0  0  0  0  0  0  0  0  0  0
   25.5577  -20.6603  -10.3074 C   0  0  0  0  0  0  0  0  0  0  0  0
   24.5987  -21.6158  -10.4074 C   0  0  0  0  0  0  0  0  0  0  0  0
   24.2218  -22.0041   -9.1653 N   0  0  0  0  0  0  0  0  0  0  0  0
   24.9421  -21.2936   -8.2997 C   0  0  0  0  0  0  0  0  0  0  0  0
   25.7512  -20.4798   -8.9586 N   0  0  0  0  0  0  0  0  0  0  0  0
   24.4960  -20.0870  -12.9216 C   0  0  0  0  0  0  0  0  0  0  0  0
   24.0290  -18.9310  -13.0669 O   0  0  0  0  0  0  0  0  0  0  0  0
   22.4250  -21.5992  -15.3354 O   0  0  0  0  0  0  0  0  0  0  0  0
   21.6227  -21.8802  -14.2135 C   0  0  0  0  0  0  0  0  0  0  0  0
   22.1567  -21.0242  -13.0887 C   0  0  2  0  0  0  0  0  0  0  0  0
   23.5911  -21.1705  -12.9271 N   0  0  0  0  0  0  0  0  0  0  0  0
   21.4562  -21.2967  -11.8346 C   0  0  0  0  0  0  0  0  0  0  0  0
   20.0916  -21.1364  -11.7203 O   0  0  0  0  0  0  0  0  0  0  0  0
   22.1084  -21.6860  -10.8361 O   0  0  0  0  0  0  0  0  0  0  0  0
  2  1  1  6
  2  3  1  0
  3  4  1  0
  4  9  2  0
  5  6  2  0
  5  4  1  0
  6  7  1  0
  7  8  2  0
  9  8  1  0
 10  2  1  0
 10 12  1  0
 11 10  2  0
 13 12  1  0
 13 14  1  1
 14 15  1  0
 15 19  1  0
 15 16  2  0
 16 17  1  0
 18 17  1  0
 19 18  2  0
 20 21  2  0
 20 13  1  0
 22 23  1  0
 24 23  1  6
 24 25  1  0
 24 26  1  0
 25 20  1  0
 26 28  2  0
 26 27  1  0
M  END
$$$$
