FHS.pdb
     RDKit          3D

 28 29  0  0  1  0  0  0  0  0999 V2000
   15.7099   -8.1428   -8.3411 N   0  0  0  0  0  0  0  0  0  0  0  0
   15.7400   -7.2394   -9.4463 C   0  0  1  0  0  0  0  0  0  0  0  0
   15.2621   -5.8803   -8.9541 C   0  0  0  0  0  0  0  0  0  0  0  0
   13.8205   -5.8661   -8.6180 C   0  0  0  0  0  0  0  0  0  0  0  0
   13.4347   -5.5738   -7.3272 C   0  0  0  0  0  0  0  0  0  0  0  0
   12.0885   -5.5512   -6.9558 C   0  0  0  0  0  0  0  0  0  0  0  0
   11.1265   -5.8307   -7.9162 C   0  0  0  0  0  0  0  0  0  0  0  0
   11.4901   -6.1254   -9.2127 C   0  0  0  0  0  0  0  0  0  0  0  0
   12.8282   -6.1364   -9.5342 C   0  0  0  0  0  0  0  0  0  0  0  0
   17.0740   -7.1265  -10.0752 C   0  0  0  0  0  0  0  0  0  0  0  0
   18.1181   -7.0398   -9.3876 O   0  0  0  0  0  0  0  0  0  0  0  0
   17.1727   -7.1164  -11.4839 N   0  0  0  0  0  0  0  0  0  0  0  0
   18.4104   -7.0211  -12.2213 C   0  0  1  0  0  0  0  0  0  0  0  0
   18.7418   -8.3365  -12.8331 C   0  0  0  0  0  0  0  0  0  0  0  0
   19.9675   -8.3685  -13.6576 C   0  0  0  0  0  0  0  0  0  0  0  0
   20.8535   -7.3938  -13.9856 C   0  0  0  0  0  0  0  0  0  0  0  0
   21.8129   -7.9124  -14.7897 N   0  0  0  0  0  0  0  0  0  0  0  0
   21.5237   -9.2008  -14.9600 C   0  0  0  0  0  0  0  0  0  0  0  0
   20.4216   -9.5003  -14.2918 N   0  0  0  0  0  0  0  0  0  0  0  0
   18.2722   -6.0463  -13.3570 C   0  0  0  0  0  0  0  0  0  0  0  0
   17.2564   -6.1023  -14.0923 O   0  0  0  0  0  0  0  0  0  0  0  0
   18.9890   -2.1448  -13.6762 O   0  0  0  0  0  0  0  0  0  0  0  0
   19.8521   -2.8533  -14.5331 C   0  0  0  0  0  0  0  0  0  0  0  0
   19.1851   -4.1832  -14.7972 C   0  0  2  0  0  0  0  0  0  0  0  0
   19.2399   -5.0586  -13.6415 N   0  0  0  0  0  0  0  0  0  0  0  0
   19.7492   -4.8357  -15.9778 C   0  0  0  0  0  0  0  0  0  0  0  0
   19.4862   -4.3770  -17.2511 O   0  0  0  0  0  0  0  0  0  0  0  0
   20.4908   -5.8372  -15.8334 O   0  0  0  0  0  0  0  0  0  0  0  0
  2  1  1  1
  2  3  1  0
  3  4  1  0
  4  9  2  0
  5  6  2  0
  5  4  1  0
  6  7  1  0
  7  8  2  0
  9  8  1  0
 10  2  1  0
 10 12  1  0
 11 10  2  0
 13 12  1  0
 13 14  1  6
 14 15  1  0
 15 19  1  0
 15 16  2  0
 16 17  1  0
 18 17  1  0
 19 18  2  0
 20 21  2  0
 20 13  1  0
 22 23  1  0
 24 23  1  1
 24 25  1  0
 24 26  1  0
 25 20  1  0
 26 28  2  0
 26 27  1  0
M  END
$$$$
