FHS.pdb
     RDKit          3D

 28 29  0  0  1  0  0  0  0  0999 V2000
   26.2790  -21.8584   -8.3120 N   0  0  0  0  0  0  0  0  0  0  0  0
   26.1851  -20.5597   -8.8977 C   0  0  1  0  0  0  0  0  0  0  0  0
   27.5092  -19.8445   -8.6671 C   0  0  0  0  0  0  0  0  0  0  0  0
   27.8240  -19.6684   -7.2314 C   0  0  0  0  0  0  0  0  0  0  0  0
   28.5701  -20.6304   -6.5847 C   0  0  0  0  0  0  0  0  0  0  0  0
   28.8916  -20.5155   -5.2303 C   0  0  0  0  0  0  0  0  0  0  0  0
   28.4446  -19.4037   -4.5303 C   0  0  0  0  0  0  0  0  0  0  0  0
   27.6973  -18.4300   -5.1574 C   0  0  0  0  0  0  0  0  0  0  0  0
   27.4041  -18.5842   -6.4931 C   0  0  0  0  0  0  0  0  0  0  0  0
   25.8524  -20.5889  -10.3386 C   0  0  0  0  0  0  0  0  0  0  0  0
   26.7335  -20.7669  -11.2118 O   0  0  0  0  0  0  0  0  0  0  0  0
   24.5097  -20.4120  -10.7392 N   0  0  0  0  0  0  0  0  0  0  0  0
   24.0405  -20.4924  -12.1023 C   0  0  1  0  0  0  0  0  0  0  0  0
   23.3346  -21.7837  -12.3231 C   0  0  0  0  0  0  0  0  0  0  0  0
   24.0953  -22.8104  -13.0649 C   0  0  0  0  0  0  0  0  0  0  0  0
   25.2988  -22.7575  -13.6906 C   0  0  0  0  0  0  0  0  0  0  0  0
   25.5656  -23.9617  -14.2516 N   0  0  0  0  0  0  0  0  0  0  0  0
   24.5338  -24.7568  -13.9761 C   0  0  0  0  0  0  0  0  0  0  0  0
   23.6379  -24.0910  -13.2655 N   0  0  0  0  0  0  0  0  0  0  0  0
   23.0381  -19.4068  -12.3782 C   0  0  0  0  0  0  0  0  0  0  0  0
   22.2403  -19.0647  -11.4714 O   0  0  0  0  0  0  0  0  0  0  0  0
   20.9928  -16.3616  -15.5592 O   0  0  0  0  0  0  0  0  0  0  0  0
   22.0040  -17.3261  -15.3908 C   0  0  0  0  0  0  0  0  0  0  0  0
   21.9003  -17.7997  -13.9597 C   0  0  2  0  0  0  0  0  0  0  0  0
   22.9480  -18.7447  -13.6217 N   0  0  0  0  0  0  0  0  0  0  0  0
   20.5785  -18.3581  -13.6789 C   0  0  0  0  0  0  0  0  0  0  0  0
   20.2158  -19.6125  -14.1216 O   0  0  0  0  0  0  0  0  0  0  0  0
   19.7515  -17.6833  -13.0198 O   0  0  0  0  0  0  0  0  0  0  0  0
  2  1  1  6
  2  3  1  0
  3  4  1  0
  4  9  2  0
  5  6  2  0
  5  4  1  0
  6  7  1  0
  7  8  2  0
  9  8  1  0
 10  2  1  0
 10 12  1  0
 11 10  2  0
 13 12  1  0
 13 14  1  1
 14 15  1  0
 15 19  1  0
 15 16  2  0
 16 17  1  0
 18 17  1  0
 19 18  2  0
 20 21  2  0
 20 13  1  0
 22 23  1  0
 24 23  1  6
 24 25  1  0
 24 26  1  0
 25 20  1  0
 26 28  2  0
 26 27  1  0
M  END
$$$$
