FHS.pdb
     RDKit          3D

 28 29  0  0  1  0  0  0  0  0999 V2000
   14.8896  -22.9744    3.5531 N   0  0  0  0  0  0  0  0  0  0  0  0
   16.2954  -23.0824    3.7775 C   0  0  1  0  0  0  0  0  0  0  0  0
   16.7126  -21.9421    4.6959 C   0  0  0  0  0  0  0  0  0  0  0  0
   16.5237  -20.6098    4.0789 C   0  0  0  0  0  0  0  0  0  0  0  0
   17.3565  -20.2214    3.0514 C   0  0  0  0  0  0  0  0  0  0  0  0
   17.2243  -18.9739    2.4374 C   0  0  0  0  0  0  0  0  0  0  0  0
   16.2287  -18.1144    2.8801 C   0  0  0  0  0  0  0  0  0  0  0  0
   15.3850  -18.4826    3.9061 C   0  0  0  0  0  0  0  0  0  0  0  0
   15.5515  -19.7213    4.4821 C   0  0  0  0  0  0  0  0  0  0  0  0
   16.6998  -24.3858    4.3481 C   0  0  0  0  0  0  0  0  0  0  0  0
   15.9514  -25.0214    5.1268 O   0  0  0  0  0  0  0  0  0  0  0  0
   17.9590  -24.9263    4.0066 N   0  0  0  0  0  0  0  0  0  0  0  0
   18.4881  -26.1677    4.5201 C   0  0  1  0  0  0  0  0  0  0  0  0
   19.6151  -26.6332    3.6670 C   0  0  0  0  0  0  0  0  0  0  0  0
   20.2314  -27.9159    4.0643 C   0  0  0  0  0  0  0  0  0  0  0  0
   19.9980  -28.7334    5.1226 C   0  0  0  0  0  0  0  0  0  0  0  0
   20.8394  -29.7938    5.0639 N   0  0  0  0  0  0  0  0  0  0  0  0
   21.5907  -29.6350    3.9762 C   0  0  0  0  0  0  0  0  0  0  0  0
   21.2465  -28.5165    3.3586 N   0  0  0  0  0  0  0  0  0  0  0  0
   19.0523  -25.9684    5.8990 C   0  0  0  0  0  0  0  0  0  0  0  0
   19.6280  -24.8876    6.1750 O   0  0  0  0  0  0  0  0  0  0  0  0
   17.4589  -25.9561    9.1353 O   0  0  0  0  0  0  0  0  0  0  0  0
   18.3959  -26.9934    9.3003 C   0  0  0  0  0  0  0  0  0  0  0  0
   19.4674  -26.7625    8.2603 C   0  0  2  0  0  0  0  0  0  0  0  0
   18.9660  -26.9482    6.9116 N   0  0  0  0  0  0  0  0  0  0  0  0
   20.6374  -27.6042    8.5064 C   0  0  0  0  0  0  0  0  0  0  0  0
   21.3472  -27.5268    9.6859 O   0  0  0  0  0  0  0  0  0  0  0  0
   21.0078  -28.4176    7.6261 O   0  0  0  0  0  0  0  0  0  0  0  0
  2  1  1  1
  2  3  1  0
  3  4  1  0
  4  9  2  0
  5  6  2  0
  5  4  1  0
  6  7  1  0
  7  8  2  0
  9  8  1  0
 10  2  1  0
 10 12  1  0
 11 10  2  0
 13 12  1  0
 13 14  1  6
 14 15  1  0
 15 19  1  0
 15 16  2  0
 16 17  1  0
 18 17  1  0
 19 18  2  0
 20 21  2  0
 20 13  1  0
 22 23  1  0
 24 23  1  1
 24 25  1  0
 24 26  1  0
 25 20  1  0
 26 28  2  0
 26 27  1  0
M  END
$$$$
