FHS.pdb
     RDKit          3D

 28 29  0  0  1  0  0  0  0  0999 V2000
   25.6287  -19.2034  -18.2234 N   0  0  0  0  0  0  0  0  0  0  0  0
   24.2550  -18.9387  -18.5084 C   0  0  1  0  0  0  0  0  0  0  0  0
   23.8028  -19.9156  -19.5850 C   0  0  0  0  0  0  0  0  0  0  0  0
   22.4115  -19.6758  -20.0298 C   0  0  0  0  0  0  0  0  0  0  0  0
   22.1419  -18.5904  -20.8358 C   0  0  0  0  0  0  0  0  0  0  0  0
   20.8465  -18.3159  -21.2801 C   0  0  0  0  0  0  0  0  0  0  0  0
   19.8157  -19.1617  -20.8953 C   0  0  0  0  0  0  0  0  0  0  0  0
   20.0631  -20.2526  -20.0899 C   0  0  0  0  0  0  0  0  0  0  0  0
   21.3547  -20.4849  -19.6755 C   0  0  0  0  0  0  0  0  0  0  0  0
   23.3807  -19.0323  -17.3190 C   0  0  0  0  0  0  0  0  0  0  0  0
   23.4795  -19.9803  -16.5053 O   0  0  0  0  0  0  0  0  0  0  0  0
   22.4121  -18.0292  -17.0955 N   0  0  0  0  0  0  0  0  0  0  0  0
   21.4720  -18.0228  -15.9997 C   0  0  1  0  0  0  0  0  0  0  0  0
   21.3404  -16.6467  -15.4490 C   0  0  0  0  0  0  0  0  0  0  0  0
   20.3820  -16.4918  -14.3351 C   0  0  0  0  0  0  0  0  0  0  0  0
   20.2752  -17.1397  -13.1471 C   0  0  0  0  0  0  0  0  0  0  0  0
   19.2108  -16.6523  -12.4649 N   0  0  0  0  0  0  0  0  0  0  0  0
   18.6603  -15.7080  -13.2251 C   0  0  0  0  0  0  0  0  0  0  0  0
   19.3433  -15.5917  -14.3524 N   0  0  0  0  0  0  0  0  0  0  0  0
   20.1042  -18.4225  -16.4779 C   0  0  0  0  0  0  0  0  0  0  0  0
   19.7133  -18.0376  -17.6070 O   0  0  0  0  0  0  0  0  0  0  0  0
   18.2501  -21.8104  -15.4122 O   0  0  0  0  0  0  0  0  0  0  0  0
   17.8646  -21.0817  -16.5531 C   0  0  0  0  0  0  0  0  0  0  0  0
   17.9064  -19.6243  -16.1560 C   0  0  2  0  0  0  0  0  0  0  0  0
   19.2265  -19.2190  -15.7111 N   0  0  0  0  0  0  0  0  0  0  0  0
   16.8947  -19.3194  -15.1454 C   0  0  0  0  0  0  0  0  0  0  0  0
   15.5473  -19.4276  -15.4171 O   0  0  0  0  0  0  0  0  0  0  0  0
   17.2568  -18.9503  -14.0024 O   0  0  0  0  0  0  0  0  0  0  0  0
  2  1  1  1
  2  3  1  0
  3  4  1  0
  4  9  2  0
  5  6  2  0
  5  4  1  0
  6  7  1  0
  7  8  2  0
  9  8  1  0
 10  2  1  0
 10 12  1  0
 11 10  2  0
 13 12  1  0
 13 14  1  6
 14 15  1  0
 15 19  1  0
 15 16  2  0
 16 17  1  0
 18 17  1  0
 19 18  2  0
 20 21  2  0
 20 13  1  0
 22 23  1  0
 24 23  1  1
 24 25  1  0
 24 26  1  0
 25 20  1  0
 26 28  2  0
 26 27  1  0
M  END
$$$$
