FHS.pdb
     RDKit          3D

 28 29  0  0  1  0  0  0  0  0999 V2000
   27.6464  -18.5488   -8.5077 N   0  0  0  0  0  0  0  0  0  0  0  0
   27.0654  -19.8521   -8.5547 C   0  0  1  0  0  0  0  0  0  0  0  0
   26.5100  -20.1680   -7.1728 C   0  0  0  0  0  0  0  0  0  0  0  0
   27.5230  -20.0314   -6.1020 C   0  0  0  0  0  0  0  0  0  0  0  0
   28.3106  -21.1162   -5.7805 C   0  0  0  0  0  0  0  0  0  0  0  0
   29.2782  -21.0427   -4.7759 C   0  0  0  0  0  0  0  0  0  0  0  0
   29.4414  -19.8457   -4.0929 C   0  0  0  0  0  0  0  0  0  0  0  0
   28.6646  -18.7487   -4.3982 C   0  0  0  0  0  0  0  0  0  0  0  0
   27.7234  -18.8663   -5.3954 C   0  0  0  0  0  0  0  0  0  0  0  0
   26.0115  -19.9877   -9.5836 C   0  0  0  0  0  0  0  0  0  0  0  0
   25.1344  -19.1071   -9.7441 O   0  0  0  0  0  0  0  0  0  0  0  0
   25.9940  -21.1368  -10.4044 N   0  0  0  0  0  0  0  0  0  0  0  0
   25.4506  -21.1847  -11.7412 C   0  0  1  0  0  0  0  0  0  0  0  0
   25.8210  -22.4685  -12.3963 C   0  0  0  0  0  0  0  0  0  0  0  0
   25.3571  -22.6336  -13.7894 C   0  0  0  0  0  0  0  0  0  0  0  0
   24.5989  -21.8347  -14.5829 C   0  0  0  0  0  0  0  0  0  0  0  0
   24.4249  -22.4333  -15.7859 N   0  0  0  0  0  0  0  0  0  0  0  0
   25.0707  -23.5968  -15.7391 C   0  0  0  0  0  0  0  0  0  0  0  0
   25.6385  -23.7416  -14.5526 N   0  0  0  0  0  0  0  0  0  0  0  0
   23.9486  -21.1458  -11.7000 C   0  0  0  0  0  0  0  0  0  0  0  0
   23.3409  -21.8400  -10.8488 O   0  0  0  0  0  0  0  0  0  0  0  0
   19.7985  -19.2243  -13.3255 O   0  0  0  0  0  0  0  0  0  0  0  0
   21.1873  -19.2889  -13.5456 C   0  0  0  0  0  0  0  0  0  0  0  0
   21.7319  -20.2553  -12.5196 C   0  0  2  0  0  0  0  0  0  0  0  0
   23.1777  -20.3576  -12.5818 N   0  0  0  0  0  0  0  0  0  0  0  0
   21.1062  -21.5709  -12.6436 C   0  0  0  0  0  0  0  0  0  0  0  0
   20.0999  -21.9750  -11.7921 O   0  0  0  0  0  0  0  0  0  0  0  0
   21.4909  -22.3540  -13.5451 O   0  0  0  0  0  0  0  0  0  0  0  0
  2  1  1  1
  2  3  1  0
  3  4  1  0
  4  9  2  0
  5  6  2  0
  5  4  1  0
  6  7  1  0
  7  8  2  0
  9  8  1  0
 10  2  1  0
 10 12  1  0
 11 10  2  0
 13 12  1  0
 13 14  1  1
 14 15  1  0
 15 19  1  0
 15 16  2  0
 16 17  1  0
 18 17  1  0
 19 18  2  0
 20 21  2  0
 20 13  1  0
 22 23  1  0
 24 23  1  6
 24 25  1  0
 24 26  1  0
 25 20  1  0
 26 28  2  0
 26 27  1  0
M  END
$$$$
