FHS.pdb
     RDKit          3D

 28 29  0  0  1  0  0  0  0  0999 V2000
   17.9787   -8.9822  -16.2119 N   0  0  0  0  0  0  0  0  0  0  0  0
   18.7449   -7.8768  -16.6908 C   0  0  1  0  0  0  0  0  0  0  0  0
   17.7752   -6.7799  -17.1083 C   0  0  0  0  0  0  0  0  0  0  0  0
   16.9585   -7.1532  -18.2852 C   0  0  0  0  0  0  0  0  0  0  0  0
   17.5622   -7.2391  -19.5215 C   0  0  0  0  0  0  0  0  0  0  0  0
   16.8372   -7.5830  -20.6647 C   0  0  0  0  0  0  0  0  0  0  0  0
   15.4794   -7.8417  -20.5411 C   0  0  0  0  0  0  0  0  0  0  0  0
   14.8557   -7.7616  -19.3146 C   0  0  0  0  0  0  0  0  0  0  0  0
   15.6090   -7.4193  -18.2148 C   0  0  0  0  0  0  0  0  0  0  0  0
   19.7169   -7.3641  -15.7008 C   0  0  0  0  0  0  0  0  0  0  0  0
   19.5204   -7.4792  -14.4684 O   0  0  0  0  0  0  0  0  0  0  0  0
   20.8941   -6.7304  -16.1556 N   0  0  0  0  0  0  0  0  0  0  0  0
   21.8998   -6.1494  -15.2978 C   0  0  1  0  0  0  0  0  0  0  0  0
   23.1976   -6.8530  -15.4848 C   0  0  0  0  0  0  0  0  0  0  0  0
   23.1655   -8.3176  -15.2920 C   0  0  0  0  0  0  0  0  0  0  0  0
   22.1772   -9.1447  -14.8656 C   0  0  0  0  0  0  0  0  0  0  0  0
   22.6399  -10.4178  -14.8361 N   0  0  0  0  0  0  0  0  0  0  0  0
   23.9077  -10.3809  -15.2412 C   0  0  0  0  0  0  0  0  0  0  0  0
   24.2480   -9.1331  -15.5208 N   0  0  0  0  0  0  0  0  0  0  0  0
   22.1382   -4.7117  -15.6658 C   0  0  0  0  0  0  0  0  0  0  0  0
   21.9315   -4.3393  -16.8467 O   0  0  0  0  0  0  0  0  0  0  0  0
   23.5969   -0.7795  -16.5893 O   0  0  0  0  0  0  0  0  0  0  0  0
   23.3587   -2.1594  -16.4465 C   0  0  0  0  0  0  0  0  0  0  0  0
   22.7860   -2.3468  -15.0608 C   0  0  2  0  0  0  0  0  0  0  0  0
   22.5885   -3.7475  -14.7383 N   0  0  0  0  0  0  0  0  0  0  0  0
   21.5474   -1.5887  -14.8904 C   0  0  0  0  0  0  0  0  0  0  0  0
   21.5499   -0.3055  -14.3861 O   0  0  0  0  0  0  0  0  0  0  0  0
   20.4540   -2.1144  -15.2095 O   0  0  0  0  0  0  0  0  0  0  0  0
  2  1  1  1
  2  3  1  0
  3  4  1  0
  4  9  2  0
  5  6  2  0
  5  4  1  0
  6  7  1  0
  7  8  2  0
  9  8  1  0
 10  2  1  0
 10 12  1  0
 11 10  2  0
 13 12  1  0
 13 14  1  6
 14 15  1  0
 15 19  1  0
 15 16  2  0
 16 17  1  0
 18 17  1  0
 19 18  2  0
 20 21  2  0
 20 13  1  0
 22 23  1  0
 24 23  1  6
 24 25  1  0
 24 26  1  0
 25 20  1  0
 26 28  2  0
 26 27  1  0
M  END
$$$$
