WEW.pdb
     RDKit          3D

 38 41  0  0  1  0  0  0  0  0999 V2000
   12.5640  -16.5148    4.9331 N   0  0  0  0  0  0  0  0  0  0  0  0
   13.8962  -17.0735    4.9041 C   0  0  1  0  0  0  0  0  0  0  0  0
   14.6880  -16.3166    3.8605 C   0  0  0  0  0  0  0  0  0  0  0  0
   14.8785  -17.2490    2.7302 C   0  0  0  0  0  0  0  0  0  0  0  0
   13.9948  -17.5607    1.7312 C   0  0  0  0  0  0  0  0  0  0  0  0
   14.5931  -18.4650    0.9151 N   0  0  0  0  0  0  0  0  0  0  0  0
   15.8354  -18.7381    1.3674 C   0  0  0  0  0  0  0  0  0  0  0  0
   16.8798  -19.5541    0.9609 C   0  0  0  0  0  0  0  0  0  0  0  0
   18.0764  -19.6266    1.6500 C   0  0  0  0  0  0  0  0  0  0  0  0
   18.2634  -18.8681    2.7886 C   0  0  0  0  0  0  0  0  0  0  0  0
   17.2257  -18.0602    3.1887 C   0  0  0  0  0  0  0  0  0  0  0  0
   16.0181  -17.9815    2.5003 C   0  0  0  0  0  0  0  0  0  0  0  0
   14.4793  -16.9833    6.2645 C   0  0  0  0  0  0  0  0  0  0  0  0
   14.0418  -16.1381    7.1061 O   0  0  0  0  0  0  0  0  0  0  0  0
   15.5305  -17.8114    6.6942 N   0  0  0  0  0  0  0  0  0  0  0  0
   16.0575  -17.7680    8.0652 C   0  0  1  0  0  0  0  0  0  0  0  0
   16.2408  -19.1875    8.4835 C   0  0  0  0  0  0  0  0  0  0  0  0
   16.6851  -19.4783    9.8604 C   0  0  0  0  0  0  0  0  0  0  0  0
   17.8027  -20.4393    9.8646 C   0  0  0  0  0  0  0  0  0  0  0  0
   17.6089  -21.6178    9.4810 O   0  0  0  0  0  0  0  0  0  0  0  0
   17.2065  -16.9246    8.1793 C   0  0  0  0  0  0  0  0  0  0  0  0
   18.1428  -16.9120    7.2998 O   0  0  0  0  0  0  0  0  0  0  0  0
   19.0560  -20.0586   10.2841 O   0  0  0  0  0  0  0  0  0  0  0  0
   17.4668  -16.0129    9.2468 N   0  0  0  0  0  0  0  0  0  0  0  0
   18.5698  -15.1586    9.3361 C   0  0  1  0  0  0  0  0  0  0  0  0
   18.3899  -13.7015    9.3540 C   0  0  0  0  0  0  0  0  0  0  0  0
   18.0827  -13.0925    8.0399 C   0  0  0  0  0  0  0  0  0  0  0  0
   16.8744  -12.8972    7.4108 C   0  0  0  0  0  0  0  0  0  0  0  0
   17.0916  -12.2874    6.2056 N   0  0  0  0  0  0  0  0  0  0  0  0
   18.3991  -12.0844    6.0388 C   0  0  0  0  0  0  0  0  0  0  0  0
   19.0919  -11.5108    4.9964 C   0  0  0  0  0  0  0  0  0  0  0  0
   20.4806  -11.4043    5.0423 C   0  0  0  0  0  0  0  0  0  0  0  0
   21.1110  -11.8946    6.1653 C   0  0  0  0  0  0  0  0  0  0  0  0
   20.4103  -12.4686    7.2061 C   0  0  0  0  0  0  0  0  0  0  0  0
   19.0351  -12.5731    7.1585 C   0  0  0  0  0  0  0  0  0  0  0  0
   19.3703  -15.5316   10.5607 C   0  0  0  0  0  0  0  0  0  0  0  0
   20.6004  -14.9412   10.7821 O   0  0  0  0  0  0  0  0  0  0  0  0
   18.9733  -16.3597   11.3990 O   0  0  0  0  0  0  0  0  0  0  0  0
  2  1  1  1
  2 13  1  0
  2  3  1  0
  4  3  1  0
  5  4  2  0
  6  5  1  0
  7  6  1  0
  7 12  2  0
  8  7  1  0
  9  8  2  0
  9 10  1  0
 10 11  2  0
 11 12  1  0
 12  4  1  0
 13 14  2  0
 15 13  1  0
 15 16  1  0
 16 17  1  6
 18 19  1  0
 18 17  1  0
 19 20  2  0
 21 22  2  0
 21 16  1  0
 23 19  1  0
 24 21  1  0
 25 24  1  0
 26 27  1  0
 25 26  1  1
 27 28  2  0
 27 35  1  0
 28 29  1  0
 29 30  1  0
 30 31  2  0
 31 32  1  0
 33 32  2  0
 34 33  1  0
 35 34  2  0
 35 30  1  0
 36 37  1  0
 36 25  1  0
 38 36  2  0
M  END
$$$$
