WEW.pdb
     RDKit          3D

 38 41  0  0  1  0  0  0  0  0999 V2000
   25.8217  -19.0283  -11.6809 N   0  0  0  0  0  0  0  0  0  0  0  0
   26.2765  -20.3494  -12.0490 C   0  0  1  0  0  0  0  0  0  0  0  0
   25.7777  -21.3155  -10.9968 C   0  0  0  0  0  0  0  0  0  0  0  0
   26.3159  -20.8355   -9.7072 C   0  0  0  0  0  0  0  0  0  0  0  0
   25.6551  -20.1709   -8.7084 C   0  0  0  0  0  0  0  0  0  0  0  0
   26.5454  -19.9244   -7.7143 N   0  0  0  0  0  0  0  0  0  0  0  0
   27.7568  -20.4145   -8.0529 C   0  0  0  0  0  0  0  0  0  0  0  0
   29.0078  -20.4607   -7.4574 C   0  0  0  0  0  0  0  0  0  0  0  0
   30.0988  -21.0519   -8.0673 C   0  0  0  0  0  0  0  0  0  0  0  0
   29.9637  -21.6249   -9.3164 C   0  0  0  0  0  0  0  0  0  0  0  0
   28.7218  -21.5773   -9.9038 C   0  0  0  0  0  0  0  0  0  0  0  0
   27.6185  -20.9841   -9.2962 C   0  0  0  0  0  0  0  0  0  0  0  0
   25.7836  -20.6591  -13.4126 C   0  0  0  0  0  0  0  0  0  0  0  0
   24.6027  -20.3496  -13.7645 O   0  0  0  0  0  0  0  0  0  0  0  0
   26.5786  -21.3015  -14.3774 N   0  0  0  0  0  0  0  0  0  0  0  0
   26.1189  -21.5248  -15.7552 C   0  0  1  0  0  0  0  0  0  0  0  0
   27.3410  -21.4963  -16.6092 C   0  0  0  0  0  0  0  0  0  0  0  0
   27.1958  -21.6061  -18.0736 C   0  0  0  0  0  0  0  0  0  0  0  0
   28.1436  -22.5898  -18.6276 C   0  0  0  0  0  0  0  0  0  0  0  0
   29.3029  -22.6684  -18.1551 O   0  0  0  0  0  0  0  0  0  0  0  0
   25.2963  -22.6885  -15.8717 C   0  0  0  0  0  0  0  0  0  0  0  0
   25.7427  -23.8733  -15.6535 O   0  0  0  0  0  0  0  0  0  0  0  0
   27.7712  -23.4227  -19.6568 O   0  0  0  0  0  0  0  0  0  0  0  0
   23.9155  -22.6985  -16.2349 N   0  0  0  0  0  0  0  0  0  0  0  0
   22.8398  -22.7183  -15.3422 C   0  0  1  0  0  0  0  0  0  0  0  0
   23.0299  -22.3596  -13.9311 C   0  0  0  0  0  0  0  0  0  0  0  0
   21.8363  -22.5385  -13.0736 C   0  0  0  0  0  0  0  0  0  0  0  0
   21.0372  -23.6422  -12.8802 C   0  0  0  0  0  0  0  0  0  0  0  0
   20.0508  -23.3284  -11.9858 N   0  0  0  0  0  0  0  0  0  0  0  0
   20.1888  -22.0599  -11.5979 C   0  0  0  0  0  0  0  0  0  0  0  0
   19.4440  -21.3042  -10.7205 C   0  0  0  0  0  0  0  0  0  0  0  0
   19.7817  -19.9765  -10.4657 C   0  0  0  0  0  0  0  0  0  0  0  0
   20.8799  -19.4702  -11.1264 C   0  0  0  0  0  0  0  0  0  0  0  0
   21.6217  -20.2334  -12.0047 C   0  0  0  0  0  0  0  0  0  0  0  0
   21.2853  -21.5480  -12.2556 C   0  0  0  0  0  0  0  0  0  0  0  0
   21.7428  -21.8373  -15.8901 C   0  0  0  0  0  0  0  0  0  0  0  0
   20.4658  -22.3450  -16.0395 O   0  0  0  0  0  0  0  0  0  0  0  0
   21.9310  -20.6537  -16.2212 O   0  0  0  0  0  0  0  0  0  0  0  0
  2  1  1  1
  2 13  1  0
  2  3  1  0
  4  3  1  0
  5  4  2  0
  6  5  1  0
  7  6  1  0
  7 12  2  0
  8  7  1  0
  9  8  2  0
  9 10  1  0
 10 11  2  0
 11 12  1  0
 12  4  1  0
 13 14  2  0
 15 13  1  0
 15 16  1  0
 16 17  1  6
 18 19  1  0
 18 17  1  0
 19 20  2  0
 21 22  2  0
 21 16  1  0
 23 19  1  0
 24 21  1  0
 25 24  1  0
 26 27  1  0
 25 26  1  1
 27 28  2  0
 27 35  1  0
 28 29  1  0
 29 30  1  0
 30 31  2  0
 31 32  1  0
 33 32  2  0
 34 33  1  0
 35 34  2  0
 35 30  1  0
 36 37  1  0
 36 25  1  0
 38 36  2  0
M  END
$$$$
