WEW.pdb
     RDKit          3D

 38 41  0  0  1  0  0  0  0  0999 V2000
   28.6799  -16.4042  -18.1193 N   0  0  0  0  0  0  0  0  0  0  0  0
   28.8994  -17.6510  -17.4228 C   0  0  1  0  0  0  0  0  0  0  0  0
   30.3436  -17.6763  -16.9722 C   0  0  0  0  0  0  0  0  0  0  0  0
   31.1578  -17.7741  -18.2012 C   0  0  0  0  0  0  0  0  0  0  0  0
   32.2343  -17.0103  -18.5671 C   0  0  0  0  0  0  0  0  0  0  0  0
   32.6645  -17.4515  -19.7763 N   0  0  0  0  0  0  0  0  0  0  0  0
   31.8906  -18.4768  -20.1911 C   0  0  0  0  0  0  0  0  0  0  0  0
   31.8513  -19.2993  -21.3064 C   0  0  0  0  0  0  0  0  0  0  0  0
   30.9093  -20.3001  -21.4576 C   0  0  0  0  0  0  0  0  0  0  0  0
   29.9614  -20.5089  -20.4755 C   0  0  0  0  0  0  0  0  0  0  0  0
   30.0034  -19.6915  -19.3710 C   0  0  0  0  0  0  0  0  0  0  0  0
   30.9486  -18.6818  -19.2113 C   0  0  0  0  0  0  0  0  0  0  0  0
   27.9322  -17.7466  -16.3030 C   0  0  0  0  0  0  0  0  0  0  0  0
   27.9272  -16.8832  -15.3709 O   0  0  0  0  0  0  0  0  0  0  0  0
   26.9827  -18.7785  -16.2086 N   0  0  0  0  0  0  0  0  0  0  0  0
   26.0624  -18.9004  -15.0694 C   0  0  1  0  0  0  0  0  0  0  0  0
   24.6997  -18.6201  -15.6062 C   0  0  0  0  0  0  0  0  0  0  0  0
   23.5468  -18.6437  -14.6853 C   0  0  0  0  0  0  0  0  0  0  0  0
   22.9195  -19.9772  -14.6561 C   0  0  0  0  0  0  0  0  0  0  0  0
   22.3190  -20.4027  -15.6719 O   0  0  0  0  0  0  0  0  0  0  0  0
   26.2220  -20.1383  -14.3719 C   0  0  0  0  0  0  0  0  0  0  0  0
   26.3364  -21.2635  -14.9813 O   0  0  0  0  0  0  0  0  0  0  0  0
   22.9851  -20.7607  -13.5276 O   0  0  0  0  0  0  0  0  0  0  0  0
   26.2732  -20.2937  -12.9536 N   0  0  0  0  0  0  0  0  0  0  0  0
   26.4686  -21.4996  -12.2739 C   0  0  1  0  0  0  0  0  0  0  0  0
   27.3654  -21.5695  -11.1135 C   0  0  0  0  0  0  0  0  0  0  0  0
   26.9055  -20.8218   -9.9211 C   0  0  0  0  0  0  0  0  0  0  0  0
   25.6694  -20.2952   -9.6236 C   0  0  0  0  0  0  0  0  0  0  0  0
   25.7241  -19.6924   -8.3968 N   0  0  0  0  0  0  0  0  0  0  0  0
   26.9542  -19.8136   -7.8958 C   0  0  0  0  0  0  0  0  0  0  0  0
   27.4848  -19.3727   -6.7043 C   0  0  0  0  0  0  0  0  0  0  0  0
   28.8196  -19.6195   -6.3889 C   0  0  0  0  0  0  0  0  0  0  0  0
   29.5654  -20.3150   -7.3156 C   0  0  0  0  0  0  0  0  0  0  0  0
   29.0270  -20.7536   -8.5080 C   0  0  0  0  0  0  0  0  0  0  0  0
   27.7050  -20.5080   -8.8184 C   0  0  0  0  0  0  0  0  0  0  0  0
   25.1237  -22.0316  -11.8402 C   0  0  0  0  0  0  0  0  0  0  0  0
   25.0059  -23.3466  -11.4308 O   0  0  0  0  0  0  0  0  0  0  0  0
   24.0941  -21.3346  -11.8314 O   0  0  0  0  0  0  0  0  0  0  0  0
  2  1  1  1
  2 13  1  0
  2  3  1  0
  4  3  1  0
  5  4  2  0
  6  5  1  0
  7  6  1  0
  7 12  2  0
  8  7  1  0
  9  8  2  0
  9 10  1  0
 10 11  2  0
 11 12  1  0
 12  4  1  0
 13 14  2  0
 15 13  1  0
 15 16  1  0
 16 17  1  6
 18 19  1  0
 18 17  1  0
 19 20  2  0
 21 22  2  0
 21 16  1  0
 23 19  1  0
 24 21  1  0
 25 24  1  0
 26 27  1  0
 25 26  1  1
 27 28  2  0
 27 35  1  0
 28 29  1  0
 29 30  1  0
 30 31  2  0
 31 32  1  0
 33 32  2  0
 34 33  1  0
 35 34  2  0
 35 30  1  0
 36 37  1  0
 36 25  1  0
 38 36  2  0
M  END
$$$$
