WEW.pdb
     RDKit          3D

 38 41  0  0  1  0  0  0  0  0999 V2000
   23.4392  -19.2487  -15.6238 N   0  0  0  0  0  0  0  0  0  0  0  0
   23.5341  -20.3803  -14.7304 C   0  0  1  0  0  0  0  0  0  0  0  0
   24.4173  -19.9757  -13.5704 C   0  0  0  0  0  0  0  0  0  0  0  0
   25.7600  -19.7349  -14.1382 C   0  0  0  0  0  0  0  0  0  0  0  0
   26.4038  -18.5386  -14.3126 C   0  0  0  0  0  0  0  0  0  0  0  0
   27.6130  -18.7958  -14.8724 N   0  0  0  0  0  0  0  0  0  0  0  0
   27.7574  -20.1249  -15.0595 C   0  0  0  0  0  0  0  0  0  0  0  0
   28.7455  -20.9508  -15.5726 C   0  0  0  0  0  0  0  0  0  0  0  0
   28.6049  -22.3249  -15.6366 C   0  0  0  0  0  0  0  0  0  0  0  0
   27.4467  -22.9215  -15.1790 C   0  0  0  0  0  0  0  0  0  0  0  0
   26.4692  -22.0994  -14.6709 C   0  0  0  0  0  0  0  0  0  0  0  0
   26.6032  -20.7153  -14.6028 C   0  0  0  0  0  0  0  0  0  0  0  0
   22.1661  -20.7763  -14.3177 C   0  0  0  0  0  0  0  0  0  0  0  0
   21.3651  -19.9268  -13.8168 O   0  0  0  0  0  0  0  0  0  0  0  0
   21.6846  -22.0898  -14.4534 N   0  0  0  0  0  0  0  0  0  0  0  0
   20.3240  -22.4753  -14.0538 C   0  0  1  0  0  0  0  0  0  0  0  0
   19.8097  -23.3612  -15.1374 C   0  0  0  0  0  0  0  0  0  0  0  0
   18.4824  -23.9875  -14.9828 C   0  0  0  0  0  0  0  0  0  0  0  0
   18.5416  -25.4320  -15.2700 C   0  0  0  0  0  0  0  0  0  0  0  0
   19.4677  -25.8849  -15.9848 O   0  0  0  0  0  0  0  0  0  0  0  0
   20.2778  -23.0097  -12.7284 C   0  0  0  0  0  0  0  0  0  0  0  0
   21.1345  -23.8658  -12.2997 O   0  0  0  0  0  0  0  0  0  0  0  0
   17.5931  -26.2894  -14.7631 O   0  0  0  0  0  0  0  0  0  0  0  0
   19.3090  -22.6816  -11.7322 N   0  0  0  0  0  0  0  0  0  0  0  0
   19.2212  -23.2586  -10.4619 C   0  0  1  0  0  0  0  0  0  0  0  0
   18.8556  -22.4476   -9.2938 C   0  0  0  0  0  0  0  0  0  0  0  0
   18.4945  -23.2203   -8.0835 C   0  0  0  0  0  0  0  0  0  0  0  0
   19.2839  -23.9564   -7.2298 C   0  0  0  0  0  0  0  0  0  0  0  0
   18.4994  -24.4895   -6.2439 N   0  0  0  0  0  0  0  0  0  0  0  0
   17.2321  -24.1210   -6.4354 C   0  0  0  0  0  0  0  0  0  0  0  0
   16.0957  -24.4076   -5.7129 C   0  0  0  0  0  0  0  0  0  0  0  0
   14.8584  -23.9035   -6.1091 C   0  0  0  0  0  0  0  0  0  0  0  0
   14.8338  -23.1181   -7.2411 C   0  0  0  0  0  0  0  0  0  0  0  0
   15.9768  -22.8353   -7.9606 C   0  0  0  0  0  0  0  0  0  0  0  0
   17.2010  -23.3355   -7.5665 C   0  0  0  0  0  0  0  0  0  0  0  0
   18.2594  -24.4207  -10.5259 C   0  0  0  0  0  0  0  0  0  0  0  0
   18.5910  -25.6196   -9.9230 O   0  0  0  0  0  0  0  0  0  0  0  0
   17.1609  -24.3553  -11.1047 O   0  0  0  0  0  0  0  0  0  0  0  0
  2  1  1  6
  2 13  1  0
  2  3  1  0
  4  3  1  0
  5  4  2  0
  6  5  1  0
  7  6  1  0
  7 12  2  0
  8  7  1  0
  9  8  2  0
  9 10  1  0
 10 11  2  0
 11 12  1  0
 12  4  1  0
 13 14  2  0
 15 13  1  0
 15 16  1  0
 16 17  1  6
 18 19  1  0
 18 17  1  0
 19 20  2  0
 21 22  2  0
 21 16  1  0
 23 19  1  0
 24 21  1  0
 25 24  1  0
 26 27  1  0
 25 26  1  1
 27 28  2  0
 27 35  1  0
 28 29  1  0
 29 30  1  0
 30 31  2  0
 31 32  1  0
 33 32  2  0
 34 33  1  0
 35 34  2  0
 35 30  1  0
 36 37  1  0
 36 25  1  0
 38 36  2  0
M  END
$$$$
