WEW.pdb
     RDKit          3D

 38 41  0  0  1  0  0  0  0  0999 V2000
   26.0547  -18.8119  -19.0307 N   0  0  0  0  0  0  0  0  0  0  0  0
   26.1258  -18.6916  -17.5926 C   0  0  1  0  0  0  0  0  0  0  0  0
   25.8965  -17.2376  -17.2425 C   0  0  0  0  0  0  0  0  0  0  0  0
   27.0609  -16.4972  -17.7708 C   0  0  0  0  0  0  0  0  0  0  0  0
   27.0668  -15.4205  -18.6174 C   0  0  0  0  0  0  0  0  0  0  0  0
   28.3601  -15.0726  -18.8373 N   0  0  0  0  0  0  0  0  0  0  0  0
   29.1791  -15.8992  -18.1530 C   0  0  0  0  0  0  0  0  0  0  0  0
   30.5504  -16.0260  -17.9946 C   0  0  0  0  0  0  0  0  0  0  0  0
   31.1184  -17.0047  -17.2000 C   0  0  0  0  0  0  0  0  0  0  0  0
   30.3114  -17.9017  -16.5283 C   0  0  0  0  0  0  0  0  0  0  0  0
   28.9521  -17.7729  -16.6877 C   0  0  0  0  0  0  0  0  0  0  0  0
   28.3727  -16.7902  -17.4858 C   0  0  0  0  0  0  0  0  0  0  0  0
   25.1270  -19.6063  -16.9890 C   0  0  0  0  0  0  0  0  0  0  0  0
   23.9648  -19.7233  -17.4888 O   0  0  0  0  0  0  0  0  0  0  0  0
   25.4021  -20.3825  -15.8500 N   0  0  0  0  0  0  0  0  0  0  0  0
   24.4195  -21.3104  -15.2730 C   0  0  1  0  0  0  0  0  0  0  0  0
   25.2078  -22.3908  -14.6136 C   0  0  0  0  0  0  0  0  0  0  0  0
   26.0307  -23.2891  -15.4465 C   0  0  0  0  0  0  0  0  0  0  0  0
   27.4065  -22.7767  -15.5784 C   0  0  0  0  0  0  0  0  0  0  0  0
   27.7098  -21.6741  -15.0629 O   0  0  0  0  0  0  0  0  0  0  0  0
   23.4578  -20.6423  -14.4524 C   0  0  0  0  0  0  0  0  0  0  0  0
   23.7848  -19.7258  -13.6136 O   0  0  0  0  0  0  0  0  0  0  0  0
   28.3617  -23.4938  -16.2602 O   0  0  0  0  0  0  0  0  0  0  0  0
   22.0518  -20.8907  -14.4480 N   0  0  0  0  0  0  0  0  0  0  0  0
   21.0992  -20.1611  -13.7306 C   0  0  1  0  0  0  0  0  0  0  0  0
   20.7179  -18.8074  -14.1524 C   0  0  0  0  0  0  0  0  0  0  0  0
   20.2907  -18.6891  -15.5651 C   0  0  0  0  0  0  0  0  0  0  0  0
   19.2545  -19.2985  -16.2350 C   0  0  0  0  0  0  0  0  0  0  0  0
   19.2505  -18.8717  -17.5347 N   0  0  0  0  0  0  0  0  0  0  0  0
   20.2496  -18.0086  -17.7229 C   0  0  0  0  0  0  0  0  0  0  0  0
   20.6415  -17.3221  -18.8501 C   0  0  0  0  0  0  0  0  0  0  0  0
   21.7348  -16.4589  -18.8096 C   0  0  0  0  0  0  0  0  0  0  0  0
   22.3899  -16.3319  -17.6040 C   0  0  0  0  0  0  0  0  0  0  0  0
   21.9917  -17.0233  -16.4782 C   0  0  0  0  0  0  0  0  0  0  0  0
   20.9088  -17.8776  -16.5206 C   0  0  0  0  0  0  0  0  0  0  0  0
   19.8342  -20.9803  -13.6383 C   0  0  0  0  0  0  0  0  0  0  0  0
   18.8197  -20.5822  -12.7879 O   0  0  0  0  0  0  0  0  0  0  0  0
   19.6524  -22.0165  -14.3010 O   0  0  0  0  0  0  0  0  0  0  0  0
  2  1  1  6
  2 13  1  0
  2  3  1  0
  4  3  1  0
  5  4  2  0
  6  5  1  0
  7  6  1  0
  7 12  2  0
  8  7  1  0
  9  8  2  0
  9 10  1  0
 10 11  2  0
 11 12  1  0
 12  4  1  0
 13 14  2  0
 15 13  1  0
 15 16  1  0
 16 17  1  1
 18 19  1  0
 18 17  1  0
 19 20  2  0
 21 22  2  0
 21 16  1  0
 23 19  1  0
 24 21  1  0
 25 24  1  0
 26 27  1  0
 25 26  1  6
 27 28  2  0
 27 35  1  0
 28 29  1  0
 29 30  1  0
 30 31  2  0
 31 32  1  0
 33 32  2  0
 34 33  1  0
 35 34  2  0
 35 30  1  0
 36 37  1  0
 36 25  1  0
 38 36  2  0
M  END
$$$$
