WEW.pdb
     RDKit          3D

 38 41  0  0  1  0  0  0  0  0999 V2000
   21.8669  -20.1832  -16.2393 N   0  0  0  0  0  0  0  0  0  0  0  0
   23.1734  -19.7834  -15.7696 C   0  0  1  0  0  0  0  0  0  0  0  0
   23.7229  -18.7706  -16.7502 C   0  0  0  0  0  0  0  0  0  0  0  0
   23.8630  -19.4783  -18.0396 C   0  0  0  0  0  0  0  0  0  0  0  0
   23.0382  -19.4205  -19.1316 C   0  0  0  0  0  0  0  0  0  0  0  0
   23.5538  -20.2373  -20.0849 N   0  0  0  0  0  0  0  0  0  0  0  0
   24.6860  -20.8145  -19.6295 C   0  0  0  0  0  0  0  0  0  0  0  0
   25.6156  -21.7081  -20.1386 C   0  0  0  0  0  0  0  0  0  0  0  0
   26.7136  -22.1309  -19.4125 C   0  0  0  0  0  0  0  0  0  0  0  0
   26.9147  -21.6605  -18.1299 C   0  0  0  0  0  0  0  0  0  0  0  0
   25.9910  -20.7745  -17.6284 C   0  0  0  0  0  0  0  0  0  0  0  0
   24.8831  -20.3439  -18.3532 C   0  0  0  0  0  0  0  0  0  0  0  0
   23.0416  -19.2550  -14.3904 C   0  0  0  0  0  0  0  0  0  0  0  0
   22.2679  -18.2796  -14.1376 O   0  0  0  0  0  0  0  0  0  0  0  0
   23.7518  -19.7918  -13.3028 N   0  0  0  0  0  0  0  0  0  0  0  0
   23.3267  -19.5948  -11.9100 C   0  0  1  0  0  0  0  0  0  0  0  0
   21.9476  -20.1540  -11.8150 C   0  0  0  0  0  0  0  0  0  0  0  0
   21.2510  -20.1287  -10.5142 C   0  0  0  0  0  0  0  0  0  0  0  0
   19.9439  -20.8046  -10.6001 C   0  0  0  0  0  0  0  0  0  0  0  0
   19.5589  -21.2733  -11.6981 O   0  0  0  0  0  0  0  0  0  0  0  0
   24.2791  -20.1055  -10.9737 C   0  0  0  0  0  0  0  0  0  0  0  0
   24.1953  -19.8794   -9.7119 O   0  0  0  0  0  0  0  0  0  0  0  0
   19.1414  -20.9273   -9.4899 O   0  0  0  0  0  0  0  0  0  0  0  0
   25.4158  -20.9070  -11.2964 N   0  0  0  0  0  0  0  0  0  0  0  0
   26.7101  -20.4294  -11.5221 C   0  0  1  0  0  0  0  0  0  0  0  0
   27.6819  -20.3496  -10.4243 C   0  0  0  0  0  0  0  0  0  0  0  0
   27.1068  -20.4939   -9.0676 C   0  0  0  0  0  0  0  0  0  0  0  0
   25.9102  -21.0395   -8.6621 C   0  0  0  0  0  0  0  0  0  0  0  0
   25.8182  -20.9523   -7.3000 N   0  0  0  0  0  0  0  0  0  0  0  0
   26.9155  -20.3687   -6.8163 C   0  0  0  0  0  0  0  0  0  0  0  0
   27.2745  -20.0669   -5.5218 C   0  0  0  0  0  0  0  0  0  0  0  0
   28.4918  -19.4452   -5.2508 C   0  0  0  0  0  0  0  0  0  0  0  0
   29.3014  -19.1543   -6.3273 C   0  0  0  0  0  0  0  0  0  0  0  0
   28.9351  -19.4593   -7.6222 C   0  0  0  0  0  0  0  0  0  0  0  0
   27.7290  -20.0749   -7.8882 C   0  0  0  0  0  0  0  0  0  0  0  0
   27.3391  -21.2454  -12.6259 C   0  0  0  0  0  0  0  0  0  0  0  0
   28.6128  -20.9373  -13.0661 O   0  0  0  0  0  0  0  0  0  0  0  0
   26.7599  -22.2005  -13.1719 O   0  0  0  0  0  0  0  0  0  0  0  0
  2  1  1  6
  2 13  1  0
  2  3  1  0
  4  3  1  0
  5  4  2  0
  6  5  1  0
  7  6  1  0
  7 12  2  0
  8  7  1  0
  9  8  2  0
  9 10  1  0
 10 11  2  0
 11 12  1  0
 12  4  1  0
 13 14  2  0
 15 13  1  0
 15 16  1  0
 16 17  1  6
 18 19  1  0
 18 17  1  0
 19 20  2  0
 21 22  2  0
 21 16  1  0
 23 19  1  0
 24 21  1  0
 25 24  1  0
 26 27  1  0
 25 26  1  1
 27 28  2  0
 27 35  1  0
 28 29  1  0
 29 30  1  0
 30 31  2  0
 31 32  1  0
 33 32  2  0
 34 33  1  0
 35 34  2  0
 35 30  1  0
 36 37  1  0
 36 25  1  0
 38 36  2  0
M  END
$$$$
