WEW.pdb
     RDKit          3D

 38 41  0  0  1  0  0  0  0  0999 V2000
   23.1617  -20.0405  -17.9851 N   0  0  0  0  0  0  0  0  0  0  0  0
   24.0318  -19.1822  -17.2144 C   0  0  1  0  0  0  0  0  0  0  0  0
   23.1583  -18.3180  -16.3315 C   0  0  0  0  0  0  0  0  0  0  0  0
   22.3715  -17.4604  -17.2417 C   0  0  0  0  0  0  0  0  0  0  0  0
   21.0665  -17.6101  -17.6296 C   0  0  0  0  0  0  0  0  0  0  0  0
   20.7657  -16.5928  -18.4760 N   0  0  0  0  0  0  0  0  0  0  0  0
   21.8448  -15.7980  -18.6380 C   0  0  0  0  0  0  0  0  0  0  0  0
   22.1277  -14.6471  -19.3571 C   0  0  0  0  0  0  0  0  0  0  0  0
   23.3681  -14.0372  -19.3238 C   0  0  0  0  0  0  0  0  0  0  0  0
   24.3801  -14.5745  -18.5531 C   0  0  0  0  0  0  0  0  0  0  0  0
   24.0961  -15.7157  -17.8413 C   0  0  0  0  0  0  0  0  0  0  0  0
   22.8498  -16.3357  -17.8695 C   0  0  0  0  0  0  0  0  0  0  0  0
   24.9822  -20.0286  -16.4535 C   0  0  0  0  0  0  0  0  0  0  0  0
   24.5762  -21.0425  -15.8046 O   0  0  0  0  0  0  0  0  0  0  0  0
   26.3617  -19.7634  -16.4061 N   0  0  0  0  0  0  0  0  0  0  0  0
   27.2858  -20.5445  -15.5723 C   0  0  1  0  0  0  0  0  0  0  0  0
   28.5416  -20.6833  -16.3643 C   0  0  0  0  0  0  0  0  0  0  0  0
   28.5587  -21.5887  -17.5295 C   0  0  0  0  0  0  0  0  0  0  0  0
   28.4753  -22.9982  -17.1064 C   0  0  0  0  0  0  0  0  0  0  0  0
   27.6376  -23.7595  -17.6470 O   0  0  0  0  0  0  0  0  0  0  0  0
   27.4270  -19.9975  -14.2587 C   0  0  0  0  0  0  0  0  0  0  0  0
   27.6757  -18.7541  -14.0526 O   0  0  0  0  0  0  0  0  0  0  0  0
   29.3055  -23.4884  -16.1257 O   0  0  0  0  0  0  0  0  0  0  0  0
   27.3174  -20.7281  -13.0369 N   0  0  0  0  0  0  0  0  0  0  0  0
   27.4073  -20.1832  -11.7526 C   0  0  1  0  0  0  0  0  0  0  0  0
   26.3582  -19.2925  -11.2410 C   0  0  0  0  0  0  0  0  0  0  0  0
   25.0473  -19.9395  -11.0062 C   0  0  0  0  0  0  0  0  0  0  0  0
   24.5529  -20.5664   -9.8852 C   0  0  0  0  0  0  0  0  0  0  0  0
   23.2836  -21.0067  -10.1428 N   0  0  0  0  0  0  0  0  0  0  0  0
   22.9455  -20.6842  -11.3919 C   0  0  0  0  0  0  0  0  0  0  0  0
   21.7839  -20.9138  -12.0945 C   0  0  0  0  0  0  0  0  0  0  0  0
   21.6547  -20.4775  -13.4116 C   0  0  0  0  0  0  0  0  0  0  0  0
   22.7311  -19.8168  -13.9626 C   0  0  0  0  0  0  0  0  0  0  0  0
   23.8924  -19.5904  -13.2526 C   0  0  0  0  0  0  0  0  0  0  0  0
   24.0183  -20.0234  -11.9484 C   0  0  0  0  0  0  0  0  0  0  0  0
   27.5680  -21.3106  -10.7612 C   0  0  0  0  0  0  0  0  0  0  0  0
   27.9190  -21.0295   -9.4540 O   0  0  0  0  0  0  0  0  0  0  0  0
   27.3978  -22.5043  -11.0644 O   0  0  0  0  0  0  0  0  0  0  0  0
  2  1  1  1
  2 13  1  0
  2  3  1  0
  4  3  1  0
  5  4  2  0
  6  5  1  0
  7  6  1  0
  7 12  2  0
  8  7  1  0
  9  8  2  0
  9 10  1  0
 10 11  2  0
 11 12  1  0
 12  4  1  0
 13 14  2  0
 15 13  1  0
 15 16  1  0
 16 17  1  6
 18 19  1  0
 18 17  1  0
 19 20  2  0
 21 22  2  0
 21 16  1  0
 23 19  1  0
 24 21  1  0
 25 24  1  0
 26 27  1  0
 25 26  1  1
 27 28  2  0
 27 35  1  0
 28 29  1  0
 29 30  1  0
 30 31  2  0
 31 32  1  0
 33 32  2  0
 34 33  1  0
 35 34  2  0
 35 30  1  0
 36 37  1  0
 36 25  1  0
 38 36  2  0
M  END
$$$$
