WEW.pdb
     RDKit          3D

 38 41  0  0  1  0  0  0  0  0999 V2000
   26.8286  -22.8563  -11.6013 N   0  0  0  0  0  0  0  0  0  0  0  0
   26.1059  -21.6201  -11.4083 C   0  0  1  0  0  0  0  0  0  0  0  0
   27.1027  -20.4861  -11.5074 C   0  0  0  0  0  0  0  0  0  0  0  0
   28.0391  -20.6598  -10.3777 C   0  0  0  0  0  0  0  0  0  0  0  0
   29.2987  -21.1976  -10.3967 C   0  0  0  0  0  0  0  0  0  0  0  0
   29.7855  -21.1591   -9.1304 N   0  0  0  0  0  0  0  0  0  0  0  0
   28.8694  -20.6107   -8.3044 C   0  0  0  0  0  0  0  0  0  0  0  0
   28.8054  -20.3202   -6.9504 C   0  0  0  0  0  0  0  0  0  0  0  0
   27.6956  -19.7359   -6.3683 C   0  0  0  0  0  0  0  0  0  0  0  0
   26.5967  -19.4201   -7.1427 C   0  0  0  0  0  0  0  0  0  0  0  0
   26.6638  -19.7095   -8.4849 C   0  0  0  0  0  0  0  0  0  0  0  0
   27.7775  -20.2975   -9.0784 C   0  0  0  0  0  0  0  0  0  0  0  0
   25.0224  -21.5404  -12.4174 C   0  0  0  0  0  0  0  0  0  0  0  0
   25.2269  -21.8888  -13.6219 O   0  0  0  0  0  0  0  0  0  0  0  0
   23.7303  -21.0829  -12.1065 N   0  0  0  0  0  0  0  0  0  0  0  0
   22.6141  -21.1682  -13.0585 C   0  0  1  0  0  0  0  0  0  0  0  0
   21.3994  -21.4666  -12.2467 C   0  0  0  0  0  0  0  0  0  0  0  0
   20.0880  -21.5438  -12.9192 C   0  0  0  0  0  0  0  0  0  0  0  0
   19.0182  -21.8674  -11.9582 C   0  0  0  0  0  0  0  0  0  0  0  0
   19.3104  -22.1063  -10.7619 O   0  0  0  0  0  0  0  0  0  0  0  0
   22.5369  -20.0217  -13.9094 C   0  0  0  0  0  0  0  0  0  0  0  0
   22.3763  -18.8323  -13.4511 O   0  0  0  0  0  0  0  0  0  0  0  0
   17.7030  -21.9102  -12.3582 O   0  0  0  0  0  0  0  0  0  0  0  0
   22.6222  -20.0358  -15.3346 N   0  0  0  0  0  0  0  0  0  0  0  0
   22.4598  -18.9269  -16.1702 C   0  0  1  0  0  0  0  0  0  0  0  0
   22.9055  -18.9701  -17.5685 C   0  0  0  0  0  0  0  0  0  0  0  0
   22.7536  -17.6995  -18.3134 C   0  0  0  0  0  0  0  0  0  0  0  0
   23.5542  -16.5804  -18.3357 C   0  0  0  0  0  0  0  0  0  0  0  0
   23.0060  -15.6558  -19.1819 N   0  0  0  0  0  0  0  0  0  0  0  0
   21.8797  -16.1429  -19.7040 C   0  0  0  0  0  0  0  0  0  0  0  0
   20.9901  -15.5863  -20.5953 C   0  0  0  0  0  0  0  0  0  0  0  0
   19.8622  -16.2941  -21.0060 C   0  0  0  0  0  0  0  0  0  0  0  0
   19.6883  -17.5568  -20.4822 C   0  0  0  0  0  0  0  0  0  0  0  0
   20.5839  -18.1083  -19.5890 C   0  0  0  0  0  0  0  0  0  0  0  0
   21.7001  -17.4054  -19.1835 C   0  0  0  0  0  0  0  0  0  0  0  0
   21.0020  -18.5337  -16.1710 C   0  0  0  0  0  0  0  0  0  0  0  0
   20.6515  -17.1992  -16.0864 O   0  0  0  0  0  0  0  0  0  0  0  0
   20.0799  -19.3644  -16.2453 O   0  0  0  0  0  0  0  0  0  0  0  0
  2  1  1  6
  2 13  1  0
  2  3  1  0
  4  3  1  0
  5  4  2  0
  6  5  1  0
  7  6  1  0
  7 12  2  0
  8  7  1  0
  9  8  2  0
  9 10  1  0
 10 11  2  0
 11 12  1  0
 12  4  1  0
 13 14  2  0
 15 13  1  0
 15 16  1  0
 16 17  1  1
 18 19  1  0
 18 17  1  0
 19 20  2  0
 21 22  2  0
 21 16  1  0
 23 19  1  0
 24 21  1  0
 25 24  1  0
 26 27  1  0
 25 26  1  6
 27 28  2  0
 27 35  1  0
 28 29  1  0
 29 30  1  0
 30 31  2  0
 31 32  1  0
 33 32  2  0
 34 33  1  0
 35 34  2  0
 35 30  1  0
 36 37  1  0
 36 25  1  0
 38 36  2  0
M  END
$$$$
