WEW.pdb
     RDKit          3D

 38 41  0  0  1  0  0  0  0  0999 V2000
   24.7893  -18.8303  -18.1473 N   0  0  0  0  0  0  0  0  0  0  0  0
   25.1672  -19.5272  -16.9393 C   0  0  1  0  0  0  0  0  0  0  0  0
   25.2490  -18.5048  -15.8269 C   0  0  0  0  0  0  0  0  0  0  0  0
   26.3666  -17.6036  -16.1758 C   0  0  0  0  0  0  0  0  0  0  0  0
   26.3225  -16.2582  -16.4287 C   0  0  0  0  0  0  0  0  0  0  0  0
   27.5848  -15.8473  -16.7107 N   0  0  0  0  0  0  0  0  0  0  0  0
   28.4329  -16.8954  -16.6441 C   0  0  0  0  0  0  0  0  0  0  0  0
   29.7949  -17.0800  -16.8256 C   0  0  0  0  0  0  0  0  0  0  0  0
   30.4020  -18.3141  -16.6836 C   0  0  0  0  0  0  0  0  0  0  0  0
   29.6459  -19.4200  -16.3488 C   0  0  0  0  0  0  0  0  0  0  0  0
   28.2958  -19.2333  -16.1696 C   0  0  0  0  0  0  0  0  0  0  0  0
   27.6771  -17.9940  -16.3106 C   0  0  0  0  0  0  0  0  0  0  0  0
   24.1774  -20.6003  -16.6801 C   0  0  0  0  0  0  0  0  0  0  0  0
   22.9304  -20.3652  -16.7415 O   0  0  0  0  0  0  0  0  0  0  0  0
   24.5536  -21.9154  -16.3569 N   0  0  0  0  0  0  0  0  0  0  0  0
   23.5706  -22.9600  -16.0372 C   0  0  1  0  0  0  0  0  0  0  0  0
   24.2513  -24.2616  -16.2940 C   0  0  0  0  0  0  0  0  0  0  0  0
   24.9662  -24.9280  -15.1883 C   0  0  0  0  0  0  0  0  0  0  0  0
   25.6165  -26.1680  -15.6490 C   0  0  0  0  0  0  0  0  0  0  0  0
   26.8265  -26.1481  -15.9793 O   0  0  0  0  0  0  0  0  0  0  0  0
   23.0033  -22.7921  -14.7355 C   0  0  0  0  0  0  0  0  0  0  0  0
   23.6787  -22.3361  -13.7424 O   0  0  0  0  0  0  0  0  0  0  0  0
   24.9118  -27.3469  -15.7208 O   0  0  0  0  0  0  0  0  0  0  0  0
   21.6576  -23.0973  -14.3687 N   0  0  0  0  0  0  0  0  0  0  0  0
   21.0747  -22.8372  -13.1249 C   0  0  1  0  0  0  0  0  0  0  0  0
   20.9788  -21.4640  -12.6143 C   0  0  0  0  0  0  0  0  0  0  0  0
   20.3894  -20.4856  -13.5565 C   0  0  0  0  0  0  0  0  0  0  0  0
   19.1241  -20.4190  -14.0936 C   0  0  0  0  0  0  0  0  0  0  0  0
   19.0441  -19.3277  -14.9145 N   0  0  0  0  0  0  0  0  0  0  0  0
   20.2157  -18.6906  -14.9235 C   0  0  0  0  0  0  0  0  0  0  0  0
   20.6142  -17.5552  -15.5924 C   0  0  0  0  0  0  0  0  0  0  0  0
   21.9106  -17.0652  -15.4466 C   0  0  0  0  0  0  0  0  0  0  0  0
   22.7560  -17.7648  -14.6131 C   0  0  0  0  0  0  0  0  0  0  0  0
   22.3499  -18.9023  -13.9460 C   0  0  0  0  0  0  0  0  0  0  0  0
   21.0656  -19.3858  -14.0919 C   0  0  0  0  0  0  0  0  0  0  0  0
   19.6834  -23.4236  -13.1128 C   0  0  0  0  0  0  0  0  0  0  0  0
   18.9832  -23.5035  -11.9236 O   0  0  0  0  0  0  0  0  0  0  0  0
   19.1218  -23.8477  -14.1378 O   0  0  0  0  0  0  0  0  0  0  0  0
  2  1  1  6
  2 13  1  0
  2  3  1  0
  4  3  1  0
  5  4  2  0
  6  5  1  0
  7  6  1  0
  7 12  2  0
  8  7  1  0
  9  8  2  0
  9 10  1  0
 10 11  2  0
 11 12  1  0
 12  4  1  0
 13 14  2  0
 15 13  1  0
 15 16  1  0
 16 17  1  1
 18 19  1  0
 18 17  1  0
 19 20  2  0
 21 22  2  0
 21 16  1  0
 23 19  1  0
 24 21  1  0
 25 24  1  0
 26 27  1  0
 25 26  1  6
 27 28  2  0
 27 35  1  0
 28 29  1  0
 29 30  1  0
 30 31  2  0
 31 32  1  0
 33 32  2  0
 34 33  1  0
 35 34  2  0
 35 30  1  0
 36 37  1  0
 36 25  1  0
 38 36  2  0
M  END
$$$$
