WEW.pdb
     RDKit          3D

 38 41  0  0  1  0  0  0  0  0999 V2000
   27.1237  -22.2490   -9.4049 N   0  0  0  0  0  0  0  0  0  0  0  0
   26.1069  -21.2515   -9.6471 C   0  0  1  0  0  0  0  0  0  0  0  0
   26.5191  -19.9907   -8.9193 C   0  0  0  0  0  0  0  0  0  0  0  0
   26.4802  -20.3144   -7.4782 C   0  0  0  0  0  0  0  0  0  0  0  0
   25.5172  -21.0043   -6.7908 C   0  0  0  0  0  0  0  0  0  0  0  0
   25.8946  -21.0572   -5.4883 N   0  0  0  0  0  0  0  0  0  0  0  0
   27.0732  -20.4192   -5.3270 C   0  0  0  0  0  0  0  0  0  0  0  0
   27.9198  -20.1579   -4.2607 C   0  0  0  0  0  0  0  0  0  0  0  0
   29.1019  -19.4558   -4.4064 C   0  0  0  0  0  0  0  0  0  0  0  0
   29.4763  -18.9864   -5.6499 C   0  0  0  0  0  0  0  0  0  0  0  0
   28.6346  -19.2474   -6.7049 C   0  0  0  0  0  0  0  0  0  0  0  0
   27.4428  -19.9537   -6.5664 C   0  0  0  0  0  0  0  0  0  0  0  0
   25.9630  -21.0650  -11.1111 C   0  0  0  0  0  0  0  0  0  0  0  0
   26.9180  -20.5959  -11.8051 O   0  0  0  0  0  0  0  0  0  0  0  0
   24.7837  -21.3898  -11.8034 N   0  0  0  0  0  0  0  0  0  0  0  0
   24.5927  -21.0734  -13.2257 C   0  0  1  0  0  0  0  0  0  0  0  0
   24.2202  -22.3560  -13.8888 C   0  0  0  0  0  0  0  0  0  0  0  0
   25.2888  -23.2808  -14.3138 C   0  0  0  0  0  0  0  0  0  0  0  0
   26.1609  -22.6545  -15.3237 C   0  0  0  0  0  0  0  0  0  0  0  0
   25.6498  -22.0968  -16.3244 O   0  0  0  0  0  0  0  0  0  0  0  0
   23.6944  -19.9785  -13.4228 C   0  0  0  0  0  0  0  0  0  0  0  0
   22.9479  -19.5210  -12.4826 O   0  0  0  0  0  0  0  0  0  0  0  0
   27.5287  -22.6744  -15.1815 O   0  0  0  0  0  0  0  0  0  0  0  0
   23.5056  -19.2669  -14.6462 N   0  0  0  0  0  0  0  0  0  0  0  0
   23.0646  -17.9451  -14.7586 C   0  0  1  0  0  0  0  0  0  0  0  0
   24.0208  -16.8311  -14.7341 C   0  0  0  0  0  0  0  0  0  0  0  0
   25.2313  -17.0269  -15.5639 C   0  0  0  0  0  0  0  0  0  0  0  0
   25.4696  -16.7024  -16.8799 C   0  0  0  0  0  0  0  0  0  0  0  0
   26.7445  -17.0744  -17.2080 N   0  0  0  0  0  0  0  0  0  0  0  0
   27.3337  -17.6275  -16.1471 C   0  0  0  0  0  0  0  0  0  0  0  0
   28.5990  -18.1480  -15.9936 C   0  0  0  0  0  0  0  0  0  0  0  0
   29.0018  -18.6823  -14.7713 C   0  0  0  0  0  0  0  0  0  0  0  0
   28.0833  -18.6623  -13.7442 C   0  0  0  0  0  0  0  0  0  0  0  0
   26.8167  -18.1392  -13.9052 C   0  0  0  0  0  0  0  0  0  0  0  0
   26.4198  -17.6107  -15.1167 C   0  0  0  0  0  0  0  0  0  0  0  0
   22.2493  -17.8150  -16.0227 C   0  0  0  0  0  0  0  0  0  0  0  0
   22.2975  -18.8150  -16.9758 O   0  0  0  0  0  0  0  0  0  0  0  0
   21.5209  -16.8350  -16.2571 O   0  0  0  0  0  0  0  0  0  0  0  0
  2  1  1  6
  2 13  1  0
  2  3  1  0
  4  3  1  0
  5  4  2  0
  6  5  1  0
  7  6  1  0
  7 12  2  0
  8  7  1  0
  9  8  2  0
  9 10  1  0
 10 11  2  0
 11 12  1  0
 12  4  1  0
 13 14  2  0
 15 13  1  0
 15 16  1  0
 16 17  1  6
 18 19  1  0
 18 17  1  0
 19 20  2  0
 21 22  2  0
 21 16  1  0
 23 19  1  0
 24 21  1  0
 25 24  1  0
 26 27  1  0
 25 26  1  6
 27 28  2  0
 27 35  1  0
 28 29  1  0
 29 30  1  0
 30 31  2  0
 31 32  1  0
 33 32  2  0
 34 33  1  0
 35 34  2  0
 35 30  1  0
 36 37  1  0
 36 25  1  0
 38 36  2  0
M  END
$$$$
