WEW.pdb
     RDKit          3D

 38 41  0  0  1  0  0  0  0  0999 V2000
   24.7468  -20.4696  -14.4826 N   0  0  0  0  0  0  0  0  0  0  0  0
   24.4616  -20.9965  -13.1678 C   0  0  1  0  0  0  0  0  0  0  0  0
   25.0772  -20.0570  -12.1541 C   0  0  0  0  0  0  0  0  0  0  0  0
   26.5336  -20.0790  -12.4019 C   0  0  0  0  0  0  0  0  0  0  0  0
   27.2280  -19.4860  -13.4229 C   0  0  0  0  0  0  0  0  0  0  0  0
   28.5431  -19.7750  -13.2530 N   0  0  0  0  0  0  0  0  0  0  0  0
   28.7056  -20.5366  -12.1503 C   0  0  0  0  0  0  0  0  0  0  0  0
   29.7824  -21.1164  -11.4975 C   0  0  0  0  0  0  0  0  0  0  0  0
   29.6352  -21.8682  -10.3465 C   0  0  0  0  0  0  0  0  0  0  0  0
   28.3794  -22.0639   -9.8066 C   0  0  0  0  0  0  0  0  0  0  0  0
   27.3140  -21.4875  -10.4566 C   0  0  0  0  0  0  0  0  0  0  0  0
   27.4540  -20.7291  -11.6157 C   0  0  0  0  0  0  0  0  0  0  0  0
   22.9931  -21.1395  -13.0212 C   0  0  0  0  0  0  0  0  0  0  0  0
   22.2434  -20.1168  -12.9438 O   0  0  0  0  0  0  0  0  0  0  0  0
   22.3566  -22.3912  -12.9599 N   0  0  0  0  0  0  0  0  0  0  0  0
   20.8990  -22.5283  -12.8331 C   0  0  1  0  0  0  0  0  0  0  0  0
   20.4186  -23.0656  -14.1385 C   0  0  0  0  0  0  0  0  0  0  0  0
   19.4153  -22.3005  -14.9039 C   0  0  0  0  0  0  0  0  0  0  0  0
   19.9919  -21.0511  -15.4323 C   0  0  0  0  0  0  0  0  0  0  0  0
   21.1032  -21.0781  -16.0136 O   0  0  0  0  0  0  0  0  0  0  0  0
   20.5220  -23.2697  -11.6700 C   0  0  0  0  0  0  0  0  0  0  0  0
   21.0666  -24.3914  -11.3606 O   0  0  0  0  0  0  0  0  0  0  0  0
   19.3254  -19.8559  -15.2956 O   0  0  0  0  0  0  0  0  0  0  0  0
   19.5240  -22.8839  -10.7246 N   0  0  0  0  0  0  0  0  0  0  0  0
   19.1913  -23.5847   -9.5616 C   0  0  1  0  0  0  0  0  0  0  0  0
   18.2844  -22.9985   -8.5667 C   0  0  0  0  0  0  0  0  0  0  0  0
   16.8431  -23.1310   -8.8785 C   0  0  0  0  0  0  0  0  0  0  0  0
   15.8597  -23.8581   -8.2475 C   0  0  0  0  0  0  0  0  0  0  0  0
   14.6725  -23.6629   -8.8985 N   0  0  0  0  0  0  0  0  0  0  0  0
   14.8598  -22.8349   -9.9271 C   0  0  0  0  0  0  0  0  0  0  0  0
   13.9723  -22.3500  -10.8613 C   0  0  0  0  0  0  0  0  0  0  0  0
   14.4021  -21.4815  -11.8628 C   0  0  0  0  0  0  0  0  0  0  0  0
   15.7373  -21.1408  -11.8679 C   0  0  0  0  0  0  0  0  0  0  0  0
   16.6212  -21.6309  -10.9285 C   0  0  0  0  0  0  0  0  0  0  0  0
   16.1935  -22.4909   -9.9377 C   0  0  0  0  0  0  0  0  0  0  0  0
   18.6260  -24.9287   -9.9540 C   0  0  0  0  0  0  0  0  0  0  0  0
   18.4337  -25.8999   -8.9893 O   0  0  0  0  0  0  0  0  0  0  0  0
   18.3176  -25.2145  -11.1240 O   0  0  0  0  0  0  0  0  0  0  0  0
  2  1  1  6
  2 13  1  0
  2  3  1  0
  4  3  1  0
  5  4  2  0
  6  5  1  0
  7  6  1  0
  7 12  2  0
  8  7  1  0
  9  8  2  0
  9 10  1  0
 10 11  2  0
 11 12  1  0
 12  4  1  0
 13 14  2  0
 15 13  1  0
 15 16  1  0
 16 17  1  6
 18 19  1  0
 18 17  1  0
 19 20  2  0
 21 22  2  0
 21 16  1  0
 23 19  1  0
 24 21  1  0
 25 24  1  0
 26 27  1  0
 25 26  1  6
 27 28  2  0
 27 35  1  0
 28 29  1  0
 29 30  1  0
 30 31  2  0
 31 32  1  0
 33 32  2  0
 34 33  1  0
 35 34  2  0
 35 30  1  0
 36 37  1  0
 36 25  1  0
 38 36  2  0
M  END
$$$$
