WEW.pdb
     RDKit          3D

 38 41  0  0  1  0  0  0  0  0999 V2000
   27.6423  -22.3016  -13.9628 N   0  0  0  0  0  0  0  0  0  0  0  0
   26.4960  -21.5908  -13.4446 C   0  0  1  0  0  0  0  0  0  0  0  0
   26.9951  -20.3003  -12.8324 C   0  0  0  0  0  0  0  0  0  0  0  0
   27.8255  -20.6874  -11.6733 C   0  0  0  0  0  0  0  0  0  0  0  0
   29.0730  -21.2530  -11.6762 C   0  0  0  0  0  0  0  0  0  0  0  0
   29.4470  -21.4398  -10.3850 N   0  0  0  0  0  0  0  0  0  0  0  0
   28.4707  -21.0080   -9.5587 C   0  0  0  0  0  0  0  0  0  0  0  0
   28.2924  -20.9440   -8.1854 C   0  0  0  0  0  0  0  0  0  0  0  0
   27.1453  -20.4305   -7.6090 C   0  0  0  0  0  0  0  0  0  0  0  0
   26.1242  -19.9572   -8.4090 C   0  0  0  0  0  0  0  0  0  0  0  0
   26.3044  -20.0221   -9.7703 C   0  0  0  0  0  0  0  0  0  0  0  0
   27.4564  -20.5375  -10.3582 C   0  0  0  0  0  0  0  0  0  0  0  0
   25.5274  -21.3823  -14.5478 C   0  0  0  0  0  0  0  0  0  0  0  0
   25.9144  -20.9698  -15.6854 O   0  0  0  0  0  0  0  0  0  0  0  0
   24.1504  -21.6237  -14.4022 N   0  0  0  0  0  0  0  0  0  0  0  0
   23.2455  -21.7428  -15.5539 C   0  0  1  0  0  0  0  0  0  0  0  0
   23.8239  -22.8043  -16.4270 C   0  0  0  0  0  0  0  0  0  0  0  0
   25.2687  -22.7787  -16.7265 C   0  0  0  0  0  0  0  0  0  0  0  0
   25.5313  -22.1075  -18.0123 C   0  0  0  0  0  0  0  0  0  0  0  0
   24.5693  -21.7584  -18.7376 O   0  0  0  0  0  0  0  0  0  0  0  0
   21.8837  -21.9257  -15.1582 C   0  0  0  0  0  0  0  0  0  0  0  0
   20.9233  -22.0046  -16.0079 O   0  0  0  0  0  0  0  0  0  0  0  0
   26.8193  -21.8594  -18.4259 O   0  0  0  0  0  0  0  0  0  0  0  0
   21.4159  -22.0404  -13.8142 N   0  0  0  0  0  0  0  0  0  0  0  0
   20.1005  -21.8298  -13.3900 C   0  0  1  0  0  0  0  0  0  0  0  0
   19.8227  -21.1685  -12.1088 C   0  0  0  0  0  0  0  0  0  0  0  0
   21.0115  -20.9204  -11.2618 C   0  0  0  0  0  0  0  0  0  0  0  0
   22.1327  -20.1598  -11.5033 C   0  0  0  0  0  0  0  0  0  0  0  0
   22.9624  -20.2298  -10.4179 N   0  0  0  0  0  0  0  0  0  0  0  0
   22.4123  -21.0103   -9.4868 C   0  0  0  0  0  0  0  0  0  0  0  0
   22.8672  -21.3760   -8.2398 C   0  0  0  0  0  0  0  0  0  0  0  0
   22.1084  -22.2162   -7.4273 C   0  0  0  0  0  0  0  0  0  0  0  0
   20.9016  -22.6530   -7.9292 C   0  0  0  0  0  0  0  0  0  0  0  0
   20.4521  -22.2826   -9.1800 C   0  0  0  0  0  0  0  0  0  0  0  0
   21.2052  -21.4506   -9.9831 C   0  0  0  0  0  0  0  0  0  0  0  0
   19.3646  -21.0650  -14.4639 C   0  0  0  0  0  0  0  0  0  0  0  0
   17.9884  -20.9495  -14.4028 O   0  0  0  0  0  0  0  0  0  0  0  0
   19.9430  -20.5217  -15.4210 O   0  0  0  0  0  0  0  0  0  0  0  0
  2  1  1  6
  2 13  1  0
  2  3  1  0
  4  3  1  0
  5  4  2  0
  6  5  1  0
  7  6  1  0
  7 12  2  0
  8  7  1  0
  9  8  2  0
  9 10  1  0
 10 11  2  0
 11 12  1  0
 12  4  1  0
 13 14  2  0
 15 13  1  0
 15 16  1  0
 16 17  1  6
 18 19  1  0
 18 17  1  0
 19 20  2  0
 21 22  2  0
 21 16  1  0
 23 19  1  0
 24 21  1  0
 25 24  1  0
 26 27  1  0
 25 26  1  1
 27 28  2  0
 27 35  1  0
 28 29  1  0
 29 30  1  0
 30 31  2  0
 31 32  1  0
 33 32  2  0
 34 33  1  0
 35 34  2  0
 35 30  1  0
 36 37  1  0
 36 25  1  0
 38 36  2  0
M  END
$$$$
