EWL.pdb
     RDKit          3D

 32 33  0  0  1  0  0  0  0  0999 V2000
   27.6169  -21.6515  -16.9145 N   0  0  0  0  0  0  0  0  0  0  0  0
   27.6587  -20.5241  -16.0092 C   0  0  1  0  0  0  0  0  0  0  0  0
   27.0816  -19.3313  -16.6768 C   0  0  0  0  0  0  0  0  0  0  0  0
   25.8228  -19.5844  -17.4439 C   0  0  0  0  0  0  0  0  0  0  0  0
   24.5951  -19.0681  -16.8612 C   0  0  0  0  0  0  0  0  0  0  0  0
   24.4728  -17.8744  -16.5083 O   0  0  0  0  0  0  0  0  0  0  0  0
   26.8760  -20.8994  -14.7767 C   0  0  0  0  0  0  0  0  0  0  0  0
   26.0322  -21.8346  -14.8255 O   0  0  0  0  0  0  0  0  0  0  0  0
   23.4637  -19.8837  -16.6576 O   0  0  0  0  0  0  0  0  0  0  0  0
   27.0640  -20.2288  -13.5509 N   0  0  0  0  0  0  0  0  0  0  0  0
   26.4639  -20.5341  -12.3108 C   0  0  1  0  0  0  0  0  0  0  0  0
   27.1390  -20.1331  -11.0647 C   0  0  0  0  0  0  0  0  0  0  0  0
   26.4667  -20.5420   -9.8111 C   0  0  0  0  0  0  0  0  0  0  0  0
   25.6086  -21.6190   -9.6228 C   0  0  0  0  0  0  0  0  0  0  0  0
   25.2305  -21.6631   -8.3320 N   0  0  0  0  0  0  0  0  0  0  0  0
   25.8123  -20.6514   -7.6724 C   0  0  0  0  0  0  0  0  0  0  0  0
   25.7473  -20.2565   -6.3502 C   0  0  0  0  0  0  0  0  0  0  0  0
   26.4742  -19.1356   -5.9596 C   0  0  0  0  0  0  0  0  0  0  0  0
   27.2406  -18.4320   -6.8599 C   0  0  0  0  0  0  0  0  0  0  0  0
   27.2826  -18.8491   -8.1575 C   0  0  0  0  0  0  0  0  0  0  0  0
   26.5732  -19.9578   -8.5749 C   0  0  0  0  0  0  0  0  0  0  0  0
   24.9852  -20.2097  -12.2561 C   0  0  0  0  0  0  0  0  0  0  0  0
   24.5610  -19.0318  -12.4972 O   0  0  0  0  0  0  0  0  0  0  0  0
   20.2210  -21.3244  -14.1804 C   0  0  0  0  0  0  0  0  0  0  0  0
   20.5336  -22.2246  -12.9460 C   0  0  1  0  0  0  0  0  0  0  0  0
   20.1251  -23.6217  -13.4343 C   0  0  0  0  0  0  0  0  0  0  0  0
   21.9734  -22.1441  -12.6377 C   0  0  0  0  0  0  0  0  0  0  0  0
   22.5387  -20.8743  -12.1261 C   0  0  2  0  0  0  0  0  0  0  0  0
   24.0028  -21.1567  -11.9460 N   0  0  0  0  0  0  0  0  0  0  0  0
   22.0487  -20.2869  -10.9031 C   0  0  0  0  0  0  0  0  0  0  0  0
   22.5009  -20.6909   -9.7741 O   0  0  0  0  0  0  0  0  0  0  0  0
   21.1098  -19.2896  -10.8456 O   0  0  0  0  0  0  0  0  0  0  0  0
  2  3  1  0
  2  1  1  6
  3  4  1  0
  4  5  1  0
  5  9  1  0
  6  5  2  0
  7  2  1  0
  8  7  2  0
 10  7  1  0
 11 10  1  0
 12 13  1  0
 11 12  1  1
 13 14  2  0
 14 15  1  0
 16 17  2  0
 16 15  1  0
 18 17  1  0
 19 18  2  0
 20 19  1  0
 20 21  2  0
 21 13  1  0
 21 16  1  0
 22 29  1  0
 22 11  1  0
 23 22  2  0
 25 24  1  6
 25 27  1  0
 26 25  1  0
 28 27  1  1
 28 29  1  0
 28 30  1  0
 30 32  1  0
 31 30  2  0
M  END
$$$$
