EWL.pdb
     RDKit          3D

 32 33  0  0  1  0  0  0  0  0999 V2000
   27.8019  -22.8352  -16.5028 N   0  0  0  0  0  0  0  0  0  0  0  0
   26.6978  -21.9007  -16.5014 C   0  0  1  0  0  0  0  0  0  0  0  0
   25.7204  -22.2874  -17.5486 C   0  0  0  0  0  0  0  0  0  0  0  0
   26.1896  -22.0882  -18.9547 C   0  0  0  0  0  0  0  0  0  0  0  0
   27.4595  -21.4005  -19.1217 C   0  0  0  0  0  0  0  0  0  0  0  0
   28.5574  -21.9935  -19.0358 O   0  0  0  0  0  0  0  0  0  0  0  0
   26.0764  -21.9309  -15.1283 C   0  0  0  0  0  0  0  0  0  0  0  0
   24.8909  -22.3330  -14.9808 O   0  0  0  0  0  0  0  0  0  0  0  0
   27.5315  -20.0190  -19.3917 O   0  0  0  0  0  0  0  0  0  0  0  0
   26.7926  -21.5201  -13.9855 N   0  0  0  0  0  0  0  0  0  0  0  0
   26.2871  -21.3439  -12.6798 C   0  0  1  0  0  0  0  0  0  0  0  0
   27.1860  -20.8616  -11.6174 C   0  0  0  0  0  0  0  0  0  0  0  0
   26.5462  -20.5888  -10.3109 C   0  0  0  0  0  0  0  0  0  0  0  0
   25.1885  -20.4584  -10.0440 C   0  0  0  0  0  0  0  0  0  0  0  0
   25.0155  -20.2385   -8.7275 N   0  0  0  0  0  0  0  0  0  0  0  0
   26.2141  -20.2206   -8.1273 C   0  0  0  0  0  0  0  0  0  0  0  0
   26.5806  -20.0293   -6.8092 C   0  0  0  0  0  0  0  0  0  0  0  0
   27.9349  -20.0591   -6.4896 C   0  0  0  0  0  0  0  0  0  0  0  0
   28.8919  -20.2726   -7.4548 C   0  0  0  0  0  0  0  0  0  0  0  0
   28.4956  -20.4579   -8.7464 C   0  0  0  0  0  0  0  0  0  0  0  0
   27.1596  -20.4348   -9.0941 C   0  0  0  0  0  0  0  0  0  0  0  0
   24.9574  -20.6195  -12.6367 C   0  0  0  0  0  0  0  0  0  0  0  0
   24.8834  -19.3669  -12.8625 O   0  0  0  0  0  0  0  0  0  0  0  0
   21.2797  -19.3325  -15.9942 C   0  0  0  0  0  0  0  0  0  0  0  0
   21.0981  -19.6201  -14.4723 C   0  0  1  0  0  0  0  0  0  0  0  0
   19.8870  -20.5635  -14.4486 C   0  0  0  0  0  0  0  0  0  0  0  0
   22.3159  -20.2684  -13.9514 C   0  0  0  0  0  0  0  0  0  0  0  0
   22.4231  -20.5600  -12.5033 C   0  0  2  0  0  0  0  0  0  0  0  0
   23.7447  -21.2578  -12.3540 N   0  0  0  0  0  0  0  0  0  0  0  0
   21.4247  -21.3576  -11.8342 C   0  0  0  0  0  0  0  0  0  0  0  0
   21.5418  -22.6334  -11.8024 O   0  0  0  0  0  0  0  0  0  0  0  0
   20.3232  -20.8452  -11.1988 O   0  0  0  0  0  0  0  0  0  0  0  0
  2  3  1  0
  2  1  1  1
  3  4  1  0
  4  5  1  0
  5  9  1  0
  6  5  2  0
  7  2  1  0
  8  7  2  0
 10  7  1  0
 11 10  1  0
 12 13  1  0
 11 12  1  1
 13 14  2  0
 14 15  1  0
 16 17  2  0
 16 15  1  0
 18 17  1  0
 19 18  2  0
 20 19  1  0
 20 21  2  0
 21 13  1  0
 21 16  1  0
 22 29  1  0
 22 11  1  0
 23 22  2  0
 25 24  1  6
 25 27  1  0
 26 25  1  0
 28 27  1  6
 28 29  1  0
 28 30  1  0
 30 32  1  0
 31 30  2  0
M  END
$$$$
