EWL.pdb
     RDKit          3D

 32 33  0  0  1  0  0  0  0  0999 V2000
   13.0518  -19.7431    4.1907 N   0  0  0  0  0  0  0  0  0  0  0  0
   13.4381  -19.3282    5.5215 C   0  0  1  0  0  0  0  0  0  0  0  0
   13.6853  -20.5261    6.3614 C   0  0  0  0  0  0  0  0  0  0  0  0
   14.0106  -20.2376    7.7924 C   0  0  0  0  0  0  0  0  0  0  0  0
   14.3384  -21.3833    8.6251 C   0  0  0  0  0  0  0  0  0  0  0  0
   15.4855  -21.5666    9.0888 O   0  0  0  0  0  0  0  0  0  0  0  0
   14.6770  -18.4791    5.3930 C   0  0  0  0  0  0  0  0  0  0  0  0
   15.6583  -18.8925    4.7184 O   0  0  0  0  0  0  0  0  0  0  0  0
   13.3805  -22.3608    8.9621 O   0  0  0  0  0  0  0  0  0  0  0  0
   14.7724  -17.2153    6.0106 N   0  0  0  0  0  0  0  0  0  0  0  0
   15.8956  -16.3615    6.0372 C   0  0  1  0  0  0  0  0  0  0  0  0
   15.6961  -14.9046    5.9530 C   0  0  0  0  0  0  0  0  0  0  0  0
   16.9027  -14.1098    5.6316 C   0  0  0  0  0  0  0  0  0  0  0  0
   17.4490  -13.0649    6.3673 C   0  0  0  0  0  0  0  0  0  0  0  0
   18.5601  -12.6225    5.7500 N   0  0  0  0  0  0  0  0  0  0  0  0
   18.7564  -13.3429    4.6366 C   0  0  0  0  0  0  0  0  0  0  0  0
   19.7354  -13.2853    3.6637 C   0  0  0  0  0  0  0  0  0  0  0  0
   19.6632  -14.1810    2.6007 C   0  0  0  0  0  0  0  0  0  0  0  0
   18.6466  -15.1037    2.5120 C   0  0  0  0  0  0  0  0  0  0  0  0
   17.6964  -15.1336    3.4898 C   0  0  0  0  0  0  0  0  0  0  0  0
   17.7416  -14.2587    4.5570 C   0  0  0  0  0  0  0  0  0  0  0  0
   16.8980  -16.7110    7.1178 C   0  0  0  0  0  0  0  0  0  0  0  0
   16.5241  -16.9227    8.3181 O   0  0  0  0  0  0  0  0  0  0  0  0
   21.0838  -20.0325    6.0219 C   0  0  0  0  0  0  0  0  0  0  0  0
   19.8729  -19.4043    6.7774 C   0  0  1  0  0  0  0  0  0  0  0  0
   19.6439  -20.3924    7.9300 C   0  0  0  0  0  0  0  0  0  0  0  0
   20.2458  -18.0628    7.2632 C   0  0  0  0  0  0  0  0  0  0  0  0
   19.2353  -17.2335    7.9594 C   0  0  2  0  0  0  0  0  0  0  0  0
   18.2725  -16.8249    6.8815 N   0  0  0  0  0  0  0  0  0  0  0  0
   19.6232  -16.0448    8.6787 C   0  0  0  0  0  0  0  0  0  0  0  0
   20.2659  -16.1471    9.7827 O   0  0  0  0  0  0  0  0  0  0  0  0
   19.3583  -14.7664    8.2606 O   0  0  0  0  0  0  0  0  0  0  0  0
  2  3  1  0
  2  1  1  6
  3  4  1  0
  4  5  1  0
  5  9  1  0
  6  5  2  0
  7  2  1  0
  8  7  2  0
 10  7  1  0
 11 10  1  0
 12 13  1  0
 11 12  1  1
 13 14  2  0
 14 15  1  0
 16 17  2  0
 16 15  1  0
 18 17  1  0
 19 18  2  0
 20 19  1  0
 20 21  2  0
 21 13  1  0
 21 16  1  0
 22 29  1  0
 22 11  1  0
 23 22  2  0
 25 24  1  6
 25 27  1  0
 26 25  1  0
 28 27  1  6
 28 29  1  0
 28 30  1  0
 30 32  1  0
 31 30  2  0
M  END
$$$$
