EWL.pdb
     RDKit          3D

 32 33  0  0  1  0  0  0  0  0999 V2000
   28.3327  -22.9813  -16.4148 N   0  0  0  0  0  0  0  0  0  0  0  0
   28.2432  -21.6502  -15.8558 C   0  0  1  0  0  0  0  0  0  0  0  0
   27.7976  -20.7012  -16.9057 C   0  0  0  0  0  0  0  0  0  0  0  0
   26.3797  -20.8713  -17.3500 C   0  0  0  0  0  0  0  0  0  0  0  0
   26.1529  -20.9221  -18.7851 C   0  0  0  0  0  0  0  0  0  0  0  0
   25.0615  -20.5958  -19.3016 O   0  0  0  0  0  0  0  0  0  0  0  0
   27.2668  -21.7020  -14.7085 C   0  0  0  0  0  0  0  0  0  0  0  0
   26.4853  -22.6838  -14.5886 O   0  0  0  0  0  0  0  0  0  0  0  0
   27.1523  -21.3435  -19.6852 O   0  0  0  0  0  0  0  0  0  0  0  0
   27.2020  -20.6719  -13.7480 N   0  0  0  0  0  0  0  0  0  0  0  0
   26.3993  -20.6366  -12.5880 C   0  0  1  0  0  0  0  0  0  0  0  0
   26.8214  -19.8109  -11.4437 C   0  0  0  0  0  0  0  0  0  0  0  0
   27.8248  -20.4251  -10.5454 C   0  0  0  0  0  0  0  0  0  0  0  0
   28.9104  -21.2157  -10.9035 C   0  0  0  0  0  0  0  0  0  0  0  0
   29.5945  -21.5559   -9.7955 N   0  0  0  0  0  0  0  0  0  0  0  0
   28.9917  -21.0146   -8.7274 C   0  0  0  0  0  0  0  0  0  0  0  0
   29.2876  -21.0662   -7.3791 C   0  0  0  0  0  0  0  0  0  0  0  0
   28.4507  -20.3936   -6.4934 C   0  0  0  0  0  0  0  0  0  0  0  0
   27.3541  -19.6926   -6.9396 C   0  0  0  0  0  0  0  0  0  0  0  0
   27.0909  -19.6620   -8.2773 C   0  0  0  0  0  0  0  0  0  0  0  0
   27.9031  -20.3186   -9.1805 C   0  0  0  0  0  0  0  0  0  0  0  0
   24.9238  -20.4511  -12.8766 C   0  0  0  0  0  0  0  0  0  0  0  0
   24.5076  -19.4621  -13.5651 O   0  0  0  0  0  0  0  0  0  0  0  0
   19.8217  -23.0698  -13.4127 C   0  0  0  0  0  0  0  0  0  0  0  0
   20.8812  -22.3935  -14.3356 C   0  0  1  0  0  0  0  0  0  0  0  0
   20.2859  -20.9974  -14.5674 C   0  0  0  0  0  0  0  0  0  0  0  0
   22.1743  -22.3345  -13.6293 C   0  0  0  0  0  0  0  0  0  0  0  0
   22.4883  -21.1611  -12.7819 C   0  0  2  0  0  0  0  0  0  0  0  0
   23.9362  -21.3312  -12.4204 N   0  0  0  0  0  0  0  0  0  0  0  0
   21.7558  -20.9112  -11.5647 C   0  0  0  0  0  0  0  0  0  0  0  0
   22.2024  -21.3532  -10.4478 O   0  0  0  0  0  0  0  0  0  0  0  0
   20.5812  -20.2072  -11.4991 O   0  0  0  0  0  0  0  0  0  0  0  0
  2  3  1  0
  2  1  1  6
  3  4  1  0
  4  5  1  0
  5  9  1  0
  6  5  2  0
  7  2  1  0
  8  7  2  0
 10  7  1  0
 11 10  1  0
 12 13  1  0
 11 12  1  1
 13 14  2  0
 14 15  1  0
 16 17  2  0
 16 15  1  0
 18 17  1  0
 19 18  2  0
 20 19  1  0
 20 21  2  0
 21 13  1  0
 21 16  1  0
 22 29  1  0
 22 11  1  0
 23 22  2  0
 25 24  1  1
 25 27  1  0
 26 25  1  0
 28 27  1  1
 28 29  1  0
 28 30  1  0
 30 32  1  0
 31 30  2  0
M  END
$$$$
