EWL.pdb
     RDKit          3D

 32 33  0  0  1  0  0  0  0  0999 V2000
   28.3613  -22.1891  -15.1346 N   0  0  0  0  0  0  0  0  0  0  0  0
   27.3753  -21.1311  -15.1039 C   0  0  1  0  0  0  0  0  0  0  0  0
   26.7441  -21.0035  -16.4405 C   0  0  0  0  0  0  0  0  0  0  0  0
   27.6070  -20.3767  -17.4891 C   0  0  0  0  0  0  0  0  0  0  0  0
   28.3069  -19.1605  -17.1090 C   0  0  0  0  0  0  0  0  0  0  0  0
   27.7046  -18.1386  -16.7121 O   0  0  0  0  0  0  0  0  0  0  0  0
   26.3610  -21.4835  -14.0459 C   0  0  0  0  0  0  0  0  0  0  0  0
   25.5836  -22.4609  -14.2175 O   0  0  0  0  0  0  0  0  0  0  0  0
   29.7116  -19.0581  -17.1644 O   0  0  0  0  0  0  0  0  0  0  0  0
   26.2556  -20.7445  -12.8499 N   0  0  0  0  0  0  0  0  0  0  0  0
   25.2863  -20.8968  -11.8357 C   0  0  1  0  0  0  0  0  0  0  0  0
   25.5618  -20.3672  -10.4893 C   0  0  0  0  0  0  0  0  0  0  0  0
   26.8679  -20.7471   -9.9058 C   0  0  0  0  0  0  0  0  0  0  0  0
   27.9317  -21.3717  -10.5460 C   0  0  0  0  0  0  0  0  0  0  0  0
   28.9470  -21.5201   -9.6750 N   0  0  0  0  0  0  0  0  0  0  0  0
   28.5811  -21.0141   -8.4886 C   0  0  0  0  0  0  0  0  0  0  0  0
   29.2462  -20.9257   -7.2812 C   0  0  0  0  0  0  0  0  0  0  0  0
   28.5853  -20.3409   -6.2047 C   0  0  0  0  0  0  0  0  0  0  0  0
   27.3022  -19.8604   -6.3300 C   0  0  0  0  0  0  0  0  0  0  0  0
   26.6747  -19.9634   -7.5364 C   0  0  0  0  0  0  0  0  0  0  0  0
   27.3045  -20.5375   -8.6227 C   0  0  0  0  0  0  0  0  0  0  0  0
   23.8818  -20.5447  -12.2810 C   0  0  0  0  0  0  0  0  0  0  0  0
   23.6062  -19.3841  -12.7312 O   0  0  0  0  0  0  0  0  0  0  0  0
   20.0993  -21.2033  -15.8210 C   0  0  0  0  0  0  0  0  0  0  0  0
   19.8704  -22.0172  -14.5107 C   0  0  1  0  0  0  0  0  0  0  0  0
   19.4202  -23.3871  -15.0377 C   0  0  0  0  0  0  0  0  0  0  0  0
   21.1384  -22.1005  -13.7624 C   0  0  0  0  0  0  0  0  0  0  0  0
   21.4420  -21.0844  -12.7285 C   0  0  2  0  0  0  0  0  0  0  0  0
   22.8128  -21.4462  -12.2325 N   0  0  0  0  0  0  0  0  0  0  0  0
   20.5857  -20.9208  -11.5792 C   0  0  0  0  0  0  0  0  0  0  0  0
   20.6554  -21.7524  -10.6067 O   0  0  0  0  0  0  0  0  0  0  0  0
   19.6743  -19.9073  -11.4314 O   0  0  0  0  0  0  0  0  0  0  0  0
  2  3  1  0
  2  1  1  6
  3  4  1  0
  4  5  1  0
  5  9  1  0
  6  5  2  0
  7  2  1  0
  8  7  2  0
 10  7  1  0
 11 10  1  0
 12 13  1  0
 11 12  1  1
 13 14  2  0
 14 15  1  0
 16 17  2  0
 16 15  1  0
 18 17  1  0
 19 18  2  0
 20 19  1  0
 20 21  2  0
 21 13  1  0
 21 16  1  0
 22 29  1  0
 22 11  1  0
 23 22  2  0
 25 24  1  6
 25 27  1  0
 26 25  1  0
 28 27  1  6
 28 29  1  0
 28 30  1  0
 30 32  1  0
 31 30  2  0
M  END
$$$$
