EWL.pdb
     RDKit          3D

 32 33  0  0  1  0  0  0  0  0999 V2000
   27.8815  -20.4200  -17.3583 N   0  0  0  0  0  0  0  0  0  0  0  0
   27.9923  -21.2376  -16.1701 C   0  0  1  0  0  0  0  0  0  0  0  0
   29.4074  -21.6386  -15.9752 C   0  0  0  0  0  0  0  0  0  0  0  0
   29.9649  -22.5258  -17.0424 C   0  0  0  0  0  0  0  0  0  0  0  0
   29.1967  -23.7188  -17.3587 C   0  0  0  0  0  0  0  0  0  0  0  0
   28.7616  -24.4882  -16.4737 O   0  0  0  0  0  0  0  0  0  0  0  0
   27.4842  -20.4237  -15.0074 C   0  0  0  0  0  0  0  0  0  0  0  0
   27.8787  -19.2372  -14.8473 O   0  0  0  0  0  0  0  0  0  0  0  0
   28.8941  -24.0827  -18.6864 O   0  0  0  0  0  0  0  0  0  0  0  0
   26.5641  -20.9555  -14.0810 N   0  0  0  0  0  0  0  0  0  0  0  0
   25.9468  -20.2787  -13.0075 C   0  0  1  0  0  0  0  0  0  0  0  0
   24.5652  -19.7918  -13.1608 C   0  0  0  0  0  0  0  0  0  0  0  0
   24.3159  -18.9307  -14.3385 C   0  0  0  0  0  0  0  0  0  0  0  0
   23.3016  -19.0571  -15.2803 C   0  0  0  0  0  0  0  0  0  0  0  0
   23.4059  -18.0610  -16.1794 N   0  0  0  0  0  0  0  0  0  0  0  0
   24.4539  -17.2900  -15.8562 C   0  0  0  0  0  0  0  0  0  0  0  0
   24.9843  -16.1616  -16.4508 C   0  0  0  0  0  0  0  0  0  0  0  0
   26.1071  -15.5765  -15.8724 C   0  0  0  0  0  0  0  0  0  0  0  0
   26.6815  -16.1013  -14.7377 C   0  0  0  0  0  0  0  0  0  0  0  0
   26.1324  -17.2162  -14.1762 C   0  0  0  0  0  0  0  0  0  0  0  0
   25.0183  -17.8185  -14.7262 C   0  0  0  0  0  0  0  0  0  0  0  0
   26.1362  -20.9632  -11.6695 C   0  0  0  0  0  0  0  0  0  0  0  0
   25.8553  -22.1974  -11.5166 O   0  0  0  0  0  0  0  0  0  0  0  0
   28.6639  -21.3139   -6.6510 C   0  0  0  0  0  0  0  0  0  0  0  0
   27.4933  -20.3072   -6.8709 C   0  0  1  0  0  0  0  0  0  0  0  0
   27.9512  -19.0770   -6.0745 C   0  0  0  0  0  0  0  0  0  0  0  0
   27.3644  -20.0187   -8.3112 C   0  0  0  0  0  0  0  0  0  0  0  0
   26.5786  -20.9345   -9.1699 C   0  0  2  0  0  0  0  0  0  0  0  0
   26.6223  -20.3065  -10.5336 N   0  0  0  0  0  0  0  0  0  0  0  0
   25.2006  -21.2330   -8.8653 C   0  0  0  0  0  0  0  0  0  0  0  0
   24.2767  -20.4193   -9.2213 O   0  0  0  0  0  0  0  0  0  0  0  0
   24.7799  -22.3605   -8.2087 O   0  0  0  0  0  0  0  0  0  0  0  0
  2  3  1  0
  2  1  1  6
  3  4  1  0
  4  5  1  0
  5  9  1  0
  6  5  2  0
  7  2  1  0
  8  7  2  0
 10  7  1  0
 11 10  1  0
 12 13  1  0
 11 12  1  6
 13 14  2  0
 14 15  1  0
 16 17  2  0
 16 15  1  0
 18 17  1  0
 19 18  2  0
 20 19  1  0
 20 21  2  0
 21 13  1  0
 21 16  1  0
 22 29  1  0
 22 11  1  0
 23 22  2  0
 25 24  1  6
 25 27  1  0
 26 25  1  0
 28 27  1  1
 28 29  1  0
 28 30  1  0
 30 32  1  0
 31 30  2  0
M  END
$$$$
