EWL.pdb
     RDKit          3D

 32 33  0  0  1  0  0  0  0  0999 V2000
   27.7957  -22.2278  -15.4059 N   0  0  0  0  0  0  0  0  0  0  0  0
   27.4888  -20.9619  -14.7769 C   0  0  1  0  0  0  0  0  0  0  0  0
   26.5926  -20.1749  -15.6594 C   0  0  0  0  0  0  0  0  0  0  0  0
   27.2376  -19.6387  -16.8977 C   0  0  0  0  0  0  0  0  0  0  0  0
   28.3572  -18.7319  -16.7034 C   0  0  0  0  0  0  0  0  0  0  0  0
   28.1984  -17.5110  -16.4832 O   0  0  0  0  0  0  0  0  0  0  0  0
   26.8365  -21.2578  -13.4505 C   0  0  0  0  0  0  0  0  0  0  0  0
   25.7303  -21.8610  -13.4118 O   0  0  0  0  0  0  0  0  0  0  0  0
   29.6945  -19.1746  -16.7513 O   0  0  0  0  0  0  0  0  0  0  0  0
   27.4365  -20.8781  -12.2325 N   0  0  0  0  0  0  0  0  0  0  0  0
   26.8778  -20.9738  -10.9402 C   0  0  1  0  0  0  0  0  0  0  0  0
   27.7268  -20.7093   -9.7661 C   0  0  0  0  0  0  0  0  0  0  0  0
   27.0169  -20.6082   -8.4712 C   0  0  0  0  0  0  0  0  0  0  0  0
   25.7081  -20.9831   -8.1916 C   0  0  0  0  0  0  0  0  0  0  0  0
   25.4503  -20.7534   -6.8908 N   0  0  0  0  0  0  0  0  0  0  0  0
   26.5461  -20.2409   -6.3130 C   0  0  0  0  0  0  0  0  0  0  0  0
   26.7983  -19.8333   -5.0175 C   0  0  0  0  0  0  0  0  0  0  0  0
   28.0594  -19.3256   -4.7189 C   0  0  0  0  0  0  0  0  0  0  0  0
   29.0365  -19.2280   -5.6825 C   0  0  0  0  0  0  0  0  0  0  0  0
   28.7542  -19.6396   -6.9516 C   0  0  0  0  0  0  0  0  0  0  0  0
   27.5129  -20.1484   -7.2782 C   0  0  0  0  0  0  0  0  0  0  0  0
   25.5359  -20.2838  -10.8067 C   0  0  0  0  0  0  0  0  0  0  0  0
   25.4469  -19.0120  -10.8126 O   0  0  0  0  0  0  0  0  0  0  0  0
   22.3907  -19.3242  -14.7404 C   0  0  0  0  0  0  0  0  0  0  0  0
   22.0175  -19.4655  -13.2329 C   0  0  1  0  0  0  0  0  0  0  0  0
   20.7743  -20.3655  -13.2752 C   0  0  0  0  0  0  0  0  0  0  0  0
   23.1368  -20.0999  -12.5124 C   0  0  0  0  0  0  0  0  0  0  0  0
   23.0114  -20.3651  -11.0606 C   0  0  2  0  0  0  0  0  0  0  0  0
   24.3273  -20.9760  -10.6719 N   0  0  0  0  0  0  0  0  0  0  0  0
   21.9627  -21.2153  -10.5526 C   0  0  0  0  0  0  0  0  0  0  0  0
   22.0868  -22.4893  -10.6139 O   0  0  0  0  0  0  0  0  0  0  0  0
   20.8038  -20.7572   -9.9811 O   0  0  0  0  0  0  0  0  0  0  0  0
  2  3  1  0
  2  1  1  6
  3  4  1  0
  4  5  1  0
  5  9  1  0
  6  5  2  0
  7  2  1  0
  8  7  2  0
 10  7  1  0
 11 10  1  0
 12 13  1  0
 11 12  1  1
 13 14  2  0
 14 15  1  0
 16 17  2  0
 16 15  1  0
 18 17  1  0
 19 18  2  0
 20 19  1  0
 20 21  2  0
 21 13  1  0
 21 16  1  0
 22 29  1  0
 22 11  1  0
 23 22  2  0
 25 24  1  6
 25 27  1  0
 26 25  1  0
 28 27  1  6
 28 29  1  0
 28 30  1  0
 30 32  1  0
 31 30  2  0
M  END
$$$$
