EWL.pdb
     RDKit          3D

 32 33  0  0  1  0  0  0  0  0999 V2000
   24.2132  -19.3772  -20.4484 N   0  0  0  0  0  0  0  0  0  0  0  0
   23.9882  -18.7391  -19.1699 C   0  0  1  0  0  0  0  0  0  0  0  0
   22.5314  -18.6827  -18.8942 C   0  0  0  0  0  0  0  0  0  0  0  0
   21.8786  -17.3754  -19.2134 C   0  0  0  0  0  0  0  0  0  0  0  0
   22.3678  -16.2139  -18.4888 C   0  0  0  0  0  0  0  0  0  0  0  0
   23.0938  -15.3481  -19.0252 O   0  0  0  0  0  0  0  0  0  0  0  0
   24.7170  -19.5435  -18.1239 C   0  0  0  0  0  0  0  0  0  0  0  0
   24.7733  -20.7993  -18.2193 O   0  0  0  0  0  0  0  0  0  0  0  0
   22.0528  -15.9915  -17.1331 O   0  0  0  0  0  0  0  0  0  0  0  0
   25.3508  -18.9251  -17.0269 N   0  0  0  0  0  0  0  0  0  0  0  0
   26.0225  -19.5602  -15.9607 C   0  0  1  0  0  0  0  0  0  0  0  0
   27.3210  -19.0315  -15.5092 C   0  0  0  0  0  0  0  0  0  0  0  0
   28.0818  -19.9025  -14.5855 C   0  0  0  0  0  0  0  0  0  0  0  0
   28.7499  -21.0821  -14.8915 C   0  0  0  0  0  0  0  0  0  0  0  0
   29.3385  -21.5588  -13.7790 N   0  0  0  0  0  0  0  0  0  0  0  0
   29.0764  -20.7304  -12.7580 C   0  0  0  0  0  0  0  0  0  0  0  0
   29.4373  -20.7694  -11.4252 C   0  0  0  0  0  0  0  0  0  0  0  0
   28.9953  -19.7463  -10.5914 C   0  0  0  0  0  0  0  0  0  0  0  0
   28.2182  -18.7181  -11.0728 C   0  0  0  0  0  0  0  0  0  0  0  0
   27.8802  -18.7101  -12.3939 C   0  0  0  0  0  0  0  0  0  0  0  0
   28.3042  -19.7104  -13.2460 C   0  0  0  0  0  0  0  0  0  0  0  0
   25.1257  -19.8778  -14.7819 C   0  0  0  0  0  0  0  0  0  0  0  0
   24.3542  -18.9926  -14.2853 O   0  0  0  0  0  0  0  0  0  0  0  0
   26.5196  -21.2271   -9.5924 C   0  0  0  0  0  0  0  0  0  0  0  0
   25.2003  -21.3587  -10.4132 C   0  0  1  0  0  0  0  0  0  0  0  0
   24.3698  -20.1687   -9.9116 C   0  0  0  0  0  0  0  0  0  0  0  0
   25.5096  -21.2519  -11.8511 C   0  0  0  0  0  0  0  0  0  0  0  0
   24.4126  -21.3507  -12.8412 C   0  0  2  0  0  0  0  0  0  0  0  0
   25.0801  -21.1350  -14.1693 N   0  0  0  0  0  0  0  0  0  0  0  0
   23.2727  -20.4695  -12.7718 C   0  0  0  0  0  0  0  0  0  0  0  0
   22.0902  -20.9584  -12.7022 O   0  0  0  0  0  0  0  0  0  0  0  0
   23.3519  -19.1008  -12.7662 O   0  0  0  0  0  0  0  0  0  0  0  0
  2  3  1  0
  2  1  1  6
  3  4  1  0
  4  5  1  0
  5  9  1  0
  6  5  2  0
  7  2  1  0
  8  7  2  0
 10  7  1  0
 11 10  1  0
 12 13  1  0
 11 12  1  1
 13 14  2  0
 14 15  1  0
 16 17  2  0
 16 15  1  0
 18 17  1  0
 19 18  2  0
 20 19  1  0
 20 21  2  0
 21 13  1  0
 21 16  1  0
 22 29  1  0
 22 11  1  0
 23 22  2  0
 25 24  1  1
 25 27  1  0
 26 25  1  0
 28 27  1  1
 28 29  1  0
 28 30  1  0
 30 32  1  0
 31 30  2  0
M  END
$$$$
