EWL.pdb
     RDKit          3D

 32 33  0  0  1  0  0  0  0  0999 V2000
   27.8615  -22.8362  -15.8389 N   0  0  0  0  0  0  0  0  0  0  0  0
   27.6813  -21.5121  -15.2851 C   0  0  1  0  0  0  0  0  0  0  0  0
   26.8932  -20.6832  -16.2302 C   0  0  0  0  0  0  0  0  0  0  0  0
   27.6246  -20.2677  -17.4669 C   0  0  0  0  0  0  0  0  0  0  0  0
   28.8285  -19.4765  -17.2716 C   0  0  0  0  0  0  0  0  0  0  0  0
   28.7918  -18.2862  -16.8891 O   0  0  0  0  0  0  0  0  0  0  0  0
   26.9747  -21.6633  -13.9622 C   0  0  0  0  0  0  0  0  0  0  0  0
   25.8201  -22.1671  -13.9172 O   0  0  0  0  0  0  0  0  0  0  0  0
   30.1151  -20.0041  -17.5019 O   0  0  0  0  0  0  0  0  0  0  0  0
   27.5762  -21.2556  -12.7540 N   0  0  0  0  0  0  0  0  0  0  0  0
   26.9660  -21.1674  -11.4846 C   0  0  1  0  0  0  0  0  0  0  0  0
   27.7860  -20.8141  -10.3132 C   0  0  0  0  0  0  0  0  0  0  0  0
   27.0358  -20.5037   -9.0756 C   0  0  0  0  0  0  0  0  0  0  0  0
   25.6582  -20.5231   -8.8932 C   0  0  0  0  0  0  0  0  0  0  0  0
   25.3763  -20.2044   -7.6163 N   0  0  0  0  0  0  0  0  0  0  0  0
   26.5232  -19.9773   -6.9603 C   0  0  0  0  0  0  0  0  0  0  0  0
   26.7791  -19.6178   -5.6513 C   0  0  0  0  0  0  0  0  0  0  0  0
   28.1039  -19.4443   -5.2613 C   0  0  0  0  0  0  0  0  0  0  0  0
   29.1392  -19.6237   -6.1495 C   0  0  0  0  0  0  0  0  0  0  0  0
   28.8514  -19.9786   -7.4343 C   0  0  0  0  0  0  0  0  0  0  0  0
   27.5473  -20.1590   -7.8508 C   0  0  0  0  0  0  0  0  0  0  0  0
   25.6640  -20.3932  -11.4897 C   0  0  0  0  0  0  0  0  0  0  0  0
   25.6442  -19.1415  -11.7313 O   0  0  0  0  0  0  0  0  0  0  0  0
   22.6704  -19.2080  -15.3390 C   0  0  0  0  0  0  0  0  0  0  0  0
   22.2052  -19.4554  -13.8713 C   0  0  1  0  0  0  0  0  0  0  0  0
   21.0262  -20.4229  -14.0488 C   0  0  0  0  0  0  0  0  0  0  0  0
   23.3103  -20.0627  -13.1068 C   0  0  0  0  0  0  0  0  0  0  0  0
   23.1320  -20.3371  -11.6623 C   0  0  2  0  0  0  0  0  0  0  0  0
   24.4201  -20.9821  -11.2372 N   0  0  0  0  0  0  0  0  0  0  0  0
   22.0479  -21.1667  -11.1960 C   0  0  0  0  0  0  0  0  0  0  0  0
   22.1704  -22.4423  -11.2038 O   0  0  0  0  0  0  0  0  0  0  0  0
   20.8554  -20.6863  -10.7200 O   0  0  0  0  0  0  0  0  0  0  0  0
  2  3  1  0
  2  1  1  6
  3  4  1  0
  4  5  1  0
  5  9  1  0
  6  5  2  0
  7  2  1  0
  8  7  2  0
 10  7  1  0
 11 10  1  0
 12 13  1  0
 11 12  1  1
 13 14  2  0
 14 15  1  0
 16 17  2  0
 16 15  1  0
 18 17  1  0
 19 18  2  0
 20 19  1  0
 20 21  2  0
 21 13  1  0
 21 16  1  0
 22 29  1  0
 22 11  1  0
 23 22  2  0
 25 24  1  6
 25 27  1  0
 26 25  1  0
 28 27  1  6
 28 29  1  0
 28 30  1  0
 30 32  1  0
 31 30  2  0
M  END
$$$$
