EWL.pdb
     RDKit          3D

 32 33  0  0  1  0  0  0  0  0999 V2000
   28.8676  -22.7577  -17.8381 N   0  0  0  0  0  0  0  0  0  0  0  0
   28.1491  -21.5270  -17.5896 C   0  0  1  0  0  0  0  0  0  0  0  0
   27.1236  -21.3309  -18.6437 C   0  0  0  0  0  0  0  0  0  0  0  0
   27.6502  -20.8323  -19.9518 C   0  0  0  0  0  0  0  0  0  0  0  0
   29.0109  -20.3203  -19.9488 C   0  0  0  0  0  0  0  0  0  0  0  0
   29.3154  -19.2339  -19.4089 O   0  0  0  0  0  0  0  0  0  0  0  0
   27.5223  -21.6329  -16.2227 C   0  0  0  0  0  0  0  0  0  0  0  0
   26.8102  -22.6312  -15.9306 O   0  0  0  0  0  0  0  0  0  0  0  0
   30.0737  -21.0192  -20.5558 O   0  0  0  0  0  0  0  0  0  0  0  0
   27.7137  -20.6361  -15.2443 N   0  0  0  0  0  0  0  0  0  0  0  0
   27.1590  -20.5961  -13.9474 C   0  0  1  0  0  0  0  0  0  0  0  0
   27.7758  -19.7334  -12.9254 C   0  0  0  0  0  0  0  0  0  0  0  0
   27.2138  -19.8529  -11.5613 C   0  0  0  0  0  0  0  0  0  0  0  0
   25.9198  -19.5565  -11.1498 C   0  0  0  0  0  0  0  0  0  0  0  0
   25.8010  -19.8240   -9.8361 N   0  0  0  0  0  0  0  0  0  0  0  0
   26.9736  -20.2840   -9.3771 C   0  0  0  0  0  0  0  0  0  0  0  0
   27.3743  -20.6892   -8.1188 C   0  0  0  0  0  0  0  0  0  0  0  0
   28.6879  -21.1175   -7.9503 C   0  0  0  0  0  0  0  0  0  0  0  0
   29.5724  -21.1400   -9.0038 C   0  0  0  0  0  0  0  0  0  0  0  0
   29.1440  -20.7334  -10.2330 C   0  0  0  0  0  0  0  0  0  0  0  0
   27.8468  -20.3041  -10.4316 C   0  0  0  0  0  0  0  0  0  0  0  0
   25.6505  -20.4576  -13.9367 C   0  0  0  0  0  0  0  0  0  0  0  0
   25.0745  -19.4922  -14.5381 O   0  0  0  0  0  0  0  0  0  0  0  0
   21.3697  -23.9400  -15.4188 C   0  0  0  0  0  0  0  0  0  0  0  0
   21.4968  -22.6797  -14.5093 C   0  0  1  0  0  0  0  0  0  0  0  0
   20.6591  -23.0631  -13.2811 C   0  0  0  0  0  0  0  0  0  0  0  0
   22.9157  -22.4675  -14.1682 C   0  0  0  0  0  0  0  0  0  0  0  0
   23.3067  -21.2674  -13.3933 C   0  0  2  0  0  0  0  0  0  0  0  0
   24.8019  -21.3580  -13.2831 N   0  0  0  0  0  0  0  0  0  0  0  0
   22.7797  -21.0378  -12.0704 C   0  0  0  0  0  0  0  0  0  0  0  0
   23.4126  -21.4752  -11.0455 O   0  0  0  0  0  0  0  0  0  0  0  0
   21.6182  -20.3585  -11.8072 O   0  0  0  0  0  0  0  0  0  0  0  0
  2  3  1  0
  2  1  1  6
  3  4  1  0
  4  5  1  0
  5  9  1  0
  6  5  2  0
  7  2  1  0
  8  7  2  0
 10  7  1  0
 11 10  1  0
 12 13  1  0
 11 12  1  1
 13 14  2  0
 14 15  1  0
 16 17  2  0
 16 15  1  0
 18 17  1  0
 19 18  2  0
 20 19  1  0
 20 21  2  0
 21 13  1  0
 21 16  1  0
 22 29  1  0
 22 11  1  0
 23 22  2  0
 25 24  1  6
 25 27  1  0
 26 25  1  0
 28 27  1  1
 28 29  1  0
 28 30  1  0
 30 32  1  0
 31 30  2  0
M  END
$$$$
