EWL.pdb
     RDKit          3D

 32 33  0  0  1  0  0  0  0  0999 V2000
   27.9330  -23.3939  -17.1673 N   0  0  0  0  0  0  0  0  0  0  0  0
   27.1101  -22.2218  -17.3703 C   0  0  1  0  0  0  0  0  0  0  0  0
   26.2162  -22.4400  -18.5343 C   0  0  0  0  0  0  0  0  0  0  0  0
   26.9052  -22.4763  -19.8614 C   0  0  0  0  0  0  0  0  0  0  0  0
   27.2277  -23.7927  -20.3871 C   0  0  0  0  0  0  0  0  0  0  0  0
   26.3568  -24.6718  -20.5693 O   0  0  0  0  0  0  0  0  0  0  0  0
   26.3229  -21.9925  -16.1054 C   0  0  0  0  0  0  0  0  0  0  0  0
   25.9695  -22.9724  -15.3955 O   0  0  0  0  0  0  0  0  0  0  0  0
   28.5458  -24.1603  -20.7250 O   0  0  0  0  0  0  0  0  0  0  0  0
   25.9670  -20.6953  -15.6831 N   0  0  0  0  0  0  0  0  0  0  0  0
   25.3334  -20.3354  -14.4746 C   0  0  1  0  0  0  0  0  0  0  0  0
   25.9763  -19.3500  -13.5887 C   0  0  0  0  0  0  0  0  0  0  0  0
   27.2289  -19.7944  -12.9373 C   0  0  0  0  0  0  0  0  0  0  0  0
   28.4985  -19.8590  -13.4989 C   0  0  0  0  0  0  0  0  0  0  0  0
   29.3717  -20.2912  -12.5703 N   0  0  0  0  0  0  0  0  0  0  0  0
   28.7144  -20.5111  -11.4227 C   0  0  0  0  0  0  0  0  0  0  0  0
   29.1426  -20.9592  -10.1882 C   0  0  0  0  0  0  0  0  0  0  0  0
   28.2007  -21.0958   -9.1725 C   0  0  0  0  0  0  0  0  0  0  0  0
   26.8748  -20.7950   -9.3828 C   0  0  0  0  0  0  0  0  0  0  0  0
   26.4859  -20.3549  -10.6136 C   0  0  0  0  0  0  0  0  0  0  0  0
   27.3970  -20.2083  -11.6407 C   0  0  0  0  0  0  0  0  0  0  0  0
   23.8547  -20.0446  -14.6280 C   0  0  0  0  0  0  0  0  0  0  0  0
   23.3984  -19.4972  -15.6852 O   0  0  0  0  0  0  0  0  0  0  0  0
   19.5184  -19.9175  -16.3974 C   0  0  0  0  0  0  0  0  0  0  0  0
   19.7503  -21.1841  -15.5178 C   0  0  1  0  0  0  0  0  0  0  0  0
   19.5702  -22.3311  -16.5224 C   0  0  0  0  0  0  0  0  0  0  0  0
   21.1147  -21.1452  -14.9597 C   0  0  0  0  0  0  0  0  0  0  0  0
   21.4327  -20.1823  -13.8802 C   0  0  2  0  0  0  0  0  0  0  0  0
   22.9066  -20.3497  -13.6451 N   0  0  0  0  0  0  0  0  0  0  0  0
   20.7700  -20.2603  -12.6013 C   0  0  0  0  0  0  0  0  0  0  0  0
   19.6268  -19.7043  -12.4389 O   0  0  0  0  0  0  0  0  0  0  0  0
   21.2764  -20.9106  -11.5058 O   0  0  0  0  0  0  0  0  0  0  0  0
  2  3  1  0
  2  1  1  1
  3  4  1  0
  4  5  1  0
  5  9  1  0
  6  5  2  0
  7  2  1  0
  8  7  2  0
 10  7  1  0
 11 10  1  0
 12 13  1  0
 11 12  1  6
 13 14  2  0
 14 15  1  0
 16 17  2  0
 16 15  1  0
 18 17  1  0
 19 18  2  0
 20 19  1  0
 20 21  2  0
 21 13  1  0
 21 16  1  0
 22 29  1  0
 22 11  1  0
 23 22  2  0
 25 24  1  6
 25 27  1  0
 26 25  1  0
 28 27  1  6
 28 29  1  0
 28 30  1  0
 30 32  1  0
 31 30  2  0
M  END
$$$$
