EWL.pdb
     RDKit          3D

 32 33  0  0  1  0  0  0  0  0999 V2000
   25.8188  -19.5158  -14.2397 N   0  0  0  0  0  0  0  0  0  0  0  0
   26.0640  -20.9350  -14.1048 C   0  0  1  0  0  0  0  0  0  0  0  0
   27.3436  -21.2819  -14.7708 C   0  0  0  0  0  0  0  0  0  0  0  0
   27.9783  -20.1665  -15.5390 C   0  0  0  0  0  0  0  0  0  0  0  0
   27.8890  -20.2459  -16.9878 C   0  0  0  0  0  0  0  0  0  0  0  0
   27.0272  -19.6165  -17.6402 O   0  0  0  0  0  0  0  0  0  0  0  0
   26.1046  -21.2529  -12.6318 C   0  0  0  0  0  0  0  0  0  0  0  0
   26.2820  -22.4402  -12.2470 O   0  0  0  0  0  0  0  0  0  0  0  0
   28.7711  -21.0394  -17.7487 O   0  0  0  0  0  0  0  0  0  0  0  0
   25.9514  -20.2472  -11.6557 N   0  0  0  0  0  0  0  0  0  0  0  0
   25.9517  -20.4117  -10.2542 C   0  0  1  0  0  0  0  0  0  0  0  0
   26.7538  -19.4996   -9.4211 C   0  0  0  0  0  0  0  0  0  0  0  0
   27.7153  -20.1490   -8.5022 C   0  0  0  0  0  0  0  0  0  0  0  0
   28.5114  -21.2596   -8.7563 C   0  0  0  0  0  0  0  0  0  0  0  0
   29.2655  -21.5208   -7.6725 N   0  0  0  0  0  0  0  0  0  0  0  0
   28.9877  -20.6188   -6.7204 C   0  0  0  0  0  0  0  0  0  0  0  0
   29.4766  -20.4528   -5.4392 C   0  0  0  0  0  0  0  0  0  0  0  0
   28.9762  -19.4045   -4.6723 C   0  0  0  0  0  0  0  0  0  0  0  0
   28.0188  -18.5502   -5.1686 C   0  0  0  0  0  0  0  0  0  0  0  0
   27.5580  -18.7424   -6.4377 C   0  0  0  0  0  0  0  0  0  0  0  0
   28.0357  -19.7727   -7.2229 C   0  0  0  0  0  0  0  0  0  0  0  0
   24.5698  -20.6106   -9.6663 C   0  0  0  0  0  0  0  0  0  0  0  0
   23.5895  -19.8808  -10.0295 O   0  0  0  0  0  0  0  0  0  0  0  0
   23.3894  -25.3697   -6.9293 C   0  0  0  0  0  0  0  0  0  0  0  0
   23.1995  -24.2388   -7.9860 C   0  0  1  0  0  0  0  0  0  0  0  0
   21.9546  -24.7014   -8.7565 C   0  0  0  0  0  0  0  0  0  0  0  0
   22.9771  -22.9570   -7.2917 C   0  0  0  0  0  0  0  0  0  0  0  0
   22.9182  -21.7034   -8.0782 C   0  0  2  0  0  0  0  0  0  0  0  0
   24.2771  -21.5864   -8.7071 N   0  0  0  0  0  0  0  0  0  0  0  0
   22.6167  -20.4448   -7.4412 C   0  0  0  0  0  0  0  0  0  0  0  0
   23.5530  -19.5963   -7.2274 O   0  0  0  0  0  0  0  0  0  0  0  0
   21.3637  -20.0627   -7.0370 O   0  0  0  0  0  0  0  0  0  0  0  0
  2  3  1  0
  2  1  1  1
  3  4  1  0
  4  5  1  0
  5  9  1  0
  6  5  2  0
  7  2  1  0
  8  7  2  0
 10  7  1  0
 11 10  1  0
 12 13  1  0
 11 12  1  1
 13 14  2  0
 14 15  1  0
 16 17  2  0
 16 15  1  0
 18 17  1  0
 19 18  2  0
 20 19  1  0
 20 21  2  0
 21 13  1  0
 21 16  1  0
 22 29  1  0
 22 11  1  0
 23 22  2  0
 25 24  1  1
 25 27  1  0
 26 25  1  0
 28 27  1  1
 28 29  1  0
 28 30  1  0
 30 32  1  0
 31 30  2  0
M  END
$$$$
