EWL.pdb
     RDKit          3D

 32 33  0  0  1  0  0  0  0  0999 V2000
   27.0230  -19.3166  -17.5040 N   0  0  0  0  0  0  0  0  0  0  0  0
   26.6916  -20.7242  -17.4704 C   0  0  1  0  0  0  0  0  0  0  0  0
   27.6501  -21.4789  -18.3149 C   0  0  0  0  0  0  0  0  0  0  0  0
   27.9000  -20.8900  -19.6668 C   0  0  0  0  0  0  0  0  0  0  0  0
   26.7785  -20.8944  -20.5918 C   0  0  0  0  0  0  0  0  0  0  0  0
   25.9763  -21.8513  -20.6657 O   0  0  0  0  0  0  0  0  0  0  0  0
   26.7512  -21.1726  -16.0324 C   0  0  0  0  0  0  0  0  0  0  0  0
   26.5629  -22.3845  -15.7409 O   0  0  0  0  0  0  0  0  0  0  0  0
   26.5254  -19.8172  -21.4648 O   0  0  0  0  0  0  0  0  0  0  0  0
   27.0187  -20.2650  -14.9873 N   0  0  0  0  0  0  0  0  0  0  0  0
   26.9674  -20.5217  -13.6006 C   0  0  1  0  0  0  0  0  0  0  0  0
   27.8771  -19.7951  -12.6985 C   0  0  0  0  0  0  0  0  0  0  0  0
   28.2538  -20.5080  -11.4573 C   0  0  0  0  0  0  0  0  0  0  0  0
   29.0635  -21.6314  -11.3386 C   0  0  0  0  0  0  0  0  0  0  0  0
   29.1812  -21.9566  -10.0380 N   0  0  0  0  0  0  0  0  0  0  0  0
   28.4754  -21.0840   -9.3048 C   0  0  0  0  0  0  0  0  0  0  0  0
   28.2679  -20.9822   -7.9429 C   0  0  0  0  0  0  0  0  0  0  0  0
   27.4611  -19.9497   -7.4734 C   0  0  0  0  0  0  0  0  0  0  0  0
   26.8804  -19.0486   -8.3357 C   0  0  0  0  0  0  0  0  0  0  0  0
   27.1061  -19.1778   -9.6744 C   0  0  0  0  0  0  0  0  0  0  0  0
   27.9023  -20.1910  -10.1702 C   0  0  0  0  0  0  0  0  0  0  0  0
   25.5600  -20.5550  -13.0414 C   0  0  0  0  0  0  0  0  0  0  0  0
   24.8830  -19.4839  -12.9002 O   0  0  0  0  0  0  0  0  0  0  0  0
   22.3139  -20.7813   -9.5001 C   0  0  0  0  0  0  0  0  0  0  0  0
   23.8309  -20.8805   -9.1528 C   0  0  1  0  0  0  0  0  0  0  0  0
   23.8745  -22.0494   -8.1583 C   0  0  0  0  0  0  0  0  0  0  0  0
   24.5930  -21.1694  -10.3817 C   0  0  0  0  0  0  0  0  0  0  0  0
   23.8970  -21.7592  -11.5485 C   0  0  2  0  0  0  0  0  0  0  0  0
   24.9174  -21.7349  -12.6504 N   0  0  0  0  0  0  0  0  0  0  0  0
   22.6822  -21.1722  -12.0587 C   0  0  0  0  0  0  0  0  0  0  0  0
   22.6103  -19.9051  -12.2366 O   0  0  0  0  0  0  0  0  0  0  0  0
   21.5580  -21.8841  -12.3887 O   0  0  0  0  0  0  0  0  0  0  0  0
  2  3  1  0
  2  1  1  1
  3  4  1  0
  4  5  1  0
  5  9  1  0
  6  5  2  0
  7  2  1  0
  8  7  2  0
 10  7  1  0
 11 10  1  0
 12 13  1  0
 11 12  1  1
 13 14  2  0
 14 15  1  0
 16 17  2  0
 16 15  1  0
 18 17  1  0
 19 18  2  0
 20 19  1  0
 20 21  2  0
 21 13  1  0
 21 16  1  0
 22 29  1  0
 22 11  1  0
 23 22  2  0
 25 24  1  6
 25 27  1  0
 26 25  1  0
 28 27  1  1
 28 29  1  0
 28 30  1  0
 30 32  1  0
 31 30  2  0
M  END
$$$$
