EWL.pdb
     RDKit          3D

 32 33  0  0  1  0  0  0  0  0999 V2000
   22.7971  -17.5539  -18.6055 N   0  0  0  0  0  0  0  0  0  0  0  0
   22.2485  -18.2673  -17.4730 C   0  0  1  0  0  0  0  0  0  0  0  0
   21.5987  -19.5160  -17.9419 C   0  0  0  0  0  0  0  0  0  0  0  0
   22.1194  -20.0504  -19.2382 C   0  0  0  0  0  0  0  0  0  0  0  0
   21.1330  -20.5965  -20.1559 C   0  0  0  0  0  0  0  0  0  0  0  0
   20.2222  -19.8974  -20.6522 O   0  0  0  0  0  0  0  0  0  0  0  0
   23.3831  -18.5582  -16.5241 C   0  0  0  0  0  0  0  0  0  0  0  0
   24.5588  -18.6758  -16.9632 O   0  0  0  0  0  0  0  0  0  0  0  0
   21.1426  -21.9515  -20.5439 O   0  0  0  0  0  0  0  0  0  0  0  0
   23.1672  -18.7017  -15.1382 N   0  0  0  0  0  0  0  0  0  0  0  0
   24.1357  -18.9682  -14.1472 C   0  0  1  0  0  0  0  0  0  0  0  0
   23.8176  -18.6935  -12.7355 C   0  0  0  0  0  0  0  0  0  0  0  0
   24.9381  -18.8569  -11.7823 C   0  0  0  0  0  0  0  0  0  0  0  0
   26.1552  -18.1859  -11.7831 C   0  0  0  0  0  0  0  0  0  0  0  0
   26.8907  -18.6021  -10.7357 N   0  0  0  0  0  0  0  0  0  0  0  0
   26.1949  -19.5220  -10.0524 C   0  0  0  0  0  0  0  0  0  0  0  0
   26.4987  -20.2515   -8.9194 C   0  0  0  0  0  0  0  0  0  0  0  0
   25.5536  -21.1556   -8.4432 C   0  0  0  0  0  0  0  0  0  0  0  0
   24.3448  -21.3258   -9.0779 C   0  0  0  0  0  0  0  0  0  0  0  0
   24.0769  -20.5894  -10.1940 C   0  0  0  0  0  0  0  0  0  0  0  0
   24.9940  -19.6841  -10.6899 C   0  0  0  0  0  0  0  0  0  0  0  0
   24.8049  -20.3186  -14.3003 C   0  0  0  0  0  0  0  0  0  0  0  0
   24.1296  -21.3565  -14.6039 O   0  0  0  0  0  0  0  0  0  0  0  0
   29.5355  -20.9791  -16.8149 C   0  0  0  0  0  0  0  0  0  0  0  0
   28.0779  -21.0319  -16.2630 C   0  0  1  0  0  0  0  0  0  0  0  0
   27.3548  -21.9024  -17.3006 C   0  0  0  0  0  0  0  0  0  0  0  0
   28.0865  -21.6546  -14.9263 C   0  0  0  0  0  0  0  0  0  0  0  0
   26.8044  -21.8806  -14.2200 C   0  0  2  0  0  0  0  0  0  0  0  0
   26.1787  -20.5184  -14.1252 N   0  0  0  0  0  0  0  0  0  0  0  0
   26.7797  -22.4704  -12.9039 C   0  0  0  0  0  0  0  0  0  0  0  0
   26.4291  -21.7642  -11.8936 O   0  0  0  0  0  0  0  0  0  0  0  0
   27.1048  -23.7746  -12.6342 O   0  0  0  0  0  0  0  0  0  0  0  0
  2  3  1  0
  2  1  1  6
  3  4  1  0
  4  5  1  0
  5  9  1  0
  6  5  2  0
  7  2  1  0
  8  7  2  0
 10  7  1  0
 11 10  1  0
 12 13  1  0
 11 12  1  1
 13 14  2  0
 14 15  1  0
 16 17  2  0
 16 15  1  0
 18 17  1  0
 19 18  2  0
 20 19  1  0
 20 21  2  0
 21 13  1  0
 21 16  1  0
 22 29  1  0
 22 11  1  0
 23 22  2  0
 25 24  1  6
 25 27  1  0
 26 25  1  0
 28 27  1  1
 28 29  1  0
 28 30  1  0
 30 32  1  0
 31 30  2  0
M  END
$$$$
