EWL.pdb
     RDKit          3D

 32 33  0  0  1  0  0  0  0  0999 V2000
   28.4360  -21.4301  -15.0596 N   0  0  0  0  0  0  0  0  0  0  0  0
   27.9270  -20.3298  -14.2704 C   0  0  1  0  0  0  0  0  0  0  0  0
   27.3796  -19.2858  -15.1714 C   0  0  0  0  0  0  0  0  0  0  0  0
   28.3921  -18.6022  -16.0342 C   0  0  0  0  0  0  0  0  0  0  0  0
   28.3669  -18.9351  -17.4491 C   0  0  0  0  0  0  0  0  0  0  0  0
   27.3320  -18.8271  -18.1432 O   0  0  0  0  0  0  0  0  0  0  0  0
   26.8646  -20.8796  -13.3532 C   0  0  0  0  0  0  0  0  0  0  0  0
   26.1363  -21.8360  -13.7327 O   0  0  0  0  0  0  0  0  0  0  0  0
   29.5110  -19.4013  -18.1277 O   0  0  0  0  0  0  0  0  0  0  0  0
   26.6592  -20.3514  -12.0622 N   0  0  0  0  0  0  0  0  0  0  0  0
   25.6839  -20.7489  -11.1231 C   0  0  1  0  0  0  0  0  0  0  0  0
   25.8913  -20.4476   -9.6964 C   0  0  0  0  0  0  0  0  0  0  0  0
   27.2312  -20.7758   -9.1600 C   0  0  0  0  0  0  0  0  0  0  0  0
   28.1866  -21.6137   -9.7228 C   0  0  0  0  0  0  0  0  0  0  0  0
   29.2804  -21.6273   -8.9388 N   0  0  0  0  0  0  0  0  0  0  0  0
   29.0704  -20.8273   -7.8837 C   0  0  0  0  0  0  0  0  0  0  0  0
   29.8648  -20.5050   -6.8006 C   0  0  0  0  0  0  0  0  0  0  0  0
   29.3542  -19.6325   -5.8438 C   0  0  0  0  0  0  0  0  0  0  0  0
   28.0916  -19.0996   -5.9646 C   0  0  0  0  0  0  0  0  0  0  0  0
   27.3338  -19.4387   -7.0465 C   0  0  0  0  0  0  0  0  0  0  0  0
   27.8130  -20.3009   -8.0126 C   0  0  0  0  0  0  0  0  0  0  0  0
   24.2661  -20.4241  -11.5464 C   0  0  0  0  0  0  0  0  0  0  0  0
   23.9563  -19.2623  -11.9702 O   0  0  0  0  0  0  0  0  0  0  0  0
   20.7566  -22.5996  -15.4201 C   0  0  0  0  0  0  0  0  0  0  0  0
   20.5572  -21.7397  -14.1346 C   0  0  1  0  0  0  0  0  0  0  0  0
   19.3031  -22.3609  -13.5032 C   0  0  0  0  0  0  0  0  0  0  0  0
   21.7417  -21.8797  -13.2675 C   0  0  0  0  0  0  0  0  0  0  0  0
   21.8564  -21.0433  -12.0506 C   0  0  2  0  0  0  0  0  0  0  0  0
   23.2209  -21.3534  -11.5047 N   0  0  0  0  0  0  0  0  0  0  0  0
   20.9087  -21.1750  -10.9712 C   0  0  0  0  0  0  0  0  0  0  0  0
   21.0649  -22.0945  -10.0922 O   0  0  0  0  0  0  0  0  0  0  0  0
   19.8177  -20.3635  -10.7959 O   0  0  0  0  0  0  0  0  0  0  0  0
  2  3  1  0
  2  1  1  6
  3  4  1  0
  4  5  1  0
  5  9  1  0
  6  5  2  0
  7  2  1  0
  8  7  2  0
 10  7  1  0
 11 10  1  0
 12 13  1  0
 11 12  1  1
 13 14  2  0
 14 15  1  0
 16 17  2  0
 16 15  1  0
 18 17  1  0
 19 18  2  0
 20 19  1  0
 20 21  2  0
 21 13  1  0
 21 16  1  0
 22 29  1  0
 22 11  1  0
 23 22  2  0
 25 24  1  6
 25 27  1  0
 26 25  1  0
 28 27  1  6
 28 29  1  0
 28 30  1  0
 30 32  1  0
 31 30  2  0
M  END
$$$$
