YPT.pdb
     RDKit          3D

 27 28  0  0  1  0  0  0  0  0999 V2000
   21.8013  -20.9249   -9.5778 O   0  0  0  0  0  0  0  0  0  0  0  0
   23.1035  -20.8217  -10.0820 C   0  0  0  0  0  0  0  0  0  0  0  0
   23.3404  -21.1006  -11.4109 C   0  0  0  0  0  0  0  0  0  0  0  0
   24.6368  -20.9963  -11.9064 C   0  0  0  0  0  0  0  0  0  0  0  0
   25.6878  -20.6226  -11.1071 C   0  0  0  0  0  0  0  0  0  0  0  0
   27.0528  -20.5074  -11.6408 C   0  0  0  0  0  0  0  0  0  0  0  0
   27.2313  -21.3253  -12.9065 C   0  0  2  0  0  0  0  0  0  0  0  0
   28.5730  -21.3662  -13.2691 N   0  0  0  0  0  0  0  0  0  0  0  0
   26.2482  -20.9664  -13.9406 C   0  0  0  0  0  0  0  0  0  0  0  0
   26.3585  -19.7745  -14.3951 O   0  0  0  0  0  0  0  0  0  0  0  0
   25.4236  -20.3502   -9.7849 C   0  0  0  0  0  0  0  0  0  0  0  0
   24.1417  -20.4450   -9.2599 C   0  0  0  0  0  0  0  0  0  0  0  0
   25.2272  -21.7718  -14.4684 N   0  0  0  0  0  0  0  0  0  0  0  0
   24.6342  -22.9923  -13.9702 C   0  0  0  0  0  0  0  0  0  0  0  0
   24.2816  -23.7530  -15.2069 C   0  0  0  0  0  0  0  0  0  0  0  0
   24.5326  -22.8467  -16.3811 C   0  0  0  0  0  0  0  0  0  0  0  0
   24.5251  -21.4897  -15.7170 C   0  0  1  0  0  0  0  0  0  0  0  0
   23.1175  -21.0950  -15.4794 C   0  0  0  0  0  0  0  0  0  0  0  0
   22.4436  -21.5699  -14.5346 O   0  0  0  0  0  0  0  0  0  0  0  0
   22.1468  -17.9914  -14.2665 C   0  0  0  0  0  0  0  0  0  0  0  0
   21.4438  -18.0752  -15.5770 C   0  0  1  0  0  0  0  0  0  0  0  0
   22.0749  -17.4309  -16.6131 O   0  0  0  0  0  0  0  0  0  0  0  0
   21.2161  -19.5219  -15.9559 C   0  0  2  0  0  0  0  0  0  0  0  0
   22.4701  -20.1537  -16.3214 N   0  0  0  0  0  0  0  0  0  0  0  0
   20.2672  -19.5923  -17.0796 C   0  0  0  0  0  0  0  0  0  0  0  0
   18.9404  -19.2851  -16.8718 O   0  0  0  0  0  0  0  0  0  0  0  0
   20.6520  -19.9276  -18.2196 O   0  0  0  0  0  0  0  0  0  0  0  0
  1  2  1  0
  2  3  2  0
  3  4  1  0
  5  6  1  0
  5  4  2  0
  7  6  1  0
  7  9  1  0
  7  8  1  6
  9 13  1  0
 10  9  2  0
 11  5  1  0
 12 11  2  0
 12  2  1  0
 13 17  1  0
 13 14  1  0
 14 15  1  0
 16 15  1  0
 17 16  1  0
 18 19  2  0
 17 18  1  1
 21 20  1  1
 21 22  1  0
 23 21  1  0
 23 24  1  6
 24 18  1  0
 25 23  1  0
 26 25  1  0
 27 25  2  0
M  END
$$$$
