YPT.pdb
     RDKit          3D

 27 28  0  0  1  0  0  0  0  0999 V2000
   28.5089  -19.4122   -4.9665 O   0  0  0  0  0  0  0  0  0  0  0  0
   27.9701  -19.8648   -6.1770 C   0  0  0  0  0  0  0  0  0  0  0  0
   28.8166  -20.2331   -7.2007 C   0  0  0  0  0  0  0  0  0  0  0  0
   28.2752  -20.6822   -8.4016 C   0  0  0  0  0  0  0  0  0  0  0  0
   26.9195  -20.7689   -8.5953 C   0  0  0  0  0  0  0  0  0  0  0  0
   26.3564  -21.2519   -9.8646 C   0  0  0  0  0  0  0  0  0  0  0  0
   25.4727  -20.2069  -10.5202 C   0  0  2  0  0  0  0  0  0  0  0  0
   24.2166  -20.1947   -9.9242 N   0  0  0  0  0  0  0  0  0  0  0  0
   25.5386  -20.2689  -11.9887 C   0  0  0  0  0  0  0  0  0  0  0  0
   24.4012  -20.2876  -12.5764 O   0  0  0  0  0  0  0  0  0  0  0  0
   26.0975  -20.3949   -7.5576 C   0  0  0  0  0  0  0  0  0  0  0  0
   26.6061  -19.9426   -6.3474 C   0  0  0  0  0  0  0  0  0  0  0  0
   26.6875  -20.3092  -12.7938 N   0  0  0  0  0  0  0  0  0  0  0  0
   28.0740  -20.5311  -12.4505 C   0  0  0  0  0  0  0  0  0  0  0  0
   28.8273  -19.6983  -13.4362 C   0  0  0  0  0  0  0  0  0  0  0  0
   27.8316  -19.1626  -14.4286 C   0  0  0  0  0  0  0  0  0  0  0  0
   26.6792  -20.1216  -14.2416 C   0  0  1  0  0  0  0  0  0  0  0  0
   26.9963  -21.3769  -14.9608 C   0  0  0  0  0  0  0  0  0  0  0  0
   27.6776  -22.2901  -14.4368 O   0  0  0  0  0  0  0  0  0  0  0  0
   25.5570  -23.6959  -14.5028 C   0  0  0  0  0  0  0  0  0  0  0  0
   25.0525  -23.4861  -15.8885 C   0  0  1  0  0  0  0  0  0  0  0  0
   23.9356  -22.6920  -15.9824 O   0  0  0  0  0  0  0  0  0  0  0  0
   26.1464  -22.9111  -16.7610 C   0  0  2  0  0  0  0  0  0  0  0  0
   26.5363  -21.5970  -16.2852 N   0  0  0  0  0  0  0  0  0  0  0  0
   25.6716  -22.8255  -18.1522 C   0  0  0  0  0  0  0  0  0  0  0  0
   25.6310  -23.9620  -18.9298 O   0  0  0  0  0  0  0  0  0  0  0  0
   25.3053  -21.7335  -18.6353 O   0  0  0  0  0  0  0  0  0  0  0  0
  1  2  1  0
  2  3  2  0
  3  4  1  0
  5  6  1  0
  5  4  2  0
  7  6  1  0
  7  9  1  0
  7  8  1  6
  9 13  1  0
 10  9  2  0
 11  5  1  0
 12 11  2  0
 12  2  1  0
 13 17  1  0
 13 14  1  0
 14 15  1  0
 16 15  1  0
 17 16  1  0
 18 19  2  0
 17 18  1  6
 21 20  1  1
 21 22  1  0
 23 21  1  0
 23 24  1  1
 24 18  1  0
 25 23  1  0
 26 25  1  0
 27 25  2  0
M  END
$$$$
