YPT.pdb
     RDKit          3D

 27 28  0  0  1  0  0  0  0  0999 V2000
   22.5205  -18.7832  -19.3585 O   0  0  0  0  0  0  0  0  0  0  0  0
   22.8187  -18.7849  -17.9905 C   0  0  0  0  0  0  0  0  0  0  0  0
   22.2146  -17.8625  -17.1634 C   0  0  0  0  0  0  0  0  0  0  0  0
   22.5150  -17.8691  -15.8044 C   0  0  0  0  0  0  0  0  0  0  0  0
   23.3973  -18.7704  -15.2639 C   0  0  0  0  0  0  0  0  0  0  0  0
   23.7027  -18.7752  -13.8258 C   0  0  0  0  0  0  0  0  0  0  0  0
   23.0548  -19.9512  -13.1185 C   0  0  2  0  0  0  0  0  0  0  0  0
   21.6720  -19.8065  -13.1100 N   0  0  0  0  0  0  0  0  0  0  0  0
   23.7227  -20.2683  -11.8465 C   0  0  0  0  0  0  0  0  0  0  0  0
   23.0005  -20.0952  -10.8035 O   0  0  0  0  0  0  0  0  0  0  0  0
   23.9860  -19.6799  -16.1116 C   0  0  0  0  0  0  0  0  0  0  0  0
   23.7078  -19.6994  -17.4718 C   0  0  0  0  0  0  0  0  0  0  0  0
   25.0354  -20.7285  -11.6596 N   0  0  0  0  0  0  0  0  0  0  0  0
   26.1874  -20.6770  -12.5312 C   0  0  0  0  0  0  0  0  0  0  0  0
   26.9418  -21.9251  -12.2062 C   0  0  0  0  0  0  0  0  0  0  0  0
   26.2703  -22.5623  -11.0204 C   0  0  0  0  0  0  0  0  0  0  0  0
   25.5050  -21.3925  -10.4471 C   0  0  1  0  0  0  0  0  0  0  0  0
   26.4514  -20.5442   -9.6868 C   0  0  0  0  0  0  0  0  0  0  0  0
   27.4200  -19.9691  -10.2378 O   0  0  0  0  0  0  0  0  0  0  0  0
   27.7532  -17.7449   -8.4754 C   0  0  0  0  0  0  0  0  0  0  0  0
   27.3869  -18.4529   -7.2172 C   0  0  1  0  0  0  0  0  0  0  0  0
   26.1767  -18.0869   -6.6800 O   0  0  0  0  0  0  0  0  0  0  0  0
   27.4011  -19.9495   -7.4371 C   0  0  2  0  0  0  0  0  0  0  0  0
   26.2967  -20.3473   -8.2899 N   0  0  0  0  0  0  0  0  0  0  0  0
   27.3117  -20.6381   -6.1386 C   0  0  0  0  0  0  0  0  0  0  0  0
   28.2844  -20.4265   -5.1862 O   0  0  0  0  0  0  0  0  0  0  0  0
   26.3633  -21.4122   -5.8909 O   0  0  0  0  0  0  0  0  0  0  0  0
  1  2  1  0
  2  3  2  0
  3  4  1  0
  5  6  1  0
  5  4  2  0
  7  6  1  0
  7  9  1  0
  7  8  1  1
  9 13  1  0
 10  9  2  0
 11  5  1  0
 12 11  2  0
 12  2  1  0
 13 17  1  0
 13 14  1  0
 14 15  1  0
 16 15  1  0
 17 16  1  0
 18 19  2  0
 17 18  1  6
 21 20  1  6
 21 22  1  0
 23 21  1  0
 23 24  1  6
 24 18  1  0
 25 23  1  0
 26 25  1  0
 27 25  2  0
M  END
$$$$
