YPT.pdb
     RDKit          3D

 27 28  0  0  1  0  0  0  0  0999 V2000
   19.2451  -24.2471  -11.3740 O   0  0  0  0  0  0  0  0  0  0  0  0
   18.6264  -24.2795  -10.1184 C   0  0  0  0  0  0  0  0  0  0  0  0
   19.1736  -25.0464   -9.1121 C   0  0  0  0  0  0  0  0  0  0  0  0
   18.5541  -25.0746   -7.8662 C   0  0  0  0  0  0  0  0  0  0  0  0
   17.4116  -24.3586   -7.6110 C   0  0  0  0  0  0  0  0  0  0  0  0
   16.7683  -24.3882   -6.2893 C   0  0  0  0  0  0  0  0  0  0  0  0
   15.8898  -25.6139   -6.1201 C   0  0  2  0  0  0  0  0  0  0  0  0
   14.9364  -25.6673   -7.1308 N   0  0  0  0  0  0  0  0  0  0  0  0
   15.4325  -25.7797   -4.7315 C   0  0  0  0  0  0  0  0  0  0  0  0
   14.1710  -25.6410   -4.5619 O   0  0  0  0  0  0  0  0  0  0  0  0
   16.8865  -23.6019   -8.6327 C   0  0  0  0  0  0  0  0  0  0  0  0
   17.4803  -23.5525   -9.8868 C   0  0  0  0  0  0  0  0  0  0  0  0
   16.2132  -26.0661   -3.6009 N   0  0  0  0  0  0  0  0  0  0  0  0
   17.6474  -26.1455   -3.4389 C   0  0  0  0  0  0  0  0  0  0  0  0
   17.8350  -27.2010   -2.3982 C   0  0  0  0  0  0  0  0  0  0  0  0
   16.4727  -27.5648   -1.8739 C   0  0  0  0  0  0  0  0  0  0  0  0
   15.6644  -26.3544   -2.2791 C   0  0  1  0  0  0  0  0  0  0  0  0
   15.9448  -25.2636   -1.3173 C   0  0  0  0  0  0  0  0  0  0  0  0
   17.0651  -24.7037   -1.2541 O   0  0  0  0  0  0  0  0  0  0  0  0
   14.0928  -21.9397    1.8321 C   0  0  0  0  0  0  0  0  0  0  0  0
   13.8569  -23.1460    0.9908 C   0  0  1  0  0  0  0  0  0  0  0  0
   13.0184  -22.9487   -0.0793 O   0  0  0  0  0  0  0  0  0  0  0  0
   15.1733  -23.7025    0.4951 C   0  0  2  0  0  0  0  0  0  0  0  0
   14.9453  -24.8050   -0.4202 N   0  0  0  0  0  0  0  0  0  0  0  0
   15.9788  -24.1546    1.6417 C   0  0  0  0  0  0  0  0  0  0  0  0
   16.8324  -23.2714    2.2658 O   0  0  0  0  0  0  0  0  0  0  0  0
   15.8968  -25.3304    2.0550 O   0  0  0  0  0  0  0  0  0  0  0  0
  1  2  1  0
  2  3  2  0
  3  4  1  0
  5  6  1  0
  5  4  2  0
  7  6  1  0
  7  9  1  0
  7  8  1  6
  9 13  1  0
 10  9  2  0
 11  5  1  0
 12 11  2  0
 12  2  1  0
 13 17  1  0
 13 14  1  0
 14 15  1  0
 16 15  1  0
 17 16  1  0
 18 19  2  0
 17 18  1  1
 21 20  1  6
 21 22  1  0
 23 21  1  0
 23 24  1  6
 24 18  1  0
 25 23  1  0
 26 25  1  0
 27 25  2  0
M  END
$$$$
