YPT.pdb
     RDKit          3D

 27 28  0  0  1  0  0  0  0  0999 V2000
   19.2088  -21.3372  -15.8952 O   0  0  0  0  0  0  0  0  0  0  0  0
   19.7574  -20.0547  -16.0156 C   0  0  0  0  0  0  0  0  0  0  0  0
   18.9193  -18.9640  -16.1054 C   0  0  0  0  0  0  0  0  0  0  0  0
   19.4705  -17.6916  -16.2249 C   0  0  0  0  0  0  0  0  0  0  0  0
   20.8279  -17.4923  -16.2555 C   0  0  0  0  0  0  0  0  0  0  0  0
   21.4015  -16.1438  -16.3741 C   0  0  0  0  0  0  0  0  0  0  0  0
   21.5274  -15.7130  -17.8237 C   0  0  2  0  0  0  0  0  0  0  0  0
   22.3229  -16.6111  -18.5264 N   0  0  0  0  0  0  0  0  0  0  0  0
   21.8296  -14.2786  -17.9505 C   0  0  0  0  0  0  0  0  0  0  0  0
   23.0511  -14.0099  -18.2245 O   0  0  0  0  0  0  0  0  0  0  0  0
   21.6414  -18.5978  -16.1643 C   0  0  0  0  0  0  0  0  0  0  0  0
   21.1229  -19.8802  -16.0443 C   0  0  0  0  0  0  0  0  0  0  0  0
   20.9430  -13.2003  -17.8060 N   0  0  0  0  0  0  0  0  0  0  0  0
   19.5379  -13.1716  -17.4678 C   0  0  0  0  0  0  0  0  0  0  0  0
   19.0083  -11.9982  -18.2260 C   0  0  0  0  0  0  0  0  0  0  0  0
   20.1847  -11.2887  -18.8389 C   0  0  0  0  0  0  0  0  0  0  0  0
   21.3202  -11.8012  -17.9841 C   0  0  1  0  0  0  0  0  0  0  0  0
   21.3086  -11.0608  -16.7014 C   0  0  0  0  0  0  0  0  0  0  0  0
   20.5787  -11.4043  -15.7413 O   0  0  0  0  0  0  0  0  0  0  0  0
   24.2250  -10.8100  -14.5610 C   0  0  0  0  0  0  0  0  0  0  0  0
   23.8212   -9.4022  -14.8324 C   0  0  1  0  0  0  0  0  0  0  0  0
   24.5549   -8.7685  -15.8056 O   0  0  0  0  0  0  0  0  0  0  0  0
   22.3542   -9.3407  -15.1964 C   0  0  2  0  0  0  0  0  0  0  0  0
   22.1322   -9.9215  -16.5074 N   0  0  0  0  0  0  0  0  0  0  0  0
   21.9019   -7.9395  -15.1802 C   0  0  0  0  0  0  0  0  0  0  0  0
   21.8006   -7.2697  -13.9805 O   0  0  0  0  0  0  0  0  0  0  0  0
   21.6091   -7.3513  -16.2423 O   0  0  0  0  0  0  0  0  0  0  0  0
  1  2  1  0
  2  3  2  0
  3  4  1  0
  5  6  1  0
  5  4  2  0
  7  6  1  0
  7  9  1  0
  7  8  1  1
  9 13  1  0
 10  9  2  0
 11  5  1  0
 12 11  2  0
 12  2  1  0
 13 17  1  0
 13 14  1  0
 14 15  1  0
 16 15  1  0
 17 16  1  0
 18 19  2  0
 17 18  1  1
 21 20  1  6
 21 22  1  0
 23 21  1  0
 23 24  1  6
 24 18  1  0
 25 23  1  0
 26 25  1  0
 27 25  2  0
M  END
$$$$
