YPT.pdb
     RDKit          3D

 27 28  0  0  1  0  0  0  0  0999 V2000
   16.0254  -15.4990  -19.8644 O   0  0  0  0  0  0  0  0  0  0  0  0
   16.8112  -14.5209  -19.2429 C   0  0  0  0  0  0  0  0  0  0  0  0
   17.0321  -14.5907  -17.8841 C   0  0  0  0  0  0  0  0  0  0  0  0
   17.8140  -13.6156  -17.2719 C   0  0  0  0  0  0  0  0  0  0  0  0
   18.3724  -12.5846  -17.9849 C   0  0  0  0  0  0  0  0  0  0  0  0
   19.2036  -11.5632  -17.3312 C   0  0  0  0  0  0  0  0  0  0  0  0
   20.6655  -11.6999  -17.7145 C   0  0  2  0  0  0  0  0  0  0  0  0
   21.1074  -12.9965  -17.4762 N   0  0  0  0  0  0  0  0  0  0  0  0
   21.4793  -10.5882  -17.1980 C   0  0  0  0  0  0  0  0  0  0  0  0
   22.2135  -10.8833  -16.1914 O   0  0  0  0  0  0  0  0  0  0  0  0
   18.1360  -12.5386  -19.3393 C   0  0  0  0  0  0  0  0  0  0  0  0
   17.3606  -13.4958  -19.9799 C   0  0  0  0  0  0  0  0  0  0  0  0
   21.5345   -9.2710  -17.6794 N   0  0  0  0  0  0  0  0  0  0  0  0
   20.8237   -8.6310  -18.7633 C   0  0  0  0  0  0  0  0  0  0  0  0
   21.7996   -7.6321  -19.2944 C   0  0  0  0  0  0  0  0  0  0  0  0
   22.9839   -7.6209  -18.3668 C   0  0  0  0  0  0  0  0  0  0  0  0
   22.3900   -8.2297  -17.1180 C   0  0  1  0  0  0  0  0  0  0  0  0
   21.6022   -7.1872  -16.4207 C   0  0  0  0  0  0  0  0  0  0  0  0
   20.4377   -6.8852  -16.7745 O   0  0  0  0  0  0  0  0  0  0  0  0
   20.1977   -7.7823  -13.5130 C   0  0  0  0  0  0  0  0  0  0  0  0
   21.0311   -6.6025  -13.1494 C   0  0  1  0  0  0  0  0  0  0  0  0
   22.2218   -6.9041  -12.5345 O   0  0  0  0  0  0  0  0  0  0  0  0
   21.3039   -5.7584  -14.3747 C   0  0  2  0  0  0  0  0  0  0  0  0
   22.1410   -6.4823  -15.3131 N   0  0  0  0  0  0  0  0  0  0  0  0
   21.9627   -4.5048  -13.9713 C   0  0  0  0  0  0  0  0  0  0  0  0
   21.2425   -3.5419  -13.2989 O   0  0  0  0  0  0  0  0  0  0  0  0
   23.1677   -4.3047  -14.2321 O   0  0  0  0  0  0  0  0  0  0  0  0
  1  2  1  0
  2  3  2  0
  3  4  1  0
  5  6  1  0
  5  4  2  0
  7  6  1  0
  7  9  1  0
  7  8  1  1
  9 13  1  0
 10  9  2  0
 11  5  1  0
 12 11  2  0
 12  2  1  0
 13 17  1  0
 13 14  1  0
 14 15  1  0
 16 15  1  0
 17 16  1  0
 18 19  2  0
 17 18  1  6
 21 20  1  6
 21 22  1  0
 23 21  1  0
 23 24  1  6
 24 18  1  0
 25 23  1  0
 26 25  1  0
 27 25  2  0
M  END
$$$$
