YPT.pdb
     RDKit          3D

 27 28  0  0  1  0  0  0  0  0999 V2000
   27.1122  -13.2126  -18.4685 O   0  0  0  0  0  0  0  0  0  0  0  0
   26.6247  -14.3518  -17.8166 C   0  0  0  0  0  0  0  0  0  0  0  0
   27.1459  -14.7072  -16.5910 C   0  0  0  0  0  0  0  0  0  0  0  0
   26.6574  -15.8406  -15.9478 C   0  0  0  0  0  0  0  0  0  0  0  0
   25.6691  -16.6156  -16.5007 C   0  0  0  0  0  0  0  0  0  0  0  0
   25.1535  -17.8069  -15.8105 C   0  0  0  0  0  0  0  0  0  0  0  0
   25.9847  -19.0383  -16.1196 C   0  0  2  0  0  0  0  0  0  0  0  0
   25.6610  -19.5354  -17.3771 N   0  0  0  0  0  0  0  0  0  0  0  0
   26.0154  -19.9826  -14.9918 C   0  0  0  0  0  0  0  0  0  0  0  0
   25.1808  -20.9497  -15.0790 O   0  0  0  0  0  0  0  0  0  0  0  0
   25.1667  -16.2385  -17.7246 C   0  0  0  0  0  0  0  0  0  0  0  0
   25.6326  -15.1136  -18.3920 C   0  0  0  0  0  0  0  0  0  0  0  0
   26.8418  -19.9368  -13.8583 N   0  0  0  0  0  0  0  0  0  0  0  0
   27.8692  -18.9946  -13.4760 C   0  0  0  0  0  0  0  0  0  0  0  0
   28.8633  -19.8267  -12.7331 C   0  0  0  0  0  0  0  0  0  0  0  0
   28.2695  -21.1990  -12.5681 C   0  0  0  0  0  0  0  0  0  0  0  0
   26.8001  -20.9147  -12.7751 C   0  0  1  0  0  0  0  0  0  0  0  0
   26.2583  -20.3301  -11.5268 C   0  0  0  0  0  0  0  0  0  0  0  0
   26.5492  -19.1684  -11.1550 O   0  0  0  0  0  0  0  0  0  0  0  0
   22.8183  -19.6612  -11.1643 C   0  0  0  0  0  0  0  0  0  0  0  0
   23.1189  -20.5139   -9.9806 C   0  0  1  0  0  0  0  0  0  0  0  0
   22.7462  -21.8300  -10.1075 O   0  0  0  0  0  0  0  0  0  0  0  0
   24.5930  -20.4443   -9.6478 C   0  0  2  0  0  0  0  0  0  0  0  0
   25.3792  -21.0705  -10.6943 N   0  0  0  0  0  0  0  0  0  0  0  0
   24.8384  -21.1148   -8.3601 C   0  0  0  0  0  0  0  0  0  0  0  0
   24.3126  -20.5827   -7.2032 O   0  0  0  0  0  0  0  0  0  0  0  0
   25.5183  -22.1611   -8.3050 O   0  0  0  0  0  0  0  0  0  0  0  0
  1  2  1  0
  2  3  2  0
  3  4  1  0
  5  6  1  0
  5  4  2  0
  7  6  1  0
  7  9  1  0
  7  8  1  6
  9 13  1  0
 10  9  2  0
 11  5  1  0
 12 11  2  0
 12  2  1  0
 13 17  1  0
 13 14  1  0
 14 15  1  0
 16 15  1  0
 17 16  1  0
 18 19  2  0
 17 18  1  1
 21 20  1  6
 21 22  1  0
 23 21  1  0
 23 24  1  6
 24 18  1  0
 25 23  1  0
 26 25  1  0
 27 25  2  0
M  END
$$$$
