YPT.pdb
     RDKit          3D

 27 28  0  0  1  0  0  0  0  0999 V2000
   17.6479  -24.5865   -7.9259 O   0  0  0  0  0  0  0  0  0  0  0  0
   18.4225  -23.8076   -8.7940 C   0  0  0  0  0  0  0  0  0  0  0  0
   18.1361  -22.4673   -8.9410 C   0  0  0  0  0  0  0  0  0  0  0  0
   18.9095  -21.6981   -9.8054 C   0  0  0  0  0  0  0  0  0  0  0  0
   19.9515  -22.2379  -10.5166 C   0  0  0  0  0  0  0  0  0  0  0  0
   20.7683  -21.4161  -11.4216 C   0  0  0  0  0  0  0  0  0  0  0  0
   22.1399  -21.1323  -10.8376 C   0  0  2  0  0  0  0  0  0  0  0  0
   22.0181  -20.5652   -9.5739 N   0  0  0  0  0  0  0  0  0  0  0  0
   23.0283  -20.4722  -11.8069 C   0  0  0  0  0  0  0  0  0  0  0  0
   22.8026  -19.2235  -11.9777 O   0  0  0  0  0  0  0  0  0  0  0  0
   20.2156  -23.5778  -10.3514 C   0  0  0  0  0  0  0  0  0  0  0  0
   19.4629  -24.3723   -9.4971 C   0  0  0  0  0  0  0  0  0  0  0  0
   24.0710  -21.0517  -12.5463 N   0  0  0  0  0  0  0  0  0  0  0  0
   24.4922  -22.4294  -12.6651 C   0  0  0  0  0  0  0  0  0  0  0  0
   25.9726  -22.3395  -12.8462 C   0  0  0  0  0  0  0  0  0  0  0  0
   26.3209  -20.8842  -13.0002 C   0  0  0  0  0  0  0  0  0  0  0  0
   24.9863  -20.2990  -13.3990 C   0  0  1  0  0  0  0  0  0  0  0  0
   24.7620  -20.5859  -14.8347 C   0  0  0  0  0  0  0  0  0  0  0  0
   24.4400  -21.7271  -15.2429 O   0  0  0  0  0  0  0  0  0  0  0  0
   23.5671  -17.1274  -16.2637 C   0  0  0  0  0  0  0  0  0  0  0  0
   22.9381  -18.4154  -16.6688 C   0  0  1  0  0  0  0  0  0  0  0  0
   22.0969  -18.3318  -17.7515 O   0  0  0  0  0  0  0  0  0  0  0  0
   24.0039  -19.4526  -16.9460 C   0  0  2  0  0  0  0  0  0  0  0  0
   24.9045  -19.5691  -15.8143 N   0  0  0  0  0  0  0  0  0  0  0  0
   24.7554  -19.0744  -18.1544 C   0  0  0  0  0  0  0  0  0  0  0  0
   24.1840  -19.2504  -19.3956 O   0  0  0  0  0  0  0  0  0  0  0  0
   25.9057  -18.5957  -18.0666 O   0  0  0  0  0  0  0  0  0  0  0  0
  1  2  1  0
  2  3  2  0
  3  4  1  0
  5  6  1  0
  5  4  2  0
  7  6  1  0
  7  9  1  0
  7  8  1  1
  9 13  1  0
 10  9  2  0
 11  5  1  0
 12 11  2  0
 12  2  1  0
 13 17  1  0
 13 14  1  0
 14 15  1  0
 16 15  1  0
 17 16  1  0
 18 19  2  0
 17 18  1  6
 21 20  1  6
 21 22  1  0
 23 21  1  0
 23 24  1  1
 24 18  1  0
 25 23  1  0
 26 25  1  0
 27 25  2  0
M  END
$$$$
