YPT.pdb
     RDKit          3D

 27 28  0  0  1  0  0  0  0  0999 V2000
   17.3027  -31.8788   -1.9811 O   0  0  0  0  0  0  0  0  0  0  0  0
   17.1110  -30.6956   -2.7047 C   0  0  0  0  0  0  0  0  0  0  0  0
   17.4728  -30.6471   -4.0339 C   0  0  0  0  0  0  0  0  0  0  0  0
   17.2799  -29.4682   -4.7479 C   0  0  0  0  0  0  0  0  0  0  0  0
   16.7380  -28.3505   -4.1644 C   0  0  0  0  0  0  0  0  0  0  0  0
   16.5305  -27.1118   -4.9285 C   0  0  0  0  0  0  0  0  0  0  0  0
   17.8290  -26.3529   -5.1306 C   0  0  2  0  0  0  0  0  0  0  0  0
   18.3116  -25.8898   -3.9116 N   0  0  0  0  0  0  0  0  0  0  0  0
   17.7438  -25.3976   -6.2463 C   0  0  0  0  0  0  0  0  0  0  0  0
   17.6939  -24.1670   -5.8963 O   0  0  0  0  0  0  0  0  0  0  0  0
   16.3859  -28.4261   -2.8368 C   0  0  0  0  0  0  0  0  0  0  0  0
   16.5656  -29.5871   -2.0968 C   0  0  0  0  0  0  0  0  0  0  0  0
   17.7116  -25.6849   -7.6197 N   0  0  0  0  0  0  0  0  0  0  0  0
   17.6242  -26.9472   -8.3187 C   0  0  0  0  0  0  0  0  0  0  0  0
   18.4134  -26.7233   -9.5674 C   0  0  0  0  0  0  0  0  0  0  0  0
   18.7799  -25.2651   -9.6143 C   0  0  0  0  0  0  0  0  0  0  0  0
   17.7615  -24.6714   -8.6693 C   0  0  1  0  0  0  0  0  0  0  0  0
   16.4706  -24.5582   -9.3865 C   0  0  0  0  0  0  0  0  0  0  0  0
   15.7469  -25.5564   -9.6155 O   0  0  0  0  0  0  0  0  0  0  0  0
   13.6439  -22.1619   -8.3633 C   0  0  0  0  0  0  0  0  0  0  0  0
   14.0048  -21.9049   -9.7854 C   0  0  1  0  0  0  0  0  0  0  0  0
   14.8125  -20.8124   -9.9879 O   0  0  0  0  0  0  0  0  0  0  0  0
   14.6622  -23.1277  -10.3864 C   0  0  2  0  0  0  0  0  0  0  0  0
   15.9979  -23.3019   -9.8472 N   0  0  0  0  0  0  0  0  0  0  0  0
   14.7221  -22.9840  -11.8506 C   0  0  0  0  0  0  0  0  0  0  0  0
   13.5544  -22.9561  -12.5812 O   0  0  0  0  0  0  0  0  0  0  0  0
   15.8202  -22.8871  -12.4378 O   0  0  0  0  0  0  0  0  0  0  0  0
  1  2  1  0
  2  3  2  0
  3  4  1  0
  5  6  1  0
  5  4  2  0
  7  6  1  0
  7  9  1  0
  7  8  1  1
  9 13  1  0
 10  9  2  0
 11  5  1  0
 12 11  2  0
 12  2  1  0
 13 17  1  0
 13 14  1  0
 14 15  1  0
 16 15  1  0
 17 16  1  0
 18 19  2  0
 17 18  1  6
 21 20  1  1
 21 22  1  0
 23 21  1  0
 23 24  1  1
 24 18  1  0
 25 23  1  0
 26 25  1  0
 27 25  2  0
M  END
$$$$
