YPT.pdb
     RDKit          3D

 27 28  0  0  1  0  0  0  0  0999 V2000
   22.5240  -14.8232  -22.6678 O   0  0  0  0  0  0  0  0  0  0  0  0
   22.2680  -13.7117  -21.8559 C   0  0  0  0  0  0  0  0  0  0  0  0
   21.9701  -12.4992  -22.4400 C   0  0  0  0  0  0  0  0  0  0  0  0
   21.7165  -11.3979  -21.6277 C   0  0  0  0  0  0  0  0  0  0  0  0
   21.7545  -11.4857  -20.2588 C   0  0  0  0  0  0  0  0  0  0  0  0
   21.4775  -10.3189  -19.4084 C   0  0  0  0  0  0  0  0  0  0  0  0
   19.9910  -10.1501  -19.1540 C   0  0  2  0  0  0  0  0  0  0  0  0
   19.3115   -9.9867  -20.3560 N   0  0  0  0  0  0  0  0  0  0  0  0
   19.7201   -9.1898  -18.0728 C   0  0  0  0  0  0  0  0  0  0  0  0
   19.2635   -8.0587  -18.4618 O   0  0  0  0  0  0  0  0  0  0  0  0
   22.0543  -12.7073  -19.7020 C   0  0  0  0  0  0  0  0  0  0  0  0
   22.3124  -13.8249  -20.4844 C   0  0  0  0  0  0  0  0  0  0  0  0
   19.9050   -9.3773  -16.6942 N   0  0  0  0  0  0  0  0  0  0  0  0
   20.4918  -10.4761  -15.9608 C   0  0  0  0  0  0  0  0  0  0  0  0
   19.7186  -10.5104  -14.6827 C   0  0  0  0  0  0  0  0  0  0  0  0
   18.8237   -9.3013  -14.6641 C   0  0  0  0  0  0  0  0  0  0  0  0
   19.5056   -8.4103  -15.6759 C   0  0  1  0  0  0  0  0  0  0  0  0
   20.6778   -7.7798  -15.0264 C   0  0  0  0  0  0  0  0  0  0  0  0
   21.7295   -8.4191  -14.7862 O   0  0  0  0  0  0  0  0  0  0  0  0
   22.1136   -4.8356  -16.6950 C   0  0  0  0  0  0  0  0  0  0  0  0
   21.9305   -4.4349  -15.2721 C   0  0  1  0  0  0  0  0  0  0  0  0
   20.8302   -3.6488  -15.0306 O   0  0  0  0  0  0  0  0  0  0  0  0
   21.8694   -5.6609  -14.3881 C   0  0  2  0  0  0  0  0  0  0  0  0
   20.6555   -6.4125  -14.6465 N   0  0  0  0  0  0  0  0  0  0  0  0
   21.9198   -5.2509  -12.9747 C   0  0  0  0  0  0  0  0  0  0  0  0
   23.0742   -4.6966  -12.4664 O   0  0  0  0  0  0  0  0  0  0  0  0
   20.9273   -5.4002  -12.2313 O   0  0  0  0  0  0  0  0  0  0  0  0
  1  2  1  0
  2  3  2  0
  3  4  1  0
  5  6  1  0
  5  4  2  0
  7  6  1  0
  7  9  1  0
  7  8  1  6
  9 13  1  0
 10  9  2  0
 11  5  1  0
 12 11  2  0
 12  2  1  0
 13 17  1  0
 13 14  1  0
 14 15  1  0
 16 15  1  0
 17 16  1  0
 18 19  2  0
 17 18  1  1
 21 20  1  6
 21 22  1  0
 23 21  1  0
 23 24  1  1
 24 18  1  0
 25 23  1  0
 26 25  1  0
 27 25  2  0
M  END
$$$$
