YPT.pdb
     RDKit          3D

 27 28  0  0  1  0  0  0  0  0999 V2000
   17.0064  -25.3116  -12.2840 O   0  0  0  0  0  0  0  0  0  0  0  0
   18.0483  -24.4902  -12.7312 C   0  0  0  0  0  0  0  0  0  0  0  0
   19.2635  -25.0531  -13.0578 C   0  0  0  0  0  0  0  0  0  0  0  0
   20.2954  -24.2315  -13.5017 C   0  0  0  0  0  0  0  0  0  0  0  0
   20.1364  -22.8740  -13.6240 C   0  0  0  0  0  0  0  0  0  0  0  0
   21.2296  -22.0147  -14.1014 C   0  0  0  0  0  0  0  0  0  0  0  0
   22.2411  -21.7328  -13.0058 C   0  0  2  0  0  0  0  0  0  0  0  0
   21.6128  -21.1620  -11.9045 N   0  0  0  0  0  0  0  0  0  0  0  0
   23.4515  -21.0774  -13.5254 C   0  0  0  0  0  0  0  0  0  0  0  0
   23.4561  -19.8011  -13.4241 O   0  0  0  0  0  0  0  0  0  0  0  0
   18.9138  -22.3383  -13.2914 C   0  0  0  0  0  0  0  0  0  0  0  0
   17.8644  -23.1304  -12.8453 C   0  0  0  0  0  0  0  0  0  0  0  0
   24.5739  -21.6878  -14.1064 N   0  0  0  0  0  0  0  0  0  0  0  0
   24.8685  -23.0809  -14.3553 C   0  0  0  0  0  0  0  0  0  0  0  0
   26.3513  -23.1702  -14.1945 C   0  0  0  0  0  0  0  0  0  0  0  0
   26.8725  -21.7688  -14.0290 C   0  0  0  0  0  0  0  0  0  0  0  0
   25.7356  -20.9580  -14.6058 C   0  0  1  0  0  0  0  0  0  0  0  0
   25.8264  -21.0132  -16.0830 C   0  0  0  0  0  0  0  0  0  0  0  0
   25.3777  -21.9814  -16.7417 O   0  0  0  0  0  0  0  0  0  0  0  0
   24.5783  -17.8032  -16.6880 C   0  0  0  0  0  0  0  0  0  0  0  0
   24.4805  -18.8423  -17.7507 C   0  0  1  0  0  0  0  0  0  0  0  0
   23.9201  -18.4123  -18.9288 O   0  0  0  0  0  0  0  0  0  0  0  0
   25.8456  -19.4293  -18.0343 C   0  0  2  0  0  0  0  0  0  0  0  0
   26.4316  -19.9609  -16.8181 N   0  0  0  0  0  0  0  0  0  0  0  0
   26.7187  -18.3899  -18.6048 C   0  0  0  0  0  0  0  0  0  0  0  0
   26.5712  -18.0248  -19.9251 O   0  0  0  0  0  0  0  0  0  0  0  0
   27.5919  -17.8354  -17.9048 O   0  0  0  0  0  0  0  0  0  0  0  0
  1  2  1  0
  2  3  2  0
  3  4  1  0
  5  6  1  0
  5  4  2  0
  7  6  1  0
  7  9  1  0
  7  8  1  1
  9 13  1  0
 10  9  2  0
 11  5  1  0
 12 11  2  0
 12  2  1  0
 13 17  1  0
 13 14  1  0
 14 15  1  0
 16 15  1  0
 17 16  1  0
 18 19  2  0
 17 18  1  6
 21 20  1  1
 21 22  1  0
 23 21  1  0
 23 24  1  1
 24 18  1  0
 25 23  1  0
 26 25  1  0
 27 25  2  0
M  END
$$$$
