YPT.pdb
     RDKit          3D

 27 28  0  0  1  0  0  0  0  0999 V2000
   27.6992  -19.3427   -5.6764 O   0  0  0  0  0  0  0  0  0  0  0  0
   27.2543  -19.7841   -6.9284 C   0  0  0  0  0  0  0  0  0  0  0  0
   28.1308  -19.8022   -7.9921 C   0  0  0  0  0  0  0  0  0  0  0  0
   27.6828  -20.2419   -9.2342 C   0  0  0  0  0  0  0  0  0  0  0  0
   26.3902  -20.6591   -9.4298 C   0  0  0  0  0  0  0  0  0  0  0  0
   25.9277  -21.1296  -10.7436 C   0  0  0  0  0  0  0  0  0  0  0  0
   24.9041  -20.1867  -11.3488 C   0  0  2  0  0  0  0  0  0  0  0  0
   23.6457  -20.4311  -10.8104 N   0  0  0  0  0  0  0  0  0  0  0  0
   25.0238  -20.1059  -12.8130 C   0  0  0  0  0  0  0  0  0  0  0  0
   23.9782  -20.4672  -13.4575 O   0  0  0  0  0  0  0  0  0  0  0  0
   25.5364  -20.6308   -8.3516 C   0  0  0  0  0  0  0  0  0  0  0  0
   25.9522  -20.1976   -7.0997 C   0  0  0  0  0  0  0  0  0  0  0  0
   26.1353  -19.6856  -13.5598 N   0  0  0  0  0  0  0  0  0  0  0  0
   27.4955  -19.4099  -13.1553 C   0  0  0  0  0  0  0  0  0  0  0  0
   27.9277  -18.3099  -14.0694 C   0  0  0  0  0  0  0  0  0  0  0  0
   26.8394  -18.1175  -15.0900 C   0  0  0  0  0  0  0  0  0  0  0  0
   26.1082  -19.4364  -14.9981 C   0  0  1  0  0  0  0  0  0  0  0  0
   26.8833  -20.4522  -15.7470 C   0  0  0  0  0  0  0  0  0  0  0  0
   28.0575  -20.7591  -15.4315 O   0  0  0  0  0  0  0  0  0  0  0  0
   24.7122  -23.1993  -15.7222 C   0  0  0  0  0  0  0  0  0  0  0  0
   26.1639  -23.3934  -15.9933 C   0  0  1  0  0  0  0  0  0  0  0  0
   26.5360  -24.6918  -16.2435 O   0  0  0  0  0  0  0  0  0  0  0  0
   26.6008  -22.5195  -17.1482 C   0  0  2  0  0  0  0  0  0  0  0  0
   26.3207  -21.1247  -16.8629 N   0  0  0  0  0  0  0  0  0  0  0  0
   25.8988  -22.9366  -18.3734 C   0  0  0  0  0  0  0  0  0  0  0  0
   26.2576  -24.1107  -18.9987 O   0  0  0  0  0  0  0  0  0  0  0  0
   24.9811  -22.2376  -18.8523 O   0  0  0  0  0  0  0  0  0  0  0  0
  1  2  1  0
  2  3  2  0
  3  4  1  0
  5  6  1  0
  5  4  2  0
  7  6  1  0
  7  9  1  0
  7  8  1  6
  9 13  1  0
 10  9  2  0
 11  5  1  0
 12 11  2  0
 12  2  1  0
 13 17  1  0
 13 14  1  0
 14 15  1  0
 16 15  1  0
 17 16  1  0
 18 19  2  0
 17 18  1  6
 21 20  1  6
 21 22  1  0
 23 21  1  0
 23 24  1  1
 24 18  1  0
 25 23  1  0
 26 25  1  0
 27 25  2  0
M  END
$$$$
