YPT.pdb
     RDKit          3D

 27 28  0  0  1  0  0  0  0  0999 V2000
   22.9189  -15.7502  -18.1544 O   0  0  0  0  0  0  0  0  0  0  0  0
   23.3245  -16.6149  -17.1306 C   0  0  0  0  0  0  0  0  0  0  0  0
   24.5372  -16.4082  -16.5088 C   0  0  0  0  0  0  0  0  0  0  0  0
   24.9350  -17.2710  -15.4918 C   0  0  0  0  0  0  0  0  0  0  0  0
   24.1518  -18.3236  -15.0897 C   0  0  0  0  0  0  0  0  0  0  0  0
   24.5765  -19.2254  -14.0090 C   0  0  0  0  0  0  0  0  0  0  0  0
   25.4740  -20.3352  -14.5244 C   0  0  2  0  0  0  0  0  0  0  0  0
   24.8204  -21.0651  -15.5109 N   0  0  0  0  0  0  0  0  0  0  0  0
   26.1193  -21.0780  -13.4305 C   0  0  0  0  0  0  0  0  0  0  0  0
   25.5368  -22.1717  -13.1080 O   0  0  0  0  0  0  0  0  0  0  0  0
   22.9466  -18.5071  -15.7269 C   0  0  0  0  0  0  0  0  0  0  0  0
   22.5210  -17.6644  -16.7450 C   0  0  0  0  0  0  0  0  0  0  0  0
   27.2767  -20.7235  -12.7202 N   0  0  0  0  0  0  0  0  0  0  0  0
   28.1815  -19.6083  -12.8850 C   0  0  0  0  0  0  0  0  0  0  0  0
   29.5115  -20.1613  -12.4880 C   0  0  0  0  0  0  0  0  0  0  0  0
   29.2801  -21.5422  -11.9377 C   0  0  0  0  0  0  0  0  0  0  0  0
   27.8102  -21.4832  -11.5934 C   0  0  1  0  0  0  0  0  0  0  0  0
   27.6601  -20.7499  -10.3154 C   0  0  0  0  0  0  0  0  0  0  0  0
   28.6457  -20.2836   -9.6959 O   0  0  0  0  0  0  0  0  0  0  0  0
   24.8453  -18.4576   -8.6471 C   0  0  0  0  0  0  0  0  0  0  0  0
   25.9391  -19.0748   -7.8461 C   0  0  1  0  0  0  0  0  0  0  0  0
   25.7376  -19.0621   -6.4874 O   0  0  0  0  0  0  0  0  0  0  0  0
   26.1797  -20.4976   -8.3000 C   0  0  2  0  0  0  0  0  0  0  0  0
   26.3808  -20.5446   -9.7362 N   0  0  0  0  0  0  0  0  0  0  0  0
   25.0292  -21.3353   -7.9223 C   0  0  0  0  0  0  0  0  0  0  0  0
   24.7464  -21.5445   -6.5902 O   0  0  0  0  0  0  0  0  0  0  0  0
   24.3065  -21.8585   -8.7964 O   0  0  0  0  0  0  0  0  0  0  0  0
  1  2  1  0
  2  3  2  0
  3  4  1  0
  5  6  1  0
  5  4  2  0
  7  6  1  0
  7  9  1  0
  7  8  1  1
  9 13  1  0
 10  9  2  0
 11  5  1  0
 12 11  2  0
 12  2  1  0
 13 17  1  0
 13 14  1  0
 14 15  1  0
 16 15  1  0
 17 16  1  0
 18 19  2  0
 17 18  1  1
 21 20  1  6
 21 22  1  0
 23 21  1  0
 23 24  1  6
 24 18  1  0
 25 23  1  0
 26 25  1  0
 27 25  2  0
M  END
$$$$
