KMT.pdb
     RDKit          3D

 25 24  0  0  1  0  0  0  0  0999 V2000
    8.9251  -16.1455   19.4329 N   0  0  0  0  0  0  0  0  0  0  0  0
    7.9187  -16.0219   20.4325 C   0  0  1  0  0  0  0  0  0  0  0  0
    7.0220  -17.2116   20.4899 C   0  0  0  0  0  0  0  0  0  0  0  0
    6.7652  -17.9138   19.2157 C   0  0  0  0  0  0  0  0  0  0  0  0
    5.8539  -19.0888   19.2824 C   0  0  0  0  0  0  0  0  0  0  0  0
    4.4040  -18.5920   19.4972 C   0  0  0  0  0  0  0  0  0  0  0  0
    3.5154  -19.7372   19.4914 N   0  0  0  0  0  0  0  0  0  0  0  0
    8.4792  -15.6713   21.7659 C   0  0  0  0  0  0  0  0  0  0  0  0
    9.7127  -15.8163   21.9307 O   0  0  0  0  0  0  0  0  0  0  0  0
    5.2571  -12.2565   26.7114 C   0  0  0  0  0  0  0  0  0  0  0  0
    7.0276  -11.7835   26.6881 S   0  0  0  0  0  0  0  0  0  0  0  0
    7.9385  -13.2134   26.0588 C   0  0  0  0  0  0  0  0  0  0  0  0
    7.4536  -13.6873   24.7398 C   0  0  0  0  0  0  0  0  0  0  0  0
    8.2931  -14.7244   24.0803 C   0  0  2  0  0  0  0  0  0  0  0  0
    7.7167  -15.1923   22.8398 N   0  0  0  0  0  0  0  0  0  0  0  0
    8.5954  -15.9096   24.9257 C   0  0  0  0  0  0  0  0  0  0  0  0
    7.6295  -16.6337   25.2851 O   0  0  0  0  0  0  0  0  0  0  0  0
   10.2989  -18.8124   24.0682 C   0  0  0  0  0  0  0  0  0  0  0  0
   10.9908  -18.4682   25.3843 C   0  0  1  0  0  0  0  0  0  0  0  0
   12.1516  -17.7655   25.0574 O   0  0  0  0  0  0  0  0  0  0  0  0
   10.0793  -17.4957   26.1030 C   0  0  2  0  0  0  0  0  0  0  0  0
    9.8766  -16.2805   25.3520 N   0  0  0  0  0  0  0  0  0  0  0  0
   10.5174  -17.2468   27.4855 C   0  0  0  0  0  0  0  0  0  0  0  0
   10.5681  -18.2315   28.4528 O   0  0  0  0  0  0  0  0  0  0  0  0
   10.8627  -16.0849   27.8062 O   0  0  0  0  0  0  0  0  0  0  0  0
  2  1  1  6
  2  3  1  0
  4  5  1  0
  4  3  1  0
  6  5  1  0
  6  7  1  0
  8  2  1  0
  9  8  2  0
 11 10  1  0
 11 12  1  0
 13 12  1  0
 14 13  1  1
 14 15  1  0
 15  8  1  0
 16 14  1  0
 16 17  2  0
 19 21  1  0
 19 18  1  6
 20 19  1  0
 21 22  1  6
 22 16  1  0
 23 21  1  0
 24 23  1  0
 25 23  2  0
M  END
$$$$
