KMT.pdb
     RDKit          3D

 25 24  0  0  1  0  0  0  0  0999 V2000
    9.9235  -15.9206   19.9109 N   0  0  0  0  0  0  0  0  0  0  0  0
    8.8458  -16.2162   20.7933 C   0  0  1  0  0  0  0  0  0  0  0  0
    8.3808  -17.6276   20.6736 C   0  0  0  0  0  0  0  0  0  0  0  0
    8.0079  -18.0935   19.3221 C   0  0  0  0  0  0  0  0  0  0  0  0
    7.5697  -19.5117   19.2110 C   0  0  0  0  0  0  0  0  0  0  0  0
    6.3662  -19.5941   18.2415 C   0  0  0  0  0  0  0  0  0  0  0  0
    6.7493  -19.0026   16.9749 N   0  0  0  0  0  0  0  0  0  0  0  0
    9.1406  -15.8352   22.2014 C   0  0  0  0  0  0  0  0  0  0  0  0
   10.3322  -15.9059   22.5820 O   0  0  0  0  0  0  0  0  0  0  0  0
    6.6375  -11.0177   25.9057 C   0  0  0  0  0  0  0  0  0  0  0  0
    6.5192  -12.4469   27.0469 S   0  0  0  0  0  0  0  0  0  0  0  0
    7.7026  -13.6809   26.4574 C   0  0  0  0  0  0  0  0  0  0  0  0
    7.4667  -14.1009   25.0548 C   0  0  0  0  0  0  0  0  0  0  0  0
    8.4799  -15.0285   24.4819 C   0  0  2  0  0  0  0  0  0  0  0  0
    8.1735  -15.4056   23.1202 N   0  0  0  0  0  0  0  0  0  0  0  0
    8.6997  -16.2715   25.2675 C   0  0  0  0  0  0  0  0  0  0  0  0
    8.1148  -17.3183   24.8823 O   0  0  0  0  0  0  0  0  0  0  0  0
    9.6631  -18.4320   24.6330 C   0  0  0  0  0  0  0  0  0  0  0  0
   10.5546  -18.5203   25.8687 C   0  0  1  0  0  0  0  0  0  0  0  0
   11.7662  -17.9126   25.5358 O   0  0  0  0  0  0  0  0  0  0  0  0
    9.9056  -17.6507   26.9250 C   0  0  2  0  0  0  0  0  0  0  0  0
    9.5102  -16.3639   26.4056 N   0  0  0  0  0  0  0  0  0  0  0  0
   10.7306  -17.5479   28.1391 C   0  0  0  0  0  0  0  0  0  0  0  0
   11.0906  -18.6396   28.9048 O   0  0  0  0  0  0  0  0  0  0  0  0
   11.1289  -16.4152   28.5005 O   0  0  0  0  0  0  0  0  0  0  0  0
  2  1  1  6
  2  3  1  0
  4  5  1  0
  4  3  1  0
  6  5  1  0
  6  7  1  0
  8  2  1  0
  9  8  2  0
 11 10  1  0
 11 12  1  0
 13 12  1  0
 14 13  1  1
 14 15  1  0
 15  8  1  0
 16 14  1  0
 16 17  2  0
 19 21  1  0
 19 18  1  6
 20 19  1  0
 21 22  1  6
 22 16  1  0
 23 21  1  0
 24 23  1  0
 25 23  2  0
M  END
$$$$
