KMT.pdb
     RDKit          3D

 25 24  0  0  1  0  0  0  0  0999 V2000
    7.7270  -15.8632   20.4084 N   0  0  0  0  0  0  0  0  0  0  0  0
    8.5742  -14.7281   20.5550 C   0  0  1  0  0  0  0  0  0  0  0  0
    8.2537  -13.6470   19.5797 C   0  0  0  0  0  0  0  0  0  0  0  0
    7.7628  -14.0716   18.2525 C   0  0  0  0  0  0  0  0  0  0  0  0
    8.4700  -13.5000   17.0741 C   0  0  0  0  0  0  0  0  0  0  0  0
    7.7898  -14.0095   15.7807 C   0  0  0  0  0  0  0  0  0  0  0  0
    8.4875  -13.4522   14.6389 N   0  0  0  0  0  0  0  0  0  0  0  0
    8.6223  -14.2296   21.9564 C   0  0  0  0  0  0  0  0  0  0  0  0
    8.3019  -13.0350   22.1563 O   0  0  0  0  0  0  0  0  0  0  0  0
    6.1912  -11.7205   27.9313 C   0  0  0  0  0  0  0  0  0  0  0  0
    6.4978  -12.0087   26.1475 S   0  0  0  0  0  0  0  0  0  0  0  0
    6.9365  -13.7543   25.9717 C   0  0  0  0  0  0  0  0  0  0  0  0
    7.3217  -14.1290   24.5895 C   0  0  0  0  0  0  0  0  0  0  0  0
    8.7055  -14.6523   24.4267 C   0  0  2  0  0  0  0  0  0  0  0  0
    9.0014  -15.0095   23.0574 N   0  0  0  0  0  0  0  0  0  0  0  0
    9.0354  -15.8170   25.2900 C   0  0  0  0  0  0  0  0  0  0  0  0
    8.7845  -15.7229   26.5206 O   0  0  0  0  0  0  0  0  0  0  0  0
    9.1187  -19.7623   24.1968 C   0  0  0  0  0  0  0  0  0  0  0  0
   10.3183  -19.3523   25.0466 C   0  0  1  0  0  0  0  0  0  0  0  0
   11.3436  -19.0168   24.1611 O   0  0  0  0  0  0  0  0  0  0  0  0
    9.9201  -18.0758   25.7575 C   0  0  2  0  0  0  0  0  0  0  0  0
    9.6051  -17.0123   24.8347 N   0  0  0  0  0  0  0  0  0  0  0  0
   10.9081  -17.6777   26.7727 C   0  0  0  0  0  0  0  0  0  0  0  0
   11.3223  -18.5104   27.7939 O   0  0  0  0  0  0  0  0  0  0  0  0
   11.4013  -16.5265   26.7119 O   0  0  0  0  0  0  0  0  0  0  0  0
  2  1  1  1
  2  3  1  0
  4  5  1  0
  4  3  1  0
  6  5  1  0
  6  7  1  0
  8  2  1  0
  9  8  2  0
 11 10  1  0
 11 12  1  0
 13 12  1  0
 14 13  1  6
 14 15  1  0
 15  8  1  0
 16 14  1  0
 16 17  2  0
 19 21  1  0
 19 18  1  6
 20 19  1  0
 21 22  1  6
 22 16  1  0
 23 21  1  0
 24 23  1  0
 25 23  2  0
M  END
$$$$
