KMT.pdb
     RDKit          3D

 25 24  0  0  1  0  0  0  0  0999 V2000
    8.6320  -14.1088   19.7042 N   0  0  0  0  0  0  0  0  0  0  0  0
    8.0744  -15.0863   20.5766 C   0  0  1  0  0  0  0  0  0  0  0  0
    8.3302  -16.4793   20.1110 C   0  0  0  0  0  0  0  0  0  0  0  0
    7.8142  -16.8399   18.7744 C   0  0  0  0  0  0  0  0  0  0  0  0
    7.8181  -18.2891   18.4350 C   0  0  0  0  0  0  0  0  0  0  0  0
    7.1283  -18.4888   17.0641 C   0  0  0  0  0  0  0  0  0  0  0  0
    7.1452  -19.9008   16.7374 N   0  0  0  0  0  0  0  0  0  0  0  0
    8.4769  -14.8810   21.9946 C   0  0  0  0  0  0  0  0  0  0  0  0
    9.6910  -14.6773   22.2273 O   0  0  0  0  0  0  0  0  0  0  0  0
    6.7919  -11.5707   27.5722 C   0  0  0  0  0  0  0  0  0  0  0  0
    5.7043  -11.7275   26.1054 S   0  0  0  0  0  0  0  0  0  0  0  0
    6.6417  -12.6443   24.8600 C   0  0  0  0  0  0  0  0  0  0  0  0
    6.9620  -14.0337   25.2680 C   0  0  0  0  0  0  0  0  0  0  0  0
    7.9988  -14.7214   24.4510 C   0  0  2  0  0  0  0  0  0  0  0  0
    7.5868  -14.9017   23.0770 N   0  0  0  0  0  0  0  0  0  0  0  0
    8.4333  -16.0411   24.9803 C   0  0  0  0  0  0  0  0  0  0  0  0
    7.5855  -16.9724   24.9978 O   0  0  0  0  0  0  0  0  0  0  0  0
   10.7259  -18.4038   23.7594 C   0  0  0  0  0  0  0  0  0  0  0  0
   11.1871  -18.2756   25.2086 C   0  0  1  0  0  0  0  0  0  0  0  0
   12.2367  -17.3556   25.2175 O   0  0  0  0  0  0  0  0  0  0  0  0
   10.0409  -17.6377   25.9653 C   0  0  2  0  0  0  0  0  0  0  0  0
    9.7173  -16.3250   25.4614 N   0  0  0  0  0  0  0  0  0  0  0  0
   10.2631  -17.6527   27.4198 C   0  0  0  0  0  0  0  0  0  0  0  0
   10.4633  -18.8121   28.1434 O   0  0  0  0  0  0  0  0  0  0  0  0
   10.2720  -16.5615   28.0374 O   0  0  0  0  0  0  0  0  0  0  0  0
  2  1  1  6
  2  3  1  0
  4  5  1  0
  4  3  1  0
  6  5  1  0
  6  7  1  0
  8  2  1  0
  9  8  2  0
 11 10  1  0
 11 12  1  0
 13 12  1  0
 14 13  1  1
 14 15  1  0
 15  8  1  0
 16 14  1  0
 16 17  2  0
 19 21  1  0
 19 18  1  6
 20 19  1  0
 21 22  1  6
 22 16  1  0
 23 21  1  0
 24 23  1  0
 25 23  2  0
M  END
$$$$
