KMT.pdb
     RDKit          3D

 25 24  0  0  1  0  0  0  0  0999 V2000
    8.9081  -15.5500   19.6008 N   0  0  0  0  0  0  0  0  0  0  0  0
    8.0283  -15.9141   20.6595 C   0  0  1  0  0  0  0  0  0  0  0  0
    7.5875  -17.3356   20.5721 C   0  0  0  0  0  0  0  0  0  0  0  0
    6.6527  -17.6768   19.4801 C   0  0  0  0  0  0  0  0  0  0  0  0
    7.2082  -18.4957   18.3683 C   0  0  0  0  0  0  0  0  0  0  0  0
    6.0663  -18.8594   17.3891 C   0  0  0  0  0  0  0  0  0  0  0  0
    6.6186  -19.6443   16.3030 N   0  0  0  0  0  0  0  0  0  0  0  0
    8.5776  -15.5737   22.0001 C   0  0  0  0  0  0  0  0  0  0  0  0
    9.7990  -15.7759   22.1927 O   0  0  0  0  0  0  0  0  0  0  0  0
    5.9594  -11.4011   26.0352 C   0  0  0  0  0  0  0  0  0  0  0  0
    6.9154  -12.2647   27.3388 S   0  0  0  0  0  0  0  0  0  0  0  0
    7.9456  -13.4916   26.5000 C   0  0  0  0  0  0  0  0  0  0  0  0
    7.5155  -13.7702   25.1083 C   0  0  0  0  0  0  0  0  0  0  0  0
    8.3661  -14.7289   24.3516 C   0  0  2  0  0  0  0  0  0  0  0  0
    7.8173  -15.0448   23.0520 N   0  0  0  0  0  0  0  0  0  0  0  0
    8.6435  -16.0068   25.0594 C   0  0  0  0  0  0  0  0  0  0  0  0
    7.6894  -16.8170   25.1996 O   0  0  0  0  0  0  0  0  0  0  0  0
   10.4537  -18.6449   24.0028 C   0  0  0  0  0  0  0  0  0  0  0  0
   11.0263  -18.5456   25.4141 C   0  0  1  0  0  0  0  0  0  0  0  0
   12.2294  -17.8454   25.3125 O   0  0  0  0  0  0  0  0  0  0  0  0
   10.0747  -17.6670   26.1989 C   0  0  2  0  0  0  0  0  0  0  0  0
    9.8889  -16.3760   25.5820 N   0  0  0  0  0  0  0  0  0  0  0  0
   10.4526  -17.5733   27.6179 C   0  0  0  0  0  0  0  0  0  0  0  0
   10.5380  -18.6702   28.4529 O   0  0  0  0  0  0  0  0  0  0  0  0
   10.7107  -16.4439   28.0974 O   0  0  0  0  0  0  0  0  0  0  0  0
  2  1  1  6
  2  3  1  0
  4  5  1  0
  4  3  1  0
  6  5  1  0
  6  7  1  0
  8  2  1  0
  9  8  2  0
 11 10  1  0
 11 12  1  0
 13 12  1  0
 14 13  1  1
 14 15  1  0
 15  8  1  0
 16 14  1  0
 16 17  2  0
 19 21  1  0
 19 18  1  6
 20 19  1  0
 21 22  1  6
 22 16  1  0
 23 21  1  0
 24 23  1  0
 25 23  2  0
M  END
$$$$
