KMT.pdb
     RDKit          3D

 25 24  0  0  1  0  0  0  0  0999 V2000
    8.9494  -15.7604   19.2649 N   0  0  0  0  0  0  0  0  0  0  0  0
    7.9773  -15.8770   20.2988 C   0  0  1  0  0  0  0  0  0  0  0  0
    7.2693  -17.1887   20.2713 C   0  0  0  0  0  0  0  0  0  0  0  0
    6.9963  -17.7702   18.9409 C   0  0  0  0  0  0  0  0  0  0  0  0
    6.1897  -19.0210   18.9209 C   0  0  0  0  0  0  0  0  0  0  0  0
    5.9824  -19.4650   17.4529 C   0  0  0  0  0  0  0  0  0  0  0  0
    5.0914  -20.6081   17.4352 N   0  0  0  0  0  0  0  0  0  0  0  0
    8.5338  -15.5627   21.6429 C   0  0  0  0  0  0  0  0  0  0  0  0
    9.7653  -15.7217   21.8103 O   0  0  0  0  0  0  0  0  0  0  0  0
    5.1591  -12.4052   26.3304 C   0  0  0  0  0  0  0  0  0  0  0  0
    6.8854  -11.9543   26.7499 S   0  0  0  0  0  0  0  0  0  0  0  0
    7.9474  -13.2072   25.9931 C   0  0  0  0  0  0  0  0  0  0  0  0
    7.4983  -13.6227   24.6421 C   0  0  0  0  0  0  0  0  0  0  0  0
    8.3450  -14.6450   23.9688 C   0  0  2  0  0  0  0  0  0  0  0  0
    7.7697  -15.1031   22.7241 N   0  0  0  0  0  0  0  0  0  0  0  0
    8.6589  -15.8375   24.7995 C   0  0  0  0  0  0  0  0  0  0  0  0
    7.7063  -16.5993   25.1133 O   0  0  0  0  0  0  0  0  0  0  0  0
   10.6109  -18.5867   23.9232 C   0  0  0  0  0  0  0  0  0  0  0  0
   11.1601  -18.3046   25.3189 C   0  0  1  0  0  0  0  0  0  0  0  0
   12.3268  -17.5575   25.1496 O   0  0  0  0  0  0  0  0  0  0  0  0
   10.1549  -17.3971   25.9967 C   0  0  2  0  0  0  0  0  0  0  0  0
    9.9374  -16.1761   25.2593 N   0  0  0  0  0  0  0  0  0  0  0  0
   10.4901  -17.1594   27.4096 C   0  0  0  0  0  0  0  0  0  0  0  0
   10.5806  -18.1699   28.3468 O   0  0  0  0  0  0  0  0  0  0  0  0
   10.7049  -15.9829   27.7863 O   0  0  0  0  0  0  0  0  0  0  0  0
  2  1  1  6
  2  3  1  0
  4  5  1  0
  4  3  1  0
  6  5  1  0
  6  7  1  0
  8  2  1  0
  9  8  2  0
 11 10  1  0
 11 12  1  0
 13 12  1  0
 14 13  1  1
 14 15  1  0
 15  8  1  0
 16 14  1  0
 16 17  2  0
 19 21  1  0
 19 18  1  6
 20 19  1  0
 21 22  1  6
 22 16  1  0
 23 21  1  0
 24 23  1  0
 25 23  2  0
M  END
$$$$
