KMT.pdb
     RDKit          3D

 25 24  0  0  1  0  0  0  0  0999 V2000
    7.5501  -17.6984   20.9948 N   0  0  0  0  0  0  0  0  0  0  0  0
    8.8499  -17.1302   20.8720 C   0  0  1  0  0  0  0  0  0  0  0  0
    9.1300  -16.6389   19.4925 C   0  0  0  0  0  0  0  0  0  0  0  0
    8.2828  -17.1778   18.4089 C   0  0  0  0  0  0  0  0  0  0  0  0
    8.9858  -17.5791   17.1598 C   0  0  0  0  0  0  0  0  0  0  0  0
    7.9387  -18.0308   16.1135 C   0  0  0  0  0  0  0  0  0  0  0  0
    8.6359  -18.5269   14.9436 N   0  0  0  0  0  0  0  0  0  0  0  0
    9.1201  -16.0953   21.9067 C   0  0  0  0  0  0  0  0  0  0  0  0
   10.2943  -15.6696   22.0058 O   0  0  0  0  0  0  0  0  0  0  0  0
    7.0062  -12.0871   28.0190 C   0  0  0  0  0  0  0  0  0  0  0  0
    6.2453  -12.7266   26.4791 S   0  0  0  0  0  0  0  0  0  0  0  0
    7.5510  -12.7551   25.2282 C   0  0  0  0  0  0  0  0  0  0  0  0
    7.3114  -13.7432   24.1485 C   0  0  0  0  0  0  0  0  0  0  0  0
    8.4489  -14.6542   23.8460 C   0  0  2  0  0  0  0  0  0  0  0  0
    8.1481  -15.5720   22.7702 N   0  0  0  0  0  0  0  0  0  0  0  0
    8.9371  -15.4458   25.0061 C   0  0  0  0  0  0  0  0  0  0  0  0
    9.3834  -14.8134   25.9997 O   0  0  0  0  0  0  0  0  0  0  0  0
    6.9915  -18.1002   26.6949 C   0  0  0  0  0  0  0  0  0  0  0  0
    8.4011  -18.6798   26.6155 C   0  0  1  0  0  0  0  0  0  0  0  0
    8.4240  -19.5337   25.5116 O   0  0  0  0  0  0  0  0  0  0  0  0
    9.3203  -17.5211   26.2904 C   0  0  2  0  0  0  0  0  0  0  0  0
    8.9371  -16.8443   25.0752 N   0  0  0  0  0  0  0  0  0  0  0  0
   10.7366  -17.9202   26.3001 C   0  0  0  0  0  0  0  0  0  0  0  0
   11.3661  -18.4520   27.4085 O   0  0  0  0  0  0  0  0  0  0  0  0
   11.4095  -17.7719   25.2525 O   0  0  0  0  0  0  0  0  0  0  0  0
  2  1  1  6
  2  3  1  0
  4  5  1  0
  4  3  1  0
  6  5  1  0
  6  7  1  0
  8  2  1  0
  9  8  2  0
 11 10  1  0
 11 12  1  0
 13 12  1  0
 14 13  1  1
 14 15  1  0
 15  8  1  0
 16 14  1  0
 16 17  2  0
 19 21  1  0
 19 18  1  6
 20 19  1  0
 21 22  1  6
 22 16  1  0
 23 21  1  0
 24 23  1  0
 25 23  2  0
M  END
$$$$
