KMT.pdb
     RDKit          3D

 25 24  0  0  1  0  0  0  0  0999 V2000
    8.3376  -18.4724   17.0499 N   0  0  0  0  0  0  0  0  0  0  0  0
    9.2657  -17.4180   16.8166 C   0  0  1  0  0  0  0  0  0  0  0  0
    8.8018  -16.4723   15.7615 C   0  0  0  0  0  0  0  0  0  0  0  0
    8.9950  -16.8931   14.3586 C   0  0  0  0  0  0  0  0  0  0  0  0
    8.1022  -16.2583   13.3508 C   0  0  0  0  0  0  0  0  0  0  0  0
    8.3501  -16.9149   11.9715 C   0  0  0  0  0  0  0  0  0  0  0  0
    7.4256  -16.3433   11.0126 N   0  0  0  0  0  0  0  0  0  0  0  0
    9.6607  -16.7182   18.0693 C   0  0  0  0  0  0  0  0  0  0  0  0
   10.7121  -16.0373   18.0442 O   0  0  0  0  0  0  0  0  0  0  0  0
    7.0434  -11.2934   20.3244 C   0  0  0  0  0  0  0  0  0  0  0  0
    7.8146  -12.6308   21.3123 S   0  0  0  0  0  0  0  0  0  0  0  0
    7.6036  -14.1597   20.3698 C   0  0  0  0  0  0  0  0  0  0  0  0
    8.1114  -15.3616   21.0749 C   0  0  0  0  0  0  0  0  0  0  0  0
    9.2883  -16.0248   20.4501 C   0  0  2  0  0  0  0  0  0  0  0  0
    8.9334  -16.7745   19.2660 N   0  0  0  0  0  0  0  0  0  0  0  0
   10.0486  -16.9251   21.3567 C   0  0  0  0  0  0  0  0  0  0  0  0
    9.6441  -18.1118   21.4771 O   0  0  0  0  0  0  0  0  0  0  0  0
   13.9836  -18.5866   23.5116 C   0  0  0  0  0  0  0  0  0  0  0  0
   13.3878  -17.4327   22.7099 C   0  0  1  0  0  0  0  0  0  0  0  0
   13.6396  -17.7046   21.3642 O   0  0  0  0  0  0  0  0  0  0  0  0
   11.8874  -17.5133   22.8983 C   0  0  2  0  0  0  0  0  0  0  0  0
   11.1827  -16.5502   22.0874 N   0  0  0  0  0  0  0  0  0  0  0  0
   11.5050  -17.4540   24.3179 C   0  0  0  0  0  0  0  0  0  0  0  0
   11.6059  -18.5323   25.1752 O   0  0  0  0  0  0  0  0  0  0  0  0
   11.0653  -16.3731   24.7769 O   0  0  0  0  0  0  0  0  0  0  0  0
  2  1  1  1
  2  3  1  0
  4  5  1  0
  4  3  1  0
  6  5  1  0
  6  7  1  0
  8  2  1  0
  9  8  2  0
 11 10  1  0
 11 12  1  0
 13 12  1  0
 14 13  1  1
 14 15  1  0
 15  8  1  0
 16 14  1  0
 16 17  2  0
 19 21  1  0
 19 18  1  1
 20 19  1  0
 21 22  1  6
 22 16  1  0
 23 21  1  0
 24 23  1  0
 25 23  2  0
M  END
$$$$
