KMT.pdb
     RDKit          3D

 25 24  0  0  1  0  0  0  0  0999 V2000
    7.3848  -16.0029   20.3945 N   0  0  0  0  0  0  0  0  0  0  0  0
    8.3837  -15.0060   20.5839 C   0  0  1  0  0  0  0  0  0  0  0  0
    8.0891  -13.7527   19.8322 C   0  0  0  0  0  0  0  0  0  0  0  0
    8.1156  -13.8389   18.3575 C   0  0  0  0  0  0  0  0  0  0  0  0
    8.8825  -12.7783   17.6487 C   0  0  0  0  0  0  0  0  0  0  0  0
    8.8134  -13.0380   16.1246 C   0  0  0  0  0  0  0  0  0  0  0  0
    7.4269  -12.9796   15.7062 N   0  0  0  0  0  0  0  0  0  0  0  0
    8.6679  -14.7495   22.0220 C   0  0  0  0  0  0  0  0  0  0  0  0
    9.7195  -14.1283   22.3016 O   0  0  0  0  0  0  0  0  0  0  0  0
    7.3274  -11.0132   26.7952 C   0  0  0  0  0  0  0  0  0  0  0  0
    6.3770  -12.5053   27.2741 S   0  0  0  0  0  0  0  0  0  0  0  0
    7.2733  -13.9275   26.6076 C   0  0  0  0  0  0  0  0  0  0  0  0
    7.1036  -14.0982   25.1442 C   0  0  0  0  0  0  0  0  0  0  0  0
    8.1421  -14.9222   24.4677 C   0  0  2  0  0  0  0  0  0  0  0  0
    7.8370  -15.1573   23.0743 N   0  0  0  0  0  0  0  0  0  0  0  0
    8.4095  -16.2360   25.1105 C   0  0  0  0  0  0  0  0  0  0  0  0
    7.4305  -17.0063   25.2968 O   0  0  0  0  0  0  0  0  0  0  0  0
   10.1602  -18.9416   23.9372 C   0  0  0  0  0  0  0  0  0  0  0  0
   10.7390  -18.8844   25.3482 C   0  0  1  0  0  0  0  0  0  0  0  0
   11.9721  -18.2376   25.2520 O   0  0  0  0  0  0  0  0  0  0  0  0
    9.8290  -17.9733   26.1451 C   0  0  2  0  0  0  0  0  0  0  0  0
    9.6712  -16.6804   25.5244 N   0  0  0  0  0  0  0  0  0  0  0  0
   10.2353  -17.8839   27.5565 C   0  0  0  0  0  0  0  0  0  0  0  0
   10.6574  -16.7104   28.1503 O   0  0  0  0  0  0  0  0  0  0  0  0
   10.1983  -18.9217   28.2591 O   0  0  0  0  0  0  0  0  0  0  0  0
  2  1  1  1
  2  3  1  0
  4  5  1  0
  4  3  1  0
  6  5  1  0
  6  7  1  0
  8  2  1  0
  9  8  2  0
 11 10  1  0
 11 12  1  0
 13 12  1  0
 14 13  1  1
 14 15  1  0
 15  8  1  0
 16 14  1  0
 16 17  2  0
 19 21  1  0
 19 18  1  6
 20 19  1  0
 21 22  1  6
 22 16  1  0
 23 21  1  0
 24 23  1  0
 25 23  2  0
M  END
$$$$
