KMT.pdb
     RDKit          3D

 25 24  0  0  1  0  0  0  0  0999 V2000
    6.2265  -16.1566   20.8851 N   0  0  0  0  0  0  0  0  0  0  0  0
    7.4498  -15.4644   20.6574 C   0  0  1  0  0  0  0  0  0  0  0  0
    7.2785  -14.2803   19.7678 C   0  0  0  0  0  0  0  0  0  0  0  0
    7.8707  -14.3709   18.4174 C   0  0  0  0  0  0  0  0  0  0  0  0
    7.7825  -13.1467   17.5752 C   0  0  0  0  0  0  0  0  0  0  0  0
    8.4028  -13.4418   16.1884 C   0  0  0  0  0  0  0  0  0  0  0  0
    8.3092  -12.2462   15.3743 N   0  0  0  0  0  0  0  0  0  0  0  0
    8.1566  -15.1242   21.9221 C   0  0  0  0  0  0  0  0  0  0  0  0
    9.3488  -14.7491   21.8351 O   0  0  0  0  0  0  0  0  0  0  0  0
    5.6338  -12.0268   26.7670 C   0  0  0  0  0  0  0  0  0  0  0  0
    7.4074  -11.9258   27.2176 S   0  0  0  0  0  0  0  0  0  0  0  0
    8.2257  -13.3285   26.4218 C   0  0  0  0  0  0  0  0  0  0  0  0
    7.5860  -13.7390   25.1483 C   0  0  0  0  0  0  0  0  0  0  0  0
    8.2676  -14.8376   24.4108 C   0  0  2  0  0  0  0  0  0  0  0  0
    7.5737  -15.1974   23.1945 N   0  0  0  0  0  0  0  0  0  0  0  0
    8.4852  -16.0769   25.2029 C   0  0  0  0  0  0  0  0  0  0  0  0
    7.4753  -16.7726   25.4901 O   0  0  0  0  0  0  0  0  0  0  0  0
    9.4893  -19.0163   24.3737 C   0  0  0  0  0  0  0  0  0  0  0  0
   10.3927  -18.8920   25.5975 C   0  0  1  0  0  0  0  0  0  0  0  0
   11.6458  -18.4882   25.1340 O   0  0  0  0  0  0  0  0  0  0  0  0
    9.8411  -17.7458   26.4193 C   0  0  2  0  0  0  0  0  0  0  0  0
    9.7318  -16.5278   25.6535 N   0  0  0  0  0  0  0  0  0  0  0  0
   10.5789  -17.5644   27.6794 C   0  0  0  0  0  0  0  0  0  0  0  0
   11.2127  -16.3863   28.0231 O   0  0  0  0  0  0  0  0  0  0  0  0
   10.6380  -18.5240   28.4843 O   0  0  0  0  0  0  0  0  0  0  0  0
  2  1  1  1
  2  3  1  0
  4  5  1  0
  4  3  1  0
  6  5  1  0
  6  7  1  0
  8  2  1  0
  9  8  2  0
 11 10  1  0
 11 12  1  0
 13 12  1  0
 14 13  1  1
 14 15  1  0
 15  8  1  0
 16 14  1  0
 16 17  2  0
 19 21  1  0
 19 18  1  6
 20 19  1  0
 21 22  1  6
 22 16  1  0
 23 21  1  0
 24 23  1  0
 25 23  2  0
M  END
$$$$
