KMT.pdb
     RDKit          3D

 25 24  0  0  1  0  0  0  0  0999 V2000
    8.7723  -14.9358   19.7861 N   0  0  0  0  0  0  0  0  0  0  0  0
    7.9171  -15.5161   20.7656 C   0  0  1  0  0  0  0  0  0  0  0  0
    7.6542  -16.9611   20.5096 C   0  0  0  0  0  0  0  0  0  0  0  0
    7.3350  -17.3436   19.1188 C   0  0  0  0  0  0  0  0  0  0  0  0
    7.0628  -18.7870   18.8778 C   0  0  0  0  0  0  0  0  0  0  0  0
    6.6458  -18.9826   17.4003 C   0  0  0  0  0  0  0  0  0  0  0  0
    6.3596  -20.3865   17.1809 N   0  0  0  0  0  0  0  0  0  0  0  0
    8.3878  -15.2643   22.1548 C   0  0  0  0  0  0  0  0  0  0  0  0
    9.6251  -15.2257   22.3479 O   0  0  0  0  0  0  0  0  0  0  0  0
    7.5777  -11.5732   27.5089 C   0  0  0  0  0  0  0  0  0  0  0  0
    6.2180  -11.5914   26.2801 S   0  0  0  0  0  0  0  0  0  0  0  0
    6.7324  -12.7075   24.9535 C   0  0  0  0  0  0  0  0  0  0  0  0
    7.0353  -14.0813   25.4232 C   0  0  0  0  0  0  0  0  0  0  0  0
    8.0124  -14.8426   24.5980 C   0  0  2  0  0  0  0  0  0  0  0  0
    7.5373  -15.0691   23.2515 N   0  0  0  0  0  0  0  0  0  0  0  0
    8.4223  -16.1523   25.1701 C   0  0  0  0  0  0  0  0  0  0  0  0
    7.5161  -16.9897   25.4229 O   0  0  0  0  0  0  0  0  0  0  0  0
   10.2571  -18.8379   23.8770 C   0  0  0  0  0  0  0  0  0  0  0  0
   10.9612  -18.6430   25.2170 C   0  0  1  0  0  0  0  0  0  0  0  0
   12.0975  -17.8720   24.9667 O   0  0  0  0  0  0  0  0  0  0  0  0
   10.0362  -17.7950   26.0647 C   0  0  2  0  0  0  0  0  0  0  0  0
    9.7433  -16.5235   25.4488 N   0  0  0  0  0  0  0  0  0  0  0  0
   10.5212  -17.6620   27.4476 C   0  0  0  0  0  0  0  0  0  0  0  0
   10.7501  -18.7424   28.2771 O   0  0  0  0  0  0  0  0  0  0  0  0
   10.7390  -16.5130   27.8998 O   0  0  0  0  0  0  0  0  0  0  0  0
  2  1  1  6
  2  3  1  0
  4  5  1  0
  4  3  1  0
  6  5  1  0
  6  7  1  0
  8  2  1  0
  9  8  2  0
 11 10  1  0
 11 12  1  0
 13 12  1  0
 14 13  1  1
 14 15  1  0
 15  8  1  0
 16 14  1  0
 16 17  2  0
 19 21  1  0
 19 18  1  6
 20 19  1  0
 21 22  1  6
 22 16  1  0
 23 21  1  0
 24 23  1  0
 25 23  2  0
M  END
$$$$
