GHW.pdb
     RDKit          3D

 29 31  0  0  1  0  0  0  0  0999 V2000
    8.0597  -12.4277   18.4396 N   0  0  0  0  0  0  0  0  0  0  0  0
    9.1235  -13.3036   18.7991 C   0  0  0  0  0  0  0  0  0  0  0  0
    8.6786  -14.3667   19.7823 C   0  0  0  0  0  0  0  0  0  0  0  0
    7.5652  -14.3425   20.3062 O   0  0  0  0  0  0  0  0  0  0  0  0
    9.6024  -15.3932   20.0735 N   0  0  0  0  0  0  0  0  0  0  0  0
    9.3793  -16.4358   20.9984 C   0  0  1  0  0  0  0  0  0  0  0  0
    9.4664  -17.8574   20.4767 C   0  0  0  0  0  0  0  0  0  0  0  0
    8.5306  -18.1260   19.3672 C   0  0  0  0  0  0  0  0  0  0  0  0
    8.7315  -17.8621   18.0128 C   0  0  0  0  0  0  0  0  0  0  0  0
    7.6348  -18.2604   17.3486 N   0  0  0  0  0  0  0  0  0  0  0  0
    6.7560  -18.7611   18.2231 C   0  0  0  0  0  0  0  0  0  0  0  0
    7.3212  -18.6688   19.4388 N   0  0  0  0  0  0  0  0  0  0  0  0
    9.9928  -16.3371   22.3113 C   0  0  0  0  0  0  0  0  0  0  0  0
   11.2746  -16.3467   22.3296 O   0  0  0  0  0  0  0  0  0  0  0  0
    9.3076  -16.2345   23.5400 N   0  0  0  0  0  0  0  0  0  0  0  0
   10.0409  -16.1056   24.7950 C   0  0  1  0  0  0  0  0  0  0  0  0
    9.8387  -14.7311   25.3832 C   0  0  0  0  0  0  0  0  0  0  0  0
    8.3988  -14.5112   25.6178 C   0  0  0  0  0  0  0  0  0  0  0  0
    7.4730  -15.5612   25.5157 C   0  0  0  0  0  0  0  0  0  0  0  0
    6.2870  -15.0388   25.8354 N   0  0  0  0  0  0  0  0  0  0  0  0
    6.4112  -13.7372   26.1285 C   0  0  0  0  0  0  0  0  0  0  0  0
    5.5331  -12.7440   26.5017 C   0  0  0  0  0  0  0  0  0  0  0  0
    5.9586  -11.4581   26.7305 C   0  0  0  0  0  0  0  0  0  0  0  0
    7.2971  -11.1137   26.5923 C   0  0  0  0  0  0  0  0  0  0  0  0
    8.1853  -12.1009   26.2191 C   0  0  0  0  0  0  0  0  0  0  0  0
    7.7500  -13.3813   25.9946 C   0  0  0  0  0  0  0  0  0  0  0  0
    9.8084  -17.2309   25.6980 C   0  0  0  0  0  0  0  0  0  0  0  0
   10.5610  -17.4539   26.8215 O   0  0  0  0  0  0  0  0  0  0  0  0
    8.8779  -18.0637   25.4590 O   0  0  0  0  0  0  0  0  0  0  0  0
  1  2  1  0
  2  3  1  0
  3  4  2  0
  5  3  1  0
  5  6  1  0
  6 13  1  0
  6  7  1  6
  8  7  1  0
  9  8  2  0
 10  9  1  0
 11 10  1  0
 11 12  2  0
 12  8  1  0
 13 14  2  0
 15 16  1  0
 15 13  1  0
 16 27  1  0
 16 17  1  1
 18 17  1  0
 18 19  2  0
 20 19  1  0
 21 20  1  0
 22 21  2  0
 23 22  1  0
 24 23  2  0
 24 25  1  0
 25 26  2  0
 26 21  1  0
 26 18  1  0
 27 29  2  0
 27 28  1  0
M  END
$$$$
