GHW.pdb
     RDKit          3D

 29 31  0  0  1  0  0  0  0  0999 V2000
   13.1054  -16.8410   18.2390 N   0  0  0  0  0  0  0  0  0  0  0  0
   12.4171  -17.6124   19.2184 C   0  0  0  0  0  0  0  0  0  0  0  0
   11.8305  -16.7480   20.3154 C   0  0  0  0  0  0  0  0  0  0  0  0
   12.5072  -15.9162   20.9195 O   0  0  0  0  0  0  0  0  0  0  0  0
   10.4650  -16.9391   20.6170 N   0  0  0  0  0  0  0  0  0  0  0  0
    9.7470  -16.2083   21.5877 C   0  0  1  0  0  0  0  0  0  0  0  0
    8.2977  -15.8830   21.2807 C   0  0  0  0  0  0  0  0  0  0  0  0
    8.1382  -14.9897   20.1165 C   0  0  0  0  0  0  0  0  0  0  0  0
    9.1485  -14.4723   19.3066 C   0  0  0  0  0  0  0  0  0  0  0  0
    8.5713  -13.7093   18.3648 N   0  0  0  0  0  0  0  0  0  0  0  0
    7.2467  -13.7240   18.5465 C   0  0  0  0  0  0  0  0  0  0  0  0
    7.0089  -14.5061   19.6132 N   0  0  0  0  0  0  0  0  0  0  0  0
    9.9006  -16.5784   22.9838 C   0  0  0  0  0  0  0  0  0  0  0  0
   10.3300  -17.7666   23.2014 O   0  0  0  0  0  0  0  0  0  0  0  0
    9.6215  -15.7548   24.0946 N   0  0  0  0  0  0  0  0  0  0  0  0
    9.8347  -16.2385   25.4547 C   0  0  1  0  0  0  0  0  0  0  0  0
    9.6263  -15.1224   26.4483 C   0  0  0  0  0  0  0  0  0  0  0  0
    8.2465  -14.6150   26.3247 C   0  0  0  0  0  0  0  0  0  0  0  0
    7.1701  -15.4789   26.0699 C   0  0  0  0  0  0  0  0  0  0  0  0
    6.0759  -14.7142   26.0708 N   0  0  0  0  0  0  0  0  0  0  0  0
    6.3976  -13.4352   26.3078 C   0  0  0  0  0  0  0  0  0  0  0  0
    5.6822  -12.2624   26.4052 C   0  0  0  0  0  0  0  0  0  0  0  0
    6.3020  -11.0616   26.6516 C   0  0  0  0  0  0  0  0  0  0  0  0
    7.6798  -10.9889   26.8116 C   0  0  0  0  0  0  0  0  0  0  0  0
    8.4061  -12.1577   26.7162 C   0  0  0  0  0  0  0  0  0  0  0  0
    7.7770  -13.3509   26.4714 C   0  0  0  0  0  0  0  0  0  0  0  0
    9.1169  -17.4822   25.7262 C   0  0  0  0  0  0  0  0  0  0  0  0
    8.1437  -17.9781   24.8981 O   0  0  0  0  0  0  0  0  0  0  0  0
    9.3770  -18.1582   26.7711 O   0  0  0  0  0  0  0  0  0  0  0  0
  1  2  1  0
  2  3  1  0
  3  4  2  0
  5  3  1  0
  5  6  1  0
  6 13  1  0
  6  7  1  6
  8  7  1  0
  9  8  2  0
 10  9  1  0
 11 10  1  0
 11 12  2  0
 12  8  1  0
 13 14  2  0
 15 16  1  0
 15 13  1  0
 16 27  1  0
 16 17  1  1
 18 17  1  0
 18 19  2  0
 20 19  1  0
 21 20  1  0
 22 21  2  0
 23 22  1  0
 24 23  2  0
 24 25  1  0
 25 26  2  0
 26 21  1  0
 26 18  1  0
 27 29  2  0
 27 28  1  0
M  END
$$$$
