GHW.pdb
     RDKit          3D

 29 31  0  0  1  0  0  0  0  0999 V2000
    4.7828  -18.2313   20.9411 N   0  0  0  0  0  0  0  0  0  0  0  0
    5.3962  -17.0569   21.4632 C   0  0  0  0  0  0  0  0  0  0  0  0
    6.9082  -17.1291   21.4031 C   0  0  0  0  0  0  0  0  0  0  0  0
    7.5072  -18.2039   21.3771 O   0  0  0  0  0  0  0  0  0  0  0  0
    7.6050  -15.9020   21.3778 N   0  0  0  0  0  0  0  0  0  0  0  0
    9.0062  -15.7717   21.4863 C   0  0  1  0  0  0  0  0  0  0  0  0
    9.6801  -14.7499   20.5907 C   0  0  0  0  0  0  0  0  0  0  0  0
    8.8468  -14.3481   19.4405 C   0  0  0  0  0  0  0  0  0  0  0  0
    7.6149  -14.8825   19.0649 C   0  0  0  0  0  0  0  0  0  0  0  0
    7.2015  -14.2316   17.9658 N   0  0  0  0  0  0  0  0  0  0  0  0
    8.1166  -13.3146   17.6349 C   0  0  0  0  0  0  0  0  0  0  0  0
    9.1034  -13.4044   18.5426 N   0  0  0  0  0  0  0  0  0  0  0  0
    9.5973  -15.7540   22.8130 C   0  0  0  0  0  0  0  0  0  0  0  0
   10.4699  -14.8384   23.0221 O   0  0  0  0  0  0  0  0  0  0  0  0
    9.2961  -16.6431   23.8659 N   0  0  0  0  0  0  0  0  0  0  0  0
    9.9346  -16.4992   25.1701 C   0  0  1  0  0  0  0  0  0  0  0  0
    9.7569  -15.0942   25.6903 C   0  0  0  0  0  0  0  0  0  0  0  0
    8.3213  -14.7537   25.6856 C   0  0  0  0  0  0  0  0  0  0  0  0
    7.3476  -15.6970   25.3223 C   0  0  0  0  0  0  0  0  0  0  0  0
    6.1697  -15.0877   25.4746 N   0  0  0  0  0  0  0  0  0  0  0  0
    6.3437  -13.8313   25.9068 C   0  0  0  0  0  0  0  0  0  0  0  0
    5.4961  -12.7892   26.2106 C   0  0  0  0  0  0  0  0  0  0  0  0
    5.9757  -11.5729   26.6317 C   0  0  0  0  0  0  0  0  0  0  0  0
    7.3403  -11.3512   26.7660 C   0  0  0  0  0  0  0  0  0  0  0  0
    8.1984  -12.3883   26.4646 C   0  0  0  0  0  0  0  0  0  0  0  0
    7.7087  -13.5986   26.0465 C   0  0  0  0  0  0  0  0  0  0  0  0
    9.5758  -17.5752   26.0915 C   0  0  0  0  0  0  0  0  0  0  0  0
   10.1259  -17.7026   27.3405 O   0  0  0  0  0  0  0  0  0  0  0  0
    8.7221  -18.4536   25.7509 O   0  0  0  0  0  0  0  0  0  0  0  0
  1  2  1  0
  2  3  1  0
  3  4  2  0
  5  3  1  0
  5  6  1  0
  6 13  1  0
  6  7  1  1
  8  7  1  0
  9  8  2  0
 10  9  1  0
 11 10  1  0
 11 12  2  0
 12  8  1  0
 13 14  2  0
 15 16  1  0
 15 13  1  0
 16 27  1  0
 16 17  1  1
 18 17  1  0
 18 19  2  0
 20 19  1  0
 21 20  1  0
 22 21  2  0
 23 22  1  0
 24 23  2  0
 24 25  1  0
 25 26  2  0
 26 21  1  0
 26 18  1  0
 27 29  2  0
 27 28  1  0
M  END
$$$$
