GHW.pdb
     RDKit          3D

 29 31  0  0  1  0  0  0  0  0999 V2000
    5.5168  -20.6974   21.5517 N   0  0  0  0  0  0  0  0  0  0  0  0
    5.6232  -19.4625   22.2529 C   0  0  0  0  0  0  0  0  0  0  0  0
    6.6885  -18.5619   21.6623 C   0  0  0  0  0  0  0  0  0  0  0  0
    7.8355  -18.9588   21.4584 O   0  0  0  0  0  0  0  0  0  0  0  0
    6.3062  -17.2387   21.3539 N   0  0  0  0  0  0  0  0  0  0  0  0
    7.1984  -16.2123   20.9763 C   0  0  1  0  0  0  0  0  0  0  0  0
    6.5972  -14.9541   20.3797 C   0  0  0  0  0  0  0  0  0  0  0  0
    7.6083  -14.0434   19.8078 C   0  0  0  0  0  0  0  0  0  0  0  0
    7.9792  -12.7879   20.2879 C   0  0  0  0  0  0  0  0  0  0  0  0
    8.9302  -12.3006   19.4751 N   0  0  0  0  0  0  0  0  0  0  0  0
    9.1725  -13.1917   18.5081 C   0  0  0  0  0  0  0  0  0  0  0  0
    8.3599  -14.2385   18.7309 N   0  0  0  0  0  0  0  0  0  0  0  0
    8.2874  -15.8780   21.8774 C   0  0  0  0  0  0  0  0  0  0  0  0
    9.2628  -15.2295   21.3563 O   0  0  0  0  0  0  0  0  0  0  0  0
    8.3572  -16.2023   23.2485 N   0  0  0  0  0  0  0  0  0  0  0  0
    9.5329  -15.8531   24.0392 C   0  0  1  0  0  0  0  0  0  0  0  0
    9.4415  -14.4240   24.5140 C   0  0  0  0  0  0  0  0  0  0  0  0
    8.1341  -14.2119   25.1641 C   0  0  0  0  0  0  0  0  0  0  0  0
    7.2127  -15.2603   25.3117 C   0  0  0  0  0  0  0  0  0  0  0  0
    6.1748  -14.7476   25.9763 N   0  0  0  0  0  0  0  0  0  0  0  0
    6.3868  -13.4534   26.2513 C   0  0  0  0  0  0  0  0  0  0  0  0
    5.6618  -12.4708   26.8883 C   0  0  0  0  0  0  0  0  0  0  0  0
    6.1430  -11.1904   27.0135 C   0  0  0  0  0  0  0  0  0  0  0  0
    7.3848  -10.8409   26.4986 C   0  0  0  0  0  0  0  0  0  0  0  0
    8.1196  -11.8174   25.8588 C   0  0  0  0  0  0  0  0  0  0  0  0
    7.6302  -13.0925   25.7408 C   0  0  0  0  0  0  0  0  0  0  0  0
    9.8369  -16.8514   25.0623 C   0  0  0  0  0  0  0  0  0  0  0  0
    9.0541  -17.9543   25.2845 O   0  0  0  0  0  0  0  0  0  0  0  0
   10.8629  -16.7206   25.8016 O   0  0  0  0  0  0  0  0  0  0  0  0
  1  2  1  0
  2  3  1  0
  3  4  2  0
  5  3  1  0
  5  6  1  0
  6 13  1  0
  6  7  1  1
  8  7  1  0
  9  8  2  0
 10  9  1  0
 11 10  1  0
 11 12  2  0
 12  8  1  0
 13 14  2  0
 15 16  1  0
 15 13  1  0
 16 27  1  0
 16 17  1  1
 18 17  1  0
 18 19  2  0
 20 19  1  0
 21 20  1  0
 22 21  2  0
 23 22  1  0
 24 23  2  0
 24 25  1  0
 25 26  2  0
 26 21  1  0
 26 18  1  0
 27 29  2  0
 27 28  1  0
M  END
$$$$
