GHW.pdb
     RDKit          3D

 29 31  0  0  1  0  0  0  0  0999 V2000
    8.3231  -18.9604   19.2542 N   0  0  0  0  0  0  0  0  0  0  0  0
    9.0349  -19.1298   20.4760 C   0  0  0  0  0  0  0  0  0  0  0  0
    9.7251  -17.8546   20.9147 C   0  0  0  0  0  0  0  0  0  0  0  0
   10.9509  -17.7446   20.9113 O   0  0  0  0  0  0  0  0  0  0  0  0
    8.8959  -16.7908   21.3304 N   0  0  0  0  0  0  0  0  0  0  0  0
    9.3616  -15.5766   21.8788 C   0  0  1  0  0  0  0  0  0  0  0  0
    8.6347  -14.3081   21.4749 C   0  0  0  0  0  0  0  0  0  0  0  0
    8.3266  -14.2508   20.0325 C   0  0  0  0  0  0  0  0  0  0  0  0
    8.7153  -15.1617   19.0509 C   0  0  0  0  0  0  0  0  0  0  0  0
    8.2243  -14.7358   17.8762 N   0  0  0  0  0  0  0  0  0  0  0  0
    7.5464  -13.6007   18.0754 C   0  0  0  0  0  0  0  0  0  0  0  0
    7.6226  -13.3273   19.3889 N   0  0  0  0  0  0  0  0  0  0  0  0
    9.6998  -15.5415   23.2909 C   0  0  0  0  0  0  0  0  0  0  0  0
   10.4038  -14.5396   23.6706 O   0  0  0  0  0  0  0  0  0  0  0  0
    9.3254  -16.4994   24.2563 N   0  0  0  0  0  0  0  0  0  0  0  0
    9.8421  -16.4271   25.6191 C   0  0  1  0  0  0  0  0  0  0  0  0
    8.7116  -16.5081   26.6149 C   0  0  0  0  0  0  0  0  0  0  0  0
    7.6600  -15.5461   26.2335 C   0  0  0  0  0  0  0  0  0  0  0  0
    6.4521  -15.9729   25.6603 C   0  0  0  0  0  0  0  0  0  0  0  0
    5.7166  -14.8722   25.4888 N   0  0  0  0  0  0  0  0  0  0  0  0
    6.3836  -13.7911   25.9150 C   0  0  0  0  0  0  0  0  0  0  0  0
    6.1068  -12.4428   25.9621 C   0  0  0  0  0  0  0  0  0  0  0  0
    7.0160  -11.5398   26.4569 C   0  0  0  0  0  0  0  0  0  0  0  0
    8.2532  -11.9586   26.9295 C   0  0  0  0  0  0  0  0  0  0  0  0
    8.5408  -13.3070   26.8873 C   0  0  0  0  0  0  0  0  0  0  0  0
    7.6254  -14.1995   26.3926 C   0  0  0  0  0  0  0  0  0  0  0  0
   10.9616  -17.3393   25.8431 C   0  0  0  0  0  0  0  0  0  0  0  0
   11.4107  -18.2173   24.8911 O   0  0  0  0  0  0  0  0  0  0  0  0
   11.5667  -17.3502   26.9612 O   0  0  0  0  0  0  0  0  0  0  0  0
  1  2  1  0
  2  3  1  0
  3  4  2  0
  5  3  1  0
  5  6  1  0
  6 13  1  0
  6  7  1  1
  8  7  1  0
  9  8  2  0
 10  9  1  0
 11 10  1  0
 11 12  2  0
 12  8  1  0
 13 14  2  0
 15 16  1  0
 15 13  1  0
 16 27  1  0
 16 17  1  1
 18 17  1  0
 18 19  2  0
 20 19  1  0
 21 20  1  0
 22 21  2  0
 23 22  1  0
 24 23  2  0
 24 25  1  0
 25 26  2  0
 26 21  1  0
 26 18  1  0
 27 29  2  0
 27 28  1  0
M  END
$$$$
