GHW.pdb
     RDKit          3D

 29 31  0  0  1  0  0  0  0  0999 V2000
    7.1067  -19.9934   19.7629 N   0  0  0  0  0  0  0  0  0  0  0  0
    6.8871  -18.7602   20.4405 C   0  0  0  0  0  0  0  0  0  0  0  0
    8.1451  -17.9195   20.5155 C   0  0  0  0  0  0  0  0  0  0  0  0
    9.2578  -18.3926   20.2857 O   0  0  0  0  0  0  0  0  0  0  0  0
    7.9848  -16.5610   20.8627 N   0  0  0  0  0  0  0  0  0  0  0  0
    9.0462  -15.6692   21.1279 C   0  0  1  0  0  0  0  0  0  0  0  0
    8.9063  -14.2500   20.6114 C   0  0  0  0  0  0  0  0  0  0  0  0
    8.4689  -14.1861   19.2031 C   0  0  0  0  0  0  0  0  0  0  0  0
    8.2329  -15.2593   18.3445 C   0  0  0  0  0  0  0  0  0  0  0  0
    7.8510  -14.7610   17.1578 N   0  0  0  0  0  0  0  0  0  0  0  0
    7.8368  -13.4260   17.2322 C   0  0  0  0  0  0  0  0  0  0  0  0
    8.2146  -13.1019   18.4804 N   0  0  0  0  0  0  0  0  0  0  0  0
    9.6347  -15.6717   22.4558 C   0  0  0  0  0  0  0  0  0  0  0  0
   10.5621  -14.8095   22.6559 O   0  0  0  0  0  0  0  0  0  0  0  0
    9.2769  -16.5272   23.5188 N   0  0  0  0  0  0  0  0  0  0  0  0
    9.8987  -16.3871   24.8314 C   0  0  1  0  0  0  0  0  0  0  0  0
    9.7366  -14.9767   25.3421 C   0  0  0  0  0  0  0  0  0  0  0  0
    8.3123  -14.7285   25.6362 C   0  0  0  0  0  0  0  0  0  0  0  0
    7.3547  -15.7487   25.5260 C   0  0  0  0  0  0  0  0  0  0  0  0
    6.1954  -15.2084   25.9080 N   0  0  0  0  0  0  0  0  0  0  0  0
    6.3658  -13.9234   26.2472 C   0  0  0  0  0  0  0  0  0  0  0  0
    5.5290  -12.9231   26.6900 C   0  0  0  0  0  0  0  0  0  0  0  0
    5.9977  -11.6591   26.9538 C   0  0  0  0  0  0  0  0  0  0  0  0
    7.3397  -11.3449   26.7815 C   0  0  0  0  0  0  0  0  0  0  0  0
    8.1867  -12.3395   26.3386 C   0  0  0  0  0  0  0  0  0  0  0  0
    7.7085  -13.5979   26.0798 C   0  0  0  0  0  0  0  0  0  0  0  0
    9.5089  -17.4523   25.7528 C   0  0  0  0  0  0  0  0  0  0  0  0
   10.0490  -17.5907   27.0049 O   0  0  0  0  0  0  0  0  0  0  0  0
    8.6360  -18.3104   25.4090 O   0  0  0  0  0  0  0  0  0  0  0  0
  1  2  1  0
  2  3  1  0
  3  4  2  0
  5  3  1  0
  5  6  1  0
  6 13  1  0
  6  7  1  1
  8  7  1  0
  9  8  2  0
 10  9  1  0
 11 10  1  0
 11 12  2  0
 12  8  1  0
 13 14  2  0
 15 16  1  0
 15 13  1  0
 16 27  1  0
 16 17  1  1
 18 17  1  0
 18 19  2  0
 20 19  1  0
 21 20  1  0
 22 21  2  0
 23 22  1  0
 24 23  2  0
 24 25  1  0
 25 26  2  0
 26 21  1  0
 26 18  1  0
 27 29  2  0
 27 28  1  0
M  END
$$$$
