GHW.pdb
     RDKit          3D

 29 31  0  0  1  0  0  0  0  0999 V2000
    7.7361  -12.2566   18.9712 N   0  0  0  0  0  0  0  0  0  0  0  0
    8.5800  -13.3835   18.7563 C   0  0  0  0  0  0  0  0  0  0  0  0
    8.4034  -14.4400   19.8274 C   0  0  0  0  0  0  0  0  0  0  0  0
    7.7329  -14.2347   20.8388 O   0  0  0  0  0  0  0  0  0  0  0  0
    9.0454  -15.6787   19.6139 N   0  0  0  0  0  0  0  0  0  0  0  0
    9.0886  -16.7330   20.5512 C   0  0  1  0  0  0  0  0  0  0  0  0
    9.4314  -18.1145   20.0273 C   0  0  0  0  0  0  0  0  0  0  0  0
    9.5014  -19.1365   21.0900 C   0  0  0  0  0  0  0  0  0  0  0  0
    9.3071  -18.9450   22.4575 C   0  0  0  0  0  0  0  0  0  0  0  0
    9.4599  -20.1322   23.0654 N   0  0  0  0  0  0  0  0  0  0  0  0
    9.7412  -21.0587   22.1433 C   0  0  0  0  0  0  0  0  0  0  0  0
    9.7609  -20.4315   20.9549 N   0  0  0  0  0  0  0  0  0  0  0  0
    9.7411  -16.4963   21.8271 C   0  0  0  0  0  0  0  0  0  0  0  0
   11.0116  -16.3311   21.7810 O   0  0  0  0  0  0  0  0  0  0  0  0
    9.1043  -16.4353   23.0843 N   0  0  0  0  0  0  0  0  0  0  0  0
    9.8544  -16.0794   24.2844 C   0  0  1  0  0  0  0  0  0  0  0  0
    9.6163  -14.6336   24.6437 C   0  0  0  0  0  0  0  0  0  0  0  0
    8.2643  -14.4931   25.2172 C   0  0  0  0  0  0  0  0  0  0  0  0
    7.3523  -15.5599   25.2087 C   0  0  0  0  0  0  0  0  0  0  0  0
    6.2631  -15.1182   25.8416 N   0  0  0  0  0  0  0  0  0  0  0  0
    6.4345  -13.8511   26.2422 C   0  0  0  0  0  0  0  0  0  0  0  0
    5.6517  -12.9359   26.9102 C   0  0  0  0  0  0  0  0  0  0  0  0
    6.1022  -11.6665   27.1795 C   0  0  0  0  0  0  0  0  0  0  0  0
    7.3704  -11.2603   26.7845 C   0  0  0  0  0  0  0  0  0  0  0  0
    8.1630  -12.1691   26.1149 C   0  0  0  0  0  0  0  0  0  0  0  0
    7.7038  -13.4339   25.8527 C   0  0  0  0  0  0  0  0  0  0  0  0
    9.6756  -17.0473   25.3646 C   0  0  0  0  0  0  0  0  0  0  0  0
   10.3566  -16.9748   26.5519 O   0  0  0  0  0  0  0  0  0  0  0  0
    8.8636  -18.0164   25.2299 O   0  0  0  0  0  0  0  0  0  0  0  0
  1  2  1  0
  2  3  1  0
  3  4  2  0
  5  3  1  0
  5  6  1  0
  6 13  1  0
  6  7  1  6
  8  7  1  0
  9  8  2  0
 10  9  1  0
 11 10  1  0
 11 12  2  0
 12  8  1  0
 13 14  2  0
 15 16  1  0
 15 13  1  0
 16 27  1  0
 16 17  1  1
 18 17  1  0
 18 19  2  0
 20 19  1  0
 21 20  1  0
 22 21  2  0
 23 22  1  0
 24 23  2  0
 24 25  1  0
 25 26  2  0
 26 21  1  0
 26 18  1  0
 27 29  2  0
 27 28  1  0
M  END
$$$$
