GHW.pdb
     RDKit          3D

 29 31  0  0  1  0  0  0  0  0999 V2000
    6.5539  -18.8426   19.0359 N   0  0  0  0  0  0  0  0  0  0  0  0
    6.3150  -18.0058   20.1633 C   0  0  0  0  0  0  0  0  0  0  0  0
    7.5536  -17.2367   20.5746 C   0  0  0  0  0  0  0  0  0  0  0  0
    8.6722  -17.7500   20.5601 O   0  0  0  0  0  0  0  0  0  0  0  0
    7.3682  -15.8970   20.9777 N   0  0  0  0  0  0  0  0  0  0  0  0
    8.3882  -15.0612   21.4810 C   0  0  1  0  0  0  0  0  0  0  0  0
    8.4619  -13.6486   20.9336 C   0  0  0  0  0  0  0  0  0  0  0  0
    8.4321  -13.5962   19.4588 C   0  0  0  0  0  0  0  0  0  0  0  0
    7.3626  -13.2122   18.6506 C   0  0  0  0  0  0  0  0  0  0  0  0
    7.7581  -13.3078   17.3712 N   0  0  0  0  0  0  0  0  0  0  0  0
    9.0251  -13.7339   17.3396 C   0  0  0  0  0  0  0  0  0  0  0  0
    9.4112  -13.9015   18.6158 N   0  0  0  0  0  0  0  0  0  0  0  0
    8.6425  -15.0667   22.9110 C   0  0  0  0  0  0  0  0  0  0  0  0
    7.7850  -14.4433   23.6319 O   0  0  0  0  0  0  0  0  0  0  0  0
    9.7323  -15.6880   23.5561 N   0  0  0  0  0  0  0  0  0  0  0  0
    9.7991  -15.7536   25.0124 C   0  0  1  0  0  0  0  0  0  0  0  0
    8.5492  -16.3903   25.5678 C   0  0  0  0  0  0  0  0  0  0  0  0
    7.5243  -15.3487   25.7717 C   0  0  0  0  0  0  0  0  0  0  0  0
    6.1843  -15.5617   25.4127 C   0  0  0  0  0  0  0  0  0  0  0  0
    5.5263  -14.4579   25.7739 N   0  0  0  0  0  0  0  0  0  0  0  0
    6.3643  -13.5735   26.3318 C   0  0  0  0  0  0  0  0  0  0  0  0
    6.2226  -12.3080   26.8563 C   0  0  0  0  0  0  0  0  0  0  0  0
    7.2959  -11.6163   27.3628 C   0  0  0  0  0  0  0  0  0  0  0  0
    8.5683  -12.1732   27.3631 C   0  0  0  0  0  0  0  0  0  0  0  0
    8.7215  -13.4405   26.8403 C   0  0  0  0  0  0  0  0  0  0  0  0
    7.6432  -14.1224   26.3387 C   0  0  0  0  0  0  0  0  0  0  0  0
   11.0662  -16.3021   25.4911 C   0  0  0  0  0  0  0  0  0  0  0  0
   11.9352  -16.9880   24.6830 O   0  0  0  0  0  0  0  0  0  0  0  0
   11.4081  -16.1602   26.7074 O   0  0  0  0  0  0  0  0  0  0  0  0
  1  2  1  0
  2  3  1  0
  3  4  2  0
  5  3  1  0
  5  6  1  0
  6 13  1  0
  6  7  1  1
  8  7  1  0
  9  8  2  0
 10  9  1  0
 11 10  1  0
 11 12  2  0
 12  8  1  0
 13 14  2  0
 15 16  1  0
 15 13  1  0
 16 27  1  0
 16 17  1  6
 18 17  1  0
 18 19  2  0
 20 19  1  0
 21 20  1  0
 22 21  2  0
 23 22  1  0
 24 23  2  0
 24 25  1  0
 25 26  2  0
 26 21  1  0
 26 18  1  0
 27 29  2  0
 27 28  1  0
M  END
$$$$
