GHW.pdb
     RDKit          3D

 29 31  0  0  1  0  0  0  0  0999 V2000
    8.1846  -12.7040   17.7592 N   0  0  0  0  0  0  0  0  0  0  0  0
    9.1568  -13.6126   18.2665 C   0  0  0  0  0  0  0  0  0  0  0  0
    8.6340  -14.4063   19.4462 C   0  0  0  0  0  0  0  0  0  0  0  0
    7.7911  -13.9470   20.2165 O   0  0  0  0  0  0  0  0  0  0  0  0
    9.1588  -15.7042   19.6249 N   0  0  0  0  0  0  0  0  0  0  0  0
    8.9206  -16.5185   20.7528 C   0  0  1  0  0  0  0  0  0  0  0  0
    8.9102  -18.0197   20.5360 C   0  0  0  0  0  0  0  0  0  0  0  0
    8.1144  -18.4303   19.3627 C   0  0  0  0  0  0  0  0  0  0  0  0
    6.8227  -18.0198   19.0350 C   0  0  0  0  0  0  0  0  0  0  0  0
    6.4746  -18.6294   17.8906 N   0  0  0  0  0  0  0  0  0  0  0  0
    7.4874  -19.4028   17.4858 C   0  0  0  0  0  0  0  0  0  0  0  0
    8.4688  -19.2656   18.3935 N   0  0  0  0  0  0  0  0  0  0  0  0
    9.5938  -16.1888   21.9970 C   0  0  0  0  0  0  0  0  0  0  0  0
   10.5520  -15.3420   21.9047 O   0  0  0  0  0  0  0  0  0  0  0  0
    9.2857  -16.7134   23.2697 N   0  0  0  0  0  0  0  0  0  0  0  0
    9.8738  -16.1398   24.4758 C   0  0  1  0  0  0  0  0  0  0  0  0
    9.4796  -14.6902   24.6145 C   0  0  0  0  0  0  0  0  0  0  0  0
    8.1552  -14.6077   25.2594 C   0  0  0  0  0  0  0  0  0  0  0  0
    7.2544  -15.6832   25.2190 C   0  0  0  0  0  0  0  0  0  0  0  0
    6.1923  -15.3011   25.9317 N   0  0  0  0  0  0  0  0  0  0  0  0
    6.3703  -14.0627   26.4117 C   0  0  0  0  0  0  0  0  0  0  0  0
    5.6113  -13.2066   27.1783 C   0  0  0  0  0  0  0  0  0  0  0  0
    6.0616  -11.9532   27.5145 C   0  0  0  0  0  0  0  0  0  0  0  0
    7.3054  -11.5038   27.0898 C   0  0  0  0  0  0  0  0  0  0  0  0
    8.0741  -12.3534   26.3216 C   0  0  0  0  0  0  0  0  0  0  0  0
    7.6154  -13.6028   25.9932 C   0  0  0  0  0  0  0  0  0  0  0  0
    9.6643  -16.9779   25.6545 C   0  0  0  0  0  0  0  0  0  0  0  0
   10.3029  -16.7606   26.8477 O   0  0  0  0  0  0  0  0  0  0  0  0
    8.8647  -17.9652   25.6059 O   0  0  0  0  0  0  0  0  0  0  0  0
  1  2  1  0
  2  3  1  0
  3  4  2  0
  5  3  1  0
  5  6  1  0
  6 13  1  0
  6  7  1  6
  8  7  1  0
  9  8  2  0
 10  9  1  0
 11 10  1  0
 11 12  2  0
 12  8  1  0
 13 14  2  0
 15 16  1  0
 15 13  1  0
 16 27  1  0
 16 17  1  1
 18 17  1  0
 18 19  2  0
 20 19  1  0
 21 20  1  0
 22 21  2  0
 23 22  1  0
 24 23  2  0
 24 25  1  0
 25 26  2  0
 26 21  1  0
 26 18  1  0
 27 29  2  0
 27 28  1  0
M  END
$$$$
