GHW.pdb
     RDKit          3D

 29 31  0  0  1  0  0  0  0  0999 V2000
   10.0901  -18.9939   17.9437 N   0  0  0  0  0  0  0  0  0  0  0  0
    9.8436  -18.8900   19.3424 C   0  0  0  0  0  0  0  0  0  0  0  0
   10.3493  -17.5815   19.9144 C   0  0  0  0  0  0  0  0  0  0  0  0
   11.5369  -17.4066   20.1860 O   0  0  0  0  0  0  0  0  0  0  0  0
    9.3931  -16.5647   20.1237 N   0  0  0  0  0  0  0  0  0  0  0  0
    9.6897  -15.2684   20.5965 C   0  0  1  0  0  0  0  0  0  0  0  0
    8.6230  -14.2044   20.4217 C   0  0  0  0  0  0  0  0  0  0  0  0
    8.2011  -14.0316   19.0178 C   0  0  0  0  0  0  0  0  0  0  0  0
    8.4440  -12.9331   18.1940 C   0  0  0  0  0  0  0  0  0  0  0  0
    7.8894  -13.1849   16.9976 N   0  0  0  0  0  0  0  0  0  0  0  0
    7.3101  -14.3894   17.0330 C   0  0  0  0  0  0  0  0  0  0  0  0
    7.5123  -14.8824   18.2667 N   0  0  0  0  0  0  0  0  0  0  0  0
   10.3327  -15.1362   21.8922 C   0  0  0  0  0  0  0  0  0  0  0  0
   11.0549  -14.0890   22.0517 O   0  0  0  0  0  0  0  0  0  0  0  0
   10.2295  -16.0467   22.9647 N   0  0  0  0  0  0  0  0  0  0  0  0
    9.4328  -15.7238   24.1439 C   0  0  1  0  0  0  0  0  0  0  0  0
    8.0256  -15.3561   23.7429 C   0  0  0  0  0  0  0  0  0  0  0  0
    7.2988  -14.8587   24.9265 C   0  0  0  0  0  0  0  0  0  0  0  0
    6.5769  -15.7276   25.7594 C   0  0  0  0  0  0  0  0  0  0  0  0
    6.0926  -14.9726   26.7480 N   0  0  0  0  0  0  0  0  0  0  0  0
    6.4628  -13.6949   26.5871 C   0  0  0  0  0  0  0  0  0  0  0  0
    6.2398  -12.5301   27.2873 C   0  0  0  0  0  0  0  0  0  0  0  0
    6.7518  -11.3281   26.8632 C   0  0  0  0  0  0  0  0  0  0  0  0
    7.5165  -11.2461   25.7066 C   0  0  0  0  0  0  0  0  0  0  0  0
    7.7463  -12.4068   24.9976 C   0  0  0  0  0  0  0  0  0  0  0  0
    7.2316  -13.6013   25.4308 C   0  0  0  0  0  0  0  0  0  0  0  0
    9.5585  -16.7287   25.1974 C   0  0  0  0  0  0  0  0  0  0  0  0
    9.7166  -16.4071   26.5204 O   0  0  0  0  0  0  0  0  0  0  0  0
    9.5294  -17.9668   24.9099 O   0  0  0  0  0  0  0  0  0  0  0  0
  1  2  1  0
  2  3  1  0
  3  4  2  0
  5  3  1  0
  5  6  1  0
  6 13  1  0
  6  7  1  1
  8  7  1  0
  9  8  2  0
 10  9  1  0
 11 10  1  0
 11 12  2  0
 12  8  1  0
 13 14  2  0
 15 16  1  0
 15 13  1  0
 16 27  1  0
 16 17  1  6
 18 17  1  0
 18 19  2  0
 20 19  1  0
 21 20  1  0
 22 21  2  0
 23 22  1  0
 24 23  2  0
 24 25  1  0
 25 26  2  0
 26 21  1  0
 26 18  1  0
 27 29  2  0
 27 28  1  0
M  END
$$$$
