GHW.pdb
     RDKit          3D

 29 31  0  0  1  0  0  0  0  0999 V2000
   10.4964  -20.2743   22.1714 N   0  0  0  0  0  0  0  0  0  0  0  0
   10.7313  -19.3928   21.0778 C   0  0  0  0  0  0  0  0  0  0  0  0
   10.9237  -17.9604   21.5318 C   0  0  0  0  0  0  0  0  0  0  0  0
   12.0399  -17.4481   21.6116 O   0  0  0  0  0  0  0  0  0  0  0  0
    9.7596  -17.2338   21.8617 N   0  0  0  0  0  0  0  0  0  0  0  0
    9.7524  -15.9231   22.3852 C   0  0  1  0  0  0  0  0  0  0  0  0
    8.6540  -14.9913   21.9098 C   0  0  0  0  0  0  0  0  0  0  0  0
    7.5596  -15.6941   21.2118 C   0  0  0  0  0  0  0  0  0  0  0  0
    7.4714  -17.0594   20.9426 C   0  0  0  0  0  0  0  0  0  0  0  0
    6.3170  -17.2773   20.2926 N   0  0  0  0  0  0  0  0  0  0  0  0
    5.6778  -16.1127   20.1416 C   0  0  0  0  0  0  0  0  0  0  0  0
    6.4500  -15.1689   20.7063 N   0  0  0  0  0  0  0  0  0  0  0  0
    9.9894  -15.7463   23.8072 C   0  0  0  0  0  0  0  0  0  0  0  0
   10.3008  -14.5588   24.1769 O   0  0  0  0  0  0  0  0  0  0  0  0
    9.9072  -16.7528   24.7921 N   0  0  0  0  0  0  0  0  0  0  0  0
   10.2318  -16.4626   26.1849 C   0  0  1  0  0  0  0  0  0  0  0  0
    8.9935  -16.5494   27.0423 C   0  0  0  0  0  0  0  0  0  0  0  0
    7.9345  -15.7095   26.4507 C   0  0  0  0  0  0  0  0  0  0  0  0
    6.8763  -16.2736   25.7214 C   0  0  0  0  0  0  0  0  0  0  0  0
    6.0824  -15.2568   25.3782 N   0  0  0  0  0  0  0  0  0  0  0  0
    6.5739  -14.1001   25.8430 C   0  0  0  0  0  0  0  0  0  0  0  0
    6.1740  -12.7841   25.7729 C   0  0  0  0  0  0  0  0  0  0  0  0
    6.9086  -11.7785   26.3526 C   0  0  0  0  0  0  0  0  0  0  0  0
    8.0871  -12.0566   27.0333 C   0  0  0  0  0  0  0  0  0  0  0  0
    8.4968  -13.3715   27.1098 C   0  0  0  0  0  0  0  0  0  0  0  0
    7.7551  -14.3673   26.5287 C   0  0  0  0  0  0  0  0  0  0  0  0
   11.3938  -17.2124   26.6574 C   0  0  0  0  0  0  0  0  0  0  0  0
   11.9669  -17.0049   27.8851 O   0  0  0  0  0  0  0  0  0  0  0  0
   11.9266  -18.1013   25.9210 O   0  0  0  0  0  0  0  0  0  0  0  0
  1  2  1  0
  2  3  1  0
  3  4  2  0
  5  3  1  0
  5  6  1  0
  6 13  1  0
  6  7  1  1
  8  7  1  0
  9  8  2  0
 10  9  1  0
 11 10  1  0
 11 12  2  0
 12  8  1  0
 13 14  2  0
 15 16  1  0
 15 13  1  0
 16 27  1  0
 16 17  1  1
 18 17  1  0
 18 19  2  0
 20 19  1  0
 21 20  1  0
 22 21  2  0
 23 22  1  0
 24 23  2  0
 24 25  1  0
 25 26  2  0
 26 21  1  0
 26 18  1  0
 27 29  2  0
 27 28  1  0
M  END
$$$$
