GHW.pdb
     RDKit          3D

 29 31  0  0  1  0  0  0  0  0999 V2000
    9.1636  -19.0255   18.5593 N   0  0  0  0  0  0  0  0  0  0  0  0
    8.8091  -18.9167   19.9343 C   0  0  0  0  0  0  0  0  0  0  0  0
    9.5182  -17.7647   20.6161 C   0  0  0  0  0  0  0  0  0  0  0  0
   10.6742  -17.8644   21.0267 O   0  0  0  0  0  0  0  0  0  0  0  0
    8.7910  -16.5639   20.7612 N   0  0  0  0  0  0  0  0  0  0  0  0
    9.2965  -15.3850   21.3500 C   0  0  1  0  0  0  0  0  0  0  0  0
    8.5546  -14.0931   21.0650 C   0  0  0  0  0  0  0  0  0  0  0  0
    8.2034  -13.9284   19.6408 C   0  0  0  0  0  0  0  0  0  0  0  0
    8.6918  -12.9655   18.7583 C   0  0  0  0  0  0  0  0  0  0  0  0
    8.1157  -13.1721   17.5633 N   0  0  0  0  0  0  0  0  0  0  0  0
    7.2890  -14.2190   17.6556 C   0  0  0  0  0  0  0  0  0  0  0  0
    7.3594  -14.6598   18.9231 N   0  0  0  0  0  0  0  0  0  0  0  0
    9.7194  -15.4332   22.7387 C   0  0  0  0  0  0  0  0  0  0  0  0
   10.5748  -14.5460   23.0919 O   0  0  0  0  0  0  0  0  0  0  0  0
    9.2753  -16.3567   23.7081 N   0  0  0  0  0  0  0  0  0  0  0  0
    9.7935  -16.3146   25.0717 C   0  0  1  0  0  0  0  0  0  0  0  0
    9.5472  -14.9588   25.6860 C   0  0  0  0  0  0  0  0  0  0  0  0
    8.0938  -14.7144   25.7543 C   0  0  0  0  0  0  0  0  0  0  0  0
    7.1680  -15.7147   25.4194 C   0  0  0  0  0  0  0  0  0  0  0  0
    5.9612  -15.1875   25.6375 N   0  0  0  0  0  0  0  0  0  0  0  0
    6.0727  -13.9290   26.0839 C   0  0  0  0  0  0  0  0  0  0  0  0
    5.1739  -12.9503   26.4459 C   0  0  0  0  0  0  0  0  0  0  0  0
    5.5921  -11.7113   26.8664 C   0  0  0  0  0  0  0  0  0  0  0  0
    6.9440  -11.4015   26.9412 C   0  0  0  0  0  0  0  0  0  0  0  0
    7.8530  -12.3745   26.5812 C   0  0  0  0  0  0  0  0  0  0  0  0
    7.4246  -13.6082   26.1643 C   0  0  0  0  0  0  0  0  0  0  0  0
    9.3723  -17.4659   25.8670 C   0  0  0  0  0  0  0  0  0  0  0  0
    8.5344  -18.4384   25.3865 O   0  0  0  0  0  0  0  0  0  0  0  0
    9.7776  -17.6015   27.0644 O   0  0  0  0  0  0  0  0  0  0  0  0
  1  2  1  0
  2  3  1  0
  3  4  2  0
  5  3  1  0
  5  6  1  0
  6 13  1  0
  6  7  1  1
  8  7  1  0
  9  8  2  0
 10  9  1  0
 11 10  1  0
 11 12  2  0
 12  8  1  0
 13 14  2  0
 15 16  1  0
 15 13  1  0
 16 27  1  0
 16 17  1  1
 18 17  1  0
 18 19  2  0
 20 19  1  0
 21 20  1  0
 22 21  2  0
 23 22  1  0
 24 23  2  0
 24 25  1  0
 25 26  2  0
 26 21  1  0
 26 18  1  0
 27 29  2  0
 27 28  1  0
M  END
$$$$
