PWF.pdb
     RDKit          3D

 33 36  0  0  1  0  0  0  0  0999 V2000
   29.0788  -21.5346  -17.2343 N   0  0  0  0  0  0  0  0  0  0  0  0
   30.1523  -22.0562  -18.0573 C   0  0  0  0  0  0  0  0  0  0  0  0
   30.6948  -23.2272  -17.2716 C   0  0  0  0  0  0  0  0  0  0  0  0
   29.7237  -23.4030  -16.0961 C   0  0  0  0  0  0  0  0  0  0  0  0
   28.5038  -22.7130  -16.6729 C   0  0  1  0  0  0  0  0  0  0  0  0
   27.5219  -22.4342  -15.5967 C   0  0  0  0  0  0  0  0  0  0  0  0
   26.9360  -23.3899  -15.0291 O   0  0  0  0  0  0  0  0  0  0  0  0
   27.2087  -21.1220  -15.1729 N   0  0  0  0  0  0  0  0  0  0  0  0
   26.3437  -20.7843  -14.0574 C   0  0  1  0  0  0  0  0  0  0  0  0
   27.0814  -19.7082  -13.2944 C   0  0  0  0  0  0  0  0  0  0  0  0
   27.8906  -20.1865  -12.1742 C   0  0  0  0  0  0  0  0  0  0  0  0
   29.2325  -20.5511  -12.2918 C   0  0  0  0  0  0  0  0  0  0  0  0
   29.7258  -20.9165  -11.1029 N   0  0  0  0  0  0  0  0  0  0  0  0
   28.7105  -20.7940  -10.2009 C   0  0  0  0  0  0  0  0  0  0  0  0
   28.7176  -21.0567   -8.8482 C   0  0  0  0  0  0  0  0  0  0  0  0
   27.5328  -20.8508   -8.1724 C   0  0  0  0  0  0  0  0  0  0  0  0
   26.3947  -20.4093   -8.7892 C   0  0  0  0  0  0  0  0  0  0  0  0
   26.4002  -20.1509  -10.1364 C   0  0  0  0  0  0  0  0  0  0  0  0
   27.5623  -20.3396  -10.8623 C   0  0  0  0  0  0  0  0  0  0  0  0
   24.9725  -20.4770  -14.4019 C   0  0  0  0  0  0  0  0  0  0  0  0
   24.7357  -19.8041  -15.4622 O   0  0  0  0  0  0  0  0  0  0  0  0
   23.8461  -20.8777  -13.6423 N   0  0  0  0  0  0  0  0  0  0  0  0
   22.4732  -20.6455  -14.0910 C   0  0  1  0  0  0  0  0  0  0  0  0
   21.6227  -21.5287  -13.1796 C   0  0  0  0  0  0  0  0  0  0  0  0
   21.6701  -21.1353  -11.7652 C   0  0  0  0  0  0  0  0  0  0  0  0
   22.7606  -21.5102  -11.0118 C   0  0  0  0  0  0  0  0  0  0  0  0
   22.8392  -21.1444   -9.6634 C   0  0  0  0  0  0  0  0  0  0  0  0
   21.8457  -20.4149   -9.0718 C   0  0  0  0  0  0  0  0  0  0  0  0
   20.7538  -20.0359   -9.8147 C   0  0  0  0  0  0  0  0  0  0  0  0
   20.6845  -20.4044  -11.1551 C   0  0  0  0  0  0  0  0  0  0  0  0
   22.0284  -19.2518  -13.8834 C   0  0  0  0  0  0  0  0  0  0  0  0
   22.9098  -18.3803  -13.2341 O   0  0  0  0  0  0  0  0  0  0  0  0
   20.9145  -18.8211  -14.2554 O   0  0  0  0  0  0  0  0  0  0  0  0
  1  5  1  0
  1  2  1  0
  2  3  1  0
  3  4  1  0
  5  4  1  0
  6  7  2  0
  5  6  1  1
  8  6  1  0
  9  8  1  0
  9 10  1  6
 11 10  1  0
 12 11  2  0
 13 12  1  0
 14 13  1  0
 14 19  2  0
 15 14  1  0
 16 15  2  0
 16 17  1  0
 17 18  2  0
 18 19  1  0
 19 11  1  0
 20 22  1  0
 20  9  1  0
 21 20  2  0
 23 22  1  0
 23 31  1  0
 23 24  1  1
 24 25  1  0
 25 26  2  0
 25 30  1  0
 26 27  1  0
 27 28  2  0
 29 28  1  0
 30 29  2  0
 31 32  1  0
 33 31  2  0
M  END
$$$$
