PWF.pdb
     RDKit          3D

 33 36  0  0  1  0  0  0  0  0999 V2000
   27.5841  -21.4692  -15.7982 N   0  0  0  0  0  0  0  0  0  0  0  0
   28.1317  -21.3621  -17.1362 C   0  0  0  0  0  0  0  0  0  0  0  0
   27.9774  -19.9015  -17.4909 C   0  0  0  0  0  0  0  0  0  0  0  0
   27.5019  -19.2251  -16.1979 C   0  0  0  0  0  0  0  0  0  0  0  0
   27.9879  -20.2450  -15.1877 C   0  0  1  0  0  0  0  0  0  0  0  0
   27.3461  -20.0027  -13.8726 C   0  0  0  0  0  0  0  0  0  0  0  0
   27.5631  -18.9238  -13.2661 O   0  0  0  0  0  0  0  0  0  0  0  0
   26.4879  -20.9444  -13.2591 N   0  0  0  0  0  0  0  0  0  0  0  0
   25.6411  -20.6839  -12.1094 C   0  0  1  0  0  0  0  0  0  0  0  0
   24.3106  -21.3177  -12.4446 C   0  0  0  0  0  0  0  0  0  0  0  0
   23.1643  -20.4106  -12.4050 C   0  0  0  0  0  0  0  0  0  0  0  0
   22.8095  -19.5690  -13.4600 C   0  0  0  0  0  0  0  0  0  0  0  0
   21.7034  -18.8790  -13.1587 N   0  0  0  0  0  0  0  0  0  0  0  0
   21.3282  -19.2640  -11.9056 C   0  0  0  0  0  0  0  0  0  0  0  0
   20.2568  -18.8355  -11.1524 C   0  0  0  0  0  0  0  0  0  0  0  0
   20.1199  -19.3942   -9.8986 C   0  0  0  0  0  0  0  0  0  0  0  0
   20.9888  -20.3273   -9.4040 C   0  0  0  0  0  0  0  0  0  0  0  0
   22.0517  -20.7462  -10.1634 C   0  0  0  0  0  0  0  0  0  0  0  0
   22.2355  -20.2190  -11.4289 C   0  0  0  0  0  0  0  0  0  0  0  0
   26.2012  -21.0491  -10.8264 C   0  0  0  0  0  0  0  0  0  0  0  0
   26.4955  -22.2727  -10.6043 O   0  0  0  0  0  0  0  0  0  0  0  0
   26.4606  -20.1354   -9.7757 N   0  0  0  0  0  0  0  0  0  0  0  0
   26.9878  -20.5591   -8.4785 C   0  0  1  0  0  0  0  0  0  0  0  0
   27.5948  -19.2895   -7.8837 C   0  0  0  0  0  0  0  0  0  0  0  0
   28.0891  -19.4592   -6.5109 C   0  0  0  0  0  0  0  0  0  0  0  0
   28.7565  -20.6201   -6.1882 C   0  0  0  0  0  0  0  0  0  0  0  0
   29.2464  -20.8086   -4.8910 C   0  0  0  0  0  0  0  0  0  0  0  0
   29.0746  -19.8545   -3.9269 C   0  0  0  0  0  0  0  0  0  0  0  0
   28.4104  -18.6929   -4.2387 C   0  0  0  0  0  0  0  0  0  0  0  0
   27.9268  -18.5144   -5.5316 C   0  0  0  0  0  0  0  0  0  0  0  0
   25.9324  -21.0125   -7.5492 C   0  0  0  0  0  0  0  0  0  0  0  0
   24.6029  -20.7626   -7.9070 O   0  0  0  0  0  0  0  0  0  0  0  0
   26.1695  -21.6008   -6.4710 O   0  0  0  0  0  0  0  0  0  0  0  0
  1  5  1  0
  1  2  1  0
  2  3  1  0
  3  4  1  0
  5  4  1  0
  6  7  2  0
  5  6  1  1
  8  6  1  0
  9  8  1  0
  9 10  1  6
 11 10  1  0
 12 11  2  0
 13 12  1  0
 14 13  1  0
 14 19  2  0
 15 14  1  0
 16 15  2  0
 16 17  1  0
 17 18  2  0
 18 19  1  0
 19 11  1  0
 20 22  1  0
 20  9  1  0
 21 20  2  0
 23 22  1  0
 23 31  1  0
 23 24  1  1
 24 25  1  0
 25 26  2  0
 25 30  1  0
 26 27  1  0
 27 28  2  0
 29 28  1  0
 30 29  2  0
 31 32  1  0
 33 31  2  0
M  END
$$$$
