PWF.pdb
     RDKit          3D

 33 36  0  0  1  0  0  0  0  0999 V2000
   20.7020  -12.8834  -15.8953 N   0  0  0  0  0  0  0  0  0  0  0  0
   21.3318  -14.0652  -16.4509 C   0  0  0  0  0  0  0  0  0  0  0  0
   21.0328  -13.9915  -17.9302 C   0  0  0  0  0  0  0  0  0  0  0  0
   20.3853  -12.6156  -18.1382 C   0  0  0  0  0  0  0  0  0  0  0  0
   20.9115  -11.9021  -16.9090 C   0  0  1  0  0  0  0  0  0  0  0  0
   20.1489  -10.6500  -16.6834 C   0  0  0  0  0  0  0  0  0  0  0  0
   20.2834   -9.6896  -17.4824 O   0  0  0  0  0  0  0  0  0  0  0  0
   19.2637  -10.4836  -15.5934 N   0  0  0  0  0  0  0  0  0  0  0  0
   18.4858   -9.2893  -15.3188 C   0  0  1  0  0  0  0  0  0  0  0  0
   17.1527   -9.7912  -14.8137 C   0  0  0  0  0  0  0  0  0  0  0  0
   16.2522  -10.3043  -15.8454 C   0  0  0  0  0  0  0  0  0  0  0  0
   16.4191  -11.5412  -16.4697 C   0  0  0  0  0  0  0  0  0  0  0  0
   15.4313  -11.7628  -17.3445 N   0  0  0  0  0  0  0  0  0  0  0  0
   14.6128  -10.6731  -17.2986 C   0  0  0  0  0  0  0  0  0  0  0  0
   13.4638  -10.4222  -18.0167 C   0  0  0  0  0  0  0  0  0  0  0  0
   12.8326   -9.2201  -17.7726 C   0  0  0  0  0  0  0  0  0  0  0  0
   13.3019   -8.3063  -16.8698 C   0  0  0  0  0  0  0  0  0  0  0  0
   14.4469   -8.5675  -16.1608 C   0  0  0  0  0  0  0  0  0  0  0  0
   15.1191   -9.7588  -16.3658 C   0  0  0  0  0  0  0  0  0  0  0  0
   19.1355   -8.2988  -14.4881 C   0  0  0  0  0  0  0  0  0  0  0  0
   19.0696   -8.4161  -13.2172 O   0  0  0  0  0  0  0  0  0  0  0  0
   19.8605   -7.1876  -14.9839 N   0  0  0  0  0  0  0  0  0  0  0  0
   20.4245   -6.1625  -14.1059 C   0  0  1  0  0  0  0  0  0  0  0  0
   21.9341   -6.2765  -14.3119 C   0  0  0  0  0  0  0  0  0  0  0  0
   22.4639   -7.6231  -14.0592 C   0  0  0  0  0  0  0  0  0  0  0  0
   22.4183   -8.1203  -12.7754 C   0  0  0  0  0  0  0  0  0  0  0  0
   22.9080   -9.4027  -12.5035 C   0  0  0  0  0  0  0  0  0  0  0  0
   23.4362  -10.1807  -13.4959 C   0  0  0  0  0  0  0  0  0  0  0  0
   23.4861   -9.6939  -14.7798 C   0  0  0  0  0  0  0  0  0  0  0  0
   22.9966   -8.4174  -15.0406 C   0  0  0  0  0  0  0  0  0  0  0  0
   20.0350   -4.7921  -14.4975 C   0  0  0  0  0  0  0  0  0  0  0  0
   20.4458   -3.7405  -13.6708 O   0  0  0  0  0  0  0  0  0  0  0  0
   19.3629   -4.5322  -15.5199 O   0  0  0  0  0  0  0  0  0  0  0  0
  1  5  1  0
  1  2  1  0
  2  3  1  0
  3  4  1  0
  5  4  1  0
  6  7  2  0
  5  6  1  1
  8  6  1  0
  9  8  1  0
  9 10  1  1
 11 10  1  0
 12 11  2  0
 13 12  1  0
 14 13  1  0
 14 19  2  0
 15 14  1  0
 16 15  2  0
 16 17  1  0
 17 18  2  0
 18 19  1  0
 19 11  1  0
 20 22  1  0
 20  9  1  0
 21 20  2  0
 23 22  1  0
 23 31  1  0
 23 24  1  6
 24 25  1  0
 25 26  2  0
 25 30  1  0
 26 27  1  0
 27 28  2  0
 29 28  1  0
 30 29  2  0
 31 32  1  0
 33 31  2  0
M  END
$$$$
