PWF.pdb
     RDKit          3D

 33 36  0  0  1  0  0  0  0  0999 V2000
   28.0579  -18.5600  -14.6455 N   0  0  0  0  0  0  0  0  0  0  0  0
   29.0206  -17.9045  -15.5088 C   0  0  0  0  0  0  0  0  0  0  0  0
   29.9887  -18.9989  -15.8934 C   0  0  0  0  0  0  0  0  0  0  0  0
   29.3690  -20.2909  -15.3437 C   0  0  0  0  0  0  0  0  0  0  0  0
   27.9227  -19.8504  -15.2379 C   0  0  1  0  0  0  0  0  0  0  0  0
   27.1607  -20.8071  -14.3987 C   0  0  0  0  0  0  0  0  0  0  0  0
   26.6119  -21.8019  -14.9352 O   0  0  0  0  0  0  0  0  0  0  0  0
   27.0202  -20.6492  -13.0005 N   0  0  0  0  0  0  0  0  0  0  0  0
   26.1274  -21.4198  -12.1544 C   0  0  1  0  0  0  0  0  0  0  0  0
   26.9628  -21.8265  -10.9624 C   0  0  0  0  0  0  0  0  0  0  0  0
   26.8227  -20.9695   -9.7858 C   0  0  0  0  0  0  0  0  0  0  0  0
   25.7032  -20.1734   -9.5399 C   0  0  0  0  0  0  0  0  0  0  0  0
   25.8348  -19.5242   -8.3774 N   0  0  0  0  0  0  0  0  0  0  0  0
   27.0404  -19.8906   -7.8560 C   0  0  0  0  0  0  0  0  0  0  0  0
   27.6329  -19.4886   -6.6787 C   0  0  0  0  0  0  0  0  0  0  0  0
   28.8759  -20.0181   -6.4002 C   0  0  0  0  0  0  0  0  0  0  0  0
   29.5101  -20.8985   -7.2327 C   0  0  0  0  0  0  0  0  0  0  0  0
   28.9099  -21.2914   -8.4020 C   0  0  0  0  0  0  0  0  0  0  0  0
   27.6625  -20.7917   -8.7297 C   0  0  0  0  0  0  0  0  0  0  0  0
   24.8625  -20.7895  -11.8446 C   0  0  0  0  0  0  0  0  0  0  0  0
   24.8578  -19.7201  -11.1450 O   0  0  0  0  0  0  0  0  0  0  0  0
   23.6009  -21.2721  -12.2708 N   0  0  0  0  0  0  0  0  0  0  0  0
   22.3522  -20.5656  -11.9849 C   0  0  1  0  0  0  0  0  0  0  0  0
   22.4352  -19.2941  -12.8278 C   0  0  0  0  0  0  0  0  0  0  0  0
   22.5926  -19.5490  -14.2659 C   0  0  0  0  0  0  0  0  0  0  0  0
   21.5356  -20.0965  -14.9589 C   0  0  0  0  0  0  0  0  0  0  0  0
   21.6513  -20.3442  -16.3313 C   0  0  0  0  0  0  0  0  0  0  0  0
   22.8038  -20.0509  -17.0059 C   0  0  0  0  0  0  0  0  0  0  0  0
   23.8639  -19.5044  -16.3237 C   0  0  0  0  0  0  0  0  0  0  0  0
   23.7393  -19.2616  -14.9589 C   0  0  0  0  0  0  0  0  0  0  0  0
   21.1560  -21.3073  -12.4343 C   0  0  0  0  0  0  0  0  0  0  0  0
   19.9038  -20.7957  -12.0758 O   0  0  0  0  0  0  0  0  0  0  0  0
   21.2102  -22.3582  -13.1105 O   0  0  0  0  0  0  0  0  0  0  0  0
  1  5  1  0
  1  2  1  0
  2  3  1  0
  3  4  1  0
  5  4  1  0
  6  7  2  0
  5  6  1  1
  8  6  1  0
  9  8  1  0
  9 10  1  1
 11 10  1  0
 12 11  2  0
 13 12  1  0
 14 13  1  0
 14 19  2  0
 15 14  1  0
 16 15  2  0
 16 17  1  0
 17 18  2  0
 18 19  1  0
 19 11  1  0
 20 22  1  0
 20  9  1  0
 21 20  2  0
 23 22  1  0
 23 31  1  0
 23 24  1  6
 24 25  1  0
 25 26  2  0
 25 30  1  0
 26 27  1  0
 27 28  2  0
 29 28  1  0
 30 29  2  0
 31 32  1  0
 33 31  2  0
M  END
$$$$
