PWF.pdb
     RDKit          3D

 33 36  0  0  1  0  0  0  0  0999 V2000
   23.8043  -18.0152  -14.3691 N   0  0  0  0  0  0  0  0  0  0  0  0
   22.9714  -16.8637  -14.6556 C   0  0  0  0  0  0  0  0  0  0  0  0
   23.7743  -15.6845  -14.1579 C   0  0  0  0  0  0  0  0  0  0  0  0
   25.1431  -16.2657  -13.7781 C   0  0  0  0  0  0  0  0  0  0  0  0
   25.1215  -17.5276  -14.6171 C   0  0  1  0  0  0  0  0  0  0  0  0
   26.1876  -18.4552  -14.1664 C   0  0  0  0  0  0  0  0  0  0  0  0
   27.3858  -18.0771  -14.1818 O   0  0  0  0  0  0  0  0  0  0  0  0
   25.9145  -19.7666  -13.7134 N   0  0  0  0  0  0  0  0  0  0  0  0
   26.9041  -20.8105  -13.5189 C   0  0  1  0  0  0  0  0  0  0  0  0
   26.3401  -21.6944  -12.4304 C   0  0  0  0  0  0  0  0  0  0  0  0
   26.2495  -21.0712  -11.1106 C   0  0  0  0  0  0  0  0  0  0  0  0
   25.0673  -20.5506  -10.5825 C   0  0  0  0  0  0  0  0  0  0  0  0
   25.2734  -20.0750   -9.3490 N   0  0  0  0  0  0  0  0  0  0  0  0
   26.5906  -20.2806   -9.0626 C   0  0  0  0  0  0  0  0  0  0  0  0
   27.2886  -19.9591   -7.9189 C   0  0  0  0  0  0  0  0  0  0  0  0
   28.6305  -20.2784   -7.9035 C   0  0  0  0  0  0  0  0  0  0  0  0
   29.2607  -20.8830   -8.9559 C   0  0  0  0  0  0  0  0  0  0  0  0
   28.5551  -21.1984  -10.0893 C   0  0  0  0  0  0  0  0  0  0  0  0
   27.2060  -20.9013  -10.1574 C   0  0  0  0  0  0  0  0  0  0  0  0
   27.3332  -21.4949  -14.7192 C   0  0  0  0  0  0  0  0  0  0  0  0
   26.4591  -22.0786  -15.4461 O   0  0  0  0  0  0  0  0  0  0  0  0
   28.6757  -21.5651  -15.1654 N   0  0  0  0  0  0  0  0  0  0  0  0
   29.0456  -22.1509  -16.4538 C   0  0  1  0  0  0  0  0  0  0  0  0
   29.9464  -21.1011  -17.1023 C   0  0  0  0  0  0  0  0  0  0  0  0
   29.2601  -19.8364  -17.3978 C   0  0  0  0  0  0  0  0  0  0  0  0
   28.1420  -19.8641  -18.2019 C   0  0  0  0  0  0  0  0  0  0  0  0
   27.4614  -18.6772  -18.4958 C   0  0  0  0  0  0  0  0  0  0  0  0
   27.8873  -17.4780  -17.9961 C   0  0  0  0  0  0  0  0  0  0  0  0
   29.0014  -17.4397  -17.1929 C   0  0  0  0  0  0  0  0  0  0  0  0
   29.6718  -18.6253  -16.9062 C   0  0  0  0  0  0  0  0  0  0  0  0
   29.8466  -23.3848  -16.3156 C   0  0  0  0  0  0  0  0  0  0  0  0
   30.2527  -24.0286  -17.4898 O   0  0  0  0  0  0  0  0  0  0  0  0
   30.1732  -23.8746  -15.2120 O   0  0  0  0  0  0  0  0  0  0  0  0
  1  5  1  0
  1  2  1  0
  2  3  1  0
  3  4  1  0
  5  4  1  0
  6  7  2  0
  5  6  1  1
  8  6  1  0
  9  8  1  0
  9 10  1  1
 11 10  1  0
 12 11  2  0
 13 12  1  0
 14 13  1  0
 14 19  2  0
 15 14  1  0
 16 15  2  0
 16 17  1  0
 17 18  2  0
 18 19  1  0
 19 11  1  0
 20 22  1  0
 20  9  1  0
 21 20  2  0
 23 22  1  0
 23 31  1  0
 23 24  1  6
 24 25  1  0
 25 26  2  0
 25 30  1  0
 26 27  1  0
 27 28  2  0
 29 28  1  0
 30 29  2  0
 31 32  1  0
 33 31  2  0
M  END
$$$$
