PWF.pdb
     RDKit          3D

 33 36  0  0  1  0  0  0  0  0999 V2000
   27.7623  -22.2570  -17.6640 N   0  0  0  0  0  0  0  0  0  0  0  0
   28.4438  -22.6933  -18.8669 C   0  0  0  0  0  0  0  0  0  0  0  0
   29.7049  -21.8621  -18.9082 C   0  0  0  0  0  0  0  0  0  0  0  0
   29.7345  -21.1154  -17.5676 C   0  0  0  0  0  0  0  0  0  0  0  0
   28.8356  -22.0247  -16.7539 C   0  0  1  0  0  0  0  0  0  0  0  0
   28.4138  -21.3390  -15.5081 C   0  0  0  0  0  0  0  0  0  0  0  0
   29.2789  -21.0078  -14.6592 O   0  0  0  0  0  0  0  0  0  0  0  0
   27.0616  -21.0359  -15.2262 N   0  0  0  0  0  0  0  0  0  0  0  0
   26.5908  -20.2966  -14.0693 C   0  0  1  0  0  0  0  0  0  0  0  0
   25.7068  -19.2056  -14.6282 C   0  0  0  0  0  0  0  0  0  0  0  0
   26.4073  -17.9891  -15.0379 C   0  0  0  0  0  0  0  0  0  0  0  0
   26.7111  -16.9427  -14.1659 C   0  0  0  0  0  0  0  0  0  0  0  0
   27.3820  -15.9780  -14.8058 N   0  0  0  0  0  0  0  0  0  0  0  0
   27.5208  -16.3863  -16.0994 C   0  0  0  0  0  0  0  0  0  0  0  0
   28.1322  -15.7389  -17.1510 C   0  0  0  0  0  0  0  0  0  0  0  0
   28.1178  -16.3875  -18.3684 C   0  0  0  0  0  0  0  0  0  0  0  0
   27.5335  -17.6106  -18.5499 C   0  0  0  0  0  0  0  0  0  0  0  0
   26.9280  -18.2453  -17.4952 C   0  0  0  0  0  0  0  0  0  0  0  0
   26.9145  -17.6400  -16.2516 C   0  0  0  0  0  0  0  0  0  0  0  0
   26.0057  -21.0951  -13.0141 C   0  0  0  0  0  0  0  0  0  0  0  0
   25.2437  -22.0723  -13.3264 O   0  0  0  0  0  0  0  0  0  0  0  0
   26.2211  -20.8779  -11.6312 N   0  0  0  0  0  0  0  0  0  0  0  0
   25.5199  -21.6398  -10.5978 C   0  0  1  0  0  0  0  0  0  0  0  0
   26.6283  -22.1131   -9.6589 C   0  0  0  0  0  0  0  0  0  0  0  0
   27.1966  -21.0418   -8.8299 C   0  0  0  0  0  0  0  0  0  0  0  0
   28.5658  -20.8986   -8.7837 C   0  0  0  0  0  0  0  0  0  0  0  0
   29.1378  -19.8830   -8.0094 C   0  0  0  0  0  0  0  0  0  0  0  0
   28.3579  -19.0207   -7.2902 C   0  0  0  0  0  0  0  0  0  0  0  0
   26.9911  -19.1551   -7.3297 C   0  0  0  0  0  0  0  0  0  0  0  0
   26.4313  -20.1682   -8.1027 C   0  0  0  0  0  0  0  0  0  0  0  0
   24.5976  -20.8086   -9.7968 C   0  0  0  0  0  0  0  0  0  0  0  0
   23.6740  -21.4695   -8.9794 O   0  0  0  0  0  0  0  0  0  0  0  0
   24.6035  -19.5579   -9.8163 O   0  0  0  0  0  0  0  0  0  0  0  0
  1  5  1  0
  1  2  1  0
  2  3  1  0
  3  4  1  0
  5  4  1  0
  6  7  2  0
  5  6  1  1
  8  6  1  0
  9  8  1  0
  9 10  1  6
 11 10  1  0
 12 11  2  0
 13 12  1  0
 14 13  1  0
 14 19  2  0
 15 14  1  0
 16 15  2  0
 16 17  1  0
 17 18  2  0
 18 19  1  0
 19 11  1  0
 20 22  1  0
 20  9  1  0
 21 20  2  0
 23 22  1  0
 23 31  1  0
 23 24  1  1
 24 25  1  0
 25 26  2  0
 25 30  1  0
 26 27  1  0
 27 28  2  0
 29 28  1  0
 30 29  2  0
 31 32  1  0
 33 31  2  0
M  END
$$$$
