PWF.pdb
     RDKit          3D

 33 36  0  0  1  0  0  0  0  0999 V2000
   27.4720  -24.4353  -18.7972 N   0  0  0  0  0  0  0  0  0  0  0  0
   27.9577  -25.5010  -19.6517 C   0  0  0  0  0  0  0  0  0  0  0  0
   28.9122  -26.2801  -18.7770 C   0  0  0  0  0  0  0  0  0  0  0  0
   28.7474  -25.6802  -17.3739 C   0  0  0  0  0  0  0  0  0  0  0  0
   27.3692  -25.0678  -17.5230 C   0  0  1  0  0  0  0  0  0  0  0  0
   27.1128  -24.1181  -16.4128 C   0  0  0  0  0  0  0  0  0  0  0  0
   26.9330  -24.5580  -15.2496 O   0  0  0  0  0  0  0  0  0  0  0  0
   27.0599  -22.7182  -16.6053 N   0  0  0  0  0  0  0  0  0  0  0  0
   26.9786  -21.7280  -15.5471 C   0  0  1  0  0  0  0  0  0  0  0  0
   27.6691  -20.5014  -16.0972 C   0  0  0  0  0  0  0  0  0  0  0  0
   27.4116  -19.2632  -15.3629 C   0  0  0  0  0  0  0  0  0  0  0  0
   27.5736  -19.1368  -13.9826 C   0  0  0  0  0  0  0  0  0  0  0  0
   27.2990  -17.8875  -13.5901 N   0  0  0  0  0  0  0  0  0  0  0  0
   26.9553  -17.1894  -14.7099 C   0  0  0  0  0  0  0  0  0  0  0  0
   26.5830  -15.8678  -14.8263 C   0  0  0  0  0  0  0  0  0  0  0  0
   26.2769  -15.4214  -16.0951 C   0  0  0  0  0  0  0  0  0  0  0  0
   26.3318  -16.2282  -17.1981 C   0  0  0  0  0  0  0  0  0  0  0  0
   26.7041  -17.5422  -17.0695 C   0  0  0  0  0  0  0  0  0  0  0  0
   27.0228  -18.0416  -15.8197 C   0  0  0  0  0  0  0  0  0  0  0  0
   25.6579  -21.5079  -14.9987 C   0  0  0  0  0  0  0  0  0  0  0  0
   24.6866  -21.2754  -15.7959 O   0  0  0  0  0  0  0  0  0  0  0  0
   25.3489  -21.5368  -13.6167 N   0  0  0  0  0  0  0  0  0  0  0  0
   23.9859  -21.3682  -13.1129 C   0  0  1  0  0  0  0  0  0  0  0  0
   24.0128  -22.0092  -11.7264 C   0  0  0  0  0  0  0  0  0  0  0  0
   24.9785  -21.3900  -10.8089 C   0  0  0  0  0  0  0  0  0  0  0  0
   26.2631  -21.8857  -10.7694 C   0  0  0  0  0  0  0  0  0  0  0  0
   27.2086  -21.3126   -9.9115 C   0  0  0  0  0  0  0  0  0  0  0  0
   26.8806  -20.2598   -9.1033 C   0  0  0  0  0  0  0  0  0  0  0  0
   25.6020  -19.7579   -9.1354 C   0  0  0  0  0  0  0  0  0  0  0  0
   24.6685  -20.3344   -9.9919 C   0  0  0  0  0  0  0  0  0  0  0  0
   23.6121  -19.9507  -12.9289 C   0  0  0  0  0  0  0  0  0  0  0  0
   24.6300  -18.9949  -13.0214 O   0  0  0  0  0  0  0  0  0  0  0  0
   22.4433  -19.5706  -12.6960 O   0  0  0  0  0  0  0  0  0  0  0  0
  1  5  1  0
  1  2  1  0
  2  3  1  0
  3  4  1  0
  5  4  1  0
  6  7  2  0
  5  6  1  1
  8  6  1  0
  9  8  1  0
  9 10  1  6
 11 10  1  0
 12 11  2  0
 13 12  1  0
 14 13  1  0
 14 19  2  0
 15 14  1  0
 16 15  2  0
 16 17  1  0
 17 18  2  0
 18 19  1  0
 19 11  1  0
 20 22  1  0
 20  9  1  0
 21 20  2  0
 23 22  1  0
 23 31  1  0
 23 24  1  1
 24 25  1  0
 25 26  2  0
 25 30  1  0
 26 27  1  0
 27 28  2  0
 29 28  1  0
 30 29  2  0
 31 32  1  0
 33 31  2  0
M  END
$$$$
