PWF.pdb
     RDKit          3D

 33 36  0  0  1  0  0  0  0  0999 V2000
   27.9486  -24.3615  -18.5578 N   0  0  0  0  0  0  0  0  0  0  0  0
   28.5423  -25.4902  -19.2473 C   0  0  0  0  0  0  0  0  0  0  0  0
   29.3386  -26.2066  -18.1816 C   0  0  0  0  0  0  0  0  0  0  0  0
   28.9704  -25.5032  -16.8681 C   0  0  0  0  0  0  0  0  0  0  0  0
   27.6414  -24.8970  -17.2720 C   0  0  1  0  0  0  0  0  0  0  0  0
   27.2332  -23.8661  -16.2867 C   0  0  0  0  0  0  0  0  0  0  0  0
   26.8961  -24.2151  -15.1277 O   0  0  0  0  0  0  0  0  0  0  0  0
   27.2049  -22.4865  -16.5956 N   0  0  0  0  0  0  0  0  0  0  0  0
   26.9280  -21.4202  -15.6505 C   0  0  1  0  0  0  0  0  0  0  0  0
   27.3927  -20.1543  -16.3328 C   0  0  0  0  0  0  0  0  0  0  0  0
   27.0768  -18.9155  -15.6227 C   0  0  0  0  0  0  0  0  0  0  0  0
   27.8021  -18.4484  -14.5258 C   0  0  0  0  0  0  0  0  0  0  0  0
   27.3099  -17.2790  -14.1009 N   0  0  0  0  0  0  0  0  0  0  0  0
   26.2600  -16.9742  -14.9159 C   0  0  0  0  0  0  0  0  0  0  0  0
   25.4266  -15.8774  -14.8810 C   0  0  0  0  0  0  0  0  0  0  0  0
   24.4291  -15.8286  -15.8326 C   0  0  0  0  0  0  0  0  0  0  0  0
   24.2540  -16.8054  -16.7737 C   0  0  0  0  0  0  0  0  0  0  0  0
   25.0903  -17.8925  -16.7984 C   0  0  0  0  0  0  0  0  0  0  0  0
   26.1084  -17.9911  -15.8674 C   0  0  0  0  0  0  0  0  0  0  0  0
   25.5808  -21.3874  -15.1239 C   0  0  0  0  0  0  0  0  0  0  0  0
   24.6011  -21.6102  -15.9137 O   0  0  0  0  0  0  0  0  0  0  0  0
   25.2555  -21.1280  -13.7700 N   0  0  0  0  0  0  0  0  0  0  0  0
   23.8802  -21.1603  -13.2726 C   0  0  1  0  0  0  0  0  0  0  0  0
   23.9730  -21.9237  -11.9524 C   0  0  0  0  0  0  0  0  0  0  0  0
   24.8757  -21.3026  -10.9741 C   0  0  0  0  0  0  0  0  0  0  0  0
   26.1975  -21.6898  -10.9565 C   0  0  0  0  0  0  0  0  0  0  0  0
   27.0844  -21.1114  -10.0416 C   0  0  0  0  0  0  0  0  0  0  0  0
   26.6620  -20.1598   -9.1555 C   0  0  0  0  0  0  0  0  0  0  0  0
   25.3455  -19.7666   -9.1650 C   0  0  0  0  0  0  0  0  0  0  0  0
   24.4709  -20.3475  -10.0786 C   0  0  0  0  0  0  0  0  0  0  0  0
   23.3497  -19.8170  -12.9610 C   0  0  0  0  0  0  0  0  0  0  0  0
   21.9679  -19.6922  -12.7789 O   0  0  0  0  0  0  0  0  0  0  0  0
   24.0692  -18.7992  -12.8552 O   0  0  0  0  0  0  0  0  0  0  0  0
  1  5  1  0
  1  2  1  0
  2  3  1  0
  3  4  1  0
  5  4  1  0
  6  7  2  0
  5  6  1  1
  8  6  1  0
  9  8  1  0
  9 10  1  6
 11 10  1  0
 12 11  2  0
 13 12  1  0
 14 13  1  0
 14 19  2  0
 15 14  1  0
 16 15  2  0
 16 17  1  0
 17 18  2  0
 18 19  1  0
 19 11  1  0
 20 22  1  0
 20  9  1  0
 21 20  2  0
 23 22  1  0
 23 31  1  0
 23 24  1  1
 24 25  1  0
 25 26  2  0
 25 30  1  0
 26 27  1  0
 27 28  2  0
 29 28  1  0
 30 29  2  0
 31 32  1  0
 33 31  2  0
M  END
$$$$
