PWF.pdb
     RDKit          3D

 33 36  0  0  1  0  0  0  0  0999 V2000
   32.6849  -38.1188   -9.3806 N   0  0  0  0  0  0  0  0  0  0  0  0
   33.1209  -39.5001   -9.3224 C   0  0  0  0  0  0  0  0  0  0  0  0
   32.5776  -40.0120   -8.0087 C   0  0  0  0  0  0  0  0  0  0  0  0
   31.6770  -38.8856   -7.4836 C   0  0  0  0  0  0  0  0  0  0  0  0
   31.3892  -38.1664   -8.7862 C   0  0  1  0  0  0  0  0  0  0  0  0
   30.8179  -36.8256   -8.5103 C   0  0  0  0  0  0  0  0  0  0  0  0
   31.5871  -35.8607   -8.2732 O   0  0  0  0  0  0  0  0  0  0  0  0
   29.4257  -36.5783   -8.5011 N   0  0  0  0  0  0  0  0  0  0  0  0
   28.7945  -35.3493   -8.0561 C   0  0  1  0  0  0  0  0  0  0  0  0
   27.5471  -35.2159   -8.8989 C   0  0  0  0  0  0  0  0  0  0  0  0
   26.7922  -33.9798   -8.6976 C   0  0  0  0  0  0  0  0  0  0  0  0
   27.2055  -32.7363   -9.1777 C   0  0  0  0  0  0  0  0  0  0  0  0
   26.3056  -31.7934   -8.8752 N   0  0  0  0  0  0  0  0  0  0  0  0
   25.2991  -32.4132   -8.1954 C   0  0  0  0  0  0  0  0  0  0  0  0
   24.1485  -31.8699   -7.6665 C   0  0  0  0  0  0  0  0  0  0  0  0
   23.2985  -32.7383   -7.0135 C   0  0  0  0  0  0  0  0  0  0  0  0
   23.5604  -34.0742   -6.8832 C   0  0  0  0  0  0  0  0  0  0  0  0
   24.7092  -34.6035   -7.4141 C   0  0  0  0  0  0  0  0  0  0  0  0
   25.5962  -33.7774   -8.0803 C   0  0  0  0  0  0  0  0  0  0  0  0
   28.5985  -35.2303   -6.6275 C   0  0  0  0  0  0  0  0  0  0  0  0
   28.1802  -36.2449   -5.9727 O   0  0  0  0  0  0  0  0  0  0  0  0
   28.8454  -34.0529   -5.8800 N   0  0  0  0  0  0  0  0  0  0  0  0
   28.7452  -34.0133   -4.4211 C   0  0  1  0  0  0  0  0  0  0  0  0
   29.8969  -33.1080   -3.9871 C   0  0  0  0  0  0  0  0  0  0  0  0
   31.1812  -33.8089   -3.8566 C   0  0  0  0  0  0  0  0  0  0  0  0
   32.0354  -33.8285   -4.9370 C   0  0  0  0  0  0  0  0  0  0  0  0
   33.2696  -34.4812   -4.8420 C   0  0  0  0  0  0  0  0  0  0  0  0
   33.6494  -35.1064   -3.6870 C   0  0  0  0  0  0  0  0  0  0  0  0
   32.8045  -35.0925   -2.6035 C   0  0  0  0  0  0  0  0  0  0  0  0
   31.5791  -34.4407   -2.7075 C   0  0  0  0  0  0  0  0  0  0  0  0
   27.4955  -33.3834   -3.9474 C   0  0  0  0  0  0  0  0  0  0  0  0
   27.3252  -33.2404   -2.5658 O   0  0  0  0  0  0  0  0  0  0  0  0
   26.5940  -32.9785   -4.7142 O   0  0  0  0  0  0  0  0  0  0  0  0
  1  5  1  0
  1  2  1  0
  2  3  1  0
  3  4  1  0
  5  4  1  0
  6  7  2  0
  5  6  1  1
  8  6  1  0
  9  8  1  0
  9 10  1  6
 11 10  1  0
 12 11  2  0
 13 12  1  0
 14 13  1  0
 14 19  2  0
 15 14  1  0
 16 15  2  0
 16 17  1  0
 17 18  2  0
 18 19  1  0
 19 11  1  0
 20 22  1  0
 20  9  1  0
 21 20  2  0
 23 22  1  0
 23 31  1  0
 23 24  1  1
 24 25  1  0
 25 26  2  0
 25 30  1  0
 26 27  1  0
 27 28  2  0
 29 28  1  0
 30 29  2  0
 31 32  1  0
 33 31  2  0
M  END
$$$$
