PWF.pdb
     RDKit          3D

 33 36  0  0  1  0  0  0  0  0999 V2000
   27.7698  -19.3299  -14.0291 N   0  0  0  0  0  0  0  0  0  0  0  0
   28.4024  -19.2290  -15.3296 C   0  0  0  0  0  0  0  0  0  0  0  0
   28.9096  -20.6241  -15.6113 C   0  0  0  0  0  0  0  0  0  0  0  0
   28.3384  -21.4919  -14.4816 C   0  0  0  0  0  0  0  0  0  0  0  0
   27.1689  -20.6230  -14.0644 C   0  0  1  0  0  0  0  0  0  0  0  0
   26.6502  -21.0677  -12.7479 C   0  0  0  0  0  0  0  0  0  0  0  0
   25.9052  -22.0775  -12.6840 O   0  0  0  0  0  0  0  0  0  0  0  0
   26.9593  -20.3974  -11.5418 N   0  0  0  0  0  0  0  0  0  0  0  0
   26.4154  -20.7247  -10.2365 C   0  0  1  0  0  0  0  0  0  0  0  0
   27.4539  -20.2544   -9.2443 C   0  0  0  0  0  0  0  0  0  0  0  0
   27.0777  -20.3974   -7.8384 C   0  0  0  0  0  0  0  0  0  0  0  0
   25.9409  -21.0841   -7.4098 C   0  0  0  0  0  0  0  0  0  0  0  0
   25.8667  -21.0818   -6.0739 N   0  0  0  0  0  0  0  0  0  0  0  0
   26.9530  -20.3936   -5.6203 C   0  0  0  0  0  0  0  0  0  0  0  0
   27.3201  -20.1126   -4.3222 C   0  0  0  0  0  0  0  0  0  0  0  0
   28.4777  -19.3819   -4.1516 C   0  0  0  0  0  0  0  0  0  0  0  0
   29.2404  -18.9462   -5.1998 C   0  0  0  0  0  0  0  0  0  0  0  0
   28.8647  -19.2324   -6.4878 C   0  0  0  0  0  0  0  0  0  0  0  0
   27.7128  -19.9632   -6.7157 C   0  0  0  0  0  0  0  0  0  0  0  0
   25.0649  -20.2674   -9.9908 C   0  0  0  0  0  0  0  0  0  0  0  0
   24.8467  -19.0137   -9.8736 O   0  0  0  0  0  0  0  0  0  0  0  0
   23.9392  -21.1190   -9.8735 N   0  0  0  0  0  0  0  0  0  0  0  0
   22.5670  -20.6119   -9.8756 C   0  0  1  0  0  0  0  0  0  0  0  0
   22.0206  -21.0043  -11.2473 C   0  0  0  0  0  0  0  0  0  0  0  0
   22.1862  -19.9616  -12.2686 C   0  0  0  0  0  0  0  0  0  0  0  0
   23.1196  -20.1539  -13.2632 C   0  0  0  0  0  0  0  0  0  0  0  0
   23.2960  -19.1827  -14.2551 C   0  0  0  0  0  0  0  0  0  0  0  0
   22.5533  -18.0348  -14.2579 C   0  0  0  0  0  0  0  0  0  0  0  0
   21.6195  -17.8336  -13.2703 C   0  0  0  0  0  0  0  0  0  0  0  0
   21.4512  -18.8052  -12.2880 C   0  0  0  0  0  0  0  0  0  0  0  0
   21.7109  -21.2652   -8.8640 C   0  0  0  0  0  0  0  0  0  0  0  0
   20.3989  -20.7985   -8.7265 O   0  0  0  0  0  0  0  0  0  0  0  0
   22.1001  -22.2031   -8.1336 O   0  0  0  0  0  0  0  0  0  0  0  0
  1  5  1  0
  1  2  1  0
  2  3  1  0
  3  4  1  0
  5  4  1  0
  6  7  2  0
  5  6  1  1
  8  6  1  0
  9  8  1  0
  9 10  1  1
 11 10  1  0
 12 11  2  0
 13 12  1  0
 14 13  1  0
 14 19  2  0
 15 14  1  0
 16 15  2  0
 16 17  1  0
 17 18  2  0
 18 19  1  0
 19 11  1  0
 20 22  1  0
 20  9  1  0
 21 20  2  0
 23 22  1  0
 23 31  1  0
 23 24  1  6
 24 25  1  0
 25 26  2  0
 25 30  1  0
 26 27  1  0
 27 28  2  0
 29 28  1  0
 30 29  2  0
 31 32  1  0
 33 31  2  0
M  END
$$$$
