PWF.pdb
     RDKit          3D

 33 36  0  0  1  0  0  0  0  0999 V2000
   28.3249  -20.3376  -15.4066 N   0  0  0  0  0  0  0  0  0  0  0  0
   28.8688  -19.9770  -16.7012 C   0  0  0  0  0  0  0  0  0  0  0  0
   28.2589  -18.6282  -17.0039 C   0  0  0  0  0  0  0  0  0  0  0  0
   27.5271  -18.2235  -15.7169 C   0  0  0  0  0  0  0  0  0  0  0  0
   28.2739  -19.0880  -14.7210 C   0  0  1  0  0  0  0  0  0  0  0  0
   27.5272  -19.1484  -13.4408 C   0  0  0  0  0  0  0  0  0  0  0  0
   27.2752  -18.0858  -12.8193 O   0  0  0  0  0  0  0  0  0  0  0  0
   27.0788  -20.3655  -12.8776 N   0  0  0  0  0  0  0  0  0  0  0  0
   26.0520  -20.4911  -11.8594 C   0  0  1  0  0  0  0  0  0  0  0  0
   25.0224  -21.4283  -12.4473 C   0  0  0  0  0  0  0  0  0  0  0  0
   24.0654  -20.8041  -13.3600 C   0  0  0  0  0  0  0  0  0  0  0  0
   24.3027  -20.6265  -14.7237 C   0  0  0  0  0  0  0  0  0  0  0  0
   23.2439  -20.0612  -15.3149 N   0  0  0  0  0  0  0  0  0  0  0  0
   22.3081  -19.8650  -14.3426 C   0  0  0  0  0  0  0  0  0  0  0  0
   21.0521  -19.3084  -14.4492 C   0  0  0  0  0  0  0  0  0  0  0  0
   20.3125  -19.2249  -13.2877 C   0  0  0  0  0  0  0  0  0  0  0  0
   20.7782  -19.6642  -12.0792 C   0  0  0  0  0  0  0  0  0  0  0  0
   22.0304  -20.2167  -11.9858 C   0  0  0  0  0  0  0  0  0  0  0  0
   22.8141  -20.3256  -13.1202 C   0  0  0  0  0  0  0  0  0  0  0  0
   26.5247  -20.8338  -10.5356 C   0  0  0  0  0  0  0  0  0  0  0  0
   27.1995  -21.9074  -10.3771 O   0  0  0  0  0  0  0  0  0  0  0  0
   26.2984  -20.0521   -9.3763 N   0  0  0  0  0  0  0  0  0  0  0  0
   26.5431  -20.5598   -8.0264 C   0  0  1  0  0  0  0  0  0  0  0  0
   26.7208  -19.3032   -7.1758 C   0  0  0  0  0  0  0  0  0  0  0  0
   27.7889  -19.4154   -6.1737 C   0  0  0  0  0  0  0  0  0  0  0  0
   28.9449  -18.6889   -6.3566 C   0  0  0  0  0  0  0  0  0  0  0  0
   29.9779  -18.7682   -5.4160 C   0  0  0  0  0  0  0  0  0  0  0  0
   29.8626  -19.5599   -4.3074 C   0  0  0  0  0  0  0  0  0  0  0  0
   28.7136  -20.2884   -4.1156 C   0  0  0  0  0  0  0  0  0  0  0  0
   27.6916  -20.2031   -5.0566 C   0  0  0  0  0  0  0  0  0  0  0  0
   25.3903  -21.2997   -7.4726 C   0  0  0  0  0  0  0  0  0  0  0  0
   24.1745  -21.2137   -8.1599 O   0  0  0  0  0  0  0  0  0  0  0  0
   25.4500  -21.9894   -6.4308 O   0  0  0  0  0  0  0  0  0  0  0  0
  1  5  1  0
  1  2  1  0
  2  3  1  0
  3  4  1  0
  5  4  1  0
  6  7  2  0
  5  6  1  1
  8  6  1  0
  9  8  1  0
  9 10  1  6
 11 10  1  0
 12 11  2  0
 13 12  1  0
 14 13  1  0
 14 19  2  0
 15 14  1  0
 16 15  2  0
 16 17  1  0
 17 18  2  0
 18 19  1  0
 19 11  1  0
 20 22  1  0
 20  9  1  0
 21 20  2  0
 23 22  1  0
 23 31  1  0
 23 24  1  1
 24 25  1  0
 25 26  2  0
 25 30  1  0
 26 27  1  0
 27 28  2  0
 29 28  1  0
 30 29  2  0
 31 32  1  0
 33 31  2  0
M  END
$$$$
