PWF.pdb
     RDKit          3D

 33 36  0  0  1  0  0  0  0  0999 V2000
   20.1411   -8.8675  -18.0854 N   0  0  0  0  0  0  0  0  0  0  0  0
   20.8652   -8.8192  -19.3405 C   0  0  0  0  0  0  0  0  0  0  0  0
   19.9711   -8.0214  -20.2609 C   0  0  0  0  0  0  0  0  0  0  0  0
   18.8418   -7.4964  -19.3638 C   0  0  0  0  0  0  0  0  0  0  0  0
   19.5319   -7.5797  -18.0170 C   0  0  1  0  0  0  0  0  0  0  0  0
   18.5337   -7.4573  -16.9267 C   0  0  0  0  0  0  0  0  0  0  0  0
   17.9378   -6.3651  -16.7514 O   0  0  0  0  0  0  0  0  0  0  0  0
   18.2164   -8.5294  -16.0610 N   0  0  0  0  0  0  0  0  0  0  0  0
   17.2514   -8.4764  -14.9781 C   0  0  1  0  0  0  0  0  0  0  0  0
   16.2184   -9.5269  -15.3150 C   0  0  0  0  0  0  0  0  0  0  0  0
   16.6818  -10.9096  -15.2056 C   0  0  0  0  0  0  0  0  0  0  0  0
   18.0051  -11.2608  -14.9352 C   0  0  0  0  0  0  0  0  0  0  0  0
   18.1320  -12.5906  -14.8596 N   0  0  0  0  0  0  0  0  0  0  0  0
   16.8938  -13.1175  -15.0804 C   0  0  0  0  0  0  0  0  0  0  0  0
   16.5084  -14.4401  -15.1109 C   0  0  0  0  0  0  0  0  0  0  0  0
   15.1763  -14.6898  -15.3681 C   0  0  0  0  0  0  0  0  0  0  0  0
   14.2640  -13.6944  -15.5855 C   0  0  0  0  0  0  0  0  0  0  0  0
   14.6598  -12.3813  -15.5524 C   0  0  0  0  0  0  0  0  0  0  0  0
   15.9841  -12.0745  -15.2976 C   0  0  0  0  0  0  0  0  0  0  0  0
   17.8059   -8.5513  -13.6439 C   0  0  0  0  0  0  0  0  0  0  0  0
   18.8358   -9.2801  -13.4407 O   0  0  0  0  0  0  0  0  0  0  0  0
   17.2890   -7.8597  -12.5210 N   0  0  0  0  0  0  0  0  0  0  0  0
   17.8842   -7.9685  -11.1892 C   0  0  1  0  0  0  0  0  0  0  0  0
   18.3336   -6.5463  -10.8581 C   0  0  0  0  0  0  0  0  0  0  0  0
   17.2214   -5.6095  -10.6504 C   0  0  0  0  0  0  0  0  0  0  0  0
   16.6944   -4.9577  -11.7434 C   0  0  0  0  0  0  0  0  0  0  0  0
   15.6294   -4.0648  -11.5798 C   0  0  0  0  0  0  0  0  0  0  0  0
   15.0953   -3.8234  -10.3446 C   0  0  0  0  0  0  0  0  0  0  0  0
   15.6138   -4.4687   -9.2480 C   0  0  0  0  0  0  0  0  0  0  0  0
   16.6730   -5.3550   -9.4207 C   0  0  0  0  0  0  0  0  0  0  0  0
   16.9084   -8.3677  -10.1541 C   0  0  0  0  0  0  0  0  0  0  0  0
   15.5768   -8.5364  -10.5497 O   0  0  0  0  0  0  0  0  0  0  0  0
   17.2134   -8.5580   -8.9560 O   0  0  0  0  0  0  0  0  0  0  0  0
  1  5  1  0
  1  2  1  0
  2  3  1  0
  3  4  1  0
  5  4  1  0
  6  7  2  0
  5  6  1  1
  8  6  1  0
  9  8  1  0
  9 10  1  6
 11 10  1  0
 12 11  2  0
 13 12  1  0
 14 13  1  0
 14 19  2  0
 15 14  1  0
 16 15  2  0
 16 17  1  0
 17 18  2  0
 18 19  1  0
 19 11  1  0
 20 22  1  0
 20  9  1  0
 21 20  2  0
 23 22  1  0
 23 31  1  0
 23 24  1  1
 24 25  1  0
 25 26  2  0
 25 30  1  0
 26 27  1  0
 27 28  2  0
 29 28  1  0
 30 29  2  0
 31 32  1  0
 33 31  2  0
M  END
$$$$
