YFD.pdb
     RDKit          3D

 32 33  0  0  1  0  0  0  0  0999 V2000
    2.6311  -24.8186   24.3133 O   0  0  0  0  0  0  0  0  0  0  0  0
    3.5909  -23.8261   24.1682 C   0  0  0  0  0  0  0  0  0  0  0  0
    4.6716  -24.0599   23.3523 C   0  0  0  0  0  0  0  0  0  0  0  0
    5.6229  -23.0628   23.2116 C   0  0  0  0  0  0  0  0  0  0  0  0
    5.5336  -21.8560   23.8505 C   0  0  0  0  0  0  0  0  0  0  0  0
    6.5807  -20.8187   23.6882 C   0  0  0  0  0  0  0  0  0  0  0  0
    6.0972  -19.7039   22.8338 C   0  0  2  0  0  0  0  0  0  0  0  0
    6.0857  -20.0816   21.4334 N   0  0  0  0  0  0  0  0  0  0  0  0
    6.7962  -18.4069   23.0218 C   0  0  0  0  0  0  0  0  0  0  0  0
    7.7102  -18.0250   22.2741 O   0  0  0  0  0  0  0  0  0  0  0  0
    4.4644  -21.6034   24.6682 C   0  0  0  0  0  0  0  0  0  0  0  0
    3.4900  -22.5956   24.8244 C   0  0  0  0  0  0  0  0  0  0  0  0
    6.4003  -17.5681   24.1078 N   0  0  0  0  0  0  0  0  0  0  0  0
    7.0462  -16.3555   24.4882 C   0  0  1  0  0  0  0  0  0  0  0  0
    6.2421  -15.6834   25.5702 C   0  0  0  0  0  0  0  0  0  0  0  0
    6.8394  -14.3661   25.8969 C   0  0  0  0  0  0  0  0  0  0  0  0
    6.6648  -13.2978   25.0420 C   0  0  0  0  0  0  0  0  0  0  0  0
    7.2169  -12.0547   25.3238 C   0  0  0  0  0  0  0  0  0  0  0  0
    7.9513  -11.8851   26.4825 C   0  0  0  0  0  0  0  0  0  0  0  0
    8.1294  -12.9362   27.3353 C   0  0  0  0  0  0  0  0  0  0  0  0
    7.5819  -14.1656   27.0491 C   0  0  0  0  0  0  0  0  0  0  0  0
    8.4826  -16.5218   24.8380 C   0  0  0  0  0  0  0  0  0  0  0  0
    8.7784  -17.4307   25.6455 O   0  0  0  0  0  0  0  0  0  0  0  0
    9.5349  -15.7350   24.3392 N   0  0  0  0  0  0  0  0  0  0  0  0
   10.9452  -16.1012   24.4522 C   0  0  1  0  0  0  0  0  0  0  0  0
   11.8466  -15.2977   23.5895 C   0  0  0  0  0  0  0  0  0  0  0  0
   13.2430  -15.7037   23.7001 C   0  0  0  0  0  0  0  0  0  0  0  0
   13.5689  -16.8141   23.1631 O   0  0  0  0  0  0  0  0  0  0  0  0
   11.3714  -16.0434   25.8788 C   0  0  0  0  0  0  0  0  0  0  0  0
   10.9452  -15.0544   26.7565 O   0  0  0  0  0  0  0  0  0  0  0  0
   14.2283  -14.9827   24.3335 O   0  0  0  0  0  0  0  0  0  0  0  0
   12.1483  -16.9056   26.3455 O   0  0  0  0  0  0  0  0  0  0  0  0
  2  1  1  0
  3  2  2  0
  4  3  1  0
  5  4  2  0
  5 11  1  0
  6  5  1  0
  7  9  1  0
  7  6  1  0
  7  8  1  6
  9 10  2  0
 11 12  2  0
 12  2  1  0
 13 14  1  0
 13  9  1  0
 14 15  1  1
 16 21  1  0
 16 15  1  0
 17 16  2  0
 18 19  2  0
 18 17  1  0
 19 20  1  0
 20 21  2  0
 22 14  1  0
 23 22  2  0
 24 22  1  0
 25 29  1  0
 25 24  1  0
 25 26  1  6
 27 26  1  0
 28 27  2  0
 29 30  1  0
 31 27  1  0
 32 29  2  0
M  END
$$$$
