YFD.pdb
     RDKit          3D

 32 33  0  0  1  0  0  0  0  0999 V2000
    7.9638  -21.6526   16.5538 O   0  0  0  0  0  0  0  0  0  0  0  0
    8.0751  -20.8752   17.6985 C   0  0  0  0  0  0  0  0  0  0  0  0
    8.7760  -19.6949   17.6357 C   0  0  0  0  0  0  0  0  0  0  0  0
    8.8795  -18.9245   18.7823 C   0  0  0  0  0  0  0  0  0  0  0  0
    8.3153  -19.2883   19.9746 C   0  0  0  0  0  0  0  0  0  0  0  0
    8.4616  -18.4452   21.1856 C   0  0  0  0  0  0  0  0  0  0  0  0
    9.0900  -17.1410   20.8530 C   0  0  2  0  0  0  0  0  0  0  0  0
   10.2453  -17.3180   19.9940 N   0  0  0  0  0  0  0  0  0  0  0  0
    9.4274  -16.2808   22.0159 C   0  0  0  0  0  0  0  0  0  0  0  0
   10.5650  -16.2408   22.5106 O   0  0  0  0  0  0  0  0  0  0  0  0
    7.6128  -20.4611   20.0583 C   0  0  0  0  0  0  0  0  0  0  0  0
    7.4938  -21.2550   18.9121 C   0  0  0  0  0  0  0  0  0  0  0  0
    8.4003  -15.4692   22.5868 N   0  0  0  0  0  0  0  0  0  0  0  0
    8.4788  -14.8100   23.8484 C   0  0  1  0  0  0  0  0  0  0  0  0
    7.3414  -13.8297   23.9675 C   0  0  0  0  0  0  0  0  0  0  0  0
    7.3768  -13.1765   25.2983 C   0  0  0  0  0  0  0  0  0  0  0  0
    6.2020  -12.7910   25.9096 C   0  0  0  0  0  0  0  0  0  0  0  0
    6.2088  -12.1744   27.1543 C   0  0  0  0  0  0  0  0  0  0  0  0
    7.4135  -11.9463   27.7923 C   0  0  0  0  0  0  0  0  0  0  0  0
    8.5818  -12.3247   27.1957 C   0  0  0  0  0  0  0  0  0  0  0  0
    8.5684  -12.9327   25.9615 C   0  0  0  0  0  0  0  0  0  0  0  0
    8.5823  -15.7370   25.0074 C   0  0  0  0  0  0  0  0  0  0  0  0
    7.6277  -16.5213   25.2060 O   0  0  0  0  0  0  0  0  0  0  0  0
    9.6640  -15.7985   25.9024 N   0  0  0  0  0  0  0  0  0  0  0  0
   10.1011  -17.0267   26.5630 C   0  0  1  0  0  0  0  0  0  0  0  0
   10.9603  -17.8920   25.7172 C   0  0  0  0  0  0  0  0  0  0  0  0
   11.4026  -19.0969   26.4097 C   0  0  0  0  0  0  0  0  0  0  0  0
   10.4981  -19.8402   26.9167 O   0  0  0  0  0  0  0  0  0  0  0  0
   10.7705  -16.6981   27.8530 C   0  0  0  0  0  0  0  0  0  0  0  0
   11.6066  -15.6002   28.0135 O   0  0  0  0  0  0  0  0  0  0  0  0
   12.7127  -19.4903   26.5536 O   0  0  0  0  0  0  0  0  0  0  0  0
   10.5983  -17.4194   28.8603 O   0  0  0  0  0  0  0  0  0  0  0  0
  2  1  1  0
  3  2  2  0
  4  3  1  0
  5  4  2  0
  5 11  1  0
  6  5  1  0
  7  9  1  0
  7  6  1  0
  7  8  1  1
  9 10  2  0
 11 12  2  0
 12  2  1  0
 13 14  1  0
 13  9  1  0
 14 15  1  1
 16 21  1  0
 16 15  1  0
 17 16  2  0
 18 19  2  0
 18 17  1  0
 19 20  1  0
 20 21  2  0
 22 14  1  0
 23 22  2  0
 24 22  1  0
 25 29  1  0
 25 24  1  0
 25 26  1  6
 27 26  1  0
 28 27  2  0
 29 30  1  0
 31 27  1  0
 32 29  2  0
M  END
$$$$
