YFD.pdb
     RDKit          3D

 32 33  0  0  1  0  0  0  0  0999 V2000
    6.7517  -13.0958   15.6690 O   0  0  0  0  0  0  0  0  0  0  0  0
    7.5903  -13.8114   16.5127 C   0  0  0  0  0  0  0  0  0  0  0  0
    8.1014  -13.1898   17.6265 C   0  0  0  0  0  0  0  0  0  0  0  0
    8.9353  -13.9125   18.4640 C   0  0  0  0  0  0  0  0  0  0  0  0
    9.2728  -15.2178   18.2296 C   0  0  0  0  0  0  0  0  0  0  0  0
   10.1821  -15.9542   19.1404 C   0  0  0  0  0  0  0  0  0  0  0  0
    9.4578  -16.4251   20.3488 C   0  0  2  0  0  0  0  0  0  0  0  0
    8.1498  -16.9503   20.0063 N   0  0  0  0  0  0  0  0  0  0  0  0
    9.3543  -15.4392   21.4548 C   0  0  0  0  0  0  0  0  0  0  0  0
    9.8815  -14.3168   21.4020 O   0  0  0  0  0  0  0  0  0  0  0  0
    8.7741  -15.8553   17.1248 C   0  0  0  0  0  0  0  0  0  0  0  0
    7.9284  -15.1454   16.2652 C   0  0  0  0  0  0  0  0  0  0  0  0
    8.6197  -15.7995   22.6253 N   0  0  0  0  0  0  0  0  0  0  0  0
    8.4918  -14.9959   23.7959 C   0  0  1  0  0  0  0  0  0  0  0  0
    7.1087  -14.4009   23.8404 C   0  0  0  0  0  0  0  0  0  0  0  0
    6.9746  -13.5267   25.0306 C   0  0  0  0  0  0  0  0  0  0  0  0
    6.7851  -14.0834   26.2783 C   0  0  0  0  0  0  0  0  0  0  0  0
    6.6533  -13.2861   27.4081 C   0  0  0  0  0  0  0  0  0  0  0  0
    6.7162  -11.9113   27.2797 C   0  0  0  0  0  0  0  0  0  0  0  0
    6.9039  -11.3506   26.0491 C   0  0  0  0  0  0  0  0  0  0  0  0
    7.0312  -12.1460   24.9336 C   0  0  0  0  0  0  0  0  0  0  0  0
    8.8734  -15.6957   25.0521 C   0  0  0  0  0  0  0  0  0  0  0  0
    7.9489  -16.0743   25.8055 O   0  0  0  0  0  0  0  0  0  0  0  0
   10.1905  -15.9603   25.4647 N   0  0  0  0  0  0  0  0  0  0  0  0
   10.7451  -17.3064   25.5931 C   0  0  1  0  0  0  0  0  0  0  0  0
   10.4374  -18.1960   24.4457 C   0  0  0  0  0  0  0  0  0  0  0  0
   10.9782  -19.5400   24.6133 C   0  0  0  0  0  0  0  0  0  0  0  0
   10.8576  -20.0747   25.7653 O   0  0  0  0  0  0  0  0  0  0  0  0
   12.2129  -17.2290   25.8369 C   0  0  0  0  0  0  0  0  0  0  0  0
   12.9057  -16.0269   25.9095 O   0  0  0  0  0  0  0  0  0  0  0  0
   11.6017  -20.2699   23.6283 O   0  0  0  0  0  0  0  0  0  0  0  0
   12.8882  -18.2712   25.9871 O   0  0  0  0  0  0  0  0  0  0  0  0
  2  1  1  0
  3  2  2  0
  4  3  1  0
  5  4  2  0
  5 11  1  0
  6  5  1  0
  7  9  1  0
  7  6  1  0
  7  8  1  6
  9 10  2  0
 11 12  2  0
 12  2  1  0
 13 14  1  0
 13  9  1  0
 14 15  1  1
 16 21  1  0
 16 15  1  0
 17 16  2  0
 18 19  2  0
 18 17  1  0
 19 20  1  0
 20 21  2  0
 22 14  1  0
 23 22  2  0
 24 22  1  0
 25 29  1  0
 25 24  1  0
 25 26  1  6
 27 26  1  0
 28 27  2  0
 29 30  1  0
 31 27  1  0
 32 29  2  0
M  END
$$$$
