YFD.pdb
     RDKit          3D

 32 33  0  0  1  0  0  0  0  0999 V2000
    6.5219  -14.1382   15.9216 O   0  0  0  0  0  0  0  0  0  0  0  0
    7.5059  -14.3092   16.8858 C   0  0  0  0  0  0  0  0  0  0  0  0
    8.1984  -15.4954   16.9267 C   0  0  0  0  0  0  0  0  0  0  0  0
    9.1803  -15.6560   17.8906 C   0  0  0  0  0  0  0  0  0  0  0  0
    9.4896  -14.6853   18.8042 C   0  0  0  0  0  0  0  0  0  0  0  0
   10.5363  -14.9000   19.8324 C   0  0  0  0  0  0  0  0  0  0  0  0
   10.1145  -15.9328   20.8132 C   0  0  2  0  0  0  0  0  0  0  0  0
    8.8890  -16.5862   20.3944 N   0  0  0  0  0  0  0  0  0  0  0  0
   10.0079  -15.4699   22.2205 C   0  0  0  0  0  0  0  0  0  0  0  0
   10.9494  -14.9259   22.8189 O   0  0  0  0  0  0  0  0  0  0  0  0
    8.8108  -13.4959   18.7804 C   0  0  0  0  0  0  0  0  0  0  0  0
    7.8155  -13.3107   17.8144 C   0  0  0  0  0  0  0  0  0  0  0  0
    8.7725  -15.6606   22.9112 N   0  0  0  0  0  0  0  0  0  0  0  0
    8.4476  -15.1061   24.1838 C   0  0  1  0  0  0  0  0  0  0  0  0
    7.2301  -14.2298   24.0470 C   0  0  0  0  0  0  0  0  0  0  0  0
    7.0142  -13.4684   25.3009 C   0  0  0  0  0  0  0  0  0  0  0  0
    7.8399  -12.4095   25.6165 C   0  0  0  0  0  0  0  0  0  0  0  0
    7.6605  -11.6828   26.7866 C   0  0  0  0  0  0  0  0  0  0  0  0
    6.6348  -12.0250   27.6477 C   0  0  0  0  0  0  0  0  0  0  0  0
    5.8119  -13.0711   27.3440 C   0  0  0  0  0  0  0  0  0  0  0  0
    5.9965  -13.7886   26.1845 C   0  0  0  0  0  0  0  0  0  0  0  0
    8.3277  -16.1170   25.2687 C   0  0  0  0  0  0  0  0  0  0  0  0
    7.9784  -15.7111   26.3996 O   0  0  0  0  0  0  0  0  0  0  0  0
    8.5821  -17.4920   25.1275 N   0  0  0  0  0  0  0  0  0  0  0  0
    9.7981  -18.1451   25.6076 C   0  0  1  0  0  0  0  0  0  0  0  0
   10.9650  -17.9825   24.7052 C   0  0  0  0  0  0  0  0  0  0  0  0
   12.1468  -18.6945   25.1776 C   0  0  0  0  0  0  0  0  0  0  0  0
   12.0599  -19.9636   25.2743 O   0  0  0  0  0  0  0  0  0  0  0  0
   10.1139  -17.6781   26.9868 C   0  0  0  0  0  0  0  0  0  0  0  0
   10.2660  -16.3368   27.3154 O   0  0  0  0  0  0  0  0  0  0  0  0
   13.3406  -18.1043   25.5218 O   0  0  0  0  0  0  0  0  0  0  0  0
   10.2573  -18.4999   27.9190 O   0  0  0  0  0  0  0  0  0  0  0  0
  2  1  1  0
  3  2  2  0
  4  3  1  0
  5  4  2  0
  5 11  1  0
  6  5  1  0
  7  9  1  0
  7  6  1  0
  7  8  1  6
  9 10  2  0
 11 12  2  0
 12  2  1  0
 13 14  1  0
 13  9  1  0
 14 15  1  6
 16 21  1  0
 16 15  1  0
 17 16  2  0
 18 19  2  0
 18 17  1  0
 19 20  1  0
 20 21  2  0
 22 14  1  0
 23 22  2  0
 24 22  1  0
 25 29  1  0
 25 24  1  0
 25 26  1  6
 27 26  1  0
 28 27  2  0
 29 30  1  0
 31 27  1  0
 32 29  2  0
M  END
$$$$
