YFD.pdb
     RDKit          3D

 32 33  0  0  1  0  0  0  0  0999 V2000
    8.1294  -14.3366   14.0722 O   0  0  0  0  0  0  0  0  0  0  0  0
    8.2248  -14.6064   15.4306 C   0  0  0  0  0  0  0  0  0  0  0  0
    8.2572  -15.9152   15.8483 C   0  0  0  0  0  0  0  0  0  0  0  0
    8.3551  -16.1748   17.2055 C   0  0  0  0  0  0  0  0  0  0  0  0
    8.4198  -15.1849   18.1479 C   0  0  0  0  0  0  0  0  0  0  0  0
    8.5074  -15.5019   19.5939 C   0  0  0  0  0  0  0  0  0  0  0  0
    9.5811  -14.7106   20.2477 C   0  0  2  0  0  0  0  0  0  0  0  0
   10.8838  -15.0392   19.7007 N   0  0  0  0  0  0  0  0  0  0  0  0
    9.6045  -14.7715   21.7316 C   0  0  0  0  0  0  0  0  0  0  0  0
   10.6121  -15.1119   22.3713 O   0  0  0  0  0  0  0  0  0  0  0  0
    8.3887  -13.8740   17.7523 C   0  0  0  0  0  0  0  0  0  0  0  0
    8.2916  -13.5877   16.3860 C   0  0  0  0  0  0  0  0  0  0  0  0
    8.4189  -14.4256   22.4487 N   0  0  0  0  0  0  0  0  0  0  0  0
    8.3686  -14.0539   23.8241 C   0  0  1  0  0  0  0  0  0  0  0  0
    7.2055  -13.1224   24.0441 C   0  0  0  0  0  0  0  0  0  0  0  0
    7.1495  -12.7143   25.4685 C   0  0  0  0  0  0  0  0  0  0  0  0
    8.0645  -11.8086   25.9636 C   0  0  0  0  0  0  0  0  0  0  0  0
    8.0352  -11.4129   27.2948 C   0  0  0  0  0  0  0  0  0  0  0  0
    7.0705  -11.9337   28.1367 C   0  0  0  0  0  0  0  0  0  0  0  0
    6.1602  -12.8304   27.6561 C   0  0  0  0  0  0  0  0  0  0  0  0
    6.1962  -13.2201   26.3370 C   0  0  0  0  0  0  0  0  0  0  0  0
    8.3844  -15.2091   24.7615 C   0  0  0  0  0  0  0  0  0  0  0  0
    8.4507  -14.9581   25.9856 O   0  0  0  0  0  0  0  0  0  0  0  0
    8.3378  -16.5616   24.3824 N   0  0  0  0  0  0  0  0  0  0  0  0
    8.4085  -17.6722   25.3298 C   0  0  1  0  0  0  0  0  0  0  0  0
    7.8692  -18.9496   24.8009 C   0  0  0  0  0  0  0  0  0  0  0  0
    6.6276  -18.7725   24.0565 C   0  0  0  0  0  0  0  0  0  0  0  0
    6.7203  -18.2881   22.8800 O   0  0  0  0  0  0  0  0  0  0  0  0
    9.8078  -17.8371   25.8142 C   0  0  0  0  0  0  0  0  0  0  0  0
   10.1618  -18.7344   26.8141 O   0  0  0  0  0  0  0  0  0  0  0  0
    5.3734  -19.0888   24.5241 O   0  0  0  0  0  0  0  0  0  0  0  0
   10.7346  -17.1543   25.3246 O   0  0  0  0  0  0  0  0  0  0  0  0
  2  1  1  0
  3  2  2  0
  4  3  1  0
  5  4  2  0
  5 11  1  0
  6  5  1  0
  7  9  1  0
  7  6  1  0
  7  8  1  6
  9 10  2  0
 11 12  2  0
 12  2  1  0
 13 14  1  0
 13  9  1  0
 14 15  1  6
 16 21  1  0
 16 15  1  0
 17 16  2  0
 18 19  2  0
 18 17  1  0
 19 20  1  0
 20 21  2  0
 22 14  1  0
 23 22  2  0
 24 22  1  0
 25 29  1  0
 25 24  1  0
 25 26  1  6
 27 26  1  0
 28 27  2  0
 29 30  1  0
 31 27  1  0
 32 29  2  0
M  END
$$$$
