YFD.pdb
     RDKit          3D

 32 33  0  0  1  0  0  0  0  0999 V2000
    7.6069  -14.1817   15.3100 O   0  0  0  0  0  0  0  0  0  0  0  0
    8.0277  -14.1261   16.6317 C   0  0  0  0  0  0  0  0  0  0  0  0
    7.4709  -13.1890   17.4684 C   0  0  0  0  0  0  0  0  0  0  0  0
    7.8951  -13.1426   18.7863 C   0  0  0  0  0  0  0  0  0  0  0  0
    8.8450  -13.9887   19.2906 C   0  0  0  0  0  0  0  0  0  0  0  0
    9.2858  -13.8980   20.7035 C   0  0  0  0  0  0  0  0  0  0  0  0
    8.9040  -15.1186   21.4592 C   0  0  2  0  0  0  0  0  0  0  0  0
    7.5498  -15.5308   21.1426 N   0  0  0  0  0  0  0  0  0  0  0  0
    9.1002  -15.0456   22.9296 C   0  0  0  0  0  0  0  0  0  0  0  0
    9.9763  -14.3395   23.4534 O   0  0  0  0  0  0  0  0  0  0  0  0
    9.4124  -14.9297   18.4731 C   0  0  0  0  0  0  0  0  0  0  0  0
    8.9983  -14.9960   17.1381 C   0  0  0  0  0  0  0  0  0  0  0  0
    8.2468  -15.8208   23.7724 N   0  0  0  0  0  0  0  0  0  0  0  0
    8.3222  -15.8722   25.1952 C   0  0  1  0  0  0  0  0  0  0  0  0
    6.9636  -15.5771   25.7750 C   0  0  0  0  0  0  0  0  0  0  0  0
    6.8776  -14.1460   26.1533 C   0  0  0  0  0  0  0  0  0  0  0  0
    5.7414  -13.4212   25.8593 C   0  0  0  0  0  0  0  0  0  0  0  0
    5.6377  -12.0786   26.2001 C   0  0  0  0  0  0  0  0  0  0  0  0
    6.6901  -11.4595   26.8478 C   0  0  0  0  0  0  0  0  0  0  0  0
    7.8188  -12.1683   27.1437 C   0  0  0  0  0  0  0  0  0  0  0  0
    7.9162  -13.4974   26.8011 C   0  0  0  0  0  0  0  0  0  0  0  0
    8.9288  -17.1245   25.7217 C   0  0  0  0  0  0  0  0  0  0  0  0
    8.2213  -18.1565   25.7128 O   0  0  0  0  0  0  0  0  0  0  0  0
   10.2319  -17.2406   26.2352 N   0  0  0  0  0  0  0  0  0  0  0  0
   11.0232  -18.4675   26.1689 C   0  0  1  0  0  0  0  0  0  0  0  0
   12.3413  -18.2984   25.5083 C   0  0  0  0  0  0  0  0  0  0  0  0
   13.1605  -19.5036   25.5675 C   0  0  0  0  0  0  0  0  0  0  0  0
   12.5801  -20.6126   25.3211 O   0  0  0  0  0  0  0  0  0  0  0  0
   11.1742  -19.0479   27.5328 C   0  0  0  0  0  0  0  0  0  0  0  0
   10.5817  -18.4940   28.6608 O   0  0  0  0  0  0  0  0  0  0  0  0
   14.5032  -19.5331   25.8645 O   0  0  0  0  0  0  0  0  0  0  0  0
   11.8582  -20.0797   27.7125 O   0  0  0  0  0  0  0  0  0  0  0  0
  2  1  1  0
  3  2  2  0
  4  3  1  0
  5  4  2  0
  5 11  1  0
  6  5  1  0
  7  9  1  0
  7  6  1  0
  7  8  1  1
  9 10  2  0
 11 12  2  0
 12  2  1  0
 13 14  1  0
 13  9  1  0
 14 15  1  1
 16 21  1  0
 16 15  1  0
 17 16  2  0
 18 19  2  0
 18 17  1  0
 19 20  1  0
 20 21  2  0
 22 14  1  0
 23 22  2  0
 24 22  1  0
 25 29  1  0
 25 24  1  0
 25 26  1  1
 27 26  1  0
 28 27  2  0
 29 30  1  0
 31 27  1  0
 32 29  2  0
M  END
$$$$
