YFD.pdb
     RDKit          3D

 32 33  0  0  1  0  0  0  0  0999 V2000
    6.7550  -22.1326   17.7169 O   0  0  0  0  0  0  0  0  0  0  0  0
    7.4023  -21.2495   18.5704 C   0  0  0  0  0  0  0  0  0  0  0  0
    6.7407  -20.7975   19.6867 C   0  0  0  0  0  0  0  0  0  0  0  0
    7.3955  -19.9186   20.5339 C   0  0  0  0  0  0  0  0  0  0  0  0
    8.6718  -19.4804   20.3068 C   0  0  0  0  0  0  0  0  0  0  0  0
    9.3344  -18.5260   21.2281 C   0  0  0  0  0  0  0  0  0  0  0  0
    9.1447  -17.1257   20.7700 C   0  0  2  0  0  0  0  0  0  0  0  0
    9.9058  -16.8594   19.5642 N   0  0  0  0  0  0  0  0  0  0  0  0
    9.3999  -16.0799   21.7933 C   0  0  0  0  0  0  0  0  0  0  0  0
   10.5173  -15.5665   21.9609 O   0  0  0  0  0  0  0  0  0  0  0  0
    9.3484  -19.9189   19.1996 C   0  0  0  0  0  0  0  0  0  0  0  0
    8.7072  -20.8085   18.3302 C   0  0  0  0  0  0  0  0  0  0  0  0
    8.3152  -15.6505   22.6171 N   0  0  0  0  0  0  0  0  0  0  0  0
    8.4184  -14.7247   23.6963 C   0  0  1  0  0  0  0  0  0  0  0  0
    7.0494  -14.1868   24.0211 C   0  0  0  0  0  0  0  0  0  0  0  0
    7.1270  -13.2913   25.2005 C   0  0  0  0  0  0  0  0  0  0  0  0
    7.0096  -13.8126   26.4721 C   0  0  0  0  0  0  0  0  0  0  0  0
    7.0754  -12.9944   27.5927 C   0  0  0  0  0  0  0  0  0  0  0  0
    7.2651  -11.6349   27.4303 C   0  0  0  0  0  0  0  0  0  0  0  0
    7.3829  -11.1093   26.1758 C   0  0  0  0  0  0  0  0  0  0  0  0
    7.3143  -11.9250   25.0698 C   0  0  0  0  0  0  0  0  0  0  0  0
    9.1385  -15.2601   24.8829 C   0  0  0  0  0  0  0  0  0  0  0  0
    9.3603  -14.4707   25.8280 O   0  0  0  0  0  0  0  0  0  0  0  0
    9.5964  -16.5812   25.0254 N   0  0  0  0  0  0  0  0  0  0  0  0
   10.3358  -17.0618   26.1909 C   0  0  1  0  0  0  0  0  0  0  0  0
    9.8772  -18.3811   26.6924 C   0  0  0  0  0  0  0  0  0  0  0  0
   10.7500  -18.9259   27.7261 C   0  0  0  0  0  0  0  0  0  0  0  0
   10.6043  -18.4696   28.9085 O   0  0  0  0  0  0  0  0  0  0  0  0
   11.7960  -17.0754   25.8947 C   0  0  0  0  0  0  0  0  0  0  0  0
   12.3068  -17.0292   24.6035 O   0  0  0  0  0  0  0  0  0  0  0  0
   11.7098  -19.8899   27.5232 O   0  0  0  0  0  0  0  0  0  0  0  0
   12.6324  -17.1314   26.8232 O   0  0  0  0  0  0  0  0  0  0  0  0
  2  1  1  0
  3  2  2  0
  4  3  1  0
  5  4  2  0
  5 11  1  0
  6  5  1  0
  7  9  1  0
  7  6  1  0
  7  8  1  6
  9 10  2  0
 11 12  2  0
 12  2  1  0
 13 14  1  0
 13  9  1  0
 14 15  1  1
 16 21  1  0
 16 15  1  0
 17 16  2  0
 18 19  2  0
 18 17  1  0
 19 20  1  0
 20 21  2  0
 22 14  1  0
 23 22  2  0
 24 22  1  0
 25 29  1  0
 25 24  1  0
 25 26  1  6
 27 26  1  0
 28 27  2  0
 29 30  1  0
 31 27  1  0
 32 29  2  0
M  END
$$$$
