YFD.pdb
     RDKit          3D

 32 33  0  0  1  0  0  0  0  0999 V2000
    6.8743  -21.7039   16.7378 O   0  0  0  0  0  0  0  0  0  0  0  0
    7.4274  -20.9189   17.7403 C   0  0  0  0  0  0  0  0  0  0  0  0
    6.5899  -20.2287   18.5832 C   0  0  0  0  0  0  0  0  0  0  0  0
    7.1507  -19.4500   19.5823 C   0  0  0  0  0  0  0  0  0  0  0  0
    8.5021  -19.3375   19.7654 C   0  0  0  0  0  0  0  0  0  0  0  0
    9.0661  -18.4807   20.8362 C   0  0  0  0  0  0  0  0  0  0  0  0
    9.0525  -17.0504   20.4353 C   0  0  2  0  0  0  0  0  0  0  0  0
    9.9026  -16.8194   19.2829 N   0  0  0  0  0  0  0  0  0  0  0  0
    9.3616  -16.0818   21.5181 C   0  0  0  0  0  0  0  0  0  0  0  0
   10.5192  -15.7190   21.7807 O   0  0  0  0  0  0  0  0  0  0  0  0
    9.3539  -20.0172   18.9358 C   0  0  0  0  0  0  0  0  0  0  0  0
    8.8098  -20.8113   17.9202 C   0  0  0  0  0  0  0  0  0  0  0  0
    8.2827  -15.5491   22.2873 N   0  0  0  0  0  0  0  0  0  0  0  0
    8.4233  -14.7904   23.4861 C   0  0  1  0  0  0  0  0  0  0  0  0
    7.1497  -14.0284   23.7432 C   0  0  0  0  0  0  0  0  0  0  0  0
    7.2633  -13.2714   25.0131 C   0  0  0  0  0  0  0  0  0  0  0  0
    7.8961  -12.0459   25.0321 C   0  0  0  0  0  0  0  0  0  0  0  0
    8.0185  -11.3190   26.2094 C   0  0  0  0  0  0  0  0  0  0  0  0
    7.4943  -11.8315   27.3812 C   0  0  0  0  0  0  0  0  0  0  0  0
    6.8658  -13.0434   27.3727 C   0  0  0  0  0  0  0  0  0  0  0  0
    6.7501  -13.7596   26.2036 C   0  0  0  0  0  0  0  0  0  0  0  0
    8.8786  -15.5897   24.6553 C   0  0  0  0  0  0  0  0  0  0  0  0
    8.1017  -16.4683   25.0914 O   0  0  0  0  0  0  0  0  0  0  0  0
   10.1098  -15.4329   25.3147 N   0  0  0  0  0  0  0  0  0  0  0  0
   10.6407  -16.3933   26.2800 C   0  0  1  0  0  0  0  0  0  0  0  0
   12.0982  -16.6382   26.1458 C   0  0  0  0  0  0  0  0  0  0  0  0
   12.5323  -16.7106   24.7554 C   0  0  0  0  0  0  0  0  0  0  0  0
   12.0875  -17.6821   24.0583 O   0  0  0  0  0  0  0  0  0  0  0  0
   10.2906  -15.9672   27.6642 C   0  0  0  0  0  0  0  0  0  0  0  0
   10.5478  -16.7479   28.7842 O   0  0  0  0  0  0  0  0  0  0  0  0
   13.3773  -15.8145   24.1432 O   0  0  0  0  0  0  0  0  0  0  0  0
    9.7381  -14.8637   27.8690 O   0  0  0  0  0  0  0  0  0  0  0  0
  2  1  1  0
  3  2  2  0
  4  3  1  0
  5  4  2  0
  5 11  1  0
  6  5  1  0
  7  9  1  0
  7  6  1  0
  7  8  1  6
  9 10  2  0
 11 12  2  0
 12  2  1  0
 13 14  1  0
 13  9  1  0
 14 15  1  1
 16 21  1  0
 16 15  1  0
 17 16  2  0
 18 19  2  0
 18 17  1  0
 19 20  1  0
 20 21  2  0
 22 14  1  0
 23 22  2  0
 24 22  1  0
 25 29  1  0
 25 24  1  0
 25 26  1  1
 27 26  1  0
 28 27  2  0
 29 30  1  0
 31 27  1  0
 32 29  2  0
M  END
$$$$
