YFD.pdb
     RDKit          3D

 32 33  0  0  1  0  0  0  0  0999 V2000
    6.7478  -15.2683   14.1853 O   0  0  0  0  0  0  0  0  0  0  0  0
    7.2561  -15.5446   15.4472 C   0  0  0  0  0  0  0  0  0  0  0  0
    8.0841  -14.6263   16.0467 C   0  0  0  0  0  0  0  0  0  0  0  0
    8.5845  -14.9094   17.3070 C   0  0  0  0  0  0  0  0  0  0  0  0
    8.2909  -16.0640   17.9802 C   0  0  0  0  0  0  0  0  0  0  0  0
    8.8591  -16.3396   19.3219 C   0  0  0  0  0  0  0  0  0  0  0  0
    9.7525  -15.2360   19.7582 C   0  0  2  0  0  0  0  0  0  0  0  0
   11.0697  -15.3596   19.1635 N   0  0  0  0  0  0  0  0  0  0  0  0
    9.8560  -15.0423   21.2271 C   0  0  0  0  0  0  0  0  0  0  0  0
   10.8649  -15.3632   21.8748 O   0  0  0  0  0  0  0  0  0  0  0  0
    7.4678  -16.9922   17.4000 C   0  0  0  0  0  0  0  0  0  0  0  0
    6.9492  -16.7269   16.1276 C   0  0  0  0  0  0  0  0  0  0  0  0
    8.7488  -14.4649   21.9202 N   0  0  0  0  0  0  0  0  0  0  0  0
    8.6748  -14.2643   23.3297 C   0  0  1  0  0  0  0  0  0  0  0  0
    7.5002  -13.3749   23.6433 C   0  0  0  0  0  0  0  0  0  0  0  0
    7.4828  -13.0556   25.0912 C   0  0  0  0  0  0  0  0  0  0  0  0
    6.5307  -13.6235   25.9120 C   0  0  0  0  0  0  0  0  0  0  0  0
    6.4911  -13.3378   27.2708 C   0  0  0  0  0  0  0  0  0  0  0  0
    7.4240  -12.4718   27.8097 C   0  0  0  0  0  0  0  0  0  0  0  0
    8.3706  -11.9049   27.0057 C   0  0  0  0  0  0  0  0  0  0  0  0
    8.4028  -12.1901   25.6601 C   0  0  0  0  0  0  0  0  0  0  0  0
    8.6873  -15.5251   24.1194 C   0  0  0  0  0  0  0  0  0  0  0  0
    7.6882  -16.2729   24.0285 O   0  0  0  0  0  0  0  0  0  0  0  0
    9.7292  -15.9414   24.9657 N   0  0  0  0  0  0  0  0  0  0  0  0
    9.6611  -17.1321   25.8104 C   0  0  1  0  0  0  0  0  0  0  0  0
   10.7154  -18.1359   25.5216 C   0  0  0  0  0  0  0  0  0  0  0  0
   11.1450  -18.1176   24.1281 C   0  0  0  0  0  0  0  0  0  0  0  0
   12.2520  -17.5385   23.8695 O   0  0  0  0  0  0  0  0  0  0  0  0
    9.6723  -16.7363   27.2468 C   0  0  0  0  0  0  0  0  0  0  0  0
    9.9529  -15.4442   27.6735 O   0  0  0  0  0  0  0  0  0  0  0  0
   10.4519  -18.6763   23.0796 O   0  0  0  0  0  0  0  0  0  0  0  0
    9.4241  -17.5765   28.1397 O   0  0  0  0  0  0  0  0  0  0  0  0
  2  1  1  0
  3  2  2  0
  4  3  1  0
  5  4  2  0
  5 11  1  0
  6  5  1  0
  7  9  1  0
  7  6  1  0
  7  8  1  1
  9 10  2  0
 11 12  2  0
 12  2  1  0
 13 14  1  0
 13  9  1  0
 14 15  1  6
 16 21  1  0
 16 15  1  0
 17 16  2  0
 18 19  2  0
 18 17  1  0
 19 20  1  0
 20 21  2  0
 22 14  1  0
 23 22  2  0
 24 22  1  0
 25 29  1  0
 25 24  1  0
 25 26  1  1
 27 26  1  0
 28 27  2  0
 29 30  1  0
 31 27  1  0
 32 29  2  0
M  END
$$$$
