YFD.pdb
     RDKit          3D

 32 33  0  0  1  0  0  0  0  0999 V2000
    7.0901  -14.1176   14.3431 O   0  0  0  0  0  0  0  0  0  0  0  0
    7.7782  -14.1814   15.5471 C   0  0  0  0  0  0  0  0  0  0  0  0
    8.6728  -15.2048   15.7488 C   0  0  0  0  0  0  0  0  0  0  0  0
    9.3566  -15.2588   16.9523 C   0  0  0  0  0  0  0  0  0  0  0  0
    9.1792  -14.3381   17.9490 C   0  0  0  0  0  0  0  0  0  0  0  0
    9.9176  -14.4382   19.2310 C   0  0  0  0  0  0  0  0  0  0  0  0
    9.3702  -15.5303   20.0762 C   0  0  2  0  0  0  0  0  0  0  0  0
    7.9921  -15.8224   19.7303 N   0  0  0  0  0  0  0  0  0  0  0  0
    9.5135  -15.3353   21.5417 C   0  0  0  0  0  0  0  0  0  0  0  0
   10.6169  -15.3187   22.1096 O   0  0  0  0  0  0  0  0  0  0  0  0
    8.2921  -13.3105   17.7678 C   0  0  0  0  0  0  0  0  0  0  0  0
    7.5909  -13.2349   16.5591 C   0  0  0  0  0  0  0  0  0  0  0  0
    8.3332  -15.1616   22.3267 N   0  0  0  0  0  0  0  0  0  0  0  0
    8.3091  -14.8389   23.7152 C   0  0  1  0  0  0  0  0  0  0  0  0
    7.0362  -14.0976   24.0302 C   0  0  0  0  0  0  0  0  0  0  0  0
    7.1022  -13.5452   25.4047 C   0  0  0  0  0  0  0  0  0  0  0  0
    6.7953  -14.3451   26.4857 C   0  0  0  0  0  0  0  0  0  0  0  0
    6.8462  -13.8504   27.7827 C   0  0  0  0  0  0  0  0  0  0  0  0
    7.2138  -12.5347   27.9933 C   0  0  0  0  0  0  0  0  0  0  0  0
    7.5199  -11.7350   26.9300 C   0  0  0  0  0  0  0  0  0  0  0  0
    7.4650  -12.2305   25.6475 C   0  0  0  0  0  0  0  0  0  0  0  0
    8.5498  -16.0037   24.6089 C   0  0  0  0  0  0  0  0  0  0  0  0
    7.6878  -16.9107   24.6196 O   0  0  0  0  0  0  0  0  0  0  0  0
    9.6653  -16.1647   25.4483 N   0  0  0  0  0  0  0  0  0  0  0  0
    9.8981  -17.3514   26.2690 C   0  0  1  0  0  0  0  0  0  0  0  0
   10.8267  -18.3338   25.6569 C   0  0  0  0  0  0  0  0  0  0  0  0
   12.1322  -17.7606   25.3501 C   0  0  0  0  0  0  0  0  0  0  0  0
   12.3367  -16.5550   25.7138 O   0  0  0  0  0  0  0  0  0  0  0  0
   10.3597  -16.9464   27.6266 C   0  0  0  0  0  0  0  0  0  0  0  0
   10.4504  -17.8343   28.6912 O   0  0  0  0  0  0  0  0  0  0  0  0
   13.1530  -18.4189   24.7049 O   0  0  0  0  0  0  0  0  0  0  0  0
   10.6885  -15.7621   27.8592 O   0  0  0  0  0  0  0  0  0  0  0  0
  2  1  1  0
  3  2  2  0
  4  3  1  0
  5  4  2  0
  5 11  1  0
  6  5  1  0
  7  9  1  0
  7  6  1  0
  7  8  1  1
  9 10  2  0
 11 12  2  0
 12  2  1  0
 13 14  1  0
 13  9  1  0
 14 15  1  1
 16 21  1  0
 16 15  1  0
 17 16  2  0
 18 19  2  0
 18 17  1  0
 19 20  1  0
 20 21  2  0
 22 14  1  0
 23 22  2  0
 24 22  1  0
 25 29  1  0
 25 24  1  0
 25 26  1  6
 27 26  1  0
 28 27  2  0
 29 30  1  0
 31 27  1  0
 32 29  2  0
M  END
$$$$
