YFD.pdb
     RDKit          3D

 32 33  0  0  1  0  0  0  0  0999 V2000
    9.3736  -21.0709   15.5383 O   0  0  0  0  0  0  0  0  0  0  0  0
    9.4756  -20.4076   16.7536 C   0  0  0  0  0  0  0  0  0  0  0  0
    8.3388  -19.8905   17.3268 C   0  0  0  0  0  0  0  0  0  0  0  0
    8.4498  -19.2325   18.5408 C   0  0  0  0  0  0  0  0  0  0  0  0
    9.6422  -19.0744   19.1931 C   0  0  0  0  0  0  0  0  0  0  0  0
    9.7243  -18.3492   20.4839 C   0  0  0  0  0  0  0  0  0  0  0  0
    9.5771  -16.8849   20.2817 C   0  0  2  0  0  0  0  0  0  0  0  0
   10.4361  -16.4129   19.2124 N   0  0  0  0  0  0  0  0  0  0  0  0
    9.7495  -16.0525   21.4996 C   0  0  0  0  0  0  0  0  0  0  0  0
   10.8655  -15.7443   21.9468 O   0  0  0  0  0  0  0  0  0  0  0  0
   10.7869  -19.5822   18.6385 C   0  0  0  0  0  0  0  0  0  0  0  0
   10.6987  -20.2522   17.4131 C   0  0  0  0  0  0  0  0  0  0  0  0
    8.5834  -15.5906   22.1826 N   0  0  0  0  0  0  0  0  0  0  0  0
    8.5801  -14.9019   23.4309 C   0  0  1  0  0  0  0  0  0  0  0  0
    7.2774  -14.1617   23.5857 C   0  0  0  0  0  0  0  0  0  0  0  0
    7.2471  -13.4635   24.8934 C   0  0  0  0  0  0  0  0  0  0  0  0
    6.5461  -14.0065   25.9499 C   0  0  0  0  0  0  0  0  0  0  0  0
    6.4996  -13.3703   27.1839 C   0  0  0  0  0  0  0  0  0  0  0  0
    7.1702  -12.1740   27.3563 C   0  0  0  0  0  0  0  0  0  0  0  0
    7.8673  -11.6286   26.3169 C   0  0  0  0  0  0  0  0  0  0  0  0
    7.9072  -12.2626   25.0964 C   0  0  0  0  0  0  0  0  0  0  0  0
    8.9097  -15.7656   24.5966 C   0  0  0  0  0  0  0  0  0  0  0  0
    8.0893  -16.6593   24.9029 O   0  0  0  0  0  0  0  0  0  0  0  0
   10.0666  -15.6542   25.3867 N   0  0  0  0  0  0  0  0  0  0  0  0
   10.4055  -16.5823   26.4636 C   0  0  1  0  0  0  0  0  0  0  0  0
   11.8589  -16.8553   26.5877 C   0  0  0  0  0  0  0  0  0  0  0  0
   12.4095  -17.5230   25.4138 C   0  0  0  0  0  0  0  0  0  0  0  0
   11.6005  -17.7869   24.4633 O   0  0  0  0  0  0  0  0  0  0  0  0
    9.8367  -16.0941   27.7514 C   0  0  0  0  0  0  0  0  0  0  0  0
    9.2109  -14.8608   27.8831 O   0  0  0  0  0  0  0  0  0  0  0  0
   13.7270  -17.8845   25.2550 O   0  0  0  0  0  0  0  0  0  0  0  0
    9.9067  -16.7966   28.7841 O   0  0  0  0  0  0  0  0  0  0  0  0
  2  1  1  0
  3  2  2  0
  4  3  1  0
  5  4  2  0
  5 11  1  0
  6  5  1  0
  7  9  1  0
  7  6  1  0
  7  8  1  6
  9 10  2  0
 11 12  2  0
 12  2  1  0
 13 14  1  0
 13  9  1  0
 14 15  1  1
 16 21  1  0
 16 15  1  0
 17 16  2  0
 18 19  2  0
 18 17  1  0
 19 20  1  0
 20 21  2  0
 22 14  1  0
 23 22  2  0
 24 22  1  0
 25 29  1  0
 25 24  1  0
 25 26  1  1
 27 26  1  0
 28 27  2  0
 29 30  1  0
 31 27  1  0
 32 29  2  0
M  END
$$$$
