YFD.pdb
     RDKit          3D

 32 33  0  0  1  0  0  0  0  0999 V2000
    6.9599  -13.3624   15.0427 O   0  0  0  0  0  0  0  0  0  0  0  0
    7.8287  -13.6874   16.0755 C   0  0  0  0  0  0  0  0  0  0  0  0
    7.8742  -12.8793   17.1859 C   0  0  0  0  0  0  0  0  0  0  0  0
    8.7424  -13.2130   18.2125 C   0  0  0  0  0  0  0  0  0  0  0  0
    9.5571  -14.3115   18.1683 C   0  0  0  0  0  0  0  0  0  0  0  0
   10.4859  -14.6276   19.2801 C   0  0  0  0  0  0  0  0  0  0  0  0
    9.8756  -15.5996   20.2231 C   0  0  2  0  0  0  0  0  0  0  0  0
    8.5234  -15.9408   19.8243 N   0  0  0  0  0  0  0  0  0  0  0  0
    9.9177  -15.2105   21.6559 C   0  0  0  0  0  0  0  0  0  0  0  0
   10.9585  -14.8314   22.2158 O   0  0  0  0  0  0  0  0  0  0  0  0
    9.5270  -15.1297   17.0703 C   0  0  0  0  0  0  0  0  0  0  0  0
    8.6565  -14.8130   16.0214 C   0  0  0  0  0  0  0  0  0  0  0  0
    8.7119  -15.2774   22.4182 N   0  0  0  0  0  0  0  0  0  0  0  0
    8.5859  -14.9160   23.7915 C   0  0  1  0  0  0  0  0  0  0  0  0
    7.2154  -14.3378   24.0286 C   0  0  0  0  0  0  0  0  0  0  0  0
    7.1646  -13.6935   25.3632 C   0  0  0  0  0  0  0  0  0  0  0  0
    7.6487  -12.4128   25.5305 C   0  0  0  0  0  0  0  0  0  0  0  0
    7.6156  -11.7887   26.7710 C   0  0  0  0  0  0  0  0  0  0  0  0
    7.0855  -12.4620   27.8556 C   0  0  0  0  0  0  0  0  0  0  0  0
    6.6033  -13.7298   27.7002 C   0  0  0  0  0  0  0  0  0  0  0  0
    6.6414  -14.3433   26.4692 C   0  0  0  0  0  0  0  0  0  0  0  0
    8.9363  -16.0098   24.7372 C   0  0  0  0  0  0  0  0  0  0  0  0
    8.0815  -16.9034   24.9280 O   0  0  0  0  0  0  0  0  0  0  0  0
   10.1488  -16.1169   25.4396 N   0  0  0  0  0  0  0  0  0  0  0  0
   10.4763  -17.2313   26.3266 C   0  0  1  0  0  0  0  0  0  0  0  0
   11.9134  -17.6019   26.3220 C   0  0  0  0  0  0  0  0  0  0  0  0
   12.5170  -17.5031   24.9981 C   0  0  0  0  0  0  0  0  0  0  0  0
   12.0181  -18.2312   24.0769 O   0  0  0  0  0  0  0  0  0  0  0  0
    9.9997  -16.9373   27.7074 C   0  0  0  0  0  0  0  0  0  0  0  0
    9.5107  -15.6946   28.0906 O   0  0  0  0  0  0  0  0  0  0  0  0
   13.5748  -16.6874   24.6703 O   0  0  0  0  0  0  0  0  0  0  0  0
   10.0257  -17.8225   28.5908 O   0  0  0  0  0  0  0  0  0  0  0  0
  2  1  1  0
  3  2  2  0
  4  3  1  0
  5  4  2  0
  5 11  1  0
  6  5  1  0
  7  9  1  0
  7  6  1  0
  7  8  1  6
  9 10  2  0
 11 12  2  0
 12  2  1  0
 13 14  1  0
 13  9  1  0
 14 15  1  6
 16 21  1  0
 16 15  1  0
 17 16  2  0
 18 19  2  0
 18 17  1  0
 19 20  1  0
 20 21  2  0
 22 14  1  0
 23 22  2  0
 24 22  1  0
 25 29  1  0
 25 24  1  0
 25 26  1  1
 27 26  1  0
 28 27  2  0
 29 30  1  0
 31 27  1  0
 32 29  2  0
M  END
$$$$
