YFD.pdb
     RDKit          3D

 32 33  0  0  1  0  0  0  0  0999 V2000
    0.3480  -21.0713   20.5636 O   0  0  0  0  0  0  0  0  0  0  0  0
    1.4958  -20.5820   21.1723 C   0  0  0  0  0  0  0  0  0  0  0  0
    1.6442  -19.2237   21.3181 C   0  0  0  0  0  0  0  0  0  0  0  0
    2.7915  -18.7447   21.9290 C   0  0  0  0  0  0  0  0  0  0  0  0
    3.7836  -19.5653   22.3925 C   0  0  0  0  0  0  0  0  0  0  0  0
    5.0058  -19.0148   23.0266 C   0  0  0  0  0  0  0  0  0  0  0  0
    5.7561  -18.1538   22.0767 C   0  0  2  0  0  0  0  0  0  0  0  0
    6.2712  -18.9257   20.9619 N   0  0  0  0  0  0  0  0  0  0  0  0
    6.8292  -17.3231   22.6802 C   0  0  0  0  0  0  0  0  0  0  0  0
    8.0188  -17.6766   22.6980 O   0  0  0  0  0  0  0  0  0  0  0  0
    3.6550  -20.9221   22.2567 C   0  0  0  0  0  0  0  0  0  0  0  0
    2.5035  -21.4288   21.6439 C   0  0  0  0  0  0  0  0  0  0  0  0
    6.4758  -16.0686   23.2641 N   0  0  0  0  0  0  0  0  0  0  0  0
    7.2952  -15.3166   24.1561 C   0  0  1  0  0  0  0  0  0  0  0  0
    6.5607  -14.0689   24.5718 C   0  0  0  0  0  0  0  0  0  0  0  0
    7.2489  -13.4401   25.7250 C   0  0  0  0  0  0  0  0  0  0  0  0
    8.5886  -13.1233   25.6405 C   0  0  0  0  0  0  0  0  0  0  0  0
    9.2567  -12.5369   26.7079 C   0  0  0  0  0  0  0  0  0  0  0  0
    8.5659  -12.2636   27.8734 C   0  0  0  0  0  0  0  0  0  0  0  0
    7.2395  -12.5730   27.9668 C   0  0  0  0  0  0  0  0  0  0  0  0
    6.5841  -13.1560   26.9067 C   0  0  0  0  0  0  0  0  0  0  0  0
    7.8162  -16.1048   25.3053 C   0  0  0  0  0  0  0  0  0  0  0  0
    6.9797  -16.6770   26.0391 O   0  0  0  0  0  0  0  0  0  0  0  0
    9.1736  -16.2533   25.6376 N   0  0  0  0  0  0  0  0  0  0  0  0
    9.7130  -17.4124   26.3458 C   0  0  1  0  0  0  0  0  0  0  0  0
   10.3208  -18.4323   25.4555 C   0  0  0  0  0  0  0  0  0  0  0  0
   10.9007  -19.5498   26.1915 C   0  0  0  0  0  0  0  0  0  0  0  0
   10.0942  -20.3083   26.8254 O   0  0  0  0  0  0  0  0  0  0  0  0
   10.6769  -16.9651   27.3902 C   0  0  0  0  0  0  0  0  0  0  0  0
   11.1928  -15.6762   27.4416 O   0  0  0  0  0  0  0  0  0  0  0  0
   12.2424  -19.8464   26.2507 O   0  0  0  0  0  0  0  0  0  0  0  0
   11.0645  -17.7563   28.2782 O   0  0  0  0  0  0  0  0  0  0  0  0
  2  1  1  0
  3  2  2  0
  4  3  1  0
  5  4  2  0
  5 11  1  0
  6  5  1  0
  7  9  1  0
  7  6  1  0
  7  8  1  6
  9 10  2  0
 11 12  2  0
 12  2  1  0
 13 14  1  0
 13  9  1  0
 14 15  1  1
 16 21  1  0
 16 15  1  0
 17 16  2  0
 18 19  2  0
 18 17  1  0
 19 20  1  0
 20 21  2  0
 22 14  1  0
 23 22  2  0
 24 22  1  0
 25 29  1  0
 25 24  1  0
 25 26  1  6
 27 26  1  0
 28 27  2  0
 29 30  1  0
 31 27  1  0
 32 29  2  0
M  END
$$$$
