YFD.pdb
     RDKit          3D

 32 33  0  0  1  0  0  0  0  0999 V2000
    6.6836  -14.6214   14.6428 O   0  0  0  0  0  0  0  0  0  0  0  0
    7.4775  -14.5725   15.7806 C   0  0  0  0  0  0  0  0  0  0  0  0
    7.2575  -13.5782   16.7031 C   0  0  0  0  0  0  0  0  0  0  0  0
    8.0529  -13.5389   17.8367 C   0  0  0  0  0  0  0  0  0  0  0  0
    9.0484  -14.4465   18.0768 C   0  0  0  0  0  0  0  0  0  0  0  0
    9.8906  -14.3625   19.2944 C   0  0  0  0  0  0  0  0  0  0  0  0
    9.6514  -15.5248   20.1879 C   0  0  2  0  0  0  0  0  0  0  0  0
    8.3855  -16.1666   19.8881 N   0  0  0  0  0  0  0  0  0  0  0  0
    9.7668  -15.2456   21.6421 C   0  0  0  0  0  0  0  0  0  0  0  0
   10.8465  -14.9638   22.1855 O   0  0  0  0  0  0  0  0  0  0  0  0
    9.2838  -15.4452   17.1696 C   0  0  0  0  0  0  0  0  0  0  0  0
    8.4916  -15.5055   16.0176 C   0  0  0  0  0  0  0  0  0  0  0  0
    8.5875  -15.3057   22.4454 N   0  0  0  0  0  0  0  0  0  0  0  0
    8.5109  -14.9434   23.8221 C   0  0  1  0  0  0  0  0  0  0  0  0
    7.2341  -14.1817   24.0643 C   0  0  0  0  0  0  0  0  0  0  0  0
    7.2172  -13.6549   25.4503 C   0  0  0  0  0  0  0  0  0  0  0  0
    7.9503  -12.5314   25.7708 C   0  0  0  0  0  0  0  0  0  0  0  0
    7.9537  -12.0203   27.0625 C   0  0  0  0  0  0  0  0  0  0  0  0
    7.2069  -12.6469   28.0423 C   0  0  0  0  0  0  0  0  0  0  0  0
    6.4774  -13.7593   27.7350 C   0  0  0  0  0  0  0  0  0  0  0  0
    6.4804  -14.2620   26.4541 C   0  0  0  0  0  0  0  0  0  0  0  0
    8.7034  -16.0844   24.7572 C   0  0  0  0  0  0  0  0  0  0  0  0
    7.7338  -16.8551   24.9345 O   0  0  0  0  0  0  0  0  0  0  0  0
    9.8859  -16.3630   25.4638 N   0  0  0  0  0  0  0  0  0  0  0  0
   10.0448  -17.5065   26.3600 C   0  0  1  0  0  0  0  0  0  0  0  0
   11.2328  -18.3444   26.0617 C   0  0  0  0  0  0  0  0  0  0  0  0
   11.6049  -18.3137   24.6519 C   0  0  0  0  0  0  0  0  0  0  0  0
   10.8502  -18.9432   23.8385 O   0  0  0  0  0  0  0  0  0  0  0  0
   10.0533  -17.0434   27.7762 C   0  0  0  0  0  0  0  0  0  0  0  0
   10.1642  -15.7057   28.1343 O   0  0  0  0  0  0  0  0  0  0  0  0
   12.6997  -17.6592   24.1372 O   0  0  0  0  0  0  0  0  0  0  0  0
    9.9595  -17.8655   28.7143 O   0  0  0  0  0  0  0  0  0  0  0  0
  2  1  1  0
  3  2  2  0
  4  3  1  0
  5  4  2  0
  5 11  1  0
  6  5  1  0
  7  9  1  0
  7  6  1  0
  7  8  1  1
  9 10  2  0
 11 12  2  0
 12  2  1  0
 13 14  1  0
 13  9  1  0
 14 15  1  6
 16 21  1  0
 16 15  1  0
 17 16  2  0
 18 19  2  0
 18 17  1  0
 19 20  1  0
 20 21  2  0
 22 14  1  0
 23 22  2  0
 24 22  1  0
 25 29  1  0
 25 24  1  0
 25 26  1  6
 27 26  1  0
 28 27  2  0
 29 30  1  0
 31 27  1  0
 32 29  2  0
M  END
$$$$
