LLE.pdb
     RDKit          3D

 26 25  0  0  1  0  0  0  0  0999 V2000
    8.4634  -15.6996   13.9540 C   0  0  0  0  0  0  0  0  0  0  0  0
    9.0632  -16.5352   15.0656 C   0  0  1  0  0  0  0  0  0  0  0  0
   10.1626  -17.4290   14.5647 C   0  0  0  0  0  0  0  0  0  0  0  0
    9.6322  -15.6663   16.1674 C   0  0  0  0  0  0  0  0  0  0  0  0
    9.9722  -16.5717   17.3249 C   0  0  2  0  0  0  0  0  0  0  0  0
    8.9197  -17.5090   17.5565 N   0  0  0  0  0  0  0  0  0  0  0  0
   10.3191  -15.7738   18.5506 C   0  0  0  0  0  0  0  0  0  0  0  0
   11.4230  -15.2000   18.5192 O   0  0  0  0  0  0  0  0  0  0  0  0
    8.2650  -12.5633   19.9211 C   0  0  0  0  0  0  0  0  0  0  0  0
    7.5678  -13.8380   20.4252 C   0  0  2  0  0  0  0  0  0  0  0  0
    6.1664  -13.5115   20.8347 C   0  0  0  0  0  0  0  0  0  0  0  0
    8.3843  -14.4597   21.5349 C   0  0  0  0  0  0  0  0  0  0  0  0
    9.6470  -15.0251   20.9031 C   0  0  2  0  0  0  0  0  0  0  0  0
    9.4534  -15.6821   19.6583 N   0  0  0  0  0  0  0  0  0  0  0  0
   10.5586  -15.6816   21.8335 C   0  0  0  0  0  0  0  0  0  0  0  0
   10.8012  -15.1990   22.9949 O   0  0  0  0  0  0  0  0  0  0  0  0
   11.2428  -16.8855   21.5439 N   0  0  0  0  0  0  0  0  0  0  0  0
   12.1505  -17.5398   22.4808 C   0  0  1  0  0  0  0  0  0  0  0  0
   11.8360  -18.9886   22.5962 C   0  0  0  0  0  0  0  0  0  0  0  0
   10.3579  -19.2138   22.6586 C   0  0  0  0  0  0  0  0  0  0  0  0
    9.9276  -20.6206   22.6026 C   0  0  0  0  0  0  0  0  0  0  0  0
    9.3944  -21.0738   21.5636 O   0  0  0  0  0  0  0  0  0  0  0  0
   13.5623  -17.2726   22.1324 C   0  0  0  0  0  0  0  0  0  0  0  0
   13.8426  -16.5630   20.9922 O   0  0  0  0  0  0  0  0  0  0  0  0
   10.1093  -21.4758   23.7154 O   0  0  0  0  0  0  0  0  0  0  0  0
   14.4712  -17.6878   22.8662 O   0  0  0  0  0  0  0  0  0  0  0  0
  2  1  1  6
  3  2  1  0
  4  2  1  0
  5  4  1  0
  5  6  1  1
  7  8  2  0
  7  5  1  0
 10 11  1  1
 10  9  1  0
 12 10  1  0
 13 12  1  1
 13 14  1  0
 14  7  1  0
 15 13  1  0
 16 15  2  0
 17 15  1  0
 18 17  1  0
 19 20  1  0
 18 19  1  6
 20 21  1  0
 21 22  2  0
 21 25  1  0
 23 18  1  0
 23 24  1  0
 26 23  2  0
M  END
$$$$
