LLE.pdb
     RDKit          3D

 26 25  0  0  1  0  0  0  0  0999 V2000
    7.7462  -12.1687   19.9371 C   0  0  0  0  0  0  0  0  0  0  0  0
    7.7983  -13.6805   19.8633 C   0  0  1  0  0  0  0  0  0  0  0  0
    7.3769  -14.1911   18.5141 C   0  0  0  0  0  0  0  0  0  0  0  0
    9.1915  -14.2018   20.1463 C   0  0  0  0  0  0  0  0  0  0  0  0
    9.0531  -15.3623   21.0999 C   0  0  2  0  0  0  0  0  0  0  0  0
    7.8184  -16.0468   20.8835 N   0  0  0  0  0  0  0  0  0  0  0  0
    9.2265  -14.9143   22.5241 C   0  0  0  0  0  0  0  0  0  0  0  0
   10.2632  -14.2662   22.7574 O   0  0  0  0  0  0  0  0  0  0  0  0
    5.9357  -12.8911   27.2371 C   0  0  0  0  0  0  0  0  0  0  0  0
    7.2453  -13.4767   26.6829 C   0  0  2  0  0  0  0  0  0  0  0  0
    8.3349  -12.4578   26.7967 C   0  0  0  0  0  0  0  0  0  0  0  0
    7.0274  -13.9618   25.2681 C   0  0  0  0  0  0  0  0  0  0  0  0
    8.2434  -14.7902   24.8831 C   0  0  2  0  0  0  0  0  0  0  0  0
    8.2802  -15.2080   23.5256 N   0  0  0  0  0  0  0  0  0  0  0  0
    8.6421  -15.7902   25.8672 C   0  0  0  0  0  0  0  0  0  0  0  0
    8.6948  -15.5225   27.1187 O   0  0  0  0  0  0  0  0  0  0  0  0
    8.9989  -17.1185   25.5359 N   0  0  0  0  0  0  0  0  0  0  0  0
   10.0884  -17.8433   26.1820 C   0  0  1  0  0  0  0  0  0  0  0  0
   11.3624  -17.6538   25.4386 C   0  0  0  0  0  0  0  0  0  0  0  0
   11.2234  -18.0921   24.0146 C   0  0  0  0  0  0  0  0  0  0  0  0
   12.4424  -17.9848   23.1959 C   0  0  0  0  0  0  0  0  0  0  0  0
   13.5167  -17.6040   23.7154 O   0  0  0  0  0  0  0  0  0  0  0  0
   10.1884  -17.4928   27.6148 C   0  0  0  0  0  0  0  0  0  0  0  0
    9.6501  -16.3076   28.0481 O   0  0  0  0  0  0  0  0  0  0  0  0
   12.4175  -18.3086   21.8186 O   0  0  0  0  0  0  0  0  0  0  0  0
   10.7518  -18.2650   28.4041 O   0  0  0  0  0  0  0  0  0  0  0  0
  2  1  1  6
  3  2  1  0
  4  2  1  0
  5  4  1  0
  5  6  1  1
  7  8  2  0
  7  5  1  0
 10 11  1  6
 10  9  1  0
 12 10  1  0
 13 12  1  1
 13 14  1  0
 14  7  1  0
 15 13  1  0
 16 15  2  0
 17 15  1  0
 18 17  1  0
 19 20  1  0
 18 19  1  6
 20 21  1  0
 21 22  2  0
 21 25  1  0
 23 18  1  0
 23 24  1  0
 26 23  2  0
M  END
$$$$
