LLE.pdb
     RDKit          3D

 26 25  0  0  1  0  0  0  0  0999 V2000
    8.3486  -12.1007   19.5039 C   0  0  0  0  0  0  0  0  0  0  0  0
    7.8448  -13.4201   20.0508 C   0  0  1  0  0  0  0  0  0  0  0  0
    6.5556  -13.8404   19.4030 C   0  0  0  0  0  0  0  0  0  0  0  0
    8.8555  -14.5284   19.8434 C   0  0  0  0  0  0  0  0  0  0  0  0
    8.6190  -15.5605   20.9178 C   0  0  2  0  0  0  0  0  0  0  0  0
    7.2795  -16.0525   20.8566 N   0  0  0  0  0  0  0  0  0  0  0  0
    8.9777  -15.0201   22.2737 C   0  0  0  0  0  0  0  0  0  0  0  0
   10.1365  -14.5797   22.3834 O   0  0  0  0  0  0  0  0  0  0  0  0
    6.0724  -13.0944   27.4711 C   0  0  0  0  0  0  0  0  0  0  0  0
    7.3240  -13.3487   26.6144 C   0  0  2  0  0  0  0  0  0  0  0  0
    8.0180  -12.0505   26.3475 C   0  0  0  0  0  0  0  0  0  0  0  0
    6.9367  -14.0885   25.3545 C   0  0  0  0  0  0  0  0  0  0  0  0
    8.2253  -14.5108   24.6655 C   0  0  2  0  0  0  0  0  0  0  0  0
    8.0642  -15.0129   23.3462 N   0  0  0  0  0  0  0  0  0  0  0  0
    9.1649  -15.2374   25.5121 C   0  0  0  0  0  0  0  0  0  0  0  0
    9.5808  -14.7585   26.6249 O   0  0  0  0  0  0  0  0  0  0  0  0
    9.6909  -16.5100   25.1880 N   0  0  0  0  0  0  0  0  0  0  0  0
   10.9251  -17.0392   25.7594 C   0  0  1  0  0  0  0  0  0  0  0  0
   10.7695  -18.4750   26.1142 C   0  0  0  0  0  0  0  0  0  0  0  0
    9.5873  -18.6821   27.0081 C   0  0  0  0  0  0  0  0  0  0  0  0
    9.8741  -19.3273   28.2999 C   0  0  0  0  0  0  0  0  0  0  0  0
   11.0078  -19.8114   28.5226 O   0  0  0  0  0  0  0  0  0  0  0  0
   12.0800  -16.7761   24.8747 C   0  0  0  0  0  0  0  0  0  0  0  0
   13.3413  -17.0803   25.3204 O   0  0  0  0  0  0  0  0  0  0  0  0
    8.8788  -19.4090   29.3025 O   0  0  0  0  0  0  0  0  0  0  0  0
   11.9004  -16.2881   23.7494 O   0  0  0  0  0  0  0  0  0  0  0  0
  2  1  1  6
  3  2  1  0
  4  2  1  0
  5  4  1  0
  5  6  1  1
  7  8  2  0
  7  5  1  0
 10 11  1  6
 10  9  1  0
 12 10  1  0
 13 12  1  1
 13 14  1  0
 14  7  1  0
 15 13  1  0
 16 15  2  0
 17 15  1  0
 18 17  1  0
 19 20  1  0
 18 19  1  6
 20 21  1  0
 21 22  2  0
 21 25  1  0
 23 18  1  0
 23 24  1  0
 26 23  2  0
M  END
$$$$
