LLE.pdb
     RDKit          3D

 26 25  0  0  1  0  0  0  0  0999 V2000
    7.1357  -12.8746   18.5994 C   0  0  0  0  0  0  0  0  0  0  0  0
    7.6266  -14.0741   19.3829 C   0  0  1  0  0  0  0  0  0  0  0  0
    8.6559  -14.8596   18.6198 C   0  0  0  0  0  0  0  0  0  0  0  0
    8.2392  -13.6605   20.7044 C   0  0  0  0  0  0  0  0  0  0  0  0
    8.5243  -14.9207   21.4828 C   0  0  2  0  0  0  0  0  0  0  0  0
    7.3845  -15.7814   21.4817 N   0  0  0  0  0  0  0  0  0  0  0  0
    9.0088  -14.6009   22.8692 C   0  0  0  0  0  0  0  0  0  0  0  0
   10.1770  -14.1776   22.9419 O   0  0  0  0  0  0  0  0  0  0  0  0
    7.7887  -11.8325   26.1521 C   0  0  0  0  0  0  0  0  0  0  0  0
    6.7709  -12.9442   25.8465 C   0  0  2  0  0  0  0  0  0  0  0  0
    5.4622  -12.6136   26.4914 C   0  0  0  0  0  0  0  0  0  0  0  0
    7.3300  -14.2795   26.2812 C   0  0  0  0  0  0  0  0  0  0  0  0
    8.5159  -14.5868   25.3798 C   0  0  2  0  0  0  0  0  0  0  0  0
    8.1960  -14.7688   24.0075 N   0  0  0  0  0  0  0  0  0  0  0  0
    9.4841  -15.5249   25.9367 C   0  0  0  0  0  0  0  0  0  0  0  0
    9.8765  -15.4474   27.1536 O   0  0  0  0  0  0  0  0  0  0  0  0
   10.0652  -16.5831   25.1993 N   0  0  0  0  0  0  0  0  0  0  0  0
   11.0789  -17.4807   25.7438 C   0  0  1  0  0  0  0  0  0  0  0  0
   10.4843  -18.7979   26.0944 C   0  0  0  0  0  0  0  0  0  0  0  0
   10.3603  -18.9533   27.5776 C   0  0  0  0  0  0  0  0  0  0  0  0
    9.9592  -20.2908   28.0441 C   0  0  0  0  0  0  0  0  0  0  0  0
    9.8592  -20.5248   29.2706 O   0  0  0  0  0  0  0  0  0  0  0  0
   12.2425  -17.5857   24.8379 C   0  0  0  0  0  0  0  0  0  0  0  0
   12.1877  -16.9722   23.6120 O   0  0  0  0  0  0  0  0  0  0  0  0
    9.6826  -21.3250   27.1185 O   0  0  0  0  0  0  0  0  0  0  0  0
   13.2474  -18.2205   25.1903 O   0  0  0  0  0  0  0  0  0  0  0  0
  2  1  1  6
  3  2  1  0
  4  2  1  0
  5  4  1  0
  5  6  1  1
  7  8  2  0
  7  5  1  0
 10 11  1  1
 10  9  1  0
 12 10  1  0
 13 12  1  1
 13 14  1  0
 14  7  1  0
 15 13  1  0
 16 15  2  0
 17 15  1  0
 18 17  1  0
 19 20  1  0
 18 19  1  6
 20 21  1  0
 21 22  2  0
 21 25  1  0
 23 18  1  0
 23 24  1  0
 26 23  2  0
M  END
$$$$
