LLE.pdb
     RDKit          3D

 26 25  0  0  1  0  0  0  0  0999 V2000
    8.1090  -11.9420   20.1081 C   0  0  0  0  0  0  0  0  0  0  0  0
    7.8834  -13.4391   20.0725 C   0  0  1  0  0  0  0  0  0  0  0  0
    7.0802  -13.8571   18.8730 C   0  0  0  0  0  0  0  0  0  0  0  0
    9.1940  -14.1970   20.0449 C   0  0  0  0  0  0  0  0  0  0  0  0
    9.0725  -15.3424   21.0189 C   0  0  2  0  0  0  0  0  0  0  0  0
    7.8511  -16.0528   20.8102 N   0  0  0  0  0  0  0  0  0  0  0  0
    9.2322  -14.8658   22.4354 C   0  0  0  0  0  0  0  0  0  0  0  0
   10.3774  -14.4907   22.7465 O   0  0  0  0  0  0  0  0  0  0  0  0
    5.8550  -12.8704   27.2708 C   0  0  0  0  0  0  0  0  0  0  0  0
    7.1570  -13.3822   26.6320 C   0  0  2  0  0  0  0  0  0  0  0  0
    8.1589  -12.2722   26.5839 C   0  0  0  0  0  0  0  0  0  0  0  0
    6.8586  -13.9762   25.2746 C   0  0  0  0  0  0  0  0  0  0  0  0
    8.1609  -14.5496   24.7373 C   0  0  2  0  0  0  0  0  0  0  0  0
    8.1588  -14.8453   23.3476 N   0  0  0  0  0  0  0  0  0  0  0  0
    8.7965  -15.5415   25.5974 C   0  0  0  0  0  0  0  0  0  0  0  0
    8.7601  -15.4503   26.8745 O   0  0  0  0  0  0  0  0  0  0  0  0
    9.4958  -16.6704   25.1096 N   0  0  0  0  0  0  0  0  0  0  0  0
    9.9428  -17.7686   25.9603 C   0  0  1  0  0  0  0  0  0  0  0  0
   10.4823  -18.8858   25.1404 C   0  0  0  0  0  0  0  0  0  0  0  0
    9.4202  -19.8984   24.8475 C   0  0  0  0  0  0  0  0  0  0  0  0
    9.8290  -21.0126   23.9762 C   0  0  0  0  0  0  0  0  0  0  0  0
   11.0016  -21.0713   23.5396 O   0  0  0  0  0  0  0  0  0  0  0  0
   10.8851  -17.2936   26.9958 C   0  0  0  0  0  0  0  0  0  0  0  0
   11.3904  -18.1950   27.8983 O   0  0  0  0  0  0  0  0  0  0  0  0
    8.9081  -22.0270   23.6220 O   0  0  0  0  0  0  0  0  0  0  0  0
   11.2073  -16.0973   27.0390 O   0  0  0  0  0  0  0  0  0  0  0  0
  2  1  1  6
  3  2  1  0
  4  2  1  0
  5  4  1  0
  5  6  1  1
  7  8  2  0
  7  5  1  0
 10 11  1  6
 10  9  1  0
 12 10  1  0
 13 12  1  1
 13 14  1  0
 14  7  1  0
 15 13  1  0
 16 15  2  0
 17 15  1  0
 18 17  1  0
 19 20  1  0
 18 19  1  6
 20 21  1  0
 21 22  2  0
 21 25  1  0
 23 18  1  0
 23 24  1  0
 26 23  2  0
M  END
$$$$
