LLE.pdb
     RDKit          3D

 26 25  0  0  1  0  0  0  0  0999 V2000
    7.8004  -11.8321   19.1105 C   0  0  0  0  0  0  0  0  0  0  0  0
    8.0657  -13.2298   19.6298 C   0  0  1  0  0  0  0  0  0  0  0  0
    8.8904  -14.0384   18.6682 C   0  0  0  0  0  0  0  0  0  0  0  0
    8.7922  -13.1993   20.9580 C   0  0  0  0  0  0  0  0  0  0  0  0
    8.7786  -14.6025   21.5112 C   0  0  2  0  0  0  0  0  0  0  0  0
    7.5779  -15.2792   21.1367 N   0  0  0  0  0  0  0  0  0  0  0  0
    9.0036  -14.5990   22.9973 C   0  0  0  0  0  0  0  0  0  0  0  0
   10.1103  -14.1673   23.3686 O   0  0  0  0  0  0  0  0  0  0  0  0
    7.8603  -12.5826   26.7472 C   0  0  0  0  0  0  0  0  0  0  0  0
    6.6662  -13.1800   25.9842 C   0  0  2  0  0  0  0  0  0  0  0  0
    5.3908  -12.6539   26.5628 C   0  0  0  0  0  0  0  0  0  0  0  0
    6.7528  -14.6889   26.0043 C   0  0  0  0  0  0  0  0  0  0  0  0
    8.0590  -15.0745   25.3271 C   0  0  2  0  0  0  0  0  0  0  0  0
    8.0283  -15.0532   23.9068 N   0  0  0  0  0  0  0  0  0  0  0  0
    8.7536  -16.2059   25.9312 C   0  0  0  0  0  0  0  0  0  0  0  0
    8.4668  -16.6244   27.1074 O   0  0  0  0  0  0  0  0  0  0  0  0
    9.7848  -16.9287   25.2867 N   0  0  0  0  0  0  0  0  0  0  0  0
   10.4367  -18.0953   25.8731 C   0  0  1  0  0  0  0  0  0  0  0  0
   11.1492  -18.8814   24.8311 C   0  0  0  0  0  0  0  0  0  0  0  0
   10.3555  -18.9365   23.5637 C   0  0  0  0  0  0  0  0  0  0  0  0
   10.9521  -19.7284   22.4754 C   0  0  0  0  0  0  0  0  0  0  0  0
   10.4961  -19.6414   21.3119 O   0  0  0  0  0  0  0  0  0  0  0  0
   11.3005  -17.7103   27.0095 C   0  0  0  0  0  0  0  0  0  0  0  0
   11.8613  -18.6959   27.7817 O   0  0  0  0  0  0  0  0  0  0  0  0
   12.0430  -20.5940   22.7271 O   0  0  0  0  0  0  0  0  0  0  0  0
   11.5086  -16.5125   27.2522 O   0  0  0  0  0  0  0  0  0  0  0  0
  2  1  1  6
  3  2  1  0
  4  2  1  0
  5  4  1  0
  5  6  1  1
  7  8  2  0
  7  5  1  0
 10 11  1  1
 10  9  1  0
 12 10  1  0
 13 12  1  1
 13 14  1  0
 14  7  1  0
 15 13  1  0
 16 15  2  0
 17 15  1  0
 18 17  1  0
 19 20  1  0
 18 19  1  6
 20 21  1  0
 21 22  2  0
 21 25  1  0
 23 18  1  0
 23 24  1  0
 26 23  2  0
M  END
$$$$
