LLE.pdb
     RDKit          3D

 26 25  0  0  1  0  0  0  0  0999 V2000
    7.4386  -12.0709   19.1913 C   0  0  0  0  0  0  0  0  0  0  0  0
    7.7783  -13.4808   19.6278 C   0  0  1  0  0  0  0  0  0  0  0  0
    8.5561  -14.2215   18.5766 C   0  0  0  0  0  0  0  0  0  0  0  0
    8.5946  -13.4850   20.9031 C   0  0  0  0  0  0  0  0  0  0  0  0
    8.6097  -14.9006   21.4237 C   0  0  2  0  0  0  0  0  0  0  0  0
    7.4064  -15.5813   21.0650 N   0  0  0  0  0  0  0  0  0  0  0  0
    8.8738  -14.9290   22.9030 C   0  0  0  0  0  0  0  0  0  0  0  0
   10.0471  -14.6869   23.2405 O   0  0  0  0  0  0  0  0  0  0  0  0
    7.8831  -12.6372   26.4963 C   0  0  0  0  0  0  0  0  0  0  0  0
    6.6760  -13.2960   25.8078 C   0  0  2  0  0  0  0  0  0  0  0  0
    5.4126  -12.6756   26.3148 C   0  0  0  0  0  0  0  0  0  0  0  0
    6.7290  -14.7929   26.0105 C   0  0  0  0  0  0  0  0  0  0  0  0
    7.9464  -15.3070   25.2575 C   0  0  2  0  0  0  0  0  0  0  0  0
    7.8623  -15.2102   23.8425 N   0  0  0  0  0  0  0  0  0  0  0  0
    8.5119  -16.5469   25.7774 C   0  0  0  0  0  0  0  0  0  0  0  0
    7.7717  -17.4882   26.2322 O   0  0  0  0  0  0  0  0  0  0  0  0
    9.8998  -16.8170   25.8252 N   0  0  0  0  0  0  0  0  0  0  0  0
   10.4642  -18.0224   26.4237 C   0  0  1  0  0  0  0  0  0  0  0  0
   11.6793  -18.4589   25.6861 C   0  0  0  0  0  0  0  0  0  0  0  0
   11.4555  -18.4122   24.2072 C   0  0  0  0  0  0  0  0  0  0  0  0
   12.5741  -18.8949   23.3807 C   0  0  0  0  0  0  0  0  0  0  0  0
   13.4845  -19.5840   23.8960 O   0  0  0  0  0  0  0  0  0  0  0  0
   10.6915  -17.8435   27.8736 C   0  0  0  0  0  0  0  0  0  0  0  0
   10.5103  -16.6009   28.4263 O   0  0  0  0  0  0  0  0  0  0  0  0
   12.6361  -18.5890   22.0005 O   0  0  0  0  0  0  0  0  0  0  0  0
   11.0401  -18.8079   28.5702 O   0  0  0  0  0  0  0  0  0  0  0  0
  2  1  1  6
  3  2  1  0
  4  2  1  0
  5  4  1  0
  5  6  1  1
  7  8  2  0
  7  5  1  0
 10 11  1  1
 10  9  1  0
 12 10  1  0
 13 12  1  1
 13 14  1  0
 14  7  1  0
 15 13  1  0
 16 15  2  0
 17 15  1  0
 18 17  1  0
 19 20  1  0
 18 19  1  6
 20 21  1  0
 21 22  2  0
 21 25  1  0
 23 18  1  0
 23 24  1  0
 26 23  2  0
M  END
$$$$
