LLE.pdb
     RDKit          3D

 26 25  0  0  1  0  0  0  0  0999 V2000
    7.0559  -12.8073   20.6171 C   0  0  0  0  0  0  0  0  0  0  0  0
    8.0268  -13.6394   19.8055 C   0  0  1  0  0  0  0  0  0  0  0  0
    8.4081  -12.9614   18.5196 C   0  0  0  0  0  0  0  0  0  0  0  0
    9.2970  -13.9219   20.5798 C   0  0  0  0  0  0  0  0  0  0  0  0
    9.0798  -15.2000   21.3507 C   0  0  2  0  0  0  0  0  0  0  0  0
    7.8098  -15.7704   21.0316 N   0  0  0  0  0  0  0  0  0  0  0  0
    9.2623  -14.9783   22.8261 C   0  0  0  0  0  0  0  0  0  0  0  0
   10.4131  -14.6634   23.1802 O   0  0  0  0  0  0  0  0  0  0  0  0
    8.0022  -12.3669   26.2101 C   0  0  0  0  0  0  0  0  0  0  0  0
    6.8140  -13.0905   25.5546 C   0  0  2  0  0  0  0  0  0  0  0  0
    5.5333  -12.5019   26.0558 C   0  0  0  0  0  0  0  0  0  0  0  0
    6.9245  -14.5776   25.8018 C   0  0  0  0  0  0  0  0  0  0  0  0
    8.2231  -15.0456   25.1632 C   0  0  2  0  0  0  0  0  0  0  0  0
    8.2029  -15.1172   23.7443 N   0  0  0  0  0  0  0  0  0  0  0  0
    8.8790  -16.1548   25.8465 C   0  0  0  0  0  0  0  0  0  0  0  0
    8.8078  -16.3022   27.1169 O   0  0  0  0  0  0  0  0  0  0  0  0
    9.6368  -17.1477   25.1823 N   0  0  0  0  0  0  0  0  0  0  0  0
   10.3084  -18.2433   25.8740 C   0  0  1  0  0  0  0  0  0  0  0  0
   11.1809  -19.0021   24.9389 C   0  0  0  0  0  0  0  0  0  0  0  0
   10.4723  -19.2819   23.6509 C   0  0  0  0  0  0  0  0  0  0  0  0
   11.2368  -20.0603   22.6624 C   0  0  0  0  0  0  0  0  0  0  0  0
   12.3902  -20.4646   22.9368 O   0  0  0  0  0  0  0  0  0  0  0  0
   11.0190  -17.7605   27.0772 C   0  0  0  0  0  0  0  0  0  0  0  0
   11.5752  -18.6772   27.9330 O   0  0  0  0  0  0  0  0  0  0  0  0
   10.6825  -20.3608   21.3955 O   0  0  0  0  0  0  0  0  0  0  0  0
   11.1054  -16.5440   27.2999 O   0  0  0  0  0  0  0  0  0  0  0  0
  2  1  1  1
  3  2  1  0
  4  2  1  0
  5  4  1  0
  5  6  1  1
  7  8  2  0
  7  5  1  0
 10 11  1  1
 10  9  1  0
 12 10  1  0
 13 12  1  1
 13 14  1  0
 14  7  1  0
 15 13  1  0
 16 15  2  0
 17 15  1  0
 18 17  1  0
 19 20  1  0
 18 19  1  6
 20 21  1  0
 21 22  2  0
 21 25  1  0
 23 18  1  0
 23 24  1  0
 26 23  2  0
M  END
$$$$
