LLE.pdb
     RDKit          3D

 26 25  0  0  1  0  0  0  0  0999 V2000
    7.4142  -11.8952   19.1619 C   0  0  0  0  0  0  0  0  0  0  0  0
    7.6220  -13.3110   19.6579 C   0  0  1  0  0  0  0  0  0  0  0  0
    8.3079  -14.1695   18.6327 C   0  0  0  0  0  0  0  0  0  0  0  0
    8.4535  -13.3389   20.9230 C   0  0  0  0  0  0  0  0  0  0  0  0
    8.4457  -14.7574   21.4360 C   0  0  2  0  0  0  0  0  0  0  0  0
    7.1072  -15.2401   21.5600 N   0  0  0  0  0  0  0  0  0  0  0  0
    9.2254  -14.8730   22.7157 C   0  0  0  0  0  0  0  0  0  0  0  0
   10.4414  -15.1015   22.5810 O   0  0  0  0  0  0  0  0  0  0  0  0
    6.9504  -12.4445   24.9405 C   0  0  0  0  0  0  0  0  0  0  0  0
    7.2346  -13.5161   26.0064 C   0  0  2  0  0  0  0  0  0  0  0  0
    6.4943  -13.1795   27.2621 C   0  0  0  0  0  0  0  0  0  0  0  0
    8.7265  -13.6480   26.2103 C   0  0  0  0  0  0  0  0  0  0  0  0
    9.2151  -14.7398   25.2708 C   0  0  2  0  0  0  0  0  0  0  0  0
    8.6208  -14.7320   23.9803 N   0  0  0  0  0  0  0  0  0  0  0  0
    9.3805  -16.0516   25.8867 C   0  0  0  0  0  0  0  0  0  0  0  0
    8.4395  -16.9205   25.8877 O   0  0  0  0  0  0  0  0  0  0  0  0
   10.5701  -16.4745   26.5249 N   0  0  0  0  0  0  0  0  0  0  0  0
   10.8569  -17.8682   26.8490 C   0  0  1  0  0  0  0  0  0  0  0  0
   12.1732  -18.2796   26.2926 C   0  0  0  0  0  0  0  0  0  0  0  0
   12.0054  -18.9908   24.9867 C   0  0  0  0  0  0  0  0  0  0  0  0
   13.2545  -19.3558   24.2981 C   0  0  0  0  0  0  0  0  0  0  0  0
   14.3611  -19.0628   24.8066 O   0  0  0  0  0  0  0  0  0  0  0  0
   10.7312  -18.1165   28.3010 C   0  0  0  0  0  0  0  0  0  0  0  0
   10.9067  -19.3920   28.7748 O   0  0  0  0  0  0  0  0  0  0  0  0
   13.2225  -20.0388   23.0591 O   0  0  0  0  0  0  0  0  0  0  0  0
   10.4711  -17.1795   29.0700 O   0  0  0  0  0  0  0  0  0  0  0  0
  2  1  1  6
  3  2  1  0
  4  2  1  0
  5  4  1  0
  5  6  1  1
  7  8  2  0
  7  5  1  0
 10 11  1  1
 10  9  1  0
 12 10  1  0
 13 12  1  1
 13 14  1  0
 14  7  1  0
 15 13  1  0
 16 15  2  0
 17 15  1  0
 18 17  1  0
 19 20  1  0
 18 19  1  1
 20 21  1  0
 21 22  2  0
 21 25  1  0
 23 18  1  0
 23 24  1  0
 26 23  2  0
M  END
$$$$
