LLE.pdb
     RDKit          3D

 26 25  0  0  1  0  0  0  0  0999 V2000
    7.8099  -11.7681   19.6214 C   0  0  0  0  0  0  0  0  0  0  0  0
    7.8997  -13.2701   19.7929 C   0  0  1  0  0  0  0  0  0  0  0  0
    8.1852  -13.9672   18.4925 C   0  0  0  0  0  0  0  0  0  0  0  0
    8.9859  -13.6520   20.7765 C   0  0  0  0  0  0  0  0  0  0  0  0
    8.5985  -14.9776   21.3830 C   0  0  2  0  0  0  0  0  0  0  0  0
    7.2092  -15.2380   21.1777 N   0  0  0  0  0  0  0  0  0  0  0  0
    8.9938  -15.0446   22.8316 C   0  0  0  0  0  0  0  0  0  0  0  0
   10.2189  -15.0474   23.0510 O   0  0  0  0  0  0  0  0  0  0  0  0
    8.3840  -12.4342   26.3164 C   0  0  0  0  0  0  0  0  0  0  0  0
    7.1185  -13.1305   25.7884 C   0  0  2  0  0  0  0  0  0  0  0  0
    5.9065  -12.4346   26.3224 C   0  0  0  0  0  0  0  0  0  0  0  0
    7.1641  -14.6008   26.1359 C   0  0  0  0  0  0  0  0  0  0  0  0
    8.2409  -15.2357   25.2694 C   0  0  2  0  0  0  0  0  0  0  0  0
    8.0423  -15.1001   23.8691 N   0  0  0  0  0  0  0  0  0  0  0  0
    8.7023  -16.5431   25.7225 C   0  0  0  0  0  0  0  0  0  0  0  0
    7.9459  -17.5761   25.6858 O   0  0  0  0  0  0  0  0  0  0  0  0
    9.9997  -16.7840   26.2324 N   0  0  0  0  0  0  0  0  0  0  0  0
   10.5078  -18.1169   26.5406 C   0  0  1  0  0  0  0  0  0  0  0  0
   11.7827  -18.3756   25.8200 C   0  0  0  0  0  0  0  0  0  0  0  0
   12.3703  -19.6913   26.2238 C   0  0  0  0  0  0  0  0  0  0  0  0
   13.6852  -20.0046   25.6405 C   0  0  0  0  0  0  0  0  0  0  0  0
   14.5205  -20.6704   26.2949 O   0  0  0  0  0  0  0  0  0  0  0  0
   10.6070  -18.3270   28.0006 C   0  0  0  0  0  0  0  0  0  0  0  0
   10.4217  -17.2578   28.8400 O   0  0  0  0  0  0  0  0  0  0  0  0
   14.0220  -19.5606   24.3397 O   0  0  0  0  0  0  0  0  0  0  0  0
   10.8542  -19.4560   28.4491 O   0  0  0  0  0  0  0  0  0  0  0  0
  2  1  1  6
  3  2  1  0
  4  2  1  0
  5  4  1  0
  5  6  1  1
  7  8  2  0
  7  5  1  0
 10 11  1  1
 10  9  1  0
 12 10  1  0
 13 12  1  1
 13 14  1  0
 14  7  1  0
 15 13  1  0
 16 15  2  0
 17 15  1  0
 18 17  1  0
 19 20  1  0
 18 19  1  6
 20 21  1  0
 21 22  2  0
 21 25  1  0
 23 18  1  0
 23 24  1  0
 26 23  2  0
M  END
$$$$
