LLE.pdb
     RDKit          3D

 26 25  0  0  1  0  0  0  0  0999 V2000
    7.4198  -11.8954   19.3858 C   0  0  0  0  0  0  0  0  0  0  0  0
    7.6384  -13.3362   19.7980 C   0  0  1  0  0  0  0  0  0  0  0  0
    8.2280  -14.1552   18.6844 C   0  0  0  0  0  0  0  0  0  0  0  0
    8.5632  -13.4370   20.9928 C   0  0  0  0  0  0  0  0  0  0  0  0
    8.4679  -14.8476   21.5185 C   0  0  2  0  0  0  0  0  0  0  0  0
    7.1571  -15.3749   21.3094 N   0  0  0  0  0  0  0  0  0  0  0  0
    8.8994  -14.9180   22.9566 C   0  0  0  0  0  0  0  0  0  0  0  0
   10.1252  -14.8263   23.1512 O   0  0  0  0  0  0  0  0  0  0  0  0
    8.2165  -12.4103   26.4213 C   0  0  0  0  0  0  0  0  0  0  0  0
    6.9775  -13.1912   25.9521 C   0  0  2  0  0  0  0  0  0  0  0  0
    5.7468  -12.5706   26.5339 C   0  0  0  0  0  0  0  0  0  0  0  0
    7.1331  -14.6526   26.3054 C   0  0  0  0  0  0  0  0  0  0  0  0
    8.2183  -15.2213   25.4041 C   0  0  2  0  0  0  0  0  0  0  0  0
    7.9788  -15.0768   24.0111 N   0  0  0  0  0  0  0  0  0  0  0  0
    8.7549  -16.5101   25.8267 C   0  0  0  0  0  0  0  0  0  0  0  0
    7.9996  -17.5278   26.0126 O   0  0  0  0  0  0  0  0  0  0  0  0
   10.1290  -16.7482   26.0641 N   0  0  0  0  0  0  0  0  0  0  0  0
   10.6514  -18.0186   26.5571 C   0  0  1  0  0  0  0  0  0  0  0  0
   11.9931  -18.2975   25.9796 C   0  0  0  0  0  0  0  0  0  0  0  0
   11.9332  -18.3546   24.4854 C   0  0  0  0  0  0  0  0  0  0  0  0
   13.2269  -18.2314   23.7935 C   0  0  0  0  0  0  0  0  0  0  0  0
   13.2649  -17.8957   22.5873 O   0  0  0  0  0  0  0  0  0  0  0  0
   10.6273  -18.0696   28.0345 C   0  0  0  0  0  0  0  0  0  0  0  0
   11.0093  -19.2261   28.6658 O   0  0  0  0  0  0  0  0  0  0  0  0
   14.4386  -18.4889   24.4776 O   0  0  0  0  0  0  0  0  0  0  0  0
   10.2659  -17.0770   28.6833 O   0  0  0  0  0  0  0  0  0  0  0  0
  2  1  1  6
  3  2  1  0
  4  2  1  0
  5  4  1  0
  5  6  1  1
  7  8  2  0
  7  5  1  0
 10 11  1  1
 10  9  1  0
 12 10  1  0
 13 12  1  1
 13 14  1  0
 14  7  1  0
 15 13  1  0
 16 15  2  0
 17 15  1  0
 18 17  1  0
 19 20  1  0
 18 19  1  1
 20 21  1  0
 21 22  2  0
 21 25  1  0
 23 18  1  0
 23 24  1  0
 26 23  2  0
M  END
$$$$
