LLE.pdb
     RDKit          3D

 26 25  0  0  1  0  0  0  0  0999 V2000
    7.1918  -12.4037   19.3695 C   0  0  0  0  0  0  0  0  0  0  0  0
    7.6712  -13.7956   19.7253 C   0  0  1  0  0  0  0  0  0  0  0  0
    7.9450  -14.6244   18.5020 C   0  0  0  0  0  0  0  0  0  0  0  0
    8.9383  -13.7509   20.5531 C   0  0  0  0  0  0  0  0  0  0  0  0
    8.9487  -14.9801   21.4274 C   0  0  2  0  0  0  0  0  0  0  0  0
    7.6939  -15.6586   21.3563 N   0  0  0  0  0  0  0  0  0  0  0  0
    9.3441  -14.6370   22.8363 C   0  0  0  0  0  0  0  0  0  0  0  0
   10.4990  -14.1939   22.9737 O   0  0  0  0  0  0  0  0  0  0  0  0
    8.2139  -11.9635   26.2816 C   0  0  0  0  0  0  0  0  0  0  0  0
    7.0655  -12.9055   25.8829 C   0  0  2  0  0  0  0  0  0  0  0  0
    5.8160  -12.4997   26.5987 C   0  0  0  0  0  0  0  0  0  0  0  0
    7.4670  -14.3383   26.1486 C   0  0  0  0  0  0  0  0  0  0  0  0
    8.7068  -14.6212   25.3142 C   0  0  2  0  0  0  0  0  0  0  0  0
    8.4671  -14.8055   23.9259 N   0  0  0  0  0  0  0  0  0  0  0  0
    9.6597  -15.5427   25.9228 C   0  0  0  0  0  0  0  0  0  0  0  0
    9.8314  -15.5964   27.1910 O   0  0  0  0  0  0  0  0  0  0  0  0
   10.4635  -16.4419   25.1834 N   0  0  0  0  0  0  0  0  0  0  0  0
   11.1799  -17.5616   25.7857 C   0  0  1  0  0  0  0  0  0  0  0  0
   10.2279  -18.5682   26.3261 C   0  0  0  0  0  0  0  0  0  0  0  0
   10.6361  -19.0122   27.6956 C   0  0  0  0  0  0  0  0  0  0  0  0
   10.1394  -20.3354   28.1078 C   0  0  0  0  0  0  0  0  0  0  0  0
    9.0149  -20.4439   28.6490 O   0  0  0  0  0  0  0  0  0  0  0  0
   12.1660  -18.1339   24.8445 C   0  0  0  0  0  0  0  0  0  0  0  0
   13.1857  -18.9071   25.3392 O   0  0  0  0  0  0  0  0  0  0  0  0
   10.9210  -21.4965   27.8996 O   0  0  0  0  0  0  0  0  0  0  0  0
   12.0639  -17.9126   23.6290 O   0  0  0  0  0  0  0  0  0  0  0  0
  2  1  1  6
  3  2  1  0
  4  2  1  0
  5  4  1  0
  5  6  1  1
  7  8  2  0
  7  5  1  0
 10 11  1  1
 10  9  1  0
 12 10  1  0
 13 12  1  1
 13 14  1  0
 14  7  1  0
 15 13  1  0
 16 15  2  0
 17 15  1  0
 18 17  1  0
 19 20  1  0
 18 19  1  6
 20 21  1  0
 21 22  2  0
 21 25  1  0
 23 18  1  0
 23 24  1  0
 26 23  2  0
M  END
$$$$
