LLE.pdb
     RDKit          3D

 26 25  0  0  1  0  0  0  0  0999 V2000
    7.3461  -11.9524   19.3729 C   0  0  0  0  0  0  0  0  0  0  0  0
    7.6632  -13.3486   19.8666 C   0  0  1  0  0  0  0  0  0  0  0  0
    8.3260  -14.1817   18.8058 C   0  0  0  0  0  0  0  0  0  0  0  0
    8.5764  -13.3158   21.0740 C   0  0  0  0  0  0  0  0  0  0  0  0
    8.5587  -14.6927   21.6897 C   0  0  2  0  0  0  0  0  0  0  0  0
    7.2914  -15.3189   21.4855 N   0  0  0  0  0  0  0  0  0  0  0  0
    8.9541  -14.6412   23.1388 C   0  0  0  0  0  0  0  0  0  0  0  0
   10.1624  -14.4363   23.3555 O   0  0  0  0  0  0  0  0  0  0  0  0
    7.8050  -12.1041   26.4474 C   0  0  0  0  0  0  0  0  0  0  0  0
    6.6790  -13.0699   26.0420 C   0  0  2  0  0  0  0  0  0  0  0  0
    5.3870  -12.6086   26.6388 C   0  0  0  0  0  0  0  0  0  0  0  0
    7.0502  -14.4801   26.4396 C   0  0  0  0  0  0  0  0  0  0  0  0
    8.2364  -14.8930   25.5818 C   0  0  2  0  0  0  0  0  0  0  0  0
    8.0204  -14.8128   24.1798 N   0  0  0  0  0  0  0  0  0  0  0  0
    8.9498  -16.0765   26.0485 C   0  0  0  0  0  0  0  0  0  0  0  0
    9.2262  -16.2538   27.2866 O   0  0  0  0  0  0  0  0  0  0  0  0
    9.3916  -17.1141   25.1945 N   0  0  0  0  0  0  0  0  0  0  0  0
   10.1409  -18.2759   25.6619 C   0  0  1  0  0  0  0  0  0  0  0  0
   10.2667  -19.2920   24.5834 C   0  0  0  0  0  0  0  0  0  0  0  0
   10.9871  -20.5087   25.0732 C   0  0  0  0  0  0  0  0  0  0  0  0
   11.1909  -21.5705   24.0740 C   0  0  0  0  0  0  0  0  0  0  0  0
   11.2748  -22.7667   24.4364 O   0  0  0  0  0  0  0  0  0  0  0  0
   11.4396  -17.8758   26.2442 C   0  0  0  0  0  0  0  0  0  0  0  0
   12.1939  -16.9289   25.5987 O   0  0  0  0  0  0  0  0  0  0  0  0
   11.2944  -21.2565   22.6981 O   0  0  0  0  0  0  0  0  0  0  0  0
   11.8317  -18.3940   27.3000 O   0  0  0  0  0  0  0  0  0  0  0  0
  2  1  1  6
  3  2  1  0
  4  2  1  0
  5  4  1  0
  5  6  1  1
  7  8  2  0
  7  5  1  0
 10 11  1  1
 10  9  1  0
 12 10  1  0
 13 12  1  1
 13 14  1  0
 14  7  1  0
 15 13  1  0
 16 15  2  0
 17 15  1  0
 18 17  1  0
 19 20  1  0
 18 19  1  6
 20 21  1  0
 21 22  2  0
 21 25  1  0
 23 18  1  0
 23 24  1  0
 26 23  2  0
M  END
$$$$
