LLE.pdb
     RDKit          3D

 26 25  0  0  1  0  0  0  0  0999 V2000
    7.9072  -12.0380   19.4237 C   0  0  0  0  0  0  0  0  0  0  0  0
    7.8877  -13.5265   19.7020 C   0  0  1  0  0  0  0  0  0  0  0  0
    7.4891  -14.3189   18.4888 C   0  0  0  0  0  0  0  0  0  0  0  0
    9.2429  -14.0228   20.1602 C   0  0  0  0  0  0  0  0  0  0  0  0
    9.0122  -15.2613   20.9898 C   0  0  2  0  0  0  0  0  0  0  0  0
    7.7393  -15.8365   20.6917 N   0  0  0  0  0  0  0  0  0  0  0  0
    9.1897  -14.9711   22.4538 C   0  0  0  0  0  0  0  0  0  0  0  0
   10.3668  -14.8229   22.8297 O   0  0  0  0  0  0  0  0  0  0  0  0
    6.0341  -12.8552   27.3786 C   0  0  0  0  0  0  0  0  0  0  0  0
    7.2705  -13.4805   26.7112 C   0  0  2  0  0  0  0  0  0  0  0  0
    8.4441  -12.5685   26.8813 C   0  0  0  0  0  0  0  0  0  0  0  0
    6.9638  -13.7952   25.2650 C   0  0  0  0  0  0  0  0  0  0  0  0
    8.0918  -14.6733   24.7456 C   0  0  2  0  0  0  0  0  0  0  0  0
    8.0980  -14.8736   23.3390 N   0  0  0  0  0  0  0  0  0  0  0  0
    8.3764  -15.8517   25.5569 C   0  0  0  0  0  0  0  0  0  0  0  0
    7.4654  -16.7002   25.8579 O   0  0  0  0  0  0  0  0  0  0  0  0
    9.6572  -16.1580   26.0736 N   0  0  0  0  0  0  0  0  0  0  0  0
    9.9511  -17.3735   26.8258 C   0  0  1  0  0  0  0  0  0  0  0  0
   11.1866  -18.0247   26.3151 C   0  0  0  0  0  0  0  0  0  0  0  0
   11.4038  -17.7051   24.8694 C   0  0  0  0  0  0  0  0  0  0  0  0
   12.6040  -18.3025   24.2610 C   0  0  0  0  0  0  0  0  0  0  0  0
   12.5966  -19.5034   23.9047 O   0  0  0  0  0  0  0  0  0  0  0  0
    9.9871  -17.1072   28.2796 C   0  0  0  0  0  0  0  0  0  0  0  0
    9.8028  -15.8226   28.7246 O   0  0  0  0  0  0  0  0  0  0  0  0
   13.7762  -17.5327   24.0713 O   0  0  0  0  0  0  0  0  0  0  0  0
   10.1814  -18.0374   29.0757 O   0  0  0  0  0  0  0  0  0  0  0  0
  2  1  1  6
  3  2  1  0
  4  2  1  0
  5  4  1  0
  5  6  1  1
  7  8  2  0
  7  5  1  0
 10 11  1  6
 10  9  1  0
 12 10  1  0
 13 12  1  1
 13 14  1  0
 14  7  1  0
 15 13  1  0
 16 15  2  0
 17 15  1  0
 18 17  1  0
 19 20  1  0
 18 19  1  6
 20 21  1  0
 21 22  2  0
 21 25  1  0
 23 18  1  0
 23 24  1  0
 26 23  2  0
M  END
$$$$
