CPL.pdb
     RDKit          3D

 22 22  0  0  1  0  0  0  0  0999 V2000
    8.1062  -12.5677   18.5795 N   0  0  0  0  0  0  0  0  0  0  0  0
    8.7549  -13.6497   19.2417 C   0  0  1  0  0  0  0  0  0  0  0  0
   10.2088  -13.2571   19.4974 C   0  0  0  0  0  0  0  0  0  0  0  0
   11.0550  -14.7131   20.2087 S   0  0  0  0  0  0  0  0  0  0  0  0
    8.1377  -14.1020   20.4914 C   0  0  0  0  0  0  0  0  0  0  0  0
    7.9409  -13.2302   21.4082 O   0  0  0  0  0  0  0  0  0  0  0  0
    7.7324  -15.4333   20.7859 N   0  0  0  0  0  0  0  0  0  0  0  0
    7.9016  -16.5486   19.8713 C   0  0  0  0  0  0  0  0  0  0  0  0
    7.0602  -17.6401   20.4966 C   0  0  0  0  0  0  0  0  0  0  0  0
    7.2163  -17.3937   21.9572 C   0  0  0  0  0  0  0  0  0  0  0  0
    7.1102  -15.8622   22.0247 C   0  0  1  0  0  0  0  0  0  0  0  0
    7.9672  -15.5028   23.2084 C   0  0  0  0  0  0  0  0  0  0  0  0
    9.2048  -15.4437   23.0277 O   0  0  0  0  0  0  0  0  0  0  0  0
    7.5964  -11.6342   25.4361 C   0  0  0  0  0  0  0  0  0  0  0  0
    6.7895  -12.8284   25.8749 C   0  0  2  0  0  0  0  0  0  0  0  0
    5.5287  -12.4378   26.6165 C   0  0  0  0  0  0  0  0  0  0  0  0
    7.5755  -13.9114   26.5018 C   0  0  0  0  0  0  0  0  0  0  0  0
    8.2497  -14.9021   25.6424 C   0  0  2  0  0  0  0  0  0  0  0  0
    7.4521  -15.2369   24.4775 N   0  0  0  0  0  0  0  0  0  0  0  0
    8.7341  -16.1143   26.2920 C   0  0  0  0  0  0  0  0  0  0  0  0
    9.7895  -16.1588   27.1894 O   0  0  0  0  0  0  0  0  0  0  0  0
    8.1845  -17.2167   26.0489 O   0  0  0  0  0  0  0  0  0  0  0  0
  2  1  1  1
  3  4  1  0
  3  2  1  0
  5  6  2  0
  5  2  1  0
  7  5  1  0
  8  7  1  0
  9 10  1  0
  9  8  1  0
 10 11  1  0
 11  7  1  0
 11 12  1  1
 12 19  1  0
 13 12  2  0
 15 14  1  1
 16 15  1  0
 17 15  1  0
 18 20  1  0
 18 17  1  1
 19 18  1  0
 20 21  1  0
 22 20  2  0
M  END
$$$$
