CPL.pdb
     RDKit          3D

 22 22  0  0  1  0  0  0  0  0999 V2000
   11.5985  -16.7775   19.0565 N   0  0  0  0  0  0  0  0  0  0  0  0
   10.6152  -17.2374   19.9792 C   0  0  1  0  0  0  0  0  0  0  0  0
   11.0971  -18.5562   20.5808 C   0  0  0  0  0  0  0  0  0  0  0  0
    9.7681  -19.1832   21.6683 S   0  0  0  0  0  0  0  0  0  0  0  0
   10.2546  -16.3069   21.0522 C   0  0  0  0  0  0  0  0  0  0  0  0
   11.1996  -15.8433   21.7812 O   0  0  0  0  0  0  0  0  0  0  0  0
    8.9390  -15.8652   21.3645 N   0  0  0  0  0  0  0  0  0  0  0  0
    7.7605  -16.2412   20.6037 C   0  0  0  0  0  0  0  0  0  0  0  0
    6.6967  -15.2996   21.1252 C   0  0  0  0  0  0  0  0  0  0  0  0
    7.0627  -15.1355   22.5596 C   0  0  0  0  0  0  0  0  0  0  0  0
    8.5907  -14.9974   22.4741 C   0  0  1  0  0  0  0  0  0  0  0  0
    9.0689  -15.5759   23.7785 C   0  0  0  0  0  0  0  0  0  0  0  0
    9.3433  -16.7973   23.8017 O   0  0  0  0  0  0  0  0  0  0  0  0
    9.8326  -13.6296   29.6803 C   0  0  0  0  0  0  0  0  0  0  0  0
   10.1278  -14.6680   28.6294 C   0  0  2  0  0  0  0  0  0  0  0  0
   11.5357  -15.2151   28.7317 C   0  0  0  0  0  0  0  0  0  0  0  0
    9.6924  -14.3092   27.2637 C   0  0  0  0  0  0  0  0  0  0  0  0
    9.6441  -15.3551   26.2251 C   0  0  2  0  0  0  0  0  0  0  0  0
    9.2176  -14.8236   24.9442 N   0  0  0  0  0  0  0  0  0  0  0  0
    8.8988  -16.5664   26.5462 C   0  0  0  0  0  0  0  0  0  0  0  0
    9.4546  -17.7097   27.0986 O   0  0  0  0  0  0  0  0  0  0  0  0
    7.6646  -16.6194   26.3220 O   0  0  0  0  0  0  0  0  0  0  0  0
  2  1  1  1
  3  4  1  0
  3  2  1  0
  5  6  2  0
  5  2  1  0
  7  5  1  0
  8  7  1  0
  9 10  1  0
  9  8  1  0
 10 11  1  0
 11  7  1  0
 11 12  1  1
 12 19  1  0
 13 12  2  0
 15 14  1  1
 16 15  1  0
 17 15  1  0
 18 20  1  0
 18 17  1  1
 19 18  1  0
 20 21  1  0
 22 20  2  0
M  END
$$$$
