CPL.pdb
     RDKit          3D

 22 22  0  0  1  0  0  0  0  0999 V2000
    7.7828  -13.2568   18.7536 N   0  0  0  0  0  0  0  0  0  0  0  0
    8.7807  -13.8608   19.5718 C   0  0  1  0  0  0  0  0  0  0  0  0
    9.7630  -12.7778   20.0139 C   0  0  0  0  0  0  0  0  0  0  0  0
   10.8208  -12.3751   18.5783 S   0  0  0  0  0  0  0  0  0  0  0  0
    8.2945  -14.5953   20.7428 C   0  0  0  0  0  0  0  0  0  0  0  0
    7.4924  -13.9889   21.5355 O   0  0  0  0  0  0  0  0  0  0  0  0
    8.6335  -15.9333   21.0865 N   0  0  0  0  0  0  0  0  0  0  0  0
    9.3992  -16.8175   20.2258 C   0  0  0  0  0  0  0  0  0  0  0  0
    9.2278  -18.1715   20.8797 C   0  0  0  0  0  0  0  0  0  0  0  0
    9.1707  -17.8422   22.3312 C   0  0  0  0  0  0  0  0  0  0  0  0
    8.2765  -16.5925   22.3290 C   0  0  1  0  0  0  0  0  0  0  0  0
    8.7686  -15.8067   23.5143 C   0  0  0  0  0  0  0  0  0  0  0  0
    9.8852  -15.2493   23.4135 O   0  0  0  0  0  0  0  0  0  0  0  0
    8.0823  -12.0228   25.3217 C   0  0  0  0  0  0  0  0  0  0  0  0
    7.0318  -13.0104   25.7583 C   0  0  2  0  0  0  0  0  0  0  0  0
    5.8104  -12.3378   26.3483 C   0  0  0  0  0  0  0  0  0  0  0  0
    7.5456  -14.1628   26.5274 C   0  0  0  0  0  0  0  0  0  0  0  0
    8.5496  -15.0500   25.9111 C   0  0  2  0  0  0  0  0  0  0  0  0
    8.0473  -15.6740   24.7013 N   0  0  0  0  0  0  0  0  0  0  0  0
    9.1669  -16.0464   26.7781 C   0  0  0  0  0  0  0  0  0  0  0  0
    9.0228  -17.4170   26.6296 O   0  0  0  0  0  0  0  0  0  0  0  0
    9.8874  -15.6797   27.7387 O   0  0  0  0  0  0  0  0  0  0  0  0
  2  1  1  1
  3  4  1  0
  3  2  1  0
  5  6  2  0
  5  2  1  0
  7  5  1  0
  8  7  1  0
  9 10  1  0
  9  8  1  0
 10 11  1  0
 11  7  1  0
 11 12  1  1
 12 19  1  0
 13 12  2  0
 15 14  1  1
 16 15  1  0
 17 15  1  0
 18 20  1  0
 18 17  1  1
 19 18  1  0
 20 21  1  0
 22 20  2  0
M  END
$$$$
