CPL.pdb
     RDKit          3D

 22 22  0  0  1  0  0  0  0  0999 V2000
    5.9658  -19.2322   21.6775 N   0  0  0  0  0  0  0  0  0  0  0  0
    5.8249  -17.8187   21.7876 C   0  0  1  0  0  0  0  0  0  0  0  0
    4.8295  -17.5184   22.9066 C   0  0  0  0  0  0  0  0  0  0  0  0
    3.1486  -17.6902   22.2086 S   0  0  0  0  0  0  0  0  0  0  0  0
    7.0613  -17.0643   22.0099 C   0  0  0  0  0  0  0  0  0  0  0  0
    7.9087  -17.5415   22.8427 O   0  0  0  0  0  0  0  0  0  0  0  0
    7.4130  -15.8377   21.3813 N   0  0  0  0  0  0  0  0  0  0  0  0
    6.6566  -15.2435   20.2933 C   0  0  0  0  0  0  0  0  0  0  0  0
    7.5770  -14.1546   19.7858 C   0  0  0  0  0  0  0  0  0  0  0  0
    8.2612  -13.6851   21.0228 C   0  0  0  0  0  0  0  0  0  0  0  0
    8.5536  -15.0140   21.7367 C   0  0  1  0  0  0  0  0  0  0  0  0
    8.5153  -14.6447   23.1951 C   0  0  0  0  0  0  0  0  0  0  0  0
    8.2544  -13.4542   23.4820 O   0  0  0  0  0  0  0  0  0  0  0  0
    7.8174  -12.5011   26.7942 C   0  0  0  0  0  0  0  0  0  0  0  0
    6.9435  -13.3480   25.9061 C   0  0  2  0  0  0  0  0  0  0  0  0
    5.4783  -12.9820   26.0121 C   0  0  0  0  0  0  0  0  0  0  0  0
    7.2326  -14.7964   25.9511 C   0  0  0  0  0  0  0  0  0  0  0  0
    8.5940  -15.2692   25.6383 C   0  0  2  0  0  0  0  0  0  0  0  0
    8.7538  -15.5555   24.2249 N   0  0  0  0  0  0  0  0  0  0  0  0
    9.1075  -16.3725   26.4415 C   0  0  0  0  0  0  0  0  0  0  0  0
    9.5862  -17.5662   25.9248 O   0  0  0  0  0  0  0  0  0  0  0  0
    9.1354  -16.2753   27.6929 O   0  0  0  0  0  0  0  0  0  0  0  0
  2  1  1  1
  3  4  1  0
  3  2  1  0
  5  6  2  0
  5  2  1  0
  7  5  1  0
  8  7  1  0
  9 10  1  0
  9  8  1  0
 10 11  1  0
 11  7  1  0
 11 12  1  1
 12 19  1  0
 13 12  2  0
 15 14  1  1
 16 15  1  0
 17 15  1  0
 18 20  1  0
 18 17  1  6
 19 18  1  0
 20 21  1  0
 22 20  2  0
M  END
$$$$
