CPL.pdb
     RDKit          3D

 22 22  0  0  1  0  0  0  0  0999 V2000
   11.8833  -16.7786   19.4989 N   0  0  0  0  0  0  0  0  0  0  0  0
   10.5997  -17.0206   20.0680 C   0  0  1  0  0  0  0  0  0  0  0  0
   10.5895  -18.4313   20.6538 C   0  0  0  0  0  0  0  0  0  0  0  0
   11.8701  -18.4952   21.9569 S   0  0  0  0  0  0  0  0  0  0  0  0
   10.1542  -16.0608   21.0817 C   0  0  0  0  0  0  0  0  0  0  0  0
   11.0521  -15.4662   21.7743 O   0  0  0  0  0  0  0  0  0  0  0  0
    8.8033  -15.7239   21.3729 N   0  0  0  0  0  0  0  0  0  0  0  0
    7.6691  -16.2009   20.6015 C   0  0  0  0  0  0  0  0  0  0  0  0
    6.5261  -15.3434   21.0997 C   0  0  0  0  0  0  0  0  0  0  0  0
    6.8585  -15.1369   22.5369 C   0  0  0  0  0  0  0  0  0  0  0  0
    8.3715  -14.8768   22.4691 C   0  0  1  0  0  0  0  0  0  0  0  0
    8.8773  -15.4025   23.7853 C   0  0  0  0  0  0  0  0  0  0  0  0
    9.3982  -16.5411   23.7898 O   0  0  0  0  0  0  0  0  0  0  0  0
   11.6450  -14.5243   28.4288 C   0  0  0  0  0  0  0  0  0  0  0  0
   10.1966  -14.1115   28.4639 C   0  0  2  0  0  0  0  0  0  0  0  0
    9.3801  -14.9365   29.4360 C   0  0  0  0  0  0  0  0  0  0  0  0
    9.5768  -13.9105   27.1376 C   0  0  0  0  0  0  0  0  0  0  0  0
    9.4651  -15.0548   26.2141 C   0  0  2  0  0  0  0  0  0  0  0  0
    8.7929  -14.6889   24.9813 N   0  0  0  0  0  0  0  0  0  0  0  0
    8.8988  -16.2842   26.7560 C   0  0  0  0  0  0  0  0  0  0  0  0
    9.6360  -17.2931   27.3560 O   0  0  0  0  0  0  0  0  0  0  0  0
    7.6605  -16.4826   26.6952 O   0  0  0  0  0  0  0  0  0  0  0  0
  2  1  1  1
  3  4  1  0
  3  2  1  0
  5  6  2  0
  5  2  1  0
  7  5  1  0
  8  7  1  0
  9 10  1  0
  9  8  1  0
 10 11  1  0
 11  7  1  0
 11 12  1  1
 12 19  1  0
 13 12  2  0
 15 14  1  6
 16 15  1  0
 17 15  1  0
 18 20  1  0
 18 17  1  1
 19 18  1  0
 20 21  1  0
 22 20  2  0
M  END
$$$$
