CPL.pdb
     RDKit          3D

 22 22  0  0  1  0  0  0  0  0999 V2000
    5.1237  -14.1746   26.2958 N   0  0  0  0  0  0  0  0  0  0  0  0
    6.1412  -13.6683   25.4366 C   0  0  1  0  0  0  0  0  0  0  0  0
    6.9606  -12.6391   26.2129 C   0  0  0  0  0  0  0  0  0  0  0  0
    5.8575  -11.2322   26.5947 S   0  0  0  0  0  0  0  0  0  0  0  0
    7.0353  -14.6651   24.8414 C   0  0  0  0  0  0  0  0  0  0  0  0
    7.3936  -15.6547   25.5705 O   0  0  0  0  0  0  0  0  0  0  0  0
    7.5490  -14.6368   23.5152 N   0  0  0  0  0  0  0  0  0  0  0  0
    7.1104  -13.6949   22.5007 C   0  0  0  0  0  0  0  0  0  0  0  0
    7.7041  -14.2564   21.2269 C   0  0  0  0  0  0  0  0  0  0  0  0
    8.9936  -14.8449   21.6845 C   0  0  0  0  0  0  0  0  0  0  0  0
    8.5739  -15.5241   22.9975 C   0  0  1  0  0  0  0  0  0  0  0  0
    9.8183  -15.4569   23.8409 C   0  0  0  0  0  0  0  0  0  0  0  0
   10.5515  -14.4506   23.7081 O   0  0  0  0  0  0  0  0  0  0  0  0
   10.8962  -15.7920   29.0849 C   0  0  0  0  0  0  0  0  0  0  0  0
   11.0141  -14.7230   28.0300 C   0  0  2  0  0  0  0  0  0  0  0  0
   10.6661  -13.3464   28.5555 C   0  0  0  0  0  0  0  0  0  0  0  0
   10.4084  -15.0680   26.7271 C   0  0  0  0  0  0  0  0  0  0  0  0
   10.9336  -16.2203   25.9714 C   0  0  2  0  0  0  0  0  0  0  0  0
   10.1853  -16.4500   24.7497 N   0  0  0  0  0  0  0  0  0  0  0  0
   11.1007  -17.4680   26.7070 C   0  0  0  0  0  0  0  0  0  0  0  0
   10.1389  -18.4616   26.8008 O   0  0  0  0  0  0  0  0  0  0  0  0
   12.1763  -17.6981   27.3124 O   0  0  0  0  0  0  0  0  0  0  0  0
  2  1  1  1
  3  4  1  0
  3  2  1  0
  5  6  2  0
  5  2  1  0
  7  5  1  0
  8  7  1  0
  9 10  1  0
  9  8  1  0
 10 11  1  0
 11  7  1  0
 11 12  1  1
 12 19  1  0
 13 12  2  0
 15 14  1  1
 16 15  1  0
 17 15  1  0
 18 20  1  0
 18 17  1  1
 19 18  1  0
 20 21  1  0
 22 20  2  0
M  END
$$$$
