CPL.pdb
     RDKit          3D

 22 22  0  0  1  0  0  0  0  0999 V2000
    9.2281  -17.8125   18.2222 N   0  0  0  0  0  0  0  0  0  0  0  0
    8.2116  -17.3003   19.0791 C   0  0  1  0  0  0  0  0  0  0  0  0
    7.4995  -18.4783   19.7412 C   0  0  0  0  0  0  0  0  0  0  0  0
    6.2190  -17.7936   20.8518 S   0  0  0  0  0  0  0  0  0  0  0  0
    8.6525  -16.3498   20.1035 C   0  0  0  0  0  0  0  0  0  0  0  0
    9.4515  -16.7771   21.0082 O   0  0  0  0  0  0  0  0  0  0  0  0
    8.2721  -14.9818   20.1893 N   0  0  0  0  0  0  0  0  0  0  0  0
    7.4465  -14.3111   19.2007 C   0  0  0  0  0  0  0  0  0  0  0  0
    7.5848  -12.8495   19.5680 C   0  0  0  0  0  0  0  0  0  0  0  0
    7.6992  -12.8823   21.0527 C   0  0  0  0  0  0  0  0  0  0  0  0
    8.6411  -14.0781   21.2630 C   0  0  1  0  0  0  0  0  0  0  0  0
    8.2166  -14.6287   22.5977 C   0  0  0  0  0  0  0  0  0  0  0  0
    7.0398  -15.0431   22.7029 O   0  0  0  0  0  0  0  0  0  0  0  0
    5.3917  -12.7713   26.2607 C   0  0  0  0  0  0  0  0  0  0  0  0
    6.8735  -13.0372   26.3179 C   0  0  2  0  0  0  0  0  0  0  0  0
    7.6250  -11.9775   27.0954 C   0  0  0  0  0  0  0  0  0  0  0  0
    7.4850  -13.4202   25.0284 C   0  0  0  0  0  0  0  0  0  0  0  0
    8.7382  -14.1975   25.0282 C   0  0  2  0  0  0  0  0  0  0  0  0
    9.0627  -14.6968   23.7051 N   0  0  0  0  0  0  0  0  0  0  0  0
    8.8500  -15.2646   26.0155 C   0  0  0  0  0  0  0  0  0  0  0  0
    8.7614  -16.6173   25.7263 O   0  0  0  0  0  0  0  0  0  0  0  0
    9.0401  -14.9816   27.2238 O   0  0  0  0  0  0  0  0  0  0  0  0
  2  1  1  1
  3  4  1  0
  3  2  1  0
  5  6  2  0
  5  2  1  0
  7  5  1  0
  8  7  1  0
  9 10  1  0
  9  8  1  0
 10 11  1  0
 11  7  1  0
 11 12  1  1
 12 19  1  0
 13 12  2  0
 15 14  1  6
 16 15  1  0
 17 15  1  0
 18 20  1  0
 18 17  1  6
 19 18  1  0
 20 21  1  0
 22 20  2  0
M  END
$$$$
