CPL.pdb
     RDKit          3D

 22 22  0  0  1  0  0  0  0  0999 V2000
    7.4849  -18.7273   19.7609 N   0  0  0  0  0  0  0  0  0  0  0  0
    6.9845  -17.4208   20.0305 C   0  0  1  0  0  0  0  0  0  0  0  0
    5.5972  -17.5546   20.6557 C   0  0  0  0  0  0  0  0  0  0  0  0
    5.8213  -18.1469   22.3706 S   0  0  0  0  0  0  0  0  0  0  0  0
    7.8277  -16.5707   20.8752 C   0  0  0  0  0  0  0  0  0  0  0  0
    8.6049  -17.1476   21.7133 O   0  0  0  0  0  0  0  0  0  0  0  0
    7.8645  -15.1489   20.8523 N   0  0  0  0  0  0  0  0  0  0  0  0
    7.1790  -14.3406   19.8595 C   0  0  0  0  0  0  0  0  0  0  0  0
    7.7630  -12.9608   20.0730 C   0  0  0  0  0  0  0  0  0  0  0  0
    7.9980  -12.9158   21.5432 C   0  0  0  0  0  0  0  0  0  0  0  0
    8.5731  -14.3163   21.8064 C   0  0  1  0  0  0  0  0  0  0  0  0
    8.1323  -14.6179   23.2134 C   0  0  0  0  0  0  0  0  0  0  0  0
    7.0118  -15.1560   23.3639 O   0  0  0  0  0  0  0  0  0  0  0  0
    7.6125  -11.9635   26.9933 C   0  0  0  0  0  0  0  0  0  0  0  0
    6.8347  -12.7998   26.0107 C   0  0  2  0  0  0  0  0  0  0  0  0
    5.3548  -12.4807   26.0189 C   0  0  0  0  0  0  0  0  0  0  0  0
    7.1655  -14.2399   26.0238 C   0  0  0  0  0  0  0  0  0  0  0  0
    8.5403  -14.6659   25.7027 C   0  0  2  0  0  0  0  0  0  0  0  0
    8.9044  -14.3292   24.3391 N   0  0  0  0  0  0  0  0  0  0  0  0
    8.8832  -16.0532   25.9923 C   0  0  0  0  0  0  0  0  0  0  0  0
    9.4968  -16.9158   25.0976 O   0  0  0  0  0  0  0  0  0  0  0  0
    8.6214  -16.5401   27.1195 O   0  0  0  0  0  0  0  0  0  0  0  0
  2  1  1  1
  3  4  1  0
  3  2  1  0
  5  6  2  0
  5  2  1  0
  7  5  1  0
  8  7  1  0
  9 10  1  0
  9  8  1  0
 10 11  1  0
 11  7  1  0
 11 12  1  1
 12 19  1  0
 13 12  2  0
 15 14  1  1
 16 15  1  0
 17 15  1  0
 18 20  1  0
 18 17  1  6
 19 18  1  0
 20 21  1  0
 22 20  2  0
M  END
$$$$
