CPL.pdb
     RDKit          3D

 22 22  0  0  1  0  0  0  0  0999 V2000
    4.9435  -16.2360   24.4980 N   0  0  0  0  0  0  0  0  0  0  0  0
    5.9868  -15.4376   23.9466 C   0  0  1  0  0  0  0  0  0  0  0  0
    5.8843  -14.0332   24.5387 C   0  0  0  0  0  0  0  0  0  0  0  0
    6.3520  -14.1442   26.3025 S   0  0  0  0  0  0  0  0  0  0  0  0
    7.3488  -15.9494   24.1203 C   0  0  0  0  0  0  0  0  0  0  0  0
    7.5835  -16.6829   25.1432 O   0  0  0  0  0  0  0  0  0  0  0  0
    8.4475  -15.7051   23.2506 N   0  0  0  0  0  0  0  0  0  0  0  0
    8.3606  -14.8920   22.0506 C   0  0  0  0  0  0  0  0  0  0  0  0
    9.6617  -15.1880   21.3366 C   0  0  0  0  0  0  0  0  0  0  0  0
   10.6258  -15.3823   22.4552 C   0  0  0  0  0  0  0  0  0  0  0  0
    9.7920  -16.2176   23.4393 C   0  0  1  0  0  0  0  0  0  0  0  0
   10.3344  -15.8191   24.7852 C   0  0  0  0  0  0  0  0  0  0  0  0
   10.6497  -14.6182   24.9475 O   0  0  0  0  0  0  0  0  0  0  0  0
   10.8051  -13.3508   27.9465 C   0  0  0  0  0  0  0  0  0  0  0  0
    9.5684  -14.1453   27.6165 C   0  0  2  0  0  0  0  0  0  0  0  0
    8.3075  -13.5147   28.1684 C   0  0  0  0  0  0  0  0  0  0  0  0
    9.6895  -15.6013   27.8373 C   0  0  0  0  0  0  0  0  0  0  0  0
   10.8045  -16.3346   27.2098 C   0  0  2  0  0  0  0  0  0  0  0  0
   10.4989  -16.7139   25.8431 N   0  0  0  0  0  0  0  0  0  0  0  0
   11.3388  -17.4742   27.9460 C   0  0  0  0  0  0  0  0  0  0  0  0
   11.2186  -18.7960   27.5465 O   0  0  0  0  0  0  0  0  0  0  0  0
   11.9579  -17.2890   29.0224 O   0  0  0  0  0  0  0  0  0  0  0  0
  2  1  1  1
  3  4  1  0
  3  2  1  0
  5  6  2  0
  5  2  1  0
  7  5  1  0
  8  7  1  0
  9 10  1  0
  9  8  1  0
 10 11  1  0
 11  7  1  0
 11 12  1  1
 12 19  1  0
 13 12  2  0
 15 14  1  1
 16 15  1  0
 17 15  1  0
 18 20  1  0
 18 17  1  1
 19 18  1  0
 20 21  1  0
 22 20  2  0
M  END
$$$$
