CPL.pdb
     RDKit          3D

 22 22  0  0  1  0  0  0  0  0999 V2000
    7.0233  -12.8974   19.1259 N   0  0  0  0  0  0  0  0  0  0  0  0
    8.0187  -13.8145   19.5708 C   0  0  1  0  0  0  0  0  0  0  0  0
    9.3624  -13.0889   19.6064 C   0  0  0  0  0  0  0  0  0  0  0  0
   10.6247  -14.2947   20.1492 S   0  0  0  0  0  0  0  0  0  0  0  0
    7.7693  -14.4573   20.8639 C   0  0  0  0  0  0  0  0  0  0  0  0
    7.5774  -13.6999   21.8783 O   0  0  0  0  0  0  0  0  0  0  0  0
    7.7204  -15.8588   21.1016 N   0  0  0  0  0  0  0  0  0  0  0  0
    7.8638  -16.8590   20.0585 C   0  0  0  0  0  0  0  0  0  0  0  0
    7.4399  -18.1391   20.7455 C   0  0  0  0  0  0  0  0  0  0  0  0
    7.9136  -17.9462   22.1444 C   0  0  0  0  0  0  0  0  0  0  0  0
    7.5320  -16.4797   22.3996 C   0  0  1  0  0  0  0  0  0  0  0  0
    8.5765  -16.0101   23.3760 C   0  0  0  0  0  0  0  0  0  0  0  0
    9.6678  -15.6142   22.9071 O   0  0  0  0  0  0  0  0  0  0  0  0
   10.1361  -14.9333   28.6375 C   0  0  0  0  0  0  0  0  0  0  0  0
    9.5371  -13.9063   27.7123 C   0  0  2  0  0  0  0  0  0  0  0  0
    8.8872  -12.7602   28.4582 C   0  0  0  0  0  0  0  0  0  0  0  0
    8.7386  -14.4637   26.6008 C   0  0  0  0  0  0  0  0  0  0  0  0
    9.3410  -15.4831   25.7219 C   0  0  2  0  0  0  0  0  0  0  0  0
    8.3856  -15.9965   24.7581 N   0  0  0  0  0  0  0  0  0  0  0  0
   10.0444  -16.5811   26.3743 C   0  0  0  0  0  0  0  0  0  0  0  0
   11.4153  -16.6309   26.5721 O   0  0  0  0  0  0  0  0  0  0  0  0
    9.4003  -17.5704   26.8018 O   0  0  0  0  0  0  0  0  0  0  0  0
  2  1  1  1
  3  4  1  0
  3  2  1  0
  5  6  2  0
  5  2  1  0
  7  5  1  0
  8  7  1  0
  9 10  1  0
  9  8  1  0
 10 11  1  0
 11  7  1  0
 11 12  1  1
 12 19  1  0
 13 12  2  0
 15 14  1  1
 16 15  1  0
 17 15  1  0
 18 20  1  0
 18 17  1  1
 19 18  1  0
 20 21  1  0
 22 20  2  0
M  END
$$$$
