CPL.pdb
     RDKit          3D

 22 22  0  0  1  0  0  0  0  0999 V2000
    7.1240  -19.5400   22.3337 N   0  0  0  0  0  0  0  0  0  0  0  0
    6.6488  -18.2009   22.2282 C   0  0  1  0  0  0  0  0  0  0  0  0
    5.6576  -17.9497   23.3630 C   0  0  0  0  0  0  0  0  0  0  0  0
    6.4314  -18.5404   24.9103 S   0  0  0  0  0  0  0  0  0  0  0  0
    7.6731  -17.1531   22.2252 C   0  0  0  0  0  0  0  0  0  0  0  0
    8.7569  -17.3778   22.8689 O   0  0  0  0  0  0  0  0  0  0  0  0
    7.5761  -15.8954   21.5678 N   0  0  0  0  0  0  0  0  0  0  0  0
    6.3598  -15.4025   20.9460 C   0  0  0  0  0  0  0  0  0  0  0  0
    6.8388  -14.2116   20.1443 C   0  0  0  0  0  0  0  0  0  0  0  0
    7.9368  -13.6570   20.9841 C   0  0  0  0  0  0  0  0  0  0  0  0
    8.6576  -14.9373   21.4341 C   0  0  1  0  0  0  0  0  0  0  0  0
    9.2184  -14.5693   22.7813 C   0  0  0  0  0  0  0  0  0  0  0  0
    9.9155  -13.5317   22.8520 O   0  0  0  0  0  0  0  0  0  0  0  0
    5.8527  -12.5332   26.4880 C   0  0  0  0  0  0  0  0  0  0  0  0
    7.2192  -13.1669   26.5100 C   0  0  2  0  0  0  0  0  0  0  0  0
    8.2685  -12.2656   27.1254 C   0  0  0  0  0  0  0  0  0  0  0  0
    7.6188  -13.8232   25.2478 C   0  0  0  0  0  0  0  0  0  0  0  0
    8.7540  -14.7645   25.2535 C   0  0  2  0  0  0  0  0  0  0  0  0
    8.9994  -15.3211   23.9362 N   0  0  0  0  0  0  0  0  0  0  0  0
    8.7248  -15.8236   26.2551 C   0  0  0  0  0  0  0  0  0  0  0  0
    8.4180  -17.1491   25.9907 O   0  0  0  0  0  0  0  0  0  0  0  0
    8.9900  -15.5588   27.4534 O   0  0  0  0  0  0  0  0  0  0  0  0
  2  1  1  1
  3  4  1  0
  3  2  1  0
  5  6  2  0
  5  2  1  0
  7  5  1  0
  8  7  1  0
  9 10  1  0
  9  8  1  0
 10 11  1  0
 11  7  1  0
 11 12  1  1
 12 19  1  0
 13 12  2  0
 15 14  1  6
 16 15  1  0
 17 15  1  0
 18 20  1  0
 18 17  1  6
 19 18  1  0
 20 21  1  0
 22 20  2  0
M  END
$$$$
