CPL.pdb
     RDKit          3D

 22 22  0  0  1  0  0  0  0  0999 V2000
    6.2855  -14.5568   18.9668 N   0  0  0  0  0  0  0  0  0  0  0  0
    7.4794  -14.4430   19.7361 C   0  0  1  0  0  0  0  0  0  0  0  0
    7.8361  -12.9627   19.8576 C   0  0  0  0  0  0  0  0  0  0  0  0
    9.4155  -12.8505   20.7713 S   0  0  0  0  0  0  0  0  0  0  0  0
    7.4477  -15.0550   21.0671 C   0  0  0  0  0  0  0  0  0  0  0  0
    6.6984  -14.5145   21.9536 O   0  0  0  0  0  0  0  0  0  0  0  0
    8.1796  -16.2054   21.4725 N   0  0  0  0  0  0  0  0  0  0  0  0
    9.0384  -16.9687   20.5845 C   0  0  0  0  0  0  0  0  0  0  0  0
    9.3281  -18.2246   21.3778 C   0  0  0  0  0  0  0  0  0  0  0  0
    9.3725  -17.7348   22.7837 C   0  0  0  0  0  0  0  0  0  0  0  0
    8.1796  -16.7665   22.8107 C   0  0  1  0  0  0  0  0  0  0  0  0
    8.5889  -15.7336   23.8258 C   0  0  0  0  0  0  0  0  0  0  0  0
    9.5288  -14.9651   23.5200 O   0  0  0  0  0  0  0  0  0  0  0  0
    7.6709  -11.8288   25.5132 C   0  0  0  0  0  0  0  0  0  0  0  0
    6.8395  -12.9969   25.9759 C   0  0  2  0  0  0  0  0  0  0  0  0
    5.4814  -12.5748   26.4951 C   0  0  0  0  0  0  0  0  0  0  0  0
    7.5579  -13.9732   26.8211 C   0  0  0  0  0  0  0  0  0  0  0  0
    8.5425  -14.8775   26.1986 C   0  0  2  0  0  0  0  0  0  0  0  0
    7.9772  -15.5968   25.0724 N   0  0  0  0  0  0  0  0  0  0  0  0
    9.2453  -15.7957   27.0869 C   0  0  0  0  0  0  0  0  0  0  0  0
    9.1865  -17.1776   26.9973 O   0  0  0  0  0  0  0  0  0  0  0  0
    9.9650  -15.3441   28.0112 O   0  0  0  0  0  0  0  0  0  0  0  0
  2  1  1  1
  3  4  1  0
  3  2  1  0
  5  6  2  0
  5  2  1  0
  7  5  1  0
  8  7  1  0
  9 10  1  0
  9  8  1  0
 10 11  1  0
 11  7  1  0
 11 12  1  1
 12 19  1  0
 13 12  2  0
 15 14  1  1
 16 15  1  0
 17 15  1  0
 18 20  1  0
 18 17  1  1
 19 18  1  0
 20 21  1  0
 22 20  2  0
M  END
$$$$
