CPL.pdb
     RDKit          3D

 22 22  0  0  1  0  0  0  0  0999 V2000
    9.6244  -18.4457   19.5121 N   0  0  0  0  0  0  0  0  0  0  0  0
    8.6623  -17.9830   20.4556 C   0  0  1  0  0  0  0  0  0  0  0  0
    8.1085  -19.1893   21.2115 C   0  0  0  0  0  0  0  0  0  0  0  0
    6.8223  -19.9538   20.1611 S   0  0  0  0  0  0  0  0  0  0  0  0
    9.1304  -16.9740   21.4095 C   0  0  0  0  0  0  0  0  0  0  0  0
   10.2661  -17.1649   21.9691 O   0  0  0  0  0  0  0  0  0  0  0  0
    8.4344  -15.7892   21.7773 N   0  0  0  0  0  0  0  0  0  0  0  0
    7.1865  -15.3651   21.1674 C   0  0  0  0  0  0  0  0  0  0  0  0
    7.0245  -13.9442   21.6625 C   0  0  0  0  0  0  0  0  0  0  0  0
    7.6079  -13.9937   23.0321 C   0  0  0  0  0  0  0  0  0  0  0  0
    8.8596  -14.8551   22.8031 C   0  0  1  0  0  0  0  0  0  0  0  0
    9.0497  -15.5555   24.1214 C   0  0  0  0  0  0  0  0  0  0  0  0
    8.2798  -16.5069   24.3854 O   0  0  0  0  0  0  0  0  0  0  0  0
    8.7604  -12.6929   27.3311 C   0  0  0  0  0  0  0  0  0  0  0  0
    9.0418  -13.9915   28.0411 C   0  0  2  0  0  0  0  0  0  0  0  0
   10.2926  -13.9302   28.8918 C   0  0  0  0  0  0  0  0  0  0  0  0
    8.9154  -15.1988   27.1985 C   0  0  0  0  0  0  0  0  0  0  0  0
   10.0809  -15.6601   26.4217 C   0  0  2  0  0  0  0  0  0  0  0  0
   10.0301  -15.1974   25.0474 N   0  0  0  0  0  0  0  0  0  0  0  0
   10.3780  -17.0869   26.4667 C   0  0  0  0  0  0  0  0  0  0  0  0
    9.5005  -18.0866   26.0771 O   0  0  0  0  0  0  0  0  0  0  0  0
   11.4959  -17.4803   26.8812 O   0  0  0  0  0  0  0  0  0  0  0  0
  2  1  1  6
  3  4  1  0
  3  2  1  0
  5  6  2  0
  5  2  1  0
  7  5  1  0
  8  7  1  0
  9 10  1  0
  9  8  1  0
 10 11  1  0
 11  7  1  0
 11 12  1  1
 12 19  1  0
 13 12  2  0
 15 14  1  6
 16 15  1  0
 17 15  1  0
 18 20  1  0
 18 17  1  6
 19 18  1  0
 20 21  1  0
 22 20  2  0
M  END
$$$$
