CPL.pdb
     RDKit          3D

 22 22  0  0  1  0  0  0  0  0999 V2000
    6.4206  -19.4595   22.6585 N   0  0  0  0  0  0  0  0  0  0  0  0
    6.5013  -18.1922   23.3046 C   0  0  1  0  0  0  0  0  0  0  0  0
    6.4211  -18.4138   24.8139 C   0  0  0  0  0  0  0  0  0  0  0  0
    6.2724  -16.7720   25.6040 S   0  0  0  0  0  0  0  0  0  0  0  0
    7.6794  -17.3814   22.9857 C   0  0  0  0  0  0  0  0  0  0  0  0
    8.7994  -17.7304   23.4988 O   0  0  0  0  0  0  0  0  0  0  0  0
    7.6967  -16.2297   22.1510 N   0  0  0  0  0  0  0  0  0  0  0  0
    6.5847  -15.8285   21.3076 C   0  0  0  0  0  0  0  0  0  0  0  0
    7.1906  -14.7642   20.4186 C   0  0  0  0  0  0  0  0  0  0  0  0
    8.1778  -14.0973   21.3125 C   0  0  0  0  0  0  0  0  0  0  0  0
    8.8058  -15.3016   22.0312 C   0  0  1  0  0  0  0  0  0  0  0  0
    9.1891  -14.7468   23.3765 C   0  0  0  0  0  0  0  0  0  0  0  0
    9.3448  -13.5076   23.4663 O   0  0  0  0  0  0  0  0  0  0  0  0
    7.2772  -12.5365   27.7796 C   0  0  0  0  0  0  0  0  0  0  0  0
    8.4919  -13.3860   27.5100 C   0  0  2  0  0  0  0  0  0  0  0  0
    9.7694  -12.7521   28.0181 C   0  0  0  0  0  0  0  0  0  0  0  0
    8.5687  -13.9419   26.1430 C   0  0  0  0  0  0  0  0  0  0  0  0
    9.5214  -15.0317   25.8612 C   0  0  2  0  0  0  0  0  0  0  0  0
    9.3757  -15.5391   24.5098 N   0  0  0  0  0  0  0  0  0  0  0  0
    9.5616  -16.1330   26.8159 C   0  0  0  0  0  0  0  0  0  0  0  0
   10.5277  -16.2894   27.7974 O   0  0  0  0  0  0  0  0  0  0  0  0
    8.6776  -17.0239   26.7808 O   0  0  0  0  0  0  0  0  0  0  0  0
  2  1  1  6
  3  4  1  0
  3  2  1  0
  5  6  2  0
  5  2  1  0
  7  5  1  0
  8  7  1  0
  9 10  1  0
  9  8  1  0
 10 11  1  0
 11  7  1  0
 11 12  1  1
 12 19  1  0
 13 12  2  0
 15 14  1  6
 16 15  1  0
 17 15  1  0
 18 20  1  0
 18 17  1  1
 19 18  1  0
 20 21  1  0
 22 20  2  0
M  END
$$$$
