TAE.pdb
     RDKit          3D

 22 21  0  0  1  0  0  0  0  0999 V2000
   20.6044  -12.2153  -20.5883 C   0  0  0  0  0  0  0  0  0  0  0  0
   20.8600  -11.3383  -19.3633 C   0  0  1  0  0  0  0  0  0  0  0  0
   19.6689  -10.5825  -19.2264 O   0  0  0  0  0  0  0  0  0  0  0  0
   20.9993  -12.1193  -18.0991 C   0  0  2  0  0  0  0  0  0  0  0  0
   19.8276  -12.9674  -17.9864 N   0  0  0  0  0  0  0  0  0  0  0  0
   21.2123  -11.2981  -16.8910 C   0  0  0  0  0  0  0  0  0  0  0  0
   20.2205  -10.7517  -16.3452 O   0  0  0  0  0  0  0  0  0  0  0  0
   24.1143  -10.3161  -14.6283 C   0  0  0  0  0  0  0  0  0  0  0  0
   22.7332  -10.1422  -15.2291 C   0  0  2  0  0  0  0  0  0  0  0  0
   22.4768  -11.0764  -16.2901 N   0  0  0  0  0  0  0  0  0  0  0  0
   22.5540   -8.7382  -15.6347 C   0  0  0  0  0  0  0  0  0  0  0  0
   22.7147   -8.3069  -16.7965 O   0  0  0  0  0  0  0  0  0  0  0  0
   22.1709   -7.8027  -14.6375 N   0  0  0  0  0  0  0  0  0  0  0  0
   21.9363   -6.3753  -15.0367 C   0  0  1  0  0  0  0  0  0  0  0  0
   20.5882   -6.3359  -15.6348 C   0  0  0  0  0  0  0  0  0  0  0  0
   19.9417   -5.0617  -15.9654 C   0  0  0  0  0  0  0  0  0  0  0  0
   18.5311   -5.1268  -16.3735 C   0  0  0  0  0  0  0  0  0  0  0  0
   17.6608   -4.3930  -15.7915 O   0  0  0  0  0  0  0  0  0  0  0  0
   22.1638   -5.5997  -13.8156 C   0  0  0  0  0  0  0  0  0  0  0  0
   22.0965   -6.1211  -12.6438 O   0  0  0  0  0  0  0  0  0  0  0  0
   18.0775   -5.9563  -17.3806 O   0  0  0  0  0  0  0  0  0  0  0  0
   22.4729   -4.2557  -13.8189 O   0  0  0  0  0  0  0  0  0  0  0  0
  2  1  1  6
  2  4  1  0
  3  2  1  0
  4  5  1  1
  6 10  1  0
  6  4  1  0
  7  6  2  0
  9  8  1  6
  9 10  1  0
  9 11  1  0
 11 13  1  0
 12 11  2  0
 13 14  1  0
 14 15  1  1
 14 19  1  0
 15 16  1  0
 17 18  2  0
 17 16  1  0
 19 22  1  0
 20 19  2  0
 21 17  1  0
M  END
$$$$
