TAE.pdb
     RDKit          3D

 22 21  0  0  1  0  0  0  0  0999 V2000
   20.6168  -14.5495  -18.4074 C   0  0  0  0  0  0  0  0  0  0  0  0
   21.1823  -13.2707  -17.7909 C   0  0  1  0  0  0  0  0  0  0  0  0
   20.0342  -12.5556  -17.3677 O   0  0  0  0  0  0  0  0  0  0  0  0
   21.9900  -13.5178  -16.5605 C   0  0  2  0  0  0  0  0  0  0  0  0
   21.1794  -14.3264  -15.6694 N   0  0  0  0  0  0  0  0  0  0  0  0
   22.4944  -12.2964  -15.9022 C   0  0  0  0  0  0  0  0  0  0  0  0
   21.6914  -11.5817  -15.2506 O   0  0  0  0  0  0  0  0  0  0  0  0
   25.8335  -10.5317  -15.4162 C   0  0  0  0  0  0  0  0  0  0  0  0
   24.3198  -10.5956  -15.4708 C   0  0  2  0  0  0  0  0  0  0  0  0
   23.8428  -11.8626  -15.9520 N   0  0  0  0  0  0  0  0  0  0  0  0
   23.8137   -9.4511  -16.2467 C   0  0  0  0  0  0  0  0  0  0  0  0
   23.5660   -9.4752  -17.4714 O   0  0  0  0  0  0  0  0  0  0  0  0
   23.5891   -8.2296  -15.5584 N   0  0  0  0  0  0  0  0  0  0  0  0
   23.0756   -7.0488  -16.3292 C   0  0  1  0  0  0  0  0  0  0  0  0
   22.3053   -6.2381  -15.3669 C   0  0  0  0  0  0  0  0  0  0  0  0
   21.6859   -4.9704  -15.7672 C   0  0  0  0  0  0  0  0  0  0  0  0
   20.9657   -4.2312  -14.7205 C   0  0  0  0  0  0  0  0  0  0  0  0
   20.4004   -3.1180  -14.9954 O   0  0  0  0  0  0  0  0  0  0  0  0
   24.2658   -6.4446  -16.9314 C   0  0  0  0  0  0  0  0  0  0  0  0
   25.4238   -6.5017  -16.3790 O   0  0  0  0  0  0  0  0  0  0  0  0
   20.8581   -4.6834  -13.4198 O   0  0  0  0  0  0  0  0  0  0  0  0
   24.2470   -5.7732  -18.1359 O   0  0  0  0  0  0  0  0  0  0  0  0
  2  1  1  1
  2  4  1  0
  3  2  1  0
  4  5  1  1
  6 10  1  0
  6  4  1  0
  7  6  2  0
  9  8  1  6
  9 10  1  0
  9 11  1  0
 11 13  1  0
 12 11  2  0
 13 14  1  0
 14 15  1  1
 14 19  1  0
 15 16  1  0
 17 18  2  0
 17 16  1  0
 19 22  1  0
 20 19  2  0
 21 17  1  0
M  END
$$$$
