TAE.pdb
     RDKit          3D

 22 21  0  0  1  0  0  0  0  0999 V2000
   17.6460   -9.3771  -17.9437 C   0  0  0  0  0  0  0  0  0  0  0  0
   16.3142   -9.4973  -17.2041 C   0  0  1  0  0  0  0  0  0  0  0  0
   15.6393  -10.5455  -17.8783 O   0  0  0  0  0  0  0  0  0  0  0  0
   16.4653   -9.9482  -15.7894 C   0  0  2  0  0  0  0  0  0  0  0  0
   15.1329  -10.2031  -15.2749 N   0  0  0  0  0  0  0  0  0  0  0  0
   17.2285   -9.0229  -14.9287 C   0  0  0  0  0  0  0  0  0  0  0  0
   16.9815   -7.7919  -14.9912 O   0  0  0  0  0  0  0  0  0  0  0  0
   20.0297   -9.2679  -12.3513 C   0  0  0  0  0  0  0  0  0  0  0  0
   19.1424   -8.5410  -13.3427 C   0  0  2  0  0  0  0  0  0  0  0  0
   18.2381   -9.4283  -14.0203 N   0  0  0  0  0  0  0  0  0  0  0  0
   19.9833   -7.7553  -14.2611 C   0  0  0  0  0  0  0  0  0  0  0  0
   20.1187   -7.9919  -15.4807 O   0  0  0  0  0  0  0  0  0  0  0  0
   20.6937   -6.6477  -13.7275 N   0  0  0  0  0  0  0  0  0  0  0  0
   21.5153   -5.8006  -14.6546 C   0  0  1  0  0  0  0  0  0  0  0  0
   20.5705   -5.2412  -15.6400 C   0  0  0  0  0  0  0  0  0  0  0  0
   20.9712   -4.1607  -16.5470 C   0  0  0  0  0  0  0  0  0  0  0  0
   19.9387   -3.6536  -17.4620 C   0  0  0  0  0  0  0  0  0  0  0  0
   18.7844   -4.2023  -17.4933 O   0  0  0  0  0  0  0  0  0  0  0  0
   22.2243   -4.8634  -13.7809 C   0  0  0  0  0  0  0  0  0  0  0  0
   23.2910   -4.2496  -14.1476 O   0  0  0  0  0  0  0  0  0  0  0  0
   20.1473   -2.5858  -18.3130 O   0  0  0  0  0  0  0  0  0  0  0  0
   21.8078   -4.5575  -12.5022 O   0  0  0  0  0  0  0  0  0  0  0  0
  2  1  1  6
  2  4  1  0
  3  2  1  0
  4  5  1  1
  6 10  1  0
  6  4  1  0
  7  6  2  0
  9  8  1  1
  9 10  1  0
  9 11  1  0
 11 13  1  0
 12 11  2  0
 13 14  1  0
 14 15  1  6
 14 19  1  0
 15 16  1  0
 17 18  2  0
 17 16  1  0
 19 22  1  0
 20 19  2  0
 21 17  1  0
M  END
$$$$
