TAE.pdb
     RDKit          3D

 22 21  0  0  1  0  0  0  0  0999 V2000
   16.7934   -8.2589  -17.6551 C   0  0  0  0  0  0  0  0  0  0  0  0
   16.4839   -9.5180  -16.8465 C   0  0  1  0  0  0  0  0  0  0  0  0
   15.5047  -10.1913  -17.6191 O   0  0  0  0  0  0  0  0  0  0  0  0
   17.6430  -10.4528  -16.7462 C   0  0  2  0  0  0  0  0  0  0  0  0
   17.1689  -11.6564  -16.0893 N   0  0  0  0  0  0  0  0  0  0  0  0
   18.8328   -9.8856  -16.0813 C   0  0  0  0  0  0  0  0  0  0  0  0
   18.7186   -9.4334  -14.9139 O   0  0  0  0  0  0  0  0  0  0  0  0
   22.4786   -9.2203  -16.9894 C   0  0  0  0  0  0  0  0  0  0  0  0
   21.2270   -9.0646  -16.1481 C   0  0  2  0  0  0  0  0  0  0  0  0
   20.1183   -9.8122  -16.6737 N   0  0  0  0  0  0  0  0  0  0  0  0
   20.9331   -7.6321  -15.9764 C   0  0  0  0  0  0  0  0  0  0  0  0
   20.1942   -6.9619  -16.7291 O   0  0  0  0  0  0  0  0  0  0  0  0
   21.5297   -6.9589  -14.8778 N   0  0  0  0  0  0  0  0  0  0  0  0
   21.2924   -5.4859  -14.7164 C   0  0  1  0  0  0  0  0  0  0  0  0
   19.8409   -5.3281  -14.5046 C   0  0  0  0  0  0  0  0  0  0  0  0
   19.2846   -4.0871  -13.9556 C   0  0  0  0  0  0  0  0  0  0  0  0
   18.8931   -3.0560  -14.9272 C   0  0  0  0  0  0  0  0  0  0  0  0
   18.9587   -3.2984  -16.1808 O   0  0  0  0  0  0  0  0  0  0  0  0
   22.1884   -5.0757  -13.6333 C   0  0  0  0  0  0  0  0  0  0  0  0
   22.5498   -3.8554  -13.4609 O   0  0  0  0  0  0  0  0  0  0  0  0
   18.4422   -1.8047  -14.5546 O   0  0  0  0  0  0  0  0  0  0  0  0
   22.7122   -5.9558  -12.7097 O   0  0  0  0  0  0  0  0  0  0  0  0
  2  1  1  6
  2  4  1  0
  3  2  1  0
  4  5  1  1
  6 10  1  0
  6  4  1  0
  7  6  2  0
  9  8  1  6
  9 10  1  0
  9 11  1  0
 11 13  1  0
 12 11  2  0
 13 14  1  0
 14 15  1  1
 14 19  1  0
 15 16  1  0
 17 18  2  0
 17 16  1  0
 19 22  1  0
 20 19  2  0
 21 17  1  0
M  END
$$$$
