TAE.pdb
     RDKit          3D

 22 21  0  0  1  0  0  0  0  0999 V2000
   24.3081  -21.5625  -16.7836 C   0  0  0  0  0  0  0  0  0  0  0  0
   24.7593  -22.9029  -16.2050 C   0  0  1  0  0  0  0  0  0  0  0  0
   26.1203  -23.0025  -16.5877 O   0  0  0  0  0  0  0  0  0  0  0  0
   24.7481  -22.9336  -14.7129 C   0  0  2  0  0  0  0  0  0  0  0  0
   25.2730  -24.2233  -14.3056 N   0  0  0  0  0  0  0  0  0  0  0  0
   23.4344  -22.6477  -14.1032 C   0  0  0  0  0  0  0  0  0  0  0  0
   22.6214  -23.5927  -13.9409 O   0  0  0  0  0  0  0  0  0  0  0  0
   21.6022  -19.6207  -12.6823 C   0  0  0  0  0  0  0  0  0  0  0  0
   21.6939  -21.0365  -13.2169 C   0  0  2  0  0  0  0  0  0  0  0  0
   23.0146  -21.3619  -13.6795 N   0  0  0  0  0  0  0  0  0  0  0  0
   20.6537  -21.2371  -14.2395 C   0  0  0  0  0  0  0  0  0  0  0  0
   20.7874  -20.9693  -15.4528 O   0  0  0  0  0  0  0  0  0  0  0  0
   19.4070  -21.7734  -13.8222 N   0  0  0  0  0  0  0  0  0  0  0  0
   18.3412  -22.0120  -14.8514 C   0  0  1  0  0  0  0  0  0  0  0  0
   17.3165  -22.8431  -14.1914 C   0  0  0  0  0  0  0  0  0  0  0  0
   16.1580  -23.3510  -14.9335 C   0  0  0  0  0  0  0  0  0  0  0  0
   15.1453  -24.0778  -14.1544 C   0  0  0  0  0  0  0  0  0  0  0  0
   15.3000  -24.2407  -12.8958 O   0  0  0  0  0  0  0  0  0  0  0  0
   17.9482  -20.6760  -15.3043 C   0  0  0  0  0  0  0  0  0  0  0  0
   17.9391  -19.6569  -14.5228 O   0  0  0  0  0  0  0  0  0  0  0  0
   14.0012  -24.6081  -14.7180 O   0  0  0  0  0  0  0  0  0  0  0  0
   17.5628  -20.3985  -16.5990 O   0  0  0  0  0  0  0  0  0  0  0  0
  2  1  1  1
  2  4  1  0
  3  2  1  0
  4  5  1  6
  6 10  1  0
  6  4  1  0
  7  6  2  0
  9  8  1  6
  9 10  1  0
  9 11  1  0
 11 13  1  0
 12 11  2  0
 13 14  1  0
 14 15  1  1
 14 19  1  0
 15 16  1  0
 17 18  2  0
 17 16  1  0
 19 22  1  0
 20 19  2  0
 21 17  1  0
M  END
$$$$
