TAE.pdb
     RDKit          3D

 22 21  0  0  1  0  0  0  0  0999 V2000
   18.8643  -11.3392  -17.2958 C   0  0  0  0  0  0  0  0  0  0  0  0
   19.3813   -9.9522  -16.9164 C   0  0  1  0  0  0  0  0  0  0  0  0
   18.3303   -9.3911  -16.1487 O   0  0  0  0  0  0  0  0  0  0  0  0
   20.5713   -9.9935  -16.0168 C   0  0  2  0  0  0  0  0  0  0  0  0
   20.2176  -10.8137  -14.8735 N   0  0  0  0  0  0  0  0  0  0  0  0
   21.0837   -8.6683  -15.6159 C   0  0  0  0  0  0  0  0  0  0  0  0
   20.4141   -7.9773  -14.8069 O   0  0  0  0  0  0  0  0  0  0  0  0
   24.1307   -6.5017  -16.3743 C   0  0  0  0  0  0  0  0  0  0  0  0
   22.7490   -6.7710  -15.8114 C   0  0  2  0  0  0  0  0  0  0  0  0
   22.2979   -8.1074  -16.0852 N   0  0  0  0  0  0  0  0  0  0  0  0
   21.8196   -5.7341  -16.2899 C   0  0  0  0  0  0  0  0  0  0  0  0
   21.1125   -5.8307  -17.3158 O   0  0  0  0  0  0  0  0  0  0  0  0
   21.7156   -4.5361  -15.5349 N   0  0  0  0  0  0  0  0  0  0  0  0
   20.8025   -3.4500  -16.0235 C   0  0  1  0  0  0  0  0  0  0  0  0
   19.4473   -3.8261  -15.5779 C   0  0  0  0  0  0  0  0  0  0  0  0
   18.3128   -2.9117  -15.7439 C   0  0  0  0  0  0  0  0  0  0  0  0
   17.0148   -3.3750  -15.2329 C   0  0  0  0  0  0  0  0  0  0  0  0
   16.8988   -4.5542  -14.7527 O   0  0  0  0  0  0  0  0  0  0  0  0
   21.3747   -2.2099  -15.4954 C   0  0  0  0  0  0  0  0  0  0  0  0
   22.2527   -2.1988  -14.5581 O   0  0  0  0  0  0  0  0  0  0  0  0
   15.8803   -2.5870  -15.2382 O   0  0  0  0  0  0  0  0  0  0  0  0
   21.0274   -0.9583  -15.9589 O   0  0  0  0  0  0  0  0  0  0  0  0
  2  1  1  1
  2  4  1  0
  3  2  1  0
  4  5  1  1
  6 10  1  0
  6  4  1  0
  7  6  2  0
  9  8  1  6
  9 10  1  0
  9 11  1  0
 11 13  1  0
 12 11  2  0
 13 14  1  0
 14 15  1  1
 14 19  1  0
 15 16  1  0
 17 18  2  0
 17 16  1  0
 19 22  1  0
 20 19  2  0
 21 17  1  0
M  END
$$$$
