TAE.pdb
     RDKit          3D

 22 21  0  0  1  0  0  0  0  0999 V2000
   15.8973  -11.9789  -17.2817 C   0  0  0  0  0  0  0  0  0  0  0  0
   16.8119  -11.2365  -16.3083 C   0  0  1  0  0  0  0  0  0  0  0  0
   17.2307  -12.2382  -15.3972 O   0  0  0  0  0  0  0  0  0  0  0  0
   18.0557  -10.7172  -16.9491 C   0  0  2  0  0  0  0  0  0  0  0  0
   18.7081  -11.8408  -17.5946 N   0  0  0  0  0  0  0  0  0  0  0  0
   18.9621   -9.9959  -16.0340 C   0  0  0  0  0  0  0  0  0  0  0  0
   18.5422   -8.9643  -15.4510 O   0  0  0  0  0  0  0  0  0  0  0  0
   22.5911  -10.2964  -14.8957 C   0  0  0  0  0  0  0  0  0  0  0  0
   21.2131   -9.6647  -14.9228 C   0  0  2  0  0  0  0  0  0  0  0  0
   20.2962  -10.3884  -15.7594 N   0  0  0  0  0  0  0  0  0  0  0  0
   21.3378   -8.2442  -15.2897 C   0  0  0  0  0  0  0  0  0  0  0  0
   21.4529   -7.8186  -16.4590 O   0  0  0  0  0  0  0  0  0  0  0  0
   21.3271   -7.2848  -14.2431 N   0  0  0  0  0  0  0  0  0  0  0  0
   21.4329   -5.8297  -14.5945 C   0  0  1  0  0  0  0  0  0  0  0  0
   20.0641   -5.3902  -14.9258 C   0  0  0  0  0  0  0  0  0  0  0  0
   19.7319   -3.9666  -15.0440 C   0  0  0  0  0  0  0  0  0  0  0  0
   18.3172   -3.6383  -15.2707 C   0  0  0  0  0  0  0  0  0  0  0  0
   17.4563   -4.5734  -15.4091 O   0  0  0  0  0  0  0  0  0  0  0  0
   22.0883   -5.2095  -13.4411 C   0  0  0  0  0  0  0  0  0  0  0  0
   22.5747   -4.0216  -13.4796 O   0  0  0  0  0  0  0  0  0  0  0  0
   17.8487   -2.3409  -15.3419 O   0  0  0  0  0  0  0  0  0  0  0  0
   22.2331   -5.8401  -12.2232 O   0  0  0  0  0  0  0  0  0  0  0  0
  2  1  1  6
  2  4  1  0
  3  2  1  0
  4  5  1  1
  6 10  1  0
  6  4  1  0
  7  6  2  0
  9  8  1  6
  9 10  1  0
  9 11  1  0
 11 13  1  0
 12 11  2  0
 13 14  1  0
 14 15  1  1
 14 19  1  0
 15 16  1  0
 17 18  2  0
 17 16  1  0
 19 22  1  0
 20 19  2  0
 21 17  1  0
M  END
$$$$
