TAE.pdb
     RDKit          3D

 22 21  0  0  1  0  0  0  0  0999 V2000
   17.7661   -6.5865  -16.2028 C   0  0  0  0  0  0  0  0  0  0  0  0
   16.9181   -7.4823  -15.3009 C   0  0  1  0  0  0  0  0  0  0  0  0
   15.6798   -7.5842  -15.9829 O   0  0  0  0  0  0  0  0  0  0  0  0
   17.4439   -8.8748  -15.1923 C   0  0  2  0  0  0  0  0  0  0  0  0
   16.4307   -9.6656  -14.5192 N   0  0  0  0  0  0  0  0  0  0  0  0
   18.7628   -8.9834  -14.5380 C   0  0  0  0  0  0  0  0  0  0  0  0
   18.8323   -8.8670  -13.2882 O   0  0  0  0  0  0  0  0  0  0  0  0
   22.2377  -10.1607  -15.3782 C   0  0  0  0  0  0  0  0  0  0  0  0
   21.2774   -9.2690  -14.6157 C   0  0  2  0  0  0  0  0  0  0  0  0
   19.9790   -9.2134  -15.2285 N   0  0  0  0  0  0  0  0  0  0  0  0
   21.8900   -7.9431  -14.4301 C   0  0  0  0  0  0  0  0  0  0  0  0
   22.9967   -7.7402  -13.8862 O   0  0  0  0  0  0  0  0  0  0  0  0
   21.1760   -6.8099  -14.9015 N   0  0  0  0  0  0  0  0  0  0  0  0
   21.8194   -5.4576  -14.8044 C   0  0  1  0  0  0  0  0  0  0  0  0
   21.1406   -4.6109  -15.8038 C   0  0  0  0  0  0  0  0  0  0  0  0
   21.3679   -3.1628  -15.8515 C   0  0  0  0  0  0  0  0  0  0  0  0
   20.5849   -2.4067  -16.8393 C   0  0  0  0  0  0  0  0  0  0  0  0
   20.2238   -1.2063  -16.5882 O   0  0  0  0  0  0  0  0  0  0  0  0
   21.6959   -5.0813  -13.3945 C   0  0  0  0  0  0  0  0  0  0  0  0
   20.7886   -5.5680  -12.6269 O   0  0  0  0  0  0  0  0  0  0  0  0
   20.2078   -2.9312  -18.0602 O   0  0  0  0  0  0  0  0  0  0  0  0
   22.5395   -4.1842  -12.7738 O   0  0  0  0  0  0  0  0  0  0  0  0
  2  1  1  6
  2  4  1  0
  3  2  1  0
  4  5  1  1
  6 10  1  0
  6  4  1  0
  7  6  2  0
  9  8  1  6
  9 10  1  0
  9 11  1  0
 11 13  1  0
 12 11  2  0
 13 14  1  0
 14 15  1  6
 14 19  1  0
 15 16  1  0
 17 18  2  0
 17 16  1  0
 19 22  1  0
 20 19  2  0
 21 17  1  0
M  END
$$$$
