TAE.pdb
     RDKit          3D

 22 21  0  0  1  0  0  0  0  0999 V2000
   17.6957  -11.9913  -18.9669 C   0  0  0  0  0  0  0  0  0  0  0  0
   18.5649  -11.1218  -18.0595 C   0  0  1  0  0  0  0  0  0  0  0  0
   17.7294  -10.0254  -17.7299 O   0  0  0  0  0  0  0  0  0  0  0  0
   18.9082  -11.7811  -16.7653 C   0  0  2  0  0  0  0  0  0  0  0  0
   17.6716  -12.2860  -16.1989 N   0  0  0  0  0  0  0  0  0  0  0  0
   19.6476  -10.9243  -15.8174 C   0  0  0  0  0  0  0  0  0  0  0  0
   18.9993  -10.1965  -15.0235 O   0  0  0  0  0  0  0  0  0  0  0  0
   23.2786  -10.2710  -14.8659 C   0  0  0  0  0  0  0  0  0  0  0  0
   21.7991   -9.9433  -14.9122 C   0  0  2  0  0  0  0  0  0  0  0  0
   21.0611  -10.8610  -15.7353 N   0  0  0  0  0  0  0  0  0  0  0  0
   21.6261   -8.5364  -15.3108 C   0  0  0  0  0  0  0  0  0  0  0  0
   21.3369   -8.1541  -16.4649 O   0  0  0  0  0  0  0  0  0  0  0  0
   21.7992   -7.5384  -14.3158 N   0  0  0  0  0  0  0  0  0  0  0  0
   21.6488   -6.0965  -14.7037 C   0  0  1  0  0  0  0  0  0  0  0  0
   20.2447   -5.9327  -15.1261 C   0  0  0  0  0  0  0  0  0  0  0  0
   19.6652   -4.6016  -15.3343 C   0  0  0  0  0  0  0  0  0  0  0  0
   18.2117   -4.5431  -15.5449 C   0  0  0  0  0  0  0  0  0  0  0  0
   17.5251   -5.6211  -15.5802 O   0  0  0  0  0  0  0  0  0  0  0  0
   22.1016   -5.3417  -13.5334 C   0  0  0  0  0  0  0  0  0  0  0  0
   22.1851   -5.8655  -12.3638 O   0  0  0  0  0  0  0  0  0  0  0  0
   17.5231   -3.3570  -15.7087 O   0  0  0  0  0  0  0  0  0  0  0  0
   22.4797   -4.0165  -13.5871 O   0  0  0  0  0  0  0  0  0  0  0  0
  2  1  1  6
  2  4  1  0
  3  2  1  0
  4  5  1  1
  6 10  1  0
  6  4  1  0
  7  6  2  0
  9  8  1  6
  9 10  1  0
  9 11  1  0
 11 13  1  0
 12 11  2  0
 13 14  1  0
 14 15  1  1
 14 19  1  0
 15 16  1  0
 17 18  2  0
 17 16  1  0
 19 22  1  0
 20 19  2  0
 21 17  1  0
M  END
$$$$
