TAE.pdb
     RDKit          3D

 22 21  0  0  1  0  0  0  0  0999 V2000
   16.4969  -11.9371  -18.4010 C   0  0  0  0  0  0  0  0  0  0  0  0
   17.2660  -11.3357  -17.2255 C   0  0  1  0  0  0  0  0  0  0  0  0
   17.8358  -12.4592  -16.5760 O   0  0  0  0  0  0  0  0  0  0  0  0
   18.4129  -10.4797  -17.6489 C   0  0  2  0  0  0  0  0  0  0  0  0
   19.2469  -11.2809  -18.5250 N   0  0  0  0  0  0  0  0  0  0  0  0
   19.1803   -9.8876  -16.5354 C   0  0  0  0  0  0  0  0  0  0  0  0
   18.5950   -9.1093  -15.7404 O   0  0  0  0  0  0  0  0  0  0  0  0
   22.7537  -10.0351  -15.2091 C   0  0  0  0  0  0  0  0  0  0  0  0
   21.3526   -9.4639  -15.3055 C   0  0  2  0  0  0  0  0  0  0  0  0
   20.5543  -10.1368  -16.2926 N   0  0  0  0  0  0  0  0  0  0  0  0
   21.4355   -8.0092  -15.5179 C   0  0  0  0  0  0  0  0  0  0  0  0
   21.5446   -7.4580  -16.6341 O   0  0  0  0  0  0  0  0  0  0  0  0
   21.3883   -7.1677  -14.3752 N   0  0  0  0  0  0  0  0  0  0  0  0
   21.4765   -5.6819  -14.5669 C   0  0  1  0  0  0  0  0  0  0  0  0
   20.0906   -5.2128  -14.7562 C   0  0  0  0  0  0  0  0  0  0  0  0
   19.7711   -3.7817  -14.7846 C   0  0  0  0  0  0  0  0  0  0  0  0
   18.3582   -3.4274  -14.9813 C   0  0  0  0  0  0  0  0  0  0  0  0
   18.0203   -2.6436  -15.9332 O   0  0  0  0  0  0  0  0  0  0  0  0
   22.2083   -5.1931  -13.3965 C   0  0  0  0  0  0  0  0  0  0  0  0
   22.7687   -4.0380  -13.3654 O   0  0  0  0  0  0  0  0  0  0  0  0
   17.3437   -3.9080  -14.1764 O   0  0  0  0  0  0  0  0  0  0  0  0
   22.3527   -5.9225  -12.2350 O   0  0  0  0  0  0  0  0  0  0  0  0
  2  1  1  6
  2  4  1  0
  3  2  1  0
  4  5  1  1
  6 10  1  0
  6  4  1  0
  7  6  2  0
  9  8  1  6
  9 10  1  0
  9 11  1  0
 11 13  1  0
 12 11  2  0
 13 14  1  0
 14 15  1  1
 14 19  1  0
 15 16  1  0
 17 18  2  0
 17 16  1  0
 19 22  1  0
 20 19  2  0
 21 17  1  0
M  END
$$$$
