TAE.pdb
     RDKit          3D

 22 21  0  0  1  0  0  0  0  0999 V2000
   24.3597  -13.6432  -15.3737 C   0  0  0  0  0  0  0  0  0  0  0  0
   23.8394  -12.2090  -15.4594 C   0  0  1  0  0  0  0  0  0  0  0  0
   24.8191  -11.5327  -16.2285 O   0  0  0  0  0  0  0  0  0  0  0  0
   22.5628  -12.0907  -16.2233 C   0  0  2  0  0  0  0  0  0  0  0  0
   22.8015  -12.6357  -17.5465 N   0  0  0  0  0  0  0  0  0  0  0  0
   22.0027  -10.7257  -16.2746 C   0  0  0  0  0  0  0  0  0  0  0  0
   22.4257   -9.9280  -17.1492 O   0  0  0  0  0  0  0  0  0  0  0  0
   19.1241   -8.8155  -14.7176 C   0  0  0  0  0  0  0  0  0  0  0  0
   20.4715   -8.9055  -15.4067 C   0  0  2  0  0  0  0  0  0  0  0  0
   21.0045  -10.2397  -15.3935 N   0  0  0  0  0  0  0  0  0  0  0  0
   21.3836   -7.9092  -14.8207 C   0  0  0  0  0  0  0  0  0  0  0  0
   22.2319   -8.1542  -13.9363 O   0  0  0  0  0  0  0  0  0  0  0  0
   21.2971   -6.5722  -15.2909 N   0  0  0  0  0  0  0  0  0  0  0  0
   22.2537   -5.5512  -14.7480 C   0  0  1  0  0  0  0  0  0  0  0  0
   22.3763   -4.5137  -15.7897 C   0  0  0  0  0  0  0  0  0  0  0  0
   23.1707   -3.3018  -15.5637 C   0  0  0  0  0  0  0  0  0  0  0  0
   23.1682   -2.3035  -16.6427 C   0  0  0  0  0  0  0  0  0  0  0  0
   22.5317   -2.5335  -17.7274 O   0  0  0  0  0  0  0  0  0  0  0  0
   21.6907   -5.1567  -13.4550 C   0  0  0  0  0  0  0  0  0  0  0  0
   20.4272   -5.1503  -13.2250 O   0  0  0  0  0  0  0  0  0  0  0  0
   23.8299   -1.0946  -16.5497 O   0  0  0  0  0  0  0  0  0  0  0  0
   22.4625   -4.7669  -12.3805 O   0  0  0  0  0  0  0  0  0  0  0  0
  2  1  1  6
  2  4  1  0
  3  2  1  0
  4  5  1  6
  6 10  1  0
  6  4  1  0
  7  6  2  0
  9  8  1  1
  9 10  1  0
  9 11  1  0
 11 13  1  0
 12 11  2  0
 13 14  1  0
 14 15  1  6
 14 19  1  0
 15 16  1  0
 17 18  2  0
 17 16  1  0
 19 22  1  0
 20 19  2  0
 21 17  1  0
M  END
$$$$
