LHR.pdb
     RDKit          3D

 30 30  0  0  1  0  0  0  0  0999 V2000
   22.5070  -30.2715  -17.8956 C   0  0  0  0  0  0  0  0  0  0  0  0
   23.2525  -29.5361  -18.9957 C   0  0  1  0  0  0  0  0  0  0  0  0
   22.2338  -29.1848  -20.0710 C   0  0  0  0  0  0  0  0  0  0  0  0
   23.8575  -28.2922  -18.4296 C   0  0  0  0  0  0  0  0  0  0  0  0
   24.9885  -28.5621  -17.4492 C   0  0  2  0  0  0  0  0  0  0  0  0
   24.4445  -28.1660  -16.1368 N   0  0  0  0  0  0  0  0  0  0  0  0
   26.1526  -27.6956  -17.7560 C   0  0  0  0  0  0  0  0  0  0  0  0
   26.7344  -27.8362  -18.8746 O   0  0  0  0  0  0  0  0  0  0  0  0
   26.6150  -26.7123  -16.8023 N   0  0  0  0  0  0  0  0  0  0  0  0
   27.7240  -25.8974  -17.1583 C   0  0  1  0  0  0  0  0  0  0  0  0
   27.4233  -24.4498  -16.9593 C   0  0  0  0  0  0  0  0  0  0  0  0
   26.6030  -23.8461  -18.0162 C   0  0  0  0  0  0  0  0  0  0  0  0
   26.0511  -24.3271  -19.1694 C   0  0  0  0  0  0  0  0  0  0  0  0
   25.3343  -23.3619  -19.8185 N   0  0  0  0  0  0  0  0  0  0  0  0
   25.4403  -22.2744  -19.0645 C   0  0  0  0  0  0  0  0  0  0  0  0
   26.1879  -22.5292  -17.9861 N   0  0  0  0  0  0  0  0  0  0  0  0
   28.9898  -26.2440  -16.4552 C   0  0  0  0  0  0  0  0  0  0  0  0
   28.9289  -26.6884  -15.2772 O   0  0  0  0  0  0  0  0  0  0  0  0
   37.2016  -28.7610  -19.1710 N   0  0  0  0  0  0  0  0  0  0  0  0
   37.2014  -28.7898  -17.7479 C   0  0  0  0  0  0  0  0  0  0  0  0
   38.2182  -29.2429  -17.1393 N   0  0  0  0  0  0  0  0  0  0  0  0
   36.0871  -28.3228  -16.9842 N   0  0  0  0  0  0  0  0  0  0  0  0
   34.8976  -27.8452  -17.6496 C   0  0  0  0  0  0  0  0  0  0  0  0
   33.8568  -27.3400  -16.7165 C   0  0  0  0  0  0  0  0  0  0  0  0
   32.5437  -26.9334  -17.2940 C   0  0  0  0  0  0  0  0  0  0  0  0
   31.5182  -26.4287  -16.3432 C   0  0  2  0  0  0  0  0  0  0  0  0
   30.2715  -26.0999  -17.0400 N   0  0  0  0  0  0  0  0  0  0  0  0
   31.9134  -25.3680  -15.4257 C   0  0  0  0  0  0  0  0  0  0  0  0
   31.7179  -24.1554  -15.7970 O   0  0  0  0  0  0  0  0  0  0  0  0
   32.4810  -25.5020  -14.1792 O   0  0  0  0  0  0  0  0  0  0  0  0
  2  1  1  1
  2  3  1  0
  4  2  1  0
  5  4  1  0
  5  6  1  1
  7  8  2  0
  7  5  1  0
  9  7  1  0
 10  9  1  0
 11 12  1  0
 10 11  1  1
 12 16  1  0
 13 12  2  0
 13 14  1  0
 14 15  1  0
 16 15  2  0
 17 10  1  0
 18 17  2  0
 19 20  1  0
 20 22  1  0
 21 20  2  0
 22 23  1  0
 23 24  1  0
 24 25  1  0
 26 25  1  6
 26 28  1  0
 26 27  1  0
 27 17  1  0
 28 30  1  0
 29 28  2  0
M  END
$$$$
