LHR.pdb
     RDKit          3D

 30 30  0  0  1  0  0  0  0  0999 V2000
   31.0873  -25.2420  -16.4065 C   0  0  0  0  0  0  0  0  0  0  0  0
   30.0830  -24.7771  -17.4466 C   0  0  1  0  0  0  0  0  0  0  0  0
   29.2504  -25.9893  -17.8401 C   0  0  0  0  0  0  0  0  0  0  0  0
   29.2104  -23.7222  -16.8470 C   0  0  0  0  0  0  0  0  0  0  0  0
   28.2292  -23.1144  -17.8374 C   0  0  2  0  0  0  0  0  0  0  0  0
   29.0792  -22.4276  -18.8279 N   0  0  0  0  0  0  0  0  0  0  0  0
   27.3802  -22.1015  -17.1643 C   0  0  0  0  0  0  0  0  0  0  0  0
   27.3627  -22.0718  -15.8960 O   0  0  0  0  0  0  0  0  0  0  0  0
   26.5897  -21.1680  -17.9350 N   0  0  0  0  0  0  0  0  0  0  0  0
   25.7074  -20.2970  -17.2397 C   0  0  1  0  0  0  0  0  0  0  0  0
   25.8470  -18.8888  -17.7116 C   0  0  0  0  0  0  0  0  0  0  0  0
   27.1898  -18.3199  -17.5457 C   0  0  0  0  0  0  0  0  0  0  0  0
   28.3586  -18.8019  -17.0285 C   0  0  0  0  0  0  0  0  0  0  0  0
   29.3628  -17.8806  -17.1247 N   0  0  0  0  0  0  0  0  0  0  0  0
   28.8159  -16.8195  -17.7057 C   0  0  0  0  0  0  0  0  0  0  0  0
   27.5255  -17.0488  -17.9685 N   0  0  0  0  0  0  0  0  0  0  0  0
   24.2756  -20.7015  -17.2972 C   0  0  0  0  0  0  0  0  0  0  0  0
   23.7851  -21.0456  -18.4063 O   0  0  0  0  0  0  0  0  0  0  0  0
   22.4827  -20.8045  -10.4801 N   0  0  0  0  0  0  0  0  0  0  0  0
   21.1698  -20.2611  -10.5658 C   0  0  0  0  0  0  0  0  0  0  0  0
   20.8064  -19.3881   -9.7201 N   0  0  0  0  0  0  0  0  0  0  0  0
   20.2483  -20.6718  -11.5783 N   0  0  0  0  0  0  0  0  0  0  0  0
   20.6629  -21.5945  -12.6091 C   0  0  0  0  0  0  0  0  0  0  0  0
   21.1280  -20.9265  -13.8527 C   0  0  0  0  0  0  0  0  0  0  0  0
   21.5925  -21.7918  -14.9745 C   0  0  0  0  0  0  0  0  0  0  0  0
   22.0114  -21.1049  -16.2248 C   0  0  2  0  0  0  0  0  0  0  0  0
   23.4244  -20.7206  -16.1655 N   0  0  0  0  0  0  0  0  0  0  0  0
   21.1790  -20.0089  -16.7033 C   0  0  0  0  0  0  0  0  0  0  0  0
   21.5671  -18.8120  -16.4515 O   0  0  0  0  0  0  0  0  0  0  0  0
   20.0019  -20.0935  -17.4111 O   0  0  0  0  0  0  0  0  0  0  0  0
  2  1  1  1
  2  3  1  0
  4  2  1  0
  5  4  1  0
  5  6  1  6
  7  8  2  0
  7  5  1  0
  9  7  1  0
 10  9  1  0
 11 12  1  0
 10 11  1  6
 12 16  1  0
 13 12  2  0
 13 14  1  0
 14 15  1  0
 16 15  2  0
 17 10  1  0
 18 17  2  0
 19 20  1  0
 20 22  1  0
 21 20  2  0
 22 23  1  0
 23 24  1  0
 24 25  1  0
 26 25  1  1
 26 28  1  0
 26 27  1  0
 27 17  1  0
 28 30  1  0
 29 28  2  0
M  END
$$$$
