LHR.pdb
     RDKit          3D

 30 30  0  0  1  0  0  0  0  0999 V2000
   35.3903  -23.6112  -16.1482 C   0  0  0  0  0  0  0  0  0  0  0  0
   34.9899  -24.8059  -16.9961 C   0  0  1  0  0  0  0  0  0  0  0  0
   36.1579  -25.7821  -16.9765 C   0  0  0  0  0  0  0  0  0  0  0  0
   33.7741  -25.4413  -16.4030 C   0  0  0  0  0  0  0  0  0  0  0  0
   33.3312  -26.6989  -17.1348 C   0  0  2  0  0  0  0  0  0  0  0  0
   33.1056  -26.2595  -18.5245 N   0  0  0  0  0  0  0  0  0  0  0  0
   32.0449  -27.1891  -16.5824 C   0  0  0  0  0  0  0  0  0  0  0  0
   32.0155  -27.5892  -15.3788 O   0  0  0  0  0  0  0  0  0  0  0  0
   30.8503  -27.2111  -17.3965 N   0  0  0  0  0  0  0  0  0  0  0  0
   29.6379  -27.6558  -16.8025 C   0  0  1  0  0  0  0  0  0  0  0  0
   28.4835  -26.8070  -17.2178 C   0  0  0  0  0  0  0  0  0  0  0  0
   28.5725  -25.4052  -16.7919 C   0  0  0  0  0  0  0  0  0  0  0  0
   29.4626  -24.7099  -16.0237 C   0  0  0  0  0  0  0  0  0  0  0  0
   29.1207  -23.3899  -15.9374 N   0  0  0  0  0  0  0  0  0  0  0  0
   28.0120  -23.2631  -16.6565 C   0  0  0  0  0  0  0  0  0  0  0  0
   27.6602  -24.4428  -17.1776 N   0  0  0  0  0  0  0  0  0  0  0  0
   29.3198  -29.0878  -17.0575 C   0  0  0  0  0  0  0  0  0  0  0  0
   29.6619  -29.6001  -18.1573 O   0  0  0  0  0  0  0  0  0  0  0  0
   24.2975  -34.7035  -15.4512 N   0  0  0  0  0  0  0  0  0  0  0  0
   25.1903  -35.7344  -15.0431 C   0  0  0  0  0  0  0  0  0  0  0  0
   24.8984  -36.9418  -15.3008 N   0  0  0  0  0  0  0  0  0  0  0  0
   26.4071  -35.4476  -14.3502 N   0  0  0  0  0  0  0  0  0  0  0  0
   26.8038  -34.0796  -14.1114 C   0  0  0  0  0  0  0  0  0  0  0  0
   27.3942  -33.4155  -15.3028 C   0  0  0  0  0  0  0  0  0  0  0  0
   27.8192  -31.9929  -15.1663 C   0  0  0  0  0  0  0  0  0  0  0  0
   28.2707  -31.3041  -16.4042 C   0  0  2  0  0  0  0  0  0  0  0  0
   28.6466  -29.9152  -16.1259 N   0  0  0  0  0  0  0  0  0  0  0  0
   27.4154  -31.4011  -17.5799 C   0  0  0  0  0  0  0  0  0  0  0  0
   26.4795  -30.5328  -17.7091 O   0  0  0  0  0  0  0  0  0  0  0  0
   27.4852  -32.3253  -18.5971 O   0  0  0  0  0  0  0  0  0  0  0  0
  2  1  1  1
  2  3  1  0
  4  2  1  0
  5  4  1  0
  5  6  1  6
  7  8  2  0
  7  5  1  0
  9  7  1  0
 10  9  1  0
 11 12  1  0
 10 11  1  6
 12 16  1  0
 13 12  2  0
 13 14  1  0
 14 15  1  0
 16 15  2  0
 17 10  1  0
 18 17  2  0
 19 20  1  0
 20 22  1  0
 21 20  2  0
 22 23  1  0
 23 24  1  0
 24 25  1  0
 26 25  1  1
 26 28  1  0
 26 27  1  0
 27 17  1  0
 28 30  1  0
 29 28  2  0
M  END
$$$$
