LHR.pdb
     RDKit          3D

 30 30  0  0  1  0  0  0  0  0999 V2000
   27.4098  -13.8497  -19.7932 C   0  0  0  0  0  0  0  0  0  0  0  0
   27.6723  -15.1359  -19.0294 C   0  0  1  0  0  0  0  0  0  0  0  0
   28.8246  -14.8628  -18.0727 C   0  0  0  0  0  0  0  0  0  0  0  0
   26.4435  -15.5110  -18.2659 C   0  0  0  0  0  0  0  0  0  0  0  0
   26.5762  -16.8274  -17.5158 C   0  0  2  0  0  0  0  0  0  0  0  0
   27.8312  -17.4165  -18.0191 N   0  0  0  0  0  0  0  0  0  0  0  0
   25.4571  -17.7350  -17.8680 C   0  0  0  0  0  0  0  0  0  0  0  0
   24.2779  -17.3967  -17.5443 O   0  0  0  0  0  0  0  0  0  0  0  0
   25.7031  -18.9777  -18.5647 N   0  0  0  0  0  0  0  0  0  0  0  0
   24.5990  -19.8339  -18.8263 C   0  0  1  0  0  0  0  0  0  0  0  0
   24.9362  -20.8599  -19.8554 C   0  0  0  0  0  0  0  0  0  0  0  0
   25.0502  -20.3383  -21.2226 C   0  0  0  0  0  0  0  0  0  0  0  0
   24.8075  -19.1185  -21.7876 C   0  0  0  0  0  0  0  0  0  0  0  0
   25.0966  -19.1222  -23.1229 N   0  0  0  0  0  0  0  0  0  0  0  0
   25.5222  -20.3510  -23.3901 C   0  0  0  0  0  0  0  0  0  0  0  0
   25.5064  -21.0981  -22.2817 N   0  0  0  0  0  0  0  0  0  0  0  0
   24.0439  -20.5044  -17.6184 C   0  0  0  0  0  0  0  0  0  0  0  0
   24.8245  -20.7980  -16.6732 O   0  0  0  0  0  0  0  0  0  0  0  0
   18.3369  -18.8876  -12.0950 N   0  0  0  0  0  0  0  0  0  0  0  0
   19.5110  -19.1498  -11.3341 C   0  0  0  0  0  0  0  0  0  0  0  0
   19.5632  -18.7640  -10.1267 N   0  0  0  0  0  0  0  0  0  0  0  0
   20.6339  -19.8357  -11.8923 N   0  0  0  0  0  0  0  0  0  0  0  0
   20.6615  -20.1628  -13.2987 C   0  0  0  0  0  0  0  0  0  0  0  0
   21.9311  -20.8001  -13.7359 C   0  0  0  0  0  0  0  0  0  0  0  0
   22.4659  -20.4346  -15.0788 C   0  0  0  0  0  0  0  0  0  0  0  0
   22.0930  -21.3186  -16.2146 C   0  0  2  0  0  0  0  0  0  0  0  0
   22.6750  -20.8357  -17.4699 N   0  0  0  0  0  0  0  0  0  0  0  0
   20.6841  -21.6546  -16.3731 C   0  0  0  0  0  0  0  0  0  0  0  0
   20.0051  -20.9860  -17.2324 O   0  0  0  0  0  0  0  0  0  0  0  0
   19.9699  -22.6230  -15.7054 O   0  0  0  0  0  0  0  0  0  0  0  0
  2  1  1  1
  2  3  1  0
  4  2  1  0
  5  4  1  0
  5  6  1  6
  7  8  2  0
  7  5  1  0
  9  7  1  0
 10  9  1  0
 11 12  1  0
 10 11  1  6
 12 16  1  0
 13 12  2  0
 13 14  1  0
 14 15  1  0
 16 15  2  0
 17 10  1  0
 18 17  2  0
 19 20  1  0
 20 22  1  0
 21 20  2  0
 22 23  1  0
 23 24  1  0
 24 25  1  0
 26 25  1  1
 26 28  1  0
 26 27  1  0
 27 17  1  0
 28 30  1  0
 29 28  2  0
M  END
$$$$
