LHR.pdb
     RDKit          3D

 30 30  0  0  1  0  0  0  0  0999 V2000
   25.1407  -32.0255  -15.7900 C   0  0  0  0  0  0  0  0  0  0  0  0
   26.0988  -32.9521  -15.0620 C   0  0  1  0  0  0  0  0  0  0  0  0
   27.4207  -32.2103  -14.9210 C   0  0  0  0  0  0  0  0  0  0  0  0
   25.5392  -33.2735  -13.7140 C   0  0  0  0  0  0  0  0  0  0  0  0
   26.4692  -34.1213  -12.8598 C   0  0  2  0  0  0  0  0  0  0  0  0
   26.5092  -35.4291  -13.5406 N   0  0  0  0  0  0  0  0  0  0  0  0
   25.8923  -34.3135  -11.5069 C   0  0  0  0  0  0  0  0  0  0  0  0
   24.8957  -35.0880  -11.3777 O   0  0  0  0  0  0  0  0  0  0  0  0
   26.4523  -33.6342  -10.3601 N   0  0  0  0  0  0  0  0  0  0  0  0
   25.9556  -33.9672   -9.0705 C   0  0  1  0  0  0  0  0  0  0  0  0
   27.0478  -33.9905   -8.0547 C   0  0  0  0  0  0  0  0  0  0  0  0
   27.8416  -35.2250   -8.0404 C   0  0  0  0  0  0  0  0  0  0  0  0
   27.7770  -36.3934   -8.7450 C   0  0  0  0  0  0  0  0  0  0  0  0
   28.7769  -37.2502   -8.3807 N   0  0  0  0  0  0  0  0  0  0  0  0
   29.4680  -36.6110   -7.4446 C   0  0  0  0  0  0  0  0  0  0  0  0
   28.9376  -35.4048   -7.2196 N   0  0  0  0  0  0  0  0  0  0  0  0
   24.8513  -33.0897   -8.5939 C   0  0  0  0  0  0  0  0  0  0  0  0
   25.0857  -31.8656   -8.4052 O   0  0  0  0  0  0  0  0  0  0  0  0
   16.8522  -32.5329   -7.9805 N   0  0  0  0  0  0  0  0  0  0  0  0
   16.9296  -31.2576   -8.6081 C   0  0  0  0  0  0  0  0  0  0  0  0
   16.0032  -30.4141   -8.4088 N   0  0  0  0  0  0  0  0  0  0  0  0
   18.0222  -30.9000   -9.4574 N   0  0  0  0  0  0  0  0  0  0  0  0
   19.0718  -31.8530   -9.7334 C   0  0  0  0  0  0  0  0  0  0  0  0
   20.1513  -31.8606   -8.7117 C   0  0  0  0  0  0  0  0  0  0  0  0
   21.3405  -32.7240   -8.9635 C   0  0  0  0  0  0  0  0  0  0  0  0
   22.4304  -32.6787   -7.9534 C   0  0  2  0  0  0  0  0  0  0  0  0
   23.5394  -33.5569   -8.3365 N   0  0  0  0  0  0  0  0  0  0  0  0
   22.0623  -32.8615   -6.5555 C   0  0  0  0  0  0  0  0  0  0  0  0
   21.3048  -31.9761   -6.0181 O   0  0  0  0  0  0  0  0  0  0  0  0
   22.4288  -33.8888   -5.7164 O   0  0  0  0  0  0  0  0  0  0  0  0
  2  1  1  1
  2  3  1  0
  4  2  1  0
  5  4  1  0
  5  6  1  6
  7  8  2  0
  7  5  1  0
  9  7  1  0
 10  9  1  0
 11 12  1  0
 10 11  1  1
 12 16  1  0
 13 12  2  0
 13 14  1  0
 14 15  1  0
 16 15  2  0
 17 10  1  0
 18 17  2  0
 19 20  1  0
 20 22  1  0
 21 20  2  0
 22 23  1  0
 23 24  1  0
 24 25  1  0
 26 25  1  6
 26 28  1  0
 26 27  1  0
 27 17  1  0
 28 30  1  0
 29 28  2  0
M  END
$$$$
