LHR.pdb
     RDKit          3D

 30 30  0  0  1  0  0  0  0  0999 V2000
   27.4328  -19.7825   -5.2862 C   0  0  0  0  0  0  0  0  0  0  0  0
   27.3083  -19.2292   -6.6951 C   0  0  1  0  0  0  0  0  0  0  0  0
   28.6359  -18.5670   -7.0364 C   0  0  0  0  0  0  0  0  0  0  0  0
   27.0328  -20.3540   -7.6399 C   0  0  0  0  0  0  0  0  0  0  0  0
   26.9135  -19.9103   -9.0897 C   0  0  2  0  0  0  0  0  0  0  0  0
   26.6987  -18.4530   -9.0153 N   0  0  0  0  0  0  0  0  0  0  0  0
   25.7221  -20.5290   -9.7204 C   0  0  0  0  0  0  0  0  0  0  0  0
   25.6995  -21.7891   -9.8663 O   0  0  0  0  0  0  0  0  0  0  0  0
   24.6107  -19.7154  -10.1596 N   0  0  0  0  0  0  0  0  0  0  0  0
   23.5431  -20.3495  -10.8516 C   0  0  1  0  0  0  0  0  0  0  0  0
   22.2477  -20.1762  -10.1324 C   0  0  0  0  0  0  0  0  0  0  0  0
   22.0955  -21.0162   -8.9384 C   0  0  0  0  0  0  0  0  0  0  0  0
   22.9259  -21.8817   -8.2848 C   0  0  0  0  0  0  0  0  0  0  0  0
   22.3210  -22.4143   -7.1815 N   0  0  0  0  0  0  0  0  0  0  0  0
   21.1077  -21.8765   -7.1481 C   0  0  0  0  0  0  0  0  0  0  0  0
   20.9425  -21.0413   -8.1786 N   0  0  0  0  0  0  0  0  0  0  0  0
   23.3879  -19.9166  -12.2677 C   0  0  0  0  0  0  0  0  0  0  0  0
   23.4590  -18.6876  -12.5390 O   0  0  0  0  0  0  0  0  0  0  0  0
   25.6983  -25.2795  -15.0493 N   0  0  0  0  0  0  0  0  0  0  0  0
   26.2381  -24.6648  -16.2142 C   0  0  0  0  0  0  0  0  0  0  0  0
   26.5486  -25.3902  -17.2077 N   0  0  0  0  0  0  0  0  0  0  0  0
   26.4406  -23.2523  -16.2966 N   0  0  0  0  0  0  0  0  0  0  0  0
   25.9940  -22.3894  -15.2281 C   0  0  0  0  0  0  0  0  0  0  0  0
   24.5207  -22.3993  -15.0326 C   0  0  0  0  0  0  0  0  0  0  0  0
   23.7296  -21.2990  -15.6543 C   0  0  0  0  0  0  0  0  0  0  0  0
   23.0017  -20.3891  -14.7308 C   0  0  2  0  0  0  0  0  0  0  0  0
   23.1612  -20.8159  -13.3379 N   0  0  0  0  0  0  0  0  0  0  0  0
   21.6108  -20.0854  -15.0409 C   0  0  0  0  0  0  0  0  0  0  0  0
   20.7056  -20.8072  -14.4874 O   0  0  0  0  0  0  0  0  0  0  0  0
   21.1298  -19.0975  -15.8694 O   0  0  0  0  0  0  0  0  0  0  0  0
  2  1  1  1
  2  3  1  0
  4  2  1  0
  5  4  1  0
  5  6  1  1
  7  8  2  0
  7  5  1  0
  9  7  1  0
 10  9  1  0
 11 12  1  0
 10 11  1  1
 12 16  1  0
 13 12  2  0
 13 14  1  0
 14 15  1  0
 16 15  2  0
 17 10  1  0
 18 17  2  0
 19 20  1  0
 20 22  1  0
 21 20  2  0
 22 23  1  0
 23 24  1  0
 24 25  1  0
 26 25  1  6
 26 28  1  0
 26 27  1  0
 27 17  1  0
 28 30  1  0
 29 28  2  0
M  END
$$$$
