LHR.pdb
     RDKit          3D

 30 30  0  0  1  0  0  0  0  0999 V2000
   27.4935  -18.0604   -5.6213 C   0  0  0  0  0  0  0  0  0  0  0  0
   27.9116  -19.0044   -6.7352 C   0  0  1  0  0  0  0  0  0  0  0  0
   29.3109  -19.5019   -6.4006 C   0  0  0  0  0  0  0  0  0  0  0  0
   26.9541  -20.1506   -6.7904 C   0  0  0  0  0  0  0  0  0  0  0  0
   27.1636  -21.0559   -7.9944 C   0  0  2  0  0  0  0  0  0  0  0  0
   28.2664  -20.4264   -8.7446 N   0  0  0  0  0  0  0  0  0  0  0  0
   25.9536  -21.0590   -8.8522 C   0  0  0  0  0  0  0  0  0  0  0  0
   24.8452  -21.3966   -8.3352 O   0  0  0  0  0  0  0  0  0  0  0  0
   26.0339  -20.6855  -10.2466 N   0  0  0  0  0  0  0  0  0  0  0  0
   24.8637  -20.8045  -11.0448 C   0  0  1  0  0  0  0  0  0  0  0  0
   23.9587  -19.6324  -10.8639 C   0  0  0  0  0  0  0  0  0  0  0  0
   22.7348  -19.6759  -11.6730 C   0  0  0  0  0  0  0  0  0  0  0  0
   22.4929  -19.6282  -13.0166 C   0  0  0  0  0  0  0  0  0  0  0  0
   21.1576  -19.7331  -13.2859 N   0  0  0  0  0  0  0  0  0  0  0  0
   20.5654  -19.8475  -12.1032 C   0  0  0  0  0  0  0  0  0  0  0  0
   21.4753  -19.8170  -11.1245 N   0  0  0  0  0  0  0  0  0  0  0  0
   25.1296  -21.0086  -12.4954 C   0  0  0  0  0  0  0  0  0  0  0  0
   25.7416  -20.1103  -13.1337 O   0  0  0  0  0  0  0  0  0  0  0  0
   28.5664  -27.4356  -16.3651 N   0  0  0  0  0  0  0  0  0  0  0  0
   27.2923  -27.5671  -16.9860 C   0  0  0  0  0  0  0  0  0  0  0  0
   27.0234  -28.6295  -17.6251 N   0  0  0  0  0  0  0  0  0  0  0  0
   26.3063  -26.5350  -16.9102 N   0  0  0  0  0  0  0  0  0  0  0  0
   26.5595  -25.3419  -16.1369 C   0  0  0  0  0  0  0  0  0  0  0  0
   25.4742  -24.3307  -16.2318 C   0  0  0  0  0  0  0  0  0  0  0  0
   24.8621  -23.8467  -14.9613 C   0  0  0  0  0  0  0  0  0  0  0  0
   25.0952  -22.4230  -14.6021 C   0  0  2  0  0  0  0  0  0  0  0  0
   24.7287  -22.1658  -13.2066 N   0  0  0  0  0  0  0  0  0  0  0  0
   24.5535  -21.4054  -15.4932 C   0  0  0  0  0  0  0  0  0  0  0  0
   23.3127  -21.1033  -15.3682 O   0  0  0  0  0  0  0  0  0  0  0  0
   25.2182  -20.7064  -16.4747 O   0  0  0  0  0  0  0  0  0  0  0  0
  2  1  1  1
  2  3  1  0
  4  2  1  0
  5  4  1  0
  5  6  1  6
  7  8  2  0
  7  5  1  0
  9  7  1  0
 10  9  1  0
 11 12  1  0
 10 11  1  6
 12 16  1  0
 13 12  2  0
 13 14  1  0
 14 15  1  0
 16 15  2  0
 17 10  1  0
 18 17  2  0
 19 20  1  0
 20 22  1  0
 21 20  2  0
 22 23  1  0
 23 24  1  0
 24 25  1  0
 26 25  1  6
 26 28  1  0
 26 27  1  0
 27 17  1  0
 28 30  1  0
 29 28  2  0
M  END
$$$$
