LHR.pdb
     RDKit          3D

 30 30  0  0  1  0  0  0  0  0999 V2000
   29.2056  -16.2170  -17.2650 C   0  0  0  0  0  0  0  0  0  0  0  0
   28.0786  -17.0942  -17.7816 C   0  0  1  0  0  0  0  0  0  0  0  0
   28.4692  -17.5495  -19.1808 C   0  0  0  0  0  0  0  0  0  0  0  0
   27.9234  -18.2743  -16.8777 C   0  0  0  0  0  0  0  0  0  0  0  0
   26.8243  -19.2302  -17.3149 C   0  0  2  0  0  0  0  0  0  0  0  0
   25.9772  -18.4323  -18.2211 N   0  0  0  0  0  0  0  0  0  0  0  0
   26.0063  -19.6415  -16.1479 C   0  0  0  0  0  0  0  0  0  0  0  0
   26.5471  -20.3576  -15.2511 O   0  0  0  0  0  0  0  0  0  0  0  0
   24.6233  -19.2358  -16.0336 N   0  0  0  0  0  0  0  0  0  0  0  0
   23.8674  -19.7209  -14.9319 C   0  0  1  0  0  0  0  0  0  0  0  0
   23.4351  -18.6096  -14.0354 C   0  0  0  0  0  0  0  0  0  0  0  0
   22.7021  -19.0406  -12.8391 C   0  0  0  0  0  0  0  0  0  0  0  0
   23.0795  -19.6281  -11.6651 C   0  0  0  0  0  0  0  0  0  0  0  0
   22.0105  -19.8122  -10.8345 N   0  0  0  0  0  0  0  0  0  0  0  0
   20.9620  -19.3360  -11.4952 C   0  0  0  0  0  0  0  0  0  0  0  0
   21.3398  -18.8702  -12.6899 N   0  0  0  0  0  0  0  0  0  0  0  0
   22.6847  -20.5408  -15.3137 C   0  0  0  0  0  0  0  0  0  0  0  0
   22.0736  -20.2661  -16.3815 O   0  0  0  0  0  0  0  0  0  0  0  0
   20.8020  -29.2061  -14.7804 N   0  0  0  0  0  0  0  0  0  0  0  0
   19.7113  -28.5945  -15.4604 C   0  0  0  0  0  0  0  0  0  0  0  0
   18.8421  -29.3299  -16.0202 N   0  0  0  0  0  0  0  0  0  0  0  0
   19.5674  -27.1742  -15.5309 N   0  0  0  0  0  0  0  0  0  0  0  0
   20.5723  -26.3113  -14.9553 C   0  0  0  0  0  0  0  0  0  0  0  0
   20.3174  -24.8654  -15.1868 C   0  0  0  0  0  0  0  0  0  0  0  0
   21.3637  -23.8967  -14.7508 C   0  0  0  0  0  0  0  0  0  0  0  0
   21.0602  -22.4525  -14.9315 C   0  0  2  0  0  0  0  0  0  0  0  0
   22.2014  -21.6219  -14.5370 N   0  0  0  0  0  0  0  0  0  0  0  0
   19.8136  -21.9499  -14.3689 C   0  0  0  0  0  0  0  0  0  0  0  0
   19.8368  -21.5166  -13.1613 O   0  0  0  0  0  0  0  0  0  0  0  0
   18.5838  -21.8752  -14.9819 O   0  0  0  0  0  0  0  0  0  0  0  0
  2  1  1  1
  2  3  1  0
  4  2  1  0
  5  4  1  0
  5  6  1  6
  7  8  2  0
  7  5  1  0
  9  7  1  0
 10  9  1  0
 11 12  1  0
 10 11  1  6
 12 16  1  0
 13 12  2  0
 13 14  1  0
 14 15  1  0
 16 15  2  0
 17 10  1  0
 18 17  2  0
 19 20  1  0
 20 22  1  0
 21 20  2  0
 22 23  1  0
 23 24  1  0
 24 25  1  0
 26 25  1  1
 26 28  1  0
 26 27  1  0
 27 17  1  0
 28 30  1  0
 29 28  2  0
M  END
$$$$
