LHR.pdb
     RDKit          3D

 30 30  0  0  1  0  0  0  0  0999 V2000
   27.8429  -16.5103  -15.8312 C   0  0  0  0  0  0  0  0  0  0  0  0
   26.4891  -16.0018  -16.2951 C   0  0  1  0  0  0  0  0  0  0  0  0
   25.4503  -17.0228  -15.8525 C   0  0  0  0  0  0  0  0  0  0  0  0
   26.2187  -14.6779  -15.6564 C   0  0  0  0  0  0  0  0  0  0  0  0
   24.8795  -14.0770  -16.0545 C   0  0  2  0  0  0  0  0  0  0  0  0
   24.7536  -14.3721  -17.4941 N   0  0  0  0  0  0  0  0  0  0  0  0
   24.9035  -12.6046  -15.8773 C   0  0  0  0  0  0  0  0  0  0  0  0
   25.0863  -12.1375  -14.7119 O   0  0  0  0  0  0  0  0  0  0  0  0
   24.7230  -11.7201  -17.0066 N   0  0  0  0  0  0  0  0  0  0  0  0
   24.7293  -10.3180  -16.7725 C   0  0  1  0  0  0  0  0  0  0  0  0
   25.6115   -9.6070  -17.7428 C   0  0  0  0  0  0  0  0  0  0  0  0
   27.0276   -9.9865  -17.6714 C   0  0  0  0  0  0  0  0  0  0  0  0
   27.7433  -10.7984  -16.8381 C   0  0  0  0  0  0  0  0  0  0  0  0
   29.0587  -10.8513  -17.2036 N   0  0  0  0  0  0  0  0  0  0  0  0
   29.1619  -10.0684  -18.2708 C   0  0  0  0  0  0  0  0  0  0  0  0
   27.9723   -9.5395  -18.5742 N   0  0  0  0  0  0  0  0  0  0  0  0
   23.3792   -9.6902  -16.7749 C   0  0  0  0  0  0  0  0  0  0  0  0
   22.6123   -9.9014  -17.7529 O   0  0  0  0  0  0  0  0  0  0  0  0
   15.8948  -11.7060  -14.5360 N   0  0  0  0  0  0  0  0  0  0  0  0
   16.5996  -11.6087  -15.7688 C   0  0  0  0  0  0  0  0  0  0  0  0
   16.2780  -12.3764  -16.7263 N   0  0  0  0  0  0  0  0  0  0  0  0
   17.6607  -10.6700  -15.9589 N   0  0  0  0  0  0  0  0  0  0  0  0
   18.0976   -9.8341  -14.8653 C   0  0  0  0  0  0  0  0  0  0  0  0
   19.1266   -8.8350  -15.2552 C   0  0  0  0  0  0  0  0  0  0  0  0
   20.5347   -9.3052  -15.3937 C   0  0  0  0  0  0  0  0  0  0  0  0
   21.5590   -8.2762  -15.7135 C   0  0  2  0  0  0  0  0  0  0  0  0
   22.9032   -8.8599  -15.7312 N   0  0  0  0  0  0  0  0  0  0  0  0
   21.5261   -7.0331  -14.9539 C   0  0  0  0  0  0  0  0  0  0  0  0
   22.5162   -6.7832  -14.1770 O   0  0  0  0  0  0  0  0  0  0  0  0
   20.5467   -6.0665  -14.9645 O   0  0  0  0  0  0  0  0  0  0  0  0
  2  1  1  1
  2  3  1  0
  4  2  1  0
  5  4  1  0
  5  6  1  6
  7  8  2  0
  7  5  1  0
  9  7  1  0
 10  9  1  0
 11 12  1  0
 10 11  1  6
 12 16  1  0
 13 12  2  0
 13 14  1  0
 14 15  1  0
 16 15  2  0
 17 10  1  0
 18 17  2  0
 19 20  1  0
 20 22  1  0
 21 20  2  0
 22 23  1  0
 23 24  1  0
 24 25  1  0
 26 25  1  1
 26 28  1  0
 26 27  1  0
 27 17  1  0
 28 30  1  0
 29 28  2  0
M  END
$$$$
