LHR.pdb
     RDKit          3D

 30 30  0  0  1  0  0  0  0  0999 V2000
   32.3709  -19.5525  -19.6169 C   0  0  0  0  0  0  0  0  0  0  0  0
   30.9170  -19.8823  -19.9068 C   0  0  1  0  0  0  0  0  0  0  0  0
   30.8286  -21.3895  -20.1016 C   0  0  0  0  0  0  0  0  0  0  0  0
   30.0784  -19.4606  -18.7438 C   0  0  0  0  0  0  0  0  0  0  0  0
   28.6075  -19.8146  -18.8991 C   0  0  2  0  0  0  0  0  0  0  0  0
   28.2472  -19.3226  -20.2421 N   0  0  0  0  0  0  0  0  0  0  0  0
   27.7940  -19.0834  -17.8973 C   0  0  0  0  0  0  0  0  0  0  0  0
   27.9345  -19.3780  -16.6713 O   0  0  0  0  0  0  0  0  0  0  0  0
   26.8614  -18.0576  -18.3074 N   0  0  0  0  0  0  0  0  0  0  0  0
   26.0611  -17.4364  -17.3102 C   0  0  1  0  0  0  0  0  0  0  0  0
   26.0200  -15.9558  -17.4880 C   0  0  0  0  0  0  0  0  0  0  0  0
   25.1476  -15.2516  -16.5408 C   0  0  0  0  0  0  0  0  0  0  0  0
   23.8571  -14.8078  -16.6012 C   0  0  0  0  0  0  0  0  0  0  0  0
   23.4769  -14.2215  -15.4272 N   0  0  0  0  0  0  0  0  0  0  0  0
   24.5366  -14.3015  -14.6315 C   0  0  0  0  0  0  0  0  0  0  0  0
   25.5460  -14.9084  -15.2638 N   0  0  0  0  0  0  0  0  0  0  0  0
   24.6723  -17.9658  -17.2216 C   0  0  0  0  0  0  0  0  0  0  0  0
   24.0480  -18.2164  -18.2876 O   0  0  0  0  0  0  0  0  0  0  0  0
   20.3622  -22.6774  -10.8851 N   0  0  0  0  0  0  0  0  0  0  0  0
   19.4452  -22.5121  -11.9611 C   0  0  0  0  0  0  0  0  0  0  0  0
   18.3306  -23.1167  -11.9210 N   0  0  0  0  0  0  0  0  0  0  0  0
   19.7448  -21.6839  -13.0869 N   0  0  0  0  0  0  0  0  0  0  0  0
   21.0233  -21.0188  -13.1816 C   0  0  0  0  0  0  0  0  0  0  0  0
   21.1986  -20.2441  -14.4378 C   0  0  0  0  0  0  0  0  0  0  0  0
   22.4541  -19.4562  -14.5991 C   0  0  0  0  0  0  0  0  0  0  0  0
   22.6602  -18.7796  -15.9068 C   0  0  2  0  0  0  0  0  0  0  0  0
   24.0055  -18.2048  -15.9953 N   0  0  0  0  0  0  0  0  0  0  0  0
   21.6439  -17.8308  -16.3426 C   0  0  0  0  0  0  0  0  0  0  0  0
   21.7634  -16.6119  -15.9599 O   0  0  0  0  0  0  0  0  0  0  0  0
   20.5459  -18.0786  -17.1343 O   0  0  0  0  0  0  0  0  0  0  0  0
  2  1  1  1
  2  3  1  0
  4  2  1  0
  5  4  1  0
  5  6  1  6
  7  8  2  0
  7  5  1  0
  9  7  1  0
 10  9  1  0
 11 12  1  0
 10 11  1  6
 12 16  1  0
 13 12  2  0
 13 14  1  0
 14 15  1  0
 16 15  2  0
 17 10  1  0
 18 17  2  0
 19 20  1  0
 20 22  1  0
 21 20  2  0
 22 23  1  0
 23 24  1  0
 24 25  1  0
 26 25  1  1
 26 28  1  0
 26 27  1  0
 27 17  1  0
 28 30  1  0
 29 28  2  0
M  END
$$$$
