LHR.pdb
     RDKit          3D

 30 30  0  0  1  0  0  0  0  0999 V2000
   24.5477  -13.5591  -16.0898 C   0  0  0  0  0  0  0  0  0  0  0  0
   25.6396  -14.5789  -16.3627 C   0  0  1  0  0  0  0  0  0  0  0  0
   26.6420  -14.4798  -15.2212 C   0  0  0  0  0  0  0  0  0  0  0  0
   25.0343  -15.9448  -16.4030 C   0  0  0  0  0  0  0  0  0  0  0  0
   26.0655  -17.0621  -16.4410 C   0  0  2  0  0  0  0  0  0  0  0  0
   26.6585  -16.9741  -17.7886 N   0  0  0  0  0  0  0  0  0  0  0  0
   25.4001  -18.3808  -16.3059 C   0  0  0  0  0  0  0  0  0  0  0  0
   24.7774  -18.8506  -17.3065 O   0  0  0  0  0  0  0  0  0  0  0  0
   25.4592  -19.1157  -15.0622 N   0  0  0  0  0  0  0  0  0  0  0  0
   24.8557  -20.4016  -15.0098 C   0  0  1  0  0  0  0  0  0  0  0  0
   25.7726  -21.4101  -14.4034 C   0  0  0  0  0  0  0  0  0  0  0  0
   26.8688  -21.8422  -15.2785 C   0  0  0  0  0  0  0  0  0  0  0  0
   27.2097  -21.5574  -16.5703 C   0  0  0  0  0  0  0  0  0  0  0  0
   28.3585  -22.2006  -16.9352 N   0  0  0  0  0  0  0  0  0  0  0  0
   28.7350  -22.8890  -15.8642 C   0  0  0  0  0  0  0  0  0  0  0  0
   27.8706  -22.6971  -14.8628 N   0  0  0  0  0  0  0  0  0  0  0  0
   23.5441  -20.4347  -14.3059 C   0  0  0  0  0  0  0  0  0  0  0  0
   23.4355  -19.8493  -13.1948 O   0  0  0  0  0  0  0  0  0  0  0  0
   15.5707  -20.1474  -17.6770 N   0  0  0  0  0  0  0  0  0  0  0  0
   16.9373  -19.7749  -17.8179 C   0  0  0  0  0  0  0  0  0  0  0  0
   17.3058  -19.1636  -18.8668 N   0  0  0  0  0  0  0  0  0  0  0  0
   17.9073  -20.0705  -16.8105 N   0  0  0  0  0  0  0  0  0  0  0  0
   17.4955  -20.6362  -15.5471 C   0  0  0  0  0  0  0  0  0  0  0  0
   18.6122  -20.8113  -14.5821 C   0  0  0  0  0  0  0  0  0  0  0  0
   19.9921  -20.9408  -15.1319 C   0  0  0  0  0  0  0  0  0  0  0  0
   21.0970  -21.0876  -14.1480 C   0  0  2  0  0  0  0  0  0  0  0  0
   22.4004  -21.0944  -14.8181 N   0  0  0  0  0  0  0  0  0  0  0  0
   20.9922  -22.1645  -13.1721 C   0  0  0  0  0  0  0  0  0  0  0  0
   21.7062  -23.2134  -13.3632 O   0  0  0  0  0  0  0  0  0  0  0  0
   20.2086  -22.2019  -12.0414 O   0  0  0  0  0  0  0  0  0  0  0  0
  2  1  1  1
  2  3  1  0
  4  2  1  0
  5  4  1  0
  5  6  1  6
  7  8  2  0
  7  5  1  0
  9  7  1  0
 10  9  1  0
 11 12  1  0
 10 11  1  1
 12 16  1  0
 13 12  2  0
 13 14  1  0
 14 15  1  0
 16 15  2  0
 17 10  1  0
 18 17  2  0
 19 20  1  0
 20 22  1  0
 21 20  2  0
 22 23  1  0
 23 24  1  0
 24 25  1  0
 26 25  1  6
 26 28  1  0
 26 27  1  0
 27 17  1  0
 28 30  1  0
 29 28  2  0
M  END
$$$$
