LHR.pdb
     RDKit          3D

 30 30  0  0  1  0  0  0  0  0999 V2000
   29.3801  -21.9608  -13.6123 C   0  0  0  0  0  0  0  0  0  0  0  0
   28.6466  -20.7477  -13.0674 C   0  0  1  0  0  0  0  0  0  0  0  0
   29.6354  -19.9745  -12.2060 C   0  0  0  0  0  0  0  0  0  0  0  0
   28.1836  -19.9021  -14.2096 C   0  0  0  0  0  0  0  0  0  0  0  0
   27.3739  -18.6901  -13.7752 C   0  0  2  0  0  0  0  0  0  0  0  0
   26.7840  -19.0822  -12.4815 N   0  0  0  0  0  0  0  0  0  0  0  0
   26.2728  -18.4361  -14.7358 C   0  0  0  0  0  0  0  0  0  0  0  0
   26.5656  -18.2355  -15.9539 O   0  0  0  0  0  0  0  0  0  0  0  0
   24.8959  -18.4175  -14.2953 N   0  0  0  0  0  0  0  0  0  0  0  0
   23.8817  -18.1812  -15.2630 C   0  0  1  0  0  0  0  0  0  0  0  0
   22.5506  -18.6557  -14.7850 C   0  0  0  0  0  0  0  0  0  0  0  0
   21.4473  -18.4261  -15.7254 C   0  0  0  0  0  0  0  0  0  0  0  0
   20.7887  -17.3066  -16.1480 C   0  0  0  0  0  0  0  0  0  0  0  0
   19.8309  -17.6120  -17.0733 N   0  0  0  0  0  0  0  0  0  0  0  0
   19.8945  -18.9291  -17.2277 C   0  0  0  0  0  0  0  0  0  0  0  0
   20.8450  -19.4426  -16.4406 N   0  0  0  0  0  0  0  0  0  0  0  0
   23.7752  -16.7635  -15.7053 C   0  0  0  0  0  0  0  0  0  0  0  0
   23.7330  -15.8556  -14.8318 O   0  0  0  0  0  0  0  0  0  0  0  0
   28.2719  -11.2496  -18.9781 N   0  0  0  0  0  0  0  0  0  0  0  0
   28.1407  -12.4959  -19.6532 C   0  0  0  0  0  0  0  0  0  0  0  0
   29.1617  -13.0112  -20.2024 N   0  0  0  0  0  0  0  0  0  0  0  0
   26.8902  -13.1838  -19.7304 N   0  0  0  0  0  0  0  0  0  0  0  0
   25.6992  -12.5947  -19.1644 C   0  0  0  0  0  0  0  0  0  0  0  0
   24.4801  -13.4245  -19.3494 C   0  0  0  0  0  0  0  0  0  0  0  0
   24.4722  -14.7910  -18.7530 C   0  0  0  0  0  0  0  0  0  0  0  0
   23.6883  -14.9747  -17.5031 C   0  0  2  0  0  0  0  0  0  0  0  0
   23.7165  -16.3730  -17.0653 N   0  0  0  0  0  0  0  0  0  0  0  0
   22.3369  -14.4310  -17.4687 C   0  0  0  0  0  0  0  0  0  0  0  0
   21.4116  -15.0968  -18.0580 O   0  0  0  0  0  0  0  0  0  0  0  0
   21.9130  -13.2677  -16.8681 O   0  0  0  0  0  0  0  0  0  0  0  0
  2  1  1  6
  2  3  1  0
  4  2  1  0
  5  4  1  0
  5  6  1  1
  7  8  2  0
  7  5  1  0
  9  7  1  0
 10  9  1  0
 11 12  1  0
 10 11  1  1
 12 16  1  0
 13 12  2  0
 13 14  1  0
 14 15  1  0
 16 15  2  0
 17 10  1  0
 18 17  2  0
 19 20  1  0
 20 22  1  0
 21 20  2  0
 22 23  1  0
 23 24  1  0
 24 25  1  0
 26 25  1  6
 26 28  1  0
 26 27  1  0
 27 17  1  0
 28 30  1  0
 29 28  2  0
M  END
$$$$
