MDP.pdb
     RDKit          3D

 24 24  0  0  1  0  0  0  0  0999 V2000
   25.9564  -20.4819   -9.1600 C   0  0  0  0  0  0  0  0  0  0  0  0
   27.4373  -21.3558   -9.7481 S   0  0  0  0  0  0  0  0  0  0  0  0
   27.6341  -20.9554  -11.5051 C   0  0  0  0  0  0  0  0  0  0  0  0
   26.5498  -21.6226  -12.3323 C   0  0  0  0  0  0  0  0  0  0  0  0
   26.2346  -20.7278  -13.5082 C   0  0  2  0  0  0  0  0  0  0  0  0
   27.2572  -19.7219  -13.5848 N   0  0  0  0  0  0  0  0  0  0  0  0
   24.8842  -20.1218  -13.3463 C   0  0  0  0  0  0  0  0  0  0  0  0
   24.7664  -19.1392  -12.6038 O   0  0  0  0  0  0  0  0  0  0  0  0
   23.8091  -20.6967  -14.0455 N   0  0  0  0  0  0  0  0  0  0  0  0
   22.4490  -20.2801  -14.0007 C   0  0  1  0  0  0  0  0  0  0  0  0
   21.8151  -20.0347  -15.3674 C   0  0  0  0  0  0  0  0  0  0  0  0
   20.4402  -19.5072  -15.2737 C   0  0  0  0  0  0  0  0  0  0  0  0
   19.3901  -20.1585  -15.1858 O   0  0  0  0  0  0  0  0  0  0  0  0
   21.6167  -21.0719  -13.0947 C   0  0  0  0  0  0  0  0  0  0  0  0
   21.6878  -22.3508  -13.2271 O   0  0  0  0  0  0  0  0  0  0  0  0
   20.2812  -18.1030  -15.2839 O   0  0  0  0  0  0  0  0  0  0  0  0
   20.7653  -20.5637  -12.1115 N   0  0  0  0  0  0  0  0  0  0  0  0
   20.6454  -19.1826  -11.7020 C   0  0  0  0  0  0  0  0  0  0  0  0
   20.5067  -19.3533  -10.1739 C   0  0  0  0  0  0  0  0  0  0  0  0
   19.4989  -20.4756  -10.1104 C   0  0  0  0  0  0  0  0  0  0  0  0
   19.8458  -21.3437  -11.2711 C   0  0  1  0  0  0  0  0  0  0  0  0
   18.6232  -21.6985  -12.0083 C   0  0  0  0  0  0  0  0  0  0  0  0
   18.3727  -21.1444  -13.0986 O   0  0  0  0  0  0  0  0  0  0  0  0
   17.7403  -22.6394  -11.5147 O   0  0  0  0  0  0  0  0  0  0  0  0
  2  1  1  0
  2  3  1  0
  4  3  1  0
  5  4  1  0
  5  7  1  0
  5  6  1  1
  7  8  2  0
  9  7  1  0
  9 10  1  0
 10 14  1  0
 10 11  1  6
 12 11  1  0
 13 12  2  0
 14 15  2  0
 16 12  1  0
 17 21  1  0
 17 14  1  0
 18 17  1  0
 19 20  1  0
 19 18  1  0
 20 21  1  0
 21 22  1  6
 22 23  2  0
 22 24  1  0
M  END
$$$$
