MDP.pdb
     RDKit          3D

 24 24  0  0  1  0  0  0  0  0999 V2000
   28.3376  -16.6005  -16.1897 C   0  0  0  0  0  0  0  0  0  0  0  0
   28.4237  -17.6904  -17.6415 S   0  0  0  0  0  0  0  0  0  0  0  0
   26.9410  -18.7332  -17.6181 C   0  0  0  0  0  0  0  0  0  0  0  0
   25.8250  -18.0619  -16.8378 C   0  0  0  0  0  0  0  0  0  0  0  0
   24.6194  -18.9723  -16.8595 C   0  0  2  0  0  0  0  0  0  0  0  0
   24.2246  -19.1505  -18.2290 N   0  0  0  0  0  0  0  0  0  0  0  0
   23.5181  -18.3873  -16.0459 C   0  0  0  0  0  0  0  0  0  0  0  0
   23.4258  -17.1553  -15.9816 O   0  0  0  0  0  0  0  0  0  0  0  0
   22.6372  -19.2646  -15.3904 N   0  0  0  0  0  0  0  0  0  0  0  0
   21.4293  -18.9127  -14.7252 C   0  0  1  0  0  0  0  0  0  0  0  0
   20.5513  -17.9224  -15.4856 C   0  0  0  0  0  0  0  0  0  0  0  0
   19.3264  -17.5598  -14.7469 C   0  0  0  0  0  0  0  0  0  0  0  0
   18.2352  -18.1460  -14.7678 O   0  0  0  0  0  0  0  0  0  0  0  0
   20.6980  -20.0571  -14.1810 C   0  0  0  0  0  0  0  0  0  0  0  0
   20.3161  -20.9457  -15.0312 O   0  0  0  0  0  0  0  0  0  0  0  0
   19.3830  -16.4181  -13.9161 O   0  0  0  0  0  0  0  0  0  0  0  0
   20.3857  -20.2639  -12.8358 N   0  0  0  0  0  0  0  0  0  0  0  0
   20.6678  -19.3695  -11.7358 C   0  0  0  0  0  0  0  0  0  0  0  0
   21.0954  -20.3825  -10.6522 C   0  0  0  0  0  0  0  0  0  0  0  0
   20.0129  -21.4240  -10.8032 C   0  0  0  0  0  0  0  0  0  0  0  0
   19.7379  -21.4546  -12.2677 C   0  0  1  0  0  0  0  0  0  0  0  0
   18.2855  -21.4318  -12.5004 C   0  0  0  0  0  0  0  0  0  0  0  0
   17.7396  -20.3887  -12.9158 O   0  0  0  0  0  0  0  0  0  0  0  0
   17.5079  -22.5494  -12.2668 O   0  0  0  0  0  0  0  0  0  0  0  0
  2  1  1  0
  2  3  1  0
  4  3  1  0
  5  4  1  0
  5  7  1  0
  5  6  1  6
  7  8  2  0
  9  7  1  0
  9 10  1  0
 10 14  1  0
 10 11  1  6
 12 11  1  0
 13 12  2  0
 14 15  2  0
 16 12  1  0
 17 21  1  0
 17 14  1  0
 18 17  1  0
 19 20  1  0
 19 18  1  0
 20 21  1  0
 21 22  1  1
 22 23  2  0
 22 24  1  0
M  END
$$$$
