MDP.pdb
     RDKit          3D

 24 24  0  0  1  0  0  0  0  0999 V2000
   16.0495  -12.2639  -18.7923 C   0  0  0  0  0  0  0  0  0  0  0  0
   16.1331  -13.7619  -19.8178 S   0  0  0  0  0  0  0  0  0  0  0  0
   17.8121  -14.4271  -19.6597 C   0  0  0  0  0  0  0  0  0  0  0  0
   18.5613  -13.7318  -18.5372 C   0  0  0  0  0  0  0  0  0  0  0  0
   19.9938  -14.2122  -18.5566 C   0  0  2  0  0  0  0  0  0  0  0  0
   19.9857  -15.6344  -18.3557 N   0  0  0  0  0  0  0  0  0  0  0  0
   20.7841  -13.5168  -17.5037 C   0  0  0  0  0  0  0  0  0  0  0  0
   20.7415  -13.9590  -16.3490 O   0  0  0  0  0  0  0  0  0  0  0  0
   21.5399  -12.3912  -17.8739 N   0  0  0  0  0  0  0  0  0  0  0  0
   22.3377  -11.5855  -17.0138 C   0  0  1  0  0  0  0  0  0  0  0  0
   23.8328  -11.6185  -17.3195 C   0  0  0  0  0  0  0  0  0  0  0  0
   24.6331  -10.8540  -16.3435 C   0  0  0  0  0  0  0  0  0  0  0  0
   24.8549   -9.6352  -16.3444 O   0  0  0  0  0  0  0  0  0  0  0  0
   21.8055  -10.2393  -16.8015 C   0  0  0  0  0  0  0  0  0  0  0  0
   21.4476   -9.5950  -17.8575 O   0  0  0  0  0  0  0  0  0  0  0  0
   25.2219  -11.5745  -15.2800 O   0  0  0  0  0  0  0  0  0  0  0  0
   21.6538   -9.6047  -15.5669 N   0  0  0  0  0  0  0  0  0  0  0  0
   21.9505  -10.1621  -14.2666 C   0  0  0  0  0  0  0  0  0  0  0  0
   20.7581   -9.6199  -13.4495 C   0  0  0  0  0  0  0  0  0  0  0  0
   20.7390   -8.1815  -13.9075 C   0  0  0  0  0  0  0  0  0  0  0  0
   21.1256   -8.2512  -15.3452 C   0  0  1  0  0  0  0  0  0  0  0  0
   22.1431   -7.2292  -15.6356 C   0  0  0  0  0  0  0  0  0  0  0  0
   23.3218   -7.5731  -15.8614 O   0  0  0  0  0  0  0  0  0  0  0  0
   21.8182   -5.8868  -15.6635 O   0  0  0  0  0  0  0  0  0  0  0  0
  2  1  1  0
  2  3  1  0
  4  3  1  0
  5  4  1  0
  5  7  1  0
  5  6  1  1
  7  8  2  0
  9  7  1  0
  9 10  1  0
 10 14  1  0
 10 11  1  6
 12 11  1  0
 13 12  2  0
 14 15  2  0
 16 12  1  0
 17 21  1  0
 17 14  1  0
 18 17  1  0
 19 20  1  0
 19 18  1  0
 20 21  1  0
 21 22  1  1
 22 23  2  0
 22 24  1  0
M  END
$$$$
