MDP.pdb
     RDKit          3D

 24 24  0  0  1  0  0  0  0  0999 V2000
   15.5661  -17.6188  -16.9062 C   0  0  0  0  0  0  0  0  0  0  0  0
   17.2614  -17.0662  -16.5548 S   0  0  0  0  0  0  0  0  0  0  0  0
   17.1411  -15.4525  -15.7378 C   0  0  0  0  0  0  0  0  0  0  0  0
   18.5217  -14.9139  -15.4075 C   0  0  0  0  0  0  0  0  0  0  0  0
   19.2632  -14.6876  -16.7043 C   0  0  2  0  0  0  0  0  0  0  0  0
   20.0599  -15.8535  -16.9673 N   0  0  0  0  0  0  0  0  0  0  0  0
   20.1039  -13.4624  -16.6093 C   0  0  0  0  0  0  0  0  0  0  0  0
   21.2404  -13.5653  -16.1313 O   0  0  0  0  0  0  0  0  0  0  0  0
   19.5643  -12.2483  -17.0675 N   0  0  0  0  0  0  0  0  0  0  0  0
   20.2150  -10.9827  -17.0806 C   0  0  1  0  0  0  0  0  0  0  0  0
   20.2355  -10.2938  -18.4426 C   0  0  0  0  0  0  0  0  0  0  0  0
   20.9419  -11.0815  -19.4713 C   0  0  0  0  0  0  0  0  0  0  0  0
   20.4938  -11.4701  -20.5589 O   0  0  0  0  0  0  0  0  0  0  0  0
   19.8240  -10.1043  -15.9778 C   0  0  0  0  0  0  0  0  0  0  0  0
   18.5984  -10.1863  -15.5912 O   0  0  0  0  0  0  0  0  0  0  0  0
   22.2816  -11.4441  -19.2054 O   0  0  0  0  0  0  0  0  0  0  0  0
   20.6575   -9.1990  -15.3179 N   0  0  0  0  0  0  0  0  0  0  0  0
   22.0837   -9.0474  -15.4988 C   0  0  0  0  0  0  0  0  0  0  0  0
   22.5310   -8.8306  -14.0372 C   0  0  0  0  0  0  0  0  0  0  0  0
   21.4992   -7.8294  -13.5767 C   0  0  0  0  0  0  0  0  0  0  0  0
   20.2509   -8.2429  -14.2783 C   0  0  1  0  0  0  0  0  0  0  0  0
   19.5984   -7.0632  -14.8668 C   0  0  0  0  0  0  0  0  0  0  0  0
   19.6533   -6.8735  -16.0995 O   0  0  0  0  0  0  0  0  0  0  0  0
   18.9211   -6.1543  -14.0771 O   0  0  0  0  0  0  0  0  0  0  0  0
  2  1  1  0
  2  3  1  0
  4  3  1  0
  5  4  1  0
  5  7  1  0
  5  6  1  1
  7  8  2  0
  9  7  1  0
  9 10  1  0
 10 14  1  0
 10 11  1  6
 12 11  1  0
 13 12  2  0
 14 15  2  0
 16 12  1  0
 17 21  1  0
 17 14  1  0
 18 17  1  0
 19 20  1  0
 19 18  1  0
 20 21  1  0
 21 22  1  6
 22 23  2  0
 22 24  1  0
M  END
$$$$
