MDP.pdb
     RDKit          3D

 24 24  0  0  1  0  0  0  0  0999 V2000
   12.5690  -25.3922   -2.9468 C   0  0  0  0  0  0  0  0  0  0  0  0
   13.1555  -24.1952   -4.1821 S   0  0  0  0  0  0  0  0  0  0  0  0
   14.9600  -24.3482   -4.2627 C   0  0  0  0  0  0  0  0  0  0  0  0
   15.3828  -25.7989   -4.1154 C   0  0  0  0  0  0  0  0  0  0  0  0
   16.8922  -25.8569   -4.1486 C   0  0  2  0  0  0  0  0  0  0  0  0
   17.3224  -25.4285   -5.4504 N   0  0  0  0  0  0  0  0  0  0  0  0
   17.3609  -27.2374   -3.8461 C   0  0  0  0  0  0  0  0  0  0  0  0
   17.7209  -27.9551   -4.7873 O   0  0  0  0  0  0  0  0  0  0  0  0
   17.3710  -27.6573   -2.5049 N   0  0  0  0  0  0  0  0  0  0  0  0
   17.7996  -28.9234   -2.0161 C   0  0  1  0  0  0  0  0  0  0  0  0
   18.0243  -28.9782   -0.5074 C   0  0  0  0  0  0  0  0  0  0  0  0
   19.0784  -28.0512   -0.0522 C   0  0  0  0  0  0  0  0  0  0  0  0
   19.0115  -27.2364    0.8786 O   0  0  0  0  0  0  0  0  0  0  0  0
   17.0319  -30.0522   -2.5426 C   0  0  0  0  0  0  0  0  0  0  0  0
   15.7735  -29.8493   -2.7260 O   0  0  0  0  0  0  0  0  0  0  0  0
   20.3111  -28.0801   -0.7425 O   0  0  0  0  0  0  0  0  0  0  0  0
   17.5431  -31.3123   -2.8600 N   0  0  0  0  0  0  0  0  0  0  0  0
   18.9284  -31.7216   -2.8056 C   0  0  0  0  0  0  0  0  0  0  0  0
   19.0185  -32.5798   -4.0857 C   0  0  0  0  0  0  0  0  0  0  0  0
   17.7580  -33.4010   -3.9586 C   0  0  0  0  0  0  0  0  0  0  0  0
   16.7722  -32.4643   -3.3487 C   0  0  1  0  0  0  0  0  0  0  0  0
   16.0646  -33.1362   -2.2478 C   0  0  0  0  0  0  0  0  0  0  0  0
   16.2308  -32.7465   -1.0735 O   0  0  0  0  0  0  0  0  0  0  0  0
   15.2139  -34.1975   -2.4891 O   0  0  0  0  0  0  0  0  0  0  0  0
  2  1  1  0
  2  3  1  0
  4  3  1  0
  5  4  1  0
  5  7  1  0
  5  6  1  6
  7  8  2  0
  9  7  1  0
  9 10  1  0
 10 14  1  0
 10 11  1  1
 12 11  1  0
 13 12  2  0
 14 15  2  0
 16 12  1  0
 17 21  1  0
 17 14  1  0
 18 17  1  0
 19 20  1  0
 19 18  1  0
 20 21  1  0
 21 22  1  1
 22 23  2  0
 22 24  1  0
M  END
$$$$
