MDP.pdb
     RDKit          3D

 24 24  0  0  1  0  0  0  0  0999 V2000
   27.0946  -15.9379  -14.3944 C   0  0  0  0  0  0  0  0  0  0  0  0
   25.4586  -15.6368  -15.1263 S   0  0  0  0  0  0  0  0  0  0  0  0
   25.6119  -14.1876  -16.2045 C   0  0  0  0  0  0  0  0  0  0  0  0
   24.2729  -13.8400  -16.8300 C   0  0  0  0  0  0  0  0  0  0  0  0
   23.2193  -13.8878  -15.7481 C   0  0  2  0  0  0  0  0  0  0  0  0
   22.7359  -15.2377  -15.6613 N   0  0  0  0  0  0  0  0  0  0  0  0
   22.1195  -12.9333  -16.0582 C   0  0  0  0  0  0  0  0  0  0  0  0
   21.1765  -13.3295  -16.7541 O   0  0  0  0  0  0  0  0  0  0  0  0
   22.2073  -11.6280  -15.5447 N   0  0  0  0  0  0  0  0  0  0  0  0
   21.2283  -10.6020  -15.6650 C   0  0  1  0  0  0  0  0  0  0  0  0
   19.8100  -11.0322  -15.3001 C   0  0  0  0  0  0  0  0  0  0  0  0
   18.8208   -9.9520  -15.4793 C   0  0  0  0  0  0  0  0  0  0  0  0
   18.8808   -9.0026  -16.2729 O   0  0  0  0  0  0  0  0  0  0  0  0
   21.6317   -9.3263  -15.0731 C   0  0  0  0  0  0  0  0  0  0  0  0
   21.9197   -9.3462  -13.8181 O   0  0  0  0  0  0  0  0  0  0  0  0
   17.6677   -9.9854  -14.6632 O   0  0  0  0  0  0  0  0  0  0  0  0
   21.7308   -8.1069  -15.7463 N   0  0  0  0  0  0  0  0  0  0  0  0
   21.3876   -7.8518  -17.1271 C   0  0  0  0  0  0  0  0  0  0  0  0
   22.5434   -6.9133  -17.5354 C   0  0  0  0  0  0  0  0  0  0  0  0
   22.5704   -5.9754  -16.3528 C   0  0  0  0  0  0  0  0  0  0  0  0
   22.2405   -6.8461  -15.1889 C   0  0  1  0  0  0  0  0  0  0  0  0
   21.2280   -6.1885  -14.3484 C   0  0  0  0  0  0  0  0  0  0  0  0
   20.0339   -6.5455  -14.4209 O   0  0  0  0  0  0  0  0  0  0  0  0
   21.5745   -5.1764  -13.4742 O   0  0  0  0  0  0  0  0  0  0  0  0
  2  1  1  0
  2  3  1  0
  4  3  1  0
  5  4  1  0
  5  7  1  0
  5  6  1  6
  7  8  2  0
  9  7  1  0
  9 10  1  0
 10 14  1  0
 10 11  1  1
 12 11  1  0
 13 12  2  0
 14 15  2  0
 16 12  1  0
 17 21  1  0
 17 14  1  0
 18 17  1  0
 19 20  1  0
 19 18  1  0
 20 21  1  0
 21 22  1  1
 22 23  2  0
 22 24  1  0
M  END
$$$$
