MDP.pdb
     RDKit          3D

 24 24  0  0  1  0  0  0  0  0999 V2000
   28.3889  -17.9657  -15.2330 C   0  0  0  0  0  0  0  0  0  0  0  0
   26.8928  -17.1442  -15.8573 S   0  0  0  0  0  0  0  0  0  0  0  0
   26.7428  -15.5645  -14.9807 C   0  0  0  0  0  0  0  0  0  0  0  0
   25.6848  -14.6895  -15.6288 C   0  0  0  0  0  0  0  0  0  0  0  0
   24.3284  -15.2746  -15.3112 C   0  0  2  0  0  0  0  0  0  0  0  0
   24.3194  -16.6389  -15.7605 N   0  0  0  0  0  0  0  0  0  0  0  0
   23.2571  -14.4765  -15.9687 C   0  0  0  0  0  0  0  0  0  0  0  0
   22.6279  -14.9928  -16.9005 O   0  0  0  0  0  0  0  0  0  0  0  0
   23.0134  -13.1749  -15.4979 N   0  0  0  0  0  0  0  0  0  0  0  0
   21.8985  -12.3515  -15.8207 C   0  0  1  0  0  0  0  0  0  0  0  0
   20.5467  -13.0566  -15.7480 C   0  0  0  0  0  0  0  0  0  0  0  0
   19.4238  -12.1819  -16.1374 C   0  0  0  0  0  0  0  0  0  0  0  0
   19.2297  -11.6556  -17.2420 O   0  0  0  0  0  0  0  0  0  0  0  0
   21.9203  -11.0424  -15.1676 C   0  0  0  0  0  0  0  0  0  0  0  0
   21.9553  -11.0485  -13.8803 O   0  0  0  0  0  0  0  0  0  0  0  0
   18.4488  -11.9001  -15.1541 O   0  0  0  0  0  0  0  0  0  0  0  0
   21.9083   -9.8050  -15.8145 N   0  0  0  0  0  0  0  0  0  0  0  0
   21.7727   -9.5738  -17.2349 C   0  0  0  0  0  0  0  0  0  0  0  0
   22.7877   -8.4273  -17.4314 C   0  0  0  0  0  0  0  0  0  0  0  0
   22.4310   -7.5378  -16.2648 C   0  0  0  0  0  0  0  0  0  0  0  0
   22.0686   -8.4903  -15.1772 C   0  0  1  0  0  0  0  0  0  0  0  0
   20.8195   -8.0559  -14.5330 C   0  0  0  0  0  0  0  0  0  0  0  0
   20.8398   -7.1199  -13.7071 O   0  0  0  0  0  0  0  0  0  0  0  0
   19.6158   -8.6674  -14.8255 O   0  0  0  0  0  0  0  0  0  0  0  0
  2  1  1  0
  2  3  1  0
  4  3  1  0
  5  4  1  0
  5  7  1  0
  5  6  1  6
  7  8  2  0
  9  7  1  0
  9 10  1  0
 10 14  1  0
 10 11  1  1
 12 11  1  0
 13 12  2  0
 14 15  2  0
 16 12  1  0
 17 21  1  0
 17 14  1  0
 18 17  1  0
 19 20  1  0
 19 18  1  0
 20 21  1  0
 21 22  1  6
 22 23  2  0
 22 24  1  0
M  END
$$$$
