MDP.pdb
     RDKit          3D

 24 24  0  0  1  0  0  0  0  0999 V2000
   12.2923  -11.6041  -18.1261 C   0  0  0  0  0  0  0  0  0  0  0  0
   13.6888  -11.5633  -16.9638 S   0  0  0  0  0  0  0  0  0  0  0  0
   14.8832  -10.3584  -17.6023 C   0  0  0  0  0  0  0  0  0  0  0  0
   16.0081  -10.1385  -16.6066 C   0  0  0  0  0  0  0  0  0  0  0  0
   17.1821  -10.9932  -17.0238 C   0  0  2  0  0  0  0  0  0  0  0  0
   16.9826  -12.3105  -16.4871 N   0  0  0  0  0  0  0  0  0  0  0  0
   18.4546  -10.3926  -16.5369 C   0  0  0  0  0  0  0  0  0  0  0  0
   18.8498  -10.6924  -15.4035 O   0  0  0  0  0  0  0  0  0  0  0  0
   19.1443   -9.5137  -17.3895 N   0  0  0  0  0  0  0  0  0  0  0  0
   20.3440   -8.8091  -17.0902 C   0  0  1  0  0  0  0  0  0  0  0  0
   21.1892   -8.4485  -18.3090 C   0  0  0  0  0  0  0  0  0  0  0  0
   21.5360   -9.6231  -19.1322 C   0  0  0  0  0  0  0  0  0  0  0  0
   22.1605  -10.6320  -18.7761 O   0  0  0  0  0  0  0  0  0  0  0  0
   20.1630   -7.7056  -16.1467 C   0  0  0  0  0  0  0  0  0  0  0  0
   19.0371   -7.0833  -16.2071 O   0  0  0  0  0  0  0  0  0  0  0  0
   21.1181   -9.6163  -20.4821 O   0  0  0  0  0  0  0  0  0  0  0  0
   21.0950   -7.2783  -15.1988 N   0  0  0  0  0  0  0  0  0  0  0  0
   22.3411   -7.9272  -14.8587 C   0  0  0  0  0  0  0  0  0  0  0  0
   22.3439   -7.7448  -13.3257 C   0  0  0  0  0  0  0  0  0  0  0  0
   21.9447   -6.2928  -13.2182 C   0  0  0  0  0  0  0  0  0  0  0  0
   20.9728   -6.0982  -14.3313 C   0  0  1  0  0  0  0  0  0  0  0  0
   21.2973   -4.8642  -15.0634 C   0  0  0  0  0  0  0  0  0  0  0  0
   21.8881   -4.9307  -16.1612 O   0  0  0  0  0  0  0  0  0  0  0  0
   20.9592   -3.6243  -14.5569 O   0  0  0  0  0  0  0  0  0  0  0  0
  2  1  1  0
  2  3  1  0
  4  3  1  0
  5  4  1  0
  5  7  1  0
  5  6  1  1
  7  8  2  0
  9  7  1  0
  9 10  1  0
 10 14  1  0
 10 11  1  6
 12 11  1  0
 13 12  2  0
 14 15  2  0
 16 12  1  0
 17 21  1  0
 17 14  1  0
 18 17  1  0
 19 20  1  0
 19 18  1  0
 20 21  1  0
 21 22  1  6
 22 23  2  0
 22 24  1  0
M  END
$$$$
