MDP.pdb
     RDKit          3D

 24 24  0  0  1  0  0  0  0  0999 V2000
   23.4806  -21.8609   -7.6420 C   0  0  0  0  0  0  0  0  0  0  0  0
   24.0971  -21.9296   -9.3503 S   0  0  0  0  0  0  0  0  0  0  0  0
   25.8050  -21.3223   -9.3291 C   0  0  0  0  0  0  0  0  0  0  0  0
   26.3794  -21.2868  -10.7340 C   0  0  0  0  0  0  0  0  0  0  0  0
   25.5286  -20.3584  -11.5690 C   0  0  2  0  0  0  0  0  0  0  0  0
   24.3765  -21.0932  -12.0116 N   0  0  0  0  0  0  0  0  0  0  0  0
   26.3158  -19.8335  -12.7186 C   0  0  0  0  0  0  0  0  0  0  0  0
   27.4011  -19.2866  -12.4867 O   0  0  0  0  0  0  0  0  0  0  0  0
   25.7865  -19.9852  -14.0117 N   0  0  0  0  0  0  0  0  0  0  0  0
   26.3860  -19.5558  -15.2289 C   0  0  1  0  0  0  0  0  0  0  0  0
   26.5119  -20.6434  -16.2925 C   0  0  0  0  0  0  0  0  0  0  0  0
   27.2596  -21.8237  -15.8178 C   0  0  0  0  0  0  0  0  0  0  0  0
   26.7915  -22.8732  -15.3548 O   0  0  0  0  0  0  0  0  0  0  0  0
   25.8563  -18.2896  -15.7355 C   0  0  0  0  0  0  0  0  0  0  0  0
   24.5937  -18.0949  -15.5741 O   0  0  0  0  0  0  0  0  0  0  0  0
   28.6699  -21.7716  -15.8906 O   0  0  0  0  0  0  0  0  0  0  0  0
   26.5956  -17.2883  -16.3686 N   0  0  0  0  0  0  0  0  0  0  0  0
   28.0188  -17.2937  -16.6211 C   0  0  0  0  0  0  0  0  0  0  0  0
   28.3650  -15.8215  -16.3111 C   0  0  0  0  0  0  0  0  0  0  0  0
   27.2516  -15.1140  -17.0453 C   0  0  0  0  0  0  0  0  0  0  0  0
   26.0733  -16.0101  -16.8723 C   0  0  1  0  0  0  0  0  0  0  0  0
   25.3903  -16.1865  -18.1632 C   0  0  0  0  0  0  0  0  0  0  0  0
   25.5414  -17.2460  -18.8059 O   0  0  0  0  0  0  0  0  0  0  0  0
   24.5791  -15.1960  -18.6823 O   0  0  0  0  0  0  0  0  0  0  0  0
  2  1  1  0
  2  3  1  0
  4  3  1  0
  5  4  1  0
  5  7  1  0
  5  6  1  6
  7  8  2  0
  9  7  1  0
  9 10  1  0
 10 14  1  0
 10 11  1  6
 12 11  1  0
 13 12  2  0
 14 15  2  0
 16 12  1  0
 17 21  1  0
 17 14  1  0
 18 17  1  0
 19 20  1  0
 19 18  1  0
 20 21  1  0
 21 22  1  6
 22 23  2  0
 22 24  1  0
M  END
$$$$
