MDP.pdb
     RDKit          3D

 24 24  0  0  1  0  0  0  0  0999 V2000
   30.4276  -17.8008  -18.6871 C   0  0  0  0  0  0  0  0  0  0  0  0
   28.8401  -17.5270  -17.8458 S   0  0  0  0  0  0  0  0  0  0  0  0
   28.9424  -18.3406  -16.2291 C   0  0  0  0  0  0  0  0  0  0  0  0
   27.6595  -18.1365  -15.4434 C   0  0  0  0  0  0  0  0  0  0  0  0
   26.8043  -19.3715  -15.6059 C   0  0  2  0  0  0  0  0  0  0  0  0
   26.3734  -19.4337  -16.9747 N   0  0  0  0  0  0  0  0  0  0  0  0
   25.6465  -19.3223  -14.6711 C   0  0  0  0  0  0  0  0  0  0  0  0
   24.6724  -18.6241  -14.9785 O   0  0  0  0  0  0  0  0  0  0  0  0
   25.7174  -20.0720  -13.4845 N   0  0  0  0  0  0  0  0  0  0  0  0
   24.6552  -20.3111  -12.5679 C   0  0  1  0  0  0  0  0  0  0  0  0
   23.3761  -20.8477  -13.2048 C   0  0  0  0  0  0  0  0  0  0  0  0
   22.3631  -19.7977  -13.4257 C   0  0  0  0  0  0  0  0  0  0  0  0
   21.3523  -19.5741  -12.7453 O   0  0  0  0  0  0  0  0  0  0  0  0
   25.0645  -21.0315  -11.3620 C   0  0  0  0  0  0  0  0  0  0  0  0
   25.4691  -22.2423  -11.5314 O   0  0  0  0  0  0  0  0  0  0  0  0
   22.5481  -18.9395  -14.5331 O   0  0  0  0  0  0  0  0  0  0  0  0
   25.0549  -20.5223  -10.0619 N   0  0  0  0  0  0  0  0  0  0  0  0
   24.8140  -19.1512   -9.6726 C   0  0  0  0  0  0  0  0  0  0  0  0
   25.8595  -18.9903   -8.5482 C   0  0  0  0  0  0  0  0  0  0  0  0
   25.6394  -20.2706   -7.7791 C   0  0  0  0  0  0  0  0  0  0  0  0
   25.3251  -21.2786   -8.8309 C   0  0  1  0  0  0  0  0  0  0  0  0
   24.1535  -22.0703   -8.4252 C   0  0  0  0  0  0  0  0  0  0  0  0
   24.2654  -22.9288   -7.5258 O   0  0  0  0  0  0  0  0  0  0  0  0
   22.9229  -21.8816   -9.0240 O   0  0  0  0  0  0  0  0  0  0  0  0
  2  1  1  0
  2  3  1  0
  4  3  1  0
  5  4  1  0
  5  7  1  0
  5  6  1  6
  7  8  2  0
  9  7  1  0
  9 10  1  0
 10 14  1  0
 10 11  1  6
 12 11  1  0
 13 12  2  0
 14 15  2  0
 16 12  1  0
 17 21  1  0
 17 14  1  0
 18 17  1  0
 19 20  1  0
 19 18  1  0
 20 21  1  0
 21 22  1  1
 22 23  2  0
 22 24  1  0
M  END
$$$$
