MDP.pdb
     RDKit          3D

 24 24  0  0  1  0  0  0  0  0999 V2000
   26.5217  -20.1261   -8.4131 C   0  0  0  0  0  0  0  0  0  0  0  0
   25.5950  -20.2778   -9.9690 S   0  0  0  0  0  0  0  0  0  0  0  0
   26.7542  -20.8765  -11.2276 C   0  0  0  0  0  0  0  0  0  0  0  0
   26.1307  -20.8029  -12.6099 C   0  0  0  0  0  0  0  0  0  0  0  0
   24.9203  -21.7071  -12.6311 C   0  0  2  0  0  0  0  0  0  0  0  0
   25.3831  -23.0626  -12.7393 N   0  0  0  0  0  0  0  0  0  0  0  0
   24.0263  -21.3437  -13.7648 C   0  0  0  0  0  0  0  0  0  0  0  0
   24.1693  -21.9388  -14.8400 O   0  0  0  0  0  0  0  0  0  0  0  0
   23.0632  -20.3413  -13.5575 N   0  0  0  0  0  0  0  0  0  0  0  0
   22.1288  -19.8526  -14.5133 C   0  0  1  0  0  0  0  0  0  0  0  0
   20.9332  -19.1174  -13.9134 C   0  0  0  0  0  0  0  0  0  0  0  0
   20.2830  -19.8744  -12.8264 C   0  0  0  0  0  0  0  0  0  0  0  0
   19.7873  -21.0078  -12.8925 O   0  0  0  0  0  0  0  0  0  0  0  0
   22.7461  -19.1579  -15.6432 C   0  0  0  0  0  0  0  0  0  0  0  0
   23.8096  -18.4800  -15.3832 O   0  0  0  0  0  0  0  0  0  0  0  0
   20.2064  -19.2544  -11.5588 O   0  0  0  0  0  0  0  0  0  0  0  0
   22.2857  -19.1699  -16.9615 N   0  0  0  0  0  0  0  0  0  0  0  0
   21.1741  -19.9338  -17.4816 C   0  0  0  0  0  0  0  0  0  0  0  0
   21.7512  -20.3790  -18.8426 C   0  0  0  0  0  0  0  0  0  0  0  0
   22.3488  -19.0807  -19.3288 C   0  0  0  0  0  0  0  0  0  0  0  0
   22.8675  -18.4317  -18.0914 C   0  0  1  0  0  0  0  0  0  0  0  0
   22.4644  -17.0172  -18.0665 C   0  0  0  0  0  0  0  0  0  0  0  0
   21.5683  -16.6407  -17.2830 O   0  0  0  0  0  0  0  0  0  0  0  0
   23.0617  -16.0904  -18.8987 O   0  0  0  0  0  0  0  0  0  0  0  0
  2  1  1  0
  2  3  1  0
  4  3  1  0
  5  4  1  0
  5  7  1  0
  5  6  1  6
  7  8  2  0
  9  7  1  0
  9 10  1  0
 10 14  1  0
 10 11  1  1
 12 11  1  0
 13 12  2  0
 14 15  2  0
 16 12  1  0
 17 21  1  0
 17 14  1  0
 18 17  1  0
 19 20  1  0
 19 18  1  0
 20 21  1  0
 21 22  1  1
 22 23  2  0
 22 24  1  0
M  END
$$$$
