MDP.pdb
     RDKit          3D

 24 24  0  0  1  0  0  0  0  0999 V2000
   28.9173  -20.4916   -5.5478 C   0  0  0  0  0  0  0  0  0  0  0  0
   27.4595  -19.4525   -5.2347 S   0  0  0  0  0  0  0  0  0  0  0  0
   26.3184  -19.6972   -6.6219 C   0  0  0  0  0  0  0  0  0  0  0  0
   27.0813  -19.8235   -7.9285 C   0  0  0  0  0  0  0  0  0  0  0  0
   26.0803  -20.0205   -9.0430 C   0  0  2  0  0  0  0  0  0  0  0  0
   25.2619  -21.1521   -8.7071 N   0  0  0  0  0  0  0  0  0  0  0  0
   26.7858  -20.2227  -10.3385 C   0  0  0  0  0  0  0  0  0  0  0  0
   28.0114  -20.0573  -10.3721 O   0  0  0  0  0  0  0  0  0  0  0  0
   26.0237  -20.5915  -11.4603 N   0  0  0  0  0  0  0  0  0  0  0  0
   26.4424  -20.5515  -12.8199 C   0  0  1  0  0  0  0  0  0  0  0  0
   26.6409  -21.9214  -13.4633 C   0  0  0  0  0  0  0  0  0  0  0  0
   27.1441  -21.8353  -14.8478 C   0  0  0  0  0  0  0  0  0  0  0  0
   26.4746  -21.7426  -15.8861 O   0  0  0  0  0  0  0  0  0  0  0  0
   25.6827  -19.6129  -13.6461 C   0  0  0  0  0  0  0  0  0  0  0  0
   24.4016  -19.6512  -13.5205 O   0  0  0  0  0  0  0  0  0  0  0  0
   28.5450  -21.8600  -15.0324 O   0  0  0  0  0  0  0  0  0  0  0  0
   26.2233  -18.6912  -14.5450 N   0  0  0  0  0  0  0  0  0  0  0  0
   27.6226  -18.5074  -14.8572 C   0  0  0  0  0  0  0  0  0  0  0  0
   27.6917  -16.9675  -14.9429 C   0  0  0  0  0  0  0  0  0  0  0  0
   26.4656  -16.6805  -15.7757 C   0  0  0  0  0  0  0  0  0  0  0  0
   25.4732  -17.6978  -15.3265 C   0  0  1  0  0  0  0  0  0  0  0  0
   24.8321  -18.3163  -16.4972 C   0  0  0  0  0  0  0  0  0  0  0  0
   25.1186  -19.4892  -16.8147 O   0  0  0  0  0  0  0  0  0  0  0  0
   23.9128  -17.6201  -17.2580 O   0  0  0  0  0  0  0  0  0  0  0  0
  2  1  1  0
  2  3  1  0
  4  3  1  0
  5  4  1  0
  5  7  1  0
  5  6  1  1
  7  8  2  0
  9  7  1  0
  9 10  1  0
 10 14  1  0
 10 11  1  6
 12 11  1  0
 13 12  2  0
 14 15  2  0
 16 12  1  0
 17 21  1  0
 17 14  1  0
 18 17  1  0
 19 20  1  0
 19 18  1  0
 20 21  1  0
 21 22  1  6
 22 23  2  0
 22 24  1  0
M  END
$$$$
