MDP.pdb
     RDKit          3D

 24 24  0  0  1  0  0  0  0  0999 V2000
   28.2117  -18.5045   -7.1807 C   0  0  0  0  0  0  0  0  0  0  0  0
   28.6146  -20.2425   -6.8347 S   0  0  0  0  0  0  0  0  0  0  0  0
   28.1799  -21.1984   -8.3123 C   0  0  0  0  0  0  0  0  0  0  0  0
   27.2541  -20.4014   -9.2139 C   0  0  0  0  0  0  0  0  0  0  0  0
   27.0122  -21.2042  -10.4709 C   0  0  2  0  0  0  0  0  0  0  0  0
   28.2892  -21.5070  -11.0546 N   0  0  0  0  0  0  0  0  0  0  0  0
   26.1496  -20.4385  -11.4125 C   0  0  0  0  0  0  0  0  0  0  0  0
   26.6294  -19.4456  -11.9735 O   0  0  0  0  0  0  0  0  0  0  0  0
   24.8318  -20.8818  -11.6174 N   0  0  0  0  0  0  0  0  0  0  0  0
   23.9554  -20.4800  -12.6643 C   0  0  1  0  0  0  0  0  0  0  0  0
   24.6281  -20.3057  -14.0233 C   0  0  0  0  0  0  0  0  0  0  0  0
   23.7037  -19.8054  -15.0590 C   0  0  0  0  0  0  0  0  0  0  0  0
   22.7964  -18.9738  -14.9178 O   0  0  0  0  0  0  0  0  0  0  0  0
   22.7057  -21.2392  -12.7144 C   0  0  0  0  0  0  0  0  0  0  0  0
   22.8123  -22.4955  -12.9766 O   0  0  0  0  0  0  0  0  0  0  0  0
   23.8532  -20.3202  -16.3665 O   0  0  0  0  0  0  0  0  0  0  0  0
   21.4256  -20.7228  -12.5028 N   0  0  0  0  0  0  0  0  0  0  0  0
   21.0844  -19.3461  -12.2241 C   0  0  0  0  0  0  0  0  0  0  0  0
   19.9845  -19.5392  -11.1582 C   0  0  0  0  0  0  0  0  0  0  0  0
   19.1640  -20.6316  -11.8007 C   0  0  0  0  0  0  0  0  0  0  0  0
   20.1717  -21.4894  -12.4864 C   0  0  1  0  0  0  0  0  0  0  0  0
   19.7170  -21.7943  -13.8518 C   0  0  0  0  0  0  0  0  0  0  0  0
   20.3053  -21.2882  -14.8297 O   0  0  0  0  0  0  0  0  0  0  0  0
   18.6442  -22.6355  -14.0753 O   0  0  0  0  0  0  0  0  0  0  0  0
  2  1  1  0
  2  3  1  0
  4  3  1  0
  5  4  1  0
  5  7  1  0
  5  6  1  6
  7  8  2  0
  9  7  1  0
  9 10  1  0
 10 14  1  0
 10 11  1  6
 12 11  1  0
 13 12  2  0
 14 15  2  0
 16 12  1  0
 17 21  1  0
 17 14  1  0
 18 17  1  0
 19 20  1  0
 19 18  1  0
 20 21  1  0
 21 22  1  6
 22 23  2  0
 22 24  1  0
M  END
$$$$
