TKQ.pdb
     RDKit          3D

 26 25  0  0  1  0  0  0  0  0999 V2000
   10.3671  -18.7778   18.5431 C   0  0  0  0  0  0  0  0  0  0  0  0
    9.1442  -19.4064   17.9098 C   0  0  1  0  0  0  0  0  0  0  0  0
    8.8505  -20.5993   18.5357 O   0  0  0  0  0  0  0  0  0  0  0  0
    7.9569  -18.4701   17.9459 C   0  0  2  0  0  0  0  0  0  0  0  0
    8.2616  -17.2604   17.2119 N   0  0  0  0  0  0  0  0  0  0  0  0
    7.6040  -18.0817   19.3328 C   0  0  0  0  0  0  0  0  0  0  0  0
    8.1350  -17.0877   19.9102 O   0  0  0  0  0  0  0  0  0  0  0  0
    6.6555  -18.8032   20.0811 N   0  0  0  0  0  0  0  0  0  0  0  0
    6.1699  -18.3262   21.3989 C   0  0  1  0  0  0  0  0  0  0  0  0
    4.8953  -19.0206   21.6483 C   0  0  0  0  0  0  0  0  0  0  0  0
    3.6843  -18.5926   20.9205 C   0  0  0  0  0  0  0  0  0  0  0  0
    2.5891  -19.6052   21.3205 C   0  0  0  0  0  0  0  0  0  0  0  0
    1.3138  -19.3253   20.5659 C   0  0  0  0  0  0  0  0  0  0  0  0
    0.2878  -20.2813   20.9388 N   0  0  0  0  0  0  0  0  0  0  0  0
    7.2540  -18.5085   22.3526 C   0  0  0  0  0  0  0  0  0  0  0  0
    7.8705  -19.5988   22.4221 O   0  0  0  0  0  0  0  0  0  0  0  0
   12.9234  -17.3207   21.8804 N   0  0  0  0  0  0  0  0  0  0  0  0
   11.7338  -16.6786   22.3258 C   0  0  0  0  0  0  0  0  0  0  0  0
   11.7771  -15.4023   22.3824 O   0  0  0  0  0  0  0  0  0  0  0  0
   10.5117  -17.4019   22.6986 C   0  0  0  0  0  0  0  0  0  0  0  0
    9.9174  -17.0587   24.0113 C   0  0  0  0  0  0  0  0  0  0  0  0
    8.6432  -17.7149   24.3298 C   0  0  2  0  0  0  0  0  0  0  0  0
    7.6648  -17.4764   23.2383 N   0  0  0  0  0  0  0  0  0  0  0  0
    8.0577  -17.4627   25.6299 C   0  0  0  0  0  0  0  0  0  0  0  0
    6.8327  -16.8776   25.9078 O   0  0  0  0  0  0  0  0  0  0  0  0
    8.7221  -17.7960   26.6784 O   0  0  0  0  0  0  0  0  0  0  0  0
  2  1  1  1
  2  4  1  0
  2  3  1  0
  4  5  1  6
  6  4  1  0
  7  6  2  0
  8  6  1  0
  9  8  1  0
  9 10  1  1
 10 11  1  0
 11 12  1  0
 12 13  1  0
 13 14  1  0
 15 23  1  0
 15  9  1  0
 16 15  2  0
 17 18  1  0
 18 19  2  0
 20 18  1  0
 20 21  1  0
 22 21  1  6
 22 23  1  0
 24 22  1  0
 24 25  1  0
 26 24  2  0
M  END
$$$$
