TKQ.pdb
     RDKit          3D

 26 25  0  0  1  0  0  0  0  0999 V2000
   14.8044  -16.6650   19.4911 C   0  0  0  0  0  0  0  0  0  0  0  0
   13.7796  -16.8562   20.5888 C   0  0  1  0  0  0  0  0  0  0  0  0
   14.3234  -16.5067   21.8066 O   0  0  0  0  0  0  0  0  0  0  0  0
   12.5180  -16.0686   20.3139 C   0  0  2  0  0  0  0  0  0  0  0  0
   12.8038  -14.6504   20.3572 N   0  0  0  0  0  0  0  0  0  0  0  0
   11.4640  -16.3492   21.3185 C   0  0  0  0  0  0  0  0  0  0  0  0
   11.3920  -15.7183   22.4142 O   0  0  0  0  0  0  0  0  0  0  0  0
   10.4850  -17.3368   21.1030 N   0  0  0  0  0  0  0  0  0  0  0  0
    9.4221  -17.6168   22.0988 C   0  0  1  0  0  0  0  0  0  0  0  0
    8.3320  -18.2837   21.3666 C   0  0  0  0  0  0  0  0  0  0  0  0
    7.2178  -18.8891   22.1225 C   0  0  0  0  0  0  0  0  0  0  0  0
    6.3051  -19.5340   21.0567 C   0  0  0  0  0  0  0  0  0  0  0  0
    5.0528  -20.0780   21.6970 C   0  0  0  0  0  0  0  0  0  0  0  0
    4.1638  -20.6185   20.6854 N   0  0  0  0  0  0  0  0  0  0  0  0
   10.0428  -18.3245   23.2087 C   0  0  0  0  0  0  0  0  0  0  0  0
   11.0403  -19.0620   23.0216 O   0  0  0  0  0  0  0  0  0  0  0  0
   12.2035  -16.4488   28.5936 N   0  0  0  0  0  0  0  0  0  0  0  0
   10.9901  -17.1255   28.9026 C   0  0  0  0  0  0  0  0  0  0  0  0
   10.5394  -16.9492   30.0858 O   0  0  0  0  0  0  0  0  0  0  0  0
   10.2683  -17.9752   27.9472 C   0  0  0  0  0  0  0  0  0  0  0  0
   10.8426  -18.0698   26.5850 C   0  0  0  0  0  0  0  0  0  0  0  0
   10.1580  -18.9840   25.6624 C   0  0  2  0  0  0  0  0  0  0  0  0
    9.5601  -18.2163   24.5405 N   0  0  0  0  0  0  0  0  0  0  0  0
    9.2125  -19.9277   26.2211 C   0  0  0  0  0  0  0  0  0  0  0  0
    9.4859  -21.0345   27.0086 O   0  0  0  0  0  0  0  0  0  0  0  0
    7.9617  -19.7633   25.9750 O   0  0  0  0  0  0  0  0  0  0  0  0
  2  1  1  6
  2  4  1  0
  2  3  1  0
  4  5  1  1
  6  4  1  0
  7  6  2  0
  8  6  1  0
  9  8  1  0
  9 10  1  6
 10 11  1  0
 11 12  1  0
 12 13  1  0
 13 14  1  0
 15 23  1  0
 15  9  1  0
 16 15  2  0
 17 18  1  0
 18 19  2  0
 20 18  1  0
 20 21  1  0
 22 21  1  1
 22 23  1  0
 24 22  1  0
 24 25  1  0
 26 24  2  0
M  END
$$$$
