TKQ.pdb
     RDKit          3D

 26 25  0  0  1  0  0  0  0  0999 V2000
   11.0955  -14.8719   19.7667 C   0  0  0  0  0  0  0  0  0  0  0  0
   10.3198  -13.6513   19.3195 C   0  0  1  0  0  0  0  0  0  0  0  0
   10.8506  -13.1601   18.1457 O   0  0  0  0  0  0  0  0  0  0  0  0
    8.8470  -13.9568   19.1609 C   0  0  2  0  0  0  0  0  0  0  0  0
    8.1441  -12.7729   18.7143 N   0  0  0  0  0  0  0  0  0  0  0  0
    8.2343  -14.3922   20.4391 C   0  0  0  0  0  0  0  0  0  0  0  0
    7.8589  -13.5662   21.3225 O   0  0  0  0  0  0  0  0  0  0  0  0
    8.0383  -15.7536   20.7360 N   0  0  0  0  0  0  0  0  0  0  0  0
    7.3430  -16.1944   21.9697 C   0  0  1  0  0  0  0  0  0  0  0  0
    6.9412  -17.5930   21.7432 C   0  0  0  0  0  0  0  0  0  0  0  0
    6.3436  -18.3623   22.8525 C   0  0  0  0  0  0  0  0  0  0  0  0
    6.0988  -19.7765   22.2823 C   0  0  0  0  0  0  0  0  0  0  0  0
    5.3831  -20.6346   23.2951 C   0  0  0  0  0  0  0  0  0  0  0  0
    5.0539  -21.9252   22.7188 N   0  0  0  0  0  0  0  0  0  0  0  0
    8.2225  -15.9014   23.0917 C   0  0  0  0  0  0  0  0  0  0  0  0
    9.4533  -16.1328   23.0192 O   0  0  0  0  0  0  0  0  0  0  0  0
    7.1974  -10.7844   26.8596 N   0  0  0  0  0  0  0  0  0  0  0  0
    6.5154  -11.8835   26.2657 C   0  0  0  0  0  0  0  0  0  0  0  0
    5.2528  -11.9270   26.4604 O   0  0  0  0  0  0  0  0  0  0  0  0
    7.1842  -12.9181   25.4668 C   0  0  0  0  0  0  0  0  0  0  0  0
    8.0274  -13.8824   26.2106 C   0  0  0  0  0  0  0  0  0  0  0  0
    8.6516  -14.9413   25.4075 C   0  0  2  0  0  0  0  0  0  0  0  0
    7.7402  -15.3447   24.3066 N   0  0  0  0  0  0  0  0  0  0  0  0
    9.1842  -16.0941   26.1030 C   0  0  0  0  0  0  0  0  0  0  0  0
    8.8456  -17.4251   25.9189 O   0  0  0  0  0  0  0  0  0  0  0  0
   10.0714  -15.9067   27.0139 O   0  0  0  0  0  0  0  0  0  0  0  0
  2  1  1  6
  2  4  1  0
  2  3  1  0
  4  5  1  1
  6  4  1  0
  7  6  2  0
  8  6  1  0
  9  8  1  0
  9 10  1  6
 10 11  1  0
 11 12  1  0
 12 13  1  0
 13 14  1  0
 15 23  1  0
 15  9  1  0
 16 15  2  0
 17 18  1  0
 18 19  2  0
 20 18  1  0
 20 21  1  0
 22 21  1  1
 22 23  1  0
 24 22  1  0
 24 25  1  0
 26 24  2  0
M  END
$$$$
