TKQ.pdb
     RDKit          3D

 26 25  0  0  1  0  0  0  0  0999 V2000
    8.0995  -19.4894   16.3394 C   0  0  0  0  0  0  0  0  0  0  0  0
    8.6205  -18.4112   17.2655 C   0  0  1  0  0  0  0  0  0  0  0  0
    7.9109  -17.2444   17.0759 O   0  0  0  0  0  0  0  0  0  0  0  0
    8.5663  -18.8482   18.7125 C   0  0  2  0  0  0  0  0  0  0  0  0
    7.1951  -19.1061   19.0976 N   0  0  0  0  0  0  0  0  0  0  0  0
    9.1043  -17.8080   19.6221 C   0  0  0  0  0  0  0  0  0  0  0  0
   10.3273  -17.4798   19.6223 O   0  0  0  0  0  0  0  0  0  0  0  0
    8.2772  -17.1295   20.5363 N   0  0  0  0  0  0  0  0  0  0  0  0
    8.8251  -16.1710   21.5267 C   0  0  1  0  0  0  0  0  0  0  0  0
    7.7232  -15.2581   21.8752 C   0  0  0  0  0  0  0  0  0  0  0  0
    7.1301  -14.4067   20.8252 C   0  0  0  0  0  0  0  0  0  0  0  0
    8.2906  -13.5283   20.3089 C   0  0  0  0  0  0  0  0  0  0  0  0
    7.8133  -12.6268   19.1982 C   0  0  0  0  0  0  0  0  0  0  0  0
    8.9016  -11.7922   18.7241 N   0  0  0  0  0  0  0  0  0  0  0  0
    9.4392  -16.9507   22.5912 C   0  0  0  0  0  0  0  0  0  0  0  0
    8.8401  -17.9303   23.0962 O   0  0  0  0  0  0  0  0  0  0  0  0
   15.4380  -18.5549   22.8095 N   0  0  0  0  0  0  0  0  0  0  0  0
   14.3803  -19.5071   22.8296 C   0  0  0  0  0  0  0  0  0  0  0  0
   14.6811  -20.6827   22.4275 O   0  0  0  0  0  0  0  0  0  0  0  0
   13.0185  -19.1985   23.2835 C   0  0  0  0  0  0  0  0  0  0  0  0
   12.7663  -17.8021   23.7087 C   0  0  0  0  0  0  0  0  0  0  0  0
   11.3922  -17.4970   24.1262 C   0  0  2  0  0  0  0  0  0  0  0  0
   10.7295  -16.6485   23.1034 N   0  0  0  0  0  0  0  0  0  0  0  0
   11.1903  -16.9726   25.4607 C   0  0  0  0  0  0  0  0  0  0  0  0
   11.3364  -17.6425   26.6648 O   0  0  0  0  0  0  0  0  0  0  0  0
   10.8222  -15.7480   25.5906 O   0  0  0  0  0  0  0  0  0  0  0  0
  2  1  1  6
  2  4  1  0
  2  3  1  0
  4  5  1  1
  6  4  1  0
  7  6  2  0
  8  6  1  0
  9  8  1  0
  9 10  1  1
 10 11  1  0
 11 12  1  0
 12 13  1  0
 13 14  1  0
 15 23  1  0
 15  9  1  0
 16 15  2  0
 17 18  1  0
 18 19  2  0
 20 18  1  0
 20 21  1  0
 22 21  1  6
 22 23  1  0
 24 22  1  0
 24 25  1  0
 26 24  2  0
M  END
$$$$
