TKQ.pdb
     RDKit          3D

 26 25  0  0  1  0  0  0  0  0999 V2000
    6.0508  -16.2558   26.9365 C   0  0  0  0  0  0  0  0  0  0  0  0
    6.9768  -16.1275   25.7459 C   0  0  1  0  0  0  0  0  0  0  0  0
    8.2115  -16.6602   26.0502 O   0  0  0  0  0  0  0  0  0  0  0  0
    6.3929  -16.7843   24.5149 C   0  0  2  0  0  0  0  0  0  0  0  0
    6.2157  -18.2014   24.7505 N   0  0  0  0  0  0  0  0  0  0  0  0
    7.2780  -16.6283   23.3355 C   0  0  0  0  0  0  0  0  0  0  0  0
    8.0690  -17.5434   22.9605 O   0  0  0  0  0  0  0  0  0  0  0  0
    7.2830  -15.4481   22.5692 N   0  0  0  0  0  0  0  0  0  0  0  0
    8.3068  -15.1954   21.5263 C   0  0  1  0  0  0  0  0  0  0  0  0
    7.7741  -14.1197   20.6729 C   0  0  0  0  0  0  0  0  0  0  0  0
    8.6214  -13.5604   19.6011 C   0  0  0  0  0  0  0  0  0  0  0  0
    7.7930  -13.7110   18.3065 C   0  0  0  0  0  0  0  0  0  0  0  0
    8.5851  -13.2291   17.1170 C   0  0  0  0  0  0  0  0  0  0  0  0
    7.7626  -13.2517   15.9217 N   0  0  0  0  0  0  0  0  0  0  0  0
    9.5739  -14.9737   22.2070 C   0  0  0  0  0  0  0  0  0  0  0  0
    9.6125  -14.3879   23.3156 O   0  0  0  0  0  0  0  0  0  0  0  0
   10.8780  -19.2902   25.0573 N   0  0  0  0  0  0  0  0  0  0  0  0
   12.0715  -18.5352   25.2346 C   0  0  0  0  0  0  0  0  0  0  0  0
   12.7560  -18.8118   26.2782 O   0  0  0  0  0  0  0  0  0  0  0  0
   12.5248  -17.5008   24.2963 C   0  0  0  0  0  0  0  0  0  0  0  0
   11.4725  -16.8231   23.5040 C   0  0  0  0  0  0  0  0  0  0  0  0
   11.9437  -15.8439   22.5167 C   0  0  2  0  0  0  0  0  0  0  0  0
   10.8126  -15.4046   21.6606 N   0  0  0  0  0  0  0  0  0  0  0  0
   13.1057  -16.1868   21.7238 C   0  0  0  0  0  0  0  0  0  0  0  0
   14.4396  -16.0425   22.0700 O   0  0  0  0  0  0  0  0  0  0  0  0
   12.9255  -16.6771   20.5494 O   0  0  0  0  0  0  0  0  0  0  0  0
  2  1  1  1
  2  4  1  0
  2  3  1  0
  4  5  1  1
  6  4  1  0
  7  6  2  0
  8  6  1  0
  9  8  1  0
  9 10  1  1
 10 11  1  0
 11 12  1  0
 12 13  1  0
 13 14  1  0
 15 23  1  0
 15  9  1  0
 16 15  2  0
 17 18  1  0
 18 19  2  0
 20 18  1  0
 20 21  1  0
 22 21  1  6
 22 23  1  0
 24 22  1  0
 24 25  1  0
 26 24  2  0
M  END
$$$$
