TKQ.pdb
     RDKit          3D

 26 25  0  0  1  0  0  0  0  0999 V2000
    9.2013  -12.5604   18.0033 C   0  0  0  0  0  0  0  0  0  0  0  0
    9.1901  -13.5580   19.1419 C   0  0  1  0  0  0  0  0  0  0  0  0
    9.6521  -12.9608   20.2956 O   0  0  0  0  0  0  0  0  0  0  0  0
    7.8125  -14.1459   19.3516 C   0  0  2  0  0  0  0  0  0  0  0  0
    6.8498  -13.0841   19.5538 N   0  0  0  0  0  0  0  0  0  0  0  0
    7.7668  -15.0312   20.5404 C   0  0  0  0  0  0  0  0  0  0  0  0
    7.1493  -14.7085   21.5978 O   0  0  0  0  0  0  0  0  0  0  0  0
    8.4116  -16.2818   20.5527 N   0  0  0  0  0  0  0  0  0  0  0  0
    8.3663  -17.1751   21.7358 C   0  0  1  0  0  0  0  0  0  0  0  0
    8.6836  -18.5279   21.2476 C   0  0  0  0  0  0  0  0  0  0  0  0
    8.8658  -19.6234   22.2203 C   0  0  0  0  0  0  0  0  0  0  0  0
    9.1232  -20.8858   21.3689 C   0  0  0  0  0  0  0  0  0  0  0  0
    9.3393  -22.0843   22.2583 C   0  0  0  0  0  0  0  0  0  0  0  0
    9.5877  -23.2682   21.4567 N   0  0  0  0  0  0  0  0  0  0  0  0
    9.2246  -16.5895   22.7548 C   0  0  0  0  0  0  0  0  0  0  0  0
   10.3389  -16.0998   22.4508 O   0  0  0  0  0  0  0  0  0  0  0  0
    8.5816  -12.8825   27.7362 N   0  0  0  0  0  0  0  0  0  0  0  0
    7.8061  -13.1431   26.5715 C   0  0  0  0  0  0  0  0  0  0  0  0
    7.0067  -12.2117   26.2143 O   0  0  0  0  0  0  0  0  0  0  0  0
    7.8959  -14.3880   25.7981 C   0  0  0  0  0  0  0  0  0  0  0  0
    8.9236  -15.3617   26.2338 C   0  0  0  0  0  0  0  0  0  0  0  0
    9.7344  -15.9596   25.1657 C   0  0  2  0  0  0  0  0  0  0  0  0
    8.8495  -16.5408   24.1243 N   0  0  0  0  0  0  0  0  0  0  0  0
   10.7814  -16.8843   25.5469 C   0  0  0  0  0  0  0  0  0  0  0  0
   12.0816  -16.5840   25.9204 O   0  0  0  0  0  0  0  0  0  0  0  0
   10.5211  -18.1429   25.5434 O   0  0  0  0  0  0  0  0  0  0  0  0
  2  1  1  6
  2  4  1  0
  2  3  1  0
  4  5  1  1
  6  4  1  0
  7  6  2  0
  8  6  1  0
  9  8  1  0
  9 10  1  6
 10 11  1  0
 11 12  1  0
 12 13  1  0
 13 14  1  0
 15 23  1  0
 15  9  1  0
 16 15  2  0
 17 18  1  0
 18 19  2  0
 20 18  1  0
 20 21  1  0
 22 21  1  1
 22 23  1  0
 24 22  1  0
 24 25  1  0
 26 24  2  0
M  END
$$$$
