TKQ.pdb
     RDKit          3D

 26 25  0  0  1  0  0  0  0  0999 V2000
   10.2346  -12.6401   17.9946 C   0  0  0  0  0  0  0  0  0  0  0  0
   10.0625  -13.6113   19.1430 C   0  0  1  0  0  0  0  0  0  0  0  0
   10.5918  -13.0742   20.2972 O   0  0  0  0  0  0  0  0  0  0  0  0
    8.6109  -13.9887   19.3382 C   0  0  2  0  0  0  0  0  0  0  0  0
    7.8202  -12.7991   19.5714 N   0  0  0  0  0  0  0  0  0  0  0  0
    8.4281  -14.8895   20.5019 C   0  0  0  0  0  0  0  0  0  0  0  0
    7.8938  -14.4969   21.5808 O   0  0  0  0  0  0  0  0  0  0  0  0
    8.8418  -16.2340   20.4649 N   0  0  0  0  0  0  0  0  0  0  0  0
    8.6638  -17.1407   21.6251 C   0  0  1  0  0  0  0  0  0  0  0  0
    8.6853  -18.5119   21.0880 C   0  0  0  0  0  0  0  0  0  0  0  0
    8.7499  -19.6533   22.0220 C   0  0  0  0  0  0  0  0  0  0  0  0
    8.8044  -20.9102   21.1264 C   0  0  0  0  0  0  0  0  0  0  0  0
    8.8932  -22.1551   21.9730 C   0  0  0  0  0  0  0  0  0  0  0  0
    7.6671  -22.3399   22.7269 N   0  0  0  0  0  0  0  0  0  0  0  0
    9.6603  -16.7729   22.6200 C   0  0  0  0  0  0  0  0  0  0  0  0
   10.7938  -16.3635   22.2716 O   0  0  0  0  0  0  0  0  0  0  0  0
    8.4266  -13.9559   28.1420 N   0  0  0  0  0  0  0  0  0  0  0  0
    9.7835  -14.3729   28.2457 C   0  0  0  0  0  0  0  0  0  0  0  0
   10.3783  -14.0686   29.3355 O   0  0  0  0  0  0  0  0  0  0  0  0
   10.4878  -15.1141   27.1919 C   0  0  0  0  0  0  0  0  0  0  0  0
    9.6672  -15.5699   26.0460 C   0  0  0  0  0  0  0  0  0  0  0  0
   10.3707  -16.3586   25.0268 C   0  0  2  0  0  0  0  0  0  0  0  0
    9.4037  -16.8550   24.0149 N   0  0  0  0  0  0  0  0  0  0  0  0
   11.2540  -17.4138   25.4772 C   0  0  0  0  0  0  0  0  0  0  0  0
   12.5820  -17.3020   25.8567 O   0  0  0  0  0  0  0  0  0  0  0  0
   10.7971  -18.6135   25.5384 O   0  0  0  0  0  0  0  0  0  0  0  0
  2  1  1  6
  2  4  1  0
  2  3  1  0
  4  5  1  1
  6  4  1  0
  7  6  2  0
  8  6  1  0
  9  8  1  0
  9 10  1  6
 10 11  1  0
 11 12  1  0
 12 13  1  0
 13 14  1  0
 15 23  1  0
 15  9  1  0
 16 15  2  0
 17 18  1  0
 18 19  2  0
 20 18  1  0
 20 21  1  0
 22 21  1  1
 22 23  1  0
 24 22  1  0
 24 25  1  0
 26 24  2  0
M  END
$$$$
