TKQ.pdb
     RDKit          3D

 26 25  0  0  1  0  0  0  0  0999 V2000
   14.1405  -18.6553   17.6714 C   0  0  0  0  0  0  0  0  0  0  0  0
   14.5679  -17.6529   16.6207 C   0  0  1  0  0  0  0  0  0  0  0  0
   14.9066  -18.3076   15.4555 O   0  0  0  0  0  0  0  0  0  0  0  0
   13.4918  -16.6206   16.3678 C   0  0  2  0  0  0  0  0  0  0  0  0
   13.9352  -15.6851   15.3563 N   0  0  0  0  0  0  0  0  0  0  0  0
   13.1727  -15.8468   17.5918 C   0  0  0  0  0  0  0  0  0  0  0  0
   13.9584  -14.9707   18.0594 O   0  0  0  0  0  0  0  0  0  0  0  0
   11.9732  -16.0488   18.2992 N   0  0  0  0  0  0  0  0  0  0  0  0
   11.6846  -15.3413   19.5704 C   0  0  1  0  0  0  0  0  0  0  0  0
   10.2433  -15.0386   19.5596 C   0  0  0  0  0  0  0  0  0  0  0  0
    9.7382  -13.9571   18.6909 C   0  0  0  0  0  0  0  0  0  0  0  0
    8.2042  -13.9748   18.8682 C   0  0  0  0  0  0  0  0  0  0  0  0
    7.5680  -12.8797   18.0493 C   0  0  0  0  0  0  0  0  0  0  0  0
    6.1235  -12.9283   18.1791 N   0  0  0  0  0  0  0  0  0  0  0  0
   12.2101  -16.1610   20.6521 C   0  0  0  0  0  0  0  0  0  0  0  0
   11.9949  -17.3965   20.6834 O   0  0  0  0  0  0  0  0  0  0  0  0
   17.5955  -15.3882   23.8145 N   0  0  0  0  0  0  0  0  0  0  0  0
   17.2404  -16.0039   22.5813 C   0  0  0  0  0  0  0  0  0  0  0  0
   18.2065  -16.2420   21.7787 O   0  0  0  0  0  0  0  0  0  0  0  0
   15.8635  -16.3645   22.2208 C   0  0  0  0  0  0  0  0  0  0  0  0
   14.8175  -16.0548   23.2229 C   0  0  0  0  0  0  0  0  0  0  0  0
   13.4469  -16.4342   22.8577 C   0  0  2  0  0  0  0  0  0  0  0  0
   12.9837  -15.6130   21.7103 N   0  0  0  0  0  0  0  0  0  0  0  0
   12.4537  -16.4810   23.9103 C   0  0  0  0  0  0  0  0  0  0  0  0
   12.4194  -17.3299   25.0049 O   0  0  0  0  0  0  0  0  0  0  0  0
   11.4639  -15.6627   23.8582 O   0  0  0  0  0  0  0  0  0  0  0  0
  2  1  1  1
  2  4  1  0
  2  3  1  0
  4  5  1  6
  6  4  1  0
  7  6  2  0
  8  6  1  0
  9  8  1  0
  9 10  1  1
 10 11  1  0
 11 12  1  0
 12 13  1  0
 13 14  1  0
 15 23  1  0
 15  9  1  0
 16 15  2  0
 17 18  1  0
 18 19  2  0
 20 18  1  0
 20 21  1  0
 22 21  1  1
 22 23  1  0
 24 22  1  0
 24 25  1  0
 26 24  2  0
M  END
$$$$
