TKQ.pdb
     RDKit          3D

 26 25  0  0  1  0  0  0  0  0999 V2000
   18.1207  -14.9077   16.6184 C   0  0  0  0  0  0  0  0  0  0  0  0
   16.6475  -15.1281   16.3486 C   0  0  1  0  0  0  0  0  0  0  0  0
   16.4366  -15.2974   14.9966 O   0  0  0  0  0  0  0  0  0  0  0  0
   16.1096  -16.3052   17.1314 C   0  0  2  0  0  0  0  0  0  0  0  0
   15.5143  -17.2664   16.2278 N   0  0  0  0  0  0  0  0  0  0  0  0
   15.0682  -15.8909   18.1024 C   0  0  0  0  0  0  0  0  0  0  0  0
   15.2852  -15.0150   18.9908 O   0  0  0  0  0  0  0  0  0  0  0  0
   13.7788  -16.4540   18.0848 N   0  0  0  0  0  0  0  0  0  0  0  0
   12.7822  -16.1629   19.1439 C   0  0  1  0  0  0  0  0  0  0  0  0
   11.6028  -16.9926   18.8441 C   0  0  0  0  0  0  0  0  0  0  0  0
   10.4284  -16.9292   19.7364 C   0  0  0  0  0  0  0  0  0  0  0  0
    9.4087  -17.9235   19.1394 C   0  0  0  0  0  0  0  0  0  0  0  0
    8.1516  -17.9501   19.9719 C   0  0  0  0  0  0  0  0  0  0  0  0
    7.1197  -18.7191   19.3013 N   0  0  0  0  0  0  0  0  0  0  0  0
   13.4463  -16.3441   20.4262 C   0  0  0  0  0  0  0  0  0  0  0  0
   14.5821  -16.8728   20.4912 O   0  0  0  0  0  0  0  0  0  0  0  0
   17.3776  -17.7051   24.6263 N   0  0  0  0  0  0  0  0  0  0  0  0
   17.0650  -16.6669   23.7042 C   0  0  0  0  0  0  0  0  0  0  0  0
   17.8247  -15.6396   23.7430 O   0  0  0  0  0  0  0  0  0  0  0  0
   15.9529  -16.7379   22.7481 C   0  0  0  0  0  0  0  0  0  0  0  0
   14.9466  -15.6536   22.8263 C   0  0  0  0  0  0  0  0  0  0  0  0
   13.5487  -16.0839   22.9542 C   0  0  2  0  0  0  0  0  0  0  0  0
   12.8527  -15.9357   21.6507 N   0  0  0  0  0  0  0  0  0  0  0  0
   12.7656  -15.5291   24.0384 C   0  0  0  0  0  0  0  0  0  0  0  0
   11.5438  -14.8809   23.9550 O   0  0  0  0  0  0  0  0  0  0  0  0
   13.2245  -15.6172   25.2358 O   0  0  0  0  0  0  0  0  0  0  0  0
  2  1  1  6
  2  4  1  0
  2  3  1  0
  4  5  1  6
  6  4  1  0
  7  6  2  0
  8  6  1  0
  9  8  1  0
  9 10  1  1
 10 11  1  0
 11 12  1  0
 12 13  1  0
 13 14  1  0
 15 23  1  0
 15  9  1  0
 16 15  2  0
 17 18  1  0
 18 19  2  0
 20 18  1  0
 20 21  1  0
 22 21  1  6
 22 23  1  0
 24 22  1  0
 24 25  1  0
 26 24  2  0
M  END
$$$$
