TKQ.pdb
     RDKit          3D

 26 25  0  0  1  0  0  0  0  0999 V2000
    9.3347  -17.5393   17.6745 C   0  0  0  0  0  0  0  0  0  0  0  0
    8.1916  -17.2269   18.6165 C   0  0  1  0  0  0  0  0  0  0  0  0
    7.0259  -17.7935   18.1464 O   0  0  0  0  0  0  0  0  0  0  0  0
    8.4894  -17.6918   20.0246 C   0  0  2  0  0  0  0  0  0  0  0  0
    8.3622  -19.1313   20.1047 N   0  0  0  0  0  0  0  0  0  0  0  0
    7.5531  -17.0987   21.0097 C   0  0  0  0  0  0  0  0  0  0  0  0
    7.4227  -15.8465   21.1466 O   0  0  0  0  0  0  0  0  0  0  0  0
    6.7577  -17.9029   21.8468 N   0  0  0  0  0  0  0  0  0  0  0  0
    5.7834  -17.3181   22.8000 C   0  0  1  0  0  0  0  0  0  0  0  0
    4.5666  -18.1429   22.7089 C   0  0  0  0  0  0  0  0  0  0  0  0
    3.9491  -18.3771   21.3886 C   0  0  0  0  0  0  0  0  0  0  0  0
    2.7366  -19.2935   21.6627 C   0  0  0  0  0  0  0  0  0  0  0  0
    2.0445  -19.6494   20.3709 C   0  0  0  0  0  0  0  0  0  0  0  0
    0.9248  -20.5362   20.6272 N   0  0  0  0  0  0  0  0  0  0  0  0
    6.4495  -17.2097   24.0894 C   0  0  0  0  0  0  0  0  0  0  0  0
    5.7878  -17.2094   25.1551 O   0  0  0  0  0  0  0  0  0  0  0  0
    7.9709  -20.7763   27.7740 N   0  0  0  0  0  0  0  0  0  0  0  0
    8.5874  -19.6351   28.3600 C   0  0  0  0  0  0  0  0  0  0  0  0
    8.9714  -19.7697   29.5718 O   0  0  0  0  0  0  0  0  0  0  0  0
    8.7936  -18.3680   27.6473 C   0  0  0  0  0  0  0  0  0  0  0  0
    8.1731  -18.2575   26.3069 C   0  0  0  0  0  0  0  0  0  0  0  0
    8.5458  -17.0731   25.5233 C   0  0  2  0  0  0  0  0  0  0  0  0
    7.8615  -17.1026   24.2056 N   0  0  0  0  0  0  0  0  0  0  0  0
    9.9547  -16.7706   25.3813 C   0  0  0  0  0  0  0  0  0  0  0  0
   10.8483  -16.4119   26.3778 O   0  0  0  0  0  0  0  0  0  0  0  0
   10.4786  -16.8188   24.2086 O   0  0  0  0  0  0  0  0  0  0  0  0
  2  1  1  6
  2  4  1  0
  2  3  1  0
  4  5  1  6
  6  4  1  0
  7  6  2  0
  8  6  1  0
  9  8  1  0
  9 10  1  1
 10 11  1  0
 11 12  1  0
 12 13  1  0
 13 14  1  0
 15 23  1  0
 15  9  1  0
 16 15  2  0
 17 18  1  0
 18 19  2  0
 20 18  1  0
 20 21  1  0
 22 21  1  6
 22 23  1  0
 24 22  1  0
 24 25  1  0
 26 24  2  0
M  END
$$$$
