TKQ.pdb
     RDKit          3D

 26 25  0  0  1  0  0  0  0  0999 V2000
    9.3977  -18.0037   17.2239 C   0  0  0  0  0  0  0  0  0  0  0  0
    9.6069  -17.0180   18.3536 C   0  0  1  0  0  0  0  0  0  0  0  0
    8.7050  -15.9807   18.2464 O   0  0  0  0  0  0  0  0  0  0  0  0
    9.4997  -17.6904   19.7042 C   0  0  2  0  0  0  0  0  0  0  0  0
    8.1346  -18.1107   19.9377 N   0  0  0  0  0  0  0  0  0  0  0  0
    9.8874  -16.7770   20.8061 C   0  0  0  0  0  0  0  0  0  0  0  0
   11.0315  -16.2374   20.8634 O   0  0  0  0  0  0  0  0  0  0  0  0
    8.9974  -16.4624   21.8497 N   0  0  0  0  0  0  0  0  0  0  0  0
    9.3400  -15.4729   22.9001 C   0  0  1  0  0  0  0  0  0  0  0  0
    8.0613  -14.9698   23.4301 C   0  0  0  0  0  0  0  0  0  0  0  0
    8.0721  -13.9678   24.5141 C   0  0  0  0  0  0  0  0  0  0  0  0
    6.5870  -13.7317   24.8658 C   0  0  0  0  0  0  0  0  0  0  0  0
    6.4607  -12.6628   25.9220 C   0  0  0  0  0  0  0  0  0  0  0  0
    5.0628  -12.4135   26.2216 N   0  0  0  0  0  0  0  0  0  0  0  0
   10.2629  -16.1197   23.8210 C   0  0  0  0  0  0  0  0  0  0  0  0
   10.6247  -17.3068   23.6382 O   0  0  0  0  0  0  0  0  0  0  0  0
   11.2114  -13.7438   29.7855 N   0  0  0  0  0  0  0  0  0  0  0  0
   11.4101  -15.1525   29.8284 C   0  0  0  0  0  0  0  0  0  0  0  0
   11.5284  -15.6635   30.9941 O   0  0  0  0  0  0  0  0  0  0  0  0
   11.4734  -16.0002   28.6312 C   0  0  0  0  0  0  0  0  0  0  0  0
   11.1898  -15.3361   27.3378 C   0  0  0  0  0  0  0  0  0  0  0  0
   11.2958  -16.1846   26.1443 C   0  0  2  0  0  0  0  0  0  0  0  0
   10.7949  -15.4495   24.9551 N   0  0  0  0  0  0  0  0  0  0  0  0
   10.7428  -17.5211   26.2120 C   0  0  0  0  0  0  0  0  0  0  0  0
   11.4305  -18.7159   26.3521 O   0  0  0  0  0  0  0  0  0  0  0  0
    9.4683  -17.6640   26.1264 O   0  0  0  0  0  0  0  0  0  0  0  0
  2  1  1  6
  2  4  1  0
  2  3  1  0
  4  5  1  1
  6  4  1  0
  7  6  2  0
  8  6  1  0
  9  8  1  0
  9 10  1  1
 10 11  1  0
 11 12  1  0
 12 13  1  0
 13 14  1  0
 15 23  1  0
 15  9  1  0
 16 15  2  0
 17 18  1  0
 18 19  2  0
 20 18  1  0
 20 21  1  0
 22 21  1  1
 22 23  1  0
 24 22  1  0
 24 25  1  0
 26 24  2  0
M  END
$$$$
