TKQ.pdb
     RDKit          3D

 26 25  0  0  1  0  0  0  0  0999 V2000
    6.9798  -14.8937   17.2838 C   0  0  0  0  0  0  0  0  0  0  0  0
    7.5123  -14.9484   18.6998 C   0  0  1  0  0  0  0  0  0  0  0  0
    8.6940  -15.6581   18.7312 O   0  0  0  0  0  0  0  0  0  0  0  0
    7.6981  -13.5629   19.2771 C   0  0  2  0  0  0  0  0  0  0  0  0
    8.5649  -12.7841   18.4186 N   0  0  0  0  0  0  0  0  0  0  0  0
    8.3153  -13.6063   20.6247 C   0  0  0  0  0  0  0  0  0  0  0  0
    9.5705  -13.5973   20.7918 O   0  0  0  0  0  0  0  0  0  0  0  0
    7.5319  -13.6598   21.7924 N   0  0  0  0  0  0  0  0  0  0  0  0
    8.1387  -13.8190   23.1364 C   0  0  1  0  0  0  0  0  0  0  0  0
    7.2223  -13.1652   24.0861 C   0  0  0  0  0  0  0  0  0  0  0  0
    7.5598  -13.1511   25.5232 C   0  0  0  0  0  0  0  0  0  0  0  0
    6.4184  -12.3629   26.2022 C   0  0  0  0  0  0  0  0  0  0  0  0
    6.6614  -12.2608   27.6870 C   0  0  0  0  0  0  0  0  0  0  0  0
    5.6086  -11.4863   28.3175 N   0  0  0  0  0  0  0  0  0  0  0  0
    8.4270  -15.2339   23.3174 C   0  0  0  0  0  0  0  0  0  0  0  0
    8.0423  -16.0799   22.4748 O   0  0  0  0  0  0  0  0  0  0  0  0
   12.3066  -17.1371   20.6542 N   0  0  0  0  0  0  0  0  0  0  0  0
   12.4908  -18.0825   21.7020 C   0  0  0  0  0  0  0  0  0  0  0  0
   13.3599  -18.9941   21.4838 O   0  0  0  0  0  0  0  0  0  0  0  0
   11.7532  -18.0420   22.9710 C   0  0  0  0  0  0  0  0  0  0  0  0
   10.8372  -16.8941   23.1643 C   0  0  0  0  0  0  0  0  0  0  0  0
    9.9939  -16.9415   24.3653 C   0  0  2  0  0  0  0  0  0  0  0  0
    9.1498  -15.7219   24.4390 N   0  0  0  0  0  0  0  0  0  0  0  0
   10.6360  -17.2184   25.6332 C   0  0  0  0  0  0  0  0  0  0  0  0
   11.1023  -16.3036   26.5637 O   0  0  0  0  0  0  0  0  0  0  0  0
   10.8247  -18.4438   25.9720 O   0  0  0  0  0  0  0  0  0  0  0  0
  2  1  1  6
  2  4  1  0
  2  3  1  0
  4  5  1  6
  6  4  1  0
  7  6  2  0
  8  6  1  0
  9  8  1  0
  9 10  1  1
 10 11  1  0
 11 12  1  0
 12 13  1  0
 13 14  1  0
 15 23  1  0
 15  9  1  0
 16 15  2  0
 17 18  1  0
 18 19  2  0
 20 18  1  0
 20 21  1  0
 22 21  1  6
 22 23  1  0
 24 22  1  0
 24 25  1  0
 26 24  2  0
M  END
$$$$
