TKQ.pdb
     RDKit          3D

 26 25  0  0  1  0  0  0  0  0999 V2000
    9.7249  -13.6811   17.6036 C   0  0  0  0  0  0  0  0  0  0  0  0
    9.4448  -14.2930   18.9596 C   0  0  1  0  0  0  0  0  0  0  0  0
   10.3660  -13.8400   19.8799 O   0  0  0  0  0  0  0  0  0  0  0  0
    8.0334  -14.0024   19.4191 C   0  0  2  0  0  0  0  0  0  0  0  0
    7.8345  -12.5726   19.5239 N   0  0  0  0  0  0  0  0  0  0  0  0
    7.7538  -14.5973   20.7483 C   0  0  0  0  0  0  0  0  0  0  0  0
    7.7554  -13.9067   21.8097 O   0  0  0  0  0  0  0  0  0  0  0  0
    7.4708  -15.9676   20.8973 N   0  0  0  0  0  0  0  0  0  0  0  0
    7.0190  -16.5384   22.1896 C   0  0  1  0  0  0  0  0  0  0  0  0
    6.4206  -17.8478   21.8790 C   0  0  0  0  0  0  0  0  0  0  0  0
    6.0370  -18.7479   22.9844 C   0  0  0  0  0  0  0  0  0  0  0  0
    5.4728  -20.0135   22.3024 C   0  0  0  0  0  0  0  0  0  0  0  0
    5.0406  -21.0203   23.3387 C   0  0  0  0  0  0  0  0  0  0  0  0
    4.4819  -22.1956   22.6966 N   0  0  0  0  0  0  0  0  0  0  0  0
    8.1517  -16.4956   23.1024 C   0  0  0  0  0  0  0  0  0  0  0  0
    9.3144  -16.7289   22.6933 O   0  0  0  0  0  0  0  0  0  0  0  0
    8.8287  -12.9814   28.4034 N   0  0  0  0  0  0  0  0  0  0  0  0
    9.7722  -14.0383   28.5391 C   0  0  0  0  0  0  0  0  0  0  0  0
   10.5044  -14.0007   29.5863 O   0  0  0  0  0  0  0  0  0  0  0  0
    9.9199  -15.1251   27.5629 C   0  0  0  0  0  0  0  0  0  0  0  0
    8.8845  -15.2073   26.5068 C   0  0  0  0  0  0  0  0  0  0  0  0
    9.1581  -16.1467   25.4121 C   0  0  2  0  0  0  0  0  0  0  0  0
    8.0014  -16.1899   24.4817 N   0  0  0  0  0  0  0  0  0  0  0  0
    9.6084  -17.4784   25.7589 C   0  0  0  0  0  0  0  0  0  0  0  0
    8.8293  -18.5894   26.0393 O   0  0  0  0  0  0  0  0  0  0  0  0
   10.8722  -17.6991   25.8369 O   0  0  0  0  0  0  0  0  0  0  0  0
  2  1  1  6
  2  4  1  0
  2  3  1  0
  4  5  1  1
  6  4  1  0
  7  6  2  0
  8  6  1  0
  9  8  1  0
  9 10  1  6
 10 11  1  0
 11 12  1  0
 12 13  1  0
 13 14  1  0
 15 23  1  0
 15  9  1  0
 16 15  2  0
 17 18  1  0
 18 19  2  0
 20 18  1  0
 20 21  1  0
 22 21  1  1
 22 23  1  0
 24 22  1  0
 24 25  1  0
 26 24  2  0
M  END
$$$$
