TKQ.pdb
     RDKit          3D

 26 25  0  0  1  0  0  0  0  0999 V2000
    8.0023  -21.2713   20.2608 C   0  0  0  0  0  0  0  0  0  0  0  0
    8.8526  -20.0372   20.4745 C   0  0  1  0  0  0  0  0  0  0  0  0
   10.1864  -20.3844   20.5082 O   0  0  0  0  0  0  0  0  0  0  0  0
    8.5922  -18.9928   19.4120 C   0  0  2  0  0  0  0  0  0  0  0  0
    8.9695  -19.5076   18.1130 N   0  0  0  0  0  0  0  0  0  0  0  0
    9.3732  -17.7555   19.6532 C   0  0  0  0  0  0  0  0  0  0  0  0
   10.5197  -17.5727   19.1475 O   0  0  0  0  0  0  0  0  0  0  0  0
    8.8760  -16.7163   20.4613 N   0  0  0  0  0  0  0  0  0  0  0  0
    9.6824  -15.5108   20.7715 C   0  0  1  0  0  0  0  0  0  0  0  0
    8.8018  -14.3522   20.5450 C   0  0  0  0  0  0  0  0  0  0  0  0
    8.4656  -13.9589   19.1624 C   0  0  0  0  0  0  0  0  0  0  0  0
    7.4193  -12.8317   19.3022 C   0  0  0  0  0  0  0  0  0  0  0  0
    6.9763  -12.3543   17.9420 C   0  0  0  0  0  0  0  0  0  0  0  0
    7.1621  -13.4021   16.9555 N   0  0  0  0  0  0  0  0  0  0  0  0
   10.2500  -15.6981   22.0984 C   0  0  0  0  0  0  0  0  0  0  0  0
    9.5205  -16.0118   23.0696 O   0  0  0  0  0  0  0  0  0  0  0  0
   11.0276  -20.4400   23.7520 N   0  0  0  0  0  0  0  0  0  0  0  0
   11.9955  -19.8888   24.6380 C   0  0  0  0  0  0  0  0  0  0  0  0
   12.4797  -20.6937   25.5051 O   0  0  0  0  0  0  0  0  0  0  0  0
   12.4409  -18.4906   24.5859 C   0  0  0  0  0  0  0  0  0  0  0  0
   11.8505  -17.6505   23.5182 C   0  0  0  0  0  0  0  0  0  0  0  0
   12.3230  -16.2616   23.4601 C   0  0  2  0  0  0  0  0  0  0  0  0
   11.6379  -15.5401   22.3575 N   0  0  0  0  0  0  0  0  0  0  0  0
   13.7525  -16.0328   23.4345 C   0  0  0  0  0  0  0  0  0  0  0  0
   14.6290  -16.0302   24.5078 O   0  0  0  0  0  0  0  0  0  0  0  0
   14.3160  -15.7900   22.3051 O   0  0  0  0  0  0  0  0  0  0  0  0
  2  1  1  6
  2  4  1  0
  2  3  1  0
  4  5  1  6
  6  4  1  0
  7  6  2  0
  8  6  1  0
  9  8  1  0
  9 10  1  1
 10 11  1  0
 11 12  1  0
 12 13  1  0
 13 14  1  0
 15 23  1  0
 15  9  1  0
 16 15  2  0
 17 18  1  0
 18 19  2  0
 20 18  1  0
 20 21  1  0
 22 21  1  6
 22 23  1  0
 24 22  1  0
 24 25  1  0
 26 24  2  0
M  END
$$$$
