TKQ.pdb
     RDKit          3D

 26 25  0  0  1  0  0  0  0  0999 V2000
    9.3918  -13.7187   17.7866 C   0  0  0  0  0  0  0  0  0  0  0  0
    9.0176  -14.3486   19.1113 C   0  0  1  0  0  0  0  0  0  0  0  0
    9.8102  -13.8366   20.1166 O   0  0  0  0  0  0  0  0  0  0  0  0
    7.5513  -14.1517   19.4253 C   0  0  2  0  0  0  0  0  0  0  0  0
    7.2515  -12.7382   19.5092 N   0  0  0  0  0  0  0  0  0  0  0  0
    7.1773  -14.7717   20.7193 C   0  0  0  0  0  0  0  0  0  0  0  0
    6.9981  -14.0858   21.7686 O   0  0  0  0  0  0  0  0  0  0  0  0
    7.0019  -16.1621   20.8466 N   0  0  0  0  0  0  0  0  0  0  0  0
    6.6403  -16.7910   22.1402 C   0  0  1  0  0  0  0  0  0  0  0  0
    6.3233  -18.1984   21.8438 C   0  0  0  0  0  0  0  0  0  0  0  0
    6.0426  -19.1263   22.9572 C   0  0  0  0  0  0  0  0  0  0  0  0
    5.6998  -20.4749   22.2873 C   0  0  0  0  0  0  0  0  0  0  0  0
    5.4116  -21.5227   23.3330 C   0  0  0  0  0  0  0  0  0  0  0  0
    5.0381  -22.7748   22.7017 N   0  0  0  0  0  0  0  0  0  0  0  0
    7.7180  -16.5081   23.0765 C   0  0  0  0  0  0  0  0  0  0  0  0
    8.9174  -16.6262   22.7285 O   0  0  0  0  0  0  0  0  0  0  0  0
    6.0551  -11.8712   26.7067 N   0  0  0  0  0  0  0  0  0  0  0  0
    6.9781  -12.8120   27.2441 C   0  0  0  0  0  0  0  0  0  0  0  0
    7.6483  -12.4180   28.2588 O   0  0  0  0  0  0  0  0  0  0  0  0
    7.1711  -14.1618   26.6996 C   0  0  0  0  0  0  0  0  0  0  0  0
    8.3679  -14.3648   25.8505 C   0  0  0  0  0  0  0  0  0  0  0  0
    8.5700  -15.7273   25.3422 C   0  0  2  0  0  0  0  0  0  0  0  0
    7.4708  -16.0879   24.4110 N   0  0  0  0  0  0  0  0  0  0  0  0
    8.8145  -16.7804   26.3054 C   0  0  0  0  0  0  0  0  0  0  0  0
    8.0876  -17.9458   26.4886 O   0  0  0  0  0  0  0  0  0  0  0  0
    9.8070  -16.6567   27.1127 O   0  0  0  0  0  0  0  0  0  0  0  0
  2  1  1  6
  2  4  1  0
  2  3  1  0
  4  5  1  1
  6  4  1  0
  7  6  2  0
  8  6  1  0
  9  8  1  0
  9 10  1  6
 10 11  1  0
 11 12  1  0
 12 13  1  0
 13 14  1  0
 15 23  1  0
 15  9  1  0
 16 15  2  0
 17 18  1  0
 18 19  2  0
 20 18  1  0
 20 21  1  0
 22 21  1  1
 22 23  1  0
 24 22  1  0
 24 25  1  0
 26 24  2  0
M  END
$$$$
