TKQ.pdb
     RDKit          3D

 26 25  0  0  1  0  0  0  0  0999 V2000
    9.4064  -16.2979   17.0526 C   0  0  0  0  0  0  0  0  0  0  0  0
    9.3768  -14.7903   17.1872 C   0  0  1  0  0  0  0  0  0  0  0  0
    9.3827  -14.2060   15.9384 O   0  0  0  0  0  0  0  0  0  0  0  0
    8.1845  -14.3282   17.9949 C   0  0  2  0  0  0  0  0  0  0  0  0
    8.1190  -12.8823   17.9924 N   0  0  0  0  0  0  0  0  0  0  0  0
    8.2690  -14.7754   19.4062 C   0  0  0  0  0  0  0  0  0  0  0  0
    9.0016  -14.1889   20.2564 O   0  0  0  0  0  0  0  0  0  0  0  0
    7.5346  -15.8808   19.8739 N   0  0  0  0  0  0  0  0  0  0  0  0
    7.7704  -16.4672   21.2157 C   0  0  1  0  0  0  0  0  0  0  0  0
    6.7808  -17.5459   21.3775 C   0  0  0  0  0  0  0  0  0  0  0  0
    6.8319  -18.3993   22.5810 C   0  0  0  0  0  0  0  0  0  0  0  0
    5.7786  -19.5033   22.3429 C   0  0  0  0  0  0  0  0  0  0  0  0
    5.6006  -20.3368   23.5870 C   0  0  0  0  0  0  0  0  0  0  0  0
    4.6231  -21.3842   23.3560 N   0  0  0  0  0  0  0  0  0  0  0  0
    9.1830  -16.8075   21.2982 C   0  0  0  0  0  0  0  0  0  0  0  0
    9.8544  -17.0157   20.2592 O   0  0  0  0  0  0  0  0  0  0  0  0
   12.6205  -13.2857   20.2670 N   0  0  0  0  0  0  0  0  0  0  0  0
   13.1916  -14.5779   20.0943 C   0  0  0  0  0  0  0  0  0  0  0  0
   14.1351  -14.6600   19.2357 O   0  0  0  0  0  0  0  0  0  0  0  0
   12.7565  -15.7644   20.8418 C   0  0  0  0  0  0  0  0  0  0  0  0
   11.7471  -15.5412   21.9027 C   0  0  0  0  0  0  0  0  0  0  0  0
   11.3330  -16.7321   22.6549 C   0  0  2  0  0  0  0  0  0  0  0  0
    9.8640  -16.9173   22.5403 N   0  0  0  0  0  0  0  0  0  0  0  0
   11.7763  -16.8541   24.0280 C   0  0  0  0  0  0  0  0  0  0  0  0
   13.0522  -17.1460   24.4830 O   0  0  0  0  0  0  0  0  0  0  0  0
   10.9160  -16.6897   24.9685 O   0  0  0  0  0  0  0  0  0  0  0  0
  2  1  1  6
  2  4  1  0
  2  3  1  0
  4  5  1  1
  6  4  1  0
  7  6  2  0
  8  6  1  0
  9  8  1  0
  9 10  1  6
 10 11  1  0
 11 12  1  0
 12 13  1  0
 13 14  1  0
 15 23  1  0
 15  9  1  0
 16 15  2  0
 17 18  1  0
 18 19  2  0
 20 18  1  0
 20 21  1  0
 22 21  1  1
 22 23  1  0
 24 22  1  0
 24 25  1  0
 26 24  2  0
M  END
$$$$
