NSE.pdb
     RDKit          3D

 24 23  0  0  1  0  0  0  0  0999 V2000
   13.3649  -10.0745  -16.9180 N   0  0  0  0  0  0  0  0  0  0  0  0
   14.6860  -10.2355  -16.4433 C   0  0  0  0  0  0  0  0  0  0  0  0
   15.5703  -10.4346  -17.3275 O   0  0  0  0  0  0  0  0  0  0  0  0
   15.0155  -10.1737  -15.0187 C   0  0  0  0  0  0  0  0  0  0  0  0
   16.3604  -10.7860  -14.7575 C   0  0  2  0  0  0  0  0  0  0  0  0
   16.1102  -12.2138  -14.5051 N   0  0  0  0  0  0  0  0  0  0  0  0
   16.8956  -10.2808  -13.4421 C   0  0  0  0  0  0  0  0  0  0  0  0
   16.4749  -10.7294  -12.3528 O   0  0  0  0  0  0  0  0  0  0  0  0
   19.3852   -7.1014  -13.3873 O   0  0  0  0  0  0  0  0  0  0  0  0
   19.7320   -8.0308  -12.4354 C   0  0  0  0  0  0  0  0  0  0  0  0
   18.4424   -8.8055  -12.0964 C   0  0  2  0  0  0  0  0  0  0  0  0
   17.9025   -9.2743  -13.3613 N   0  0  0  0  0  0  0  0  0  0  0  0
   17.4783   -7.8354  -11.5223 C   0  0  0  0  0  0  0  0  0  0  0  0
   16.3911   -7.5383  -12.1275 O   0  0  0  0  0  0  0  0  0  0  0  0
   17.6828   -7.1736  -10.2829 N   0  0  0  0  0  0  0  0  0  0  0  0
   16.7126   -6.2247   -9.7190 C   0  0  1  0  0  0  0  0  0  0  0  0
   15.3530   -6.7980   -9.6647 C   0  0  0  0  0  0  0  0  0  0  0  0
   14.2784   -6.0068   -9.0534 C   0  0  0  0  0  0  0  0  0  0  0  0
   12.9719   -6.6438   -8.9770 C   0  0  0  0  0  0  0  0  0  0  0  0
   12.6188   -7.7809   -9.2963 O   0  0  0  0  0  0  0  0  0  0  0  0
   17.2761   -5.5852   -8.5385 C   0  0  0  0  0  0  0  0  0  0  0  0
   16.6537   -4.6021   -7.9964 O   0  0  0  0  0  0  0  0  0  0  0  0
   11.9404   -5.8096   -8.4455 O   0  0  0  0  0  0  0  0  0  0  0  0
   18.4638   -5.9349   -7.9060 O   0  0  0  0  0  0  0  0  0  0  0  0
  2  1  1  0
  2  3  2  0
  4  2  1  0
  5  4  1  0
  5  6  1  1
  7  8  2  0
  7  5  1  0
  9 10  1  0
 11 10  1  6
 11 12  1  0
 12  7  1  0
 13 11  1  0
 13 15  1  0
 14 13  2  0
 16 15  1  0
 16 21  1  0
 16 17  1  1
 18 17  1  0
 19 23  1  0
 19 18  1  0
 20 19  2  0
 21 22  2  0
 21 24  1  0
M  END
$$$$
