NSE.pdb
     RDKit          3D

 24 23  0  0  1  0  0  0  0  0999 V2000
   17.0373  -11.2523  -19.7315 N   0  0  0  0  0  0  0  0  0  0  0  0
   16.4702  -11.1244  -18.4436 C   0  0  0  0  0  0  0  0  0  0  0  0
   15.2963  -11.5798  -18.3091 O   0  0  0  0  0  0  0  0  0  0  0  0
   17.1933  -10.5066  -17.3312 C   0  0  0  0  0  0  0  0  0  0  0  0
   18.2102  -11.4549  -16.7667 C   0  0  2  0  0  0  0  0  0  0  0  0
   17.4711  -12.3404  -15.8533 N   0  0  0  0  0  0  0  0  0  0  0  0
   19.1458  -10.7038  -15.8544 C   0  0  0  0  0  0  0  0  0  0  0  0
   18.7601  -10.2566  -14.7517 O   0  0  0  0  0  0  0  0  0  0  0  0
   22.8374   -9.8625  -17.1816 O   0  0  0  0  0  0  0  0  0  0  0  0
   22.8288   -9.9771  -15.8116 C   0  0  0  0  0  0  0  0  0  0  0  0
   21.3900   -9.6558  -15.3591 C   0  0  2  0  0  0  0  0  0  0  0  0
   20.5107  -10.4619  -16.1888 N   0  0  0  0  0  0  0  0  0  0  0  0
   21.1320   -8.2297  -15.6751 C   0  0  0  0  0  0  0  0  0  0  0  0
   20.8103   -7.8561  -16.8556 O   0  0  0  0  0  0  0  0  0  0  0  0
   21.2212   -7.1894  -14.7130 N   0  0  0  0  0  0  0  0  0  0  0  0
   21.0285   -5.7729  -15.0538 C   0  0  1  0  0  0  0  0  0  0  0  0
   19.6469   -5.3272  -14.7844 C   0  0  0  0  0  0  0  0  0  0  0  0
   19.3213   -3.9050  -14.9441 C   0  0  0  0  0  0  0  0  0  0  0  0
   17.9452   -3.5228  -14.6635 C   0  0  0  0  0  0  0  0  0  0  0  0
   16.9711   -4.2147  -14.3601 O   0  0  0  0  0  0  0  0  0  0  0  0
   22.1513   -4.9888  -14.5593 C   0  0  0  0  0  0  0  0  0  0  0  0
   22.4736   -3.9010  -15.1596 O   0  0  0  0  0  0  0  0  0  0  0  0
   17.6932   -2.1191  -14.7572 O   0  0  0  0  0  0  0  0  0  0  0  0
   22.9477   -5.3001  -13.4630 O   0  0  0  0  0  0  0  0  0  0  0  0
  2  1  1  0
  2  3  2  0
  4  2  1  0
  5  4  1  0
  5  6  1  1
  7  8  2  0
  7  5  1  0
  9 10  1  0
 11 10  1  6
 11 12  1  0
 12  7  1  0
 13 11  1  0
 13 15  1  0
 14 13  2  0
 16 15  1  0
 16 21  1  0
 16 17  1  1
 18 17  1  0
 19 23  1  0
 19 18  1  0
 20 19  2  0
 21 22  2  0
 21 24  1  0
M  END
$$$$
