NSE.pdb
     RDKit          3D

 24 23  0  0  1  0  0  0  0  0999 V2000
   20.7775  -14.8978  -17.9523 N   0  0  0  0  0  0  0  0  0  0  0  0
   21.2044  -15.1332  -16.6261 C   0  0  0  0  0  0  0  0  0  0  0  0
   20.9450  -16.2808  -16.1576 O   0  0  0  0  0  0  0  0  0  0  0  0
   21.9057  -14.1166  -15.8408 C   0  0  0  0  0  0  0  0  0  0  0  0
   22.0879  -12.8599  -16.6403 C   0  0  2  0  0  0  0  0  0  0  0  0
   23.1472  -13.1549  -17.6179 N   0  0  0  0  0  0  0  0  0  0  0  0
   22.6968  -11.7926  -15.7673 C   0  0  0  0  0  0  0  0  0  0  0  0
   22.1917  -11.4874  -14.6644 O   0  0  0  0  0  0  0  0  0  0  0  0
   26.5794  -10.5025  -15.5034 O   0  0  0  0  0  0  0  0  0  0  0  0
   25.7187   -9.5532  -16.0017 C   0  0  0  0  0  0  0  0  0  0  0  0
   24.3254   -9.8910  -15.4336 C   0  0  2  0  0  0  0  0  0  0  0  0
   23.8717  -11.0763  -16.1411 N   0  0  0  0  0  0  0  0  0  0  0  0
   23.4169   -8.7737  -15.7892 C   0  0  0  0  0  0  0  0  0  0  0  0
   22.7497   -8.7785  -16.8807 O   0  0  0  0  0  0  0  0  0  0  0  0
   23.2215   -7.6349  -14.9640 N   0  0  0  0  0  0  0  0  0  0  0  0
   22.1902   -6.6239  -15.2359 C   0  0  1  0  0  0  0  0  0  0  0  0
   20.8919   -7.2419  -15.5717 C   0  0  0  0  0  0  0  0  0  0  0  0
   19.7267   -6.3712  -15.7680 C   0  0  0  0  0  0  0  0  0  0  0  0
   18.4594   -7.0384  -16.0276 C   0  0  0  0  0  0  0  0  0  0  0  0
   17.7455   -7.7128  -15.2825 O   0  0  0  0  0  0  0  0  0  0  0  0
   22.2526   -5.5721  -14.2310 C   0  0  0  0  0  0  0  0  0  0  0  0
   22.7388   -5.8349  -13.0725 O   0  0  0  0  0  0  0  0  0  0  0  0
   17.9733   -6.8802  -17.3622 O   0  0  0  0  0  0  0  0  0  0  0  0
   21.8257   -4.2588  -14.3927 O   0  0  0  0  0  0  0  0  0  0  0  0
  2  1  1  0
  2  3  2  0
  4  2  1  0
  5  4  1  0
  5  6  1  6
  7  8  2  0
  7  5  1  0
  9 10  1  0
 11 10  1  6
 11 12  1  0
 12  7  1  0
 13 11  1  0
 13 15  1  0
 14 13  2  0
 16 15  1  0
 16 21  1  0
 16 17  1  1
 18 17  1  0
 19 23  1  0
 19 18  1  0
 20 19  2  0
 21 22  2  0
 21 24  1  0
M  END
$$$$
