NSE.pdb
     RDKit          3D

 24 23  0  0  1  0  0  0  0  0999 V2000
   21.5548  -11.4861  -22.2757 N   0  0  0  0  0  0  0  0  0  0  0  0
   20.9433  -10.2681  -21.9027 C   0  0  0  0  0  0  0  0  0  0  0  0
   20.3274   -9.6544  -22.8233 O   0  0  0  0  0  0  0  0  0  0  0  0
   21.0134   -9.7469  -20.5369 C   0  0  0  0  0  0  0  0  0  0  0  0
   21.8260  -10.6561  -19.6623 C   0  0  2  0  0  0  0  0  0  0  0  0
   20.9279  -11.7581  -19.2831 N   0  0  0  0  0  0  0  0  0  0  0  0
   22.1161   -9.9673  -18.3533 C   0  0  0  0  0  0  0  0  0  0  0  0
   21.2148   -9.7680  -17.5091 O   0  0  0  0  0  0  0  0  0  0  0  0
   25.6514   -8.0828  -17.7681 O   0  0  0  0  0  0  0  0  0  0  0  0
   25.2438   -8.7550  -16.6402 C   0  0  0  0  0  0  0  0  0  0  0  0
   23.7083   -8.8643  -16.7322 C   0  0  2  0  0  0  0  0  0  0  0  0
   23.4197   -9.5082  -18.0025 N   0  0  0  0  0  0  0  0  0  0  0  0
   23.1665   -7.4848  -16.7884 C   0  0  0  0  0  0  0  0  0  0  0  0
   22.8698   -6.9297  -17.9023 O   0  0  0  0  0  0  0  0  0  0  0  0
   22.9404   -6.6883  -15.6349 N   0  0  0  0  0  0  0  0  0  0  0  0
   22.3284   -5.3538  -15.6980 C   0  0  1  0  0  0  0  0  0  0  0  0
   21.1361   -5.3380  -16.5689 C   0  0  0  0  0  0  0  0  0  0  0  0
   19.8342   -5.6871  -15.9878 C   0  0  0  0  0  0  0  0  0  0  0  0
   18.6766   -5.5252  -16.8551 C   0  0  0  0  0  0  0  0  0  0  0  0
   18.6017   -5.1300  -18.0204 O   0  0  0  0  0  0  0  0  0  0  0  0
   22.2561   -4.7798  -14.3618 C   0  0  0  0  0  0  0  0  0  0  0  0
   21.9736   -3.5353  -14.2246 O   0  0  0  0  0  0  0  0  0  0  0  0
   17.4327   -5.8845  -16.2499 O   0  0  0  0  0  0  0  0  0  0  0  0
   22.4686   -5.4580  -13.1668 O   0  0  0  0  0  0  0  0  0  0  0  0
  2  1  1  0
  2  3  2  0
  4  2  1  0
  5  4  1  0
  5  6  1  1
  7  8  2  0
  7  5  1  0
  9 10  1  0
 11 10  1  6
 11 12  1  0
 12  7  1  0
 13 11  1  0
 13 15  1  0
 14 13  2  0
 16 15  1  0
 16 21  1  0
 16 17  1  1
 18 17  1  0
 19 23  1  0
 19 18  1  0
 20 19  2  0
 21 22  2  0
 21 24  1  0
M  END
$$$$
