NSE.pdb
     RDKit          3D

 24 23  0  0  1  0  0  0  0  0999 V2000
   15.8072  -13.7258  -15.9729 N   0  0  0  0  0  0  0  0  0  0  0  0
   16.6255  -12.6714  -16.4365 C   0  0  0  0  0  0  0  0  0  0  0  0
   16.4502  -12.3248  -17.6418 O   0  0  0  0  0  0  0  0  0  0  0  0
   17.6137  -12.0164  -15.5784 C   0  0  0  0  0  0  0  0  0  0  0  0
   18.2212  -10.8338  -16.2744 C   0  0  2  0  0  0  0  0  0  0  0  0
   19.2757  -11.3772  -17.1449 N   0  0  0  0  0  0  0  0  0  0  0  0
   18.9801   -9.9980  -15.2757 C   0  0  0  0  0  0  0  0  0  0  0  0
   18.4023   -9.4571  -14.3071 O   0  0  0  0  0  0  0  0  0  0  0  0
   22.9160   -9.5571  -15.7905 O   0  0  0  0  0  0  0  0  0  0  0  0
   22.5880   -9.5373  -14.4555 C   0  0  0  0  0  0  0  0  0  0  0  0
   21.1331   -9.0325  -14.3743 C   0  0  2  0  0  0  0  0  0  0  0  0
   20.3855   -9.7774  -15.3732 N   0  0  0  0  0  0  0  0  0  0  0  0
   21.1340   -7.6053  -14.7782 C   0  0  0  0  0  0  0  0  0  0  0  0
   20.9932   -7.2584  -16.0016 O   0  0  0  0  0  0  0  0  0  0  0  0
   21.2890   -6.5348  -13.8585 N   0  0  0  0  0  0  0  0  0  0  0  0
   21.3902   -5.1312  -14.2821 C   0  0  1  0  0  0  0  0  0  0  0  0
   20.0761   -4.5785  -14.6664 C   0  0  0  0  0  0  0  0  0  0  0  0
   19.9937   -3.1681  -15.0642 C   0  0  0  0  0  0  0  0  0  0  0  0
   18.6920   -2.7007  -15.5175 C   0  0  0  0  0  0  0  0  0  0  0  0
   17.8017   -2.1044  -14.9080 O   0  0  0  0  0  0  0  0  0  0  0  0
   22.2420   -4.3965  -13.3576 C   0  0  0  0  0  0  0  0  0  0  0  0
   22.7546   -3.2786  -13.7254 O   0  0  0  0  0  0  0  0  0  0  0  0
   18.4104   -2.9827  -16.8900 O   0  0  0  0  0  0  0  0  0  0  0  0
   22.5771   -4.7872  -12.0661 O   0  0  0  0  0  0  0  0  0  0  0  0
  2  1  1  0
  2  3  2  0
  4  2  1  0
  5  4  1  0
  5  6  1  6
  7  8  2  0
  7  5  1  0
  9 10  1  0
 11 10  1  6
 11 12  1  0
 12  7  1  0
 13 11  1  0
 13 15  1  0
 14 13  2  0
 16 15  1  0
 16 21  1  0
 16 17  1  1
 18 17  1  0
 19 23  1  0
 19 18  1  0
 20 19  2  0
 21 22  2  0
 21 24  1  0
M  END
$$$$
