NSE.pdb
     RDKit          3D

 24 23  0  0  1  0  0  0  0  0999 V2000
   11.8567  -11.3037   -9.4427 N   0  0  0  0  0  0  0  0  0  0  0  0
   12.8941  -10.9334  -10.3276 C   0  0  0  0  0  0  0  0  0  0  0  0
   13.2779  -11.8301  -11.1352 O   0  0  0  0  0  0  0  0  0  0  0  0
   13.4886   -9.5960  -10.3158 C   0  0  0  0  0  0  0  0  0  0  0  0
   14.7896   -9.5864  -11.0637 C   0  0  2  0  0  0  0  0  0  0  0  0
   15.7351  -10.3518  -10.2361 N   0  0  0  0  0  0  0  0  0  0  0  0
   15.3614   -8.1917  -11.0594 C   0  0  0  0  0  0  0  0  0  0  0  0
   14.7590   -7.2397  -11.6029 O   0  0  0  0  0  0  0  0  0  0  0  0
   17.6769   -4.8046   -8.9491 O   0  0  0  0  0  0  0  0  0  0  0  0
   17.0543   -6.0300   -8.9798 C   0  0  0  0  0  0  0  0  0  0  0  0
   17.1614   -6.5340  -10.4332 C   0  0  2  0  0  0  0  0  0  0  0  0
   16.6077   -7.8775  -10.4419 N   0  0  0  0  0  0  0  0  0  0  0  0
   18.6036   -6.6346  -10.7643 C   0  0  0  0  0  0  0  0  0  0  0  0
   19.2975   -7.6528  -10.4198 O   0  0  0  0  0  0  0  0  0  0  0  0
   19.3127   -5.6296  -11.4737 N   0  0  0  0  0  0  0  0  0  0  0  0
   20.5038   -5.9192  -12.2842 C   0  0  1  0  0  0  0  0  0  0  0  0
   20.3674   -7.1892  -13.0249 C   0  0  0  0  0  0  0  0  0  0  0  0
   21.4695   -7.6207  -13.8931 C   0  0  0  0  0  0  0  0  0  0  0  0
   21.2893   -8.8906  -14.5810 C   0  0  0  0  0  0  0  0  0  0  0  0
   20.7209   -9.1486  -15.6441 O   0  0  0  0  0  0  0  0  0  0  0  0
   20.9297   -4.7154  -12.9840 C   0  0  0  0  0  0  0  0  0  0  0  0
   20.0461   -3.8845  -13.4042 O   0  0  0  0  0  0  0  0  0  0  0  0
   21.8675  -10.0116  -13.9088 O   0  0  0  0  0  0  0  0  0  0  0  0
   22.2423   -4.3499  -13.2603 O   0  0  0  0  0  0  0  0  0  0  0  0
  2  1  1  0
  2  3  2  0
  4  2  1  0
  5  4  1  0
  5  6  1  1
  7  8  2  0
  7  5  1  0
  9 10  1  0
 11 10  1  1
 11 12  1  0
 12  7  1  0
 13 11  1  0
 13 15  1  0
 14 13  2  0
 16 15  1  0
 16 21  1  0
 16 17  1  6
 18 17  1  0
 19 23  1  0
 19 18  1  0
 20 19  2  0
 21 22  2  0
 21 24  1  0
M  END
$$$$
