NSE.pdb
     RDKit          3D

 24 23  0  0  1  0  0  0  0  0999 V2000
   38.5035  -11.7522   -5.9437 N   0  0  0  0  0  0  0  0  0  0  0  0
   37.7385  -10.7665   -6.6069 C   0  0  0  0  0  0  0  0  0  0  0  0
   36.4913  -10.7965   -6.3899 O   0  0  0  0  0  0  0  0  0  0  0  0
   38.3474   -9.7696   -7.4885 C   0  0  0  0  0  0  0  0  0  0  0  0
   39.8003  -10.0731   -7.7102 C   0  0  2  0  0  0  0  0  0  0  0  0
   40.4588   -9.8586   -6.4120 N   0  0  0  0  0  0  0  0  0  0  0  0
   40.4056   -9.0138   -8.5953 C   0  0  0  0  0  0  0  0  0  0  0  0
   40.8578   -7.9489   -8.1199 O   0  0  0  0  0  0  0  0  0  0  0  0
   40.2910   -9.5530  -12.5606 O   0  0  0  0  0  0  0  0  0  0  0  0
   41.3945   -8.8127  -12.2078 C   0  0  0  0  0  0  0  0  0  0  0  0
   41.0464   -8.1261  -10.8716 C   0  0  2  0  0  0  0  0  0  0  0  0
   40.4992   -9.1608  -10.0106 N   0  0  0  0  0  0  0  0  0  0  0  0
   39.9686   -7.1440  -11.1433 C   0  0  0  0  0  0  0  0  0  0  0  0
   38.7348   -7.4795  -11.1019 O   0  0  0  0  0  0  0  0  0  0  0  0
   40.2165   -5.7835  -11.4651 N   0  0  0  0  0  0  0  0  0  0  0  0
   39.1419   -4.7904  -11.6012 C   0  0  1  0  0  0  0  0  0  0  0  0
   38.2715   -4.7577  -10.4089 C   0  0  0  0  0  0  0  0  0  0  0  0
   38.7923   -4.1629   -9.1722 C   0  0  0  0  0  0  0  0  0  0  0  0
   37.8666   -4.0912   -8.0513 C   0  0  0  0  0  0  0  0  0  0  0  0
   36.6454   -4.2558   -8.0133 O   0  0  0  0  0  0  0  0  0  0  0  0
   39.6816   -3.5490  -12.1375 C   0  0  0  0  0  0  0  0  0  0  0  0
   40.9412   -3.4560  -12.3663 O   0  0  0  0  0  0  0  0  0  0  0  0
   38.4811   -3.7799   -6.7991 O   0  0  0  0  0  0  0  0  0  0  0  0
   38.9541   -2.4039  -12.4421 O   0  0  0  0  0  0  0  0  0  0  0  0
  2  1  1  0
  2  3  2  0
  4  2  1  0
  5  4  1  0
  5  6  1  1
  7  8  2  0
  7  5  1  0
  9 10  1  0
 11 10  1  6
 11 12  1  0
 12  7  1  0
 13 11  1  0
 13 15  1  0
 14 13  2  0
 16 15  1  0
 16 21  1  0
 16 17  1  1
 18 17  1  0
 19 23  1  0
 19 18  1  0
 20 19  2  0
 21 22  2  0
 21 24  1  0
M  END
$$$$
