NSE.pdb
     RDKit          3D

 24 23  0  0  1  0  0  0  0  0999 V2000
   24.2985  -15.4383  -16.4709 N   0  0  0  0  0  0  0  0  0  0  0  0
   24.8705  -14.1829  -16.1657 C   0  0  0  0  0  0  0  0  0  0  0  0
   25.9428  -14.2132  -15.4927 O   0  0  0  0  0  0  0  0  0  0  0  0
   24.2650  -12.9237  -16.6012 C   0  0  0  0  0  0  0  0  0  0  0  0
   22.9107  -13.1649  -17.2010 C   0  0  2  0  0  0  0  0  0  0  0  0
   23.1573  -13.7028  -18.5482 N   0  0  0  0  0  0  0  0  0  0  0  0
   22.2349  -11.8435  -17.4639 C   0  0  0  0  0  0  0  0  0  0  0  0
   22.7434  -10.9929  -18.2272 O   0  0  0  0  0  0  0  0  0  0  0  0
   18.9207  -10.9610  -15.4019 O   0  0  0  0  0  0  0  0  0  0  0  0
   18.8919  -10.3504  -16.6333 C   0  0  0  0  0  0  0  0  0  0  0  0
   20.3615  -10.1948  -17.0741 C   0  0  2  0  0  0  0  0  0  0  0  0
   20.9897  -11.4885  -16.8666 N   0  0  0  0  0  0  0  0  0  0  0  0
   21.0023   -9.2252  -16.1526 C   0  0  0  0  0  0  0  0  0  0  0  0
   21.5803   -9.6089  -15.0777 O   0  0  0  0  0  0  0  0  0  0  0  0
   21.0232   -7.8248  -16.3857 N   0  0  0  0  0  0  0  0  0  0  0  0
   21.6573   -6.8746  -15.4612 C   0  0  1  0  0  0  0  0  0  0  0  0
   21.8768   -5.5583  -16.0932 C   0  0  0  0  0  0  0  0  0  0  0  0
   22.4126   -4.4640  -15.2748 C   0  0  0  0  0  0  0  0  0  0  0  0
   22.5124   -3.1640  -15.9216 C   0  0  0  0  0  0  0  0  0  0  0  0
   22.8068   -2.8708  -17.0822 O   0  0  0  0  0  0  0  0  0  0  0  0
   21.0164   -6.9528  -14.1561 C   0  0  0  0  0  0  0  0  0  0  0  0
   21.7400   -6.9303  -13.0961 O   0  0  0  0  0  0  0  0  0  0  0  0
   22.2204   -2.0569  -15.0663 O   0  0  0  0  0  0  0  0  0  0  0  0
   19.6501   -7.0540  -13.9196 O   0  0  0  0  0  0  0  0  0  0  0  0
  2  1  1  0
  2  3  2  0
  4  2  1  0
  5  4  1  0
  5  6  1  6
  7  8  2  0
  7  5  1  0
  9 10  1  0
 11 10  1  1
 11 12  1  0
 12  7  1  0
 13 11  1  0
 13 15  1  0
 14 13  2  0
 16 15  1  0
 16 21  1  0
 16 17  1  6
 18 17  1  0
 19 23  1  0
 19 18  1  0
 20 19  2  0
 21 22  2  0
 21 24  1  0
M  END
$$$$
