NSE.pdb
     RDKit          3D

 24 23  0  0  1  0  0  0  0  0999 V2000
   14.9510  -11.8118  -17.9141 N   0  0  0  0  0  0  0  0  0  0  0  0
   16.2942  -11.3904  -18.0357 C   0  0  0  0  0  0  0  0  0  0  0  0
   16.7966  -11.4737  -19.1951 O   0  0  0  0  0  0  0  0  0  0  0  0
   17.0593  -10.8859  -16.8946 C   0  0  0  0  0  0  0  0  0  0  0  0
   18.4447  -11.4625  -16.8871 C   0  0  2  0  0  0  0  0  0  0  0  0
   18.3073  -12.8328  -16.3690 N   0  0  0  0  0  0  0  0  0  0  0  0
   19.2730  -10.7669  -15.8374 C   0  0  0  0  0  0  0  0  0  0  0  0
   19.0244  -10.8996  -14.6187 O   0  0  0  0  0  0  0  0  0  0  0  0
   23.3599   -9.0134  -14.4075 O   0  0  0  0  0  0  0  0  0  0  0  0
   22.6127   -9.7127  -15.3257 C   0  0  0  0  0  0  0  0  0  0  0  0
   21.1581   -9.2284  -15.1596 C   0  0  2  0  0  0  0  0  0  0  0  0
   20.3772   -9.9268  -16.1665 N   0  0  0  0  0  0  0  0  0  0  0  0
   21.1307   -7.7817  -15.4857 C   0  0  0  0  0  0  0  0  0  0  0  0
   21.3408   -7.3624  -16.6759 O   0  0  0  0  0  0  0  0  0  0  0  0
   20.8755   -6.7701  -14.5226 N   0  0  0  0  0  0  0  0  0  0  0  0
   20.9685   -5.3365  -14.8321 C   0  0  1  0  0  0  0  0  0  0  0  0
   19.6473   -4.6789  -14.7860 C   0  0  0  0  0  0  0  0  0  0  0  0
   18.6014   -5.1329  -15.7103 C   0  0  0  0  0  0  0  0  0  0  0  0
   17.3127   -4.4647  -15.6046 C   0  0  0  0  0  0  0  0  0  0  0  0
   16.9124   -3.6272  -14.7934 O   0  0  0  0  0  0  0  0  0  0  0  0
   22.0944   -4.7494  -14.1194 C   0  0  0  0  0  0  0  0  0  0  0  0
   22.6474   -5.4053  -13.1647 O   0  0  0  0  0  0  0  0  0  0  0  0
   16.3672   -4.8473  -16.6057 O   0  0  0  0  0  0  0  0  0  0  0  0
   22.6613   -3.5044  -14.3678 O   0  0  0  0  0  0  0  0  0  0  0  0
  2  1  1  0
  2  3  2  0
  4  2  1  0
  5  4  1  0
  5  6  1  1
  7  8  2  0
  7  5  1  0
  9 10  1  0
 11 10  1  6
 11 12  1  0
 12  7  1  0
 13 11  1  0
 13 15  1  0
 14 13  2  0
 16 15  1  0
 16 21  1  0
 16 17  1  1
 18 17  1  0
 19 23  1  0
 19 18  1  0
 20 19  2  0
 21 22  2  0
 21 24  1  0
M  END
$$$$
