NSE.pdb
     RDKit          3D

 24 23  0  0  1  0  0  0  0  0999 V2000
   20.9575  -13.3568  -19.7516 N   0  0  0  0  0  0  0  0  0  0  0  0
   21.7183  -13.6380  -18.5946 C   0  0  0  0  0  0  0  0  0  0  0  0
   21.8723  -14.8643  -18.3191 O   0  0  0  0  0  0  0  0  0  0  0  0
   22.2963  -12.5795  -17.7654 C   0  0  0  0  0  0  0  0  0  0  0  0
   21.9405  -11.2261  -18.3073 C   0  0  2  0  0  0  0  0  0  0  0  0
   22.8114  -11.0186  -19.4749 N   0  0  0  0  0  0  0  0  0  0  0  0
   22.3873  -10.1628  -17.3369 C   0  0  0  0  0  0  0  0  0  0  0  0
   21.8039   -9.9930  -16.2435 O   0  0  0  0  0  0  0  0  0  0  0  0
   24.8285   -7.1147  -18.4510 O   0  0  0  0  0  0  0  0  0  0  0  0
   25.2259   -7.6798  -17.2623 C   0  0  0  0  0  0  0  0  0  0  0  0
   23.9656   -8.3170  -16.6429 C   0  0  2  0  0  0  0  0  0  0  0  0
   23.4893   -9.2980  -17.6032 N   0  0  0  0  0  0  0  0  0  0  0  0
   22.9378   -7.2534  -16.5319 C   0  0  0  0  0  0  0  0  0  0  0  0
   22.0886   -7.0466  -17.4662 O   0  0  0  0  0  0  0  0  0  0  0  0
   22.8190   -6.3985  -15.4044 N   0  0  0  0  0  0  0  0  0  0  0  0
   21.7662   -5.3800  -15.2866 C   0  0  1  0  0  0  0  0  0  0  0  0
   20.4457   -5.9082  -15.6834 C   0  0  0  0  0  0  0  0  0  0  0  0
   19.2504   -5.1062  -15.3959 C   0  0  0  0  0  0  0  0  0  0  0  0
   17.9722   -5.7012  -15.7573 C   0  0  0  0  0  0  0  0  0  0  0  0
   17.7189   -6.6820  -16.4599 O   0  0  0  0  0  0  0  0  0  0  0  0
   21.9104   -4.6639  -14.0271 C   0  0  0  0  0  0  0  0  0  0  0  0
   21.4234   -3.4816  -13.9148 O   0  0  0  0  0  0  0  0  0  0  0  0
   16.8352   -5.0348  -15.2043 O   0  0  0  0  0  0  0  0  0  0  0  0
   22.5442   -5.1375  -12.8839 O   0  0  0  0  0  0  0  0  0  0  0  0
  2  1  1  0
  2  3  2  0
  4  2  1  0
  5  4  1  0
  5  6  1  6
  7  8  2  0
  7  5  1  0
  9 10  1  0
 11 10  1  6
 11 12  1  0
 12  7  1  0
 13 11  1  0
 13 15  1  0
 14 13  2  0
 16 15  1  0
 16 21  1  0
 16 17  1  1
 18 17  1  0
 19 23  1  0
 19 18  1  0
 20 19  2  0
 21 22  2  0
 21 24  1  0
M  END
$$$$
