NSE.pdb
     RDKit          3D

 24 23  0  0  1  0  0  0  0  0999 V2000
   25.0043  -20.1326   -8.6346 N   0  0  0  0  0  0  0  0  0  0  0  0
   25.4038  -20.8912   -9.7577 C   0  0  0  0  0  0  0  0  0  0  0  0
   26.5844  -21.3480   -9.7243 O   0  0  0  0  0  0  0  0  0  0  0  0
   24.5098  -21.1380  -10.8898 C   0  0  0  0  0  0  0  0  0  0  0  0
   23.2272  -20.3755  -10.7300 C   0  0  2  0  0  0  0  0  0  0  0  0
   22.4975  -21.0399   -9.6386 N   0  0  0  0  0  0  0  0  0  0  0  0
   22.3518  -20.6060  -11.9352 C   0  0  0  0  0  0  0  0  0  0  0  0
   21.5917  -21.5968  -12.0075 O   0  0  0  0  0  0  0  0  0  0  0  0
   21.0581  -17.8502  -14.3071 O   0  0  0  0  0  0  0  0  0  0  0  0
   20.5764  -19.1124  -14.5624 C   0  0  0  0  0  0  0  0  0  0  0  0
   21.7545  -20.0804  -14.3324 C   0  0  2  0  0  0  0  0  0  0  0  0
   22.3369  -19.7186  -13.0512 N   0  0  0  0  0  0  0  0  0  0  0  0
   22.7650  -19.8094  -15.3838 C   0  0  0  0  0  0  0  0  0  0  0  0
   23.8019  -19.0990  -15.1448 O   0  0  0  0  0  0  0  0  0  0  0  0
   22.6625  -20.3055  -16.7102 N   0  0  0  0  0  0  0  0  0  0  0  0
   23.7808  -20.2646  -17.6627 C   0  0  1  0  0  0  0  0  0  0  0  0
   25.0230  -20.8026  -17.0732 C   0  0  0  0  0  0  0  0  0  0  0  0
   25.2112  -22.2577  -17.0323 C   0  0  0  0  0  0  0  0  0  0  0  0
   26.5855  -22.7280  -16.9400 C   0  0  0  0  0  0  0  0  0  0  0  0
   27.3954  -22.6486  -16.0140 O   0  0  0  0  0  0  0  0  0  0  0  0
   23.3360  -20.7347  -18.9671 C   0  0  0  0  0  0  0  0  0  0  0  0
   22.3030  -21.4926  -19.0454 O   0  0  0  0  0  0  0  0  0  0  0  0
   27.0630  -23.3857  -18.1156 O   0  0  0  0  0  0  0  0  0  0  0  0
   23.9307  -20.4424  -20.1893 O   0  0  0  0  0  0  0  0  0  0  0  0
  2  1  1  0
  2  3  2  0
  4  2  1  0
  5  4  1  0
  5  6  1  1
  7  8  2  0
  7  5  1  0
  9 10  1  0
 11 10  1  6
 11 12  1  0
 12  7  1  0
 13 11  1  0
 13 15  1  0
 14 13  2  0
 16 15  1  0
 16 21  1  0
 16 17  1  1
 18 17  1  0
 19 23  1  0
 19 18  1  0
 20 19  2  0
 21 22  2  0
 21 24  1  0
M  END
$$$$
