NSE.pdb
     RDKit          3D

 24 23  0  0  1  0  0  0  0  0999 V2000
   24.3312  -13.8659  -17.1250 N   0  0  0  0  0  0  0  0  0  0  0  0
   24.8541  -12.6503  -16.6298 C   0  0  0  0  0  0  0  0  0  0  0  0
   26.0634  -12.6809  -16.2552 O   0  0  0  0  0  0  0  0  0  0  0  0
   24.0511  -11.4290  -16.5556 C   0  0  0  0  0  0  0  0  0  0  0  0
   22.6694  -11.6684  -17.0898 C   0  0  2  0  0  0  0  0  0  0  0  0
   22.8197  -11.8074  -18.5468 N   0  0  0  0  0  0  0  0  0  0  0  0
   21.8466  -10.4149  -16.9352 C   0  0  0  0  0  0  0  0  0  0  0  0
   21.9742   -9.4514  -17.7226 O   0  0  0  0  0  0  0  0  0  0  0  0
   19.7945   -9.7757  -13.5111 O   0  0  0  0  0  0  0  0  0  0  0  0
   19.0976   -9.3129  -14.6022 C   0  0  0  0  0  0  0  0  0  0  0  0
   20.1468   -9.0189  -15.6935 C   0  0  2  0  0  0  0  0  0  0  0  0
   20.8841  -10.2547  -15.8954 N   0  0  0  0  0  0  0  0  0  0  0  0
   21.0884   -8.0121  -15.1460 C   0  0  0  0  0  0  0  0  0  0  0  0
   22.3346   -8.2684  -15.0115 O   0  0  0  0  0  0  0  0  0  0  0  0
   20.6889   -6.7129  -14.7357 N   0  0  0  0  0  0  0  0  0  0  0  0
   21.6329   -5.5937  -14.6097 C   0  0  1  0  0  0  0  0  0  0  0  0
   22.6183   -5.5814  -15.7092 C   0  0  0  0  0  0  0  0  0  0  0  0
   23.6072   -4.4977  -15.7573 C   0  0  0  0  0  0  0  0  0  0  0  0
   24.5453   -4.5295  -16.8696 C   0  0  0  0  0  0  0  0  0  0  0  0
   24.4279   -4.1147  -18.0245 O   0  0  0  0  0  0  0  0  0  0  0  0
   20.9118   -4.3751  -14.2703 C   0  0  0  0  0  0  0  0  0  0  0  0
   19.7702   -4.1468  -14.8110 O   0  0  0  0  0  0  0  0  0  0  0  0
   25.8004   -5.1412  -16.5640 O   0  0  0  0  0  0  0  0  0  0  0  0
   21.3401   -3.3888  -13.3889 O   0  0  0  0  0  0  0  0  0  0  0  0
  2  1  1  0
  2  3  2  0
  4  2  1  0
  5  4  1  0
  5  6  1  6
  7  8  2  0
  7  5  1  0
  9 10  1  0
 11 10  1  1
 11 12  1  0
 12  7  1  0
 13 11  1  0
 13 15  1  0
 14 13  2  0
 16 15  1  0
 16 21  1  0
 16 17  1  6
 18 17  1  0
 19 23  1  0
 19 18  1  0
 20 19  2  0
 21 22  2  0
 21 24  1  0
M  END
$$$$
