NSE.pdb
     RDKit          3D

 24 23  0  0  1  0  0  0  0  0999 V2000
   16.6505  -12.1815  -17.9729 N   0  0  0  0  0  0  0  0  0  0  0  0
   16.1968  -10.9099  -17.5562 C   0  0  0  0  0  0  0  0  0  0  0  0
   15.1779  -10.4616  -18.1598 O   0  0  0  0  0  0  0  0  0  0  0  0
   16.8598  -10.1562  -16.4911 C   0  0  0  0  0  0  0  0  0  0  0  0
   18.0422  -10.9133  -15.9614 C   0  0  2  0  0  0  0  0  0  0  0  0
   17.4927  -11.9390  -15.0609 N   0  0  0  0  0  0  0  0  0  0  0  0
   18.8385  -10.0228  -15.0421 C   0  0  0  0  0  0  0  0  0  0  0  0
   18.3488   -9.5801  -13.9796 O   0  0  0  0  0  0  0  0  0  0  0  0
   22.7593   -9.9112  -15.4066 O   0  0  0  0  0  0  0  0  0  0  0  0
   22.2840   -9.5244  -14.1759 C   0  0  0  0  0  0  0  0  0  0  0  0
   20.9558   -8.7856  -14.4371 C   0  0  2  0  0  0  0  0  0  0  0  0
   20.1819   -9.6372  -15.3244 N   0  0  0  0  0  0  0  0  0  0  0  0
   21.2776   -7.5376  -15.1712 C   0  0  0  0  0  0  0  0  0  0  0  0
   21.1464   -7.4584  -16.4413 O   0  0  0  0  0  0  0  0  0  0  0  0
   21.7477   -6.3582  -14.5355 N   0  0  0  0  0  0  0  0  0  0  0  0
   22.0148   -5.1127  -15.2683 C   0  0  1  0  0  0  0  0  0  0  0  0
   20.8687   -4.7156  -16.1103 C   0  0  0  0  0  0  0  0  0  0  0  0
   19.5904   -4.4042  -15.4596 C   0  0  0  0  0  0  0  0  0  0  0  0
   18.5106   -3.9702  -16.3336 C   0  0  0  0  0  0  0  0  0  0  0  0
   17.9255   -2.8872  -16.4017 O   0  0  0  0  0  0  0  0  0  0  0  0
   22.6311   -4.1387  -14.3787 C   0  0  0  0  0  0  0  0  0  0  0  0
   22.5723   -4.3185  -13.1091 O   0  0  0  0  0  0  0  0  0  0  0  0
   18.0643   -4.9656  -17.2570 O   0  0  0  0  0  0  0  0  0  0  0  0
   23.3046   -2.9860  -14.7672 O   0  0  0  0  0  0  0  0  0  0  0  0
  2  1  1  0
  2  3  2  0
  4  2  1  0
  5  4  1  0
  5  6  1  1
  7  8  2  0
  7  5  1  0
  9 10  1  0
 11 10  1  6
 11 12  1  0
 12  7  1  0
 13 11  1  0
 13 15  1  0
 14 13  2  0
 16 15  1  0
 16 21  1  0
 16 17  1  1
 18 17  1  0
 19 23  1  0
 19 18  1  0
 20 19  2  0
 21 22  2  0
 21 24  1  0
M  END
$$$$
