NSE.pdb
     RDKit          3D

 24 23  0  0  1  0  0  0  0  0999 V2000
   23.0831  -35.1215  -13.7595 N   0  0  0  0  0  0  0  0  0  0  0  0
   22.9307  -36.0120  -12.6731 C   0  0  0  0  0  0  0  0  0  0  0  0
   22.0947  -36.9486  -12.8394 O   0  0  0  0  0  0  0  0  0  0  0  0
   23.6925  -35.8653  -11.4321 C   0  0  0  0  0  0  0  0  0  0  0  0
   24.6528  -34.7164  -11.5309 C   0  0  2  0  0  0  0  0  0  0  0  0
   25.8095  -35.2227  -12.2863 N   0  0  0  0  0  0  0  0  0  0  0  0
   25.2215  -34.4180  -10.1672 C   0  0  0  0  0  0  0  0  0  0  0  0
   25.9811  -35.2256   -9.5880 O   0  0  0  0  0  0  0  0  0  0  0  0
   25.4539  -31.2543   -6.5122 O   0  0  0  0  0  0  0  0  0  0  0  0
   25.0367  -31.4871   -7.8014 C   0  0  0  0  0  0  0  0  0  0  0  0
   25.4519  -32.9341   -8.1363 C   0  0  2  0  0  0  0  0  0  0  0  0
   24.9322  -33.2114   -9.4647 N   0  0  0  0  0  0  0  0  0  0  0  0
   24.7562  -33.8294   -7.1801 C   0  0  0  0  0  0  0  0  0  0  0  0
   23.4890  -33.9987   -7.2262 O   0  0  0  0  0  0  0  0  0  0  0  0
   25.4278  -34.5526   -6.1593 N   0  0  0  0  0  0  0  0  0  0  0  0
   24.7163  -35.3497   -5.1504 C   0  0  1  0  0  0  0  0  0  0  0  0
   25.3492  -36.6681   -4.9472 C   0  0  0  0  0  0  0  0  0  0  0  0
   26.4975  -36.7662   -4.0382 C   0  0  0  0  0  0  0  0  0  0  0  0
   27.0501  -38.0977   -3.8383 C   0  0  0  0  0  0  0  0  0  0  0  0
   27.8460  -38.7425   -4.5243 O   0  0  0  0  0  0  0  0  0  0  0  0
   24.3938  -34.5169   -4.0004 C   0  0  0  0  0  0  0  0  0  0  0  0
   23.6307  -34.9822   -3.0791 O   0  0  0  0  0  0  0  0  0  0  0  0
   26.5907  -38.7543   -2.6549 O   0  0  0  0  0  0  0  0  0  0  0  0
   24.8385  -33.2182   -3.7794 O   0  0  0  0  0  0  0  0  0  0  0  0
  2  1  1  0
  2  3  2  0
  4  2  1  0
  5  4  1  0
  5  6  1  6
  7  8  2  0
  7  5  1  0
  9 10  1  0
 11 10  1  1
 11 12  1  0
 12  7  1  0
 13 11  1  0
 13 15  1  0
 14 13  2  0
 16 15  1  0
 16 21  1  0
 16 17  1  1
 18 17  1  0
 19 23  1  0
 19 18  1  0
 20 19  2  0
 21 22  2  0
 21 24  1  0
M  END
$$$$
