NSE.pdb
     RDKit          3D

 24 23  0  0  1  0  0  0  0  0999 V2000
   18.2180  -11.9995  -21.2326 N   0  0  0  0  0  0  0  0  0  0  0  0
   18.0666  -12.2204  -19.8453 C   0  0  0  0  0  0  0  0  0  0  0  0
   18.2267  -13.4145  -19.4552 O   0  0  0  0  0  0  0  0  0  0  0  0
   17.7473  -11.1378  -18.9137 C   0  0  0  0  0  0  0  0  0  0  0  0
   18.9208  -10.8350  -18.0287 C   0  0  2  0  0  0  0  0  0  0  0  0
   18.9490  -11.9040  -17.0181 N   0  0  0  0  0  0  0  0  0  0  0  0
   18.6362   -9.5925  -17.2242 C   0  0  0  0  0  0  0  0  0  0  0  0
   18.2689   -8.5309  -17.7743 O   0  0  0  0  0  0  0  0  0  0  0  0
   16.9495   -9.2879  -13.5759 O   0  0  0  0  0  0  0  0  0  0  0  0
   18.2402   -8.8144  -13.5848 C   0  0  0  0  0  0  0  0  0  0  0  0
   18.5214   -8.3499  -15.0281 C   0  0  2  0  0  0  0  0  0  0  0  0
   18.7657   -9.5536  -15.8047 N   0  0  0  0  0  0  0  0  0  0  0  0
   19.7772   -7.5610  -15.0052 C   0  0  0  0  0  0  0  0  0  0  0  0
   20.9217   -8.1269  -15.0873 O   0  0  0  0  0  0  0  0  0  0  0  0
   19.8071   -6.1461  -14.8916 N   0  0  0  0  0  0  0  0  0  0  0  0
   21.0591   -5.3768  -14.8684 C   0  0  1  0  0  0  0  0  0  0  0  0
   20.9570   -4.1394  -15.6674 C   0  0  0  0  0  0  0  0  0  0  0  0
   22.1046   -3.2249  -15.7002 C   0  0  0  0  0  0  0  0  0  0  0  0
   21.9141   -1.9766  -16.4240 C   0  0  0  0  0  0  0  0  0  0  0  0
   21.3767   -1.7591  -17.5119 O   0  0  0  0  0  0  0  0  0  0  0  0
   21.5789   -5.3201  -13.5095 C   0  0  0  0  0  0  0  0  0  0  0  0
   20.7619   -5.3547  -12.5201 O   0  0  0  0  0  0  0  0  0  0  0  0
   22.4370   -0.8247  -15.7589 O   0  0  0  0  0  0  0  0  0  0  0  0
   22.9184   -5.2282  -13.1484 O   0  0  0  0  0  0  0  0  0  0  0  0
  2  1  1  0
  2  3  2  0
  4  2  1  0
  5  4  1  0
  5  6  1  1
  7  8  2  0
  7  5  1  0
  9 10  1  0
 11 10  1  1
 11 12  1  0
 12  7  1  0
 13 11  1  0
 13 15  1  0
 14 13  2  0
 16 15  1  0
 16 21  1  0
 16 17  1  1
 18 17  1  0
 19 23  1  0
 19 18  1  0
 20 19  2  0
 21 22  2  0
 21 24  1  0
M  END
$$$$
