NSE.pdb
     RDKit          3D

 24 23  0  0  1  0  0  0  0  0999 V2000
   17.5879  -16.1203  -15.3367 N   0  0  0  0  0  0  0  0  0  0  0  0
   17.6813  -15.0920  -14.3721 C   0  0  0  0  0  0  0  0  0  0  0  0
   17.4050  -15.4243  -13.1818 O   0  0  0  0  0  0  0  0  0  0  0  0
   18.0755  -13.7270  -14.7234 C   0  0  0  0  0  0  0  0  0  0  0  0
   18.2462  -13.5888  -16.2078 C   0  0  2  0  0  0  0  0  0  0  0  0
   19.4658  -14.3399  -16.5443 N   0  0  0  0  0  0  0  0  0  0  0  0
   18.6030  -12.1629  -16.5421 C   0  0  0  0  0  0  0  0  0  0  0  0
   19.7940  -11.7833  -16.5859 O   0  0  0  0  0  0  0  0  0  0  0  0
   15.6371   -9.5223  -17.2351 O   0  0  0  0  0  0  0  0  0  0  0  0
   16.7704   -9.2367  -17.9593 C   0  0  0  0  0  0  0  0  0  0  0  0
   17.9557   -9.7978  -17.1480 C   0  0  2  0  0  0  0  0  0  0  0  0
   17.6162  -11.1736  -16.8263 N   0  0  0  0  0  0  0  0  0  0  0  0
   18.0244   -9.0374  -15.8764 C   0  0  0  0  0  0  0  0  0  0  0  0
   17.4501   -9.4606  -14.8145 O   0  0  0  0  0  0  0  0  0  0  0  0
   18.7174   -7.8055  -15.7411 N   0  0  0  0  0  0  0  0  0  0  0  0
   18.7887   -7.0690  -14.4714 C   0  0  1  0  0  0  0  0  0  0  0  0
   20.1837   -6.7825  -14.0814 C   0  0  0  0  0  0  0  0  0  0  0  0
   20.9176   -5.7378  -14.8057 C   0  0  0  0  0  0  0  0  0  0  0  0
   22.2795   -5.4804  -14.3614 C   0  0  0  0  0  0  0  0  0  0  0  0
   23.3576   -5.7678  -14.8856 O   0  0  0  0  0  0  0  0  0  0  0  0
   17.8012   -5.9990  -14.4649 C   0  0  0  0  0  0  0  0  0  0  0  0
   17.2199   -5.6709  -15.5613 O   0  0  0  0  0  0  0  0  0  0  0  0
   22.3710   -4.7820  -13.1178 O   0  0  0  0  0  0  0  0  0  0  0  0
   17.4006   -5.2612  -13.3566 O   0  0  0  0  0  0  0  0  0  0  0  0
  2  1  1  0
  2  3  2  0
  4  2  1  0
  5  4  1  0
  5  6  1  1
  7  8  2  0
  7  5  1  0
  9 10  1  0
 11 10  1  6
 11 12  1  0
 12  7  1  0
 13 11  1  0
 13 15  1  0
 14 13  2  0
 16 15  1  0
 16 21  1  0
 16 17  1  6
 18 17  1  0
 19 23  1  0
 19 18  1  0
 20 19  2  0
 21 22  2  0
 21 24  1  0
M  END
$$$$
