NDQ.pdb
     RDKit          3D

 26 25  0  0  1  0  0  0  0  0999 V2000
   12.4823  -12.7414   -9.3004 N   0  0  0  0  0  0  0  0  0  0  0  0
   13.6210  -12.8071  -10.1504 C   0  0  0  0  0  0  0  0  0  0  0  0
   14.0489  -13.9139  -10.5739 O   0  0  0  0  0  0  0  0  0  0  0  0
   14.3285  -11.5826  -10.5598 C   0  0  0  0  0  0  0  0  0  0  0  0
   13.7373  -10.3563   -9.8828 C   0  0  2  0  0  0  0  0  0  0  0  0
   12.3503  -10.2126  -10.3137 N   0  0  0  0  0  0  0  0  0  0  0  0
   14.5022   -9.1795  -10.2864 C   0  0  0  0  0  0  0  0  0  0  0  0
   14.2452   -8.5889  -11.3782 O   0  0  0  0  0  0  0  0  0  0  0  0
   15.5639   -8.6311   -9.4894 N   0  0  0  0  0  0  0  0  0  0  0  0
   16.2236   -7.4187   -9.9077 C   0  0  1  0  0  0  0  0  0  0  0  0
   16.4959   -6.5228   -8.7104 C   0  0  0  0  0  0  0  0  0  0  0  0
   15.2615   -5.8423   -8.3119 C   0  0  0  0  0  0  0  0  0  0  0  0
   14.2815   -5.8491   -9.1010 O   0  0  0  0  0  0  0  0  0  0  0  0
   17.5199   -7.6990  -10.6275 C   0  0  0  0  0  0  0  0  0  0  0  0
   18.4766   -8.2175   -9.9961 O   0  0  0  0  0  0  0  0  0  0  0  0
   15.1594   -5.2012   -7.0977 O   0  0  0  0  0  0  0  0  0  0  0  0
   18.5018  -10.2600  -15.7519 N   0  0  0  0  0  0  0  0  0  0  0  0
   18.3193  -10.8514  -14.4707 C   0  0  0  0  0  0  0  0  0  0  0  0
   18.0093  -12.0488  -14.2977 O   0  0  0  0  0  0  0  0  0  0  0  0
   18.5178   -9.9535  -13.2784 C   0  0  0  0  0  0  0  0  0  0  0  0
   18.8902   -8.5936  -13.7726 C   0  0  0  0  0  0  0  0  0  0  0  0
   19.0138   -7.6126  -12.6774 C   0  0  2  0  0  0  0  0  0  0  0  0
   17.7138   -7.4041  -12.0014 N   0  0  0  0  0  0  0  0  0  0  0  0
   19.5328   -6.2925  -13.0982 C   0  0  0  0  0  0  0  0  0  0  0  0
   18.7468   -5.2986  -13.1789 O   0  0  0  0  0  0  0  0  0  0  0  0
   20.8567   -6.0691  -13.4141 O   0  0  0  0  0  0  0  0  0  0  0  0
  2  1  1  0
  2  4  1  0
  3  2  2  0
  5  4  1  0
  5  6  1  6
  7  9  1  0
  7  5  1  0
  8  7  2  0
 10  9  1  0
 10 11  1  1
 12 16  1  0
 12 11  1  0
 13 12  2  0
 14 15  2  0
 14 10  1  0
 17 18  1  0
 18 19  2  0
 20 18  1  0
 20 21  1  0
 22 21  1  6
 22 23  1  0
 23 14  1  0
 24 22  1  0
 25 24  2  0
 26 24  1  0
M  END
$$$$
