NDQ.pdb
     RDKit          3D

 26 25  0  0  1  0  0  0  0  0999 V2000
   15.9314  -14.9152  -15.7016 N   0  0  0  0  0  0  0  0  0  0  0  0
   16.0684  -13.6461  -15.0736 C   0  0  0  0  0  0  0  0  0  0  0  0
   15.0916  -13.1041  -14.4909 O   0  0  0  0  0  0  0  0  0  0  0  0
   17.3565  -12.9333  -15.0862 C   0  0  0  0  0  0  0  0  0  0  0  0
   17.1601  -11.4526  -15.3707 C   0  0  2  0  0  0  0  0  0  0  0  0
   16.8244  -11.2926  -16.7820 N   0  0  0  0  0  0  0  0  0  0  0  0
   18.4045  -10.7467  -15.0779 C   0  0  0  0  0  0  0  0  0  0  0  0
   18.9091  -10.7877  -13.9157 O   0  0  0  0  0  0  0  0  0  0  0  0
   19.1169   -9.9843  -16.0651 N   0  0  0  0  0  0  0  0  0  0  0  0
   20.3077   -9.2608  -15.6924 C   0  0  1  0  0  0  0  0  0  0  0  0
   21.2452   -9.1337  -16.8822 C   0  0  0  0  0  0  0  0  0  0  0  0
   22.4739   -8.4499  -16.4720 C   0  0  0  0  0  0  0  0  0  0  0  0
   22.5673   -7.2080  -16.6508 O   0  0  0  0  0  0  0  0  0  0  0  0
   19.9907   -7.8864  -15.1566 C   0  0  0  0  0  0  0  0  0  0  0  0
   19.1197   -7.1851  -15.7331 O   0  0  0  0  0  0  0  0  0  0  0  0
   23.5183   -9.1404  -15.8991 O   0  0  0  0  0  0  0  0  0  0  0  0
   17.7959   -6.7467  -10.1738 N   0  0  0  0  0  0  0  0  0  0  0  0
   18.0781   -5.3670  -10.3765 C   0  0  0  0  0  0  0  0  0  0  0  0
   17.6316   -4.4540   -9.6508 O   0  0  0  0  0  0  0  0  0  0  0  0
   18.9679   -5.0244  -11.5421 C   0  0  0  0  0  0  0  0  0  0  0  0
   19.3709   -6.2966  -12.2138 C   0  0  0  0  0  0  0  0  0  0  0  0
   20.2074   -6.0612  -13.4063 C   0  0  2  0  0  0  0  0  0  0  0  0
   20.6346   -7.3400  -14.0168 N   0  0  0  0  0  0  0  0  0  0  0  0
   21.4148   -5.2447  -13.1516 C   0  0  0  0  0  0  0  0  0  0  0  0
   22.5671   -5.7320  -13.3686 O   0  0  0  0  0  0  0  0  0  0  0  0
   21.3628   -3.9488  -12.6823 O   0  0  0  0  0  0  0  0  0  0  0  0
  2  1  1  0
  2  4  1  0
  3  2  2  0
  5  4  1  0
  5  6  1  6
  7  9  1  0
  7  5  1  0
  8  7  2  0
 10  9  1  0
 10 11  1  6
 12 16  1  0
 12 11  1  0
 13 12  2  0
 14 15  2  0
 14 10  1  0
 17 18  1  0
 18 19  2  0
 20 18  1  0
 20 21  1  0
 22 21  1  1
 22 23  1  0
 23 14  1  0
 24 22  1  0
 25 24  2  0
 26 24  1  0
M  END
$$$$
