NDQ.pdb
     RDKit          3D

 26 25  0  0  1  0  0  0  0  0999 V2000
   15.5965   -9.8480  -17.5198 N   0  0  0  0  0  0  0  0  0  0  0  0
   16.3563  -10.8412  -16.8416 C   0  0  0  0  0  0  0  0  0  0  0  0
   16.5170  -11.9862  -17.3421 O   0  0  0  0  0  0  0  0  0  0  0  0
   16.9770  -10.5564  -15.5373 C   0  0  0  0  0  0  0  0  0  0  0  0
   18.4381  -10.1681  -15.6993 C   0  0  2  0  0  0  0  0  0  0  0  0
   19.2235  -11.3850  -15.8795 N   0  0  0  0  0  0  0  0  0  0  0  0
   18.8782   -9.4727  -14.4930 C   0  0  0  0  0  0  0  0  0  0  0  0
   19.1052  -10.1176  -13.4255 O   0  0  0  0  0  0  0  0  0  0  0  0
   19.0790   -8.0512  -14.4442 N   0  0  0  0  0  0  0  0  0  0  0  0
   19.5393   -7.4321  -13.2256 C   0  0  1  0  0  0  0  0  0  0  0  0
   20.5521   -6.3415  -13.5346 C   0  0  0  0  0  0  0  0  0  0  0  0
   21.0040   -5.7195  -12.2878 C   0  0  0  0  0  0  0  0  0  0  0  0
   20.9745   -6.3943  -11.2263 O   0  0  0  0  0  0  0  0  0  0  0  0
   18.4031   -6.8466  -12.4239 C   0  0  0  0  0  0  0  0  0  0  0  0
   17.5600   -6.1087  -12.9962 O   0  0  0  0  0  0  0  0  0  0  0  0
   21.4562   -4.4193  -12.2613 O   0  0  0  0  0  0  0  0  0  0  0  0
   14.3413   -9.6510   -9.8418 N   0  0  0  0  0  0  0  0  0  0  0  0
   13.9579   -8.4583   -9.1673 C   0  0  0  0  0  0  0  0  0  0  0  0
   12.9050   -8.3440   -8.5054 O   0  0  0  0  0  0  0  0  0  0  0  0
   14.8977   -7.2872   -9.2803 C   0  0  0  0  0  0  0  0  0  0  0  0
   16.1157   -7.7336  -10.0214 C   0  0  0  0  0  0  0  0  0  0  0  0
   17.0486   -6.6222  -10.2892 C   0  0  2  0  0  0  0  0  0  0  0  0
   18.2358   -7.0933  -11.0370 N   0  0  0  0  0  0  0  0  0  0  0  0
   17.5169   -5.9147   -9.0770 C   0  0  0  0  0  0  0  0  0  0  0  0
   18.7135   -6.0625   -8.6791 O   0  0  0  0  0  0  0  0  0  0  0  0
   16.7102   -5.0784   -8.3338 O   0  0  0  0  0  0  0  0  0  0  0  0
  2  1  1  0
  2  4  1  0
  3  2  2  0
  5  4  1  0
  5  6  1  1
  7  9  1  0
  7  5  1  0
  8  7  2  0
 10  9  1  0
 10 11  1  6
 12 16  1  0
 12 11  1  0
 13 12  2  0
 14 15  2  0
 14 10  1  0
 17 18  1  0
 18 19  2  0
 20 18  1  0
 20 21  1  0
 22 21  1  1
 22 23  1  0
 23 14  1  0
 24 22  1  0
 25 24  2  0
 26 24  1  0
M  END
$$$$
