NDQ.pdb
     RDKit          3D

 26 25  0  0  1  0  0  0  0  0999 V2000
   29.1481  -21.6220  -16.0212 N   0  0  0  0  0  0  0  0  0  0  0  0
   28.7257  -20.8375  -17.1301 C   0  0  0  0  0  0  0  0  0  0  0  0
   29.5180  -20.5710  -18.0729 O   0  0  0  0  0  0  0  0  0  0  0  0
   27.3504  -20.3178  -17.2065 C   0  0  0  0  0  0  0  0  0  0  0  0
   26.5222  -20.7837  -16.0196 C   0  0  2  0  0  0  0  0  0  0  0  0
   26.7729  -22.2062  -15.8097 N   0  0  0  0  0  0  0  0  0  0  0  0
   25.1085  -20.5723  -16.3183 C   0  0  0  0  0  0  0  0  0  0  0  0
   24.7275  -19.5203  -16.9143 O   0  0  0  0  0  0  0  0  0  0  0  0
   24.0889  -21.5210  -15.9668 N   0  0  0  0  0  0  0  0  0  0  0  0
   22.7146  -21.2624  -16.3195 C   0  0  1  0  0  0  0  0  0  0  0  0
   22.0396  -22.5389  -16.7944 C   0  0  0  0  0  0  0  0  0  0  0  0
   20.6775  -22.2401  -17.2427 C   0  0  0  0  0  0  0  0  0  0  0  0
   19.7112  -22.8088  -16.6719 O   0  0  0  0  0  0  0  0  0  0  0  0
   21.9334  -20.6833  -15.1657 C   0  0  0  0  0  0  0  0  0  0  0  0
   22.1117  -21.1419  -14.0078 O   0  0  0  0  0  0  0  0  0  0  0  0
   20.4419  -21.3543  -18.2701 O   0  0  0  0  0  0  0  0  0  0  0  0
   19.0102  -15.2504  -15.1733 N   0  0  0  0  0  0  0  0  0  0  0  0
   18.7075  -15.6065  -13.8294 C   0  0  0  0  0  0  0  0  0  0  0  0
   18.0883  -14.8648  -13.0382 O   0  0  0  0  0  0  0  0  0  0  0  0
   19.1765  -16.9611  -13.3683 C   0  0  0  0  0  0  0  0  0  0  0  0
   19.8880  -17.6222  -14.5036 C   0  0  0  0  0  0  0  0  0  0  0  0
   20.3211  -18.9934  -14.1726 C   0  0  2  0  0  0  0  0  0  0  0  0
   20.9962  -19.6304  -15.3253 N   0  0  0  0  0  0  0  0  0  0  0  0
   19.2286  -19.8858  -13.7261 C   0  0  0  0  0  0  0  0  0  0  0  0
   18.5810  -20.5701  -14.5773 O   0  0  0  0  0  0  0  0  0  0  0  0
   18.8629  -20.0256  -12.4036 O   0  0  0  0  0  0  0  0  0  0  0  0
  2  1  1  0
  2  4  1  0
  3  2  2  0
  5  4  1  0
  5  6  1  6
  7  9  1  0
  7  5  1  0
  8  7  2  0
 10  9  1  0
 10 11  1  1
 12 16  1  0
 12 11  1  0
 13 12  2  0
 14 15  2  0
 14 10  1  0
 17 18  1  0
 18 19  2  0
 20 18  1  0
 20 21  1  0
 22 21  1  6
 22 23  1  0
 23 14  1  0
 24 22  1  0
 25 24  2  0
 26 24  1  0
M  END
$$$$
