NDQ.pdb
     RDKit          3D

 26 25  0  0  1  0  0  0  0  0999 V2000
   28.9499  -19.7906  -16.5041 N   0  0  0  0  0  0  0  0  0  0  0  0
   27.7472  -19.0319  -16.4670 C   0  0  0  0  0  0  0  0  0  0  0  0
   27.6527  -17.9389  -17.0865 O   0  0  0  0  0  0  0  0  0  0  0  0
   26.5797  -19.5053  -15.7051 C   0  0  0  0  0  0  0  0  0  0  0  0
   26.8973  -20.7919  -14.9598 C   0  0  2  0  0  0  0  0  0  0  0  0
   27.0726  -21.8621  -15.9367 N   0  0  0  0  0  0  0  0  0  0  0  0
   25.7811  -21.1122  -14.0742 C   0  0  0  0  0  0  0  0  0  0  0  0
   24.8763  -21.9185  -14.4458 O   0  0  0  0  0  0  0  0  0  0  0  0
   25.6453  -20.5499  -12.7595 N   0  0  0  0  0  0  0  0  0  0  0  0
   24.4652  -20.8270  -11.9780 C   0  0  1  0  0  0  0  0  0  0  0  0
   24.6464  -20.3352  -10.5512 C   0  0  0  0  0  0  0  0  0  0  0  0
   25.8071  -20.9924   -9.9458 C   0  0  0  0  0  0  0  0  0  0  0  0
   26.1401  -22.1351  -10.3538 O   0  0  0  0  0  0  0  0  0  0  0  0
   23.2311  -20.1939  -12.5721 C   0  0  0  0  0  0  0  0  0  0  0  0
   23.2721  -18.9930  -12.9447 O   0  0  0  0  0  0  0  0  0  0  0  0
   26.5320  -20.3833   -8.9462 O   0  0  0  0  0  0  0  0  0  0  0  0
   20.7775  -22.6667  -16.5333 N   0  0  0  0  0  0  0  0  0  0  0  0
   20.0467  -23.2228  -15.4465 C   0  0  0  0  0  0  0  0  0  0  0  0
   19.6159  -24.3948  -15.4282 O   0  0  0  0  0  0  0  0  0  0  0  0
   19.7957  -22.3183  -14.2690 C   0  0  0  0  0  0  0  0  0  0  0  0
   20.4029  -20.9855  -14.5640 C   0  0  0  0  0  0  0  0  0  0  0  0
   20.8131  -20.2720  -13.3394 C   0  0  2  0  0  0  0  0  0  0  0  0
   22.0105  -20.8980  -12.7353 N   0  0  0  0  0  0  0  0  0  0  0  0
   19.7616  -20.1895  -12.3016 C   0  0  0  0  0  0  0  0  0  0  0  0
   19.8980  -20.8220  -11.2091 O   0  0  0  0  0  0  0  0  0  0  0  0
   18.6112  -19.4437  -12.4522 O   0  0  0  0  0  0  0  0  0  0  0  0
  2  1  1  0
  2  4  1  0
  3  2  2  0
  5  4  1  0
  5  6  1  6
  7  9  1  0
  7  5  1  0
  8  7  2  0
 10  9  1  0
 10 11  1  1
 12 16  1  0
 12 11  1  0
 13 12  2  0
 14 15  2  0
 14 10  1  0
 17 18  1  0
 18 19  2  0
 20 18  1  0
 20 21  1  0
 22 21  1  6
 22 23  1  0
 23 14  1  0
 24 22  1  0
 25 24  2  0
 26 24  1  0
M  END
$$$$
