NDQ.pdb
     RDKit          3D

 26 25  0  0  1  0  0  0  0  0999 V2000
   14.7774  -14.0803  -10.9062 N   0  0  0  0  0  0  0  0  0  0  0  0
   15.9389  -13.6037  -11.5750 C   0  0  0  0  0  0  0  0  0  0  0  0
   16.7826  -14.4059  -12.0568 O   0  0  0  0  0  0  0  0  0  0  0  0
   16.1849  -12.1598  -11.7237 C   0  0  0  0  0  0  0  0  0  0  0  0
   15.1051  -11.3459  -11.0283 C   0  0  2  0  0  0  0  0  0  0  0  0
   13.8442  -11.5502  -11.7344 N   0  0  0  0  0  0  0  0  0  0  0  0
   15.4733   -9.9336  -11.0776 C   0  0  0  0  0  0  0  0  0  0  0  0
   15.1863   -9.2292  -12.0917 O   0  0  0  0  0  0  0  0  0  0  0  0
   16.1630   -9.2718  -10.0055 N   0  0  0  0  0  0  0  0  0  0  0  0
   16.5248   -7.8816  -10.1339 C   0  0  1  0  0  0  0  0  0  0  0  0
   16.2829   -7.1476   -8.8249 C   0  0  0  0  0  0  0  0  0  0  0  0
   16.5789   -5.7232   -8.9953 C   0  0  0  0  0  0  0  0  0  0  0  0
   16.2311   -5.1533  -10.0618 O   0  0  0  0  0  0  0  0  0  0  0  0
   17.9657   -7.7072  -10.5460 C   0  0  0  0  0  0  0  0  0  0  0  0
   18.8217   -8.5482  -10.1681 O   0  0  0  0  0  0  0  0  0  0  0  0
   17.2263   -5.0059   -8.0144 O   0  0  0  0  0  0  0  0  0  0  0  0
   20.1893  -10.0805  -14.1928 N   0  0  0  0  0  0  0  0  0  0  0  0
   21.2931   -9.1911  -14.3148 C   0  0  0  0  0  0  0  0  0  0  0  0
   22.3117   -9.4392  -14.9936 O   0  0  0  0  0  0  0  0  0  0  0  0
   21.1944   -7.8867  -13.5690 C   0  0  0  0  0  0  0  0  0  0  0  0
   19.8853   -7.8559  -12.8499 C   0  0  0  0  0  0  0  0  0  0  0  0
   19.7212   -6.6373  -12.0343 C   0  0  2  0  0  0  0  0  0  0  0  0
   18.4078   -6.6270  -11.3522 N   0  0  0  0  0  0  0  0  0  0  0  0
   19.8579   -5.3741  -12.7927 C   0  0  0  0  0  0  0  0  0  0  0  0
   18.8211   -4.7478  -13.1734 O   0  0  0  0  0  0  0  0  0  0  0  0
   21.0778   -4.8187  -13.1176 O   0  0  0  0  0  0  0  0  0  0  0  0
  2  1  1  0
  2  4  1  0
  3  2  2  0
  5  4  1  0
  5  6  1  6
  7  9  1  0
  7  5  1  0
  8  7  2  0
 10  9  1  0
 10 11  1  1
 12 16  1  0
 12 11  1  0
 13 12  2  0
 14 15  2  0
 14 10  1  0
 17 18  1  0
 18 19  2  0
 20 18  1  0
 20 21  1  0
 22 21  1  6
 22 23  1  0
 23 14  1  0
 24 22  1  0
 25 24  2  0
 26 24  1  0
M  END
$$$$
