NDQ.pdb
     RDKit          3D

 26 25  0  0  1  0  0  0  0  0999 V2000
   17.4798  -12.6356  -17.2854 N   0  0  0  0  0  0  0  0  0  0  0  0
   18.0577  -11.7461  -16.3375 C   0  0  0  0  0  0  0  0  0  0  0  0
   18.4557  -12.1639  -15.2175 O   0  0  0  0  0  0  0  0  0  0  0  0
   18.2081  -10.3134  -16.6414 C   0  0  0  0  0  0  0  0  0  0  0  0
   18.0928   -9.4713  -15.3807 C   0  0  2  0  0  0  0  0  0  0  0  0
   16.7427   -9.6196  -14.8464 N   0  0  0  0  0  0  0  0  0  0  0  0
   18.3352   -8.0726  -15.7236 C   0  0  0  0  0  0  0  0  0  0  0  0
   19.4281   -7.7226  -16.2623 O   0  0  0  0  0  0  0  0  0  0  0  0
   17.3730   -7.0342  -15.4806 N   0  0  0  0  0  0  0  0  0  0  0  0
   17.6501   -5.6841  -15.9056 C   0  0  1  0  0  0  0  0  0  0  0  0
   16.3950   -4.8314  -15.8148 C   0  0  0  0  0  0  0  0  0  0  0  0
   15.3495   -5.3987  -16.6696 C   0  0  0  0  0  0  0  0  0  0  0  0
   14.2386   -5.6929  -16.1574 O   0  0  0  0  0  0  0  0  0  0  0  0
   18.7473   -5.0474  -15.0886 C   0  0  0  0  0  0  0  0  0  0  0  0
   18.6284   -4.9852  -13.8378 O   0  0  0  0  0  0  0  0  0  0  0  0
   15.5632   -5.6128  -18.0129 O   0  0  0  0  0  0  0  0  0  0  0  0
   22.2665   -7.5342  -14.5245 N   0  0  0  0  0  0  0  0  0  0  0  0
   22.1117   -6.9532  -13.2349 C   0  0  0  0  0  0  0  0  0  0  0  0
   22.0743   -7.6149  -12.1764 O   0  0  0  0  0  0  0  0  0  0  0  0
   21.9875   -5.4535  -13.1808 C   0  0  0  0  0  0  0  0  0  0  0  0
   22.0608   -4.9265  -14.5769 C   0  0  0  0  0  0  0  0  0  0  0  0
   21.0123   -3.9263  -14.8552 C   0  0  2  0  0  0  0  0  0  0  0  0
   19.9240   -4.5101  -15.6708 N   0  0  0  0  0  0  0  0  0  0  0  0
   21.4993   -2.7078  -15.5387 C   0  0  0  0  0  0  0  0  0  0  0  0
   22.4178   -2.0084  -15.0100 O   0  0  0  0  0  0  0  0  0  0  0  0
   21.0040   -2.2749  -16.7510 O   0  0  0  0  0  0  0  0  0  0  0  0
  2  1  1  0
  2  4  1  0
  3  2  2  0
  5  4  1  0
  5  6  1  6
  7  9  1  0
  7  5  1  0
  8  7  2  0
 10  9  1  0
 10 11  1  1
 12 16  1  0
 12 11  1  0
 13 12  2  0
 14 15  2  0
 14 10  1  0
 17 18  1  0
 18 19  2  0
 20 18  1  0
 20 21  1  0
 22 21  1  6
 22 23  1  0
 23 14  1  0
 24 22  1  0
 25 24  2  0
 26 24  1  0
M  END
$$$$
