NDQ.pdb
     RDKit          3D

 26 25  0  0  1  0  0  0  0  0999 V2000
   15.1574  -13.0037  -17.2210 N   0  0  0  0  0  0  0  0  0  0  0  0
   14.8988  -12.5710  -15.8908 C   0  0  0  0  0  0  0  0  0  0  0  0
   13.7925  -12.8091  -15.3369 O   0  0  0  0  0  0  0  0  0  0  0  0
   15.9183  -11.8349  -15.1252 C   0  0  0  0  0  0  0  0  0  0  0  0
   17.1240  -11.5079  -15.9920 C   0  0  2  0  0  0  0  0  0  0  0  0
   17.8310  -12.7496  -16.2895 N   0  0  0  0  0  0  0  0  0  0  0  0
   18.0041  -10.6051  -15.2553 C   0  0  0  0  0  0  0  0  0  0  0  0
   19.0715  -11.0376  -14.7257 O   0  0  0  0  0  0  0  0  0  0  0  0
   17.7228   -9.2060  -15.0923 N   0  0  0  0  0  0  0  0  0  0  0  0
   18.7128   -8.3380  -14.5033 C   0  0  1  0  0  0  0  0  0  0  0  0
   20.0318   -8.4547  -15.2496 C   0  0  0  0  0  0  0  0  0  0  0  0
   21.0152   -7.5431  -14.6601 C   0  0  0  0  0  0  0  0  0  0  0  0
   21.1006   -7.4687  -13.4070 O   0  0  0  0  0  0  0  0  0  0  0  0
   18.2686   -6.8960  -14.4954 C   0  0  0  0  0  0  0  0  0  0  0  0
   17.9530   -6.3417  -15.5798 O   0  0  0  0  0  0  0  0  0  0  0  0
   21.8395   -6.7737  -15.4502 O   0  0  0  0  0  0  0  0  0  0  0  0
   16.1400   -4.1190   -9.4399 N   0  0  0  0  0  0  0  0  0  0  0  0
   15.7794   -3.0940  -10.3584 C   0  0  0  0  0  0  0  0  0  0  0  0
   15.1278   -2.0768  -10.0415 O   0  0  0  0  0  0  0  0  0  0  0  0
   16.2241   -3.2793  -11.7851 C   0  0  0  0  0  0  0  0  0  0  0  0
   16.9583   -4.5768  -11.8824 C   0  0  0  0  0  0  0  0  0  0  0  0
   17.4491   -4.8431  -13.2482 C   0  0  2  0  0  0  0  0  0  0  0  0
   18.1864   -6.1250  -13.3075 N   0  0  0  0  0  0  0  0  0  0  0  0
   18.3213   -3.7825  -13.7993 C   0  0  0  0  0  0  0  0  0  0  0  0
   17.8297   -2.6521  -14.1040 O   0  0  0  0  0  0  0  0  0  0  0  0
   19.6746   -3.9513  -14.0052 O   0  0  0  0  0  0  0  0  0  0  0  0
  2  1  1  0
  2  4  1  0
  3  2  2  0
  5  4  1  0
  5  6  1  1
  7  9  1  0
  7  5  1  0
  8  7  2  0
 10  9  1  0
 10 11  1  6
 12 16  1  0
 12 11  1  0
 13 12  2  0
 14 15  2  0
 14 10  1  0
 17 18  1  0
 18 19  2  0
 20 18  1  0
 20 21  1  0
 22 21  1  1
 22 23  1  0
 23 14  1  0
 24 22  1  0
 25 24  2  0
 26 24  1  0
M  END
$$$$
