VEN.pdb
     RDKit          3D

 25 24  0  0  1  0  0  0  0  0999 V2000
   26.4696  -14.2008  -15.1271 C   0  0  0  0  0  0  0  0  0  0  0  0
   25.6624  -12.9923  -15.5785 C   0  0  1  0  0  0  0  0  0  0  0  0
   26.5888  -12.0017  -16.2296 C   0  0  0  0  0  0  0  0  0  0  0  0
   24.5231  -13.4317  -16.4882 C   0  0  2  0  0  0  0  0  0  0  0  0
   25.1604  -14.1657  -17.5819 N   0  0  0  0  0  0  0  0  0  0  0  0
   23.6391  -12.3604  -16.8951 C   0  0  0  0  0  0  0  0  0  0  0  0
   23.8018  -11.8341  -18.0337 O   0  0  0  0  0  0  0  0  0  0  0  0
   22.6024  -11.8875  -16.0575 N   0  0  0  0  0  0  0  0  0  0  0  0
   21.6915  -10.8229  -16.5127 C   0  0  1  0  0  0  0  0  0  0  0  0
   20.2986  -11.3643  -16.6155 C   0  0  0  0  0  0  0  0  0  0  0  0
   19.3288  -10.2732  -16.9400 C   0  0  0  0  0  0  0  0  0  0  0  0
   17.9197  -10.7970  -17.0284 C   0  0  0  0  0  0  0  0  0  0  0  0
   17.6918  -11.9706  -16.7089 O   0  0  0  0  0  0  0  0  0  0  0  0
   21.8878   -9.6395  -15.6799 C   0  0  0  0  0  0  0  0  0  0  0  0
   22.1304   -9.8687  -14.4317 O   0  0  0  0  0  0  0  0  0  0  0  0
   16.9405   -9.9439  -17.4648 O   0  0  0  0  0  0  0  0  0  0  0  0
   22.1521   -5.2375  -13.4071 N   0  0  0  0  0  0  0  0  0  0  0  0
   22.5472   -4.8741  -14.7467 C   0  0  0  0  0  0  0  0  0  0  0  0
   22.9388   -3.6984  -14.9815 O   0  0  0  0  0  0  0  0  0  0  0  0
   22.4553   -5.9428  -15.7641 C   0  0  0  0  0  0  0  0  0  0  0  0
   21.9858   -7.2071  -15.1038 C   0  0  2  0  0  0  0  0  0  0  0  0
   21.8482   -8.2891  -16.0786 N   0  0  0  0  0  0  0  0  0  0  0  0
   20.6975   -6.9589  -14.4458 C   0  0  0  0  0  0  0  0  0  0  0  0
   20.5515   -6.7026  -13.2177 O   0  0  0  0  0  0  0  0  0  0  0  0
   19.5308   -7.0018  -15.1953 O   0  0  0  0  0  0  0  0  0  0  0  0
  2  1  1  6
  2  3  1  0
  4  2  1  0
  4  5  1  6
  6  7  2  0
  6  4  1  0
  8  6  1  0
  9  8  1  0
  9 10  1  1
 11 12  1  0
 11 10  1  0
 12 16  1  0
 13 12  2  0
 14  9  1  0
 14 22  1  0
 15 14  2  0
 17 18  1  0
 18 19  2  0
 20 18  1  0
 21 20  1  6
 21 22  1  0
 21 23  1  0
 23 24  2  0
 23 25  1  0
M  END
$$$$
