VEN.pdb
     RDKit          3D

 25 24  0  0  1  0  0  0  0  0999 V2000
   27.8874  -13.0081  -15.5690 C   0  0  0  0  0  0  0  0  0  0  0  0
   26.8377  -12.0171  -16.0504 C   0  0  1  0  0  0  0  0  0  0  0  0
   27.3866  -11.2573  -17.2272 C   0  0  0  0  0  0  0  0  0  0  0  0
   25.5353  -12.7418  -16.3624 C   0  0  2  0  0  0  0  0  0  0  0  0
   25.8946  -13.7947  -17.3127 N   0  0  0  0  0  0  0  0  0  0  0  0
   24.4561  -11.8730  -16.7812 C   0  0  0  0  0  0  0  0  0  0  0  0
   24.2654  -11.6894  -18.0181 O   0  0  0  0  0  0  0  0  0  0  0  0
   23.6124  -11.2258  -15.8488 N   0  0  0  0  0  0  0  0  0  0  0  0
   22.5003  -10.3732  -16.3032 C   0  0  1  0  0  0  0  0  0  0  0  0
   21.2074  -11.1160  -16.1596 C   0  0  0  0  0  0  0  0  0  0  0  0
   20.0602  -10.2780  -16.6265 C   0  0  0  0  0  0  0  0  0  0  0  0
   18.7618  -11.0382  -16.5651 C   0  0  0  0  0  0  0  0  0  0  0  0
   18.7647  -12.2032  -16.1475 O   0  0  0  0  0  0  0  0  0  0  0  0
   22.5987   -9.0720  -15.6477 C   0  0  0  0  0  0  0  0  0  0  0  0
   23.0165   -9.0925  -14.4253 O   0  0  0  0  0  0  0  0  0  0  0  0
   17.6215  -10.4021  -16.9799 O   0  0  0  0  0  0  0  0  0  0  0  0
   22.5860   -4.4097  -13.9733 N   0  0  0  0  0  0  0  0  0  0  0  0
   22.3454   -4.1675  -15.3755 C   0  0  0  0  0  0  0  0  0  0  0  0
   22.2880   -2.9814  -15.8002 O   0  0  0  0  0  0  0  0  0  0  0  0
   22.1792   -5.3672  -16.2233 C   0  0  0  0  0  0  0  0  0  0  0  0
   22.3915   -6.5931  -15.3824 C   0  0  2  0  0  0  0  0  0  0  0  0
   22.2979   -7.8080  -16.1918 N   0  0  0  0  0  0  0  0  0  0  0  0
   21.3870   -6.6252  -14.3128 C   0  0  0  0  0  0  0  0  0  0  0  0
   20.1532   -6.8320  -14.4869 O   0  0  0  0  0  0  0  0  0  0  0  0
   21.7834   -6.4157  -12.9999 O   0  0  0  0  0  0  0  0  0  0  0  0
  2  1  1  6
  2  3  1  0
  4  2  1  0
  4  5  1  6
  6  7  2  0
  6  4  1  0
  8  6  1  0
  9  8  1  0
  9 10  1  1
 11 12  1  0
 11 10  1  0
 12 16  1  0
 13 12  2  0
 14  9  1  0
 14 22  1  0
 15 14  2  0
 17 18  1  0
 18 19  2  0
 20 18  1  0
 21 20  1  6
 21 22  1  0
 21 23  1  0
 23 24  2  0
 23 25  1  0
M  END
$$$$
