VEN.pdb
     RDKit          3D

 25 24  0  0  1  0  0  0  0  0999 V2000
   16.4681   -8.1800  -17.7067 C   0  0  0  0  0  0  0  0  0  0  0  0
   15.9826   -9.5938  -17.4220 C   0  0  1  0  0  0  0  0  0  0  0  0
   14.8895   -9.9404  -18.3959 C   0  0  0  0  0  0  0  0  0  0  0  0
   17.1513  -10.5690  -17.4643 C   0  0  2  0  0  0  0  0  0  0  0  0
   16.5709  -11.8832  -17.1872 N   0  0  0  0  0  0  0  0  0  0  0  0
   18.2683  -10.1965  -16.6227 C   0  0  0  0  0  0  0  0  0  0  0  0
   18.1888  -10.4012  -15.3770 O   0  0  0  0  0  0  0  0  0  0  0  0
   19.4418   -9.6119  -17.1529 N   0  0  0  0  0  0  0  0  0  0  0  0
   20.5961   -9.3183  -16.2859 C   0  0  1  0  0  0  0  0  0  0  0  0
   21.7665  -10.1516  -16.7093 C   0  0  0  0  0  0  0  0  0  0  0  0
   22.9680   -9.8401  -15.8752 C   0  0  0  0  0  0  0  0  0  0  0  0
   24.1488  -10.6861  -16.2725 C   0  0  0  0  0  0  0  0  0  0  0  0
   24.0256  -11.4950  -17.2009 O   0  0  0  0  0  0  0  0  0  0  0  0
   20.7925   -7.8724  -16.2275 C   0  0  0  0  0  0  0  0  0  0  0  0
   20.3485   -7.2068  -17.2419 O   0  0  0  0  0  0  0  0  0  0  0  0
   25.3205  -10.5238  -15.5811 O   0  0  0  0  0  0  0  0  0  0  0  0
   21.6226   -3.0670  -15.3128 N   0  0  0  0  0  0  0  0  0  0  0  0
   20.2746   -3.5750  -15.4001 C   0  0  0  0  0  0  0  0  0  0  0  0
   19.3090   -2.7664  -15.4671 O   0  0  0  0  0  0  0  0  0  0  0  0
   20.1334   -5.0466  -15.4020 C   0  0  0  0  0  0  0  0  0  0  0  0
   21.4942   -5.6684  -15.2744 C   0  0  2  0  0  0  0  0  0  0  0  0
   21.4007   -7.1263  -15.1990 N   0  0  0  0  0  0  0  0  0  0  0  0
   22.1532   -5.1459  -14.0715 C   0  0  0  0  0  0  0  0  0  0  0  0
   22.4423   -3.9320  -13.8761 O   0  0  0  0  0  0  0  0  0  0  0  0
   22.5014   -6.0199  -13.0518 O   0  0  0  0  0  0  0  0  0  0  0  0
  2  1  1  6
  2  3  1  0
  4  2  1  0
  4  5  1  1
  6  7  2  0
  6  4  1  0
  8  6  1  0
  9  8  1  0
  9 10  1  6
 11 12  1  0
 11 10  1  0
 12 16  1  0
 13 12  2  0
 14  9  1  0
 14 22  1  0
 15 14  2  0
 17 18  1  0
 18 19  2  0
 20 18  1  0
 21 20  1  1
 21 22  1  0
 21 23  1  0
 23 24  2  0
 23 25  1  0
M  END
$$$$
