VEN.pdb
     RDKit          3D

 25 24  0  0  1  0  0  0  0  0999 V2000
   12.3849  -10.8473  -14.7159 C   0  0  0  0  0  0  0  0  0  0  0  0
   12.3819  -12.2419  -14.1071 C   0  0  1  0  0  0  0  0  0  0  0  0
   11.0835  -12.9211  -14.4483 C   0  0  0  0  0  0  0  0  0  0  0  0
   13.6041  -13.0213  -14.5737 C   0  0  2  0  0  0  0  0  0  0  0  0
   13.5549  -14.2913  -13.8487 N   0  0  0  0  0  0  0  0  0  0  0  0
   14.8510  -12.2948  -14.4643 C   0  0  0  0  0  0  0  0  0  0  0  0
   15.4264  -12.2359  -13.3394 O   0  0  0  0  0  0  0  0  0  0  0  0
   15.4414  -11.6509  -15.5765 N   0  0  0  0  0  0  0  0  0  0  0  0
   16.7733  -11.0307  -15.4692 C   0  0  1  0  0  0  0  0  0  0  0  0
   17.7065  -11.6732  -16.4490 C   0  0  0  0  0  0  0  0  0  0  0  0
   18.6317  -12.6218  -15.7557 C   0  0  0  0  0  0  0  0  0  0  0  0
   19.4981  -13.3638  -16.7388 C   0  0  0  0  0  0  0  0  0  0  0  0
   19.3185  -14.5770  -16.9046 O   0  0  0  0  0  0  0  0  0  0  0  0
   16.6298   -9.5790  -15.5377 C   0  0  0  0  0  0  0  0  0  0  0  0
   15.5892   -9.1498  -16.1718 O   0  0  0  0  0  0  0  0  0  0  0  0
   20.4590  -12.6576  -17.4133 O   0  0  0  0  0  0  0  0  0  0  0  0
   15.3030   -4.7523  -14.8527 N   0  0  0  0  0  0  0  0  0  0  0  0
   16.3799   -5.1824  -13.9935 C   0  0  0  0  0  0  0  0  0  0  0  0
   17.0958   -4.3198  -13.4155 O   0  0  0  0  0  0  0  0  0  0  0  0
   16.5609   -6.6435  -13.8599 C   0  0  0  0  0  0  0  0  0  0  0  0
   17.1842   -7.1759  -15.1181 C   0  0  2  0  0  0  0  0  0  0  0  0
   17.4855   -8.6018  -14.9924 N   0  0  0  0  0  0  0  0  0  0  0  0
   18.4142   -6.4272  -15.4021 C   0  0  0  0  0  0  0  0  0  0  0  0
   19.5574   -6.7189  -14.9515 O   0  0  0  0  0  0  0  0  0  0  0  0
   18.3568   -5.3089  -16.2213 O   0  0  0  0  0  0  0  0  0  0  0  0
  2  1  1  6
  2  3  1  0
  4  2  1  0
  4  5  1  1
  6  7  2  0
  6  4  1  0
  8  6  1  0
  9  8  1  0
  9 10  1  6
 11 12  1  0
 11 10  1  0
 12 16  1  0
 13 12  2  0
 14  9  1  0
 14 22  1  0
 15 14  2  0
 17 18  1  0
 18 19  2  0
 20 18  1  0
 21 20  1  1
 21 22  1  0
 21 23  1  0
 23 24  2  0
 23 25  1  0
M  END
$$$$
