VEN.pdb
     RDKit          3D

 25 24  0  0  1  0  0  0  0  0999 V2000
   12.7089   -8.5121  -12.4887 C   0  0  0  0  0  0  0  0  0  0  0  0
   12.4356   -9.6427  -11.5075 C   0  0  1  0  0  0  0  0  0  0  0  0
   10.9721   -9.6435  -11.1585 C   0  0  0  0  0  0  0  0  0  0  0  0
   12.9119  -10.9678  -12.0871 C   0  0  2  0  0  0  0  0  0  0  0  0
   12.6929  -11.9553  -11.0298 N   0  0  0  0  0  0  0  0  0  0  0  0
   14.2523  -10.9320  -12.6317 C   0  0  0  0  0  0  0  0  0  0  0  0
   15.2340  -11.0730  -11.8467 O   0  0  0  0  0  0  0  0  0  0  0  0
   14.4937  -10.7439  -14.0125 N   0  0  0  0  0  0  0  0  0  0  0  0
   15.8692  -10.6939  -14.5375 C   0  0  1  0  0  0  0  0  0  0  0  0
   16.0333  -11.7230  -15.6135 C   0  0  0  0  0  0  0  0  0  0  0  0
   17.1967  -12.6155  -15.3200 C   0  0  0  0  0  0  0  0  0  0  0  0
   18.5058  -11.9117  -15.5618 C   0  0  0  0  0  0  0  0  0  0  0  0
   19.3038  -11.7846  -14.6245 O   0  0  0  0  0  0  0  0  0  0  0  0
   16.1989   -9.3129  -14.8791 C   0  0  0  0  0  0  0  0  0  0  0  0
   15.2362   -8.6184  -15.3891 O   0  0  0  0  0  0  0  0  0  0  0  0
   18.7595  -11.4357  -16.8212 O   0  0  0  0  0  0  0  0  0  0  0  0
   17.0496   -5.0749  -17.8157 N   0  0  0  0  0  0  0  0  0  0  0  0
   16.7925   -5.4077  -16.4351 C   0  0  0  0  0  0  0  0  0  0  0  0
   16.7345   -4.4875  -15.5746 O   0  0  0  0  0  0  0  0  0  0  0  0
   16.6148   -6.8443  -16.1350 C   0  0  0  0  0  0  0  0  0  0  0  0
   17.5960   -7.2467  -15.0720 C   0  0  2  0  0  0  0  0  0  0  0  0
   17.4337   -8.6555  -14.7132 N   0  0  0  0  0  0  0  0  0  0  0  0
   17.3986   -6.4023  -13.8878 C   0  0  0  0  0  0  0  0  0  0  0  0
   16.6684   -6.7011  -12.9015 O   0  0  0  0  0  0  0  0  0  0  0  0
   18.0442   -5.1767  -13.8101 O   0  0  0  0  0  0  0  0  0  0  0  0
  2  1  1  6
  2  3  1  0
  4  2  1  0
  4  5  1  1
  6  7  2  0
  6  4  1  0
  8  6  1  0
  9  8  1  0
  9 10  1  6
 11 12  1  0
 11 10  1  0
 12 16  1  0
 13 12  2  0
 14  9  1  0
 14 22  1  0
 15 14  2  0
 17 18  1  0
 18 19  2  0
 20 18  1  0
 21 20  1  6
 21 22  1  0
 21 23  1  0
 23 24  2  0
 23 25  1  0
M  END
$$$$
