VEN.pdb
     RDKit          3D

 25 24  0  0  1  0  0  0  0  0999 V2000
   16.6952   -8.4719  -16.7094 C   0  0  0  0  0  0  0  0  0  0  0  0
   16.5325   -9.9371  -16.3320 C   0  0  1  0  0  0  0  0  0  0  0  0
   15.4531  -10.5446  -17.1861 C   0  0  0  0  0  0  0  0  0  0  0  0
   17.8666  -10.6614  -16.4511 C   0  0  2  0  0  0  0  0  0  0  0  0
   17.5982  -12.0399  -16.0405 N   0  0  0  0  0  0  0  0  0  0  0  0
   18.9602  -10.0124  -15.7602 C   0  0  0  0  0  0  0  0  0  0  0  0
   19.0272  -10.1052  -14.5005 O   0  0  0  0  0  0  0  0  0  0  0  0
   19.9522   -9.2795  -16.4524 N   0  0  0  0  0  0  0  0  0  0  0  0
   21.0997   -8.6990  -15.7339 C   0  0  1  0  0  0  0  0  0  0  0  0
   22.3707   -9.3043  -16.2458 C   0  0  0  0  0  0  0  0  0  0  0  0
   22.7945  -10.4525  -15.3865 C   0  0  0  0  0  0  0  0  0  0  0  0
   24.1385  -10.9873  -15.8052 C   0  0  0  0  0  0  0  0  0  0  0  0
   24.7341  -10.4499  -16.7475 O   0  0  0  0  0  0  0  0  0  0  0  0
   20.9942   -7.2428  -15.7650 C   0  0  0  0  0  0  0  0  0  0  0  0
   20.7018   -6.7283  -16.9135 O   0  0  0  0  0  0  0  0  0  0  0  0
   24.6490  -12.0578  -15.1193 O   0  0  0  0  0  0  0  0  0  0  0  0
   20.6923   -2.3546  -15.3319 N   0  0  0  0  0  0  0  0  0  0  0  0
   19.7822   -2.8958  -14.3513 C   0  0  0  0  0  0  0  0  0  0  0  0
   18.9566   -2.1314  -13.7814 O   0  0  0  0  0  0  0  0  0  0  0  0
   19.8983   -4.3457  -14.0870 C   0  0  0  0  0  0  0  0  0  0  0  0
   21.0393   -4.8993  -14.8909 C   0  0  2  0  0  0  0  0  0  0  0  0
   21.1682   -6.3432  -14.6951 N   0  0  0  0  0  0  0  0  0  0  0  0
   22.2818   -4.2270  -14.4927 C   0  0  0  0  0  0  0  0  0  0  0  0
   22.9111   -4.4488  -13.4203 O   0  0  0  0  0  0  0  0  0  0  0  0
   22.8362   -3.2694  -15.3297 O   0  0  0  0  0  0  0  0  0  0  0  0
  2  1  1  6
  2  3  1  0
  4  2  1  0
  4  5  1  1
  6  7  2  0
  6  4  1  0
  8  6  1  0
  9  8  1  0
  9 10  1  6
 11 12  1  0
 11 10  1  0
 12 16  1  0
 13 12  2  0
 14  9  1  0
 14 22  1  0
 15 14  2  0
 17 18  1  0
 18 19  2  0
 20 18  1  0
 21 20  1  1
 21 22  1  0
 21 23  1  0
 23 24  2  0
 23 25  1  0
M  END
$$$$
