VEN.pdb
     RDKit          3D

 25 24  0  0  1  0  0  0  0  0999 V2000
   23.4712  -10.5703  -14.8089 C   0  0  0  0  0  0  0  0  0  0  0  0
   23.5288  -11.5366  -15.9831 C   0  0  1  0  0  0  0  0  0  0  0  0
   24.5163  -12.6276  -15.6699 C   0  0  0  0  0  0  0  0  0  0  0  0
   22.1356  -12.0644  -16.2977 C   0  0  2  0  0  0  0  0  0  0  0  0
   22.3249  -13.0496  -17.3629 N   0  0  0  0  0  0  0  0  0  0  0  0
   21.1572  -11.0345  -16.5748 C   0  0  0  0  0  0  0  0  0  0  0  0
   21.2332  -10.3980  -17.6652 O   0  0  0  0  0  0  0  0  0  0  0  0
   20.1226  -10.7212  -15.6629 N   0  0  0  0  0  0  0  0  0  0  0  0
   19.2133   -9.5896  -15.9139 C   0  0  1  0  0  0  0  0  0  0  0  0
   17.7986  -10.0204  -15.6759 C   0  0  0  0  0  0  0  0  0  0  0  0
   17.3377  -10.9461  -16.7561 C   0  0  0  0  0  0  0  0  0  0  0  0
   15.9324  -11.4266  -16.5075 C   0  0  0  0  0  0  0  0  0  0  0  0
   15.2344  -11.7718  -17.4693 O   0  0  0  0  0  0  0  0  0  0  0  0
   19.6890   -8.4233  -15.1751 C   0  0  0  0  0  0  0  0  0  0  0  0
   20.2791   -8.6748  -14.0536 O   0  0  0  0  0  0  0  0  0  0  0  0
   15.4812  -11.4599  -15.2142 O   0  0  0  0  0  0  0  0  0  0  0  0
   22.2984   -4.9634  -12.7288 N   0  0  0  0  0  0  0  0  0  0  0  0
   22.4071   -5.0630  -14.1644 C   0  0  0  0  0  0  0  0  0  0  0  0
   23.0343   -4.1747  -14.8032 O   0  0  0  0  0  0  0  0  0  0  0  0
   21.7522   -6.2336  -14.7862 C   0  0  0  0  0  0  0  0  0  0  0  0
   20.2658   -6.0207  -14.7836 C   0  0  2  0  0  0  0  0  0  0  0  0
   19.5837   -7.0678  -15.5440 N   0  0  0  0  0  0  0  0  0  0  0  0
   19.9651   -4.7055  -15.3616 C   0  0  0  0  0  0  0  0  0  0  0  0
   19.4877   -4.5159  -16.5154 O   0  0  0  0  0  0  0  0  0  0  0  0
   20.2115   -3.5617  -14.6160 O   0  0  0  0  0  0  0  0  0  0  0  0
  2  1  1  1
  2  3  1  0
  4  2  1  0
  4  5  1  6
  6  7  2  0
  6  4  1  0
  8  6  1  0
  9  8  1  0
  9 10  1  1
 11 12  1  0
 11 10  1  0
 12 16  1  0
 13 12  2  0
 14  9  1  0
 14 22  1  0
 15 14  2  0
 17 18  1  0
 18 19  2  0
 20 18  1  0
 21 20  1  6
 21 22  1  0
 21 23  1  0
 23 24  2  0
 23 25  1  0
M  END
$$$$
