VEN.pdb
     RDKit          3D

 25 24  0  0  1  0  0  0  0  0999 V2000
   19.5617  -14.0052  -16.7066 C   0  0  0  0  0  0  0  0  0  0  0  0
   19.2612  -12.6534  -17.3374 C   0  0  1  0  0  0  0  0  0  0  0  0
   17.9398  -12.7310  -18.0526 C   0  0  0  0  0  0  0  0  0  0  0  0
   19.3041  -11.5589  -16.2795 C   0  0  2  0  0  0  0  0  0  0  0  0
   18.3965  -12.0051  -15.2220 N   0  0  0  0  0  0  0  0  0  0  0  0
   19.0526  -10.2279  -16.7893 C   0  0  0  0  0  0  0  0  0  0  0  0
   19.8825   -9.7161  -17.5950 O   0  0  0  0  0  0  0  0  0  0  0  0
   17.9088   -9.4865  -16.4123 N   0  0  0  0  0  0  0  0  0  0  0  0
   17.7540   -8.0795  -16.8205 C   0  0  1  0  0  0  0  0  0  0  0  0
   16.3007   -7.7679  -17.0061 C   0  0  0  0  0  0  0  0  0  0  0  0
   16.1104   -6.3339  -17.3852 C   0  0  0  0  0  0  0  0  0  0  0  0
   14.6528   -5.9992  -17.5609 C   0  0  0  0  0  0  0  0  0  0  0  0
   13.9346   -5.8895  -16.5591 O   0  0  0  0  0  0  0  0  0  0  0  0
   18.5062   -7.2309  -15.9004 C   0  0  0  0  0  0  0  0  0  0  0  0
   18.6176   -7.6772  -14.6931 O   0  0  0  0  0  0  0  0  0  0  0  0
   14.1786   -5.8304  -18.8352 O   0  0  0  0  0  0  0  0  0  0  0  0
   21.7247   -4.0974  -13.6963 N   0  0  0  0  0  0  0  0  0  0  0  0
   22.0088   -5.5023  -13.8651 C   0  0  0  0  0  0  0  0  0  0  0  0
   22.9782   -6.0188  -13.2455 O   0  0  0  0  0  0  0  0  0  0  0  0
   21.1130   -6.2413  -14.7800 C   0  0  0  0  0  0  0  0  0  0  0  0
   19.9840   -5.3409  -15.1918 C   0  0  2  0  0  0  0  0  0  0  0  0
   19.1229   -5.9950  -16.1769 N   0  0  0  0  0  0  0  0  0  0  0  0
   20.5346   -4.1012  -15.7523 C   0  0  0  0  0  0  0  0  0  0  0  0
   20.3635   -3.7075  -16.9401 O   0  0  0  0  0  0  0  0  0  0  0  0
   21.3069   -3.2747  -14.9489 O   0  0  0  0  0  0  0  0  0  0  0  0
  2  1  1  1
  2  3  1  0
  4  2  1  0
  4  5  1  1
  6  7  2  0
  6  4  1  0
  8  6  1  0
  9  8  1  0
  9 10  1  1
 11 12  1  0
 11 10  1  0
 12 16  1  0
 13 12  2  0
 14  9  1  0
 14 22  1  0
 15 14  2  0
 17 18  1  0
 18 19  2  0
 20 18  1  0
 21 20  1  6
 21 22  1  0
 21 23  1  0
 23 24  2  0
 23 25  1  0
M  END
$$$$
