VEN.pdb
     RDKit          3D

 25 24  0  0  1  0  0  0  0  0999 V2000
   26.8569  -33.2644   -4.7010 C   0  0  0  0  0  0  0  0  0  0  0  0
   26.1898  -33.1923   -3.3353 C   0  0  1  0  0  0  0  0  0  0  0  0
   25.7618  -31.7736   -3.0749 C   0  0  0  0  0  0  0  0  0  0  0  0
   25.0389  -34.1865   -3.2597 C   0  0  2  0  0  0  0  0  0  0  0  0
   24.2142  -33.7414   -2.1360 N   0  0  0  0  0  0  0  0  0  0  0  0
   25.4518  -35.5728   -3.2126 C   0  0  0  0  0  0  0  0  0  0  0  0
   26.5964  -35.8534   -2.7531 O   0  0  0  0  0  0  0  0  0  0  0  0
   24.6139  -36.6184   -3.6650 N   0  0  0  0  0  0  0  0  0  0  0  0
   25.0144  -38.0274   -3.5077 C   0  0  1  0  0  0  0  0  0  0  0  0
   24.0142  -38.7407   -2.6508 C   0  0  0  0  0  0  0  0  0  0  0  0
   24.3925  -40.1773   -2.4790 C   0  0  0  0  0  0  0  0  0  0  0  0
   23.3712  -40.9218   -1.6602 C   0  0  0  0  0  0  0  0  0  0  0  0
   22.3239  -40.3477   -1.3360 O   0  0  0  0  0  0  0  0  0  0  0  0
   25.2896  -38.5944   -4.8250 C   0  0  0  0  0  0  0  0  0  0  0  0
   24.5829  -38.1192   -5.7966 O   0  0  0  0  0  0  0  0  0  0  0  0
   23.6485  -42.2154   -1.3040 O   0  0  0  0  0  0  0  0  0  0  0  0
   26.6453  -41.1539   -8.8840 N   0  0  0  0  0  0  0  0  0  0  0  0
   27.8355  -40.4981   -8.3983 C   0  0  0  0  0  0  0  0  0  0  0  0
   28.8760  -40.4915   -9.1109 O   0  0  0  0  0  0  0  0  0  0  0  0
   27.7332  -39.8706   -7.0636 C   0  0  0  0  0  0  0  0  0  0  0  0
   26.3503  -40.0945   -6.5229 C   0  0  2  0  0  0  0  0  0  0  0  0
   26.2322  -39.5876   -5.1559 N   0  0  0  0  0  0  0  0  0  0  0  0
   26.0465  -41.5301   -6.5528 C   0  0  0  0  0  0  0  0  0  0  0  0
   25.3031  -42.0934   -7.4044 O   0  0  0  0  0  0  0  0  0  0  0  0
   26.5972  -42.3628   -5.5892 O   0  0  0  0  0  0  0  0  0  0  0  0
  2  1  1  6
  2  3  1  0
  4  2  1  0
  4  5  1  1
  6  7  2  0
  6  4  1  0
  8  6  1  0
  9  8  1  0
  9 10  1  6
 11 12  1  0
 11 10  1  0
 12 16  1  0
 13 12  2  0
 14  9  1  0
 14 22  1  0
 15 14  2  0
 17 18  1  0
 18 19  2  0
 20 18  1  0
 21 20  1  1
 21 22  1  0
 21 23  1  0
 23 24  2  0
 23 25  1  0
M  END
$$$$
