VEN.pdb
     RDKit          3D

 25 24  0  0  1  0  0  0  0  0999 V2000
   23.8055  -12.0179  -14.6780 C   0  0  0  0  0  0  0  0  0  0  0  0
   23.4957  -13.0860  -15.7167 C   0  0  1  0  0  0  0  0  0  0  0  0
   24.3586  -14.2897  -15.4520 C   0  0  0  0  0  0  0  0  0  0  0  0
   22.0070  -13.4062  -15.7130 C   0  0  2  0  0  0  0  0  0  0  0  0
   21.8565  -14.5642  -16.5946 N   0  0  0  0  0  0  0  0  0  0  0  0
   21.1547  -12.2783  -16.0230 C   0  0  0  0  0  0  0  0  0  0  0  0
   21.1912  -11.7878  -17.1883 O   0  0  0  0  0  0  0  0  0  0  0  0
   20.2856  -11.7114  -15.0620 N   0  0  0  0  0  0  0  0  0  0  0  0
   19.4279  -10.5638  -15.4049 C   0  0  1  0  0  0  0  0  0  0  0  0
   18.0008  -10.8922  -15.0902 C   0  0  0  0  0  0  0  0  0  0  0  0
   17.4373  -11.8338  -16.1062 C   0  0  0  0  0  0  0  0  0  0  0  0
   15.9785  -12.1087  -15.8533 C   0  0  0  0  0  0  0  0  0  0  0  0
   15.6548  -12.7898  -14.8721 O   0  0  0  0  0  0  0  0  0  0  0  0
   19.9837   -9.3562  -14.8005 C   0  0  0  0  0  0  0  0  0  0  0  0
   20.4797   -9.5015  -13.6164 O   0  0  0  0  0  0  0  0  0  0  0  0
   15.0627  -11.5894  -16.7300 O   0  0  0  0  0  0  0  0  0  0  0  0
   23.1819   -4.3914  -14.9566 N   0  0  0  0  0  0  0  0  0  0  0  0
   22.4645   -5.4396  -14.2715 C   0  0  0  0  0  0  0  0  0  0  0  0
   22.3338   -5.3863  -13.0182 O   0  0  0  0  0  0  0  0  0  0  0  0
   21.9274   -6.5229  -15.1221 C   0  0  0  0  0  0  0  0  0  0  0  0
   20.5827   -6.9358  -14.5965 C   0  0  2  0  0  0  0  0  0  0  0  0
   20.0450   -8.0637  -15.3573 N   0  0  0  0  0  0  0  0  0  0  0  0
   19.6625   -5.7951  -14.6743 C   0  0  0  0  0  0  0  0  0  0  0  0
   18.7872   -5.6332  -15.5703 O   0  0  0  0  0  0  0  0  0  0  0  0
   19.7297   -4.7992  -13.7106 O   0  0  0  0  0  0  0  0  0  0  0  0
  2  1  1  1
  2  3  1  0
  4  2  1  0
  4  5  1  6
  6  7  2  0
  6  4  1  0
  8  6  1  0
  9  8  1  0
  9 10  1  1
 11 12  1  0
 11 10  1  0
 12 16  1  0
 13 12  2  0
 14  9  1  0
 14 22  1  0
 15 14  2  0
 17 18  1  0
 18 19  2  0
 20 18  1  0
 21 20  1  6
 21 22  1  0
 21 23  1  0
 23 24  2  0
 23 25  1  0
M  END
$$$$
