RWM.pdb
     RDKit          3D

 34 35  0  0  1  0  0  0  0  0999 V2000
   28.7251  -17.9289  -19.8023 N   0  0  0  0  0  0  0  0  0  0  0  0
   29.2025  -16.7617  -19.0972 C   0  0  0  0  0  0  0  0  0  0  0  0
   29.3115  -15.6163  -19.6764 N   0  0  0  0  0  0  0  0  0  0  0  0
   29.5520  -16.8211  -17.7329 N   0  0  0  0  0  0  0  0  0  0  0  0
   29.3827  -17.9950  -16.9234 C   0  0  0  0  0  0  0  0  0  0  0  0
   27.9849  -18.4488  -16.7406 C   0  0  0  0  0  0  0  0  0  0  0  0
   27.5006  -18.8360  -15.4059 C   0  0  0  0  0  0  0  0  0  0  0  0
   28.0552  -20.0858  -14.8113 C   0  0  2  0  0  0  0  0  0  0  0  0
   28.6765  -21.0205  -15.6503 N   0  0  0  0  0  0  0  0  0  0  0  0
   26.9459  -20.7555  -14.0376 C   0  0  0  0  0  0  0  0  0  0  0  0
   25.9466  -21.2342  -14.6830 O   0  0  0  0  0  0  0  0  0  0  0  0
   29.5963  -14.7697  -19.1532 N   0  0  0  0  0  0  0  0  0  0  0  0
   26.9158  -20.8997  -12.6438 C   0  0  2  0  0  0  0  0  0  0  0  0
   25.7875  -21.5466  -11.9779 C   0  0  0  0  0  0  0  0  0  0  0  0
   26.0632  -22.0606  -10.6273 C   0  0  0  0  0  0  0  0  0  0  0  0
   26.2499  -21.0298   -9.5660 C   0  0  0  0  0  0  0  0  0  0  0  0
   25.3659  -20.0971   -9.0994 N   0  0  0  0  0  0  0  0  0  0  0  0
   25.9876  -19.3756   -8.1569 C   0  0  0  0  0  0  0  0  0  0  0  0
   27.2450  -19.8008   -7.9902 C   0  0  0  0  0  0  0  0  0  0  0  0
   28.2709  -19.3648   -7.1371 C   0  0  0  0  0  0  0  0  0  0  0  0
   29.4814  -20.0191   -7.2087 C   0  0  0  0  0  0  0  0  0  0  0  0
   29.6980  -21.0661   -8.0796 C   0  0  0  0  0  0  0  0  0  0  0  0
   28.6755  -21.5036   -8.9323 C   0  0  0  0  0  0  0  0  0  0  0  0
   27.4564  -20.8431   -8.8581 C   0  0  0  0  0  0  0  0  0  0  0  0
   24.6744  -20.5646  -12.1077 O   0  0  0  0  0  0  0  0  0  0  0  0
   24.9337  -19.3639  -12.4939 C   0  0  0  0  0  0  0  0  0  0  0  0
   23.6633  -20.7587  -16.9818 S   0  0  0  0  0  0  0  0  0  0  0  0
   21.9015  -21.1563  -16.7593 C   0  0  0  0  0  0  0  0  0  0  0  0
   21.4592  -20.6720  -15.0359 C   0  0  0  0  0  0  0  0  0  0  0  0
   22.5820  -21.0167  -14.1043 C   0  0  1  0  0  0  0  0  0  0  0  0
   22.2728  -20.5450  -12.7142 N   0  0  0  0  0  0  0  0  0  0  0  0
   23.3623  -20.9394  -11.8082 C   0  0  0  0  0  0  0  0  0  0  0  0
   21.0077  -21.0482  -12.1507 O   0  0  0  0  0  0  0  0  0  0  0  0
   20.7591  -22.3552  -11.8069 O   0  0  0  0  0  0  0  0  0  0  0  0
  2  1  1  0
  3  2  2  0
  4  2  1  0
  5  4  1  0
  6  5  1  0
  7  6  1  0
  7  8  1  0
  8  9  1  6
 10  8  1  0
 11 10  2  0
 12 10  1  0
 13 24  1  0
 13 12  1  0
 13 14  1  6
 15 23  1  0
 15 14  1  0
 16 15  2  0
 17 16  1  0
 17 18  1  0
 18 23  2  0
 19 18  1  0
 19 20  2  0
 20 21  1  0
 21 22  2  0
 23 22  1  0
 24 31  1  0
 25 24  2  0
 27 28  1  0
 27 26  1  0
 28 29  1  0
 30 29  1  6
 30 32  1  0
 31 30  1  0
 32 33  1  0
 34 32  2  0
M  END
$$$$
