RWM.pdb
     RDKit          3D

 34 35  0  0  1  0  0  0  0  0999 V2000
   31.7310  -22.7076  -18.8751 N   0  0  0  0  0  0  0  0  0  0  0  0
   30.6705  -23.0239  -19.8040 C   0  0  0  0  0  0  0  0  0  0  0  0
   30.7549  -24.0195  -20.6169 N   0  0  0  0  0  0  0  0  0  0  0  0
   29.4833  -22.2653  -19.8473 N   0  0  0  0  0  0  0  0  0  0  0  0
   29.2099  -21.1726  -18.9567 C   0  0  0  0  0  0  0  0  0  0  0  0
   29.1878  -21.5130  -17.5156 C   0  0  0  0  0  0  0  0  0  0  0  0
   27.9087  -21.7706  -16.8350 C   0  0  0  0  0  0  0  0  0  0  0  0
   27.1423  -20.5890  -16.3457 C   0  0  2  0  0  0  0  0  0  0  0  0
   27.7803  -19.3430  -16.2831 N   0  0  0  0  0  0  0  0  0  0  0  0
   26.5772  -20.9396  -14.9909 C   0  0  0  0  0  0  0  0  0  0  0  0
   25.9439  -22.0463  -14.8552 O   0  0  0  0  0  0  0  0  0  0  0  0
   30.0243  -24.2021  -21.3274 N   0  0  0  0  0  0  0  0  0  0  0  0
   26.6883  -20.1395  -13.8455 C   0  0  1  0  0  0  0  0  0  0  0  0
   26.0523  -20.5301  -12.5895 C   0  0  0  0  0  0  0  0  0  0  0  0
   26.6981  -20.0190  -11.3704 C   0  0  0  0  0  0  0  0  0  0  0  0
   26.0913  -20.4590  -10.0812 C   0  0  0  0  0  0  0  0  0  0  0  0
   25.1681  -21.4402   -9.8488 N   0  0  0  0  0  0  0  0  0  0  0  0
   24.9089  -21.4589   -8.5343 C   0  0  0  0  0  0  0  0  0  0  0  0
   25.6273  -20.5265   -7.8986 C   0  0  0  0  0  0  0  0  0  0  0  0
   25.6956  -20.1657   -6.5437 C   0  0  0  0  0  0  0  0  0  0  0  0
   26.5469  -19.1385   -6.1993 C   0  0  0  0  0  0  0  0  0  0  0  0
   27.3125  -18.4760   -7.1356 C   0  0  0  0  0  0  0  0  0  0  0  0
   27.2464  -18.8343   -8.4889 C   0  0  0  0  0  0  0  0  0  0  0  0
   26.3882  -19.8700   -8.8336 C   0  0  0  0  0  0  0  0  0  0  0  0
   24.6162  -20.1836  -12.7836 O   0  0  0  0  0  0  0  0  0  0  0  0
   24.2937  -18.9735  -13.0832 C   0  0  0  0  0  0  0  0  0  0  0  0
   19.5341  -24.0526  -13.9464 S   0  0  0  0  0  0  0  0  0  0  0  0
   20.9280  -23.8749  -15.1027 C   0  0  0  0  0  0  0  0  0  0  0  0
   21.8934  -22.4036  -14.5518 C   0  0  0  0  0  0  0  0  0  0  0  0
   21.4046  -21.9447  -13.2110 C   0  0  2  0  0  0  0  0  0  0  0  0
   22.2110  -20.7738  -12.7323 N   0  0  0  0  0  0  0  0  0  0  0  0
   23.6272  -21.1593  -12.6366 C   0  0  0  0  0  0  0  0  0  0  0  0
   21.8002  -20.2235  -11.4286 O   0  0  0  0  0  0  0  0  0  0  0  0
   20.7319  -19.3834  -11.2255 O   0  0  0  0  0  0  0  0  0  0  0  0
  2  1  1  0
  3  2  2  0
  4  2  1  0
  5  4  1  0
  6  5  1  0
  7  6  1  0
  7  8  1  0
  8  9  1  1
 10  8  1  0
 11 10  2  0
 12 10  1  0
 13 24  1  0
 13 12  1  0
 13 14  1  6
 15 23  1  0
 15 14  1  0
 16 15  2  0
 17 16  1  0
 17 18  1  0
 18 23  2  0
 19 18  1  0
 19 20  2  0
 20 21  1  0
 21 22  2  0
 23 22  1  0
 24 31  1  0
 25 24  2  0
 27 28  1  0
 27 26  1  0
 28 29  1  0
 30 29  1  6
 30 32  1  0
 31 30  1  0
 32 33  1  0
 34 32  2  0
M  END
$$$$
