RWM.pdb
     RDKit          3D

 34 35  0  0  1  0  0  0  0  0999 V2000
   29.7900  -21.9954  -17.2044 N   0  0  0  0  0  0  0  0  0  0  0  0
   29.8844  -20.8199  -18.0390 C   0  0  0  0  0  0  0  0  0  0  0  0
   30.0569  -20.9039  -19.3128 N   0  0  0  0  0  0  0  0  0  0  0  0
   29.7712  -19.5240  -17.4960 N   0  0  0  0  0  0  0  0  0  0  0  0
   29.3064  -19.2630  -16.1626 C   0  0  0  0  0  0  0  0  0  0  0  0
   27.8571  -18.9875  -16.0336 C   0  0  0  0  0  0  0  0  0  0  0  0
   27.0904  -19.5628  -14.9169 C   0  0  0  0  0  0  0  0  0  0  0  0
   27.4583  -20.9363  -14.4684 C   0  0  2  0  0  0  0  0  0  0  0  0
   27.1399  -22.0274  -15.2879 N   0  0  0  0  0  0  0  0  0  0  0  0
   26.8675  -21.1425  -13.0950 C   0  0  0  0  0  0  0  0  0  0  0  0
   25.7251  -21.7165  -12.9957 O   0  0  0  0  0  0  0  0  0  0  0  0
   30.1960  -20.0609  -19.8973 N   0  0  0  0  0  0  0  0  0  0  0  0
   27.4753  -20.7498  -11.8947 C   0  0  2  0  0  0  0  0  0  0  0  0
   26.7921  -20.9187  -10.6143 C   0  0  0  0  0  0  0  0  0  0  0  0
   27.5784  -20.5495   -9.4269 C   0  0  0  0  0  0  0  0  0  0  0  0
   26.8340  -20.5332   -8.1348 C   0  0  0  0  0  0  0  0  0  0  0  0
   25.5284  -20.8515   -7.8833 N   0  0  0  0  0  0  0  0  0  0  0  0
   25.3038  -20.6664   -6.5754 C   0  0  0  0  0  0  0  0  0  0  0  0
   26.4131  -20.2382   -5.9623 C   0  0  0  0  0  0  0  0  0  0  0  0
   26.6689  -19.9079   -4.6222 C   0  0  0  0  0  0  0  0  0  0  0  0
   27.9404  -19.4851   -4.3010 C   0  0  0  0  0  0  0  0  0  0  0  0
   28.9394  -19.3831   -5.2461 C   0  0  0  0  0  0  0  0  0  0  0  0
   28.6868  -19.7125   -6.5847 C   0  0  0  0  0  0  0  0  0  0  0  0
   27.4050  -20.1387   -6.9060 C   0  0  0  0  0  0  0  0  0  0  0  0
   25.4892  -20.2200  -10.8000 O   0  0  0  0  0  0  0  0  0  0  0  0
   25.4810  -18.9613  -11.0713 C   0  0  0  0  0  0  0  0  0  0  0  0
   22.0028  -18.2036  -15.3469 S   0  0  0  0  0  0  0  0  0  0  0  0
   21.2027  -19.6714  -14.6278 C   0  0  0  0  0  0  0  0  0  0  0  0
   21.4912  -19.5981  -12.8080 C   0  0  0  0  0  0  0  0  0  0  0  0
   22.7831  -20.2781  -12.4678 C   0  0  1  0  0  0  0  0  0  0  0  0
   23.0193  -20.2428  -10.9868 N   0  0  0  0  0  0  0  0  0  0  0  0
   24.2870  -20.9207  -10.6755 C   0  0  0  0  0  0  0  0  0  0  0  0
   21.9601  -20.8616  -10.1704 O   0  0  0  0  0  0  0  0  0  0  0  0
   22.0548  -22.0805   -9.5431 O   0  0  0  0  0  0  0  0  0  0  0  0
  2  1  1  0
  3  2  2  0
  4  2  1  0
  5  4  1  0
  6  5  1  0
  7  6  1  0
  7  8  1  0
  8  9  1  6
 10  8  1  0
 11 10  2  0
 12 10  1  0
 13 24  1  0
 13 12  1  0
 13 14  1  1
 15 23  1  0
 15 14  1  0
 16 15  2  0
 17 16  1  0
 17 18  1  0
 18 23  2  0
 19 18  1  0
 19 20  2  0
 20 21  1  0
 21 22  2  0
 23 22  1  0
 24 31  1  0
 25 24  2  0
 27 28  1  0
 27 26  1  0
 28 29  1  0
 30 29  1  6
 30 32  1  0
 31 30  1  0
 32 33  1  0
 34 32  2  0
M  END
$$$$
