RWM.pdb
     RDKit          3D

 34 35  0  0  1  0  0  0  0  0999 V2000
   22.6041  -22.1975  -15.7529 N   0  0  0  0  0  0  0  0  0  0  0  0
   22.3433  -22.5289  -17.1348 C   0  0  0  0  0  0  0  0  0  0  0  0
   21.2959  -22.0996  -17.7496 N   0  0  0  0  0  0  0  0  0  0  0  0
   23.2381  -23.3233  -17.8798 N   0  0  0  0  0  0  0  0  0  0  0  0
   24.4819  -23.8154  -17.3576 C   0  0  0  0  0  0  0  0  0  0  0  0
   25.7005  -23.3265  -18.0425 C   0  0  0  0  0  0  0  0  0  0  0  0
   26.4825  -22.2221  -17.4640 C   0  0  0  0  0  0  0  0  0  0  0  0
   27.4093  -22.5516  -16.3435 C   0  0  2  0  0  0  0  0  0  0  0  0
   28.0319  -23.8068  -16.3227 N   0  0  0  0  0  0  0  0  0  0  0  0
   26.6603  -22.3341  -15.0514 C   0  0  0  0  0  0  0  0  0  0  0  0
   26.0606  -23.3308  -14.5118 O   0  0  0  0  0  0  0  0  0  0  0  0
   21.1306  -22.3101  -18.7497 N   0  0  0  0  0  0  0  0  0  0  0  0
   26.5627  -21.1082  -14.3791 C   0  0  2  0  0  0  0  0  0  0  0  0
   25.9199  -21.0163  -13.0703 C   0  0  0  0  0  0  0  0  0  0  0  0
   26.4576  -19.9797  -12.1754 C   0  0  0  0  0  0  0  0  0  0  0  0
   27.5817  -20.4041  -11.2922 C   0  0  0  0  0  0  0  0  0  0  0  0
   28.7968  -20.9319  -11.6299 N   0  0  0  0  0  0  0  0  0  0  0  0
   29.4691  -21.1761  -10.4969 C   0  0  0  0  0  0  0  0  0  0  0  0
   28.7391  -20.8287   -9.4310 C   0  0  0  0  0  0  0  0  0  0  0  0
   29.0078  -20.8974   -8.0550 C   0  0  0  0  0  0  0  0  0  0  0  0
   28.0290  -20.4563   -7.1912 C   0  0  0  0  0  0  0  0  0  0  0  0
   26.8228  -19.9621   -7.6413 C   0  0  0  0  0  0  0  0  0  0  0  0
   26.5522  -19.8922   -9.0146 C   0  0  0  0  0  0  0  0  0  0  0  0
   27.5401  -20.3367   -9.8831 C   0  0  0  0  0  0  0  0  0  0  0  0
   24.4646  -20.9445  -13.3819 O   0  0  0  0  0  0  0  0  0  0  0  0
   24.0645  -20.2131  -14.3632 C   0  0  0  0  0  0  0  0  0  0  0  0
   17.7473  -23.4676  -14.4095 S   0  0  0  0  0  0  0  0  0  0  0  0
   19.4874  -23.7721  -13.9728 C   0  0  0  0  0  0  0  0  0  0  0  0
   19.9059  -22.6068  -12.6064 C   0  0  0  0  0  0  0  0  0  0  0  0
   21.3694  -22.6917  -12.2928 C   0  0  2  0  0  0  0  0  0  0  0  0
   22.1063  -21.5444  -12.9181 N   0  0  0  0  0  0  0  0  0  0  0  0
   23.5410  -21.6585  -12.6143 C   0  0  0  0  0  0  0  0  0  0  0  0
   21.6564  -20.2071  -12.4934 O   0  0  0  0  0  0  0  0  0  0  0  0
   20.6464  -19.4872  -13.0848 O   0  0  0  0  0  0  0  0  0  0  0  0
  2  1  1  0
  3  2  2  0
  4  2  1  0
  5  4  1  0
  6  5  1  0
  7  6  1  0
  7  8  1  0
  8  9  1  6
 10  8  1  0
 11 10  2  0
 12 10  1  0
 13 24  1  0
 13 12  1  0
 13 14  1  6
 15 23  1  0
 15 14  1  0
 16 15  2  0
 17 16  1  0
 17 18  1  0
 18 23  2  0
 19 18  1  0
 19 20  2  0
 20 21  1  0
 21 22  2  0
 23 22  1  0
 24 31  1  0
 25 24  2  0
 27 28  1  0
 27 26  1  0
 28 29  1  0
 30 29  1  6
 30 32  1  0
 31 30  1  0
 32 33  1  0
 34 32  2  0
M  END
$$$$
