RWM.pdb
     RDKit          3D

 34 35  0  0  1  0  0  0  0  0999 V2000
   24.5774  -22.0194  -17.2426 N   0  0  0  0  0  0  0  0  0  0  0  0
   25.1321  -21.6167  -18.5145 C   0  0  0  0  0  0  0  0  0  0  0  0
   24.5257  -21.8555  -19.6255 N   0  0  0  0  0  0  0  0  0  0  0  0
   26.3570  -20.9236  -18.5938 N   0  0  0  0  0  0  0  0  0  0  0  0
   27.2574  -20.7793  -17.4846 C   0  0  0  0  0  0  0  0  0  0  0  0
   27.5783  -22.0276  -16.7554 C   0  0  0  0  0  0  0  0  0  0  0  0
   27.3143  -22.1305  -15.3113 C   0  0  0  0  0  0  0  0  0  0  0  0
   27.7345  -20.9852  -14.4542 C   0  0  2  0  0  0  0  0  0  0  0  0
   29.0984  -20.6837  -14.3429 N   0  0  0  0  0  0  0  0  0  0  0  0
   27.1481  -21.2026  -13.0807 C   0  0  0  0  0  0  0  0  0  0  0  0
   25.9759  -21.7137  -12.9852 O   0  0  0  0  0  0  0  0  0  0  0  0
   24.9310  -21.5732  -20.5354 N   0  0  0  0  0  0  0  0  0  0  0  0
   27.7906  -20.8848  -11.8763 C   0  0  2  0  0  0  0  0  0  0  0  0
   27.1060  -21.0374  -10.5946 C   0  0  0  0  0  0  0  0  0  0  0  0
   27.8921  -20.6564   -9.4108 C   0  0  0  0  0  0  0  0  0  0  0  0
   27.1621  -20.6830   -8.1108 C   0  0  0  0  0  0  0  0  0  0  0  0
   25.8843  -21.0887   -7.8431 N   0  0  0  0  0  0  0  0  0  0  0  0
   25.6614  -20.9111   -6.5339 C   0  0  0  0  0  0  0  0  0  0  0  0
   26.7451  -20.4037   -5.9355 C   0  0  0  0  0  0  0  0  0  0  0  0
   26.9917  -20.0480   -4.6002 C   0  0  0  0  0  0  0  0  0  0  0  0
   28.2344  -19.5368   -4.2954 C   0  0  0  0  0  0  0  0  0  0  0  0
   29.2140  -19.3724   -5.2520 C   0  0  0  0  0  0  0  0  0  0  0  0
   28.9704  -19.7269   -6.5858 C   0  0  0  0  0  0  0  0  0  0  0  0
   27.7177  -20.2423   -6.8906 C   0  0  0  0  0  0  0  0  0  0  0  0
   25.8049  -20.3378  -10.7894 O   0  0  0  0  0  0  0  0  0  0  0  0
   25.7932  -19.0605  -10.9519 C   0  0  0  0  0  0  0  0  0  0  0  0
   23.0247  -18.7516  -14.8094 S   0  0  0  0  0  0  0  0  0  0  0  0
   21.7030  -18.5247  -13.5793 C   0  0  0  0  0  0  0  0  0  0  0  0
   21.5102  -20.1345  -12.7009 C   0  0  0  0  0  0  0  0  0  0  0  0
   22.8573  -20.7383  -12.4394 C   0  0  1  0  0  0  0  0  0  0  0  0
   23.3440  -20.3602  -11.0717 N   0  0  0  0  0  0  0  0  0  0  0  0
   24.6079  -21.0581  -10.7902 C   0  0  0  0  0  0  0  0  0  0  0  0
   22.4078  -20.6532   -9.9723 O   0  0  0  0  0  0  0  0  0  0  0  0
   21.3328  -19.8735   -9.6195 O   0  0  0  0  0  0  0  0  0  0  0  0
  2  1  1  0
  3  2  2  0
  4  2  1  0
  5  4  1  0
  6  5  1  0
  7  6  1  0
  7  8  1  0
  8  9  1  1
 10  8  1  0
 11 10  2  0
 12 10  1  0
 13 24  1  0
 13 12  1  0
 13 14  1  6
 15 23  1  0
 15 14  1  0
 16 15  2  0
 17 16  1  0
 17 18  1  0
 18 23  2  0
 19 18  1  0
 19 20  2  0
 20 21  1  0
 21 22  2  0
 23 22  1  0
 24 31  1  0
 25 24  2  0
 27 28  1  0
 27 26  1  0
 28 29  1  0
 30 29  1  6
 30 32  1  0
 31 30  1  0
 32 33  1  0
 34 32  2  0
M  END
$$$$
