RWM.pdb
     RDKit          3D

 34 35  0  0  1  0  0  0  0  0999 V2000
   27.3316  -25.4029  -16.6841 N   0  0  0  0  0  0  0  0  0  0  0  0
   28.6785  -25.7471  -17.0775 C   0  0  0  0  0  0  0  0  0  0  0  0
   29.0592  -26.9722  -17.1944 N   0  0  0  0  0  0  0  0  0  0  0  0
   29.6333  -24.7528  -17.3715 N   0  0  0  0  0  0  0  0  0  0  0  0
   29.3168  -23.3553  -17.4652 C   0  0  0  0  0  0  0  0  0  0  0  0
   28.8124  -22.7296  -16.2214 C   0  0  0  0  0  0  0  0  0  0  0  0
   28.3859  -21.3211  -16.2212 C   0  0  0  0  0  0  0  0  0  0  0  0
   27.4846  -20.8775  -17.3230 C   0  0  2  0  0  0  0  0  0  0  0  0
   28.0093  -20.0867  -18.3540 N   0  0  0  0  0  0  0  0  0  0  0  0
   26.3049  -20.1766  -16.6947 C   0  0  0  0  0  0  0  0  0  0  0  0
   26.5244  -19.2660  -15.8190 O   0  0  0  0  0  0  0  0  0  0  0  0
   30.0349  -27.2149  -17.4412 N   0  0  0  0  0  0  0  0  0  0  0  0
   24.9621  -20.4444  -16.9940 C   0  0  2  0  0  0  0  0  0  0  0  0
   23.8832  -19.7168  -16.3299 C   0  0  0  0  0  0  0  0  0  0  0  0
   22.7437  -19.3575  -17.1883 C   0  0  0  0  0  0  0  0  0  0  0  0
   21.5831  -18.7267  -16.4962 C   0  0  0  0  0  0  0  0  0  0  0  0
   21.5679  -17.7111  -15.5810 N   0  0  0  0  0  0  0  0  0  0  0  0
   20.2943  -17.4976  -15.2237 C   0  0  0  0  0  0  0  0  0  0  0  0
   19.4762  -18.3358  -15.8702 C   0  0  0  0  0  0  0  0  0  0  0  0
   18.0823  -18.4957  -15.8274 C   0  0  0  0  0  0  0  0  0  0  0  0
   17.5274  -19.4717  -16.6261 C   0  0  0  0  0  0  0  0  0  0  0  0
   18.2953  -20.2729  -17.4447 C   0  0  0  0  0  0  0  0  0  0  0  0
   19.6871  -20.1152  -17.4895 C   0  0  0  0  0  0  0  0  0  0  0  0
   20.2440  -19.1308  -16.6841 C   0  0  0  0  0  0  0  0  0  0  0  0
   23.5809  -20.5338  -15.1210 O   0  0  0  0  0  0  0  0  0  0  0  0
   23.5192  -21.8157  -15.2249 C   0  0  0  0  0  0  0  0  0  0  0  0
   26.2545  -20.2208   -9.7385 S   0  0  0  0  0  0  0  0  0  0  0  0
   24.7042  -20.7922   -8.9760 C   0  0  0  0  0  0  0  0  0  0  0  0
   23.5432  -21.1802  -10.3550 C   0  0  0  0  0  0  0  0  0  0  0  0
   23.9330  -20.4125  -11.5822 C   0  0  1  0  0  0  0  0  0  0  0  0
   23.0106  -20.7392  -12.7193 N   0  0  0  0  0  0  0  0  0  0  0  0
   23.3606  -19.9165  -13.8873 C   0  0  0  0  0  0  0  0  0  0  0  0
   21.5777  -20.5428  -12.4375 O   0  0  0  0  0  0  0  0  0  0  0  0
   20.7421  -21.4868  -11.8908 O   0  0  0  0  0  0  0  0  0  0  0  0
  2  1  1  0
  3  2  2  0
  4  2  1  0
  5  4  1  0
  6  5  1  0
  7  6  1  0
  7  8  1  0
  8  9  1  6
 10  8  1  0
 11 10  2  0
 12 10  1  0
 13 24  1  0
 13 12  1  0
 13 14  1  6
 15 23  1  0
 15 14  1  0
 16 15  2  0
 17 16  1  0
 17 18  1  0
 18 23  2  0
 19 18  1  0
 19 20  2  0
 20 21  1  0
 21 22  2  0
 23 22  1  0
 24 31  1  0
 25 24  2  0
 27 28  1  0
 27 26  1  0
 28 29  1  0
 30 29  1  6
 30 32  1  0
 31 30  1  0
 32 33  1  0
 34 32  2  0
M  END
$$$$
