RWM.pdb
     RDKit          3D

 34 35  0  0  1  0  0  0  0  0999 V2000
   18.7885  -19.1040  -15.2855 N   0  0  0  0  0  0  0  0  0  0  0  0
   18.8089  -20.0268  -14.1740 C   0  0  0  0  0  0  0  0  0  0  0  0
   17.7946  -20.7677  -13.8883 N   0  0  0  0  0  0  0  0  0  0  0  0
   19.9522  -20.1719  -13.3623 N   0  0  0  0  0  0  0  0  0  0  0  0
   21.1115  -19.3317  -13.4715 C   0  0  0  0  0  0  0  0  0  0  0  0
   22.1777  -19.5814  -12.4745 C   0  0  0  0  0  0  0  0  0  0  0  0
   22.7338  -20.9337  -12.3079 C   0  0  0  0  0  0  0  0  0  0  0  0
   24.0082  -21.2432  -13.0172 C   0  0  2  0  0  0  0  0  0  0  0  0
   24.0666  -22.3679  -13.8509 N   0  0  0  0  0  0  0  0  0  0  0  0
   25.1015  -21.3221  -11.9797 C   0  0  0  0  0  0  0  0  0  0  0  0
   25.1933  -22.3800  -11.2608 O   0  0  0  0  0  0  0  0  0  0  0  0
   17.8337  -21.4699  -13.1286 N   0  0  0  0  0  0  0  0  0  0  0  0
   26.0433  -20.3145  -11.7308 C   0  0  1  0  0  0  0  0  0  0  0  0
   27.1435  -20.5271  -10.7932 C   0  0  0  0  0  0  0  0  0  0  0  0
   28.4335  -19.9430  -11.1923 C   0  0  0  0  0  0  0  0  0  0  0  0
   29.4031  -20.8824  -11.8256 C   0  0  0  0  0  0  0  0  0  0  0  0
   29.4196  -21.3827  -13.0978 N   0  0  0  0  0  0  0  0  0  0  0  0
   30.4717  -22.2057  -13.2032 C   0  0  0  0  0  0  0  0  0  0  0  0
   31.1434  -22.2630  -12.0476 C   0  0  0  0  0  0  0  0  0  0  0  0
   32.2913  -22.9780  -11.6714 C   0  0  0  0  0  0  0  0  0  0  0  0
   32.7430  -22.8248  -10.3787 C   0  0  0  0  0  0  0  0  0  0  0  0
   32.1055  -22.0042   -9.4720 C   0  0  0  0  0  0  0  0  0  0  0  0
   30.9594  -21.2891   -9.8451 C   0  0  0  0  0  0  0  0  0  0  0  0
   30.5063  -21.4447  -11.1484 C   0  0  0  0  0  0  0  0  0  0  0  0
   26.5910  -20.0977   -9.4777 O   0  0  0  0  0  0  0  0  0  0  0  0
   25.6707  -19.1978   -9.4430 C   0  0  0  0  0  0  0  0  0  0  0  0
   26.6152  -22.5655   -3.3690 S   0  0  0  0  0  0  0  0  0  0  0  0
   27.6874  -21.1070   -3.1827 C   0  0  0  0  0  0  0  0  0  0  0  0
   27.3208  -19.9908   -4.6039 C   0  0  0  0  0  0  0  0  0  0  0  0
   27.3824  -20.7618   -5.8881 C   0  0  1  0  0  0  0  0  0  0  0  0
   27.0021  -19.8847   -7.0442 N   0  0  0  0  0  0  0  0  0  0  0  0
   27.0696  -20.6606   -8.2920 C   0  0  0  0  0  0  0  0  0  0  0  0
   27.8317  -18.6788   -7.2129 O   0  0  0  0  0  0  0  0  0  0  0  0
   27.5616  -17.4491   -6.6624 O   0  0  0  0  0  0  0  0  0  0  0  0
  2  1  1  0
  3  2  2  0
  4  2  1  0
  5  4  1  0
  6  5  1  0
  7  6  1  0
  7  8  1  0
  8  9  1  1
 10  8  1  0
 11 10  2  0
 12 10  1  0
 13 24  1  0
 13 12  1  0
 13 14  1  1
 15 23  1  0
 15 14  1  0
 16 15  2  0
 17 16  1  0
 17 18  1  0
 18 23  2  0
 19 18  1  0
 19 20  2  0
 20 21  1  0
 21 22  2  0
 23 22  1  0
 24 31  1  0
 25 24  2  0
 27 28  1  0
 27 26  1  0
 28 29  1  0
 30 29  1  1
 30 32  1  0
 31 30  1  0
 32 33  1  0
 34 32  2  0
M  END
$$$$
