RWM.pdb
     RDKit          3D

 34 35  0  0  1  0  0  0  0  0999 V2000
   28.0508  -27.4334  -16.8614 N   0  0  0  0  0  0  0  0  0  0  0  0
   28.3683  -27.5529  -18.2658 C   0  0  0  0  0  0  0  0  0  0  0  0
   28.0171  -28.5824  -18.9558 N   0  0  0  0  0  0  0  0  0  0  0  0
   29.0617  -26.5341  -18.9500 N   0  0  0  0  0  0  0  0  0  0  0  0
   29.2827  -25.2241  -18.4050 C   0  0  0  0  0  0  0  0  0  0  0  0
   28.1429  -24.2852  -18.5161 C   0  0  0  0  0  0  0  0  0  0  0  0
   27.4906  -23.7656  -17.3036 C   0  0  0  0  0  0  0  0  0  0  0  0
   28.2085  -22.7056  -16.5394 C   0  0  2  0  0  0  0  0  0  0  0  0
   29.5578  -22.8977  -16.2138 N   0  0  0  0  0  0  0  0  0  0  0  0
   27.4167  -22.4310  -15.2842 C   0  0  0  0  0  0  0  0  0  0  0  0
   26.7601  -23.3927  -14.7473 O   0  0  0  0  0  0  0  0  0  0  0  0
   28.2692  -28.6760  -19.9555 N   0  0  0  0  0  0  0  0  0  0  0  0
   27.3368  -21.1867  -14.6441 C   0  0  1  0  0  0  0  0  0  0  0  0
   26.6355  -21.0386  -13.3710 C   0  0  0  0  0  0  0  0  0  0  0  0
   27.1332  -19.9635  -12.4986 C   0  0  0  0  0  0  0  0  0  0  0  0
   26.5688  -19.9338  -11.1186 C   0  0  0  0  0  0  0  0  0  0  0  0
   25.2963  -19.6472  -10.7092 N   0  0  0  0  0  0  0  0  0  0  0  0
   25.2660  -19.7265   -9.3721 C   0  0  0  0  0  0  0  0  0  0  0  0
   26.4710  -20.0534   -8.8915 C   0  0  0  0  0  0  0  0  0  0  0  0
   26.9297  -20.2471   -7.5791 C   0  0  0  0  0  0  0  0  0  0  0  0
   28.2562  -20.5793   -7.4096 C   0  0  0  0  0  0  0  0  0  0  0  0
   29.1183  -20.7210   -8.4765 C   0  0  0  0  0  0  0  0  0  0  0  0
   28.6629  -20.5284   -9.7878 C   0  0  0  0  0  0  0  0  0  0  0  0
   27.3257  -20.1942   -9.9563 C   0  0  0  0  0  0  0  0  0  0  0  0
   25.1958  -20.9818  -13.7509 O   0  0  0  0  0  0  0  0  0  0  0  0
   24.7940  -20.0711  -14.5677 C   0  0  0  0  0  0  0  0  0  0  0  0
   21.1583  -25.9479  -13.4199 S   0  0  0  0  0  0  0  0  0  0  0  0
   20.2379  -24.8321  -14.5241 C   0  0  0  0  0  0  0  0  0  0  0  0
   20.8813  -23.1310  -14.2198 C   0  0  0  0  0  0  0  0  0  0  0  0
   22.3450  -23.1879  -13.9011 C   0  0  1  0  0  0  0  0  0  0  0  0
   22.8683  -21.8153  -13.5964 N   0  0  0  0  0  0  0  0  0  0  0  0
   24.2882  -21.9031  -13.2226 C   0  0  0  0  0  0  0  0  0  0  0  0
   22.1582  -21.1004  -12.5214 O   0  0  0  0  0  0  0  0  0  0  0  0
   20.9919  -20.3911  -12.6788 O   0  0  0  0  0  0  0  0  0  0  0  0
  2  1  1  0
  3  2  2  0
  4  2  1  0
  5  4  1  0
  6  5  1  0
  7  6  1  0
  7  8  1  0
  8  9  1  1
 10  8  1  0
 11 10  2  0
 12 10  1  0
 13 24  1  0
 13 12  1  0
 13 14  1  1
 15 23  1  0
 15 14  1  0
 16 15  2  0
 17 16  1  0
 17 18  1  0
 18 23  2  0
 19 18  1  0
 19 20  2  0
 20 21  1  0
 21 22  2  0
 23 22  1  0
 24 31  1  0
 25 24  2  0
 27 28  1  0
 27 26  1  0
 28 29  1  0
 30 29  1  6
 30 32  1  0
 31 30  1  0
 32 33  1  0
 34 32  2  0
M  END
$$$$
