RWM.pdb
     RDKit          3D

 34 35  0  0  1  0  0  0  0  0999 V2000
   33.1009  -28.3781  -17.5473 N   0  0  0  0  0  0  0  0  0  0  0  0
   31.7041  -28.7350  -17.6440 C   0  0  0  0  0  0  0  0  0  0  0  0
   31.3169  -29.9634  -17.6577 N   0  0  0  0  0  0  0  0  0  0  0  0
   30.6983  -27.7495  -17.7075 N   0  0  0  0  0  0  0  0  0  0  0  0
   30.9694  -26.3549  -17.9160 C   0  0  0  0  0  0  0  0  0  0  0  0
   31.3989  -25.6011  -16.7158 C   0  0  0  0  0  0  0  0  0  0  0  0
   30.5127  -24.5876  -16.1214 C   0  0  0  0  0  0  0  0  0  0  0  0
   29.8986  -23.5888  -17.0424 C   0  0  2  0  0  0  0  0  0  0  0  0
   30.6912  -23.0071  -18.0409 N   0  0  0  0  0  0  0  0  0  0  0  0
   29.2748  -22.5076  -16.1942 C   0  0  0  0  0  0  0  0  0  0  0  0
   30.0402  -21.7637  -15.4834 O   0  0  0  0  0  0  0  0  0  0  0  0
   30.3177  -30.2153  -17.7576 N   0  0  0  0  0  0  0  0  0  0  0  0
   27.9004  -22.2441  -16.1161 C   0  0  2  0  0  0  0  0  0  0  0  0
   27.4025  -21.0218  -15.4896 C   0  0  0  0  0  0  0  0  0  0  0  0
   26.5172  -20.1990  -16.3286 C   0  0  0  0  0  0  0  0  0  0  0  0
   25.8964  -19.0212  -15.6568 C   0  0  0  0  0  0  0  0  0  0  0  0
   26.4971  -17.9728  -15.0172 N   0  0  0  0  0  0  0  0  0  0  0  0
   25.5330  -17.1667  -14.5525 C   0  0  0  0  0  0  0  0  0  0  0  0
   24.3245  -17.6489  -14.8634 C   0  0  0  0  0  0  0  0  0  0  0  0
   23.0326  -17.1694  -14.5956 C   0  0  0  0  0  0  0  0  0  0  0  0
   21.9680  -17.9135  -15.0557 C   0  0  0  0  0  0  0  0  0  0  0  0
   22.1433  -19.0889  -15.7553 C   0  0  0  0  0  0  0  0  0  0  0  0
   23.4319  -19.5697  -16.0241 C   0  0  0  0  0  0  0  0  0  0  0  0
   24.5032  -18.8181  -15.5600 C   0  0  0  0  0  0  0  0  0  0  0  0
   26.8534  -21.4786  -14.1819 O   0  0  0  0  0  0  0  0  0  0  0  0
   26.2315  -22.6042  -14.1170 C   0  0  0  0  0  0  0  0  0  0  0  0
   26.5281  -20.6514   -6.3954 S   0  0  0  0  0  0  0  0  0  0  0  0
   27.3097  -20.0407   -7.9210 C   0  0  0  0  0  0  0  0  0  0  0  0
   26.4262  -20.8390   -9.3290 C   0  0  0  0  0  0  0  0  0  0  0  0
   27.0828  -20.4630  -10.6232 C   0  0  1  0  0  0  0  0  0  0  0  0
   26.3853  -21.1233  -11.7755 N   0  0  0  0  0  0  0  0  0  0  0  0
   27.0059  -20.6920  -13.0374 C   0  0  0  0  0  0  0  0  0  0  0  0
   24.9388  -20.8574  -11.8657 O   0  0  0  0  0  0  0  0  0  0  0  0
   23.9560  -21.6209  -11.2832 O   0  0  0  0  0  0  0  0  0  0  0  0
  2  1  1  0
  3  2  2  0
  4  2  1  0
  5  4  1  0
  6  5  1  0
  7  6  1  0
  7  8  1  0
  8  9  1  6
 10  8  1  0
 11 10  2  0
 12 10  1  0
 13 24  1  0
 13 12  1  0
 13 14  1  6
 15 23  1  0
 15 14  1  0
 16 15  2  0
 17 16  1  0
 17 18  1  0
 18 23  2  0
 19 18  1  0
 19 20  2  0
 20 21  1  0
 21 22  2  0
 23 22  1  0
 24 31  1  0
 25 24  2  0
 27 28  1  0
 27 26  1  0
 28 29  1  0
 30 29  1  1
 30 32  1  0
 31 30  1  0
 32 33  1  0
 34 32  2  0
M  END
$$$$
