RWM.pdb
     RDKit          3D

 34 35  0  0  1  0  0  0  0  0999 V2000
   30.8748  -23.8377  -16.9505 N   0  0  0  0  0  0  0  0  0  0  0  0
   30.0571  -23.7585  -18.1390 C   0  0  0  0  0  0  0  0  0  0  0  0
   30.4249  -24.2915  -19.2525 N   0  0  0  0  0  0  0  0  0  0  0  0
   28.8062  -23.1090  -18.1264 N   0  0  0  0  0  0  0  0  0  0  0  0
   28.2414  -22.5029  -16.9535 C   0  0  0  0  0  0  0  0  0  0  0  0
   27.9391  -23.4291  -15.8382 C   0  0  0  0  0  0  0  0  0  0  0  0
   26.7845  -23.1795  -14.9606 C   0  0  0  0  0  0  0  0  0  0  0  0
   26.3896  -21.7597  -14.7341 C   0  0  2  0  0  0  0  0  0  0  0  0
   27.3875  -20.7779  -14.6728 N   0  0  0  0  0  0  0  0  0  0  0  0
   25.5521  -21.7125  -13.4796 C   0  0  0  0  0  0  0  0  0  0  0  0
   24.5917  -22.5520  -13.3481 O   0  0  0  0  0  0  0  0  0  0  0  0
   29.8196  -24.2643  -20.0920 N   0  0  0  0  0  0  0  0  0  0  0  0
   25.7396  -20.8084  -12.4252 C   0  0  1  0  0  0  0  0  0  0  0  0
   24.8559  -20.8146  -11.2617 C   0  0  0  0  0  0  0  0  0  0  0  0
   25.3819  -20.1360  -10.0671 C   0  0  0  0  0  0  0  0  0  0  0  0
   26.7359  -20.5699   -9.6174 C   0  0  0  0  0  0  0  0  0  0  0  0
   27.6161  -21.4248  -10.2203 N   0  0  0  0  0  0  0  0  0  0  0  0
   28.6967  -21.5252   -9.4345 C   0  0  0  0  0  0  0  0  0  0  0  0
   28.5560  -20.7687   -8.3402 C   0  0  0  0  0  0  0  0  0  0  0  0
   29.4027  -20.5524   -7.2416 C   0  0  0  0  0  0  0  0  0  0  0  0
   28.9594  -19.7018   -6.2524 C   0  0  0  0  0  0  0  0  0  0  0  0
   27.7324  -19.0761   -6.3196 C   0  0  0  0  0  0  0  0  0  0  0  0
   26.8852  -19.2901   -7.4153 C   0  0  0  0  0  0  0  0  0  0  0  0
   27.3342  -20.1472   -8.4112 C   0  0  0  0  0  0  0  0  0  0  0  0
   23.5513  -20.3264  -11.7908 O   0  0  0  0  0  0  0  0  0  0  0  0
   23.5364  -19.3526  -12.6331 C   0  0  0  0  0  0  0  0  0  0  0  0
   21.8834  -22.0233  -16.3669 S   0  0  0  0  0  0  0  0  0  0  0  0
   20.1363  -22.1476  -15.8734 C   0  0  0  0  0  0  0  0  0  0  0  0
   19.9748  -21.2720  -14.2587 C   0  0  0  0  0  0  0  0  0  0  0  0
   21.2171  -21.4705  -13.4435 C   0  0  1  0  0  0  0  0  0  0  0  0
   21.1303  -20.6985  -12.1601 N   0  0  0  0  0  0  0  0  0  0  0  0
   22.3545  -20.9142  -11.3737 C   0  0  0  0  0  0  0  0  0  0  0  0
   19.9766  -21.0329  -11.3068 O   0  0  0  0  0  0  0  0  0  0  0  0
   18.7283  -20.4673  -11.4065 O   0  0  0  0  0  0  0  0  0  0  0  0
  2  1  1  0
  3  2  2  0
  4  2  1  0
  5  4  1  0
  6  5  1  0
  7  6  1  0
  7  8  1  0
  8  9  1  1
 10  8  1  0
 11 10  2  0
 12 10  1  0
 13 24  1  0
 13 12  1  0
 13 14  1  1
 15 23  1  0
 15 14  1  0
 16 15  2  0
 17 16  1  0
 17 18  1  0
 18 23  2  0
 19 18  1  0
 19 20  2  0
 20 21  1  0
 21 22  2  0
 23 22  1  0
 24 31  1  0
 25 24  2  0
 27 28  1  0
 27 26  1  0
 28 29  1  0
 30 29  1  6
 30 32  1  0
 31 30  1  0
 32 33  1  0
 34 32  2  0
M  END
$$$$
