RWM.pdb
     RDKit          3D

 34 35  0  0  1  0  0  0  0  0999 V2000
   25.7457  -15.8303  -17.4401 N   0  0  0  0  0  0  0  0  0  0  0  0
   25.0686  -16.9708  -18.0131 C   0  0  0  0  0  0  0  0  0  0  0  0
   24.0204  -16.8380  -18.7499 N   0  0  0  0  0  0  0  0  0  0  0  0
   25.5396  -18.2832  -17.8064 N   0  0  0  0  0  0  0  0  0  0  0  0
   26.5851  -18.6114  -16.8784 C   0  0  0  0  0  0  0  0  0  0  0  0
   26.1618  -18.7666  -15.4678 C   0  0  0  0  0  0  0  0  0  0  0  0
   27.1167  -19.2481  -14.4568 C   0  0  0  0  0  0  0  0  0  0  0  0
   27.1777  -20.7183  -14.2166 C   0  0  2  0  0  0  0  0  0  0  0  0
   26.5415  -21.5817  -15.1185 N   0  0  0  0  0  0  0  0  0  0  0  0
   26.6666  -20.9752  -12.8201 C   0  0  0  0  0  0  0  0  0  0  0  0
   25.5168  -21.5246  -12.6763 O   0  0  0  0  0  0  0  0  0  0  0  0
   23.5121  -17.6597  -19.1217 N   0  0  0  0  0  0  0  0  0  0  0  0
   27.3574  -20.6558  -11.6432 C   0  0  2  0  0  0  0  0  0  0  0  0
   26.7827  -20.9434  -10.3311 C   0  0  0  0  0  0  0  0  0  0  0  0
   27.6836  -20.7295   -9.1878 C   0  0  0  0  0  0  0  0  0  0  0  0
   27.0452  -20.7759   -7.8408 C   0  0  0  0  0  0  0  0  0  0  0  0
   25.8308  -21.2863   -7.4750 N   0  0  0  0  0  0  0  0  0  0  0  0
   25.6780  -21.0831   -6.1595 C   0  0  0  0  0  0  0  0  0  0  0  0
   26.7463  -20.4584   -5.6514 C   0  0  0  0  0  0  0  0  0  0  0  0
   27.0450  -20.0343   -4.3471 C   0  0  0  0  0  0  0  0  0  0  0  0
   28.2519  -19.4016   -4.1427 C   0  0  0  0  0  0  0  0  0  0  0  0
   29.1476  -19.1831   -5.1682 C   0  0  0  0  0  0  0  0  0  0  0  0
   28.8520  -19.6057   -6.4713 C   0  0  0  0  0  0  0  0  0  0  0  0
   27.6355  -20.2434   -6.6748 C   0  0  0  0  0  0  0  0  0  0  0  0
   25.4969  -20.1904  -10.3220 O   0  0  0  0  0  0  0  0  0  0  0  0
   25.5064  -18.9225  -10.5462 C   0  0  0  0  0  0  0  0  0  0  0  0
   23.1608  -19.6623  -15.0012 S   0  0  0  0  0  0  0  0  0  0  0  0
   21.5008  -19.9660  -14.3203 C   0  0  0  0  0  0  0  0  0  0  0  0
   21.6320  -19.7756  -12.4909 C   0  0  0  0  0  0  0  0  0  0  0  0
   22.9451  -20.3191  -12.0137 C   0  0  1  0  0  0  0  0  0  0  0  0
   23.0282  -20.2488  -10.5174 N   0  0  0  0  0  0  0  0  0  0  0  0
   24.2925  -20.8509  -10.0672 C   0  0  0  0  0  0  0  0  0  0  0  0
   21.9267  -20.9129   -9.7987 O   0  0  0  0  0  0  0  0  0  0  0  0
   20.7630  -20.3029   -9.3963 O   0  0  0  0  0  0  0  0  0  0  0  0
  2  1  1  0
  3  2  2  0
  4  2  1  0
  5  4  1  0
  6  5  1  0
  7  6  1  0
  7  8  1  0
  8  9  1  6
 10  8  1  0
 11 10  2  0
 12 10  1  0
 13 24  1  0
 13 12  1  0
 13 14  1  6
 15 23  1  0
 15 14  1  0
 16 15  2  0
 17 16  1  0
 17 18  1  0
 18 23  2  0
 19 18  1  0
 19 20  2  0
 20 21  1  0
 21 22  2  0
 23 22  1  0
 24 31  1  0
 25 24  2  0
 27 28  1  0
 27 26  1  0
 28 29  1  0
 30 29  1  6
 30 32  1  0
 31 30  1  0
 32 33  1  0
 34 32  2  0
M  END
$$$$
