RWM.pdb
     RDKit          3D

 34 35  0  0  1  0  0  0  0  0999 V2000
   28.0963  -22.7757  -17.3672 N   0  0  0  0  0  0  0  0  0  0  0  0
   27.7139  -21.4460  -17.7834 C   0  0  0  0  0  0  0  0  0  0  0  0
   27.1481  -21.2269  -18.9197 N   0  0  0  0  0  0  0  0  0  0  0  0
   27.9257  -20.3280  -16.9515 N   0  0  0  0  0  0  0  0  0  0  0  0
   28.4906  -20.4178  -15.6344 C   0  0  0  0  0  0  0  0  0  0  0  0
   27.5940  -20.9653  -14.5906 C   0  0  0  0  0  0  0  0  0  0  0  0
   27.2821  -20.1715  -13.3913 C   0  0  0  0  0  0  0  0  0  0  0  0
   27.9537  -20.5601  -12.1181 C   0  0  2  0  0  0  0  0  0  0  0  0
   28.9415  -21.5536  -12.1461 N   0  0  0  0  0  0  0  0  0  0  0  0
   26.8773  -20.9410  -11.1311 C   0  0  0  0  0  0  0  0  0  0  0  0
   26.7392  -22.1764  -10.8165 O   0  0  0  0  0  0  0  0  0  0  0  0
   26.8351  -20.2794  -19.1951 N   0  0  0  0  0  0  0  0  0  0  0  0
   25.9975  -20.0385  -10.5180 C   0  0  1  0  0  0  0  0  0  0  0  0
   25.1034  -20.4693   -9.4458 C   0  0  0  0  0  0  0  0  0  0  0  0
   25.0848  -19.6050   -8.2553 C   0  0  0  0  0  0  0  0  0  0  0  0
   26.3851  -19.4572   -7.5402 C   0  0  0  0  0  0  0  0  0  0  0  0
   27.4272  -18.6122   -7.8035 N   0  0  0  0  0  0  0  0  0  0  0  0
   28.3907  -18.8539   -6.9043 C   0  0  0  0  0  0  0  0  0  0  0  0
   28.0183  -19.8255   -6.0635 C   0  0  0  0  0  0  0  0  0  0  0  0
   28.6772  -20.4201   -4.9760 C   0  0  0  0  0  0  0  0  0  0  0  0
   28.0152  -21.4209   -4.2987 C   0  0  0  0  0  0  0  0  0  0  0  0
   26.7514  -21.8382   -4.6599 C   0  0  0  0  0  0  0  0  0  0  0  0
   26.0912  -21.2462   -5.7451 C   0  0  0  0  0  0  0  0  0  0  0  0
   26.7600  -20.2375   -6.4257 C   0  0  0  0  0  0  0  0  0  0  0  0
   23.7989  -20.6997  -10.1279 O   0  0  0  0  0  0  0  0  0  0  0  0
   23.5493  -20.0913  -11.2349 C   0  0  0  0  0  0  0  0  0  0  0  0
   19.8964  -25.4319   -8.4802 S   0  0  0  0  0  0  0  0  0  0  0  0
   18.6911  -24.6249   -9.5791 C   0  0  0  0  0  0  0  0  0  0  0  0
   19.5423  -23.1701  -10.3270 C   0  0  0  0  0  0  0  0  0  0  0  0
   20.8724  -22.9620   -9.6677 C   0  0  1  0  0  0  0  0  0  0  0  0
   21.5712  -21.7747  -10.2616 N   0  0  0  0  0  0  0  0  0  0  0  0
   22.8521  -21.5625   -9.5703 C   0  0  0  0  0  0  0  0  0  0  0  0
   20.8120  -20.5129  -10.2103 O   0  0  0  0  0  0  0  0  0  0  0  0
   19.7340  -20.2052  -11.0048 O   0  0  0  0  0  0  0  0  0  0  0  0
  2  1  1  0
  3  2  2  0
  4  2  1  0
  5  4  1  0
  6  5  1  0
  7  6  1  0
  7  8  1  0
  8  9  1  6
 10  8  1  0
 11 10  2  0
 12 10  1  0
 13 24  1  0
 13 12  1  0
 13 14  1  1
 15 23  1  0
 15 14  1  0
 16 15  2  0
 17 16  1  0
 17 18  1  0
 18 23  2  0
 19 18  1  0
 19 20  2  0
 20 21  1  0
 21 22  2  0
 23 22  1  0
 24 31  1  0
 25 24  2  0
 27 28  1  0
 27 26  1  0
 28 29  1  0
 30 29  1  6
 30 32  1  0
 31 30  1  0
 32 33  1  0
 34 32  2  0
M  END
$$$$
