RWM.pdb
     RDKit          3D

 34 35  0  0  1  0  0  0  0  0999 V2000
   30.7803  -24.1270  -17.7079 N   0  0  0  0  0  0  0  0  0  0  0  0
   29.9732  -23.4426  -18.6916 C   0  0  0  0  0  0  0  0  0  0  0  0
   29.8146  -23.9081  -19.8822 N   0  0  0  0  0  0  0  0  0  0  0  0
   29.3044  -22.2406  -18.3836 N   0  0  0  0  0  0  0  0  0  0  0  0
   29.2266  -21.6962  -17.0571 C   0  0  0  0  0  0  0  0  0  0  0  0
   28.8567  -22.6572  -15.9928 C   0  0  0  0  0  0  0  0  0  0  0  0
   28.2995  -22.1736  -14.7194 C   0  0  0  0  0  0  0  0  0  0  0  0
   27.1536  -21.2223  -14.7897 C   0  0  2  0  0  0  0  0  0  0  0  0
   27.4144  -19.8526  -14.9288 N   0  0  0  0  0  0  0  0  0  0  0  0
   26.2910  -21.4548  -13.5733 C   0  0  0  0  0  0  0  0  0  0  0  0
   25.8521  -22.6380  -13.3464 O   0  0  0  0  0  0  0  0  0  0  0  0
   29.1922  -23.4438  -20.5669 N   0  0  0  0  0  0  0  0  0  0  0  0
   25.9215  -20.4646  -12.6527 C   0  0  1  0  0  0  0  0  0  0  0  0
   25.1416  -20.7963  -11.4626 C   0  0  0  0  0  0  0  0  0  0  0  0
   25.6252  -20.2025  -10.2064 C   0  0  0  0  0  0  0  0  0  0  0  0
   26.9761  -20.6458   -9.7567 C   0  0  0  0  0  0  0  0  0  0  0  0
   27.8610  -21.4869  -10.3720 N   0  0  0  0  0  0  0  0  0  0  0  0
   28.9360  -21.6043   -9.5808 C   0  0  0  0  0  0  0  0  0  0  0  0
   28.7870  -20.8723   -8.4710 C   0  0  0  0  0  0  0  0  0  0  0  0
   29.6256  -20.6802   -7.3618 C   0  0  0  0  0  0  0  0  0  0  0  0
   29.1747  -19.8519   -6.3571 C   0  0  0  0  0  0  0  0  0  0  0  0
   27.9478  -19.2252   -6.4193 C   0  0  0  0  0  0  0  0  0  0  0  0
   27.1088  -19.4152   -7.5257 C   0  0  0  0  0  0  0  0  0  0  0  0
   27.5654  -20.2498   -8.5370 C   0  0  0  0  0  0  0  0  0  0  0  0
   23.7354  -20.4926  -11.8505 O   0  0  0  0  0  0  0  0  0  0  0  0
   23.4468  -19.3276  -12.3166 C   0  0  0  0  0  0  0  0  0  0  0  0
   20.4231  -24.0600  -15.0587 S   0  0  0  0  0  0  0  0  0  0  0  0
   18.9135  -23.1429  -14.6211 C   0  0  0  0  0  0  0  0  0  0  0  0
   19.3362  -22.0792  -13.1754 C   0  0  0  0  0  0  0  0  0  0  0  0
   20.7298  -22.3786  -12.7111 C   0  0  2  0  0  0  0  0  0  0  0  0
   21.3633  -21.1495  -12.1291 N   0  0  0  0  0  0  0  0  0  0  0  0
   22.7373  -21.4593  -11.7052 C   0  0  0  0  0  0  0  0  0  0  0  0
   20.6526  -20.5658  -10.9779 O   0  0  0  0  0  0  0  0  0  0  0  0
   20.8556  -20.9126   -9.6639 O   0  0  0  0  0  0  0  0  0  0  0  0
  2  1  1  0
  3  2  2  0
  4  2  1  0
  5  4  1  0
  6  5  1  0
  7  6  1  0
  7  8  1  0
  8  9  1  1
 10  8  1  0
 11 10  2  0
 12 10  1  0
 13 24  1  0
 13 12  1  0
 13 14  1  1
 15 23  1  0
 15 14  1  0
 16 15  2  0
 17 16  1  0
 17 18  1  0
 18 23  2  0
 19 18  1  0
 19 20  2  0
 20 21  1  0
 21 22  2  0
 23 22  1  0
 24 31  1  0
 25 24  2  0
 27 28  1  0
 27 26  1  0
 28 29  1  0
 30 29  1  6
 30 32  1  0
 31 30  1  0
 32 33  1  0
 34 32  2  0
M  END
$$$$
