RWM.pdb
     RDKit          3D

 34 35  0  0  1  0  0  0  0  0999 V2000
   31.0718  -24.7801  -16.4694 N   0  0  0  0  0  0  0  0  0  0  0  0
   30.9382  -23.7124  -17.4337 C   0  0  0  0  0  0  0  0  0  0  0  0
   31.3943  -23.8205  -18.6335 N   0  0  0  0  0  0  0  0  0  0  0  0
   30.2819  -22.5082  -17.1081 N   0  0  0  0  0  0  0  0  0  0  0  0
   29.4073  -22.3645  -15.9783 C   0  0  0  0  0  0  0  0  0  0  0  0
   28.1555  -23.1537  -16.0348 C   0  0  0  0  0  0  0  0  0  0  0  0
   27.1087  -22.9556  -15.0195 C   0  0  0  0  0  0  0  0  0  0  0  0
   26.7441  -21.5514  -14.6756 C   0  0  2  0  0  0  0  0  0  0  0  0
   27.7649  -20.6090  -14.4935 N   0  0  0  0  0  0  0  0  0  0  0  0
   25.8668  -21.5943  -13.4483 C   0  0  0  0  0  0  0  0  0  0  0  0
   25.0945  -22.6037  -13.2781 O   0  0  0  0  0  0  0  0  0  0  0  0
   31.3174  -23.0443  -19.3142 N   0  0  0  0  0  0  0  0  0  0  0  0
   25.8243  -20.6020  -12.4594 C   0  0  1  0  0  0  0  0  0  0  0  0
   24.9153  -20.7120  -11.3209 C   0  0  0  0  0  0  0  0  0  0  0  0
   25.4199  -20.1566  -10.0555 C   0  0  0  0  0  0  0  0  0  0  0  0
   26.7815  -20.6067   -9.6463 C   0  0  0  0  0  0  0  0  0  0  0  0
   27.6587  -21.4222  -10.3055 N   0  0  0  0  0  0  0  0  0  0  0  0
   28.7492  -21.5592   -9.5392 C   0  0  0  0  0  0  0  0  0  0  0  0
   28.6179  -20.8647   -8.4034 C   0  0  0  0  0  0  0  0  0  0  0  0
   29.4766  -20.7041   -7.3047 C   0  0  0  0  0  0  0  0  0  0  0  0
   29.0409  -19.9116   -6.2651 C   0  0  0  0  0  0  0  0  0  0  0  0
   27.8100  -19.2902   -6.2834 C   0  0  0  0  0  0  0  0  0  0  0  0
   26.9508  -19.4487   -7.3791 C   0  0  0  0  0  0  0  0  0  0  0  0
   27.3921  -20.2473   -8.4258 C   0  0  0  0  0  0  0  0  0  0  0  0
   23.6262  -20.1628  -11.8277 O   0  0  0  0  0  0  0  0  0  0  0  0
   23.6400  -19.2986  -12.7822 C   0  0  0  0  0  0  0  0  0  0  0  0
   22.1534  -22.2446  -16.3509 S   0  0  0  0  0  0  0  0  0  0  0  0
   20.6304  -22.8424  -15.5544 C   0  0  0  0  0  0  0  0  0  0  0  0
   20.2798  -21.7004  -14.1497 C   0  0  0  0  0  0  0  0  0  0  0  0
   21.4615  -21.6454  -13.2290 C   0  0  2  0  0  0  0  0  0  0  0  0
   21.2179  -20.6621  -12.1225 N   0  0  0  0  0  0  0  0  0  0  0  0
   22.4136  -20.5759  -11.2702 C   0  0  0  0  0  0  0  0  0  0  0  0
   20.0642  -20.9674  -11.2582 O   0  0  0  0  0  0  0  0  0  0  0  0
   18.8341  -20.3602  -11.3367 O   0  0  0  0  0  0  0  0  0  0  0  0
  2  1  1  0
  3  2  2  0
  4  2  1  0
  5  4  1  0
  6  5  1  0
  7  6  1  0
  7  8  1  0
  8  9  1  1
 10  8  1  0
 11 10  2  0
 12 10  1  0
 13 24  1  0
 13 12  1  0
 13 14  1  1
 15 23  1  0
 15 14  1  0
 16 15  2  0
 17 16  1  0
 17 18  1  0
 18 23  2  0
 19 18  1  0
 19 20  2  0
 20 21  1  0
 21 22  2  0
 23 22  1  0
 24 31  1  0
 25 24  2  0
 27 28  1  0
 27 26  1  0
 28 29  1  0
 30 29  1  6
 30 32  1  0
 31 30  1  0
 32 33  1  0
 34 32  2  0
M  END
$$$$
