FSR.pdb
     RDKit          3D

 29 29  0  0  1  0  0  0  0  0999 V2000
    7.3541  -16.1833   27.2695 N   0  0  0  0  0  0  0  0  0  0  0  0
    6.6172  -16.5066   26.0606 C   0  0  1  0  0  0  0  0  0  0  0  0
    5.9210  -15.2552   25.6242 C   0  0  0  0  0  0  0  0  0  0  0  0
    6.5859  -14.0292   26.1334 C   0  0  0  0  0  0  0  0  0  0  0  0
    6.0769  -13.3029   27.1947 C   0  0  0  0  0  0  0  0  0  0  0  0
    6.7111  -12.1536   27.6613 C   0  0  0  0  0  0  0  0  0  0  0  0
    7.8587  -11.7179   27.0741 C   0  0  0  0  0  0  0  0  0  0  0  0
    8.3876  -12.4131   26.0231 C   0  0  0  0  0  0  0  0  0  0  0  0
    7.7602  -13.5403   25.5699 C   0  0  0  0  0  0  0  0  0  0  0  0
    7.5357  -17.0785   25.1007 C   0  0  0  0  0  0  0  0  0  0  0  0
    8.7524  -17.2209   25.3824 O   0  0  0  0  0  0  0  0  0  0  0  0
    6.4056  -17.1133   21.0944 O   0  0  0  0  0  0  0  0  0  0  0  0
    7.2677  -18.1460   21.4506 C   0  0  0  0  0  0  0  0  0  0  0  0
    7.9782  -17.8940   22.7601 C   0  0  2  0  0  0  0  0  0  0  0  0
    7.0783  -17.4948   23.8082 N   0  0  0  0  0  0  0  0  0  0  0  0
    9.0163  -16.8424   22.5042 C   0  0  0  0  0  0  0  0  0  0  0  0
    8.8468  -15.7157   22.9945 O   0  0  0  0  0  0  0  0  0  0  0  0
    7.9254  -12.4785   18.3395 N   0  0  0  0  0  0  0  0  0  0  0  0
    8.4126  -13.4747   17.4563 C   0  0  0  0  0  0  0  0  0  0  0  0
    7.9761  -13.4698   16.2280 N   0  0  0  0  0  0  0  0  0  0  0  0
    9.3482  -14.4692   17.8503 N   0  0  0  0  0  0  0  0  0  0  0  0
    9.3849  -14.9083   19.2330 C   0  0  0  0  0  0  0  0  0  0  0  0
   10.6130  -14.3379   19.9349 C   0  0  0  0  0  0  0  0  0  0  0  0
   10.7357  -14.8780   21.3238 C   0  0  0  0  0  0  0  0  0  0  0  0
   11.2132  -16.2744   21.4372 C   0  0  2  0  0  0  0  0  0  0  0  0
   10.1340  -17.1776   21.7229 N   0  0  0  0  0  0  0  0  0  0  0  0
   12.4278  -16.4809   22.2626 C   0  0  0  0  0  0  0  0  0  0  0  0
   12.2901  -16.9503   23.5557 O   0  0  0  0  0  0  0  0  0  0  0  0
   13.5948  -16.2634   21.8736 O   0  0  0  0  0  0  0  0  0  0  0  0
  2  1  1  1
  2 10  1  0
  3  2  1  0
  4  3  1  0
  4  9  2  0
  5  4  1  0
  6  5  2  0
  6  7  1  0
  7  8  2  0
  8  9  1  0
 10 11  2  0
 13 12  1  0
 14 13  1  6
 14 16  1  0
 15 14  1  0
 15 10  1  0
 16 26  1  0
 16 17  2  0
 18 19  1  0
 19 21  1  0
 19 20  2  0
 21 22  1  0
 22 23  1  0
 23 24  1  0
 25 24  1  1
 25 27  1  0
 26 25  1  0
 27 29  2  0
 27 28  1  0
M  END
$$$$
