FSR.pdb
     RDKit          3D

 29 29  0  0  1  0  0  0  0  0999 V2000
    5.3254  -17.6143   21.6582 N   0  0  0  0  0  0  0  0  0  0  0  0
    6.3024  -16.5680   21.4140 C   0  0  1  0  0  0  0  0  0  0  0  0
    5.6110  -15.4979   20.6279 C   0  0  0  0  0  0  0  0  0  0  0  0
    6.5324  -14.4064   20.2231 C   0  0  0  0  0  0  0  0  0  0  0  0
    7.3325  -14.4979   19.0987 C   0  0  0  0  0  0  0  0  0  0  0  0
    8.1932  -13.4659   18.7315 C   0  0  0  0  0  0  0  0  0  0  0  0
    8.2641  -12.3331   19.4819 C   0  0  0  0  0  0  0  0  0  0  0  0
    7.4866  -12.2113   20.5991 C   0  0  0  0  0  0  0  0  0  0  0  0
    6.6438  -13.2279   20.9541 C   0  0  0  0  0  0  0  0  0  0  0  0
    6.8581  -16.1519   22.6829 C   0  0  0  0  0  0  0  0  0  0  0  0
    6.6020  -15.0151   23.1541 O   0  0  0  0  0  0  0  0  0  0  0  0
    8.1630  -18.1547   25.9656 O   0  0  0  0  0  0  0  0  0  0  0  0
    8.5378  -16.8351   25.7320 C   0  0  0  0  0  0  0  0  0  0  0  0
    8.7745  -16.5409   24.2690 C   0  0  2  0  0  0  0  0  0  0  0  0
    7.7127  -17.0267   23.4298 N   0  0  0  0  0  0  0  0  0  0  0  0
   10.0880  -17.1634   23.9001 C   0  0  0  0  0  0  0  0  0  0  0  0
   10.0806  -18.2882   23.3773 O   0  0  0  0  0  0  0  0  0  0  0  0
   16.2651  -13.9706   19.5682 N   0  0  0  0  0  0  0  0  0  0  0  0
   15.4130  -15.0999   19.6593 C   0  0  0  0  0  0  0  0  0  0  0  0
   14.4476  -15.2096   18.7903 N   0  0  0  0  0  0  0  0  0  0  0  0
   15.5658  -16.1080   20.6492 N   0  0  0  0  0  0  0  0  0  0  0  0
   15.6265  -15.7316   22.0495 C   0  0  0  0  0  0  0  0  0  0  0  0
   14.8151  -16.7087   22.8938 C   0  0  0  0  0  0  0  0  0  0  0  0
   13.4466  -16.1722   23.1677 C   0  0  0  0  0  0  0  0  0  0  0  0
   12.5865  -17.0029   24.0400 C   0  0  2  0  0  0  0  0  0  0  0  0
   11.2677  -16.4476   24.1608 N   0  0  0  0  0  0  0  0  0  0  0  0
   13.1919  -17.4437   25.3200 C   0  0  0  0  0  0  0  0  0  0  0  0
   12.5764  -17.0984   26.5088 O   0  0  0  0  0  0  0  0  0  0  0  0
   14.2367  -18.1219   25.4137 O   0  0  0  0  0  0  0  0  0  0  0  0
  2  1  1  1
  2 10  1  0
  3  2  1  0
  4  3  1  0
  4  9  2  0
  5  4  1  0
  6  5  2  0
  6  7  1  0
  7  8  2  0
  8  9  1  0
 10 11  2  0
 13 12  1  0
 14 13  1  1
 14 16  1  0
 15 14  1  0
 15 10  1  0
 16 26  1  0
 16 17  2  0
 18 19  1  0
 19 21  1  0
 19 20  2  0
 21 22  1  0
 22 23  1  0
 23 24  1  0
 25 24  1  1
 25 27  1  0
 26 25  1  0
 27 29  2  0
 27 28  1  0
M  END
$$$$
