FSR.pdb
     RDKit          3D

 29 29  0  0  1  0  0  0  0  0999 V2000
    7.8817  -16.0013   16.2913 N   0  0  0  0  0  0  0  0  0  0  0  0
    8.4104  -15.0947   17.2951 C   0  0  1  0  0  0  0  0  0  0  0  0
    7.2477  -14.3372   17.8568 C   0  0  0  0  0  0  0  0  0  0  0  0
    7.6180  -13.5304   19.0469 C   0  0  0  0  0  0  0  0  0  0  0  0
    7.3175  -13.9373   20.3342 C   0  0  0  0  0  0  0  0  0  0  0  0
    7.6704  -13.1694   21.4417 C   0  0  0  0  0  0  0  0  0  0  0  0
    8.3261  -11.9887   21.2760 C   0  0  0  0  0  0  0  0  0  0  0  0
    8.6378  -11.5582   20.0169 C   0  0  0  0  0  0  0  0  0  0  0  0
    8.2886  -12.3166   18.9341 C   0  0  0  0  0  0  0  0  0  0  0  0
    9.1771  -15.8630   18.2511 C   0  0  0  0  0  0  0  0  0  0  0  0
    8.6729  -16.8615   18.8244 O   0  0  0  0  0  0  0  0  0  0  0  0
   13.1758  -14.7003   19.3439 O   0  0  0  0  0  0  0  0  0  0  0  0
   12.8394  -16.0411   19.1845 C   0  0  0  0  0  0  0  0  0  0  0  0
   11.3691  -16.3092   19.4067 C   0  0  2  0  0  0  0  0  0  0  0  0
   10.5278  -15.5019   18.5653 N   0  0  0  0  0  0  0  0  0  0  0  0
   11.0887  -16.0579   20.8584 C   0  0  0  0  0  0  0  0  0  0  0  0
   10.8374  -14.8976   21.2175 O   0  0  0  0  0  0  0  0  0  0  0  0
   13.3439  -22.4880   25.2062 N   0  0  0  0  0  0  0  0  0  0  0  0
   12.7492  -22.4291   23.9207 C   0  0  0  0  0  0  0  0  0  0  0  0
   13.3826  -22.9874   22.9274 N   0  0  0  0  0  0  0  0  0  0  0  0
   11.5032  -21.7927   23.6718 N   0  0  0  0  0  0  0  0  0  0  0  0
   11.1157  -20.6434   24.4686 C   0  0  0  0  0  0  0  0  0  0  0  0
   11.6541  -19.3614   23.8416 C   0  0  0  0  0  0  0  0  0  0  0  0
   10.5986  -18.3034   23.7949 C   0  0  0  0  0  0  0  0  0  0  0  0
   10.9934  -17.0201   23.1719 C   0  0  2  0  0  0  0  0  0  0  0  0
   11.1216  -17.1447   21.7471 N   0  0  0  0  0  0  0  0  0  0  0  0
   12.1041  -16.2919   23.8317 C   0  0  0  0  0  0  0  0  0  0  0  0
   11.9143  -15.7867   25.1046 O   0  0  0  0  0  0  0  0  0  0  0  0
   13.2266  -16.0963   23.3197 O   0  0  0  0  0  0  0  0  0  0  0  0
  2  1  1  6
  2 10  1  0
  3  2  1  0
  4  3  1  0
  4  9  2  0
  5  4  1  0
  6  5  2  0
  6  7  1  0
  7  8  2  0
  8  9  1  0
 10 11  2  0
 13 12  1  0
 14 13  1  1
 14 16  1  0
 15 14  1  0
 15 10  1  0
 16 26  1  0
 16 17  2  0
 18 19  1  0
 19 21  1  0
 19 20  2  0
 21 22  1  0
 22 23  1  0
 23 24  1  0
 25 24  1  1
 25 27  1  0
 26 25  1  0
 27 29  2  0
 27 28  1  0
M  END
$$$$
