FSR.pdb
     RDKit          3D

 29 29  0  0  1  0  0  0  0  0999 V2000
    6.1612  -17.3610   25.2509 N   0  0  0  0  0  0  0  0  0  0  0  0
    6.1108  -16.6522   23.9844 C   0  0  1  0  0  0  0  0  0  0  0  0
    5.7069  -15.2428   24.2871 C   0  0  0  0  0  0  0  0  0  0  0  0
    6.6136  -14.5906   25.2652 C   0  0  0  0  0  0  0  0  0  0  0  0
    7.8908  -14.1825   24.9260 C   0  0  0  0  0  0  0  0  0  0  0  0
    8.7312  -13.5725   25.8547 C   0  0  0  0  0  0  0  0  0  0  0  0
    8.3058  -13.3637   27.1302 C   0  0  0  0  0  0  0  0  0  0  0  0
    7.0491  -13.7553   27.4975 C   0  0  0  0  0  0  0  0  0  0  0  0
    6.2292  -14.3535   26.5812 C   0  0  0  0  0  0  0  0  0  0  0  0
    7.3852  -16.8084   23.3184 C   0  0  0  0  0  0  0  0  0  0  0  0
    8.3335  -17.4121   23.8805 O   0  0  0  0  0  0  0  0  0  0  0  0
    9.1567  -14.3615   19.9911 O   0  0  0  0  0  0  0  0  0  0  0  0
    8.8315  -15.7142   19.9621 C   0  0  0  0  0  0  0  0  0  0  0  0
    8.8616  -16.3560   21.3297 C   0  0  2  0  0  0  0  0  0  0  0  0
    7.5938  -16.2780   22.0037 N   0  0  0  0  0  0  0  0  0  0  0  0
    9.9391  -15.6704   22.1158 C   0  0  0  0  0  0  0  0  0  0  0  0
    9.6655  -14.6012   22.6820 O   0  0  0  0  0  0  0  0  0  0  0  0
   10.0746  -16.1431   29.6396 N   0  0  0  0  0  0  0  0  0  0  0  0
   10.9263  -15.1060   29.1826 C   0  0  0  0  0  0  0  0  0  0  0  0
   11.0023  -14.0177   29.8960 N   0  0  0  0  0  0  0  0  0  0  0  0
   11.6936  -15.2024   27.9903 N   0  0  0  0  0  0  0  0  0  0  0  0
   11.4467  -16.2951   27.0677 C   0  0  0  0  0  0  0  0  0  0  0  0
   12.2725  -16.1106   25.7987 C   0  0  0  0  0  0  0  0  0  0  0  0
   11.4267  -16.2869   24.5784 C   0  0  0  0  0  0  0  0  0  0  0  0
   12.1157  -16.1106   23.2804 C   0  0  2  0  0  0  0  0  0  0  0  0
   11.2087  -16.2673   22.1781 N   0  0  0  0  0  0  0  0  0  0  0  0
   13.4055  -16.8262   23.1268 C   0  0  0  0  0  0  0  0  0  0  0  0
   14.4399  -16.5420   23.9990 O   0  0  0  0  0  0  0  0  0  0  0  0
   13.6380  -17.6891   22.2541 O   0  0  0  0  0  0  0  0  0  0  0  0
  2  1  1  1
  2 10  1  0
  3  2  1  0
  4  3  1  0
  4  9  2  0
  5  4  1  0
  6  5  2  0
  6  7  1  0
  7  8  2  0
  8  9  1  0
 10 11  2  0
 13 12  1  0
 14 13  1  6
 14 16  1  0
 15 14  1  0
 15 10  1  0
 16 26  1  0
 16 17  2  0
 18 19  1  0
 19 21  1  0
 19 20  2  0
 21 22  1  0
 22 23  1  0
 23 24  1  0
 25 24  1  1
 25 27  1  0
 26 25  1  0
 27 29  2  0
 27 28  1  0
M  END
$$$$
