FSR.pdb
     RDKit          3D

 29 29  0  0  1  0  0  0  0  0999 V2000
    6.1850  -17.2899   25.8395 N   0  0  0  0  0  0  0  0  0  0  0  0
    6.6047  -16.0205   25.2725 C   0  0  1  0  0  0  0  0  0  0  0  0
    7.4543  -15.3410   26.3009 C   0  0  0  0  0  0  0  0  0  0  0  0
    6.9562  -13.9845   26.6419 C   0  0  0  0  0  0  0  0  0  0  0  0
    5.6066  -13.6849   26.6823 C   0  0  0  0  0  0  0  0  0  0  0  0
    5.1537  -12.4071   27.0030 C   0  0  0  0  0  0  0  0  0  0  0  0
    6.0422  -11.4163   27.2864 C   0  0  0  0  0  0  0  0  0  0  0  0
    7.3828  -11.6797   27.2551 C   0  0  0  0  0  0  0  0  0  0  0  0
    7.8208  -12.9360   26.9396 C   0  0  0  0  0  0  0  0  0  0  0  0
    7.2448  -16.2738   24.0004 C   0  0  0  0  0  0  0  0  0  0  0  0
    7.8938  -17.3328   23.8079 O   0  0  0  0  0  0  0  0  0  0  0  0
    8.3700  -14.4318   19.5696 O   0  0  0  0  0  0  0  0  0  0  0  0
    7.7411  -14.2635   20.7995 C   0  0  0  0  0  0  0  0  0  0  0  0
    7.8841  -15.4662   21.7029 C   0  0  2  0  0  0  0  0  0  0  0  0
    7.1528  -15.3226   22.9326 N   0  0  0  0  0  0  0  0  0  0  0  0
    9.3497  -15.6538   21.9599 C   0  0  0  0  0  0  0  0  0  0  0  0
    9.9089  -14.8925   22.7638 O   0  0  0  0  0  0  0  0  0  0  0  0
    8.4541  -22.7279   21.3351 N   0  0  0  0  0  0  0  0  0  0  0  0
    8.6352  -21.3262   21.4450 C   0  0  0  0  0  0  0  0  0  0  0  0
    7.5956  -20.5961   21.7374 N   0  0  0  0  0  0  0  0  0  0  0  0
    9.8909  -20.6896   21.2516 N   0  0  0  0  0  0  0  0  0  0  0  0
   10.8229  -20.5953   22.3601 C   0  0  0  0  0  0  0  0  0  0  0  0
   11.1057  -19.1329   22.6882 C   0  0  0  0  0  0  0  0  0  0  0  0
   11.6796  -18.4196   21.5061 C   0  0  0  0  0  0  0  0  0  0  0  0
   11.4239  -16.9633   21.4400 C   0  0  2  0  0  0  0  0  0  0  0  0
   10.0247  -16.6817   21.2818 N   0  0  0  0  0  0  0  0  0  0  0  0
   12.3162  -16.1867   20.5456 C   0  0  0  0  0  0  0  0  0  0  0  0
   13.6845  -16.2671   20.7263 O   0  0  0  0  0  0  0  0  0  0  0  0
   11.9225  -15.4504   19.6165 O   0  0  0  0  0  0  0  0  0  0  0  0
  2  1  1  1
  2 10  1  0
  3  2  1  0
  4  3  1  0
  4  9  2  0
  5  4  1  0
  6  5  2  0
  6  7  1  0
  7  8  2  0
  8  9  1  0
 10 11  2  0
 13 12  1  0
 14 13  1  6
 14 16  1  0
 15 14  1  0
 15 10  1  0
 16 26  1  0
 16 17  2  0
 18 19  1  0
 19 21  1  0
 19 20  2  0
 21 22  1  0
 22 23  1  0
 23 24  1  0
 25 24  1  6
 25 27  1  0
 26 25  1  0
 27 29  2  0
 27 28  1  0
M  END
$$$$
