FSR.pdb
     RDKit          3D

 29 29  0  0  1  0  0  0  0  0999 V2000
    5.3617  -15.2343   21.6086 N   0  0  0  0  0  0  0  0  0  0  0  0
    6.7992  -15.0650   21.7272 C   0  0  1  0  0  0  0  0  0  0  0  0
    7.1151  -13.6733   21.2751 C   0  0  0  0  0  0  0  0  0  0  0  0
    7.4791  -13.6130   19.8369 C   0  0  0  0  0  0  0  0  0  0  0  0
    7.5356  -14.7449   19.0441 C   0  0  0  0  0  0  0  0  0  0  0  0
    7.8796  -14.6732   17.6960 C   0  0  0  0  0  0  0  0  0  0  0  0
    8.1705  -13.4724   17.1260 C   0  0  0  0  0  0  0  0  0  0  0  0
    8.1238  -12.3350   17.8821 C   0  0  0  0  0  0  0  0  0  0  0  0
    7.7854  -12.4121   19.2046 C   0  0  0  0  0  0  0  0  0  0  0  0
    7.1903  -15.3865   23.0821 C   0  0  0  0  0  0  0  0  0  0  0  0
    6.5943  -14.8715   24.0616 O   0  0  0  0  0  0  0  0  0  0  0  0
    7.0861  -18.3410   25.1095 O   0  0  0  0  0  0  0  0  0  0  0  0
    7.6081  -17.1284   25.5496 C   0  0  0  0  0  0  0  0  0  0  0  0
    8.7184  -16.6103   24.6654 C   0  0  2  0  0  0  0  0  0  0  0  0
    8.2656  -16.2988   23.3366 N   0  0  0  0  0  0  0  0  0  0  0  0
    9.7910  -17.6582   24.6432 C   0  0  0  0  0  0  0  0  0  0  0  0
    9.5840  -18.6995   24.0017 O   0  0  0  0  0  0  0  0  0  0  0  0
   15.4165  -14.1387   22.0871 N   0  0  0  0  0  0  0  0  0  0  0  0
   14.6768  -14.9366   21.1783 C   0  0  0  0  0  0  0  0  0  0  0  0
   14.4277  -14.4464   19.9964 N   0  0  0  0  0  0  0  0  0  0  0  0
   14.1999  -16.2364   21.4989 N   0  0  0  0  0  0  0  0  0  0  0  0
   14.4050  -16.7636   22.8353 C   0  0  0  0  0  0  0  0  0  0  0  0
   13.0781  -17.2233   23.4303 C   0  0  0  0  0  0  0  0  0  0  0  0
   13.2812  -17.8518   24.7717 C   0  0  0  0  0  0  0  0  0  0  0  0
   12.0625  -18.3566   25.4430 C   0  0  2  0  0  0  0  0  0  0  0  0
   10.9816  -17.4161   25.3474 N   0  0  0  0  0  0  0  0  0  0  0  0
   12.2580  -18.9394   26.7927 C   0  0  0  0  0  0  0  0  0  0  0  0
   13.1587  -19.9759   26.9533 O   0  0  0  0  0  0  0  0  0  0  0  0
   11.6631  -18.5577   27.8226 O   0  0  0  0  0  0  0  0  0  0  0  0
  2  1  1  1
  2 10  1  0
  3  2  1  0
  4  3  1  0
  4  9  2  0
  5  4  1  0
  6  5  2  0
  6  7  1  0
  7  8  2  0
  8  9  1  0
 10 11  2  0
 13 12  1  0
 14 13  1  1
 14 16  1  0
 15 14  1  0
 15 10  1  0
 16 26  1  0
 16 17  2  0
 18 19  1  0
 19 21  1  0
 19 20  2  0
 21 22  1  0
 22 23  1  0
 23 24  1  0
 25 24  1  1
 25 27  1  0
 26 25  1  0
 27 29  2  0
 27 28  1  0
M  END
$$$$
