FSR.pdb
     RDKit          3D

 29 29  0  0  1  0  0  0  0  0999 V2000
    6.6410  -16.0100   25.9048 N   0  0  0  0  0  0  0  0  0  0  0  0
    7.0204  -15.2062   24.7563 C   0  0  1  0  0  0  0  0  0  0  0  0
    7.8393  -14.0642   25.2723 C   0  0  0  0  0  0  0  0  0  0  0  0
    7.0216  -13.0663   26.0071 C   0  0  0  0  0  0  0  0  0  0  0  0
    7.2523  -12.7610   27.3362 C   0  0  0  0  0  0  0  0  0  0  0  0
    6.4761  -11.8229   28.0132 C   0  0  0  0  0  0  0  0  0  0  0  0
    5.4628  -11.1805   27.3713 C   0  0  0  0  0  0  0  0  0  0  0  0
    5.2088  -11.4595   26.0578 C   0  0  0  0  0  0  0  0  0  0  0  0
    5.9743  -12.3812   25.3990 C   0  0  0  0  0  0  0  0  0  0  0  0
    7.6772  -16.0617   23.7925 C   0  0  0  0  0  0  0  0  0  0  0  0
    8.2382  -17.1260   24.1561 O   0  0  0  0  0  0  0  0  0  0  0  0
    8.4578  -14.5228   19.9410 O   0  0  0  0  0  0  0  0  0  0  0  0
    8.3163  -15.9040   20.0352 C   0  0  0  0  0  0  0  0  0  0  0  0
    8.5065  -16.4203   21.4424 C   0  0  2  0  0  0  0  0  0  0  0  0
    7.7025  -15.7138   22.4027 N   0  0  0  0  0  0  0  0  0  0  0  0
    9.9668  -16.3018   21.7628 C   0  0  0  0  0  0  0  0  0  0  0  0
   10.5058  -15.1901   21.6522 O   0  0  0  0  0  0  0  0  0  0  0  0
   10.4016  -17.4721   28.7113 N   0  0  0  0  0  0  0  0  0  0  0  0
   11.1339  -16.3124   28.3527 C   0  0  0  0  0  0  0  0  0  0  0  0
   11.1953  -15.3367   29.2149 N   0  0  0  0  0  0  0  0  0  0  0  0
   11.7976  -16.1704   27.1041 N   0  0  0  0  0  0  0  0  0  0  0  0
   11.6318  -17.1914   26.0862 C   0  0  0  0  0  0  0  0  0  0  0  0
   12.4361  -16.8307   24.8415 C   0  0  0  0  0  0  0  0  0  0  0  0
   12.3586  -17.9191   23.8193 C   0  0  0  0  0  0  0  0  0  0  0  0
   12.0720  -17.4877   22.4327 C   0  0  2  0  0  0  0  0  0  0  0  0
   10.6599  -17.4516   22.1745 N   0  0  0  0  0  0  0  0  0  0  0  0
   12.8788  -18.1360   21.3705 C   0  0  0  0  0  0  0  0  0  0  0  0
   12.2598  -19.0071   20.4934 O   0  0  0  0  0  0  0  0  0  0  0  0
   14.1020  -17.9513   21.1971 O   0  0  0  0  0  0  0  0  0  0  0  0
  2  1  1  1
  2 10  1  0
  3  2  1  0
  4  3  1  0
  4  9  2  0
  5  4  1  0
  6  5  2  0
  6  7  1  0
  7  8  2  0
  8  9  1  0
 10 11  2  0
 13 12  1  0
 14 13  1  6
 14 16  1  0
 15 14  1  0
 15 10  1  0
 16 26  1  0
 16 17  2  0
 18 19  1  0
 19 21  1  0
 19 20  2  0
 21 22  1  0
 22 23  1  0
 23 24  1  0
 25 24  1  1
 25 27  1  0
 26 25  1  0
 27 29  2  0
 27 28  1  0
M  END
$$$$
