FSR.pdb
     RDKit          3D

 29 29  0  0  1  0  0  0  0  0999 V2000
    6.4314  -15.6137   24.3392 N   0  0  0  0  0  0  0  0  0  0  0  0
    7.2165  -15.0274   23.2673 C   0  0  1  0  0  0  0  0  0  0  0  0
    6.8472  -13.5783   23.1962 C   0  0  0  0  0  0  0  0  0  0  0  0
    6.8183  -12.9340   24.5335 C   0  0  0  0  0  0  0  0  0  0  0  0
    6.0467  -13.4258   25.5706 C   0  0  0  0  0  0  0  0  0  0  0  0
    6.0288  -12.8101   26.8202 C   0  0  0  0  0  0  0  0  0  0  0  0
    6.7800  -11.6985   27.0472 C   0  0  0  0  0  0  0  0  0  0  0  0
    7.5534  -11.1873   26.0431 C   0  0  0  0  0  0  0  0  0  0  0  0
    7.5666  -11.7963   24.8190 C   0  0  0  0  0  0  0  0  0  0  0  0
    8.6141  -15.3052   23.5155 C   0  0  0  0  0  0  0  0  0  0  0  0
    9.5121  -14.6008   22.9889 O   0  0  0  0  0  0  0  0  0  0  0  0
   10.0478  -15.4983   27.1775 O   0  0  0  0  0  0  0  0  0  0  0  0
   10.5799  -15.3087   25.9058 C   0  0  0  0  0  0  0  0  0  0  0  0
   10.3057  -16.4666   24.9747 C   0  0  2  0  0  0  0  0  0  0  0  0
    9.0048  -16.3896   24.3668 N   0  0  0  0  0  0  0  0  0  0  0  0
   10.4579  -17.7244   25.7771 C   0  0  0  0  0  0  0  0  0  0  0  0
    9.6214  -17.9640   26.6612 O   0  0  0  0  0  0  0  0  0  0  0  0
   14.4947  -22.3134   22.0696 N   0  0  0  0  0  0  0  0  0  0  0  0
   13.9115  -21.2309   21.3641 C   0  0  0  0  0  0  0  0  0  0  0  0
   13.5007  -21.4452   20.1457 N   0  0  0  0  0  0  0  0  0  0  0  0
   13.7574  -19.9340   21.9243 N   0  0  0  0  0  0  0  0  0  0  0  0
   13.7946  -19.7689   23.3657 C   0  0  0  0  0  0  0  0  0  0  0  0
   12.7737  -20.6880   24.0283 C   0  0  0  0  0  0  0  0  0  0  0  0
   12.8555  -20.5941   25.5183 C   0  0  0  0  0  0  0  0  0  0  0  0
   11.7856  -19.8132   26.1789 C   0  0  2  0  0  0  0  0  0  0  0  0
   11.5380  -18.5759   25.4935 N   0  0  0  0  0  0  0  0  0  0  0  0
   11.8838  -19.6946   27.6539 C   0  0  0  0  0  0  0  0  0  0  0  0
   11.9882  -20.8439   28.4152 O   0  0  0  0  0  0  0  0  0  0  0  0
   11.8838  -18.6135   28.2797 O   0  0  0  0  0  0  0  0  0  0  0  0
  2  1  1  1
  2 10  1  0
  3  2  1  0
  4  3  1  0
  4  9  2  0
  5  4  1  0
  6  5  2  0
  6  7  1  0
  7  8  2  0
  8  9  1  0
 10 11  2  0
 13 12  1  0
 14 13  1  1
 14 16  1  0
 15 14  1  0
 15 10  1  0
 16 26  1  0
 16 17  2  0
 18 19  1  0
 19 21  1  0
 19 20  2  0
 21 22  1  0
 22 23  1  0
 23 24  1  0
 25 24  1  6
 25 27  1  0
 26 25  1  0
 27 29  2  0
 27 28  1  0
M  END
$$$$
