QND.pdb
     RDKit          3D

 26 25  0  0  1  0  0  0  0  0999 V2000
   11.8159  -20.0338   17.9070 N   0  0  0  0  0  0  0  0  0  0  0  0
   12.4442  -19.3529   16.8407 C   0  0  0  0  0  0  0  0  0  0  0  0
   13.5988  -19.6715   16.4954 O   0  0  0  0  0  0  0  0  0  0  0  0
   11.7258  -18.2678   16.1435 C   0  0  0  0  0  0  0  0  0  0  0  0
   10.3694  -18.1021   16.7922 C   0  0  0  0  0  0  0  0  0  0  0  0
    9.5911  -16.9971   16.0667 C   0  0  2  0  0  0  0  0  0  0  0  0
   10.2244  -16.8207   14.7784 N   0  0  0  0  0  0  0  0  0  0  0  0
    9.7604  -15.7722   16.8635 C   0  0  0  0  0  0  0  0  0  0  0  0
   10.6841  -14.9750   16.5657 O   0  0  0  0  0  0  0  0  0  0  0  0
    8.0505  -11.2137   19.3218 N   0  0  0  0  0  0  0  0  0  0  0  0
    7.8306  -12.4730   19.9267 C   0  0  0  0  0  0  0  0  0  0  0  0
    7.6525  -12.4598   21.1957 O   0  0  0  0  0  0  0  0  0  0  0  0
    7.7878  -13.7705   19.2476 C   0  0  0  0  0  0  0  0  0  0  0  0
    9.0863  -14.2131   18.6289 C   0  0  2  0  0  0  0  0  0  0  0  0
    8.8984  -15.4616   17.9737 N   0  0  0  0  0  0  0  0  0  0  0  0
   10.1639  -14.2596   19.6645 C   0  0  0  0  0  0  0  0  0  0  0  0
   10.5664  -13.2359   20.2820 O   0  0  0  0  0  0  0  0  0  0  0  0
   10.7923  -15.4868   20.0028 N   0  0  0  0  0  0  0  0  0  0  0  0
   11.8590  -15.5825   21.0074 C   0  0  1  0  0  0  0  0  0  0  0  0
   11.8421  -16.9193   21.6750 C   0  0  0  0  0  0  0  0  0  0  0  0
   11.2932  -16.8121   23.0249 C   0  0  0  0  0  0  0  0  0  0  0  0
   11.2120  -15.7239   23.6133 O   0  0  0  0  0  0  0  0  0  0  0  0
   13.1102  -15.4640   20.2130 C   0  0  0  0  0  0  0  0  0  0  0  0
   14.2440  -15.5031   20.7256 O   0  0  0  0  0  0  0  0  0  0  0  0
   10.8487  -17.9521   23.6736 O   0  0  0  0  0  0  0  0  0  0  0  0
   13.0728  -15.3004   18.8318 O   0  0  0  0  0  0  0  0  0  0  0  0
  2  3  2  0
  2  1  1  0
  4  2  1  0
  5  4  1  0
  6  5  1  0
  6  7  1  6
  8  9  2  0
  8  6  1  0
 10 11  1  0
 11 12  2  0
 11 13  1  0
 14 13  1  1
 14 16  1  0
 14 15  1  0
 15  8  1  0
 16 18  1  0
 17 16  2  0
 18 19  1  0
 19 23  1  0
 19 20  1  6
 21 20  1  0
 22 21  2  0
 23 24  2  0
 23 26  1  0
 25 21  1  0
M  END
$$$$
