QND.pdb
     RDKit          3D

 26 25  0  0  1  0  0  0  0  0999 V2000
    6.9435  -18.8394   16.2098 N   0  0  0  0  0  0  0  0  0  0  0  0
    7.8651  -17.7984   16.4590 C   0  0  0  0  0  0  0  0  0  0  0  0
    8.4122  -17.2121   15.5047 O   0  0  0  0  0  0  0  0  0  0  0  0
    8.1725  -17.4136   17.8507 C   0  0  0  0  0  0  0  0  0  0  0  0
    9.6579  -17.5899   18.0758 C   0  0  0  0  0  0  0  0  0  0  0  0
    9.9118  -17.9231   19.5515 C   0  0  2  0  0  0  0  0  0  0  0  0
    8.8855  -18.8620   19.9476 N   0  0  0  0  0  0  0  0  0  0  0  0
    9.7389  -16.6690   20.3007 C   0  0  0  0  0  0  0  0  0  0  0  0
   10.6006  -15.7634   20.1790 O   0  0  0  0  0  0  0  0  0  0  0  0
    8.2231  -12.8392   23.5495 N   0  0  0  0  0  0  0  0  0  0  0  0
    7.2460  -13.8576   23.4569 C   0  0  0  0  0  0  0  0  0  0  0  0
    6.1849  -13.6788   24.1529 O   0  0  0  0  0  0  0  0  0  0  0  0
    7.3332  -15.0783   22.6515 C   0  0  0  0  0  0  0  0  0  0  0  0
    8.7054  -15.4021   22.1251 C   0  0  2  0  0  0  0  0  0  0  0  0
    8.6112  -16.4505   21.1684 N   0  0  0  0  0  0  0  0  0  0  0  0
    9.6289  -15.7305   23.2543 C   0  0  0  0  0  0  0  0  0  0  0  0
    9.8298  -14.9506   24.2251 O   0  0  0  0  0  0  0  0  0  0  0  0
   10.3334  -16.9627   23.2802 N   0  0  0  0  0  0  0  0  0  0  0  0
   11.0454  -17.4458   24.4701 C   0  0  1  0  0  0  0  0  0  0  0  0
   10.6246  -18.8382   24.8126 C   0  0  0  0  0  0  0  0  0  0  0  0
   11.4049  -19.3481   25.9377 C   0  0  0  0  0  0  0  0  0  0  0  0
   11.6718  -18.6427   26.9217 O   0  0  0  0  0  0  0  0  0  0  0  0
   12.4710  -17.4705   24.0485 C   0  0  0  0  0  0  0  0  0  0  0  0
   12.8370  -17.2273   22.8838 O   0  0  0  0  0  0  0  0  0  0  0  0
   11.8638  -20.6546   25.9137 O   0  0  0  0  0  0  0  0  0  0  0  0
   13.4837  -17.7725   24.9535 O   0  0  0  0  0  0  0  0  0  0  0  0
  2  3  2  0
  2  1  1  0
  4  2  1  0
  5  4  1  0
  6  5  1  0
  6  7  1  1
  8  9  2  0
  8  6  1  0
 10 11  1  0
 11 12  2  0
 11 13  1  0
 14 13  1  1
 14 16  1  0
 14 15  1  0
 15  8  1  0
 16 18  1  0
 17 16  2  0
 18 19  1  0
 19 23  1  0
 19 20  1  6
 21 20  1  0
 22 21  2  0
 23 24  2  0
 23 26  1  0
 25 21  1  0
M  END
$$$$
