QND.pdb
     RDKit          3D

 26 25  0  0  1  0  0  0  0  0999 V2000
    6.9856  -12.1481   18.3617 N   0  0  0  0  0  0  0  0  0  0  0  0
    7.4333  -13.0763   17.3957 C   0  0  0  0  0  0  0  0  0  0  0  0
    7.0952  -12.9430   16.2034 O   0  0  0  0  0  0  0  0  0  0  0  0
    8.2997  -14.1982   17.8082 C   0  0  0  0  0  0  0  0  0  0  0  0
    8.5709  -14.0694   19.2909 C   0  0  0  0  0  0  0  0  0  0  0  0
    9.4771  -15.2215   19.7433 C   0  0  2  0  0  0  0  0  0  0  0  0
    8.9140  -16.4339   19.1911 N   0  0  0  0  0  0  0  0  0  0  0  0
    9.3923  -15.2705   21.2111 C   0  0  0  0  0  0  0  0  0  0  0  0
    9.8083  -14.2909   21.8780 O   0  0  0  0  0  0  0  0  0  0  0  0
    8.7292  -16.7325   26.2547 N   0  0  0  0  0  0  0  0  0  0  0  0
    7.6246  -16.9070   25.3889 C   0  0  0  0  0  0  0  0  0  0  0  0
    6.5021  -17.1502   25.9575 O   0  0  0  0  0  0  0  0  0  0  0  0
    7.6444  -16.8361   23.9257 C   0  0  0  0  0  0  0  0  0  0  0  0
    8.9641  -16.4391   23.3212 C   0  0  2  0  0  0  0  0  0  0  0  0
    8.8466  -16.4082   21.9040 N   0  0  0  0  0  0  0  0  0  0  0  0
   10.0463  -17.3574   23.7920 C   0  0  0  0  0  0  0  0  0  0  0  0
   10.0132  -18.6055   23.6123 O   0  0  0  0  0  0  0  0  0  0  0  0
   11.1816  -16.8496   24.4766 N   0  0  0  0  0  0  0  0  0  0  0  0
   12.2848  -17.7063   24.9294 C   0  0  1  0  0  0  0  0  0  0  0  0
   13.5721  -16.9475   24.9525 C   0  0  0  0  0  0  0  0  0  0  0  0
   13.9939  -16.6108   23.5947 C   0  0  0  0  0  0  0  0  0  0  0  0
   14.5669  -15.5429   23.3337 O   0  0  0  0  0  0  0  0  0  0  0  0
   11.9152  -18.0572   26.3261 C   0  0  0  0  0  0  0  0  0  0  0  0
   10.9123  -17.5920   26.8984 O   0  0  0  0  0  0  0  0  0  0  0  0
   13.7514  -17.5031   22.5637 O   0  0  0  0  0  0  0  0  0  0  0  0
   12.6877  -18.9396   27.0748 O   0  0  0  0  0  0  0  0  0  0  0  0
  2  3  2  0
  2  1  1  0
  4  2  1  0
  5  4  1  0
  6  5  1  0
  6  7  1  6
  8  9  2  0
  8  6  1  0
 10 11  1  0
 11 12  2  0
 11 13  1  0
 14 13  1  1
 14 16  1  0
 14 15  1  0
 15  8  1  0
 16 18  1  0
 17 16  2  0
 18 19  1  0
 19 23  1  0
 19 20  1  1
 21 20  1  0
 22 21  2  0
 23 24  2  0
 23 26  1  0
 25 21  1  0
M  END
$$$$
