QND.pdb
     RDKit          3D

 26 25  0  0  1  0  0  0  0  0999 V2000
    8.5630  -12.7783   17.2439 N   0  0  0  0  0  0  0  0  0  0  0  0
    8.9816  -13.9006   16.4952 C   0  0  0  0  0  0  0  0  0  0  0  0
    8.3898  -14.1980   15.4392 O   0  0  0  0  0  0  0  0  0  0  0  0
   10.1187  -14.7127   16.9715 C   0  0  0  0  0  0  0  0  0  0  0  0
   10.6224  -14.1128   18.2657 C   0  0  0  0  0  0  0  0  0  0  0  0
   10.9863  -15.2403   19.2401 C   0  0  2  0  0  0  0  0  0  0  0  0
   10.1452  -16.3676   18.9034 N   0  0  0  0  0  0  0  0  0  0  0  0
   10.6392  -14.7596   20.5864 C   0  0  0  0  0  0  0  0  0  0  0  0
   11.3301  -13.8475   21.1041 O   0  0  0  0  0  0  0  0  0  0  0  0
    7.3169  -14.4873   20.5543 N   0  0  0  0  0  0  0  0  0  0  0  0
    6.9664  -14.7642   21.8962 C   0  0  0  0  0  0  0  0  0  0  0  0
    5.7126  -14.8832   22.1330 O   0  0  0  0  0  0  0  0  0  0  0  0
    7.8894  -14.9253   23.0225 C   0  0  0  0  0  0  0  0  0  0  0  0
    9.3506  -14.8651   22.6673 C   0  0  2  0  0  0  0  0  0  0  0  0
    9.5313  -15.3046   21.3266 N   0  0  0  0  0  0  0  0  0  0  0  0
   10.1549  -15.6560   23.6489 C   0  0  0  0  0  0  0  0  0  0  0  0
   10.0468  -15.5132   24.8975 O   0  0  0  0  0  0  0  0  0  0  0  0
   11.0950  -16.6226   23.2046 N   0  0  0  0  0  0  0  0  0  0  0  0
   11.9735  -17.3572   24.1237 C   0  0  1  0  0  0  0  0  0  0  0  0
   11.3459  -18.6474   24.5417 C   0  0  0  0  0  0  0  0  0  0  0  0
   12.2329  -19.3820   25.4409 C   0  0  0  0  0  0  0  0  0  0  0  0
   13.3086  -18.9057   25.8318 O   0  0  0  0  0  0  0  0  0  0  0  0
   13.1772  -17.6579   23.3044 C   0  0  0  0  0  0  0  0  0  0  0  0
   13.1200  -18.2386   22.2047 O   0  0  0  0  0  0  0  0  0  0  0  0
   11.8706  -20.6466   25.8742 O   0  0  0  0  0  0  0  0  0  0  0  0
   14.4498  -17.2977   23.7361 O   0  0  0  0  0  0  0  0  0  0  0  0
  2  3  2  0
  2  1  1  0
  4  2  1  0
  5  4  1  0
  6  5  1  0
  6  7  1  6
  8  9  2  0
  8  6  1  0
 10 11  1  0
 11 12  2  0
 11 13  1  0
 14 13  1  1
 14 16  1  0
 14 15  1  0
 15  8  1  0
 16 18  1  0
 17 16  2  0
 18 19  1  0
 19 23  1  0
 19 20  1  6
 21 20  1  0
 22 21  2  0
 23 24  2  0
 23 26  1  0
 25 21  1  0
M  END
$$$$
