QND.pdb
     RDKit          3D

 26 25  0  0  1  0  0  0  0  0999 V2000
    9.0435  -16.1687   17.0911 N   0  0  0  0  0  0  0  0  0  0  0  0
    7.9138  -15.4251   16.6838 C   0  0  0  0  0  0  0  0  0  0  0  0
    7.4305  -15.6021   15.5486 O   0  0  0  0  0  0  0  0  0  0  0  0
    7.3144  -14.4429   17.6088 C   0  0  0  0  0  0  0  0  0  0  0  0
    8.0816  -14.4871   18.9118 C   0  0  0  0  0  0  0  0  0  0  0  0
    7.4202  -13.5417   19.9227 C   0  0  2  0  0  0  0  0  0  0  0  0
    7.5336  -12.2066   19.3783 N   0  0  0  0  0  0  0  0  0  0  0  0
    8.2107  -13.6310   21.1601 C   0  0  0  0  0  0  0  0  0  0  0  0
    9.0650  -12.7427   21.4023 O   0  0  0  0  0  0  0  0  0  0  0  0
    6.6925  -11.6673   25.6246 N   0  0  0  0  0  0  0  0  0  0  0  0
    6.7181  -12.9951   25.1383 C   0  0  0  0  0  0  0  0  0  0  0  0
    6.5879  -13.9157   26.0202 O   0  0  0  0  0  0  0  0  0  0  0  0
    6.8766  -13.4088   23.7417 C   0  0  0  0  0  0  0  0  0  0  0  0
    7.9989  -14.3776   23.4838 C   0  0  2  0  0  0  0  0  0  0  0  0
    8.0331  -14.7065   22.1004 N   0  0  0  0  0  0  0  0  0  0  0  0
    7.8565  -15.5801   24.3610 C   0  0  0  0  0  0  0  0  0  0  0  0
    6.7724  -16.2126   24.4871 O   0  0  0  0  0  0  0  0  0  0  0  0
    8.9618  -16.0703   25.1049 N   0  0  0  0  0  0  0  0  0  0  0  0
    9.2550  -17.5026   25.2412 C   0  0  1  0  0  0  0  0  0  0  0  0
    9.6065  -18.1015   23.9180 C   0  0  0  0  0  0  0  0  0  0  0  0
   10.7464  -19.0059   24.0504 C   0  0  0  0  0  0  0  0  0  0  0  0
   10.6651  -20.2079   23.7581 O   0  0  0  0  0  0  0  0  0  0  0  0
   10.4580  -17.5400   26.1141 C   0  0  0  0  0  0  0  0  0  0  0  0
   10.8706  -18.5830   26.6542 O   0  0  0  0  0  0  0  0  0  0  0  0
   11.9559  -18.5162   24.5147 O   0  0  0  0  0  0  0  0  0  0  0  0
   11.1945  -16.3885   26.3741 O   0  0  0  0  0  0  0  0  0  0  0  0
  2  3  2  0
  2  1  1  0
  4  2  1  0
  5  4  1  0
  6  5  1  0
  6  7  1  6
  8  9  2  0
  8  6  1  0
 10 11  1  0
 11 12  2  0
 11 13  1  0
 14 13  1  6
 14 16  1  0
 14 15  1  0
 15  8  1  0
 16 18  1  0
 17 16  2  0
 18 19  1  0
 19 23  1  0
 19 20  1  6
 21 20  1  0
 22 21  2  0
 23 24  2  0
 23 26  1  0
 25 21  1  0
M  END
$$$$
