QND.pdb
     RDKit          3D

 26 25  0  0  1  0  0  0  0  0999 V2000
    9.2457  -11.8508   18.4979 N   0  0  0  0  0  0  0  0  0  0  0  0
    8.2462  -12.8088   18.2177 C   0  0  0  0  0  0  0  0  0  0  0  0
    8.0504  -13.1761   17.0428 O   0  0  0  0  0  0  0  0  0  0  0  0
    7.4408  -13.3674   19.3218 C   0  0  0  0  0  0  0  0  0  0  0  0
    7.4217  -14.8735   19.1816 C   0  0  0  0  0  0  0  0  0  0  0  0
    8.6703  -15.4616   19.8512 C   0  0  2  0  0  0  0  0  0  0  0  0
    8.6207  -16.8914   19.6389 N   0  0  0  0  0  0  0  0  0  0  0  0
    8.5476  -15.1791   21.2896 C   0  0  0  0  0  0  0  0  0  0  0  0
    8.5816  -13.9861   21.6808 O   0  0  0  0  0  0  0  0  0  0  0  0
    7.6824  -15.3662   26.4783 N   0  0  0  0  0  0  0  0  0  0  0  0
    6.7707  -16.0099   25.6096 C   0  0  0  0  0  0  0  0  0  0  0  0
    5.6584  -16.3701   26.1342 O   0  0  0  0  0  0  0  0  0  0  0  0
    6.9768  -16.2978   24.1879 C   0  0  0  0  0  0  0  0  0  0  0  0
    8.3038  -15.8581   23.6308 C   0  0  2  0  0  0  0  0  0  0  0  0
    8.3898  -16.2300   22.2606 N   0  0  0  0  0  0  0  0  0  0  0  0
    9.4210  -16.4164   24.4530 C   0  0  0  0  0  0  0  0  0  0  0  0
    9.9470  -15.7883   25.4121 O   0  0  0  0  0  0  0  0  0  0  0  0
    9.9472  -17.7066   24.1811 N   0  0  0  0  0  0  0  0  0  0  0  0
   11.3759  -18.0233   24.3017 C   0  0  1  0  0  0  0  0  0  0  0  0
   12.2083  -17.0002   23.5991 C   0  0  0  0  0  0  0  0  0  0  0  0
   13.6294  -17.3088   23.7419 C   0  0  0  0  0  0  0  0  0  0  0  0
   14.0249  -18.2759   24.4091 O   0  0  0  0  0  0  0  0  0  0  0  0
   11.6409  -17.9303   25.7617 C   0  0  0  0  0  0  0  0  0  0  0  0
   12.7653  -18.1246   26.2596 O   0  0  0  0  0  0  0  0  0  0  0  0
   14.5685  -16.5043   23.1182 O   0  0  0  0  0  0  0  0  0  0  0  0
   10.6251  -17.6154   26.6588 O   0  0  0  0  0  0  0  0  0  0  0  0
  2  3  2  0
  2  1  1  0
  4  2  1  0
  5  4  1  0
  6  5  1  0
  6  7  1  1
  8  9  2  0
  8  6  1  0
 10 11  1  0
 11 12  2  0
 11 13  1  0
 14 13  1  1
 14 16  1  0
 14 15  1  0
 15  8  1  0
 16 18  1  0
 17 16  2  0
 18 19  1  0
 19 23  1  0
 19 20  1  6
 21 20  1  0
 22 21  2  0
 23 24  2  0
 23 26  1  0
 25 21  1  0
M  END
$$$$
