QND.pdb
     RDKit          3D

 26 25  0  0  1  0  0  0  0  0999 V2000
   10.7122  -20.0954   15.5788 N   0  0  0  0  0  0  0  0  0  0  0  0
    9.4742  -20.0153   14.9035 C   0  0  0  0  0  0  0  0  0  0  0  0
    8.8195  -21.0528   14.6826 O   0  0  0  0  0  0  0  0  0  0  0  0
    8.9659  -18.7006   14.4647 C   0  0  0  0  0  0  0  0  0  0  0  0
    9.8950  -17.6307   14.9943 C   0  0  0  0  0  0  0  0  0  0  0  0
    9.2849  -16.2494   14.7242 C   0  0  2  0  0  0  0  0  0  0  0  0
    9.9886  -15.7001   13.5863 N   0  0  0  0  0  0  0  0  0  0  0  0
    9.5647  -15.4276   15.9118 C   0  0  0  0  0  0  0  0  0  0  0  0
   10.7149  -14.9461   16.0619 O   0  0  0  0  0  0  0  0  0  0  0  0
    8.1258  -11.7048   19.9788 N   0  0  0  0  0  0  0  0  0  0  0  0
    7.9562  -13.1088   19.9581 C   0  0  0  0  0  0  0  0  0  0  0  0
    8.0301  -13.6973   21.0941 O   0  0  0  0  0  0  0  0  0  0  0  0
    7.7073  -13.9392   18.7771 C   0  0  0  0  0  0  0  0  0  0  0  0
    8.9395  -14.3982   18.0452 C   0  0  2  0  0  0  0  0  0  0  0  0
    8.5585  -15.1599   16.9059 N   0  0  0  0  0  0  0  0  0  0  0  0
    9.8402  -15.1523   18.9704 C   0  0  0  0  0  0  0  0  0  0  0  0
    9.7132  -16.3867   19.1965 O   0  0  0  0  0  0  0  0  0  0  0  0
   10.9000  -14.4938   19.6478 N   0  0  0  0  0  0  0  0  0  0  0  0
   11.8862  -15.2104   20.4662 C   0  0  1  0  0  0  0  0  0  0  0  0
   13.1414  -14.4117   20.6068 C   0  0  0  0  0  0  0  0  0  0  0  0
   13.9775  -14.5561   19.4172 C   0  0  0  0  0  0  0  0  0  0  0  0
   13.8226  -15.4914   18.6184 O   0  0  0  0  0  0  0  0  0  0  0  0
   11.2370  -15.3136   21.7999 C   0  0  0  0  0  0  0  0  0  0  0  0
   10.0997  -14.8659   22.0358 O   0  0  0  0  0  0  0  0  0  0  0  0
   14.9737  -13.6272   19.1663 O   0  0  0  0  0  0  0  0  0  0  0  0
   11.8824  -15.9276   22.8686 O   0  0  0  0  0  0  0  0  0  0  0  0
  2  3  2  0
  2  1  1  0
  4  2  1  0
  5  4  1  0
  6  5  1  0
  6  7  1  6
  8  9  2  0
  8  6  1  0
 10 11  1  0
 11 12  2  0
 11 13  1  0
 14 13  1  1
 14 16  1  0
 14 15  1  0
 15  8  1  0
 16 18  1  0
 17 16  2  0
 18 19  1  0
 19 23  1  0
 19 20  1  1
 21 20  1  0
 22 21  2  0
 23 24  2  0
 23 26  1  0
 25 21  1  0
M  END
$$$$
