QND.pdb
     RDKit          3D

 26 25  0  0  1  0  0  0  0  0999 V2000
    7.7316  -13.0216   15.0032 N   0  0  0  0  0  0  0  0  0  0  0  0
    7.7003  -14.4133   15.2425 C   0  0  0  0  0  0  0  0  0  0  0  0
    6.8831  -15.1298   14.6320 O   0  0  0  0  0  0  0  0  0  0  0  0
    8.6378  -15.0078   16.2157 C   0  0  0  0  0  0  0  0  0  0  0  0
    9.4650  -13.8947   16.8200 C   0  0  0  0  0  0  0  0  0  0  0  0
   10.4791  -14.4923   17.8037 C   0  0  2  0  0  0  0  0  0  0  0  0
   10.5202  -15.9146   17.5445 N   0  0  0  0  0  0  0  0  0  0  0  0
    9.9421  -14.2593   19.1532 C   0  0  0  0  0  0  0  0  0  0  0  0
    9.8655  -13.0817   19.5831 O   0  0  0  0  0  0  0  0  0  0  0  0
    6.8314  -13.4688   22.0334 N   0  0  0  0  0  0  0  0  0  0  0  0
    6.8371  -14.8826   22.0722 C   0  0  0  0  0  0  0  0  0  0  0  0
    5.7261  -15.4373   22.3889 O   0  0  0  0  0  0  0  0  0  0  0  0
    7.9773  -15.7576   21.7880 C   0  0  0  0  0  0  0  0  0  0  0  0
    9.2360  -15.0518   21.3612 C   0  0  2  0  0  0  0  0  0  0  0  0
    9.5023  -15.3416   19.9943 N   0  0  0  0  0  0  0  0  0  0  0  0
   10.3693  -15.4240   22.2629 C   0  0  0  0  0  0  0  0  0  0  0  0
   10.3369  -15.2518   23.5121 O   0  0  0  0  0  0  0  0  0  0  0  0
   11.5555  -15.9999   21.7372 N   0  0  0  0  0  0  0  0  0  0  0  0
   12.7063  -16.3547   22.5774 C   0  0  1  0  0  0  0  0  0  0  0  0
   13.1022  -17.7796   22.3626 C   0  0  0  0  0  0  0  0  0  0  0  0
   12.6465  -18.6120   23.4736 C   0  0  0  0  0  0  0  0  0  0  0  0
   12.6814  -18.2132   24.6469 O   0  0  0  0  0  0  0  0  0  0  0  0
   13.7980  -15.4778   22.0777 C   0  0  0  0  0  0  0  0  0  0  0  0
   14.9166  -15.4131   22.6202 O   0  0  0  0  0  0  0  0  0  0  0  0
   12.1604  -19.8836   23.2191 O   0  0  0  0  0  0  0  0  0  0  0  0
   13.6180  -14.6719   20.9578 O   0  0  0  0  0  0  0  0  0  0  0  0
  2  3  2  0
  2  1  1  0
  4  2  1  0
  5  4  1  0
  6  5  1  0
  6  7  1  6
  8  9  2  0
  8  6  1  0
 10 11  1  0
 11 12  2  0
 11 13  1  0
 14 13  1  1
 14 16  1  0
 14 15  1  0
 15  8  1  0
 16 18  1  0
 17 16  2  0
 18 19  1  0
 19 23  1  0
 19 20  1  6
 21 20  1  0
 22 21  2  0
 23 24  2  0
 23 26  1  0
 25 21  1  0
M  END
$$$$
