QND.pdb
     RDKit          3D

 26 25  0  0  1  0  0  0  0  0999 V2000
    7.7685  -12.5184   17.0240 N   0  0  0  0  0  0  0  0  0  0  0  0
    7.9017  -13.7057   16.2704 C   0  0  0  0  0  0  0  0  0  0  0  0
    7.3805  -13.7857   15.1410 O   0  0  0  0  0  0  0  0  0  0  0  0
    8.6588  -14.8434   16.8288 C   0  0  0  0  0  0  0  0  0  0  0  0
    9.1173  -14.4717   18.2216 C   0  0  0  0  0  0  0  0  0  0  0  0
    9.8864  -15.6491   18.8342 C   0  0  2  0  0  0  0  0  0  0  0  0
    9.2001  -16.8533   18.4209 N   0  0  0  0  0  0  0  0  0  0  0  0
    9.7801  -15.5057   20.2943 C   0  0  0  0  0  0  0  0  0  0  0  0
   10.4993  -14.6565   20.8767 O   0  0  0  0  0  0  0  0  0  0  0  0
    5.9268  -14.9116   21.5377 N   0  0  0  0  0  0  0  0  0  0  0  0
    6.7491  -15.0211   22.6832 C   0  0  0  0  0  0  0  0  0  0  0  0
    6.7752  -13.9963   23.4522 O   0  0  0  0  0  0  0  0  0  0  0  0
    7.5605  -16.1793   23.0659 C   0  0  0  0  0  0  0  0  0  0  0  0
    8.9508  -16.2061   22.4906 C   0  0  2  0  0  0  0  0  0  0  0  0
    8.8761  -16.3102   21.0740 N   0  0  0  0  0  0  0  0  0  0  0  0
    9.7465  -17.3099   23.1107 C   0  0  0  0  0  0  0  0  0  0  0  0
    9.8991  -18.4363   22.5637 O   0  0  0  0  0  0  0  0  0  0  0  0
   10.3773  -17.1306   24.3697 N   0  0  0  0  0  0  0  0  0  0  0  0
   11.5544  -17.9036   24.7856 C   0  0  1  0  0  0  0  0  0  0  0  0
   12.8154  -17.2078   24.3868 C   0  0  0  0  0  0  0  0  0  0  0  0
   13.9434  -18.1362   24.4102 C   0  0  0  0  0  0  0  0  0  0  0  0
   13.8170  -19.3095   24.7900 O   0  0  0  0  0  0  0  0  0  0  0  0
   11.4679  -17.9163   26.2699 C   0  0  0  0  0  0  0  0  0  0  0  0
   11.9328  -18.8366   26.9674 O   0  0  0  0  0  0  0  0  0  0  0  0
   15.1927  -17.7029   23.9985 O   0  0  0  0  0  0  0  0  0  0  0  0
   10.8510  -16.8799   26.9636 O   0  0  0  0  0  0  0  0  0  0  0  0
  2  3  2  0
  2  1  1  0
  4  2  1  0
  5  4  1  0
  6  5  1  0
  6  7  1  6
  8  9  2  0
  8  6  1  0
 10 11  1  0
 11 12  2  0
 11 13  1  0
 14 13  1  1
 14 16  1  0
 14 15  1  0
 15  8  1  0
 16 18  1  0
 17 16  2  0
 18 19  1  0
 19 23  1  0
 19 20  1  1
 21 20  1  0
 22 21  2  0
 23 24  2  0
 23 26  1  0
 25 21  1  0
M  END
$$$$
