QND.pdb
     RDKit          3D

 26 25  0  0  1  0  0  0  0  0999 V2000
    8.9047  -14.9554   11.9294 N   0  0  0  0  0  0  0  0  0  0  0  0
    8.5151  -16.2498   12.3394 C   0  0  0  0  0  0  0  0  0  0  0  0
    8.1318  -17.0800   11.4923 O   0  0  0  0  0  0  0  0  0  0  0  0
    8.5656  -16.6080   13.7707 C   0  0  0  0  0  0  0  0  0  0  0  0
    9.1519  -15.4401   14.5327 C   0  0  0  0  0  0  0  0  0  0  0  0
    9.7610  -15.9456   15.8467 C   0  0  2  0  0  0  0  0  0  0  0  0
    8.6918  -16.5860   16.5806 N   0  0  0  0  0  0  0  0  0  0  0  0
   10.2128  -14.7561   16.5848 C   0  0  0  0  0  0  0  0  0  0  0  0
    9.6914  -13.6436   16.3244 O   0  0  0  0  0  0  0  0  0  0  0  0
    8.4755  -12.6202   18.7565 N   0  0  0  0  0  0  0  0  0  0  0  0
    8.5716  -13.8708   19.4100 C   0  0  0  0  0  0  0  0  0  0  0  0
    7.5096  -14.2746   20.0027 O   0  0  0  0  0  0  0  0  0  0  0  0
    9.7540  -14.7338   19.4705 C   0  0  0  0  0  0  0  0  0  0  0  0
   10.9935  -14.1683   18.8313 C   0  0  2  0  0  0  0  0  0  0  0  0
   11.2347  -14.8309   17.5959 N   0  0  0  0  0  0  0  0  0  0  0  0
   12.1507  -14.2622   19.7737 C   0  0  0  0  0  0  0  0  0  0  0  0
   13.3366  -14.4505   19.3871 O   0  0  0  0  0  0  0  0  0  0  0  0
   11.9570  -14.1401   21.1747 N   0  0  0  0  0  0  0  0  0  0  0  0
   12.2305  -15.2361   22.1129 C   0  0  1  0  0  0  0  0  0  0  0  0
   11.4015  -16.4355   21.7854 C   0  0  0  0  0  0  0  0  0  0  0  0
   11.7981  -17.5744   22.6105 C   0  0  0  0  0  0  0  0  0  0  0  0
   12.2628  -17.4260   23.7502 O   0  0  0  0  0  0  0  0  0  0  0  0
   13.6599  -15.5660   21.8705 C   0  0  0  0  0  0  0  0  0  0  0  0
   14.5840  -15.1410   22.5882 O   0  0  0  0  0  0  0  0  0  0  0  0
   11.6548  -18.8594   22.1143 O   0  0  0  0  0  0  0  0  0  0  0  0
   14.0402  -16.3815   20.8093 O   0  0  0  0  0  0  0  0  0  0  0  0
  2  3  2  0
  2  1  1  0
  4  2  1  0
  5  4  1  0
  6  5  1  0
  6  7  1  1
  8  9  2  0
  8  6  1  0
 10 11  1  0
 11 12  2  0
 11 13  1  0
 14 13  1  1
 14 16  1  0
 14 15  1  0
 15  8  1  0
 16 18  1  0
 17 16  2  0
 18 19  1  0
 19 23  1  0
 19 20  1  6
 21 20  1  0
 22 21  2  0
 23 24  2  0
 23 26  1  0
 25 21  1  0
M  END
$$$$
