QND.pdb
     RDKit          3D

 26 25  0  0  1  0  0  0  0  0999 V2000
    8.2071  -12.3241   17.9465 N   0  0  0  0  0  0  0  0  0  0  0  0
    7.9092  -13.5967   17.4108 C   0  0  0  0  0  0  0  0  0  0  0  0
    7.5181  -13.6977   16.2315 O   0  0  0  0  0  0  0  0  0  0  0  0
    8.0641  -14.7982   18.2546 C   0  0  0  0  0  0  0  0  0  0  0  0
    8.4715  -14.3552   19.6424 C   0  0  0  0  0  0  0  0  0  0  0  0
    9.0127  -15.5606   20.4217 C   0  0  2  0  0  0  0  0  0  0  0  0
    7.9749  -16.5678   20.4018 N   0  0  0  0  0  0  0  0  0  0  0  0
    9.2227  -15.1061   21.8050 C   0  0  0  0  0  0  0  0  0  0  0  0
   10.0513  -14.1883   22.0251 O   0  0  0  0  0  0  0  0  0  0  0  0
    5.9991  -12.8417   24.9289 N   0  0  0  0  0  0  0  0  0  0  0  0
    7.1852  -13.5411   25.2515 C   0  0  0  0  0  0  0  0  0  0  0  0
    8.0781  -12.8680   25.8775 O   0  0  0  0  0  0  0  0  0  0  0  0
    7.4826  -14.9419   24.9417 C   0  0  0  0  0  0  0  0  0  0  0  0
    8.7784  -15.1760   24.2132 C   0  0  2  0  0  0  0  0  0  0  0  0
    8.5063  -15.6830   22.9123 N   0  0  0  0  0  0  0  0  0  0  0  0
    9.6655  -16.0770   25.0114 C   0  0  0  0  0  0  0  0  0  0  0  0
    9.8211  -15.9581   26.2575 O   0  0  0  0  0  0  0  0  0  0  0  0
   10.3856  -17.1274   24.3841 N   0  0  0  0  0  0  0  0  0  0  0  0
   11.3721  -17.9497   25.0960 C   0  0  1  0  0  0  0  0  0  0  0  0
   11.2048  -19.3950   24.7550 C   0  0  0  0  0  0  0  0  0  0  0  0
    9.9514  -19.9097   25.3018 C   0  0  0  0  0  0  0  0  0  0  0  0
    9.6336  -19.7331   26.4870 O   0  0  0  0  0  0  0  0  0  0  0  0
   12.6788  -17.4836   24.5613 C   0  0  0  0  0  0  0  0  0  0  0  0
   12.7758  -16.6489   23.6429 O   0  0  0  0  0  0  0  0  0  0  0  0
    9.0877  -20.6158   24.4812 O   0  0  0  0  0  0  0  0  0  0  0  0
   13.8791  -17.9677   25.0720 O   0  0  0  0  0  0  0  0  0  0  0  0
  2  3  2  0
  2  1  1  0
  4  2  1  0
  5  4  1  0
  6  5  1  0
  6  7  1  1
  8  9  2  0
  8  6  1  0
 10 11  1  0
 11 12  2  0
 11 13  1  0
 14 13  1  1
 14 16  1  0
 14 15  1  0
 15  8  1  0
 16 18  1  0
 17 16  2  0
 18 19  1  0
 19 23  1  0
 19 20  1  6
 21 20  1  0
 22 21  2  0
 23 24  2  0
 23 26  1  0
 25 21  1  0
M  END
$$$$
