QND.pdb
     RDKit          3D

 26 25  0  0  1  0  0  0  0  0999 V2000
    7.9513  -12.3212   18.3584 N   0  0  0  0  0  0  0  0  0  0  0  0
    7.5047  -13.5571   17.8403 C   0  0  0  0  0  0  0  0  0  0  0  0
    7.3204  -13.6859   16.6142 O   0  0  0  0  0  0  0  0  0  0  0  0
    7.2599  -14.6874   18.7579 C   0  0  0  0  0  0  0  0  0  0  0  0
    7.6293  -14.2514   20.1585 C   0  0  0  0  0  0  0  0  0  0  0  0
    8.7879  -15.1165   20.6707 C   0  0  2  0  0  0  0  0  0  0  0  0
    8.5937  -16.4393   20.1189 N   0  0  0  0  0  0  0  0  0  0  0  0
    8.6526  -15.1755   22.1343 C   0  0  0  0  0  0  0  0  0  0  0  0
    8.6599  -14.1043   22.7900 O   0  0  0  0  0  0  0  0  0  0  0  0
    6.3421  -18.7464   23.0964 N   0  0  0  0  0  0  0  0  0  0  0  0
    6.4992  -17.7257   24.0627 C   0  0  0  0  0  0  0  0  0  0  0  0
    5.4738  -16.9838   24.2635 O   0  0  0  0  0  0  0  0  0  0  0  0
    7.7065  -17.4429   24.8431 C   0  0  0  0  0  0  0  0  0  0  0  0
    8.6218  -16.4040   24.2536 C   0  0  2  0  0  0  0  0  0  0  0  0
    8.5122  -16.4248   22.8356 N   0  0  0  0  0  0  0  0  0  0  0  0
   10.0232  -16.6194   24.7287 C   0  0  0  0  0  0  0  0  0  0  0  0
   10.3527  -16.5553   25.9446 O   0  0  0  0  0  0  0  0  0  0  0  0
   11.0641  -16.9117   23.8087 N   0  0  0  0  0  0  0  0  0  0  0  0
   12.4705  -17.0337   24.2130 C   0  0  1  0  0  0  0  0  0  0  0  0
   13.0483  -18.3291   23.7428 C   0  0  0  0  0  0  0  0  0  0  0  0
   12.9481  -19.3453   24.7880 C   0  0  0  0  0  0  0  0  0  0  0  0
   13.3022  -19.1207   25.9547 O   0  0  0  0  0  0  0  0  0  0  0  0
   13.1473  -15.9226   23.4933 C   0  0  0  0  0  0  0  0  0  0  0  0
   12.5843  -15.2414   22.6165 O   0  0  0  0  0  0  0  0  0  0  0  0
   12.4448  -20.5974   24.4766 O   0  0  0  0  0  0  0  0  0  0  0  0
   14.4681  -15.5846   23.7708 O   0  0  0  0  0  0  0  0  0  0  0  0
  2  3  2  0
  2  1  1  0
  4  2  1  0
  5  4  1  0
  6  5  1  0
  6  7  1  6
  8  9  2  0
  8  6  1  0
 10 11  1  0
 11 12  2  0
 11 13  1  0
 14 13  1  1
 14 16  1  0
 14 15  1  0
 15  8  1  0
 16 18  1  0
 17 16  2  0
 18 19  1  0
 19 23  1  0
 19 20  1  6
 21 20  1  0
 22 21  2  0
 23 24  2  0
 23 26  1  0
 25 21  1  0
M  END
$$$$
