QND.pdb
     RDKit          3D

 26 25  0  0  1  0  0  0  0  0999 V2000
    7.7822  -11.9772   19.9969 N   0  0  0  0  0  0  0  0  0  0  0  0
    8.0570  -13.2556   20.5312 C   0  0  0  0  0  0  0  0  0  0  0  0
    7.5325  -13.6046   21.6067 O   0  0  0  0  0  0  0  0  0  0  0  0
    8.9649  -14.1687   19.8089 C   0  0  0  0  0  0  0  0  0  0  0  0
    9.4248  -13.4791   18.5435 C   0  0  0  0  0  0  0  0  0  0  0  0
   10.2394  -14.4645   17.6957 C   0  0  2  0  0  0  0  0  0  0  0  0
    9.2975  -15.4102   17.1387 N   0  0  0  0  0  0  0  0  0  0  0  0
   11.1435  -15.1658   18.6202 C   0  0  0  0  0  0  0  0  0  0  0  0
   11.0179  -16.4064   18.7706 O   0  0  0  0  0  0  0  0  0  0  0  0
   15.4518  -13.5997   17.1022 N   0  0  0  0  0  0  0  0  0  0  0  0
   15.1473  -14.5865   18.0685 C   0  0  0  0  0  0  0  0  0  0  0  0
   15.4237  -15.7940   17.7403 O   0  0  0  0  0  0  0  0  0  0  0  0
   14.5548  -14.3595   19.3891 C   0  0  0  0  0  0  0  0  0  0  0  0
   13.3424  -15.1950   19.6999 C   0  0  2  0  0  0  0  0  0  0  0  0
   12.1669  -14.4713   19.3568 N   0  0  0  0  0  0  0  0  0  0  0  0
   13.3614  -15.6220   21.1328 C   0  0  0  0  0  0  0  0  0  0  0  0
   14.3515  -16.1945   21.6648 O   0  0  0  0  0  0  0  0  0  0  0  0
   12.2394  -15.3947   21.9723 N   0  0  0  0  0  0  0  0  0  0  0  0
   12.0693  -16.0625   23.2689 C   0  0  1  0  0  0  0  0  0  0  0  0
   11.3356  -17.3546   23.1092 C   0  0  0  0  0  0  0  0  0  0  0  0
   11.2366  -18.0503   24.3902 C   0  0  0  0  0  0  0  0  0  0  0  0
   12.1655  -18.0446   25.2112 O   0  0  0  0  0  0  0  0  0  0  0  0
   13.4599  -16.3567   23.7049 C   0  0  0  0  0  0  0  0  0  0  0  0
   14.0053  -15.7798   24.6639 O   0  0  0  0  0  0  0  0  0  0  0  0
   10.0766  -18.7383   24.7054 O   0  0  0  0  0  0  0  0  0  0  0  0
   14.2333  -17.3094   23.0492 O   0  0  0  0  0  0  0  0  0  0  0  0
  2  3  2  0
  2  1  1  0
  4  2  1  0
  5  4  1  0
  6  5  1  0
  6  7  1  1
  8  9  2  0
  8  6  1  0
 10 11  1  0
 11 12  2  0
 11 13  1  0
 14 13  1  1
 14 16  1  0
 14 15  1  0
 15  8  1  0
 16 18  1  0
 17 16  2  0
 18 19  1  0
 19 23  1  0
 19 20  1  6
 21 20  1  0
 22 21  2  0
 23 24  2  0
 23 26  1  0
 25 21  1  0
M  END
$$$$
