QND.pdb
     RDKit          3D

 26 25  0  0  1  0  0  0  0  0999 V2000
    8.9109  -13.9149   15.8362 N   0  0  0  0  0  0  0  0  0  0  0  0
    7.5326  -13.7205   16.0762 C   0  0  0  0  0  0  0  0  0  0  0  0
    6.7050  -13.9701   15.1782 O   0  0  0  0  0  0  0  0  0  0  0  0
    7.0840  -13.2224   17.3916 C   0  0  0  0  0  0  0  0  0  0  0  0
    8.2978  -13.0699   18.2814 C   0  0  0  0  0  0  0  0  0  0  0  0
    8.9454  -14.4437   18.4967 C   0  0  2  0  0  0  0  0  0  0  0  0
    7.8664  -15.3814   18.7163 N   0  0  0  0  0  0  0  0  0  0  0  0
    9.7550  -14.3389   19.7204 C   0  0  0  0  0  0  0  0  0  0  0  0
   10.6995  -13.5118   19.7566 O   0  0  0  0  0  0  0  0  0  0  0  0
   11.9254  -15.0628   24.4949 N   0  0  0  0  0  0  0  0  0  0  0  0
   10.7173  -15.7815   24.3396 C   0  0  0  0  0  0  0  0  0  0  0  0
   10.3314  -16.4530   25.3606 O   0  0  0  0  0  0  0  0  0  0  0  0
    9.8793  -15.8283   23.1387 C   0  0  0  0  0  0  0  0  0  0  0  0
   10.4483  -15.1308   21.9327 C   0  0  2  0  0  0  0  0  0  0  0  0
    9.4959  -15.1566   20.8765 N   0  0  0  0  0  0  0  0  0  0  0  0
   11.7557  -15.7460   21.5479 C   0  0  0  0  0  0  0  0  0  0  0  0
   11.8417  -16.8212   20.8939 O   0  0  0  0  0  0  0  0  0  0  0  0
   12.9821  -15.1303   21.9115 N   0  0  0  0  0  0  0  0  0  0  0  0
   14.2479  -15.4137   21.2234 C   0  0  1  0  0  0  0  0  0  0  0  0
   14.7119  -14.2212   20.4514 C   0  0  0  0  0  0  0  0  0  0  0  0
   15.7751  -14.5940   19.5211 C   0  0  0  0  0  0  0  0  0  0  0  0
   16.2043  -15.7549   19.4494 O   0  0  0  0  0  0  0  0  0  0  0  0
   15.2080  -15.6660   22.3302 C   0  0  0  0  0  0  0  0  0  0  0  0
   15.1507  -15.0750   23.4243 O   0  0  0  0  0  0  0  0  0  0  0  0
   16.3253  -13.6308   18.6919 O   0  0  0  0  0  0  0  0  0  0  0  0
   16.2366  -16.5928   22.1932 O   0  0  0  0  0  0  0  0  0  0  0  0
  2  3  2  0
  2  1  1  0
  4  2  1  0
  5  4  1  0
  6  5  1  0
  6  7  1  1
  8  9  2  0
  8  6  1  0
 10 11  1  0
 11 12  2  0
 11 13  1  0
 14 13  1  1
 14 16  1  0
 14 15  1  0
 15  8  1  0
 16 18  1  0
 17 16  2  0
 18 19  1  0
 19 23  1  0
 19 20  1  1
 21 20  1  0
 22 21  2  0
 23 24  2  0
 23 26  1  0
 25 21  1  0
M  END
$$$$
