QND.pdb
     RDKit          3D

 26 25  0  0  1  0  0  0  0  0999 V2000
    5.6932  -17.0487   19.1701 N   0  0  0  0  0  0  0  0  0  0  0  0
    7.0598  -16.7340   19.0011 C   0  0  0  0  0  0  0  0  0  0  0  0
    7.7893  -17.4813   18.3206 O   0  0  0  0  0  0  0  0  0  0  0  0
    7.6126  -15.5199   19.6336 C   0  0  0  0  0  0  0  0  0  0  0  0
    6.4633  -14.7055   20.1850 C   0  0  0  0  0  0  0  0  0  0  0  0
    6.9995  -13.3772   20.7338 C   0  0  2  0  0  0  0  0  0  0  0  0
    7.9662  -12.8915   19.7739 N   0  0  0  0  0  0  0  0  0  0  0  0
    7.6842  -13.6910   21.9973 C   0  0  0  0  0  0  0  0  0  0  0  0
    8.9366  -13.6108   22.0474 O   0  0  0  0  0  0  0  0  0  0  0  0
    6.8022  -11.7323   25.4242 N   0  0  0  0  0  0  0  0  0  0  0  0
    6.2539  -12.9748   25.8190 C   0  0  0  0  0  0  0  0  0  0  0  0
    5.1530  -12.9174   26.4724 O   0  0  0  0  0  0  0  0  0  0  0  0
    6.8189  -14.3003   25.5539 C   0  0  0  0  0  0  0  0  0  0  0  0
    7.7129  -14.3861   24.3463 C   0  0  2  0  0  0  0  0  0  0  0  0
    6.9603  -14.0872   23.1769 N   0  0  0  0  0  0  0  0  0  0  0  0
    8.3710  -15.7273   24.2837 C   0  0  0  0  0  0  0  0  0  0  0  0
    7.7996  -16.7506   23.8172 O   0  0  0  0  0  0  0  0  0  0  0  0
    9.6969  -15.9075   24.7578 N   0  0  0  0  0  0  0  0  0  0  0  0
   10.4317  -17.1692   24.6017 C   0  0  1  0  0  0  0  0  0  0  0  0
   11.7660  -16.9328   23.9716 C   0  0  0  0  0  0  0  0  0  0  0  0
   12.5431  -18.1696   23.9360 C   0  0  0  0  0  0  0  0  0  0  0  0
   12.0001  -19.2840   23.9523 O   0  0  0  0  0  0  0  0  0  0  0  0
   10.6415  -17.6361   25.9976 C   0  0  0  0  0  0  0  0  0  0  0  0
   11.1727  -18.7276   26.2739 O   0  0  0  0  0  0  0  0  0  0  0  0
   13.9256  -18.1058   23.8825 O   0  0  0  0  0  0  0  0  0  0  0  0
   10.2465  -16.8603   27.0829 O   0  0  0  0  0  0  0  0  0  0  0  0
  2  3  2  0
  2  1  1  0
  4  2  1  0
  5  4  1  0
  6  5  1  0
  6  7  1  6
  8  9  2  0
  8  6  1  0
 10 11  1  0
 11 12  2  0
 11 13  1  0
 14 13  1  1
 14 16  1  0
 14 15  1  0
 15  8  1  0
 16 18  1  0
 17 16  2  0
 18 19  1  0
 19 23  1  0
 19 20  1  1
 21 20  1  0
 22 21  2  0
 23 24  2  0
 23 26  1  0
 25 21  1  0
M  END
$$$$
