ESF.pdb
     RDKit          3D

 27 27  0  0  1  0  0  0  0  0999 V2000
    8.5440  -13.1453   18.8305 N   0  0  0  0  0  0  0  0  0  0  0  0
    8.7343  -14.5578   19.1435 C   0  0  1  0  0  0  0  0  0  0  0  0
   10.2231  -14.7389   19.3300 C   0  0  0  0  0  0  0  0  0  0  0  0
   10.9986  -13.4640   19.3873 C   0  0  0  0  0  0  0  0  0  0  0  0
   12.4560  -13.6423   19.5382 C   0  0  0  0  0  0  0  0  0  0  0  0
   13.2439  -13.3822   18.6035 O   0  0  0  0  0  0  0  0  0  0  0  0
    8.0710  -14.8142   20.4657 C   0  0  0  0  0  0  0  0  0  0  0  0
    7.7836  -13.8614   21.2335 O   0  0  0  0  0  0  0  0  0  0  0  0
   12.9591  -14.1071   20.7400 O   0  0  0  0  0  0  0  0  0  0  0  0
    7.1037  -18.7018   21.8636 O   0  0  0  0  0  0  0  0  0  0  0  0
    6.2665  -17.6255   22.1573 C   0  0  0  0  0  0  0  0  0  0  0  0
    7.0265  -16.3043   22.1324 C   0  0  2  0  0  0  0  0  0  0  0  0
    7.7485  -16.1285   20.8908 N   0  0  0  0  0  0  0  0  0  0  0  0
    7.9740  -16.2696   23.2912 C   0  0  0  0  0  0  0  0  0  0  0  0
    9.2118  -16.4259   23.1360 O   0  0  0  0  0  0  0  0  0  0  0  0
    7.5190  -16.0582   24.6215 N   0  0  0  0  0  0  0  0  0  0  0  0
    8.4622  -16.0591   25.7475 C   0  0  1  0  0  0  0  0  0  0  0  0
    7.7791  -15.2659   26.8369 C   0  0  0  0  0  0  0  0  0  0  0  0
    7.6434  -13.8518   26.4596 C   0  0  0  0  0  0  0  0  0  0  0  0
    6.4044  -13.3384   26.1604 C   0  0  0  0  0  0  0  0  0  0  0  0
    6.2636  -11.9957   25.8035 C   0  0  0  0  0  0  0  0  0  0  0  0
    7.3864  -11.1948   25.7561 C   0  0  0  0  0  0  0  0  0  0  0  0
    8.6367  -11.7214   26.0600 C   0  0  0  0  0  0  0  0  0  0  0  0
    8.7768  -13.0459   26.4123 C   0  0  0  0  0  0  0  0  0  0  0  0
    8.7985  -17.4337   26.1191 C   0  0  0  0  0  0  0  0  0  0  0  0
    9.9392  -17.7556   26.8386 O   0  0  0  0  0  0  0  0  0  0  0  0
    8.0320  -18.3692   25.7785 O   0  0  0  0  0  0  0  0  0  0  0  0
  2  1  1  1
  2  7  1  0
  3  2  1  0
  4  3  1  0
  4  5  1  0
  5  6  2  0
  5  9  1  0
  7  8  2  0
  7 13  1  0
 10 11  1  0
 12 14  1  0
 12 11  1  6
 13 12  1  0
 14 15  2  0
 16 17  1  0
 16 14  1  0
 17 18  1  1
 18 19  1  0
 19 20  2  0
 20 21  1  0
 22 21  2  0
 23 22  1  0
 24 23  2  0
 24 19  1  0
 25 26  1  0
 25 17  1  0
 27 25  2  0
M  END
$$$$
