ESF.pdb
     RDKit          3D

 27 27  0  0  1  0  0  0  0  0999 V2000
   11.5185  -19.5277   17.5669 N   0  0  0  0  0  0  0  0  0  0  0  0
   11.0835  -18.5356   18.5446 C   0  0  1  0  0  0  0  0  0  0  0  0
   10.7542  -19.3130   19.7982 C   0  0  0  0  0  0  0  0  0  0  0  0
   11.1711  -20.7465   19.7641 C   0  0  0  0  0  0  0  0  0  0  0  0
   10.9152  -21.4866   21.0151 C   0  0  0  0  0  0  0  0  0  0  0  0
   11.8315  -21.7207   21.8322 O   0  0  0  0  0  0  0  0  0  0  0  0
   12.2643  -17.6584   18.8447 C   0  0  0  0  0  0  0  0  0  0  0  0
   13.4295  -18.1298   18.8414 O   0  0  0  0  0  0  0  0  0  0  0  0
    9.6335  -21.9300   21.2879 O   0  0  0  0  0  0  0  0  0  0  0  0
   11.8629  -13.5765   19.8048 O   0  0  0  0  0  0  0  0  0  0  0  0
   13.0195  -13.9973   19.1486 C   0  0  0  0  0  0  0  0  0  0  0  0
   13.2877  -15.4791   19.3854 C   0  0  2  0  0  0  0  0  0  0  0  0
   12.1078  -16.2798   19.1396 N   0  0  0  0  0  0  0  0  0  0  0  0
   13.7558  -15.6666   20.7951 C   0  0  0  0  0  0  0  0  0  0  0  0
   13.0364  -15.3507   21.7765 O   0  0  0  0  0  0  0  0  0  0  0  0
   15.0357  -16.2108   21.0907 N   0  0  0  0  0  0  0  0  0  0  0  0
   15.5387  -16.2419   22.4703 C   0  0  1  0  0  0  0  0  0  0  0  0
   15.7898  -17.7019   22.7673 C   0  0  0  0  0  0  0  0  0  0  0  0
   14.5315  -18.4159   23.0266 C   0  0  0  0  0  0  0  0  0  0  0  0
   14.4029  -19.7334   22.6582 C   0  0  0  0  0  0  0  0  0  0  0  0
   13.2129  -20.4221   22.9023 C   0  0  0  0  0  0  0  0  0  0  0  0
   12.1707  -19.7595   23.5180 C   0  0  0  0  0  0  0  0  0  0  0  0
   12.3082  -18.4264   23.8877 C   0  0  0  0  0  0  0  0  0  0  0  0
   13.4818  -17.7460   23.6475 C   0  0  0  0  0  0  0  0  0  0  0  0
   16.7196  -15.3870   22.5932 C   0  0  0  0  0  0  0  0  0  0  0  0
   17.2639  -14.7049   21.5157 O   0  0  0  0  0  0  0  0  0  0  0  0
   17.2726  -15.2573   23.7139 O   0  0  0  0  0  0  0  0  0  0  0  0
  2  1  1  6
  2  7  1  0
  3  2  1  0
  4  3  1  0
  4  5  1  0
  5  6  2  0
  5  9  1  0
  7  8  2  0
  7 13  1  0
 10 11  1  0
 12 14  1  0
 12 11  1  1
 13 12  1  0
 14 15  2  0
 16 17  1  0
 16 14  1  0
 17 18  1  6
 18 19  1  0
 19 20  2  0
 20 21  1  0
 22 21  2  0
 23 22  1  0
 24 23  2  0
 24 19  1  0
 25 26  1  0
 25 17  1  0
 27 25  2  0
M  END
$$$$
