ESF.pdb
     RDKit          3D

 27 27  0  0  1  0  0  0  0  0999 V2000
   12.6175  -18.9909   17.6301 N   0  0  0  0  0  0  0  0  0  0  0  0
   12.8274  -19.3672   19.0243 C   0  0  1  0  0  0  0  0  0  0  0  0
   14.2022  -18.8529   19.3847 C   0  0  0  0  0  0  0  0  0  0  0  0
   15.3191  -19.4893   18.6248 C   0  0  0  0  0  0  0  0  0  0  0  0
   16.6658  -19.0392   19.0276 C   0  0  0  0  0  0  0  0  0  0  0  0
   17.1382  -17.9552   18.6227 O   0  0  0  0  0  0  0  0  0  0  0  0
   11.8239  -18.6107   19.8457 C   0  0  0  0  0  0  0  0  0  0  0  0
   11.3796  -17.5025   19.4528 O   0  0  0  0  0  0  0  0  0  0  0  0
   17.4200  -19.8348   19.8712 O   0  0  0  0  0  0  0  0  0  0  0  0
    9.5742  -20.4261   22.7930 O   0  0  0  0  0  0  0  0  0  0  0  0
    9.1573  -19.2380   22.1928 C   0  0  0  0  0  0  0  0  0  0  0  0
   10.3434  -18.3630   21.8042 C   0  0  2  0  0  0  0  0  0  0  0  0
   11.3466  -19.1156   21.0823 N   0  0  0  0  0  0  0  0  0  0  0  0
   10.9348  -17.7708   23.0457 C   0  0  0  0  0  0  0  0  0  0  0  0
   11.9510  -18.2680   23.5942 O   0  0  0  0  0  0  0  0  0  0  0  0
   10.3755  -16.6186   23.6629 N   0  0  0  0  0  0  0  0  0  0  0  0
   10.7095  -16.2725   25.0507 C   0  0  1  0  0  0  0  0  0  0  0  0
    9.9443  -15.0017   25.3371 C   0  0  0  0  0  0  0  0  0  0  0  0
   10.0661  -14.6144   26.7498 C   0  0  0  0  0  0  0  0  0  0  0  0
    8.9383  -14.4819   27.5235 C   0  0  0  0  0  0  0  0  0  0  0  0
    9.0427  -14.1172   28.8674 C   0  0  0  0  0  0  0  0  0  0  0  0
   10.2939  -13.8924   29.4043 C   0  0  0  0  0  0  0  0  0  0  0  0
   11.4304  -14.0282   28.6152 C   0  0  0  0  0  0  0  0  0  0  0  0
   11.3286  -14.3881   27.2892 C   0  0  0  0  0  0  0  0  0  0  0  0
   10.3837  -17.3889   25.9385 C   0  0  0  0  0  0  0  0  0  0  0  0
    9.1784  -18.0710   25.8701 O   0  0  0  0  0  0  0  0  0  0  0  0
   11.2201  -17.7539   26.8021 O   0  0  0  0  0  0  0  0  0  0  0  0
  2  1  1  6
  2  7  1  0
  3  2  1  0
  4  3  1  0
  4  5  1  0
  5  6  2  0
  5  9  1  0
  7  8  2  0
  7 13  1  0
 10 11  1  0
 12 14  1  0
 12 11  1  1
 13 12  1  0
 14 15  2  0
 16 17  1  0
 16 14  1  0
 17 18  1  1
 18 19  1  0
 19 20  2  0
 20 21  1  0
 22 21  2  0
 23 22  1  0
 24 23  2  0
 24 19  1  0
 25 26  1  0
 25 17  1  0
 27 25  2  0
M  END
$$$$
