ESF.pdb
     RDKit          3D

 27 27  0  0  1  0  0  0  0  0999 V2000
    5.6080  -18.8199   19.2622 N   0  0  0  0  0  0  0  0  0  0  0  0
    5.4469  -17.5035   19.8709 C   0  0  1  0  0  0  0  0  0  0  0  0
    4.5338  -17.7101   21.0575 C   0  0  0  0  0  0  0  0  0  0  0  0
    3.5878  -18.8570   20.9173 C   0  0  0  0  0  0  0  0  0  0  0  0
    2.6767  -19.0404   22.0639 C   0  0  0  0  0  0  0  0  0  0  0  0
    1.6740  -18.3113   22.2219 O   0  0  0  0  0  0  0  0  0  0  0  0
    6.7914  -17.0865   20.3928 C   0  0  0  0  0  0  0  0  0  0  0  0
    7.6029  -17.9421   20.8280 O   0  0  0  0  0  0  0  0  0  0  0  0
    2.9394  -20.0409   22.9824 O   0  0  0  0  0  0  0  0  0  0  0  0
    8.0818  -13.2053   19.9998 O   0  0  0  0  0  0  0  0  0  0  0  0
    9.0698  -14.1479   20.2843 C   0  0  0  0  0  0  0  0  0  0  0  0
    8.4848  -15.3833   20.9588 C   0  0  2  0  0  0  0  0  0  0  0  0
    7.1892  -15.7252   20.4126 N   0  0  0  0  0  0  0  0  0  0  0  0
    8.3743  -15.1248   22.4294 C   0  0  0  0  0  0  0  0  0  0  0  0
    7.5981  -14.2489   22.8887 O   0  0  0  0  0  0  0  0  0  0  0  0
    9.1418  -15.8573   23.3760 N   0  0  0  0  0  0  0  0  0  0  0  0
    9.1872  -15.4470   24.7856 C   0  0  1  0  0  0  0  0  0  0  0  0
    7.7585  -15.5340   25.2694 C   0  0  0  0  0  0  0  0  0  0  0  0
    7.2925  -14.2395   25.7869 C   0  0  0  0  0  0  0  0  0  0  0  0
    7.5519  -13.8892   27.0900 C   0  0  0  0  0  0  0  0  0  0  0  0
    7.1163  -12.6607   27.5911 C   0  0  0  0  0  0  0  0  0  0  0  0
    6.4227  -11.8065   26.7584 C   0  0  0  0  0  0  0  0  0  0  0  0
    6.1639  -12.1680   25.4411 C   0  0  0  0  0  0  0  0  0  0  0  0
    6.5932  -13.3797   24.9456 C   0  0  0  0  0  0  0  0  0  0  0  0
   10.1289  -16.2893   25.5233 C   0  0  0  0  0  0  0  0  0  0  0  0
   10.7444  -15.8739   26.6942 O   0  0  0  0  0  0  0  0  0  0  0  0
   10.4000  -17.4368   25.0892 O   0  0  0  0  0  0  0  0  0  0  0  0
  2  1  1  1
  2  7  1  0
  3  2  1  0
  4  3  1  0
  4  5  1  0
  5  6  2  0
  5  9  1  0
  7  8  2  0
  7 13  1  0
 10 11  1  0
 12 14  1  0
 12 11  1  6
 13 12  1  0
 14 15  2  0
 16 17  1  0
 16 14  1  0
 17 18  1  1
 18 19  1  0
 19 20  2  0
 20 21  1  0
 22 21  2  0
 23 22  1  0
 24 23  2  0
 24 19  1  0
 25 26  1  0
 25 17  1  0
 27 25  2  0
M  END
$$$$
