ESF.pdb
     RDKit          3D

 27 27  0  0  1  0  0  0  0  0999 V2000
   10.8947  -15.3336   17.6279 N   0  0  0  0  0  0  0  0  0  0  0  0
   11.6427  -16.2197   18.5139 C   0  0  1  0  0  0  0  0  0  0  0  0
   12.8466  -15.4257   18.9660 C   0  0  0  0  0  0  0  0  0  0  0  0
   13.9032  -15.2578   17.9242 C   0  0  0  0  0  0  0  0  0  0  0  0
   15.0833  -14.4913   18.3696 C   0  0  0  0  0  0  0  0  0  0  0  0
   14.9788  -13.5523   19.1879 O   0  0  0  0  0  0  0  0  0  0  0  0
   10.7827  -16.4758   19.7174 C   0  0  0  0  0  0  0  0  0  0  0  0
    9.8380  -15.6987   20.0067 O   0  0  0  0  0  0  0  0  0  0  0  0
   16.3306  -14.8201   17.8701 O   0  0  0  0  0  0  0  0  0  0  0  0
   11.2071  -19.8965   22.1931 O   0  0  0  0  0  0  0  0  0  0  0  0
    9.9723  -19.2665   22.0381 C   0  0  0  0  0  0  0  0  0  0  0  0
   10.1379  -17.7882   21.7052 C   0  0  2  0  0  0  0  0  0  0  0  0
   11.0040  -17.5934   20.5624 N   0  0  0  0  0  0  0  0  0  0  0  0
   10.6945  -17.0823   22.9025 C   0  0  0  0  0  0  0  0  0  0  0  0
   11.9139  -16.7878   22.9868 O   0  0  0  0  0  0  0  0  0  0  0  0
    9.8708  -16.7115   24.0004 N   0  0  0  0  0  0  0  0  0  0  0  0
   10.4546  -16.1227   25.2128 C   0  0  1  0  0  0  0  0  0  0  0  0
    9.2760  -15.6392   26.0252 C   0  0  0  0  0  0  0  0  0  0  0  0
    9.7147  -15.0377   27.2926 C   0  0  0  0  0  0  0  0  0  0  0  0
   10.0245  -15.8429   28.3621 C   0  0  0  0  0  0  0  0  0  0  0  0
   10.4449  -15.2822   29.5698 C   0  0  0  0  0  0  0  0  0  0  0  0
   10.5438  -13.9095   29.6716 C   0  0  0  0  0  0  0  0  0  0  0  0
   10.2285  -13.1013   28.5852 C   0  0  0  0  0  0  0  0  0  0  0  0
    9.8137  -13.6534   27.3931 C   0  0  0  0  0  0  0  0  0  0  0  0
   11.2964  -17.1070   25.8933 C   0  0  0  0  0  0  0  0  0  0  0  0
   10.9096  -18.4268   26.0696 O   0  0  0  0  0  0  0  0  0  0  0  0
   12.4165  -16.7555   26.3411 O   0  0  0  0  0  0  0  0  0  0  0  0
  2  1  1  6
  2  7  1  0
  3  2  1  0
  4  3  1  0
  4  5  1  0
  5  6  2  0
  5  9  1  0
  7  8  2  0
  7 13  1  0
 10 11  1  0
 12 14  1  0
 12 11  1  1
 13 12  1  0
 14 15  2  0
 16 17  1  0
 16 14  1  0
 17 18  1  1
 18 19  1  0
 19 20  2  0
 20 21  1  0
 22 21  2  0
 23 22  1  0
 24 23  2  0
 24 19  1  0
 25 26  1  0
 25 17  1  0
 27 25  2  0
M  END
$$$$
