ESF.pdb
     RDKit          3D

 27 27  0  0  1  0  0  0  0  0999 V2000
    8.5218  -13.6768   18.3478 N   0  0  0  0  0  0  0  0  0  0  0  0
    9.3346  -14.6858   19.0191 C   0  0  1  0  0  0  0  0  0  0  0  0
   10.7178  -14.0876   19.1335 C   0  0  0  0  0  0  0  0  0  0  0  0
   11.6913  -14.9228   19.8981 C   0  0  0  0  0  0  0  0  0  0  0  0
   13.0832  -14.4341   19.8521 C   0  0  0  0  0  0  0  0  0  0  0  0
   13.4236  -13.5099   19.0826 O   0  0  0  0  0  0  0  0  0  0  0  0
    8.7873  -14.8470   20.4077 C   0  0  0  0  0  0  0  0  0  0  0  0
    8.2260  -13.8851   20.9906 O   0  0  0  0  0  0  0  0  0  0  0  0
   14.0300  -15.0121   20.6785 O   0  0  0  0  0  0  0  0  0  0  0  0
    8.4241  -18.6675   22.1851 O   0  0  0  0  0  0  0  0  0  0  0  0
    7.4499  -17.6761   22.3021 C   0  0  0  0  0  0  0  0  0  0  0  0
    8.0668  -16.2823   22.2812 C   0  0  2  0  0  0  0  0  0  0  0  0
    8.8835  -16.0790   21.1041 N   0  0  0  0  0  0  0  0  0  0  0  0
    8.8887  -16.0986   23.5191 C   0  0  0  0  0  0  0  0  0  0  0  0
   10.1439  -16.1645   23.4933 O   0  0  0  0  0  0  0  0  0  0  0  0
    8.2888  -15.8409   24.7822 N   0  0  0  0  0  0  0  0  0  0  0  0
    9.1040  -15.7767   26.0023 C   0  0  1  0  0  0  0  0  0  0  0  0
    8.1794  -15.2365   27.0682 C   0  0  0  0  0  0  0  0  0  0  0  0
    7.6544  -13.9148   26.6967 C   0  0  0  0  0  0  0  0  0  0  0  0
    8.5097  -12.8454   26.5821 C   0  0  0  0  0  0  0  0  0  0  0  0
    8.0221  -11.5860   26.2270 C   0  0  0  0  0  0  0  0  0  0  0  0
    6.6705  -11.4332   25.9939 C   0  0  0  0  0  0  0  0  0  0  0  0
    5.8114  -12.5198   26.1119 C   0  0  0  0  0  0  0  0  0  0  0  0
    6.2913  -13.7628   26.4621 C   0  0  0  0  0  0  0  0  0  0  0  0
    9.6668  -17.0940   26.2996 C   0  0  0  0  0  0  0  0  0  0  0  0
    9.1504  -18.2651   25.7663 O   0  0  0  0  0  0  0  0  0  0  0  0
   10.6573  -17.1819   27.0676 O   0  0  0  0  0  0  0  0  0  0  0  0
  2  1  1  6
  2  7  1  0
  3  2  1  0
  4  3  1  0
  4  5  1  0
  5  6  2  0
  5  9  1  0
  7  8  2  0
  7 13  1  0
 10 11  1  0
 12 14  1  0
 12 11  1  6
 13 12  1  0
 14 15  2  0
 16 17  1  0
 16 14  1  0
 17 18  1  1
 18 19  1  0
 19 20  2  0
 20 21  1  0
 22 21  2  0
 23 22  1  0
 24 23  2  0
 24 19  1  0
 25 26  1  0
 25 17  1  0
 27 25  2  0
M  END
$$$$
