ESF.pdb
     RDKit          3D

 27 27  0  0  1  0  0  0  0  0999 V2000
    9.7529  -14.3936   19.7618 N   0  0  0  0  0  0  0  0  0  0  0  0
    8.6401  -13.7727   20.4728 C   0  0  1  0  0  0  0  0  0  0  0  0
    7.4696  -13.8142   19.5176 C   0  0  0  0  0  0  0  0  0  0  0  0
    7.7144  -13.1361   18.2099 C   0  0  0  0  0  0  0  0  0  0  0  0
    8.2668  -14.0149   17.1606 C   0  0  0  0  0  0  0  0  0  0  0  0
    7.7039  -15.0852   16.8448 O   0  0  0  0  0  0  0  0  0  0  0  0
    8.3107  -14.6551   21.6419 C   0  0  0  0  0  0  0  0  0  0  0  0
    7.3225  -14.4025   22.3766 O   0  0  0  0  0  0  0  0  0  0  0  0
    9.4322  -13.6448   16.5137 O   0  0  0  0  0  0  0  0  0  0  0  0
   10.5614  -18.0711   22.5367 O   0  0  0  0  0  0  0  0  0  0  0  0
    9.2290  -18.0386   22.9483 C   0  0  0  0  0  0  0  0  0  0  0  0
    8.7245  -16.6075   23.0931 C   0  0  2  0  0  0  0  0  0  0  0  0
    9.0957  -15.7941   21.9554 N   0  0  0  0  0  0  0  0  0  0  0  0
    9.2848  -16.0223   24.3522 C   0  0  0  0  0  0  0  0  0  0  0  0
   10.3749  -15.3962   24.3605 O   0  0  0  0  0  0  0  0  0  0  0  0
    8.6107  -16.1469   25.5979 N   0  0  0  0  0  0  0  0  0  0  0  0
    9.2534  -15.7166   26.8466 C   0  0  1  0  0  0  0  0  0  0  0  0
    8.1501  -15.0839   27.6621 C   0  0  0  0  0  0  0  0  0  0  0  0
    7.6946  -13.8253   27.0547 C   0  0  0  0  0  0  0  0  0  0  0  0
    6.4416  -13.7483   26.4958 C   0  0  0  0  0  0  0  0  0  0  0  0
    5.9978  -12.5569   25.9185 C   0  0  0  0  0  0  0  0  0  0  0  0
    6.8360  -11.4606   25.9184 C   0  0  0  0  0  0  0  0  0  0  0  0
    8.1023  -11.5461   26.4858 C   0  0  0  0  0  0  0  0  0  0  0  0
    8.5413  -12.7211   27.0556 C   0  0  0  0  0  0  0  0  0  0  0  0
    9.9075  -16.8548   27.4923 C   0  0  0  0  0  0  0  0  0  0  0  0
    9.8356  -18.1438   26.9865 O   0  0  0  0  0  0  0  0  0  0  0  0
   10.5632  -16.6711   28.5482 O   0  0  0  0  0  0  0  0  0  0  0  0
  2  1  1  6
  2  7  1  0
  3  2  1  0
  4  3  1  0
  4  5  1  0
  5  6  2  0
  5  9  1  0
  7  8  2  0
  7 13  1  0
 10 11  1  0
 12 14  1  0
 12 11  1  6
 13 12  1  0
 14 15  2  0
 16 17  1  0
 16 14  1  0
 17 18  1  1
 18 19  1  0
 19 20  2  0
 20 21  1  0
 22 21  2  0
 23 22  1  0
 24 23  2  0
 24 19  1  0
 25 26  1  0
 25 17  1  0
 27 25  2  0
M  END
$$$$
