ESF.pdb
     RDKit          3D

 27 27  0  0  1  0  0  0  0  0999 V2000
    9.9599  -18.5285   19.1506 N   0  0  0  0  0  0  0  0  0  0  0  0
    9.7059  -18.5163   20.5876 C   0  0  1  0  0  0  0  0  0  0  0  0
   10.9382  -19.1142   21.2263 C   0  0  0  0  0  0  0  0  0  0  0  0
   11.6099  -20.1672   20.4078 C   0  0  0  0  0  0  0  0  0  0  0  0
   12.8248  -20.7363   21.0230 C   0  0  0  0  0  0  0  0  0  0  0  0
   13.9606  -20.2877   20.7568 O   0  0  0  0  0  0  0  0  0  0  0  0
    9.6194  -17.0790   21.0124 C   0  0  0  0  0  0  0  0  0  0  0  0
   10.6440  -16.3510   21.0213 O   0  0  0  0  0  0  0  0  0  0  0  0
   12.7023  -21.7882   21.9129 O   0  0  0  0  0  0  0  0  0  0  0  0
    5.9610  -15.3180   21.9194 O   0  0  0  0  0  0  0  0  0  0  0  0
    6.9861  -14.4810   21.4790 C   0  0  0  0  0  0  0  0  0  0  0  0
    8.3577  -15.0897   21.7473 C   0  0  2  0  0  0  0  0  0  0  0  0
    8.3897  -16.4977   21.4150 N   0  0  0  0  0  0  0  0  0  0  0  0
    8.7010  -14.8909   23.1910 C   0  0  0  0  0  0  0  0  0  0  0  0
    8.9457  -13.7503   23.6598 O   0  0  0  0  0  0  0  0  0  0  0  0
    8.7667  -15.9823   24.0999 N   0  0  0  0  0  0  0  0  0  0  0  0
    9.2416  -15.7866   25.4760 C   0  0  1  0  0  0  0  0  0  0  0  0
    7.9899  -15.6474   26.3107 C   0  0  0  0  0  0  0  0  0  0  0  0
    7.5677  -14.2427   26.4058 C   0  0  0  0  0  0  0  0  0  0  0  0
    6.2525  -13.9067   26.1924 C   0  0  0  0  0  0  0  0  0  0  0  0
    5.8399  -12.5757   26.2830 C   0  0  0  0  0  0  0  0  0  0  0  0
    6.7724  -11.6057   26.5894 C   0  0  0  0  0  0  0  0  0  0  0  0
    8.1013  -11.9533   26.8039 C   0  0  0  0  0  0  0  0  0  0  0  0
    8.5094  -13.2661   26.7148 C   0  0  0  0  0  0  0  0  0  0  0  0
   10.1114  -16.8954   25.8690 C   0  0  0  0  0  0  0  0  0  0  0  0
   10.4205  -17.9422   25.0139 O   0  0  0  0  0  0  0  0  0  0  0  0
   10.6043  -16.9124   27.0247 O   0  0  0  0  0  0  0  0  0  0  0  0
  2  1  1  6
  2  7  1  0
  3  2  1  0
  4  3  1  0
  4  5  1  0
  5  6  2  0
  5  9  1  0
  7  8  2  0
  7 13  1  0
 10 11  1  0
 12 14  1  0
 12 11  1  1
 13 12  1  0
 14 15  2  0
 16 17  1  0
 16 14  1  0
 17 18  1  1
 18 19  1  0
 19 20  2  0
 20 21  1  0
 22 21  2  0
 23 22  1  0
 24 23  2  0
 24 19  1  0
 25 26  1  0
 25 17  1  0
 27 25  2  0
M  END
$$$$
