ESF.pdb
     RDKit          3D

 27 27  0  0  1  0  0  0  0  0999 V2000
    9.2983  -15.8241   18.6001 N   0  0  0  0  0  0  0  0  0  0  0  0
    8.7475  -14.6995   19.3492 C   0  0  1  0  0  0  0  0  0  0  0  0
    7.5901  -14.1855   18.5244 C   0  0  0  0  0  0  0  0  0  0  0  0
    7.9872  -13.3233   17.3717 C   0  0  0  0  0  0  0  0  0  0  0  0
    8.1481  -14.0465   16.0952 C   0  0  0  0  0  0  0  0  0  0  0  0
    7.3018  -14.8811   15.7086 O   0  0  0  0  0  0  0  0  0  0  0  0
    8.1905  -15.2481   20.6309 C   0  0  0  0  0  0  0  0  0  0  0  0
    6.9870  -15.6030   20.7062 O   0  0  0  0  0  0  0  0  0  0  0  0
    9.2595  -13.7944   15.3111 O   0  0  0  0  0  0  0  0  0  0  0  0
    9.9654  -18.0247   22.3757 O   0  0  0  0  0  0  0  0  0  0  0  0
    8.6386  -17.6703   22.6198 C   0  0  0  0  0  0  0  0  0  0  0  0
    8.5015  -16.1774   22.8956 C   0  0  2  0  0  0  0  0  0  0  0  0
    8.9955  -15.3841   21.7909 N   0  0  0  0  0  0  0  0  0  0  0  0
    9.2531  -15.8458   24.1474 C   0  0  0  0  0  0  0  0  0  0  0  0
   10.4771  -15.5594   24.1256 O   0  0  0  0  0  0  0  0  0  0  0  0
    8.6185  -15.8391   25.4197 N   0  0  0  0  0  0  0  0  0  0  0  0
    9.3802  -15.5339   26.6379 C   0  0  1  0  0  0  0  0  0  0  0  0
    8.3591  -15.0167   27.6241 C   0  0  0  0  0  0  0  0  0  0  0  0
    7.7503  -13.7649   27.1520 C   0  0  0  0  0  0  0  0  0  0  0  0
    8.4709  -12.5955   27.1904 C   0  0  0  0  0  0  0  0  0  0  0  0
    7.9033  -11.4011   26.7418 C   0  0  0  0  0  0  0  0  0  0  0  0
    6.6100  -11.4143   26.2606 C   0  0  0  0  0  0  0  0  0  0  0  0
    5.8872  -12.6014   26.2250 C   0  0  0  0  0  0  0  0  0  0  0  0
    6.4461  -13.7803   26.6672 C   0  0  0  0  0  0  0  0  0  0  0  0
   10.1073  -16.7218   27.0858 C   0  0  0  0  0  0  0  0  0  0  0  0
    9.8987  -17.9774   26.5358 O   0  0  0  0  0  0  0  0  0  0  0  0
   10.9571  -16.6141   28.0050 O   0  0  0  0  0  0  0  0  0  0  0  0
  2  1  1  6
  2  7  1  0
  3  2  1  0
  4  3  1  0
  4  5  1  0
  5  6  2  0
  5  9  1  0
  7  8  2  0
  7 13  1  0
 10 11  1  0
 12 14  1  0
 12 11  1  6
 13 12  1  0
 14 15  2  0
 16 17  1  0
 16 14  1  0
 17 18  1  1
 18 19  1  0
 19 20  2  0
 20 21  1  0
 22 21  2  0
 23 22  1  0
 24 23  2  0
 24 19  1  0
 25 26  1  0
 25 17  1  0
 27 25  2  0
M  END
$$$$
