ESF.pdb
     RDKit          3D

 27 27  0  0  1  0  0  0  0  0999 V2000
    8.2093  -18.5354   18.5514 N   0  0  0  0  0  0  0  0  0  0  0  0
    8.9602  -18.8979   19.7489 C   0  0  1  0  0  0  0  0  0  0  0  0
   10.3934  -18.5100   19.4667 C   0  0  0  0  0  0  0  0  0  0  0  0
   11.1168  -19.4409   18.5502 C   0  0  0  0  0  0  0  0  0  0  0  0
   11.3890  -20.7733   19.1237 C   0  0  0  0  0  0  0  0  0  0  0  0
   12.5576  -21.1857   19.2865 O   0  0  0  0  0  0  0  0  0  0  0  0
    8.4609  -18.0299   20.8675 C   0  0  0  0  0  0  0  0  0  0  0  0
    8.4848  -16.7773   20.7657 O   0  0  0  0  0  0  0  0  0  0  0  0
   10.3274  -21.5818   19.4884 O   0  0  0  0  0  0  0  0  0  0  0  0
    6.9372  -19.5333   24.5776 O   0  0  0  0  0  0  0  0  0  0  0  0
    6.4256  -18.3794   23.9842 C   0  0  0  0  0  0  0  0  0  0  0  0
    7.4644  -17.6986   23.1005 C   0  0  2  0  0  0  0  0  0  0  0  0
    7.9496  -18.5878   22.0672 N   0  0  0  0  0  0  0  0  0  0  0  0
    8.6000  -17.2345   23.9588 C   0  0  0  0  0  0  0  0  0  0  0  0
    9.6984  -17.8456   23.9865 O   0  0  0  0  0  0  0  0  0  0  0  0
    8.4902  -16.0811   24.7829 N   0  0  0  0  0  0  0  0  0  0  0  0
    9.6218  -15.6352   25.6063 C   0  0  1  0  0  0  0  0  0  0  0  0
    9.7443  -14.1528   25.3415 C   0  0  0  0  0  0  0  0  0  0  0  0
    8.5503  -13.4298   25.8021 C   0  0  0  0  0  0  0  0  0  0  0  0
    7.4903  -13.2433   24.9478 C   0  0  0  0  0  0  0  0  0  0  0  0
    6.3500  -12.5603   25.3758 C   0  0  0  0  0  0  0  0  0  0  0  0
    6.3052  -12.0770   26.6676 C   0  0  0  0  0  0  0  0  0  0  0  0
    7.3816  -12.2696   27.5261 C   0  0  0  0  0  0  0  0  0  0  0  0
    8.5071  -12.9432   27.1050 C   0  0  0  0  0  0  0  0  0  0  0  0
    9.3898  -15.9830   27.0083 C   0  0  0  0  0  0  0  0  0  0  0  0
   10.3816  -15.8976   27.9735 O   0  0  0  0  0  0  0  0  0  0  0  0
    8.2513  -16.3766   27.3654 O   0  0  0  0  0  0  0  0  0  0  0  0
  2  1  1  6
  2  7  1  0
  3  2  1  0
  4  3  1  0
  4  5  1  0
  5  6  2  0
  5  9  1  0
  7  8  2  0
  7 13  1  0
 10 11  1  0
 12 14  1  0
 12 11  1  1
 13 12  1  0
 14 15  2  0
 16 17  1  0
 16 14  1  0
 17 18  1  1
 18 19  1  0
 19 20  2  0
 20 21  1  0
 22 21  2  0
 23 22  1  0
 24 23  2  0
 24 19  1  0
 25 26  1  0
 25 17  1  0
 27 25  2  0
M  END
$$$$
