ESF.pdb
     RDKit          3D

 27 27  0  0  1  0  0  0  0  0999 V2000
    7.2215  -20.0797   16.3877 N   0  0  0  0  0  0  0  0  0  0  0  0
    8.3569  -19.4330   17.0373 C   0  0  1  0  0  0  0  0  0  0  0  0
    8.6195  -18.1736   16.2443 C   0  0  0  0  0  0  0  0  0  0  0  0
    9.5545  -18.3512   15.0935 C   0  0  0  0  0  0  0  0  0  0  0  0
    9.7084  -17.1556   14.2419 C   0  0  0  0  0  0  0  0  0  0  0  0
   10.7328  -16.4420   14.3006 O   0  0  0  0  0  0  0  0  0  0  0  0
    7.9111  -19.0260   18.4119 C   0  0  0  0  0  0  0  0  0  0  0  0
    6.7406  -18.6125   18.6093 O   0  0  0  0  0  0  0  0  0  0  0  0
    8.6968  -16.8190   13.3605 O   0  0  0  0  0  0  0  0  0  0  0  0
    9.4520  -20.5562   21.8643 O   0  0  0  0  0  0  0  0  0  0  0  0
    8.2226  -19.9033   21.7764 C   0  0  0  0  0  0  0  0  0  0  0  0
    8.2905  -18.7106   20.8297 C   0  0  2  0  0  0  0  0  0  0  0  0
    8.7870  -19.0933   19.5255 N   0  0  0  0  0  0  0  0  0  0  0  0
    9.1748  -17.6639   21.4332 C   0  0  0  0  0  0  0  0  0  0  0  0
   10.4096  -17.6288   21.1995 O   0  0  0  0  0  0  0  0  0  0  0  0
    8.6601  -16.6603   22.2989 N   0  0  0  0  0  0  0  0  0  0  0  0
    9.5497  -15.6580   22.9000 C   0  0  1  0  0  0  0  0  0  0  0  0
    8.7079  -14.4104   23.0330 C   0  0  0  0  0  0  0  0  0  0  0  0
    8.3295  -13.8812   21.7150 C   0  0  0  0  0  0  0  0  0  0  0  0
    7.0066  -13.6501   21.4236 C   0  0  0  0  0  0  0  0  0  0  0  0
    6.6362  -13.1449   20.1756 C   0  0  0  0  0  0  0  0  0  0  0  0
    7.6179  -12.8823   19.2420 C   0  0  0  0  0  0  0  0  0  0  0  0
    8.9542  -13.1188   19.5441 C   0  0  0  0  0  0  0  0  0  0  0  0
    9.3208  -13.6171   20.7750 C   0  0  0  0  0  0  0  0  0  0  0  0
   10.0913  -16.1607   24.1627 C   0  0  0  0  0  0  0  0  0  0  0  0
   11.2235  -15.6242   24.7567 O   0  0  0  0  0  0  0  0  0  0  0  0
    9.5178  -17.1168   24.7421 O   0  0  0  0  0  0  0  0  0  0  0  0
  2  1  1  6
  2  7  1  0
  3  2  1  0
  4  3  1  0
  4  5  1  0
  5  6  2  0
  5  9  1  0
  7  8  2  0
  7 13  1  0
 10 11  1  0
 12 14  1  0
 12 11  1  1
 13 12  1  0
 14 15  2  0
 16 17  1  0
 16 14  1  0
 17 18  1  1
 18 19  1  0
 19 20  2  0
 20 21  1  0
 22 21  2  0
 23 22  1  0
 24 23  2  0
 24 19  1  0
 25 26  1  0
 25 17  1  0
 27 25  2  0
M  END
$$$$
