ESF.pdb
     RDKit          3D

 27 27  0  0  1  0  0  0  0  0999 V2000
   11.6136  -17.9063   18.1952 N   0  0  0  0  0  0  0  0  0  0  0  0
   10.9248  -18.6217   19.2644 C   0  0  1  0  0  0  0  0  0  0  0  0
   11.8786  -19.7047   19.7132 C   0  0  0  0  0  0  0  0  0  0  0  0
   13.3074  -19.2774   19.7898 C   0  0  0  0  0  0  0  0  0  0  0  0
   14.2491  -20.3565   20.1463 C   0  0  0  0  0  0  0  0  0  0  0  0
   14.2338  -20.8864   21.2781 O   0  0  0  0  0  0  0  0  0  0  0  0
   10.7521  -17.6602   20.4043 C   0  0  0  0  0  0  0  0  0  0  0  0
   11.5656  -16.7174   20.5759 O   0  0  0  0  0  0  0  0  0  0  0  0
   15.1676  -20.7895   19.2069 O   0  0  0  0  0  0  0  0  0  0  0  0
    7.2301  -17.4885   22.4586 O   0  0  0  0  0  0  0  0  0  0  0  0
    8.0883  -16.3965   22.5874 C   0  0  0  0  0  0  0  0  0  0  0  0
    9.5426  -16.8019   22.3765 C   0  0  2  0  0  0  0  0  0  0  0  0
    9.6748  -17.7808   21.3192 N   0  0  0  0  0  0  0  0  0  0  0  0
   10.0825  -17.3511   23.6605 C   0  0  0  0  0  0  0  0  0  0  0  0
    9.5343  -18.3191   24.2461 O   0  0  0  0  0  0  0  0  0  0  0  0
   11.2405  -16.8042   24.2781 N   0  0  0  0  0  0  0  0  0  0  0  0
   11.1994  -16.3342   25.6691 C   0  0  1  0  0  0  0  0  0  0  0  0
   10.5961  -14.9506   25.6019 C   0  0  0  0  0  0  0  0  0  0  0  0
   10.3627  -14.4063   26.9471 C   0  0  0  0  0  0  0  0  0  0  0  0
    9.1039  -13.9906   27.3091 C   0  0  0  0  0  0  0  0  0  0  0  0
    8.8704  -13.4745   28.5854 C   0  0  0  0  0  0  0  0  0  0  0  0
    9.9218  -13.3889   29.4751 C   0  0  0  0  0  0  0  0  0  0  0  0
   11.1926  -13.8113   29.1016 C   0  0  0  0  0  0  0  0  0  0  0  0
   11.4242  -14.3207   27.8427 C   0  0  0  0  0  0  0  0  0  0  0  0
   10.4521  -17.2813   26.4968 C   0  0  0  0  0  0  0  0  0  0  0  0
    9.0873  -17.4821   26.3560 O   0  0  0  0  0  0  0  0  0  0  0  0
   11.0587  -17.9451   27.3743 O   0  0  0  0  0  0  0  0  0  0  0  0
  2  1  1  6
  2  7  1  0
  3  2  1  0
  4  3  1  0
  4  5  1  0
  5  6  2  0
  5  9  1  0
  7  8  2  0
  7 13  1  0
 10 11  1  0
 12 14  1  0
 12 11  1  1
 13 12  1  0
 14 15  2  0
 16 17  1  0
 16 14  1  0
 17 18  1  6
 18 19  1  0
 19 20  2  0
 20 21  1  0
 22 21  2  0
 23 22  1  0
 24 23  2  0
 24 19  1  0
 25 26  1  0
 25 17  1  0
 27 25  2  0
M  END
$$$$
