ESF.pdb
     RDKit          3D

 27 27  0  0  1  0  0  0  0  0999 V2000
    8.7243  -13.8599   17.8811 N   0  0  0  0  0  0  0  0  0  0  0  0
    9.6350  -14.6811   18.6722 C   0  0  1  0  0  0  0  0  0  0  0  0
   10.5737  -13.7118   19.3531 C   0  0  0  0  0  0  0  0  0  0  0  0
   11.8350  -13.4409   18.6009 C   0  0  0  0  0  0  0  0  0  0  0  0
   12.9504  -14.3488   18.9325 C   0  0  0  0  0  0  0  0  0  0  0  0
   12.8976  -15.5690   18.6671 O   0  0  0  0  0  0  0  0  0  0  0  0
    8.8175  -15.3537   19.7368 C   0  0  0  0  0  0  0  0  0  0  0  0
    7.7809  -14.8059   20.1900 O   0  0  0  0  0  0  0  0  0  0  0  0
   14.0775  -13.8370   19.5500 O   0  0  0  0  0  0  0  0  0  0  0  0
    9.9867  -18.9409   21.7382 O   0  0  0  0  0  0  0  0  0  0  0  0
    8.6418  -18.6966   21.4602 C   0  0  0  0  0  0  0  0  0  0  0  0
    8.3662  -17.2055   21.3039 C   0  0  2  0  0  0  0  0  0  0  0  0
    9.1829  -16.6190   20.2633 N   0  0  0  0  0  0  0  0  0  0  0  0
    8.6281  -16.5257   22.6120 C   0  0  0  0  0  0  0  0  0  0  0  0
    9.7334  -15.9819   22.8631 O   0  0  0  0  0  0  0  0  0  0  0  0
    7.6394  -16.4628   23.6318 N   0  0  0  0  0  0  0  0  0  0  0  0
    7.8693  -15.6816   24.8543 C   0  0  1  0  0  0  0  0  0  0  0  0
    7.0616  -14.4175   24.6741 C   0  0  0  0  0  0  0  0  0  0  0  0
    7.1236  -13.5713   25.8743 C   0  0  0  0  0  0  0  0  0  0  0  0
    8.2883  -12.9137   26.1895 C   0  0  0  0  0  0  0  0  0  0  0  0
    8.3575  -12.1050   27.3258 C   0  0  0  0  0  0  0  0  0  0  0  0
    7.2398  -11.9774   28.1251 C   0  0  0  0  0  0  0  0  0  0  0  0
    6.0650  -12.6459   27.7998 C   0  0  0  0  0  0  0  0  0  0  0  0
    5.9956  -13.4439   26.6790 C   0  0  0  0  0  0  0  0  0  0  0  0
    7.5040  -16.4714   26.0304 C   0  0  0  0  0  0  0  0  0  0  0  0
    6.4304  -17.3489   26.0376 O   0  0  0  0  0  0  0  0  0  0  0  0
    8.1814  -16.3593   27.0827 O   0  0  0  0  0  0  0  0  0  0  0  0
  2  1  1  6
  2  7  1  0
  3  2  1  0
  4  3  1  0
  4  5  1  0
  5  6  2  0
  5  9  1  0
  7  8  2  0
  7 13  1  0
 10 11  1  0
 12 14  1  0
 12 11  1  1
 13 12  1  0
 14 15  2  0
 16 17  1  0
 16 14  1  0
 17 18  1  6
 18 19  1  0
 19 20  2  0
 20 21  1  0
 22 21  2  0
 23 22  1  0
 24 23  2  0
 24 19  1  0
 25 26  1  0
 25 17  1  0
 27 25  2  0
M  END
$$$$
