ESF.pdb
     RDKit          3D

 27 27  0  0  1  0  0  0  0  0999 V2000
    8.5568  -17.9254   18.8570 N   0  0  0  0  0  0  0  0  0  0  0  0
    9.3719  -18.1301   20.0500 C   0  0  1  0  0  0  0  0  0  0  0  0
   10.5984  -17.2675   19.8609 C   0  0  0  0  0  0  0  0  0  0  0  0
   11.5779  -17.7953   18.8648 C   0  0  0  0  0  0  0  0  0  0  0  0
   12.8149  -16.9993   18.7443 C   0  0  0  0  0  0  0  0  0  0  0  0
   13.9400  -17.5433   18.7253 O   0  0  0  0  0  0  0  0  0  0  0  0
    8.6004  -17.5829   21.2158 C   0  0  0  0  0  0  0  0  0  0  0  0
    7.7233  -16.6988   21.0452 O   0  0  0  0  0  0  0  0  0  0  0  0
   12.7258  -15.6220   18.6504 O   0  0  0  0  0  0  0  0  0  0  0  0
    7.9082  -19.8068   24.5344 O   0  0  0  0  0  0  0  0  0  0  0  0
    7.1170  -18.7199   24.1625 C   0  0  0  0  0  0  0  0  0  0  0  0
    7.9609  -17.5823   23.5991 C   0  0  2  0  0  0  0  0  0  0  0  0
    8.8321  -18.0401   22.5384 N   0  0  0  0  0  0  0  0  0  0  0  0
    8.7677  -16.9832   24.7090 C   0  0  0  0  0  0  0  0  0  0  0  0
   10.0175  -17.1105   24.7590 O   0  0  0  0  0  0  0  0  0  0  0  0
    8.1590  -16.2421   25.7587 N   0  0  0  0  0  0  0  0  0  0  0  0
    8.9566  -15.7425   26.8864 C   0  0  1  0  0  0  0  0  0  0  0  0
    8.0422  -14.7971   27.6299 C   0  0  0  0  0  0  0  0  0  0  0  0
    7.6594  -13.6549   26.7875 C   0  0  0  0  0  0  0  0  0  0  0  0
    6.3533  -13.2287   26.7635 C   0  0  0  0  0  0  0  0  0  0  0  0
    5.9793  -12.1430   25.9690 C   0  0  0  0  0  0  0  0  0  0  0  0
    6.9404  -11.5067   25.2102 C   0  0  0  0  0  0  0  0  0  0  0  0
    8.2598  -11.9438   25.2396 C   0  0  0  0  0  0  0  0  0  0  0  0
    8.6300  -13.0148   26.0231 C   0  0  0  0  0  0  0  0  0  0  0  0
    9.4502  -16.8630   27.6872 C   0  0  0  0  0  0  0  0  0  0  0  0
   10.5539  -16.7575   28.5198 O   0  0  0  0  0  0  0  0  0  0  0  0
    8.8601  -17.9706   27.6270 O   0  0  0  0  0  0  0  0  0  0  0  0
  2  1  1  6
  2  7  1  0
  3  2  1  0
  4  3  1  0
  4  5  1  0
  5  6  2  0
  5  9  1  0
  7  8  2  0
  7 13  1  0
 10 11  1  0
 12 14  1  0
 12 11  1  1
 13 12  1  0
 14 15  2  0
 16 17  1  0
 16 14  1  0
 17 18  1  1
 18 19  1  0
 19 20  2  0
 20 21  1  0
 22 21  2  0
 23 22  1  0
 24 23  2  0
 24 19  1  0
 25 26  1  0
 25 17  1  0
 27 25  2  0
M  END
$$$$
