KKS.pdb
     RDKit          3D

 25 24  0  0  1  0  0  0  0  0999 V2000
   11.7173  -18.6361   17.9789 N   0  0  0  0  0  0  0  0  0  0  0  0
   10.6742  -18.7065   18.9206 C   0  0  1  0  0  0  0  0  0  0  0  0
   10.3894  -20.1548   19.2774 C   0  0  0  0  0  0  0  0  0  0  0  0
   10.6953  -21.1481   18.2241 C   0  0  0  0  0  0  0  0  0  0  0  0
   10.4040  -22.5766   18.5293 C   0  0  0  0  0  0  0  0  0  0  0  0
   10.8576  -23.4960   17.3901 C   0  0  0  0  0  0  0  0  0  0  0  0
   10.6400  -24.9006   17.7572 N   0  0  0  0  0  0  0  0  0  0  0  0
   10.8127  -17.8693   20.1115 C   0  0  0  0  0  0  0  0  0  0  0  0
   11.9916  -17.7432   20.6175 O   0  0  0  0  0  0  0  0  0  0  0  0
    9.7800  -17.2008   20.7400 N   0  0  0  0  0  0  0  0  0  0  0  0
   10.0007  -16.3101   21.9051 C   0  0  1  0  0  0  0  0  0  0  0  0
    8.8235  -15.3653   21.8730 C   0  0  0  0  0  0  0  0  0  0  0  0
    8.7843  -14.4778   20.6888 C   0  0  0  0  0  0  0  0  0  0  0  0
    7.5540  -13.6144   20.5752 C   0  0  0  0  0  0  0  0  0  0  0  0
    7.4819  -12.7290   19.3892 C   0  0  0  0  0  0  0  0  0  0  0  0
    6.2484  -12.0352   19.1799 N   0  0  0  0  0  0  0  0  0  0  0  0
   10.1208  -17.1139   23.1324 C   0  0  0  0  0  0  0  0  0  0  0  0
    9.4096  -18.1674   23.2298 O   0  0  0  0  0  0  0  0  0  0  0  0
   12.8336  -19.4522   25.9891 O   0  0  0  0  0  0  0  0  0  0  0  0
   12.4748  -18.5926   24.9848 C   0  0  0  0  0  0  0  0  0  0  0  0
   11.2535  -17.7636   25.2867 C   0  0  2  0  0  0  0  0  0  0  0  0
   10.9551  -16.8328   24.2173 N   0  0  0  0  0  0  0  0  0  0  0  0
   11.2965  -17.1166   26.6099 C   0  0  0  0  0  0  0  0  0  0  0  0
   11.5143  -17.8572   27.7522 O   0  0  0  0  0  0  0  0  0  0  0  0
   11.1349  -15.8834   26.7042 O   0  0  0  0  0  0  0  0  0  0  0  0
  2  1  1  1
  2  3  1  0
  3  4  1  0
  5  6  1  0
  5  4  1  0
  7  6  1  0
  8  2  1  0
  9  8  2  0
 10  8  1  0
 11 10  1  0
 11 12  1  1
 12 13  1  0
 14 15  1  0
 14 13  1  0
 16 15  1  0
 17 11  1  0
 18 17  2  0
 19 20  1  0
 21 20  1  6
 21 23  1  0
 21 22  1  0
 22 17  1  0
 23 24  1  0
 25 23  2  0
M  END
$$$$
