KKS.pdb
     RDKit          3D

 25 24  0  0  1  0  0  0  0  0999 V2000
   10.8939  -18.4835   14.3476 N   0  0  0  0  0  0  0  0  0  0  0  0
   11.6734  -18.9929   15.4025 C   0  0  1  0  0  0  0  0  0  0  0  0
   13.0655  -18.3875   15.3628 C   0  0  0  0  0  0  0  0  0  0  0  0
   14.0470  -19.0893   14.5063 C   0  0  0  0  0  0  0  0  0  0  0  0
   15.4642  -18.6367   14.5822 C   0  0  0  0  0  0  0  0  0  0  0  0
   16.3448  -19.3832   13.5743 C   0  0  0  0  0  0  0  0  0  0  0  0
   17.7589  -19.0632   13.8043 N   0  0  0  0  0  0  0  0  0  0  0  0
   11.0868  -18.9226   16.7402 C   0  0  0  0  0  0  0  0  0  0  0  0
   10.3223  -17.9186   17.0036 O   0  0  0  0  0  0  0  0  0  0  0  0
   11.2860  -19.8471   17.7472 N   0  0  0  0  0  0  0  0  0  0  0  0
   10.6631  -19.7123   19.0863 C   0  0  1  0  0  0  0  0  0  0  0  0
   10.4310  -21.1372   19.5282 C   0  0  0  0  0  0  0  0  0  0  0  0
    9.8023  -21.2687   20.8619 C   0  0  0  0  0  0  0  0  0  0  0  0
    9.4686  -22.6787   21.2772 C   0  0  0  0  0  0  0  0  0  0  0  0
    8.7752  -22.8323   22.5777 C   0  0  0  0  0  0  0  0  0  0  0  0
    8.4168  -24.1632   22.9610 N   0  0  0  0  0  0  0  0  0  0  0  0
   11.5387  -18.9220   19.9670 C   0  0  0  0  0  0  0  0  0  0  0  0
   12.7935  -19.1418   19.9170 O   0  0  0  0  0  0  0  0  0  0  0  0
   10.2327  -16.3914   23.1486 O   0  0  0  0  0  0  0  0  0  0  0  0
   11.3002  -16.0173   22.3761 C   0  0  0  0  0  0  0  0  0  0  0  0
   12.0129  -17.1643   21.7083 C   0  0  2  0  0  0  0  0  0  0  0  0
   11.1226  -17.9352   20.8643 N   0  0  0  0  0  0  0  0  0  0  0  0
   12.7789  -18.0043   22.6458 C   0  0  0  0  0  0  0  0  0  0  0  0
   13.8650  -17.4953   23.3255 O   0  0  0  0  0  0  0  0  0  0  0  0
   12.4451  -19.1917   22.8314 O   0  0  0  0  0  0  0  0  0  0  0  0
  2  1  1  6
  2  3  1  0
  3  4  1  0
  5  6  1  0
  5  4  1  0
  7  6  1  0
  8  2  1  0
  9  8  2  0
 10  8  1  0
 11 10  1  0
 11 12  1  1
 12 13  1  0
 14 15  1  0
 14 13  1  0
 16 15  1  0
 17 11  1  0
 18 17  2  0
 19 20  1  0
 21 20  1  1
 21 23  1  0
 21 22  1  0
 22 17  1  0
 23 24  1  0
 25 23  2  0
M  END
$$$$
