KKS.pdb
     RDKit          3D

 25 24  0  0  1  0  0  0  0  0999 V2000
    9.5955  -18.8579   20.6411 N   0  0  0  0  0  0  0  0  0  0  0  0
   10.7360  -18.1672   21.0907 C   0  0  1  0  0  0  0  0  0  0  0  0
   11.6533  -17.8562   19.9211 C   0  0  0  0  0  0  0  0  0  0  0  0
   11.1762  -18.3037   18.5938 C   0  0  0  0  0  0  0  0  0  0  0  0
   12.0494  -18.0134   17.4225 C   0  0  0  0  0  0  0  0  0  0  0  0
   11.4542  -18.5770   16.1276 C   0  0  0  0  0  0  0  0  0  0  0  0
   12.3412  -18.2852   14.9948 N   0  0  0  0  0  0  0  0  0  0  0  0
   10.4991  -16.9899   21.9251 C   0  0  0  0  0  0  0  0  0  0  0  0
   11.5268  -16.4140   22.4486 O   0  0  0  0  0  0  0  0  0  0  0  0
    9.2602  -16.4434   22.1987 N   0  0  0  0  0  0  0  0  0  0  0  0
    9.0959  -15.1989   22.9884 C   0  0  1  0  0  0  0  0  0  0  0  0
    8.0461  -14.4205   22.2324 C   0  0  0  0  0  0  0  0  0  0  0  0
    8.3727  -14.1769   20.8093 C   0  0  0  0  0  0  0  0  0  0  0  0
    7.3116  -13.4499   20.0234 C   0  0  0  0  0  0  0  0  0  0  0  0
    7.5763  -13.2686   18.5767 C   0  0  0  0  0  0  0  0  0  0  0  0
    6.5536  -12.6223   17.8130 N   0  0  0  0  0  0  0  0  0  0  0  0
    8.7436  -15.5323   24.3782 C   0  0  0  0  0  0  0  0  0  0  0  0
    8.5996  -14.5732   25.2056 O   0  0  0  0  0  0  0  0  0  0  0  0
    7.6014  -19.4257   25.8610 O   0  0  0  0  0  0  0  0  0  0  0  0
    7.1593  -18.2208   26.3396 C   0  0  0  0  0  0  0  0  0  0  0  0
    8.1755  -17.1116   26.2569 C   0  0  2  0  0  0  0  0  0  0  0  0
    8.5440  -16.8182   24.8867 N   0  0  0  0  0  0  0  0  0  0  0  0
    9.3445  -17.3211   27.1290 C   0  0  0  0  0  0  0  0  0  0  0  0
    9.1910  -17.4895   28.4887 O   0  0  0  0  0  0  0  0  0  0  0  0
   10.4903  -17.3479   26.6368 O   0  0  0  0  0  0  0  0  0  0  0  0
  2  1  1  6
  2  3  1  0
  3  4  1  0
  5  6  1  0
  5  4  1  0
  7  6  1  0
  8  2  1  0
  9  8  2  0
 10  8  1  0
 11 10  1  0
 11 12  1  6
 12 13  1  0
 14 15  1  0
 14 13  1  0
 16 15  1  0
 17 11  1  0
 18 17  2  0
 19 20  1  0
 21 20  1  6
 21 23  1  0
 21 22  1  0
 22 17  1  0
 23 24  1  0
 25 23  2  0
M  END
$$$$
