KKS.pdb
     RDKit          3D

 25 24  0  0  1  0  0  0  0  0999 V2000
    6.0038  -20.1224   17.5219 N   0  0  0  0  0  0  0  0  0  0  0  0
    7.3927  -19.9317   17.4016 C   0  0  1  0  0  0  0  0  0  0  0  0
    7.6799  -18.6658   16.6136 C   0  0  0  0  0  0  0  0  0  0  0  0
    6.9707  -18.5388   15.3212 C   0  0  0  0  0  0  0  0  0  0  0  0
    7.3488  -17.3942   14.4461 C   0  0  0  0  0  0  0  0  0  0  0  0
    6.6356  -17.4659   13.0916 C   0  0  0  0  0  0  0  0  0  0  0  0
    7.0930  -16.3758   12.2212 N   0  0  0  0  0  0  0  0  0  0  0  0
    8.1689  -19.9907   18.6395 C   0  0  0  0  0  0  0  0  0  0  0  0
    7.6178  -19.5319   19.7109 O   0  0  0  0  0  0  0  0  0  0  0  0
    9.4482  -20.4992   18.7545 N   0  0  0  0  0  0  0  0  0  0  0  0
   10.1439  -20.6169   20.0589 C   0  0  1  0  0  0  0  0  0  0  0  0
   10.9916  -21.8576   19.9120 C   0  0  0  0  0  0  0  0  0  0  0  0
   10.2459  -23.1280   20.0584 C   0  0  0  0  0  0  0  0  0  0  0  0
   11.0799  -24.3781   19.9406 C   0  0  0  0  0  0  0  0  0  0  0  0
   10.3712  -25.6615   20.1563 C   0  0  0  0  0  0  0  0  0  0  0  0
   11.1761  -26.8441   20.1745 N   0  0  0  0  0  0  0  0  0  0  0  0
   10.8925  -19.3807   20.3388 C   0  0  0  0  0  0  0  0  0  0  0  0
   11.5424  -18.8450   19.3818 O   0  0  0  0  0  0  0  0  0  0  0  0
    9.6896  -16.6431   22.7032 O   0  0  0  0  0  0  0  0  0  0  0  0
   11.0571  -16.5868   22.7611 C   0  0  0  0  0  0  0  0  0  0  0  0
   11.7558  -17.5425   21.8293 C   0  0  2  0  0  0  0  0  0  0  0  0
   10.9581  -18.7238   21.5701 N   0  0  0  0  0  0  0  0  0  0  0  0
   13.1327  -17.8642   22.2438 C   0  0  0  0  0  0  0  0  0  0  0  0
   13.5236  -19.1711   22.4438 O   0  0  0  0  0  0  0  0  0  0  0  0
   13.9599  -16.9469   22.4170 O   0  0  0  0  0  0  0  0  0  0  0  0
  2  1  1  1
  2  3  1  0
  3  4  1  0
  5  6  1  0
  5  4  1  0
  7  6  1  0
  8  2  1  0
  9  8  2  0
 10  8  1  0
 11 10  1  0
 11 12  1  6
 12 13  1  0
 14 15  1  0
 14 13  1  0
 16 15  1  0
 17 11  1  0
 18 17  2  0
 19 20  1  0
 21 20  1  1
 21 23  1  0
 21 22  1  0
 22 17  1  0
 23 24  1  0
 25 23  2  0
M  END
$$$$
