KKS.pdb
     RDKit          3D

 25 24  0  0  1  0  0  0  0  0999 V2000
    5.5118  -20.4880   20.3532 N   0  0  0  0  0  0  0  0  0  0  0  0
    5.6598  -19.5073   21.3513 C   0  0  1  0  0  0  0  0  0  0  0  0
    5.2682  -20.0755   22.7040 C   0  0  0  0  0  0  0  0  0  0  0  0
    6.0623  -21.2345   23.1683 C   0  0  0  0  0  0  0  0  0  0  0  0
    5.6123  -21.9132   24.4156 C   0  0  0  0  0  0  0  0  0  0  0  0
    6.4688  -23.1465   24.7219 C   0  0  0  0  0  0  0  0  0  0  0  0
    6.0702  -23.7319   26.0078 N   0  0  0  0  0  0  0  0  0  0  0  0
    6.9483  -18.8178   21.4025 C   0  0  0  0  0  0  0  0  0  0  0  0
    8.0018  -19.5011   21.1109 O   0  0  0  0  0  0  0  0  0  0  0  0
    7.1288  -17.4902   21.7389 N   0  0  0  0  0  0  0  0  0  0  0  0
    8.4644  -16.8457   21.7480 C   0  0  1  0  0  0  0  0  0  0  0  0
    8.1637  -15.3758   21.5790 C   0  0  0  0  0  0  0  0  0  0  0  0
    8.1913  -14.9038   20.1762 C   0  0  0  0  0  0  0  0  0  0  0  0
    7.8466  -13.4493   19.9823 C   0  0  0  0  0  0  0  0  0  0  0  0
    7.7654  -12.9761   18.5804 C   0  0  0  0  0  0  0  0  0  0  0  0
    7.3558  -11.6196   18.3833 N   0  0  0  0  0  0  0  0  0  0  0  0
    9.1798  -17.1967   22.9858 C   0  0  0  0  0  0  0  0  0  0  0  0
    8.5633  -17.0583   24.0930 O   0  0  0  0  0  0  0  0  0  0  0  0
   12.8553  -19.4052   23.2327 O   0  0  0  0  0  0  0  0  0  0  0  0
   11.8486  -19.3954   24.1615 C   0  0  0  0  0  0  0  0  0  0  0  0
   11.1450  -18.0702   24.2976 C   0  0  2  0  0  0  0  0  0  0  0  0
   10.4886  -17.6786   23.0668 N   0  0  0  0  0  0  0  0  0  0  0  0
   12.0010  -17.0059   24.8505 C   0  0  0  0  0  0  0  0  0  0  0  0
   12.5802  -17.1393   26.0945 O   0  0  0  0  0  0  0  0  0  0  0  0
   12.2084  -15.9688   24.1893 O   0  0  0  0  0  0  0  0  0  0  0  0
  2  1  1  6
  2  3  1  0
  3  4  1  0
  5  6  1  0
  5  4  1  0
  7  6  1  0
  8  2  1  0
  9  8  2  0
 10  8  1  0
 11 10  1  0
 11 12  1  1
 12 13  1  0
 14 15  1  0
 14 13  1  0
 16 15  1  0
 17 11  1  0
 18 17  2  0
 19 20  1  0
 21 20  1  6
 21 23  1  0
 21 22  1  0
 22 17  1  0
 23 24  1  0
 25 23  2  0
M  END
$$$$
