KKS.pdb
     RDKit          3D

 25 24  0  0  1  0  0  0  0  0999 V2000
    8.8048  -18.9853   16.7908 N   0  0  0  0  0  0  0  0  0  0  0  0
    9.0077  -19.4674   18.0971 C   0  0  1  0  0  0  0  0  0  0  0  0
    9.6880  -20.8243   18.0533 C   0  0  0  0  0  0  0  0  0  0  0  0
    9.9948  -21.3460   16.7031 C   0  0  0  0  0  0  0  0  0  0  0  0
   10.5251  -22.7351   16.6135 C   0  0  0  0  0  0  0  0  0  0  0  0
   10.8078  -23.1336   15.1609 C   0  0  0  0  0  0  0  0  0  0  0  0
   11.3498  -24.4969   15.1072 N   0  0  0  0  0  0  0  0  0  0  0  0
    9.6666  -18.5576   19.0333 C   0  0  0  0  0  0  0  0  0  0  0  0
   10.8708  -18.1887   18.7580 O   0  0  0  0  0  0  0  0  0  0  0  0
    9.1021  -18.0601   20.1918 N   0  0  0  0  0  0  0  0  0  0  0  0
    9.7827  -17.0515   21.0396 C   0  0  1  0  0  0  0  0  0  0  0  0
    8.7597  -15.9520   21.1947 C   0  0  0  0  0  0  0  0  0  0  0  0
    8.6880  -15.0179   20.0485 C   0  0  0  0  0  0  0  0  0  0  0  0
    7.6024  -13.9760   20.1376 C   0  0  0  0  0  0  0  0  0  0  0  0
    7.5401  -12.9976   19.0265 C   0  0  0  0  0  0  0  0  0  0  0  0
    6.4165  -12.1122   19.0128 N   0  0  0  0  0  0  0  0  0  0  0  0
   10.2242  -17.6736   22.2986 C   0  0  0  0  0  0  0  0  0  0  0  0
    9.4342  -18.4955   22.8692 O   0  0  0  0  0  0  0  0  0  0  0  0
   14.0672  -18.4822   23.2545 O   0  0  0  0  0  0  0  0  0  0  0  0
   13.3567  -18.0556   24.3451 C   0  0  0  0  0  0  0  0  0  0  0  0
   11.8615  -18.0992   24.1652 C   0  0  2  0  0  0  0  0  0  0  0  0
   11.4464  -17.4508   22.9379 N   0  0  0  0  0  0  0  0  0  0  0  0
   11.1151  -17.6218   25.3425 C   0  0  0  0  0  0  0  0  0  0  0  0
   11.3163  -18.1868   26.5839 O   0  0  0  0  0  0  0  0  0  0  0  0
   10.2895  -16.6947   25.2211 O   0  0  0  0  0  0  0  0  0  0  0  0
  2  1  1  6
  2  3  1  0
  3  4  1  0
  5  6  1  0
  5  4  1  0
  7  6  1  0
  8  2  1  0
  9  8  2  0
 10  8  1  0
 11 10  1  0
 11 12  1  1
 12 13  1  0
 14 15  1  0
 14 13  1  0
 16 15  1  0
 17 11  1  0
 18 17  2  0
 19 20  1  0
 21 20  1  1
 21 23  1  0
 21 22  1  0
 22 17  1  0
 23 24  1  0
 25 23  2  0
M  END
$$$$
