KKS.pdb
     RDKit          3D

 25 24  0  0  1  0  0  0  0  0999 V2000
    9.1439  -20.0504   17.7531 N   0  0  0  0  0  0  0  0  0  0  0  0
    8.4384  -19.6361   18.8979 C   0  0  1  0  0  0  0  0  0  0  0  0
    7.7579  -20.8261   19.5511 C   0  0  0  0  0  0  0  0  0  0  0  0
    8.6596  -21.8883   20.0491 C   0  0  0  0  0  0  0  0  0  0  0  0
    8.0319  -23.0378   20.7587 C   0  0  0  0  0  0  0  0  0  0  0  0
    9.0876  -24.0254   21.2674 C   0  0  0  0  0  0  0  0  0  0  0  0
    8.4380  -25.1603   21.9346 N   0  0  0  0  0  0  0  0  0  0  0  0
    9.1825  -18.8340   19.8681 C   0  0  0  0  0  0  0  0  0  0  0  0
   10.4347  -19.0977   20.0239 O   0  0  0  0  0  0  0  0  0  0  0  0
    8.6512  -17.8139   20.6333 N   0  0  0  0  0  0  0  0  0  0  0  0
    9.4675  -17.0284   21.5903 C   0  0  1  0  0  0  0  0  0  0  0  0
    8.7131  -15.7287   21.7357 C   0  0  0  0  0  0  0  0  0  0  0  0
    8.7673  -14.8539   20.5428 C   0  0  0  0  0  0  0  0  0  0  0  0
    7.9847  -13.5704   20.6529 C   0  0  0  0  0  0  0  0  0  0  0  0
    8.0111  -12.6827   19.4667 C   0  0  0  0  0  0  0  0  0  0  0  0
    7.1833  -11.5170   19.5185 N   0  0  0  0  0  0  0  0  0  0  0  0
    9.6438  -17.7892   22.8381 C   0  0  0  0  0  0  0  0  0  0  0  0
    8.5978  -18.1703   23.4594 O   0  0  0  0  0  0  0  0  0  0  0  0
   12.4257  -20.6045   23.5748 O   0  0  0  0  0  0  0  0  0  0  0  0
   11.2767  -20.3937   24.2902 C   0  0  0  0  0  0  0  0  0  0  0  0
   11.0054  -18.9473   24.6131 C   0  0  2  0  0  0  0  0  0  0  0  0
   10.8655  -18.1439   23.4156 N   0  0  0  0  0  0  0  0  0  0  0  0
   11.9606  -18.3725   25.5766 C   0  0  0  0  0  0  0  0  0  0  0  0
   12.6564  -17.2197   25.2802 O   0  0  0  0  0  0  0  0  0  0  0  0
   12.1462  -18.9311   26.6763 O   0  0  0  0  0  0  0  0  0  0  0  0
  2  1  1  6
  2  3  1  0
  3  4  1  0
  5  6  1  0
  5  4  1  0
  7  6  1  0
  8  2  1  0
  9  8  2  0
 10  8  1  0
 11 10  1  0
 11 12  1  1
 12 13  1  0
 14 15  1  0
 14 13  1  0
 16 15  1  0
 17 11  1  0
 18 17  2  0
 19 20  1  0
 21 20  1  6
 21 23  1  0
 21 22  1  0
 22 17  1  0
 23 24  1  0
 25 23  2  0
M  END
$$$$
