KKS.pdb
     RDKit          3D

 25 24  0  0  1  0  0  0  0  0999 V2000
    4.5393  -20.2162   21.7048 N   0  0  0  0  0  0  0  0  0  0  0  0
    5.3106  -19.5675   22.6868 C   0  0  1  0  0  0  0  0  0  0  0  0
    5.9030  -20.5871   23.6435 C   0  0  0  0  0  0  0  0  0  0  0  0
    5.1355  -21.8424   23.8008 C   0  0  0  0  0  0  0  0  0  0  0  0
    5.6176  -22.8124   24.8233 C   0  0  0  0  0  0  0  0  0  0  0  0
    4.7882  -24.1009   24.8072 C   0  0  0  0  0  0  0  0  0  0  0  0
    4.0518  -24.2436   26.0692 N   0  0  0  0  0  0  0  0  0  0  0  0
    6.3174  -18.6221   22.2064 C   0  0  0  0  0  0  0  0  0  0  0  0
    7.1699  -19.0492   21.3387 O   0  0  0  0  0  0  0  0  0  0  0  0
    6.4296  -17.3051   22.6078 N   0  0  0  0  0  0  0  0  0  0  0  0
    7.4685  -16.3942   22.0688 C   0  0  1  0  0  0  0  0  0  0  0  0
    6.8995  -15.0141   22.2948 C   0  0  0  0  0  0  0  0  0  0  0  0
    7.7389  -13.9136   21.7697 C   0  0  0  0  0  0  0  0  0  0  0  0
    7.7712  -13.7925   20.2676 C   0  0  0  0  0  0  0  0  0  0  0  0
    8.5693  -12.6718   19.7173 C   0  0  0  0  0  0  0  0  0  0  0  0
    8.5571  -12.5123   18.2957 N   0  0  0  0  0  0  0  0  0  0  0  0
    8.7550  -16.6542   22.7352 C   0  0  0  0  0  0  0  0  0  0  0  0
    8.7516  -16.8195   23.9993 O   0  0  0  0  0  0  0  0  0  0  0  0
   12.6741  -16.0399   21.1365 O   0  0  0  0  0  0  0  0  0  0  0  0
   12.3886  -17.1948   21.8155 C   0  0  0  0  0  0  0  0  0  0  0  0
   11.2381  -17.0766   22.7810 C   0  0  2  0  0  0  0  0  0  0  0  0
    9.9997  -16.7432   22.1069 N   0  0  0  0  0  0  0  0  0  0  0  0
   11.5207  -16.1912   23.9244 C   0  0  0  0  0  0  0  0  0  0  0  0
   12.5891  -16.4359   24.7608 O   0  0  0  0  0  0  0  0  0  0  0  0
   10.7880  -15.2058   24.1434 O   0  0  0  0  0  0  0  0  0  0  0  0
  2  1  1  6
  2  3  1  0
  3  4  1  0
  5  6  1  0
  5  4  1  0
  7  6  1  0
  8  2  1  0
  9  8  2  0
 10  8  1  0
 11 10  1  0
 11 12  1  1
 12 13  1  0
 14 15  1  0
 14 13  1  0
 16 15  1  0
 17 11  1  0
 18 17  2  0
 19 20  1  0
 21 20  1  6
 21 23  1  0
 21 22  1  0
 22 17  1  0
 23 24  1  0
 25 23  2  0
M  END
$$$$
