KKS.pdb
     RDKit          3D

 25 24  0  0  1  0  0  0  0  0999 V2000
   11.1388  -18.5421   14.5293 N   0  0  0  0  0  0  0  0  0  0  0  0
   10.9089  -18.9143   15.8667 C   0  0  1  0  0  0  0  0  0  0  0  0
   11.6172  -20.2219   16.1741 C   0  0  0  0  0  0  0  0  0  0  0  0
   10.7488  -21.3334   16.6211 C   0  0  0  0  0  0  0  0  0  0  0  0
   11.4149  -22.6159   16.9819 C   0  0  0  0  0  0  0  0  0  0  0  0
   10.4036  -23.6468   17.4949 C   0  0  0  0  0  0  0  0  0  0  0  0
   11.0835  -24.9101   17.8065 N   0  0  0  0  0  0  0  0  0  0  0  0
   11.1777  -17.8973   16.8825 C   0  0  0  0  0  0  0  0  0  0  0  0
   12.3966  -17.5012   17.0211 O   0  0  0  0  0  0  0  0  0  0  0  0
   10.2291  -17.3250   17.7077 N   0  0  0  0  0  0  0  0  0  0  0  0
   10.5592  -16.2499   18.6743 C   0  0  1  0  0  0  0  0  0  0  0  0
    9.2866  -15.4439   18.7756 C   0  0  0  0  0  0  0  0  0  0  0  0
    9.3635  -14.2945   19.7052 C   0  0  0  0  0  0  0  0  0  0  0  0
    8.1227  -13.4414   19.7740 C   0  0  0  0  0  0  0  0  0  0  0  0
    8.1482  -12.3246   20.7475 C   0  0  0  0  0  0  0  0  0  0  0  0
    6.9987  -11.4735   20.7786 N   0  0  0  0  0  0  0  0  0  0  0  0
   11.0241  -16.8415   19.9396 C   0  0  0  0  0  0  0  0  0  0  0  0
   10.4148  -17.8720   20.3778 O   0  0  0  0  0  0  0  0  0  0  0  0
   14.5649  -15.6884   22.1821 O   0  0  0  0  0  0  0  0  0  0  0  0
   14.0737  -16.9579   22.0284 C   0  0  0  0  0  0  0  0  0  0  0  0
   12.5731  -17.0315   21.9171 C   0  0  2  0  0  0  0  0  0  0  0  0
   12.0880  -16.3788   20.7180 N   0  0  0  0  0  0  0  0  0  0  0  0
   11.8722  -16.5832   23.1332 C   0  0  0  0  0  0  0  0  0  0  0  0
   10.8919  -15.6159   23.0682 O   0  0  0  0  0  0  0  0  0  0  0  0
   12.1648  -17.0816   24.2385 O   0  0  0  0  0  0  0  0  0  0  0  0
  2  1  1  6
  2  3  1  0
  3  4  1  0
  5  6  1  0
  5  4  1  0
  7  6  1  0
  8  2  1  0
  9  8  2  0
 10  8  1  0
 11 10  1  0
 11 12  1  1
 12 13  1  0
 14 15  1  0
 14 13  1  0
 16 15  1  0
 17 11  1  0
 18 17  2  0
 19 20  1  0
 21 20  1  1
 21 23  1  0
 21 22  1  0
 22 17  1  0
 23 24  1  0
 25 23  2  0
M  END
$$$$
