KKS.pdb
     RDKit          3D

 25 24  0  0  1  0  0  0  0  0999 V2000
    6.5047  -15.4460   20.8553 N   0  0  0  0  0  0  0  0  0  0  0  0
    7.8220  -14.9602   20.7636 C   0  0  1  0  0  0  0  0  0  0  0  0
    7.8442  -13.6533   19.9906 C   0  0  0  0  0  0  0  0  0  0  0  0
    7.4544  -13.7428   18.5660 C   0  0  0  0  0  0  0  0  0  0  0  0
    8.5009  -13.4328   17.5523 C   0  0  0  0  0  0  0  0  0  0  0  0
    7.9290  -13.4616   16.1308 C   0  0  0  0  0  0  0  0  0  0  0  0
    8.9732  -13.1146   15.1589 N   0  0  0  0  0  0  0  0  0  0  0  0
    8.5710  -14.8650   22.0160 C   0  0  0  0  0  0  0  0  0  0  0  0
    8.9788  -13.6972   22.3791 O   0  0  0  0  0  0  0  0  0  0  0  0
    8.8779  -15.9276   22.8436 N   0  0  0  0  0  0  0  0  0  0  0  0
    9.7098  -15.7736   24.0617 C   0  0  1  0  0  0  0  0  0  0  0  0
    8.7147  -15.8337   25.1956 C   0  0  0  0  0  0  0  0  0  0  0  0
    9.3214  -15.7772   26.5447 C   0  0  0  0  0  0  0  0  0  0  0  0
    9.2773  -14.4260   27.2114 C   0  0  0  0  0  0  0  0  0  0  0  0
    9.8262  -14.3550   28.5859 C   0  0  0  0  0  0  0  0  0  0  0  0
    9.6460  -13.1206   29.2863 N   0  0  0  0  0  0  0  0  0  0  0  0
   10.7504  -16.8143   24.0905 C   0  0  0  0  0  0  0  0  0  0  0  0
   10.4586  -17.9380   24.6173 O   0  0  0  0  0  0  0  0  0  0  0  0
   14.7666  -15.3832   23.6753 O   0  0  0  0  0  0  0  0  0  0  0  0
   14.1236  -16.0266   24.6995 C   0  0  0  0  0  0  0  0  0  0  0  0
   13.2396  -17.1637   24.2578 C   0  0  2  0  0  0  0  0  0  0  0  0
   12.0470  -16.6904   23.5849 N   0  0  0  0  0  0  0  0  0  0  0  0
   12.9432  -18.1275   25.3322 C   0  0  0  0  0  0  0  0  0  0  0  0
   12.1829  -17.7596   26.4219 O   0  0  0  0  0  0  0  0  0  0  0  0
   13.3825  -19.2926   25.2606 O   0  0  0  0  0  0  0  0  0  0  0  0
  2  1  1  1
  2  3  1  0
  3  4  1  0
  5  6  1  0
  5  4  1  0
  7  6  1  0
  8  2  1  0
  9  8  2  0
 10  8  1  0
 11 10  1  0
 11 12  1  1
 12 13  1  0
 14 15  1  0
 14 13  1  0
 16 15  1  0
 17 11  1  0
 18 17  2  0
 19 20  1  0
 21 20  1  1
 21 23  1  0
 21 22  1  0
 22 17  1  0
 23 24  1  0
 25 23  2  0
M  END
$$$$
