KMH.pdb
     RDKit          3D

 28 28  0  0  1  0  0  0  0  0999 V2000
   18.4783  -14.4939  -15.5727 N   0  0  0  0  0  0  0  0  0  0  0  0
   18.9912  -13.7048  -16.6538 C   0  0  1  0  0  0  0  0  0  0  0  0
   17.9130  -13.0843  -17.4922 C   0  0  0  0  0  0  0  0  0  0  0  0
   16.8692  -14.0332  -17.9382 C   0  0  0  0  0  0  0  0  0  0  0  0
   17.1993  -14.8022  -19.1726 C   0  0  0  0  0  0  0  0  0  0  0  0
   16.0071  -15.6701  -19.6096 C   0  0  0  0  0  0  0  0  0  0  0  0
   16.4784  -16.5205  -20.6784 N   0  0  0  0  0  0  0  0  0  0  0  0
   19.9716  -12.6689  -16.1951 C   0  0  0  0  0  0  0  0  0  0  0  0
   19.7449  -12.0187  -15.1415 O   0  0  0  0  0  0  0  0  0  0  0  0
   26.3330   -9.5838  -14.7219 C   0  0  0  0  0  0  0  0  0  0  0  0
   25.1322  -10.8264  -15.2023 S   0  0  0  0  0  0  0  0  0  0  0  0
   24.4053  -10.4721  -16.8628 C   0  0  0  0  0  0  0  0  0  0  0  0
   23.3960  -11.5321  -17.2065 C   0  0  0  0  0  0  0  0  0  0  0  0
   22.0515  -11.3385  -16.4782 C   0  0  2  0  0  0  0  0  0  0  0  0
   21.1524  -12.4145  -16.9324 N   0  0  0  0  0  0  0  0  0  0  0  0
   21.5370  -10.0263  -16.8165 C   0  0  0  0  0  0  0  0  0  0  0  0
   21.2380   -9.7960  -18.0453 O   0  0  0  0  0  0  0  0  0  0  0  0
   21.3158   -8.9451  -15.9558 N   0  0  0  0  0  0  0  0  0  0  0  0
   20.8330   -7.6525  -16.4820 C   0  0  1  0  0  0  0  0  0  0  0  0
   19.8916   -7.0251  -15.4780 C   0  0  0  0  0  0  0  0  0  0  0  0
   19.4168   -5.7279  -15.9984 C   0  0  0  0  0  0  0  0  0  0  0  0
   18.6030   -5.4614  -17.0711 C   0  0  0  0  0  0  0  0  0  0  0  0
   18.4471   -4.1124  -17.2064 N   0  0  0  0  0  0  0  0  0  0  0  0
   19.1573   -3.5413  -16.2279 C   0  0  0  0  0  0  0  0  0  0  0  0
   19.7405   -4.5005  -15.5009 N   0  0  0  0  0  0  0  0  0  0  0  0
   22.0212   -6.8009  -16.6338 C   0  0  0  0  0  0  0  0  0  0  0  0
   23.0328   -6.7992  -15.6958 O   0  0  0  0  0  0  0  0  0  0  0  0
   22.1270   -6.0576  -17.6272 O   0  0  0  0  0  0  0  0  0  0  0  0
  2  1  1  1
  2  3  1  0
  3  4  1  0
  4  5  1  0
  5  6  1  0
  7  6  1  0
  8  9  2  0
  8  2  1  0
 11 10  1  0
 11 12  1  0
 12 13  1  0
 14 13  1  6
 14 15  1  0
 15  8  1  0
 16 18  1  0
 16 14  1  0
 17 16  2  0
 19 18  1  0
 19 26  1  0
 19 20  1  1
 21 20  1  0
 22 21  2  0
 23 24  1  0
 23 22  1  0
 24 25  2  0
 25 21  1  0
 26 28  2  0
 26 27  1  0
M  END
$$$$
