KMH.pdb
     RDKit          3D

 28 28  0  0  1  0  0  0  0  0999 V2000
   18.6973  -14.5424  -17.2375 N   0  0  0  0  0  0  0  0  0  0  0  0
   19.3862  -13.5090  -17.9530 C   0  0  1  0  0  0  0  0  0  0  0  0
   18.5186  -12.8103  -18.9577 C   0  0  0  0  0  0  0  0  0  0  0  0
   17.4005  -13.6326  -19.4701 C   0  0  0  0  0  0  0  0  0  0  0  0
   17.4179  -13.8775  -20.9411 C   0  0  0  0  0  0  0  0  0  0  0  0
   16.1514  -14.6295  -21.3838 C   0  0  0  0  0  0  0  0  0  0  0  0
   16.2481  -14.8054  -22.8147 N   0  0  0  0  0  0  0  0  0  0  0  0
   20.0470  -12.5206  -17.0412 C   0  0  0  0  0  0  0  0  0  0  0  0
   19.4976  -12.2132  -15.9513 O   0  0  0  0  0  0  0  0  0  0  0  0
   26.8427   -9.4083  -14.6119 C   0  0  0  0  0  0  0  0  0  0  0  0
   25.9018  -10.5577  -15.6173 S   0  0  0  0  0  0  0  0  0  0  0  0
   24.1550  -10.0016  -15.8419 C   0  0  0  0  0  0  0  0  0  0  0  0
   23.4121  -11.0038  -16.6810 C   0  0  0  0  0  0  0  0  0  0  0  0
   21.8866  -10.9514  -16.4673 C   0  0  2  0  0  0  0  0  0  0  0  0
   21.2846  -11.9300  -17.3905 N   0  0  0  0  0  0  0  0  0  0  0  0
   21.4360   -9.6015  -16.7425 C   0  0  0  0  0  0  0  0  0  0  0  0
   21.5053   -9.1797  -17.9547 O   0  0  0  0  0  0  0  0  0  0  0  0
   20.9196   -8.6694  -15.8352 N   0  0  0  0  0  0  0  0  0  0  0  0
   20.5331   -7.3171  -16.2857 C   0  0  1  0  0  0  0  0  0  0  0  0
   19.1368   -7.0070  -15.7933 C   0  0  0  0  0  0  0  0  0  0  0  0
   18.7941   -5.6145  -16.1427 C   0  0  0  0  0  0  0  0  0  0  0  0
   19.1161   -4.8897  -17.2631 C   0  0  0  0  0  0  0  0  0  0  0  0
   18.6130   -3.6259  -17.1538 N   0  0  0  0  0  0  0  0  0  0  0  0
   17.9831   -3.5612  -15.9761 C   0  0  0  0  0  0  0  0  0  0  0  0
   18.0867   -4.7463  -15.3650 N   0  0  0  0  0  0  0  0  0  0  0  0
   21.4866   -6.3883  -15.6628 C   0  0  0  0  0  0  0  0  0  0  0  0
   21.4219   -5.0287  -15.8874 O   0  0  0  0  0  0  0  0  0  0  0  0
   22.3798   -6.8277  -14.9146 O   0  0  0  0  0  0  0  0  0  0  0  0
  2  1  1  1
  2  3  1  0
  3  4  1  0
  4  5  1  0
  5  6  1  0
  7  6  1  0
  8  9  2  0
  8  2  1  0
 11 10  1  0
 11 12  1  0
 12 13  1  0
 14 13  1  6
 14 15  1  0
 15  8  1  0
 16 18  1  0
 16 14  1  0
 17 16  2  0
 19 18  1  0
 19 26  1  0
 19 20  1  1
 21 20  1  0
 22 21  2  0
 23 24  1  0
 23 22  1  0
 24 25  2  0
 25 21  1  0
 26 28  2  0
 26 27  1  0
M  END
$$$$
