KMH.pdb
     RDKit          3D

 28 28  0  0  1  0  0  0  0  0999 V2000
   19.9961  -22.7170  -14.0290 N   0  0  0  0  0  0  0  0  0  0  0  0
   19.9688  -21.3163  -13.7260 C   0  0  1  0  0  0  0  0  0  0  0  0
   18.9396  -20.9574  -12.6954 C   0  0  0  0  0  0  0  0  0  0  0  0
   17.6786  -21.7235  -12.8044 C   0  0  0  0  0  0  0  0  0  0  0  0
   17.6346  -22.9853  -12.0106 C   0  0  0  0  0  0  0  0  0  0  0  0
   17.4362  -22.6825  -10.5158 C   0  0  0  0  0  0  0  0  0  0  0  0
   17.3734  -23.9559   -9.8359 N   0  0  0  0  0  0  0  0  0  0  0  0
   21.3157  -20.7848  -13.3410 C   0  0  0  0  0  0  0  0  0  0  0  0
   21.4449  -19.5683  -13.0450 O   0  0  0  0  0  0  0  0  0  0  0  0
   25.0802  -20.3713   -8.8814 C   0  0  0  0  0  0  0  0  0  0  0  0
   26.0858  -21.5383   -9.8001 S   0  0  0  0  0  0  0  0  0  0  0  0
   25.8313  -21.3774  -11.6222 C   0  0  0  0  0  0  0  0  0  0  0  0
   24.4671  -21.8935  -11.9870 C   0  0  0  0  0  0  0  0  0  0  0  0
   23.7724  -21.0408  -13.0668 C   0  0  2  0  0  0  0  0  0  0  0  0
   22.4452  -21.6365  -13.3037 N   0  0  0  0  0  0  0  0  0  0  0  0
   24.5946  -21.0622  -14.2603 C   0  0  0  0  0  0  0  0  0  0  0  0
   24.6493  -22.1560  -14.9334 O   0  0  0  0  0  0  0  0  0  0  0  0
   25.3592  -20.0178  -14.7925 N   0  0  0  0  0  0  0  0  0  0  0  0
   26.0718  -20.1861  -16.0750 C   0  0  1  0  0  0  0  0  0  0  0  0
   26.3737  -18.8245  -16.6607 C   0  0  0  0  0  0  0  0  0  0  0  0
   25.1494  -18.2755  -17.2758 C   0  0  0  0  0  0  0  0  0  0  0  0
   23.9389  -18.8809  -17.5046 C   0  0  0  0  0  0  0  0  0  0  0  0
   23.0964  -18.0049  -18.1252 N   0  0  0  0  0  0  0  0  0  0  0  0
   23.7742  -16.8632  -18.2835 C   0  0  0  0  0  0  0  0  0  0  0  0
   25.0029  -17.0165  -17.7782 N   0  0  0  0  0  0  0  0  0  0  0  0
   27.3331  -20.8703  -15.7575 C   0  0  0  0  0  0  0  0  0  0  0  0
   28.0750  -21.5056  -16.7317 O   0  0  0  0  0  0  0  0  0  0  0  0
   27.7507  -20.8855  -14.5844 O   0  0  0  0  0  0  0  0  0  0  0  0
  2  1  1  1
  2  3  1  0
  3  4  1  0
  4  5  1  0
  5  6  1  0
  7  6  1  0
  8  9  2  0
  8  2  1  0
 11 10  1  0
 11 12  1  0
 12 13  1  0
 14 13  1  1
 14 15  1  0
 15  8  1  0
 16 18  1  0
 16 14  1  0
 17 16  2  0
 19 18  1  0
 19 26  1  0
 19 20  1  1
 21 20  1  0
 22 21  2  0
 23 24  1  0
 23 22  1  0
 24 25  2  0
 25 21  1  0
 26 28  2  0
 26 27  1  0
M  END
$$$$
