KMH.pdb
     RDKit          3D

 28 28  0  0  1  0  0  0  0  0999 V2000
   28.5628  -21.3774  -15.2341 N   0  0  0  0  0  0  0  0  0  0  0  0
   27.2652  -21.7345  -15.7273 C   0  0  1  0  0  0  0  0  0  0  0  0
   27.2844  -22.9491  -16.6076 C   0  0  0  0  0  0  0  0  0  0  0  0
   28.1726  -22.8313  -17.7850 C   0  0  0  0  0  0  0  0  0  0  0  0
   29.6021  -23.1760  -17.5358 C   0  0  0  0  0  0  0  0  0  0  0  0
   30.4317  -23.0246  -18.8220 C   0  0  0  0  0  0  0  0  0  0  0  0
   31.8148  -23.2213  -18.4531 N   0  0  0  0  0  0  0  0  0  0  0  0
   26.2554  -21.8873  -14.6312 C   0  0  0  0  0  0  0  0  0  0  0  0
   25.2121  -22.5617  -14.8337 O   0  0  0  0  0  0  0  0  0  0  0  0
   27.5727  -19.8602   -8.6318 C   0  0  0  0  0  0  0  0  0  0  0  0
   25.8814  -20.3719   -8.3243 S   0  0  0  0  0  0  0  0  0  0  0  0
   25.0728  -21.0217   -9.8524 C   0  0  0  0  0  0  0  0  0  0  0  0
   26.0213  -20.9024  -11.0128 C   0  0  0  0  0  0  0  0  0  0  0  0
   25.4317  -21.4489  -12.3279 C   0  0  2  0  0  0  0  0  0  0  0  0
   26.4626  -21.2837  -13.3681 N   0  0  0  0  0  0  0  0  0  0  0  0
   24.2308  -20.6970  -12.6337 C   0  0  0  0  0  0  0  0  0  0  0  0
   24.3507  -19.4368  -12.8570 O   0  0  0  0  0  0  0  0  0  0  0  0
   22.9189  -21.1767  -12.7209 N   0  0  0  0  0  0  0  0  0  0  0  0
   21.8006  -20.2573  -13.0124 C   0  0  1  0  0  0  0  0  0  0  0  0
   21.2340  -20.5775  -14.3779 C   0  0  0  0  0  0  0  0  0  0  0  0
   20.0452  -19.7374  -14.6223 C   0  0  0  0  0  0  0  0  0  0  0  0
   18.8313  -19.7329  -13.9814 C   0  0  0  0  0  0  0  0  0  0  0  0
   18.0107  -18.8067  -14.5570 N   0  0  0  0  0  0  0  0  0  0  0  0
   18.7049  -18.2385  -15.5485 C   0  0  0  0  0  0  0  0  0  0  0  0
   19.9227  -18.7894  -15.5944 N   0  0  0  0  0  0  0  0  0  0  0  0
   20.7786  -20.5156  -11.9883 C   0  0  0  0  0  0  0  0  0  0  0  0
   20.5953  -21.7734  -11.4524 O   0  0  0  0  0  0  0  0  0  0  0  0
   20.0537  -19.5851  -11.5889 O   0  0  0  0  0  0  0  0  0  0  0  0
  2  1  1  1
  2  3  1  0
  3  4  1  0
  4  5  1  0
  5  6  1  0
  7  6  1  0
  8  9  2  0
  8  2  1  0
 11 10  1  0
 11 12  1  0
 12 13  1  0
 14 13  1  1
 14 15  1  0
 15  8  1  0
 16 18  1  0
 16 14  1  0
 17 16  2  0
 19 18  1  0
 19 26  1  0
 19 20  1  6
 21 20  1  0
 22 21  2  0
 23 24  1  0
 23 22  1  0
 24 25  2  0
 25 21  1  0
 26 28  2  0
 26 27  1  0
M  END
$$$$
