KMH.pdb
     RDKit          3D

 28 28  0  0  1  0  0  0  0  0999 V2000
   21.6956  -18.0750  -16.4836 N   0  0  0  0  0  0  0  0  0  0  0  0
   21.4826  -16.7805  -17.0612 C   0  0  1  0  0  0  0  0  0  0  0  0
   20.0585  -16.5461  -17.4704 C   0  0  0  0  0  0  0  0  0  0  0  0
   19.4907  -17.6094  -18.3282 C   0  0  0  0  0  0  0  0  0  0  0  0
   18.3107  -18.3203  -17.7568 C   0  0  0  0  0  0  0  0  0  0  0  0
   17.7692  -19.3632  -18.7492 C   0  0  0  0  0  0  0  0  0  0  0  0
   16.7919  -20.1520  -18.0349 N   0  0  0  0  0  0  0  0  0  0  0  0
   21.9737  -15.6709  -16.1825 C   0  0  0  0  0  0  0  0  0  0  0  0
   21.9907  -15.8253  -14.9334 O   0  0  0  0  0  0  0  0  0  0  0  0
   27.8031  -10.9438  -14.7398 C   0  0  0  0  0  0  0  0  0  0  0  0
   26.9417  -12.1972  -15.6907 S   0  0  0  0  0  0  0  0  0  0  0  0
   25.1365  -12.2327  -15.3024 C   0  0  0  0  0  0  0  0  0  0  0  0
   24.4642  -13.2904  -16.1329 C   0  0  0  0  0  0  0  0  0  0  0  0
   22.9559  -13.4139  -15.8402 C   0  0  2  0  0  0  0  0  0  0  0  0
   22.4218  -14.4505  -16.7416 N   0  0  0  0  0  0  0  0  0  0  0  0
   22.3406  -12.1231  -16.0773 C   0  0  0  0  0  0  0  0  0  0  0  0
   22.2229  -11.7274  -17.2946 O   0  0  0  0  0  0  0  0  0  0  0  0
   21.8425  -11.2243  -15.1271 N   0  0  0  0  0  0  0  0  0  0  0  0
   21.2325   -9.9471  -15.5484 C   0  0  1  0  0  0  0  0  0  0  0  0
   20.1827   -9.5384  -14.5389 C   0  0  0  0  0  0  0  0  0  0  0  0
   19.5688   -8.2643  -14.9618 C   0  0  0  0  0  0  0  0  0  0  0  0
   19.8317   -7.4910  -16.0650 C   0  0  0  0  0  0  0  0  0  0  0  0
   19.0442   -6.3767  -16.0440 N   0  0  0  0  0  0  0  0  0  0  0  0
   18.2968   -6.4525  -14.9378 C   0  0  0  0  0  0  0  0  0  0  0  0
   18.6044   -7.5784  -14.2848 N   0  0  0  0  0  0  0  0  0  0  0  0
   22.3168   -8.9552  -15.5521 C   0  0  0  0  0  0  0  0  0  0  0  0
   23.1906   -8.8367  -14.4912 O   0  0  0  0  0  0  0  0  0  0  0  0
   22.4585   -8.1968  -16.5296 O   0  0  0  0  0  0  0  0  0  0  0  0
  2  1  1  1
  2  3  1  0
  3  4  1  0
  4  5  1  0
  5  6  1  0
  7  6  1  0
  8  9  2  0
  8  2  1  0
 11 10  1  0
 11 12  1  0
 12 13  1  0
 14 13  1  6
 14 15  1  0
 15  8  1  0
 16 18  1  0
 16 14  1  0
 17 16  2  0
 19 18  1  0
 19 26  1  0
 19 20  1  1
 21 20  1  0
 22 21  2  0
 23 24  1  0
 23 22  1  0
 24 25  2  0
 25 21  1  0
 26 28  2  0
 26 27  1  0
M  END
$$$$
