KMH.pdb
     RDKit          3D

 28 28  0  0  1  0  0  0  0  0999 V2000
   21.1518  -15.3366  -17.8449 N   0  0  0  0  0  0  0  0  0  0  0  0
   20.3399  -14.9736  -16.7208 C   0  0  1  0  0  0  0  0  0  0  0  0
   20.0234  -16.1342  -15.8246 C   0  0  0  0  0  0  0  0  0  0  0  0
   21.2036  -16.9314  -15.4243 C   0  0  0  0  0  0  0  0  0  0  0  0
   21.1794  -18.3584  -15.8571 C   0  0  0  0  0  0  0  0  0  0  0  0
   22.4569  -19.0868  -15.4065 C   0  0  0  0  0  0  0  0  0  0  0  0
   22.3498  -20.4487  -15.8770 N   0  0  0  0  0  0  0  0  0  0  0  0
   20.9200  -13.8372  -15.9355 C   0  0  0  0  0  0  0  0  0  0  0  0
   20.3399  -13.4402  -14.8914 O   0  0  0  0  0  0  0  0  0  0  0  0
   27.2378  -11.7239  -15.4702 C   0  0  0  0  0  0  0  0  0  0  0  0
   26.6150  -13.2965  -14.8733 S   0  0  0  0  0  0  0  0  0  0  0  0
   24.7731  -13.2982  -14.7385 C   0  0  0  0  0  0  0  0  0  0  0  0
   24.2038  -12.2160  -15.6133 C   0  0  0  0  0  0  0  0  0  0  0  0
   22.6681  -12.1192  -15.5248 C   0  0  2  0  0  0  0  0  0  0  0  0
   22.1157  -13.2059  -16.3532 N   0  0  0  0  0  0  0  0  0  0  0  0
   22.2670  -10.8134  -16.0097 C   0  0  0  0  0  0  0  0  0  0  0  0
   22.4480  -10.5529  -17.2554 O   0  0  0  0  0  0  0  0  0  0  0  0
   21.6913   -9.7681  -15.2787 N   0  0  0  0  0  0  0  0  0  0  0  0
   21.3689   -8.4832  -15.9316 C   0  0  1  0  0  0  0  0  0  0  0  0
   19.9818   -8.0461  -15.5156 C   0  0  0  0  0  0  0  0  0  0  0  0
   18.9792   -8.8770  -16.2107 C   0  0  0  0  0  0  0  0  0  0  0  0
   19.1575   -9.8423  -17.1702 C   0  0  0  0  0  0  0  0  0  0  0  0
   17.9455  -10.3371  -17.5558 N   0  0  0  0  0  0  0  0  0  0  0  0
   17.0186   -9.6867  -16.8445 C   0  0  0  0  0  0  0  0  0  0  0  0
   17.6285   -8.8117  -16.0376 N   0  0  0  0  0  0  0  0  0  0  0  0
   22.3545   -7.5120  -15.4366 C   0  0  0  0  0  0  0  0  0  0  0  0
   22.3384   -6.1946  -15.8456 O   0  0  0  0  0  0  0  0  0  0  0  0
   23.2311   -7.8760  -14.6305 O   0  0  0  0  0  0  0  0  0  0  0  0
  2  1  1  6
  2  3  1  0
  3  4  1  0
  4  5  1  0
  5  6  1  0
  7  6  1  0
  8  9  2  0
  8  2  1  0
 11 10  1  0
 11 12  1  0
 12 13  1  0
 14 13  1  6
 14 15  1  0
 15  8  1  0
 16 18  1  0
 16 14  1  0
 17 16  2  0
 19 18  1  0
 19 26  1  0
 19 20  1  1
 21 20  1  0
 22 21  2  0
 23 24  1  0
 23 22  1  0
 24 25  2  0
 25 21  1  0
 26 28  2  0
 26 27  1  0
M  END
$$$$
