KMH.pdb
     RDKit          3D

 28 28  0  0  1  0  0  0  0  0999 V2000
   28.3836  -20.3149  -15.5323 N   0  0  0  0  0  0  0  0  0  0  0  0
   28.0631  -19.7397  -14.2591 C   0  0  1  0  0  0  0  0  0  0  0  0
   27.7599  -18.2725  -14.3362 C   0  0  0  0  0  0  0  0  0  0  0  0
   27.0525  -17.8629  -15.5693 C   0  0  0  0  0  0  0  0  0  0  0  0
   26.7152  -16.4126  -15.6529 C   0  0  0  0  0  0  0  0  0  0  0  0
   25.9088  -16.1128  -16.9278 C   0  0  0  0  0  0  0  0  0  0  0  0
   25.7387  -14.6793  -16.9876 N   0  0  0  0  0  0  0  0  0  0  0  0
   26.9627  -20.4747  -13.5566 C   0  0  0  0  0  0  0  0  0  0  0  0
   26.3507  -21.3993  -14.1523 O   0  0  0  0  0  0  0  0  0  0  0  0
   27.5437  -18.9468   -7.3446 C   0  0  0  0  0  0  0  0  0  0  0  0
   26.5744  -20.4463   -7.5148 S   0  0  0  0  0  0  0  0  0  0  0  0
   26.6567  -21.1252   -9.2304 C   0  0  0  0  0  0  0  0  0  0  0  0
   25.5674  -20.5128  -10.0663 C   0  0  0  0  0  0  0  0  0  0  0  0
   25.6064  -20.9767  -11.5356 C   0  0  2  0  0  0  0  0  0  0  0  0
   26.6048  -20.1427  -12.2283 N   0  0  0  0  0  0  0  0  0  0  0  0
   24.2810  -20.8119  -12.0989 C   0  0  0  0  0  0  0  0  0  0  0  0
   23.9567  -19.6503  -12.5435 O   0  0  0  0  0  0  0  0  0  0  0  0
   23.2783  -21.7798  -12.2265 N   0  0  0  0  0  0  0  0  0  0  0  0
   22.0049  -21.4580  -12.9018 C   0  0  1  0  0  0  0  0  0  0  0  0
   21.2800  -22.7422  -13.2386 C   0  0  0  0  0  0  0  0  0  0  0  0
   19.9684  -22.4205  -13.8342 C   0  0  0  0  0  0  0  0  0  0  0  0
   18.8901  -21.7778  -13.2788 C   0  0  0  0  0  0  0  0  0  0  0  0
   17.8711  -21.7219  -14.1849 N   0  0  0  0  0  0  0  0  0  0  0  0
   18.3081  -22.3246  -15.2956 C   0  0  0  0  0  0  0  0  0  0  0  0
   19.5615  -22.7454  -15.0943 N   0  0  0  0  0  0  0  0  0  0  0  0
   21.2096  -20.6891  -11.9344 C   0  0  0  0  0  0  0  0  0  0  0  0
   20.2622  -19.7738  -12.3440 O   0  0  0  0  0  0  0  0  0  0  0  0
   21.3880  -20.8577  -10.7136 O   0  0  0  0  0  0  0  0  0  0  0  0
  2  1  1  6
  2  3  1  0
  3  4  1  0
  4  5  1  0
  5  6  1  0
  7  6  1  0
  8  9  2  0
  8  2  1  0
 11 10  1  0
 11 12  1  0
 12 13  1  0
 14 13  1  1
 14 15  1  0
 15  8  1  0
 16 18  1  0
 16 14  1  0
 17 16  2  0
 19 18  1  0
 19 26  1  0
 19 20  1  1
 21 20  1  0
 22 21  2  0
 23 24  1  0
 23 22  1  0
 24 25  2  0
 25 21  1  0
 26 28  2  0
 26 27  1  0
M  END
$$$$
