KMH.pdb
     RDKit          3D

 28 28  0  0  1  0  0  0  0  0999 V2000
   14.7104  -22.8487    5.1753 N   0  0  0  0  0  0  0  0  0  0  0  0
   16.0852  -22.7311    5.5637 C   0  0  1  0  0  0  0  0  0  0  0  0
   16.3410  -21.5689    6.4771 C   0  0  0  0  0  0  0  0  0  0  0  0
   16.0583  -20.2484    5.8728 C   0  0  0  0  0  0  0  0  0  0  0  0
   16.3492  -19.0768    6.7486 C   0  0  0  0  0  0  0  0  0  0  0  0
   15.9760  -17.7623    6.0427 C   0  0  0  0  0  0  0  0  0  0  0  0
   14.5622  -17.5580    6.2595 N   0  0  0  0  0  0  0  0  0  0  0  0
   16.6276  -23.9986    6.1500 C   0  0  0  0  0  0  0  0  0  0  0  0
   15.9100  -24.6855    6.9229 O   0  0  0  0  0  0  0  0  0  0  0  0
   20.3034  -28.5250    2.0939 C   0  0  0  0  0  0  0  0  0  0  0  0
   20.7024  -27.3885    3.4229 S   0  0  0  0  0  0  0  0  0  0  0  0
   19.2159  -26.9673    4.4347 C   0  0  0  0  0  0  0  0  0  0  0  0
   19.6342  -26.1568    5.6298 C   0  0  0  0  0  0  0  0  0  0  0  0
   18.4389  -25.6694    6.4720 C   0  0  2  0  0  0  0  0  0  0  0  0
   17.9383  -24.4345    5.8422 N   0  0  0  0  0  0  0  0  0  0  0  0
   18.9026  -25.4356    7.8253 C   0  0  0  0  0  0  0  0  0  0  0  0
   19.2192  -24.2338    8.1534 O   0  0  0  0  0  0  0  0  0  0  0  0
   19.0552  -26.3739    8.8525 N   0  0  0  0  0  0  0  0  0  0  0  0
   19.5152  -25.9539   10.1915 C   0  0  1  0  0  0  0  0  0  0  0  0
   18.5013  -25.0061   10.7930 C   0  0  0  0  0  0  0  0  0  0  0  0
   19.0780  -23.6487   10.8535 C   0  0  0  0  0  0  0  0  0  0  0  0
   20.3590  -23.2306   10.5914 C   0  0  0  0  0  0  0  0  0  0  0  0
   20.4563  -21.8859   10.8026 N   0  0  0  0  0  0  0  0  0  0  0  0
   19.2480  -21.4677   11.1937 C   0  0  0  0  0  0  0  0  0  0  0  0
   18.4178  -22.5157   11.2268 N   0  0  0  0  0  0  0  0  0  0  0  0
   19.5821  -27.1760   11.0050 C   0  0  0  0  0  0  0  0  0  0  0  0
   19.2144  -28.4039   10.4951 O   0  0  0  0  0  0  0  0  0  0  0  0
   19.9762  -27.1133   12.1847 O   0  0  0  0  0  0  0  0  0  0  0  0
  2  1  1  1
  2  3  1  0
  3  4  1  0
  4  5  1  0
  5  6  1  0
  7  6  1  0
  8  9  2  0
  8  2  1  0
 11 10  1  0
 11 12  1  0
 12 13  1  0
 14 13  1  6
 14 15  1  0
 15  8  1  0
 16 18  1  0
 16 14  1  0
 17 16  2  0
 19 18  1  0
 19 26  1  0
 19 20  1  1
 21 20  1  0
 22 21  2  0
 23 24  1  0
 23 22  1  0
 24 25  2  0
 25 21  1  0
 26 28  2  0
 26 27  1  0
M  END
$$$$
