KMH.pdb
     RDKit          3D

 28 28  0  0  1  0  0  0  0  0999 V2000
   22.0505  -31.4481   -3.3010 N   0  0  0  0  0  0  0  0  0  0  0  0
   21.1115  -30.3737   -3.4377 C   0  0  1  0  0  0  0  0  0  0  0  0
   19.8916  -30.7551   -4.2230 C   0  0  0  0  0  0  0  0  0  0  0  0
   19.7837  -32.2021   -4.5120 C   0  0  0  0  0  0  0  0  0  0  0  0
   18.6197  -32.5930   -5.3584 C   0  0  0  0  0  0  0  0  0  0  0  0
   18.6187  -34.1090   -5.6177 C   0  0  0  0  0  0  0  0  0  0  0  0
   17.4462  -34.3966   -6.4116 N   0  0  0  0  0  0  0  0  0  0  0  0
   20.7298  -29.7725   -2.1196 C   0  0  0  0  0  0  0  0  0  0  0  0
   20.5577  -30.5181   -1.1202 O   0  0  0  0  0  0  0  0  0  0  0  0
   23.4867  -24.3488   -0.3697 C   0  0  0  0  0  0  0  0  0  0  0  0
   21.9906  -24.1450    0.5984 S   0  0  0  0  0  0  0  0  0  0  0  0
   21.0010  -25.7028    0.6679 C   0  0  0  0  0  0  0  0  0  0  0  0
   21.0899  -26.4144   -0.6535 C   0  0  0  0  0  0  0  0  0  0  0  0
   20.4265  -27.8055   -0.6312 C   0  0  2  0  0  0  0  0  0  0  0  0
   20.5629  -28.3737   -1.9843 N   0  0  0  0  0  0  0  0  0  0  0  0
   19.0372  -27.6397   -0.2528 C   0  0  0  0  0  0  0  0  0  0  0  0
   18.2491  -27.0689   -1.0928 O   0  0  0  0  0  0  0  0  0  0  0  0
   18.4223  -28.0312    0.9419 N   0  0  0  0  0  0  0  0  0  0  0  0
   16.9940  -27.7422    1.1816 C   0  0  1  0  0  0  0  0  0  0  0  0
   16.4694  -28.6727    2.2527 C   0  0  0  0  0  0  0  0  0  0  0  0
   15.0097  -28.4955    2.3809 C   0  0  0  0  0  0  0  0  0  0  0  0
   14.0605  -28.3265    1.4038 C   0  0  0  0  0  0  0  0  0  0  0  0
   12.8320  -28.1713    1.9778 N   0  0  0  0  0  0  0  0  0  0  0  0
   13.0120  -28.2420    3.3009 C   0  0  0  0  0  0  0  0  0  0  0  0
   14.3115  -28.4358    3.5505 N   0  0  0  0  0  0  0  0  0  0  0  0
   16.9309  -26.3564    1.6668 C   0  0  0  0  0  0  0  0  0  0  0  0
   17.9935  -25.7727    2.3250 O   0  0  0  0  0  0  0  0  0  0  0  0
   15.8980  -25.6843    1.4872 O   0  0  0  0  0  0  0  0  0  0  0  0
  2  1  1  1
  2  3  1  0
  3  4  1  0
  4  5  1  0
  5  6  1  0
  7  6  1  0
  8  9  2  0
  8  2  1  0
 11 10  1  0
 11 12  1  0
 12 13  1  0
 14 13  1  6
 14 15  1  0
 15  8  1  0
 16 18  1  0
 16 14  1  0
 17 16  2  0
 19 18  1  0
 19 26  1  0
 19 20  1  1
 21 20  1  0
 22 21  2  0
 23 24  1  0
 23 22  1  0
 24 25  2  0
 25 21  1  0
 26 28  2  0
 26 27  1  0
M  END
$$$$
