KMH.pdb
     RDKit          3D

 28 28  0  0  1  0  0  0  0  0999 V2000
   27.9240  -22.1791  -17.2890 N   0  0  0  0  0  0  0  0  0  0  0  0
   27.4150  -21.0667  -16.5420 C   0  0  1  0  0  0  0  0  0  0  0  0
   26.7874  -20.0146  -17.4078 C   0  0  0  0  0  0  0  0  0  0  0  0
   27.5006  -19.7717  -18.6811 C   0  0  0  0  0  0  0  0  0  0  0  0
   28.3854  -18.5712  -18.6914 C   0  0  0  0  0  0  0  0  0  0  0  0
   29.0252  -18.3772  -20.0765 C   0  0  0  0  0  0  0  0  0  0  0  0
   29.9660  -17.2875  -19.9536 N   0  0  0  0  0  0  0  0  0  0  0  0
   26.4780  -21.4870  -15.4510 C   0  0  0  0  0  0  0  0  0  0  0  0
   25.6982  -22.4572  -15.6378 O   0  0  0  0  0  0  0  0  0  0  0  0
   24.6232  -20.5464   -7.7464 C   0  0  0  0  0  0  0  0  0  0  0  0
   25.7333  -20.2847   -9.1306 S   0  0  0  0  0  0  0  0  0  0  0  0
   25.0091  -20.8960  -10.7158 C   0  0  0  0  0  0  0  0  0  0  0  0
   25.9937  -20.6863  -11.8324 C   0  0  0  0  0  0  0  0  0  0  0  0
   25.4917  -21.2299  -13.1846 C   0  0  2  0  0  0  0  0  0  0  0  0
   26.4617  -20.8066  -14.2103 N   0  0  0  0  0  0  0  0  0  0  0  0
   24.1719  -20.6837  -13.4314 C   0  0  0  0  0  0  0  0  0  0  0  0
   24.0780  -19.4254  -13.6768 O   0  0  0  0  0  0  0  0  0  0  0  0
   22.9501  -21.3662  -13.4384 N   0  0  0  0  0  0  0  0  0  0  0  0
   21.6779  -20.6280  -13.5706 C   0  0  1  0  0  0  0  0  0  0  0  0
   20.7464  -21.3977  -14.4807 C   0  0  0  0  0  0  0  0  0  0  0  0
   21.1138  -21.1390  -15.8867 C   0  0  0  0  0  0  0  0  0  0  0  0
   22.0386  -20.2653  -16.4020 C   0  0  0  0  0  0  0  0  0  0  0  0
   22.0277  -20.3349  -17.7649 N   0  0  0  0  0  0  0  0  0  0  0  0
   21.1045  -21.2429  -18.0982 C   0  0  0  0  0  0  0  0  0  0  0  0
   20.5531  -21.7287  -16.9807 N   0  0  0  0  0  0  0  0  0  0  0  0
   21.0979  -20.5637  -12.2218 C   0  0  0  0  0  0  0  0  0  0  0  0
   20.1229  -19.6430  -11.8982 O   0  0  0  0  0  0  0  0  0  0  0  0
   21.4897  -21.3525  -11.3415 O   0  0  0  0  0  0  0  0  0  0  0  0
  2  1  1  6
  2  3  1  0
  3  4  1  0
  4  5  1  0
  5  6  1  0
  7  6  1  0
  8  9  2  0
  8  2  1  0
 11 10  1  0
 11 12  1  0
 12 13  1  0
 14 13  1  1
 14 15  1  0
 15  8  1  0
 16 18  1  0
 16 14  1  0
 17 16  2  0
 19 18  1  0
 19 26  1  0
 19 20  1  6
 21 20  1  0
 22 21  2  0
 23 24  1  0
 23 22  1  0
 24 25  2  0
 25 21  1  0
 26 28  2  0
 26 27  1  0
M  END
$$$$
