KMH.pdb
     RDKit          3D

 28 28  0  0  1  0  0  0  0  0999 V2000
   28.0581  -22.3597  -16.5943 N   0  0  0  0  0  0  0  0  0  0  0  0
   27.7416  -21.1781  -15.8472 C   0  0  1  0  0  0  0  0  0  0  0  0
   27.4005  -20.0053  -16.7182 C   0  0  0  0  0  0  0  0  0  0  0  0
   28.2069  -19.9131  -17.9552 C   0  0  0  0  0  0  0  0  0  0  0  0
   27.9499  -18.7036  -18.7890 C   0  0  0  0  0  0  0  0  0  0  0  0
   28.8901  -18.6701  -20.0057 C   0  0  0  0  0  0  0  0  0  0  0  0
   28.6857  -17.3968  -20.6572 N   0  0  0  0  0  0  0  0  0  0  0  0
   26.6703  -21.4128  -14.8265 C   0  0  0  0  0  0  0  0  0  0  0  0
   25.6488  -22.0798  -15.1363 O   0  0  0  0  0  0  0  0  0  0  0  0
   24.8254  -20.8811   -7.0869 C   0  0  0  0  0  0  0  0  0  0  0  0
   25.9297  -20.4931   -8.4460 S   0  0  0  0  0  0  0  0  0  0  0  0
   25.2089  -20.9789  -10.0755 C   0  0  0  0  0  0  0  0  0  0  0  0
   26.2205  -20.7447  -11.1628 C   0  0  0  0  0  0  0  0  0  0  0  0
   25.6892  -21.1050  -12.5641 C   0  0  2  0  0  0  0  0  0  0  0  0
   26.7950  -20.8948  -13.5155 N   0  0  0  0  0  0  0  0  0  0  0  0
   24.5570  -20.2477  -12.8542 C   0  0  0  0  0  0  0  0  0  0  0  0
   24.7810  -19.1461  -13.4778 O   0  0  0  0  0  0  0  0  0  0  0  0
   23.2121  -20.4679  -12.5358 N   0  0  0  0  0  0  0  0  0  0  0  0
   22.1532  -20.2217  -13.5354 C   0  0  1  0  0  0  0  0  0  0  0  0
   22.4161  -21.0696  -14.7602 C   0  0  0  0  0  0  0  0  0  0  0  0
   21.3266  -20.8691  -15.7356 C   0  0  0  0  0  0  0  0  0  0  0  0
   20.1621  -20.1533  -15.6105 C   0  0  0  0  0  0  0  0  0  0  0  0
   19.4285  -20.2644  -16.7560 N   0  0  0  0  0  0  0  0  0  0  0  0
   20.1276  -21.0427  -17.5886 C   0  0  0  0  0  0  0  0  0  0  0  0
   21.2642  -21.4087  -16.9861 N   0  0  0  0  0  0  0  0  0  0  0  0
   20.8922  -20.6457  -12.9111 C   0  0  0  0  0  0  0  0  0  0  0  0
   19.7343  -19.9088  -13.0501 O   0  0  0  0  0  0  0  0  0  0  0  0
   20.8566  -21.6918  -12.2366 O   0  0  0  0  0  0  0  0  0  0  0  0
  2  1  1  6
  2  3  1  0
  3  4  1  0
  4  5  1  0
  5  6  1  0
  7  6  1  0
  8  9  2  0
  8  2  1  0
 11 10  1  0
 11 12  1  0
 12 13  1  0
 14 13  1  1
 14 15  1  0
 15  8  1  0
 16 18  1  0
 16 14  1  0
 17 16  2  0
 19 18  1  0
 19 26  1  0
 19 20  1  6
 21 20  1  0
 22 21  2  0
 23 24  1  0
 23 22  1  0
 24 25  2  0
 25 21  1  0
 26 28  2  0
 26 27  1  0
M  END
$$$$
