KMH.pdb
     RDKit          3D

 28 28  0  0  1  0  0  0  0  0999 V2000
   26.9579  -22.5153  -15.3588 N   0  0  0  0  0  0  0  0  0  0  0  0
   25.7780  -23.3233  -15.2614 C   0  0  1  0  0  0  0  0  0  0  0  0
   26.0748  -24.7923  -15.1971 C   0  0  0  0  0  0  0  0  0  0  0  0
   27.0193  -25.2665  -16.2325 C   0  0  0  0  0  0  0  0  0  0  0  0
   27.3425  -26.7213  -16.1751 C   0  0  0  0  0  0  0  0  0  0  0  0
   28.3821  -27.0916  -17.2464 C   0  0  0  0  0  0  0  0  0  0  0  0
   28.6662  -28.4990  -17.0845 N   0  0  0  0  0  0  0  0  0  0  0  0
   24.8896  -22.9095  -14.1281 C   0  0  0  0  0  0  0  0  0  0  0  0
   23.7921  -23.4990  -13.9486 O   0  0  0  0  0  0  0  0  0  0  0  0
   26.5868  -19.4357   -8.2017 C   0  0  0  0  0  0  0  0  0  0  0  0
   25.9003  -21.0308   -8.6504 S   0  0  0  0  0  0  0  0  0  0  0  0
   26.0776  -21.3701  -10.4572 C   0  0  0  0  0  0  0  0  0  0  0  0
   25.0764  -20.5510  -11.2233 C   0  0  0  0  0  0  0  0  0  0  0  0
   24.2953  -21.3780  -12.2634 C   0  0  2  0  0  0  0  0  0  0  0  0
   25.2720  -21.8640  -13.2544 N   0  0  0  0  0  0  0  0  0  0  0  0
   23.2951  -20.5199  -12.8669 C   0  0  0  0  0  0  0  0  0  0  0  0
   22.3441  -20.0862  -12.1187 O   0  0  0  0  0  0  0  0  0  0  0  0
   23.2265  -20.0883  -14.1964 N   0  0  0  0  0  0  0  0  0  0  0  0
   22.1562  -19.1694  -14.6338 C   0  0  1  0  0  0  0  0  0  0  0  0
   22.4618  -18.6761  -16.0308 C   0  0  0  0  0  0  0  0  0  0  0  0
   21.4591  -17.6660  -16.4219 C   0  0  0  0  0  0  0  0  0  0  0  0
   20.5699  -16.9693  -15.6421 C   0  0  0  0  0  0  0  0  0  0  0  0
   19.8074  -16.1555  -16.4287 N   0  0  0  0  0  0  0  0  0  0  0  0
   20.2158  -16.3424  -17.6882 C   0  0  0  0  0  0  0  0  0  0  0  0
   21.2034  -17.2442  -17.6930 N   0  0  0  0  0  0  0  0  0  0  0  0
   20.9186  -19.9615  -14.6569 C   0  0  0  0  0  0  0  0  0  0  0  0
   20.8558  -21.1846  -15.2919 O   0  0  0  0  0  0  0  0  0  0  0  0
   19.8954  -19.5273  -14.0954 O   0  0  0  0  0  0  0  0  0  0  0  0
  2  1  1  1
  2  3  1  0
  3  4  1  0
  4  5  1  0
  5  6  1  0
  7  6  1  0
  8  9  2  0
  8  2  1  0
 11 10  1  0
 11 12  1  0
 12 13  1  0
 14 13  1  1
 14 15  1  0
 15  8  1  0
 16 18  1  0
 16 14  1  0
 17 16  2  0
 19 18  1  0
 19 26  1  0
 19 20  1  6
 21 20  1  0
 22 21  2  0
 23 24  1  0
 23 22  1  0
 24 25  2  0
 25 21  1  0
 26 28  2  0
 26 27  1  0
M  END
$$$$
