TTV.pdb
     RDKit          3D

 22 21  0  0  1  0  0  0  0  0999 V2000
    8.8307  -12.3472   19.5941 C   0  0  0  0  0  0  0  0  0  0  0  0
    8.2904  -13.3503   18.6106 C   0  0  1  0  0  0  0  0  0  0  0  0
    8.7740  -13.1243   17.3237 O   0  0  0  0  0  0  0  0  0  0  0  0
    8.5636  -14.7535   19.0768 C   0  0  2  0  0  0  0  0  0  0  0  0
    8.1489  -15.6816   18.0535 N   0  0  0  0  0  0  0  0  0  0  0  0
    7.9696  -15.0551   20.3950 C   0  0  0  0  0  0  0  0  0  0  0  0
    6.7452  -15.2414   20.4755 O   0  0  0  0  0  0  0  0  0  0  0  0
    7.9745  -17.9859   22.1612 C   0  0  0  0  0  0  0  0  0  0  0  0
    8.5515  -17.0232   23.1641 C   0  0  1  0  0  0  0  0  0  0  0  0
    9.9263  -17.2002   23.3070 O   0  0  0  0  0  0  0  0  0  0  0  0
    8.2229  -15.5830   22.8478 C   0  0  2  0  0  0  0  0  0  0  0  0
    8.7404  -15.1441   21.5945 N   0  0  0  0  0  0  0  0  0  0  0  0
    8.5800  -14.7159   23.9850 C   0  0  0  0  0  0  0  0  0  0  0  0
    9.6967  -14.1407   23.9463 O   0  0  0  0  0  0  0  0  0  0  0  0
    5.8444  -13.4945   26.9125 C   0  0  0  0  0  0  0  0  0  0  0  0
    7.1468  -12.7382   26.7503 C   0  0  2  0  0  0  0  0  0  0  0  0
    6.9155  -11.6149   25.7946 C   0  0  0  0  0  0  0  0  0  0  0  0
    8.1878  -13.7253   26.2785 C   0  0  2  0  0  0  0  0  0  0  0  0
    7.7674  -14.4745   25.1236 N   0  0  0  0  0  0  0  0  0  0  0  0
    8.4989  -14.6560   27.3897 C   0  0  0  0  0  0  0  0  0  0  0  0
    8.9881  -14.2053   28.4488 O   0  0  0  0  0  0  0  0  0  0  0  0
    8.2734  -16.0157   27.3157 O   0  0  0  0  0  0  0  0  0  0  0  0
  2  1  1  1
  2  3  1  0
  4  2  1  0
  4  5  1  6
  6  4  1  0
  6 12  1  0
  7  6  2  0
  9  8  1  6
  9 11  1  0
 10  9  1  0
 11 12  1  6
 11 13  1  0
 13 19  1  0
 13 14  2  0
 16 15  1  6
 17 16  1  0
 18 16  1  0
 18 20  1  0
 18 19  1  6
 20 22  1  0
 21 20  2  0
M  END
$$$$
