TTV.pdb
     RDKit          3D

 22 21  0  0  1  0  0  0  0  0999 V2000
   11.2235  -18.7670   23.2551 C   0  0  0  0  0  0  0  0  0  0  0  0
   12.1639  -18.2125   22.2189 C   0  0  1  0  0  0  0  0  0  0  0  0
   12.9236  -19.2158   21.6211 O   0  0  0  0  0  0  0  0  0  0  0  0
   11.4152  -17.3927   21.2048 C   0  0  2  0  0  0  0  0  0  0  0  0
   12.3208  -16.9967   20.1542 N   0  0  0  0  0  0  0  0  0  0  0  0
   10.6951  -16.2480   21.7986 C   0  0  0  0  0  0  0  0  0  0  0  0
   11.3477  -15.2884   22.2383 O   0  0  0  0  0  0  0  0  0  0  0  0
    7.3512  -14.3733   20.4064 C   0  0  0  0  0  0  0  0  0  0  0  0
    7.2177  -14.8428   21.8303 C   0  0  1  0  0  0  0  0  0  0  0  0
    6.3866  -15.9574   21.9229 O   0  0  0  0  0  0  0  0  0  0  0  0
    8.5526  -15.1091   22.4855 C   0  0  2  0  0  0  0  0  0  0  0  0
    9.2709  -16.1884   21.8936 N   0  0  0  0  0  0  0  0  0  0  0  0
    8.3914  -15.2209   23.9463 C   0  0  0  0  0  0  0  0  0  0  0  0
    8.7213  -16.3079   24.4839 O   0  0  0  0  0  0  0  0  0  0  0  0
    5.7658  -12.9176   26.3936 C   0  0  0  0  0  0  0  0  0  0  0  0
    7.1898  -13.0933   26.8792 C   0  0  2  0  0  0  0  0  0  0  0  0
    7.9523  -11.8556   26.5398 C   0  0  0  0  0  0  0  0  0  0  0  0
    7.7408  -14.3381   26.2251 C   0  0  2  0  0  0  0  0  0  0  0  0
    7.8938  -14.2020   24.8004 N   0  0  0  0  0  0  0  0  0  0  0  0
    6.8342  -15.4727   26.5225 C   0  0  0  0  0  0  0  0  0  0  0  0
    6.0026  -15.8356   25.6617 O   0  0  0  0  0  0  0  0  0  0  0  0
    6.8600  -16.1608   27.7188 O   0  0  0  0  0  0  0  0  0  0  0  0
  2  1  1  1
  2  3  1  0
  4  2  1  0
  4  5  1  6
  6  4  1  0
  6 12  1  0
  7  6  2  0
  9  8  1  6
  9 11  1  0
 10  9  1  0
 11 12  1  6
 11 13  1  0
 13 19  1  0
 13 14  2  0
 16 15  1  6
 17 16  1  0
 18 16  1  0
 18 20  1  0
 18 19  1  6
 20 22  1  0
 21 20  2  0
M  END
$$$$
