TTV.pdb
     RDKit          3D

 22 21  0  0  1  0  0  0  0  0999 V2000
    8.9210  -12.4412   19.4010 C   0  0  0  0  0  0  0  0  0  0  0  0
    8.5188  -13.3987   18.3116 C   0  0  1  0  0  0  0  0  0  0  0  0
    9.1893  -13.1357   17.1190 O   0  0  0  0  0  0  0  0  0  0  0  0
    8.7028  -14.8223   18.7593 C   0  0  2  0  0  0  0  0  0  0  0  0
    8.3689  -15.7079   17.6707 N   0  0  0  0  0  0  0  0  0  0  0  0
    7.9685  -15.1419   20.0003 C   0  0  0  0  0  0  0  0  0  0  0  0
    6.7310  -15.2286   19.9626 O   0  0  0  0  0  0  0  0  0  0  0  0
    7.3370  -18.0050   21.7565 C   0  0  0  0  0  0  0  0  0  0  0  0
    7.9668  -17.1400   22.8152 C   0  0  1  0  0  0  0  0  0  0  0  0
    9.2659  -17.5531   23.1038 O   0  0  0  0  0  0  0  0  0  0  0  0
    7.9328  -15.6707   22.4658 C   0  0  2  0  0  0  0  0  0  0  0  0
    8.6166  -15.3586   21.2549 N   0  0  0  0  0  0  0  0  0  0  0  0
    8.3544  -14.8605   23.6227 C   0  0  0  0  0  0  0  0  0  0  0  0
    9.5230  -14.3984   23.6110 O   0  0  0  0  0  0  0  0  0  0  0  0
    7.4468  -11.9354   27.4301 C   0  0  0  0  0  0  0  0  0  0  0  0
    6.8784  -12.7670   26.2988 C   0  0  2  0  0  0  0  0  0  0  0  0
    5.6572  -13.4628   26.8021 C   0  0  0  0  0  0  0  0  0  0  0  0
    7.9642  -13.7119   25.8416 C   0  0  2  0  0  0  0  0  0  0  0  0
    7.5502  -14.5567   24.7523 N   0  0  0  0  0  0  0  0  0  0  0  0
    8.3806  -14.5499   26.9914 C   0  0  0  0  0  0  0  0  0  0  0  0
    8.0249  -15.7480   27.0382 O   0  0  0  0  0  0  0  0  0  0  0  0
    9.1529  -14.0696   28.0298 O   0  0  0  0  0  0  0  0  0  0  0  0
  2  1  1  1
  2  3  1  0
  4  2  1  0
  4  5  1  6
  6  4  1  0
  6 12  1  0
  7  6  2  0
  9  8  1  6
  9 11  1  0
 10  9  1  0
 11 12  1  6
 11 13  1  0
 13 19  1  0
 13 14  2  0
 16 15  1  1
 17 16  1  0
 18 16  1  0
 18 20  1  0
 18 19  1  6
 20 22  1  0
 21 20  2  0
M  END
$$$$
