TTV.pdb
     RDKit          3D

 22 21  0  0  1  0  0  0  0  0999 V2000
    6.9893  -19.5936   26.7919 C   0  0  0  0  0  0  0  0  0  0  0  0
    8.1109  -20.4293   26.2358 C   0  0  1  0  0  0  0  0  0  0  0  0
    7.9409  -21.7813   26.5262 O   0  0  0  0  0  0  0  0  0  0  0  0
    8.2753  -20.1862   24.7610 C   0  0  2  0  0  0  0  0  0  0  0  0
    9.2426  -21.1167   24.2327 N   0  0  0  0  0  0  0  0  0  0  0  0
    8.5972  -18.7822   24.4347 C   0  0  0  0  0  0  0  0  0  0  0  0
    9.7782  -18.4054   24.4948 O   0  0  0  0  0  0  0  0  0  0  0  0
    8.4494  -16.3808   21.5103 C   0  0  0  0  0  0  0  0  0  0  0  0
    7.5329  -15.8572   22.5835 C   0  0  1  0  0  0  0  0  0  0  0  0
    6.1945  -16.0631   22.2549 O   0  0  0  0  0  0  0  0  0  0  0  0
    7.8470  -16.4243   23.9480 C   0  0  2  0  0  0  0  0  0  0  0  0
    7.6084  -17.8257   24.0497 N   0  0  0  0  0  0  0  0  0  0  0  0
    7.1918  -15.6231   24.9974 C   0  0  0  0  0  0  0  0  0  0  0  0
    6.1830  -16.1189   25.5595 O   0  0  0  0  0  0  0  0  0  0  0  0
    7.7808  -11.4301   25.5671 C   0  0  0  0  0  0  0  0  0  0  0  0
    7.6651  -12.2975   26.8035 C   0  0  2  0  0  0  0  0  0  0  0  0
    9.0427  -12.5694   27.3105 C   0  0  0  0  0  0  0  0  0  0  0  0
    6.9106  -13.5457   26.4119 C   0  0  2  0  0  0  0  0  0  0  0  0
    7.6046  -14.3351   25.4286 N   0  0  0  0  0  0  0  0  0  0  0  0
    5.5810  -13.1528   25.8871 C   0  0  0  0  0  0  0  0  0  0  0  0
    5.3369  -13.2913   24.6684 O   0  0  0  0  0  0  0  0  0  0  0  0
    4.5820  -12.6336   26.6858 O   0  0  0  0  0  0  0  0  0  0  0  0
  2  1  1  6
  2  3  1  0
  4  2  1  0
  4  5  1  1
  6  4  1  0
  6 12  1  0
  7  6  2  0
  9  8  1  6
  9 11  1  0
 10  9  1  0
 11 12  1  6
 11 13  1  0
 13 19  1  0
 13 14  2  0
 16 15  1  6
 17 16  1  0
 18 16  1  0
 18 20  1  0
 18 19  1  6
 20 22  1  0
 21 20  2  0
M  END
$$$$
