TTV.pdb
     RDKit          3D

 22 21  0  0  1  0  0  0  0  0999 V2000
   11.2272  -14.3132   20.4496 C   0  0  0  0  0  0  0  0  0  0  0  0
   10.5194  -13.3963   19.4885 C   0  0  1  0  0  0  0  0  0  0  0  0
   11.2237  -13.2559   18.2947 O   0  0  0  0  0  0  0  0  0  0  0  0
    9.1060  -13.8546   19.2584 C   0  0  2  0  0  0  0  0  0  0  0  0
    8.4856  -13.0008   18.2750 N   0  0  0  0  0  0  0  0  0  0  0  0
    8.3174  -13.9577   20.5030 C   0  0  0  0  0  0  0  0  0  0  0  0
    7.7168  -12.9550   20.9203 O   0  0  0  0  0  0  0  0  0  0  0  0
    5.8812  -17.0283   21.3921 C   0  0  0  0  0  0  0  0  0  0  0  0
    6.7757  -16.6822   22.5522 C   0  0  1  0  0  0  0  0  0  0  0  0
    7.7525  -17.6561   22.7502 O   0  0  0  0  0  0  0  0  0  0  0  0
    7.3985  -15.3121   22.4215 C   0  0  2  0  0  0  0  0  0  0  0  0
    8.2097  -15.1651   21.2588 N   0  0  0  0  0  0  0  0  0  0  0  0
    8.0707  -14.9344   23.6777 C   0  0  0  0  0  0  0  0  0  0  0  0
    9.3225  -15.0381   23.7185 O   0  0  0  0  0  0  0  0  0  0  0  0
    6.0024  -13.3792   27.0682 C   0  0  0  0  0  0  0  0  0  0  0  0
    7.4452  -12.9908   26.8190 C   0  0  2  0  0  0  0  0  0  0  0  0
    7.4557  -11.7038   26.0628 C   0  0  0  0  0  0  0  0  0  0  0  0
    8.0991  -14.1312   26.0755 C   0  0  2  0  0  0  0  0  0  0  0  0
    7.4224  -14.4620   24.8489 N   0  0  0  0  0  0  0  0  0  0  0  0
    8.1331  -15.3193   26.9615 C   0  0  0  0  0  0  0  0  0  0  0  0
    7.4140  -16.3064   26.6922 O   0  0  0  0  0  0  0  0  0  0  0  0
    8.9297  -15.3945   28.0863 O   0  0  0  0  0  0  0  0  0  0  0  0
  2  1  1  1
  2  3  1  0
  4  2  1  0
  4  5  1  6
  6  4  1  0
  6 12  1  0
  7  6  2  0
  9  8  1  6
  9 11  1  0
 10  9  1  0
 11 12  1  6
 11 13  1  0
 13 19  1  0
 13 14  2  0
 16 15  1  6
 17 16  1  0
 18 16  1  0
 18 20  1  0
 18 19  1  6
 20 22  1  0
 21 20  2  0
M  END
$$$$
