TTV.pdb
     RDKit          3D

 22 21  0  0  1  0  0  0  0  0999 V2000
   12.5044  -19.2990   21.2556 C   0  0  0  0  0  0  0  0  0  0  0  0
   11.8783  -18.0779   21.8741 C   0  0  1  0  0  0  0  0  0  0  0  0
   12.7779  -17.3916   22.6870 O   0  0  0  0  0  0  0  0  0  0  0  0
   11.2846  -17.1901   20.8158 C   0  0  2  0  0  0  0  0  0  0  0  0
   12.3240  -16.7813   19.9028 N   0  0  0  0  0  0  0  0  0  0  0  0
   10.5306  -16.0474   21.3701 C   0  0  0  0  0  0  0  0  0  0  0  0
   11.0714  -14.9310   21.4092 O   0  0  0  0  0  0  0  0  0  0  0  0
    6.9496  -14.5794   20.5386 C   0  0  0  0  0  0  0  0  0  0  0  0
    7.0446  -14.9863   21.9847 C   0  0  1  0  0  0  0  0  0  0  0  0
    6.3467  -16.1675   22.2281 O   0  0  0  0  0  0  0  0  0  0  0  0
    8.4715  -15.0930   22.4693 C   0  0  2  0  0  0  0  0  0  0  0  0
    9.1970  -16.1628   21.8690 N   0  0  0  0  0  0  0  0  0  0  0  0
    8.5124  -15.0883   23.9426 C   0  0  0  0  0  0  0  0  0  0  0  0
    9.1166  -16.0339   24.5082 O   0  0  0  0  0  0  0  0  0  0  0  0
    5.7889  -13.0008   26.3493 C   0  0  0  0  0  0  0  0  0  0  0  0
    7.2190  -12.9774   26.8483 C   0  0  2  0  0  0  0  0  0  0  0  0
    7.8125  -11.6540   26.4949 C   0  0  0  0  0  0  0  0  0  0  0  0
    7.9375  -14.1469   26.2183 C   0  0  2  0  0  0  0  0  0  0  0  0
    7.9255  -14.1032   24.7797 N   0  0  0  0  0  0  0  0  0  0  0  0
    7.3017  -15.4025   26.6838 C   0  0  0  0  0  0  0  0  0  0  0  0
    6.5506  -16.0341   25.9085 O   0  0  0  0  0  0  0  0  0  0  0  0
    7.4980  -15.9196   27.9485 O   0  0  0  0  0  0  0  0  0  0  0  0
  2  1  1  6
  2  3  1  0
  4  2  1  0
  4  5  1  6
  6  4  1  0
  6 12  1  0
  7  6  2  0
  9  8  1  6
  9 11  1  0
 10  9  1  0
 11 12  1  1
 11 13  1  0
 13 19  1  0
 13 14  2  0
 16 15  1  6
 17 16  1  0
 18 16  1  0
 18 20  1  0
 18 19  1  6
 20 22  1  0
 21 20  2  0
M  END
$$$$
