TTV.pdb
     RDKit          3D

 22 21  0  0  1  0  0  0  0  0999 V2000
    8.7011  -12.3963   19.7673 C   0  0  0  0  0  0  0  0  0  0  0  0
    8.2955  -13.2494   18.5955 C   0  0  1  0  0  0  0  0  0  0  0  0
    8.8438  -12.7831   17.4026 O   0  0  0  0  0  0  0  0  0  0  0  0
    8.6346  -14.6929   18.8452 C   0  0  2  0  0  0  0  0  0  0  0  0
    8.2765  -15.4710   17.6846 N   0  0  0  0  0  0  0  0  0  0  0  0
    8.0444  -15.2225   20.0912 C   0  0  0  0  0  0  0  0  0  0  0  0
    6.8276  -15.4646   20.1260 O   0  0  0  0  0  0  0  0  0  0  0  0
    7.8006  -18.2759   21.7471 C   0  0  0  0  0  0  0  0  0  0  0  0
    8.4816  -17.3966   22.7614 C   0  0  1  0  0  0  0  0  0  0  0  0
    9.8421  -17.6839   22.8524 O   0  0  0  0  0  0  0  0  0  0  0  0
    8.2569  -15.9251   22.5038 C   0  0  2  0  0  0  0  0  0  0  0  0
    8.8104  -15.4729   21.2708 N   0  0  0  0  0  0  0  0  0  0  0  0
    8.6684  -15.1325   23.6764 C   0  0  0  0  0  0  0  0  0  0  0  0
    9.7898  -14.5672   23.6288 O   0  0  0  0  0  0  0  0  0  0  0  0
    7.6966  -12.1721   27.3640 C   0  0  0  0  0  0  0  0  0  0  0  0
    7.2133  -13.0095   26.1980 C   0  0  2  0  0  0  0  0  0  0  0  0
    5.8785  -13.5752   26.5542 C   0  0  0  0  0  0  0  0  0  0  0  0
    8.2620  -14.0631   25.9318 C   0  0  2  0  0  0  0  0  0  0  0  0
    7.9033  -14.9527   24.8586 N   0  0  0  0  0  0  0  0  0  0  0  0
    8.4787  -14.8430   27.1738 C   0  0  0  0  0  0  0  0  0  0  0  0
    8.0832  -16.0280   27.2311 O   0  0  0  0  0  0  0  0  0  0  0  0
    9.1041  -14.3215   28.2883 O   0  0  0  0  0  0  0  0  0  0  0  0
  2  1  1  1
  2  3  1  0
  4  2  1  0
  4  5  1  6
  6  4  1  0
  6 12  1  0
  7  6  2  0
  9  8  1  6
  9 11  1  0
 10  9  1  0
 11 12  1  6
 11 13  1  0
 13 19  1  0
 13 14  2  0
 16 15  1  1
 17 16  1  0
 18 16  1  0
 18 20  1  0
 18 19  1  6
 20 22  1  0
 21 20  2  0
M  END
$$$$
