TTV.pdb
     RDKit          3D

 22 21  0  0  1  0  0  0  0  0999 V2000
    8.8271  -12.3864   19.8319 C   0  0  0  0  0  0  0  0  0  0  0  0
    8.4028  -13.3302   18.7389 C   0  0  1  0  0  0  0  0  0  0  0  0
    9.1225  -13.1182   17.5650 O   0  0  0  0  0  0  0  0  0  0  0  0
    8.4911  -14.7574   19.2039 C   0  0  2  0  0  0  0  0  0  0  0  0
    8.1161  -15.6325   18.1203 N   0  0  0  0  0  0  0  0  0  0  0  0
    7.7222  -15.0162   20.4382 C   0  0  0  0  0  0  0  0  0  0  0  0
    6.4872  -14.8958   20.4149 O   0  0  0  0  0  0  0  0  0  0  0  0
    6.5839  -17.7541   22.2448 C   0  0  0  0  0  0  0  0  0  0  0  0
    7.3958  -17.0105   23.2712 C   0  0  1  0  0  0  0  0  0  0  0  0
    8.6023  -17.6573   23.5319 O   0  0  0  0  0  0  0  0  0  0  0  0
    7.6281  -15.5653   22.8976 C   0  0  2  0  0  0  0  0  0  0  0  0
    8.3338  -15.4020   21.6702 N   0  0  0  0  0  0  0  0  0  0  0  0
    8.2155  -14.8321   24.0334 C   0  0  0  0  0  0  0  0  0  0  0  0
    9.4534  -14.6172   24.0060 O   0  0  0  0  0  0  0  0  0  0  0  0
    5.9053  -13.3226   27.2812 C   0  0  0  0  0  0  0  0  0  0  0  0
    7.1630  -12.5955   26.8522 C   0  0  2  0  0  0  0  0  0  0  0  0
    6.7723  -11.5138   25.9005 C   0  0  0  0  0  0  0  0  0  0  0  0
    8.0948  -13.6199   26.2495 C   0  0  2  0  0  0  0  0  0  0  0  0
    7.4995  -14.3463   25.1588 N   0  0  0  0  0  0  0  0  0  0  0  0
    8.5105  -14.5675   27.3111 C   0  0  0  0  0  0  0  0  0  0  0  0
    8.1412  -15.7607   27.2475 O   0  0  0  0  0  0  0  0  0  0  0  0
    9.2964  -14.1962   28.3834 O   0  0  0  0  0  0  0  0  0  0  0  0
  2  1  1  1
  2  3  1  0
  4  2  1  0
  4  5  1  6
  6  4  1  0
  6 12  1  0
  7  6  2  0
  9  8  1  6
  9 11  1  0
 10  9  1  0
 11 12  1  6
 11 13  1  0
 13 19  1  0
 13 14  2  0
 16 15  1  6
 17 16  1  0
 18 16  1  0
 18 20  1  0
 18 19  1  6
 20 22  1  0
 21 20  2  0
M  END
$$$$
