TTV.pdb
     RDKit          3D

 22 21  0  0  1  0  0  0  0  0999 V2000
   10.8702  -13.6056   19.8545 C   0  0  0  0  0  0  0  0  0  0  0  0
   10.1664  -13.9210   18.5619 C   0  0  1  0  0  0  0  0  0  0  0  0
   11.0476  -13.9303   17.4828 O   0  0  0  0  0  0  0  0  0  0  0  0
    9.3992  -15.2093   18.6740 C   0  0  2  0  0  0  0  0  0  0  0  0
    8.7370  -15.4766   17.4207 N   0  0  0  0  0  0  0  0  0  0  0  0
    8.4744  -15.2380   19.8252 C   0  0  0  0  0  0  0  0  0  0  0  0
    7.3233  -14.7961   19.6843 O   0  0  0  0  0  0  0  0  0  0  0  0
    6.7500  -17.9008   21.4880 C   0  0  0  0  0  0  0  0  0  0  0  0
    7.5486  -17.2357   22.5768 C   0  0  1  0  0  0  0  0  0  0  0  0
    8.6567  -18.0009   22.9352 O   0  0  0  0  0  0  0  0  0  0  0  0
    7.9584  -15.8254   22.2227 C   0  0  2  0  0  0  0  0  0  0  0  0
    8.8412  -15.7535   21.1061 N   0  0  0  0  0  0  0  0  0  0  0  0
    8.4433  -15.1180   23.4215 C   0  0  0  0  0  0  0  0  0  0  0  0
    9.6869  -15.0453   23.5877 O   0  0  0  0  0  0  0  0  0  0  0  0
    7.8699  -11.9737   27.1547 C   0  0  0  0  0  0  0  0  0  0  0  0
    7.1830  -12.7088   26.0224 C   0  0  2  0  0  0  0  0  0  0  0  0
    5.8786  -13.2282   26.5298 C   0  0  0  0  0  0  0  0  0  0  0  0
    8.1215  -13.7947   25.5523 C   0  0  2  0  0  0  0  0  0  0  0  0
    7.6225  -14.5100   24.4073 N   0  0  0  0  0  0  0  0  0  0  0  0
    8.3512  -14.7413   26.6697 C   0  0  0  0  0  0  0  0  0  0  0  0
    7.7873  -15.8576   26.6541 O   0  0  0  0  0  0  0  0  0  0  0  0
    9.1679  -14.4509   27.7440 O   0  0  0  0  0  0  0  0  0  0  0  0
  2  1  1  1
  2  3  1  0
  4  2  1  0
  4  5  1  6
  6  4  1  0
  6 12  1  0
  7  6  2  0
  9  8  1  6
  9 11  1  0
 10  9  1  0
 11 12  1  6
 11 13  1  0
 13 19  1  0
 13 14  2  0
 16 15  1  1
 17 16  1  0
 18 16  1  0
 18 20  1  0
 18 19  1  6
 20 22  1  0
 21 20  2  0
M  END
$$$$
