TTV.pdb
     RDKit          3D

 22 21  0  0  1  0  0  0  0  0999 V2000
   12.0438  -17.9584   22.8198 C   0  0  0  0  0  0  0  0  0  0  0  0
   12.4827  -17.4915   21.4579 C   0  0  1  0  0  0  0  0  0  0  0  0
   13.2905  -18.4334   20.8244 O   0  0  0  0  0  0  0  0  0  0  0  0
   11.2955  -17.1110   20.6173 C   0  0  2  0  0  0  0  0  0  0  0  0
   11.7387  -16.8213   19.2755 N   0  0  0  0  0  0  0  0  0  0  0  0
   10.4948  -16.0164   21.2023 C   0  0  0  0  0  0  0  0  0  0  0  0
   10.9762  -14.8732   21.2431 O   0  0  0  0  0  0  0  0  0  0  0  0
    6.7707  -14.9065   20.4263 C   0  0  0  0  0  0  0  0  0  0  0  0
    6.9486  -15.1979   21.8923 C   0  0  1  0  0  0  0  0  0  0  0  0
    6.3422  -16.4005   22.2495 O   0  0  0  0  0  0  0  0  0  0  0  0
    8.3970  -15.1756   22.3210 C   0  0  2  0  0  0  0  0  0  0  0  0
    9.1808  -16.2083   21.7291 N   0  0  0  0  0  0  0  0  0  0  0  0
    8.4939  -15.1117   23.7904 C   0  0  0  0  0  0  0  0  0  0  0  0
    9.1343  -16.0253   24.3688 O   0  0  0  0  0  0  0  0  0  0  0  0
    5.8954  -12.8882   26.2226 C   0  0  0  0  0  0  0  0  0  0  0  0
    7.3471  -12.8636   26.6543 C   0  0  2  0  0  0  0  0  0  0  0  0
    7.9404  -11.5663   26.2144 C   0  0  0  0  0  0  0  0  0  0  0  0
    8.0209  -14.0706   26.0460 C   0  0  2  0  0  0  0  0  0  0  0  0
    7.9238  -14.1027   24.6103 N   0  0  0  0  0  0  0  0  0  0  0  0
    7.4072  -15.2946   26.6142 C   0  0  0  0  0  0  0  0  0  0  0  0
    6.5085  -15.8841   25.9746 O   0  0  0  0  0  0  0  0  0  0  0  0
    7.7815  -15.8265   27.8317 O   0  0  0  0  0  0  0  0  0  0  0  0
  2  1  1  1
  2  3  1  0
  4  2  1  0
  4  5  1  6
  6  4  1  0
  6 12  1  0
  7  6  2  0
  9  8  1  6
  9 11  1  0
 10  9  1  0
 11 12  1  1
 11 13  1  0
 13 19  1  0
 13 14  2  0
 16 15  1  6
 17 16  1  0
 18 16  1  0
 18 20  1  0
 18 19  1  6
 20 22  1  0
 21 20  2  0
M  END
$$$$
