TTV.pdb
     RDKit          3D

 22 21  0  0  1  0  0  0  0  0999 V2000
    8.5829  -12.3158   19.7267 C   0  0  0  0  0  0  0  0  0  0  0  0
    8.3560  -13.3467   18.6538 C   0  0  1  0  0  0  0  0  0  0  0  0
    9.0965  -13.0701   17.5066 O   0  0  0  0  0  0  0  0  0  0  0  0
    8.6257  -14.7297   19.1788 C   0  0  2  0  0  0  0  0  0  0  0  0
    8.4212  -15.6867   18.1189 N   0  0  0  0  0  0  0  0  0  0  0  0
    7.8524  -15.0519   20.3952 C   0  0  0  0  0  0  0  0  0  0  0  0
    6.6169  -15.1402   20.3176 O   0  0  0  0  0  0  0  0  0  0  0  0
    6.6859  -17.6349   22.0930 C   0  0  0  0  0  0  0  0  0  0  0  0
    7.4859  -16.9518   23.1696 C   0  0  1  0  0  0  0  0  0  0  0  0
    8.6836  -17.6202   23.4155 O   0  0  0  0  0  0  0  0  0  0  0  0
    7.7337  -15.4909   22.8756 C   0  0  2  0  0  0  0  0  0  0  0  0
    8.4601  -15.2692   21.6696 N   0  0  0  0  0  0  0  0  0  0  0  0
    8.3075  -14.8221   24.0571 C   0  0  0  0  0  0  0  0  0  0  0  0
    9.5467  -14.6132   24.0595 O   0  0  0  0  0  0  0  0  0  0  0  0
    5.9120  -13.0820   27.0275 C   0  0  0  0  0  0  0  0  0  0  0  0
    7.3225  -12.5682   26.8249 C   0  0  2  0  0  0  0  0  0  0  0  0
    7.2666  -11.4227   25.8693 C   0  0  0  0  0  0  0  0  0  0  0  0
    8.1589  -13.7244   26.3305 C   0  0  2  0  0  0  0  0  0  0  0  0
    7.5771  -14.3924   25.1961 N   0  0  0  0  0  0  0  0  0  0  0  0
    8.3374  -14.6910   27.4402 C   0  0  0  0  0  0  0  0  0  0  0  0
    7.8411  -15.8349   27.3433 O   0  0  0  0  0  0  0  0  0  0  0  0
    9.0337  -14.3901   28.5934 O   0  0  0  0  0  0  0  0  0  0  0  0
  2  1  1  1
  2  3  1  0
  4  2  1  0
  4  5  1  6
  6  4  1  0
  6 12  1  0
  7  6  2  0
  9  8  1  6
  9 11  1  0
 10  9  1  0
 11 12  1  6
 11 13  1  0
 13 19  1  0
 13 14  2  0
 16 15  1  6
 17 16  1  0
 18 16  1  0
 18 20  1  0
 18 19  1  6
 20 22  1  0
 21 20  2  0
M  END
$$$$
