TTV.pdb
     RDKit          3D

 22 21  0  0  1  0  0  0  0  0999 V2000
    8.6634  -12.4097   19.7119 C   0  0  0  0  0  0  0  0  0  0  0  0
    8.2951  -13.4358   18.6741 C   0  0  1  0  0  0  0  0  0  0  0  0
    8.9871  -13.2359   17.4815 O   0  0  0  0  0  0  0  0  0  0  0  0
    8.4864  -14.8275   19.2102 C   0  0  2  0  0  0  0  0  0  0  0  0
    8.1467  -15.7814   18.1828 N   0  0  0  0  0  0  0  0  0  0  0  0
    7.7623  -15.0691   20.4746 C   0  0  0  0  0  0  0  0  0  0  0  0
    6.5233  -15.1378   20.4556 O   0  0  0  0  0  0  0  0  0  0  0  0
    6.8024  -17.7032   22.3088 C   0  0  0  0  0  0  0  0  0  0  0  0
    7.6288  -16.9375   23.3071 C   0  0  1  0  0  0  0  0  0  0  0  0
    8.8862  -17.5137   23.4758 O   0  0  0  0  0  0  0  0  0  0  0  0
    7.7488  -15.4712   22.9641 C   0  0  2  0  0  0  0  0  0  0  0  0
    8.4222  -15.2291   21.7315 N   0  0  0  0  0  0  0  0  0  0  0  0
    8.2978  -14.7220   24.1086 C   0  0  0  0  0  0  0  0  0  0  0  0
    9.5237  -14.4466   24.0862 O   0  0  0  0  0  0  0  0  0  0  0  0
    6.0294  -13.0630   27.5111 C   0  0  0  0  0  0  0  0  0  0  0  0
    7.2034  -12.4200   26.8021 C   0  0  2  0  0  0  0  0  0  0  0  0
    6.6701  -11.5771   25.6914 C   0  0  0  0  0  0  0  0  0  0  0  0
    8.1119  -13.5310   26.3318 C   0  0  2  0  0  0  0  0  0  0  0  0
    7.5571  -14.2837   25.2376 N   0  0  0  0  0  0  0  0  0  0  0  0
    8.3844  -14.4377   27.4725 C   0  0  0  0  0  0  0  0  0  0  0  0
    7.9401  -15.6065   27.4470 O   0  0  0  0  0  0  0  0  0  0  0  0
    9.1143  -14.0536   28.5793 O   0  0  0  0  0  0  0  0  0  0  0  0
  2  1  1  1
  2  3  1  0
  4  2  1  0
  4  5  1  6
  6  4  1  0
  6 12  1  0
  7  6  2  0
  9  8  1  6
  9 11  1  0
 10  9  1  0
 11 12  1  6
 11 13  1  0
 13 19  1  0
 13 14  2  0
 16 15  1  6
 17 16  1  0
 18 16  1  0
 18 20  1  0
 18 19  1  6
 20 22  1  0
 21 20  2  0
M  END
$$$$
