TTV.pdb
     RDKit          3D

 22 21  0  0  1  0  0  0  0  0999 V2000
   11.2134  -14.6826   20.5532 C   0  0  0  0  0  0  0  0  0  0  0  0
   10.6413  -13.7305   19.5374 C   0  0  1  0  0  0  0  0  0  0  0  0
   11.4068  -13.6952   18.3739 O   0  0  0  0  0  0  0  0  0  0  0  0
    9.2009  -14.0562   19.2546 C   0  0  2  0  0  0  0  0  0  0  0  0
    8.7032  -13.1597   18.2400 N   0  0  0  0  0  0  0  0  0  0  0  0
    8.3580  -14.0695   20.4673 C   0  0  0  0  0  0  0  0  0  0  0  0
    7.6898  -13.0618   20.7475 O   0  0  0  0  0  0  0  0  0  0  0  0
    5.8995  -17.0116   21.6170 C   0  0  0  0  0  0  0  0  0  0  0  0
    6.8144  -16.5956   22.7375 C   0  0  1  0  0  0  0  0  0  0  0  0
    7.7858  -17.5629   22.9872 O   0  0  0  0  0  0  0  0  0  0  0  0
    7.4465  -15.2435   22.5045 C   0  0  2  0  0  0  0  0  0  0  0  0
    8.2717  -15.1945   21.3435 N   0  0  0  0  0  0  0  0  0  0  0  0
    8.1065  -14.7693   23.7341 C   0  0  0  0  0  0  0  0  0  0  0  0
    9.3618  -14.8154   23.7723 O   0  0  0  0  0  0  0  0  0  0  0  0
    5.9702  -13.1985   27.0646 C   0  0  0  0  0  0  0  0  0  0  0  0
    7.3935  -12.7441   26.8152 C   0  0  2  0  0  0  0  0  0  0  0  0
    7.3450  -11.4717   26.0359 C   0  0  0  0  0  0  0  0  0  0  0  0
    8.1068  -13.8639   26.0954 C   0  0  2  0  0  0  0  0  0  0  0  0
    7.4427  -14.2633   24.8825 N   0  0  0  0  0  0  0  0  0  0  0  0
    8.2136  -15.0254   27.0104 C   0  0  0  0  0  0  0  0  0  0  0  0
    7.5968  -16.0790   26.7392 O   0  0  0  0  0  0  0  0  0  0  0  0
    8.9703  -15.0048   28.1647 O   0  0  0  0  0  0  0  0  0  0  0  0
  2  1  1  1
  2  3  1  0
  4  2  1  0
  4  5  1  6
  6  4  1  0
  6 12  1  0
  7  6  2  0
  9  8  1  6
  9 11  1  0
 10  9  1  0
 11 12  1  6
 11 13  1  0
 13 19  1  0
 13 14  2  0
 16 15  1  6
 17 16  1  0
 18 16  1  0
 18 20  1  0
 18 19  1  6
 20 22  1  0
 21 20  2  0
M  END
$$$$
