TTV.pdb
     RDKit          3D

 22 21  0  0  1  0  0  0  0  0999 V2000
   13.6422  -14.4193   21.4122 C   0  0  0  0  0  0  0  0  0  0  0  0
   12.8653  -14.6363   20.1415 C   0  0  1  0  0  0  0  0  0  0  0  0
   13.6955  -14.6402   19.0226 O   0  0  0  0  0  0  0  0  0  0  0  0
   12.0356  -15.8871   20.2318 C   0  0  2  0  0  0  0  0  0  0  0  0
   11.3983  -16.1253   18.9599 N   0  0  0  0  0  0  0  0  0  0  0  0
   11.0774  -15.8702   21.3556 C   0  0  0  0  0  0  0  0  0  0  0  0
   10.0303  -15.2132   21.2445 O   0  0  0  0  0  0  0  0  0  0  0  0
    8.8034  -18.2671   22.6106 C   0  0  0  0  0  0  0  0  0  0  0  0
    9.6574  -17.9337   23.8044 C   0  0  1  0  0  0  0  0  0  0  0  0
   10.5589  -18.9580   24.0873 O   0  0  0  0  0  0  0  0  0  0  0  0
   10.3719  -16.6105   23.6607 C   0  0  2  0  0  0  0  0  0  0  0  0
   11.2965  -16.5787   22.5766 N   0  0  0  0  0  0  0  0  0  0  0  0
   10.9443  -16.1958   24.9541 C   0  0  0  0  0  0  0  0  0  0  0  0
   12.1843  -16.3299   25.1083 O   0  0  0  0  0  0  0  0  0  0  0  0
    8.6506  -14.4937   28.1663 C   0  0  0  0  0  0  0  0  0  0  0  0
   10.1087  -14.1325   27.9710 C   0  0  2  0  0  0  0  0  0  0  0  0
   10.1725  -12.8856   27.1527 C   0  0  0  0  0  0  0  0  0  0  0  0
   10.7848  -15.3154   27.3194 C   0  0  2  0  0  0  0  0  0  0  0  0
   10.2118  -15.6560   26.0438 N   0  0  0  0  0  0  0  0  0  0  0  0
   10.6926  -16.4788   28.2335 C   0  0  0  0  0  0  0  0  0  0  0  0
   11.2886  -16.4445   29.3325 O   0  0  0  0  0  0  0  0  0  0  0  0
    9.9720  -17.6165   27.9305 O   0  0  0  0  0  0  0  0  0  0  0  0
  2  1  1  1
  2  3  1  0
  4  2  1  0
  4  5  1  6
  6  4  1  0
  6 12  1  0
  7  6  2  0
  9  8  1  6
  9 11  1  0
 10  9  1  0
 11 12  1  6
 11 13  1  0
 13 19  1  0
 13 14  2  0
 16 15  1  6
 17 16  1  0
 18 16  1  0
 18 20  1  0
 18 19  1  6
 20 22  1  0
 21 20  2  0
M  END
$$$$
