MDQ.pdb
     RDKit          3D

 26 25  0  0  1  0  0  0  0  0999 V2000
   27.0389  -18.8360   -5.9850 C   0  0  0  0  0  0  0  0  0  0  0  0
   28.4552  -19.8626   -6.4802 S   0  0  0  0  0  0  0  0  0  0  0  0
   27.9536  -20.9922   -7.8243 C   0  0  0  0  0  0  0  0  0  0  0  0
   26.7909  -20.4196   -8.5988 C   0  0  0  0  0  0  0  0  0  0  0  0
   26.4262  -21.3026   -9.7801 C   0  0  2  0  0  0  0  0  0  0  0  0
   27.6275  -22.0186  -10.1633 N   0  0  0  0  0  0  0  0  0  0  0  0
   25.8624  -20.5205  -10.8855 C   0  0  0  0  0  0  0  0  0  0  0  0
   24.8726  -19.7737  -10.8083 O   0  0  0  0  0  0  0  0  0  0  0  0
   26.4842  -20.6034  -12.1793 N   0  0  0  0  0  0  0  0  0  0  0  0
   25.9671  -19.9022  -13.3232 C   0  0  1  0  0  0  0  0  0  0  0  0
   27.1155  -19.7676  -14.3236 C   0  0  0  0  0  0  0  0  0  0  0  0
   26.7193  -18.9182  -15.4770 C   0  0  0  0  0  0  0  0  0  0  0  0
   25.5117  -18.8904  -15.8729 O   0  0  0  0  0  0  0  0  0  0  0  0
   24.7986  -20.5526  -13.9261 C   0  0  0  0  0  0  0  0  0  0  0  0
   24.8264  -21.7874  -14.1342 O   0  0  0  0  0  0  0  0  0  0  0  0
   27.6902  -18.1626  -16.1068 O   0  0  0  0  0  0  0  0  0  0  0  0
   19.7153  -21.6587  -11.8298 N   0  0  0  0  0  0  0  0  0  0  0  0
   19.8958  -20.2576  -11.9587 C   0  0  0  0  0  0  0  0  0  0  0  0
   19.2733  -19.4298  -11.2759 O   0  0  0  0  0  0  0  0  0  0  0  0
   20.8956  -19.8008  -12.9807 C   0  0  0  0  0  0  0  0  0  0  0  0
   21.5615  -20.9487  -13.6518 C   0  0  0  0  0  0  0  0  0  0  0  0
   22.4179  -20.4876  -14.7944 C   0  0  2  0  0  0  0  0  0  0  0  0
   23.6359  -19.8348  -14.2831 N   0  0  0  0  0  0  0  0  0  0  0  0
   21.7127  -19.5984  -15.7217 C   0  0  0  0  0  0  0  0  0  0  0  0
   22.0459  -18.2975  -15.9862 O   0  0  0  0  0  0  0  0  0  0  0  0
   20.6926  -20.0452  -16.3503 O   0  0  0  0  0  0  0  0  0  0  0  0
  2  1  1  0
  3  2  1  0
  4  5  1  0
  4  3  1  0
  5  6  1  6
  7  5  1  0
  7  8  2  0
  9  7  1  0
 10  9  1  0
 10 11  1  6
 12 11  1  0
 13 12  2  0
 14 10  1  0
 14 23  1  0
 15 14  2  0
 16 12  1  0
 17 18  1  0
 18 19  2  0
 18 20  1  0
 20 21  1  0
 22 21  1  1
 22 23  1  0
 22 24  1  0
 24 26  2  0
 24 25  1  0
M  END
$$$$
