MDQ.pdb
     RDKit          3D

 26 25  0  0  1  0  0  0  0  0999 V2000
   30.0767  -19.0747   -6.1545 C   0  0  0  0  0  0  0  0  0  0  0  0
   29.0078  -19.9554   -4.9769 S   0  0  0  0  0  0  0  0  0  0  0  0
   27.4211  -20.3696   -5.7800 C   0  0  0  0  0  0  0  0  0  0  0  0
   27.4227  -19.9326   -7.2252 C   0  0  0  0  0  0  0  0  0  0  0  0
   26.0723  -20.1768   -7.8771 C   0  0  2  0  0  0  0  0  0  0  0  0
   25.6763  -21.5309   -7.5420 N   0  0  0  0  0  0  0  0  0  0  0  0
   26.1221  -19.9487   -9.3251 C   0  0  0  0  0  0  0  0  0  0  0  0
   26.4884  -18.8976   -9.8768 O   0  0  0  0  0  0  0  0  0  0  0  0
   25.7198  -21.0108  -10.2070 N   0  0  0  0  0  0  0  0  0  0  0  0
   25.6515  -20.8371  -11.6327 C   0  0  1  0  0  0  0  0  0  0  0  0
   26.4480  -21.9802  -12.2625 C   0  0  0  0  0  0  0  0  0  0  0  0
   27.7577  -21.4978  -12.7731 C   0  0  0  0  0  0  0  0  0  0  0  0
   27.8113  -20.5451  -13.6128 O   0  0  0  0  0  0  0  0  0  0  0  0
   24.2791  -20.7863  -12.1484 C   0  0  0  0  0  0  0  0  0  0  0  0
   23.4113  -21.5398  -11.6505 O   0  0  0  0  0  0  0  0  0  0  0  0
   28.9111  -22.1067  -12.3160 O   0  0  0  0  0  0  0  0  0  0  0  0
   22.2207  -17.2899  -17.0168 N   0  0  0  0  0  0  0  0  0  0  0  0
   20.9968  -17.8581  -16.5793 C   0  0  0  0  0  0  0  0  0  0  0  0
   19.9106  -17.6356  -17.1357 O   0  0  0  0  0  0  0  0  0  0  0  0
   21.0665  -18.7638  -15.3844 C   0  0  0  0  0  0  0  0  0  0  0  0
   22.4616  -18.9252  -14.8957 C   0  0  0  0  0  0  0  0  0  0  0  0
   22.5188  -19.8408  -13.7082 C   0  0  2  0  0  0  0  0  0  0  0  0
   23.8968  -19.9146  -13.1916 N   0  0  0  0  0  0  0  0  0  0  0  0
   22.0065  -21.1845  -13.9906 C   0  0  0  0  0  0  0  0  0  0  0  0
   22.6650  -22.1562  -14.6945 O   0  0  0  0  0  0  0  0  0  0  0  0
   20.8464  -21.5063  -13.5591 O   0  0  0  0  0  0  0  0  0  0  0  0
  2  1  1  0
  3  2  1  0
  4  5  1  0
  4  3  1  0
  5  6  1  6
  7  5  1  0
  7  8  2  0
  9  7  1  0
 10  9  1  0
 10 11  1  6
 12 11  1  0
 13 12  2  0
 14 10  1  0
 14 23  1  0
 15 14  2  0
 16 12  1  0
 17 18  1  0
 18 19  2  0
 18 20  1  0
 20 21  1  0
 22 21  1  6
 22 23  1  0
 22 24  1  0
 24 26  2  0
 24 25  1  0
M  END
$$$$
