MDQ.pdb
     RDKit          3D

 26 25  0  0  1  0  0  0  0  0999 V2000
   22.1936  -16.5781  -20.7658 C   0  0  0  0  0  0  0  0  0  0  0  0
   21.0836  -15.2348  -20.2475 S   0  0  0  0  0  0  0  0  0  0  0  0
   22.0672  -13.7571  -19.8198 C   0  0  0  0  0  0  0  0  0  0  0  0
   21.1850  -12.6748  -19.2453 C   0  0  0  0  0  0  0  0  0  0  0  0
   21.9933  -11.4432  -18.8739 C   0  0  2  0  0  0  0  0  0  0  0  0
   23.0304  -11.8750  -17.9572 N   0  0  0  0  0  0  0  0  0  0  0  0
   21.1442  -10.3910  -18.3053 C   0  0  0  0  0  0  0  0  0  0  0  0
   20.1921   -9.8419  -18.8844 O   0  0  0  0  0  0  0  0  0  0  0  0
   21.4102   -9.9347  -16.9679 N   0  0  0  0  0  0  0  0  0  0  0  0
   20.6065   -8.9282  -16.3287 C   0  0  1  0  0  0  0  0  0  0  0  0
   20.6748   -9.1886  -14.8237 C   0  0  0  0  0  0  0  0  0  0  0  0
   19.7680   -8.2727  -14.0837 C   0  0  0  0  0  0  0  0  0  0  0  0
   20.0466   -7.0372  -13.9759 O   0  0  0  0  0  0  0  0  0  0  0  0
   21.0161   -7.5589  -16.6594 C   0  0  0  0  0  0  0  0  0  0  0  0
   22.2118   -7.2231  -16.4974 O   0  0  0  0  0  0  0  0  0  0  0  0
   18.6195   -8.7932  -13.5177 O   0  0  0  0  0  0  0  0  0  0  0  0
   20.7784   -4.4880  -21.5562 N   0  0  0  0  0  0  0  0  0  0  0  0
   20.8986   -3.3369  -20.7359 C   0  0  0  0  0  0  0  0  0  0  0  0
   21.1526   -2.2092  -21.1860 O   0  0  0  0  0  0  0  0  0  0  0  0
   20.7016   -3.5396  -19.2618 C   0  0  0  0  0  0  0  0  0  0  0  0
   20.3971   -4.9583  -18.9363 C   0  0  0  0  0  0  0  0  0  0  0  0
   20.4971   -5.2105  -17.4606 C   0  0  2  0  0  0  0  0  0  0  0  0
   20.1076   -6.5988  -17.1566 N   0  0  0  0  0  0  0  0  0  0  0  0
   19.7068   -4.2714  -16.6599 C   0  0  0  0  0  0  0  0  0  0  0  0
   20.0586   -2.9813  -16.3682 O   0  0  0  0  0  0  0  0  0  0  0  0
   18.5896   -4.6615  -16.1750 O   0  0  0  0  0  0  0  0  0  0  0  0
  2  1  1  0
  3  2  1  0
  4  5  1  0
  4  3  1  0
  5  6  1  1
  7  5  1  0
  7  8  2  0
  9  7  1  0
 10  9  1  0
 10 11  1  1
 12 11  1  0
 13 12  2  0
 14 10  1  0
 14 23  1  0
 15 14  2  0
 16 12  1  0
 17 18  1  0
 18 19  2  0
 18 20  1  0
 20 21  1  0
 22 21  1  6
 22 23  1  0
 22 24  1  0
 24 26  2  0
 24 25  1  0
M  END
$$$$
