MDQ.pdb
     RDKit          3D

 26 25  0  0  1  0  0  0  0  0999 V2000
   27.4666  -18.3371   -6.8265 C   0  0  0  0  0  0  0  0  0  0  0  0
   28.6142  -19.7213   -7.0946 S   0  0  0  0  0  0  0  0  0  0  0  0
   27.8851  -20.9012   -8.2822 C   0  0  0  0  0  0  0  0  0  0  0  0
   26.7128  -20.2798   -9.0027 C   0  0  0  0  0  0  0  0  0  0  0  0
   26.1041  -21.2475  -10.0033 C   0  0  2  0  0  0  0  0  0  0  0  0
   27.1823  -21.7175  -10.8513 N   0  0  0  0  0  0  0  0  0  0  0  0
   25.0200  -20.6227  -10.7685 C   0  0  0  0  0  0  0  0  0  0  0  0
   24.0323  -20.0479  -10.2811 O   0  0  0  0  0  0  0  0  0  0  0  0
   25.0755  -20.6614  -12.2048 N   0  0  0  0  0  0  0  0  0  0  0  0
   24.0422  -20.0912  -13.0262 C   0  0  1  0  0  0  0  0  0  0  0  0
   24.6618  -19.8095  -14.3953 C   0  0  0  0  0  0  0  0  0  0  0  0
   23.7059  -19.0850  -15.2729 C   0  0  0  0  0  0  0  0  0  0  0  0
   22.5506  -18.7698  -14.8467 O   0  0  0  0  0  0  0  0  0  0  0  0
   22.8507  -20.9399  -13.1365 C   0  0  0  0  0  0  0  0  0  0  0  0
   22.9687  -22.1028  -13.5864 O   0  0  0  0  0  0  0  0  0  0  0  0
   24.1005  -18.7633  -16.5578 O   0  0  0  0  0  0  0  0  0  0  0  0
   20.1622  -22.8131   -8.6420 N   0  0  0  0  0  0  0  0  0  0  0  0
   19.1774  -23.3171   -9.5299 C   0  0  0  0  0  0  0  0  0  0  0  0
   18.3158  -24.1411   -9.1872 O   0  0  0  0  0  0  0  0  0  0  0  0
   19.2175  -22.8020  -10.9391 C   0  0  0  0  0  0  0  0  0  0  0  0
   20.3112  -21.8134  -11.1337 C   0  0  0  0  0  0  0  0  0  0  0  0
   20.4231  -21.4033  -12.5728 C   0  0  2  0  0  0  0  0  0  0  0  0
   21.5675  -20.4926  -12.7523 N   0  0  0  0  0  0  0  0  0  0  0  0
   19.1976  -20.7928  -13.0956 C   0  0  0  0  0  0  0  0  0  0  0  0
   18.1836  -21.4590  -13.7291 O   0  0  0  0  0  0  0  0  0  0  0  0
   19.0333  -19.5310  -12.9679 O   0  0  0  0  0  0  0  0  0  0  0  0
  2  1  1  0
  3  2  1  0
  4  5  1  0
  4  3  1  0
  5  6  1  6
  7  5  1  0
  7  8  2  0
  9  7  1  0
 10  9  1  0
 10 11  1  6
 12 11  1  0
 13 12  2  0
 14 10  1  0
 14 23  1  0
 15 14  2  0
 16 12  1  0
 17 18  1  0
 18 19  2  0
 18 20  1  0
 20 21  1  0
 22 21  1  1
 22 23  1  0
 22 24  1  0
 24 26  2  0
 24 25  1  0
M  END
$$$$
