MDQ.pdb
     RDKit          3D

 26 25  0  0  1  0  0  0  0  0999 V2000
   26.9301  -12.6365  -15.7204 C   0  0  0  0  0  0  0  0  0  0  0  0
   25.7406  -11.2633  -15.6549 S   0  0  0  0  0  0  0  0  0  0  0  0
   24.6344  -11.3403  -17.1055 C   0  0  0  0  0  0  0  0  0  0  0  0
   23.6245  -10.2186  -17.0687 C   0  0  0  0  0  0  0  0  0  0  0  0
   22.3470  -10.6489  -16.3681 C   0  0  2  0  0  0  0  0  0  0  0  0
   21.8130  -11.7747  -17.1097 N   0  0  0  0  0  0  0  0  0  0  0  0
   21.3901   -9.5424  -16.2616 C   0  0  0  0  0  0  0  0  0  0  0  0
   20.6428   -9.1459  -17.1714 O   0  0  0  0  0  0  0  0  0  0  0  0
   21.2839   -8.8374  -15.0129 N   0  0  0  0  0  0  0  0  0  0  0  0
   20.4487   -7.6772  -14.8578 C   0  0  1  0  0  0  0  0  0  0  0  0
   20.1092   -7.5644  -13.3713 C   0  0  0  0  0  0  0  0  0  0  0  0
   19.0604   -8.5457  -12.9893 C   0  0  0  0  0  0  0  0  0  0  0  0
   18.7273   -8.6926  -11.7714 O   0  0  0  0  0  0  0  0  0  0  0  0
   21.0617   -6.4456  -15.3671 C   0  0  0  0  0  0  0  0  0  0  0  0
   22.0687   -5.9792  -14.7865 O   0  0  0  0  0  0  0  0  0  0  0  0
   18.4581   -9.2917  -13.9847 O   0  0  0  0  0  0  0  0  0  0  0  0
   22.8901   -5.1711  -20.7392 N   0  0  0  0  0  0  0  0  0  0  0  0
   21.4744   -5.2567  -20.7103 C   0  0  0  0  0  0  0  0  0  0  0  0
   20.7912   -5.5075  -21.7150 O   0  0  0  0  0  0  0  0  0  0  0  0
   20.8150   -5.0259  -19.3819 C   0  0  0  0  0  0  0  0  0  0  0  0
   21.8100   -4.7348  -18.3158 C   0  0  0  0  0  0  0  0  0  0  0  0
   21.1381   -4.5033  -16.9942 C   0  0  2  0  0  0  0  0  0  0  0  0
   20.5564   -5.7615  -16.4945 N   0  0  0  0  0  0  0  0  0  0  0  0
   20.1177   -3.4524  -17.0420 C   0  0  0  0  0  0  0  0  0  0  0  0
   18.7732   -3.6394  -16.8674 O   0  0  0  0  0  0  0  0  0  0  0  0
   20.4823   -2.2476  -17.2678 O   0  0  0  0  0  0  0  0  0  0  0  0
  2  1  1  0
  3  2  1  0
  4  5  1  0
  4  3  1  0
  5  6  1  6
  7  5  1  0
  7  8  2  0
  9  7  1  0
 10  9  1  0
 10 11  1  1
 12 11  1  0
 13 12  2  0
 14 10  1  0
 14 23  1  0
 15 14  2  0
 16 12  1  0
 17 18  1  0
 18 19  2  0
 18 20  1  0
 20 21  1  0
 22 21  1  6
 22 23  1  0
 22 24  1  0
 24 26  2  0
 24 25  1  0
M  END
$$$$
