MDQ.pdb
     RDKit          3D

 26 25  0  0  1  0  0  0  0  0999 V2000
   29.7787  -19.5323  -11.7721 C   0  0  0  0  0  0  0  0  0  0  0  0
   29.6553  -21.1635  -10.9790 S   0  0  0  0  0  0  0  0  0  0  0  0
   28.0638  -21.9417  -11.4215 C   0  0  0  0  0  0  0  0  0  0  0  0
   26.9724  -20.9040  -11.5298 C   0  0  0  0  0  0  0  0  0  0  0  0
   25.6258  -21.5471  -11.8145 C   0  0  2  0  0  0  0  0  0  0  0  0
   25.8696  -22.6754  -12.6919 N   0  0  0  0  0  0  0  0  0  0  0  0
   24.6780  -20.5853  -12.3873 C   0  0  0  0  0  0  0  0  0  0  0  0
   24.1967  -19.6065  -11.7926 O   0  0  0  0  0  0  0  0  0  0  0  0
   24.2506  -20.7623  -13.7487 N   0  0  0  0  0  0  0  0  0  0  0  0
   23.3194  -19.8675  -14.3809 C   0  0  1  0  0  0  0  0  0  0  0  0
   23.9828  -19.3617  -15.6622 C   0  0  0  0  0  0  0  0  0  0  0  0
   23.1050  -18.3926  -16.3688 C   0  0  0  0  0  0  0  0  0  0  0  0
   22.3612  -17.5983  -15.7121 O   0  0  0  0  0  0  0  0  0  0  0  0
   22.0151  -20.4811  -14.6535 C   0  0  0  0  0  0  0  0  0  0  0  0
   21.9603  -21.5063  -15.3709 O   0  0  0  0  0  0  0  0  0  0  0  0
   23.1162  -18.3752  -17.7508 O   0  0  0  0  0  0  0  0  0  0  0  0
   17.6870  -21.5754  -10.8082 N   0  0  0  0  0  0  0  0  0  0  0  0
   18.9272  -22.2106  -11.0743 C   0  0  0  0  0  0  0  0  0  0  0  0
   19.4804  -22.9775  -10.2713 O   0  0  0  0  0  0  0  0  0  0  0  0
   19.5632  -21.9122  -12.4006 C   0  0  0  0  0  0  0  0  0  0  0  0
   18.7835  -20.9084  -13.1725 C   0  0  0  0  0  0  0  0  0  0  0  0
   19.4895  -20.5311  -14.4416 C   0  0  2  0  0  0  0  0  0  0  0  0
   20.8111  -19.9564  -14.1343 N   0  0  0  0  0  0  0  0  0  0  0  0
   18.7156  -19.6122  -15.2810 C   0  0  0  0  0  0  0  0  0  0  0  0
   19.1386  -18.3867  -15.7197 O   0  0  0  0  0  0  0  0  0  0  0  0
   17.5395  -19.9541  -15.6490 O   0  0  0  0  0  0  0  0  0  0  0  0
  2  1  1  0
  3  2  1  0
  4  5  1  0
  4  3  1  0
  5  6  1  6
  7  5  1  0
  7  8  2  0
  9  7  1  0
 10  9  1  0
 10 11  1  6
 12 11  1  0
 13 12  2  0
 14 10  1  0
 14 23  1  0
 15 14  2  0
 16 12  1  0
 17 18  1  0
 18 19  2  0
 18 20  1  0
 20 21  1  0
 22 21  1  1
 22 23  1  0
 22 24  1  0
 24 26  2  0
 24 25  1  0
M  END
$$$$
