MDQ.pdb
     RDKit          3D

 26 25  0  0  1  0  0  0  0  0999 V2000
   27.9359  -13.9616  -15.3887 C   0  0  0  0  0  0  0  0  0  0  0  0
   26.9293  -15.4745  -15.3351 S   0  0  0  0  0  0  0  0  0  0  0  0
   25.3083  -15.1606  -16.1149 C   0  0  0  0  0  0  0  0  0  0  0  0
   25.0134  -13.6805  -16.1594 C   0  0  0  0  0  0  0  0  0  0  0  0
   23.6302  -13.4102  -16.7266 C   0  0  2  0  0  0  0  0  0  0  0  0
   23.5168  -14.1733  -17.9543 N   0  0  0  0  0  0  0  0  0  0  0  0
   23.4021  -11.9762  -16.9341 C   0  0  0  0  0  0  0  0  0  0  0  0
   23.3893  -11.1121  -16.0417 O   0  0  0  0  0  0  0  0  0  0  0  0
   23.1709  -11.4988  -18.2706 N   0  0  0  0  0  0  0  0  0  0  0  0
   22.9573  -10.1065  -18.5596 C   0  0  1  0  0  0  0  0  0  0  0  0
   22.6698   -9.9983  -20.0573 C   0  0  0  0  0  0  0  0  0  0  0  0
   23.1993   -8.7242  -20.6099 C   0  0  0  0  0  0  0  0  0  0  0  0
   24.4442   -8.5817  -20.8232 O   0  0  0  0  0  0  0  0  0  0  0  0
   21.8868   -9.5028  -17.7587 C   0  0  0  0  0  0  0  0  0  0  0  0
   20.7349   -9.9917  -17.8111 O   0  0  0  0  0  0  0  0  0  0  0  0
   22.3104   -7.7022  -20.8850 O   0  0  0  0  0  0  0  0  0  0  0  0
   20.8909   -9.3967  -12.2543 N   0  0  0  0  0  0  0  0  0  0  0  0
   19.9141   -8.4061  -12.5313 C   0  0  0  0  0  0  0  0  0  0  0  0
   19.0775   -8.0290  -11.6966 O   0  0  0  0  0  0  0  0  0  0  0  0
   19.9305   -7.8145  -13.9106 C   0  0  0  0  0  0  0  0  0  0  0  0
   20.9992   -8.4124  -14.7542 C   0  0  0  0  0  0  0  0  0  0  0  0
   21.0433   -7.7715  -16.1102 C   0  0  2  0  0  0  0  0  0  0  0  0
   22.1070   -8.3840  -16.9255 N   0  0  0  0  0  0  0  0  0  0  0  0
   21.2150   -6.3172  -16.0556 C   0  0  0  0  0  0  0  0  0  0  0  0
   20.2433   -5.4124  -15.7230 O   0  0  0  0  0  0  0  0  0  0  0  0
   22.3579   -5.8192  -16.3411 O   0  0  0  0  0  0  0  0  0  0  0  0
  2  1  1  0
  3  2  1  0
  4  5  1  0
  4  3  1  0
  5  6  1  6
  7  5  1  0
  7  8  2  0
  9  7  1  0
 10  9  1  0
 10 11  1  6
 12 11  1  0
 13 12  2  0
 14 10  1  0
 14 23  1  0
 15 14  2  0
 16 12  1  0
 17 18  1  0
 18 19  2  0
 18 20  1  0
 20 21  1  0
 22 21  1  1
 22 23  1  0
 22 24  1  0
 24 26  2  0
 24 25  1  0
M  END
$$$$
