MDQ.pdb
     RDKit          3D

 26 25  0  0  1  0  0  0  0  0999 V2000
   26.3322  -26.3469  -15.0840 C   0  0  0  0  0  0  0  0  0  0  0  0
   26.4229  -25.2492  -16.5304 S   0  0  0  0  0  0  0  0  0  0  0  0
   26.6072  -23.5190  -15.9766 C   0  0  0  0  0  0  0  0  0  0  0  0
   25.4692  -23.1242  -15.0664 C   0  0  0  0  0  0  0  0  0  0  0  0
   24.1253  -23.3134  -15.7492 C   0  0  2  0  0  0  0  0  0  0  0  0
   24.1090  -22.4399  -16.9066 N   0  0  0  0  0  0  0  0  0  0  0  0
   23.0113  -23.0503  -14.8320 C   0  0  0  0  0  0  0  0  0  0  0  0
   22.8771  -23.5457  -13.7007 O   0  0  0  0  0  0  0  0  0  0  0  0
   21.9715  -22.1482  -15.2473 N   0  0  0  0  0  0  0  0  0  0  0  0
   20.7571  -21.9822  -14.4955 C   0  0  1  0  0  0  0  0  0  0  0  0
   19.9696  -20.8522  -15.1592 C   0  0  0  0  0  0  0  0  0  0  0  0
   20.4777  -19.5242  -14.7265 C   0  0  0  0  0  0  0  0  0  0  0  0
   20.7624  -18.6314  -15.5852 O   0  0  0  0  0  0  0  0  0  0  0  0
   19.9607  -23.2103  -14.3965 C   0  0  0  0  0  0  0  0  0  0  0  0
   20.3168  -24.2228  -15.0420 O   0  0  0  0  0  0  0  0  0  0  0  0
   20.6331  -19.2837  -13.3743 O   0  0  0  0  0  0  0  0  0  0  0  0
   19.3769  -25.0300   -9.4065 N   0  0  0  0  0  0  0  0  0  0  0  0
   19.0801  -26.2956   -9.9743 C   0  0  0  0  0  0  0  0  0  0  0  0
   18.8057  -27.2951   -9.2926 O   0  0  0  0  0  0  0  0  0  0  0  0
   19.1113  -26.3833  -11.4723 C   0  0  0  0  0  0  0  0  0  0  0  0
   19.4895  -25.0858  -12.0926 C   0  0  0  0  0  0  0  0  0  0  0  0
   18.3735  -24.5403  -12.9344 C   0  0  2  0  0  0  0  0  0  0  0  0
   18.8005  -23.2947  -13.5959 N   0  0  0  0  0  0  0  0  0  0  0  0
   17.1366  -24.3199  -12.1800 C   0  0  0  0  0  0  0  0  0  0  0  0
   16.1455  -25.2441  -11.9879 O   0  0  0  0  0  0  0  0  0  0  0  0
   16.9345  -23.1755  -11.6462 O   0  0  0  0  0  0  0  0  0  0  0  0
  2  1  1  0
  3  2  1  0
  4  5  1  0
  4  3  1  0
  5  6  1  6
  7  5  1  0
  7  8  2  0
  9  7  1  0
 10  9  1  0
 10 11  1  6
 12 11  1  0
 13 12  2  0
 14 10  1  0
 14 23  1  0
 15 14  2  0
 16 12  1  0
 17 18  1  0
 18 19  2  0
 18 20  1  0
 20 21  1  0
 22 21  1  1
 22 23  1  0
 22 24  1  0
 24 26  2  0
 24 25  1  0
M  END
$$$$
