MDQ.pdb
     RDKit          3D

 26 25  0  0  1  0  0  0  0  0999 V2000
   30.1100  -10.2554  -18.0381 C   0  0  0  0  0  0  0  0  0  0  0  0
   29.9428  -11.7242  -16.9800 S   0  0  0  0  0  0  0  0  0  0  0  0
   28.6149  -12.7979  -17.6265 C   0  0  0  0  0  0  0  0  0  0  0  0
   27.3462  -12.0086  -17.8430 C   0  0  0  0  0  0  0  0  0  0  0  0
   26.7114  -11.6108  -16.5213 C   0  0  2  0  0  0  0  0  0  0  0  0
   26.3995  -12.8368  -15.8126 N   0  0  0  0  0  0  0  0  0  0  0  0
   25.5315  -10.7630  -16.7221 C   0  0  0  0  0  0  0  0  0  0  0  0
   25.5128   -9.6908  -17.3493 O   0  0  0  0  0  0  0  0  0  0  0  0
   24.2761  -11.1799  -16.1585 N   0  0  0  0  0  0  0  0  0  0  0  0
   23.0558  -10.4545  -16.3877 C   0  0  1  0  0  0  0  0  0  0  0  0
   21.9023  -11.4228  -16.1242 C   0  0  0  0  0  0  0  0  0  0  0  0
   20.5951  -10.7930  -16.4461 C   0  0  0  0  0  0  0  0  0  0  0  0
   19.9879  -10.0884  -15.5798 O   0  0  0  0  0  0  0  0  0  0  0  0
   22.9384   -9.2398  -15.5737 C   0  0  0  0  0  0  0  0  0  0  0  0
   23.3092   -9.2678  -14.3777 O   0  0  0  0  0  0  0  0  0  0  0  0
   20.0572  -10.9905  -17.7038 O   0  0  0  0  0  0  0  0  0  0  0  0
   22.5894   -3.3948  -17.7639 N   0  0  0  0  0  0  0  0  0  0  0  0
   22.4926   -3.1297  -16.3737 C   0  0  0  0  0  0  0  0  0  0  0  0
   22.4556   -1.9817  -15.9050 O   0  0  0  0  0  0  0  0  0  0  0  0
   22.4351   -4.3230  -15.4652 C   0  0  0  0  0  0  0  0  0  0  0  0
   22.4461   -5.5986  -16.2294 C   0  0  0  0  0  0  0  0  0  0  0  0
   22.3723   -6.7829  -15.3109 C   0  0  2  0  0  0  0  0  0  0  0  0
   22.4198   -8.0322  -16.0906 N   0  0  0  0  0  0  0  0  0  0  0  0
   21.1917   -6.7671  -14.4428 C   0  0  0  0  0  0  0  0  0  0  0  0
   19.9887   -7.3562  -14.7239 O   0  0  0  0  0  0  0  0  0  0  0  0
   21.2579   -6.1558  -13.3215 O   0  0  0  0  0  0  0  0  0  0  0  0
  2  1  1  0
  3  2  1  0
  4  5  1  0
  4  3  1  0
  5  6  1  6
  7  5  1  0
  7  8  2  0
  9  7  1  0
 10  9  1  0
 10 11  1  1
 12 11  1  0
 13 12  2  0
 14 10  1  0
 14 23  1  0
 15 14  2  0
 16 12  1  0
 17 18  1  0
 18 19  2  0
 18 20  1  0
 20 21  1  0
 22 21  1  6
 22 23  1  0
 22 24  1  0
 24 26  2  0
 24 25  1  0
M  END
$$$$
