MDQ.pdb
     RDKit          3D

 26 25  0  0  1  0  0  0  0  0999 V2000
   18.5181  -15.4407  -15.2984 C   0  0  0  0  0  0  0  0  0  0  0  0
   18.9103  -13.6838  -15.5527 S   0  0  0  0  0  0  0  0  0  0  0  0
   17.3795  -12.6933  -15.4545 C   0  0  0  0  0  0  0  0  0  0  0  0
   17.6750  -11.2285  -15.6708 C   0  0  0  0  0  0  0  0  0  0  0  0
   16.4471  -10.3732  -15.4084 C   0  0  2  0  0  0  0  0  0  0  0  0
   15.3747  -10.9054  -16.2266 N   0  0  0  0  0  0  0  0  0  0  0  0
   16.7084   -8.9555  -15.6786 C   0  0  0  0  0  0  0  0  0  0  0  0
   16.0943   -8.2531  -16.4990 O   0  0  0  0  0  0  0  0  0  0  0  0
   17.7564   -8.2940  -14.9495 N   0  0  0  0  0  0  0  0  0  0  0  0
   18.0494   -6.8976  -15.1282 C   0  0  1  0  0  0  0  0  0  0  0  0
   16.7759   -6.1246  -14.7844 C   0  0  0  0  0  0  0  0  0  0  0  0
   16.9876   -4.6604  -14.9270 C   0  0  0  0  0  0  0  0  0  0  0  0
   17.6273   -4.1951  -15.9219 O   0  0  0  0  0  0  0  0  0  0  0  0
   19.1930   -6.4359  -14.3339 C   0  0  0  0  0  0  0  0  0  0  0  0
   19.1751   -6.5893  -13.0910 O   0  0  0  0  0  0  0  0  0  0  0  0
   16.4750   -3.8201  -13.9568 O   0  0  0  0  0  0  0  0  0  0  0  0
   24.6659   -7.6828  -16.0516 N   0  0  0  0  0  0  0  0  0  0  0  0
   23.7377   -8.4795  -15.3334 C   0  0  0  0  0  0  0  0  0  0  0  0
   23.8298   -9.7137  -15.2476 O   0  0  0  0  0  0  0  0  0  0  0  0
   22.6080   -7.7539  -14.6625 C   0  0  0  0  0  0  0  0  0  0  0  0
   22.7131   -6.2818  -14.8448 C   0  0  0  0  0  0  0  0  0  0  0  0
   21.5705   -5.5695  -14.1824 C   0  0  2  0  0  0  0  0  0  0  0  0
   20.3205   -5.8209  -14.9211 N   0  0  0  0  0  0  0  0  0  0  0  0
   21.7960   -4.1290  -14.0356 C   0  0  0  0  0  0  0  0  0  0  0  0
   22.5804   -3.5389  -13.0816 O   0  0  0  0  0  0  0  0  0  0  0  0
   21.2222   -3.3278  -14.8507 O   0  0  0  0  0  0  0  0  0  0  0  0
  2  1  1  0
  3  2  1  0
  4  5  1  0
  4  3  1  0
  5  6  1  6
  7  5  1  0
  7  8  2  0
  9  7  1  0
 10  9  1  0
 10 11  1  1
 12 11  1  0
 13 12  2  0
 14 10  1  0
 14 23  1  0
 15 14  2  0
 16 12  1  0
 17 18  1  0
 18 19  2  0
 18 20  1  0
 20 21  1  0
 22 21  1  6
 22 23  1  0
 22 24  1  0
 24 26  2  0
 24 25  1  0
M  END
$$$$
