MDQ.pdb
     RDKit          3D

 26 25  0  0  1  0  0  0  0  0999 V2000
   17.9940  -15.7148  -13.1397 C   0  0  0  0  0  0  0  0  0  0  0  0
   17.5686  -13.9875  -12.7651 S   0  0  0  0  0  0  0  0  0  0  0  0
   17.3997  -13.0461  -14.3205 C   0  0  0  0  0  0  0  0  0  0  0  0
   17.1531  -11.5838  -14.0371 C   0  0  0  0  0  0  0  0  0  0  0  0
   15.9431  -11.3922  -13.1386 C   0  0  2  0  0  0  0  0  0  0  0  0
   14.7893  -11.8812  -13.8682 N   0  0  0  0  0  0  0  0  0  0  0  0
   15.7935   -9.9931  -12.7247 C   0  0  0  0  0  0  0  0  0  0  0  0
   15.2906   -9.0882  -13.4115 O   0  0  0  0  0  0  0  0  0  0  0  0
   16.2579   -9.6040  -11.4207 N   0  0  0  0  0  0  0  0  0  0  0  0
   16.1968   -8.2428  -10.9612 C   0  0  1  0  0  0  0  0  0  0  0  0
   16.0632   -8.2889   -9.4388 C   0  0  0  0  0  0  0  0  0  0  0  0
   15.8334   -6.9295   -8.8837 C   0  0  0  0  0  0  0  0  0  0  0  0
   16.7041   -6.3822   -8.1366 O   0  0  0  0  0  0  0  0  0  0  0  0
   17.3479   -7.4348  -11.3786 C   0  0  0  0  0  0  0  0  0  0  0  0
   18.5039   -7.8880  -11.2144 O   0  0  0  0  0  0  0  0  0  0  0  0
   14.6560   -6.2771   -9.1971 O   0  0  0  0  0  0  0  0  0  0  0  0
   20.3307   -4.8145  -15.3344 N   0  0  0  0  0  0  0  0  0  0  0  0
   21.1521   -5.5322  -14.4276 C   0  0  0  0  0  0  0  0  0  0  0  0
   22.3909   -5.4686  -14.4412 O   0  0  0  0  0  0  0  0  0  0  0  0
   20.4471   -6.3961  -13.4228 C   0  0  0  0  0  0  0  0  0  0  0  0
   18.9734   -6.3815  -13.6208 C   0  0  0  0  0  0  0  0  0  0  0  0
   18.3035   -5.4583  -12.6459 C   0  0  2  0  0  0  0  0  0  0  0  0
   17.2011   -6.1572  -11.9621 N   0  0  0  0  0  0  0  0  0  0  0  0
   17.8187   -4.2206  -13.2630 C   0  0  0  0  0  0  0  0  0  0  0  0
   18.6008   -3.1715  -13.6643 O   0  0  0  0  0  0  0  0  0  0  0  0
   16.5623   -4.0764  -13.4531 O   0  0  0  0  0  0  0  0  0  0  0  0
  2  1  1  0
  3  2  1  0
  4  5  1  0
  4  3  1  0
  5  6  1  6
  7  5  1  0
  7  8  2  0
  9  7  1  0
 10  9  1  0
 10 11  1  1
 12 11  1  0
 13 12  2  0
 14 10  1  0
 14 23  1  0
 15 14  2  0
 16 12  1  0
 17 18  1  0
 18 19  2  0
 18 20  1  0
 20 21  1  0
 22 21  1  6
 22 23  1  0
 22 24  1  0
 24 26  2  0
 24 25  1  0
M  END
$$$$
