MDQ.pdb
     RDKit          3D

 26 25  0  0  1  0  0  0  0  0999 V2000
   24.4157  -22.9437  -19.5225 C   0  0  0  0  0  0  0  0  0  0  0  0
   23.0386  -21.9852  -20.2224 S   0  0  0  0  0  0  0  0  0  0  0  0
   22.3207  -20.9113  -18.9319 C   0  0  0  0  0  0  0  0  0  0  0  0
   21.9983  -21.7083  -17.6907 C   0  0  0  0  0  0  0  0  0  0  0  0
   20.8724  -22.6958  -17.9458 C   0  0  2  0  0  0  0  0  0  0  0  0
   19.6668  -21.9201  -18.1635 N   0  0  0  0  0  0  0  0  0  0  0  0
   20.7325  -23.6525  -16.8429 C   0  0  0  0  0  0  0  0  0  0  0  0
   21.6264  -24.4086  -16.4271 O   0  0  0  0  0  0  0  0  0  0  0  0
   19.4676  -23.7476  -16.1658 N   0  0  0  0  0  0  0  0  0  0  0  0
   19.2335  -24.6970  -15.1116 C   0  0  1  0  0  0  0  0  0  0  0  0
   17.7843  -24.5162  -14.6589 C   0  0  0  0  0  0  0  0  0  0  0  0
   17.6301  -23.2786  -13.8504 C   0  0  0  0  0  0  0  0  0  0  0  0
   18.4857  -22.9795  -12.9593 O   0  0  0  0  0  0  0  0  0  0  0  0
   19.5079  -26.0835  -15.5045 C   0  0  0  0  0  0  0  0  0  0  0  0
   20.3894  -26.3115  -16.3646 O   0  0  0  0  0  0  0  0  0  0  0  0
   16.5393  -22.4640  -14.0890 O   0  0  0  0  0  0  0  0  0  0  0  0
   22.8687  -29.0199  -16.4717 N   0  0  0  0  0  0  0  0  0  0  0  0
   22.2286  -30.2669  -16.2543 C   0  0  0  0  0  0  0  0  0  0  0  0
   22.6919  -31.3445  -16.6582 O   0  0  0  0  0  0  0  0  0  0  0  0
   20.9334  -30.2336  -15.4966 C   0  0  0  0  0  0  0  0  0  0  0  0
   20.5779  -28.8531  -15.0732 C   0  0  0  0  0  0  0  0  0  0  0  0
   19.1181  -28.5787  -15.2857 C   0  0  2  0  0  0  0  0  0  0  0  0
   18.8115  -27.1779  -14.9464 N   0  0  0  0  0  0  0  0  0  0  0  0
   18.2453  -29.4881  -14.5381 C   0  0  0  0  0  0  0  0  0  0  0  0
   17.9318  -29.3790  -13.2103 O   0  0  0  0  0  0  0  0  0  0  0  0
   17.7189  -30.4804  -15.1494 O   0  0  0  0  0  0  0  0  0  0  0  0
  2  1  1  0
  3  2  1  0
  4  5  1  0
  4  3  1  0
  5  6  1  1
  7  5  1  0
  7  8  2  0
  9  7  1  0
 10  9  1  0
 10 11  1  6
 12 11  1  0
 13 12  2  0
 14 10  1  0
 14 23  1  0
 15 14  2  0
 16 12  1  0
 17 18  1  0
 18 19  2  0
 18 20  1  0
 20 21  1  0
 22 21  1  1
 22 23  1  0
 22 24  1  0
 24 26  2  0
 24 25  1  0
M  END
$$$$
