MDQ.pdb
     RDKit          3D

 26 25  0  0  1  0  0  0  0  0999 V2000
   16.7357  -15.9857  -19.7699 C   0  0  0  0  0  0  0  0  0  0  0  0
   15.5181  -14.7991  -19.1261 S   0  0  0  0  0  0  0  0  0  0  0  0
   16.2030  -13.9518  -17.6608 C   0  0  0  0  0  0  0  0  0  0  0  0
   17.7125  -13.9646  -17.6919 C   0  0  0  0  0  0  0  0  0  0  0  0
   18.2954  -13.2395  -16.4909 C   0  0  2  0  0  0  0  0  0  0  0  0
   17.3893  -13.4584  -15.3802 N   0  0  0  0  0  0  0  0  0  0  0  0
   18.5070  -11.8152  -16.7700 C   0  0  0  0  0  0  0  0  0  0  0  0
   19.2320  -11.3571  -17.6689 O   0  0  0  0  0  0  0  0  0  0  0  0
   17.8334  -10.8425  -15.9530 N   0  0  0  0  0  0  0  0  0  0  0  0
   17.9303   -9.4306  -16.2072 C   0  0  1  0  0  0  0  0  0  0  0  0
   16.5320   -8.8431  -16.0142 C   0  0  0  0  0  0  0  0  0  0  0  0
   16.5033   -7.4046  -16.3868 C   0  0  0  0  0  0  0  0  0  0  0  0
   16.1246   -6.5283  -15.5476 O   0  0  0  0  0  0  0  0  0  0  0  0
   18.9220   -8.7536  -15.3646 C   0  0  0  0  0  0  0  0  0  0  0  0
   18.8637   -8.8923  -14.1212 O   0  0  0  0  0  0  0  0  0  0  0  0
   16.8962   -7.0433  -17.6617 O   0  0  0  0  0  0  0  0  0  0  0  0
   24.6240   -9.2682  -15.8857 N   0  0  0  0  0  0  0  0  0  0  0  0
   23.7844   -9.9226  -14.9482 C   0  0  0  0  0  0  0  0  0  0  0  0
   24.0880  -10.9933  -14.4001 O   0  0  0  0  0  0  0  0  0  0  0  0
   22.4781   -9.2530  -14.6351 C   0  0  0  0  0  0  0  0  0  0  0  0
   22.3253   -7.9708  -15.3725 C   0  0  0  0  0  0  0  0  0  0  0  0
   21.0003   -7.3303  -15.0798 C   0  0  2  0  0  0  0  0  0  0  0  0
   19.9466   -7.9462  -15.9055 N   0  0  0  0  0  0  0  0  0  0  0  0
   21.0090   -5.8764  -15.2640 C   0  0  0  0  0  0  0  0  0  0  0  0
   21.6109   -4.9719  -14.4315 O   0  0  0  0  0  0  0  0  0  0  0  0
   20.4087   -5.3788  -16.2776 O   0  0  0  0  0  0  0  0  0  0  0  0
  2  1  1  0
  3  2  1  0
  4  5  1  0
  4  3  1  0
  5  6  1  1
  7  5  1  0
  7  8  2  0
  9  7  1  0
 10  9  1  0
 10 11  1  1
 12 11  1  0
 13 12  2  0
 14 10  1  0
 14 23  1  0
 15 14  2  0
 16 12  1  0
 17 18  1  0
 18 19  2  0
 18 20  1  0
 20 21  1  0
 22 21  1  6
 22 23  1  0
 22 24  1  0
 24 26  2  0
 24 25  1  0
M  END
$$$$
