MDQ.pdb
     RDKit          3D

 26 25  0  0  1  0  0  0  0  0999 V2000
   20.7953  -16.3586  -19.1390 C   0  0  0  0  0  0  0  0  0  0  0  0
   19.0281  -16.7380  -18.9432 S   0  0  0  0  0  0  0  0  0  0  0  0
   18.3534  -15.8032  -17.5272 C   0  0  0  0  0  0  0  0  0  0  0  0
   18.8618  -14.3816  -17.5332 C   0  0  0  0  0  0  0  0  0  0  0  0
   18.2522  -13.5726  -16.4010 C   0  0  2  0  0  0  0  0  0  0  0  0
   16.9799  -14.1873  -16.0754 N   0  0  0  0  0  0  0  0  0  0  0  0
   18.1159  -12.1572  -16.7606 C   0  0  0  0  0  0  0  0  0  0  0  0
   19.0482  -11.4036  -17.0866 O   0  0  0  0  0  0  0  0  0  0  0  0
   16.8070  -11.5622  -16.7442 N   0  0  0  0  0  0  0  0  0  0  0  0
   16.5665  -10.2288  -17.2256 C   0  0  1  0  0  0  0  0  0  0  0  0
   15.0518  -10.0648  -17.3541 C   0  0  0  0  0  0  0  0  0  0  0  0
   14.7085   -8.7510  -17.9582 C   0  0  0  0  0  0  0  0  0  0  0  0
   15.4014   -8.2796  -18.9139 O   0  0  0  0  0  0  0  0  0  0  0  0
   17.1526   -9.1875  -16.3745 C   0  0  0  0  0  0  0  0  0  0  0  0
   17.0144   -9.2647  -15.1321 O   0  0  0  0  0  0  0  0  0  0  0  0
   13.6229   -8.0564  -17.4588 O   0  0  0  0  0  0  0  0  0  0  0  0
   22.7577   -8.1502  -13.9984 N   0  0  0  0  0  0  0  0  0  0  0  0
   21.4424   -7.8753  -13.5438 C   0  0  0  0  0  0  0  0  0  0  0  0
   21.0163   -8.2484  -12.4401 O   0  0  0  0  0  0  0  0  0  0  0  0
   20.5603   -7.0944  -14.4738 C   0  0  0  0  0  0  0  0  0  0  0  0
   19.6842   -7.9851  -15.2803 C   0  0  0  0  0  0  0  0  0  0  0  0
   18.6878   -7.1927  -16.0746 C   0  0  2  0  0  0  0  0  0  0  0  0
   17.8713   -8.0943  -16.9063 N   0  0  0  0  0  0  0  0  0  0  0  0
   19.3056   -6.1535  -16.9029 C   0  0  0  0  0  0  0  0  0  0  0  0
   19.5352   -6.2401  -18.2494 O   0  0  0  0  0  0  0  0  0  0  0  0
   19.6762   -5.0619  -16.3493 O   0  0  0  0  0  0  0  0  0  0  0  0
  2  1  1  0
  3  2  1  0
  4  5  1  0
  4  3  1  0
  5  6  1  6
  7  5  1  0
  7  8  2  0
  9  7  1  0
 10  9  1  0
 10 11  1  1
 12 11  1  0
 13 12  2  0
 14 10  1  0
 14 23  1  0
 15 14  2  0
 16 12  1  0
 17 18  1  0
 18 19  2  0
 18 20  1  0
 20 21  1  0
 22 21  1  6
 22 23  1  0
 22 24  1  0
 24 26  2  0
 24 25  1  0
M  END
$$$$
