HWM.pdb
     RDKit          3D

 33 35  0  0  1  0  0  0  0  0999 V2000
   11.8911  -17.5281   18.4368 N   0  0  0  0  0  0  0  0  0  0  0  0
   11.3362  -18.1644   19.5996 C   0  0  1  0  0  0  0  0  0  0  0  0
   12.2344  -19.2592   20.0841 C   0  0  0  0  0  0  0  0  0  0  0  0
   12.2758  -20.4324   19.1643 C   0  0  0  0  0  0  0  0  0  0  0  0
   11.2118  -20.7939   18.3477 C   0  0  0  0  0  0  0  0  0  0  0  0
   11.6134  -21.8872   17.6712 N   0  0  0  0  0  0  0  0  0  0  0  0
   12.8687  -22.1977   18.0447 C   0  0  0  0  0  0  0  0  0  0  0  0
   13.2725  -21.3038   18.9605 N   0  0  0  0  0  0  0  0  0  0  0  0
   10.9964  -17.1913   20.6689 C   0  0  0  0  0  0  0  0  0  0  0  0
   11.8530  -16.3370   21.0080 O   0  0  0  0  0  0  0  0  0  0  0  0
    9.7312  -17.2222   21.2997 N   0  0  0  0  0  0  0  0  0  0  0  0
    9.4368  -16.2749   22.3817 C   0  0  1  0  0  0  0  0  0  0  0  0
    8.0134  -15.8716   22.2462 C   0  0  0  0  0  0  0  0  0  0  0  0
    7.6958  -14.5706   22.8539 C   0  0  0  0  0  0  0  0  0  0  0  0
    7.9917  -13.3383   22.2449 C   0  0  0  0  0  0  0  0  0  0  0  0
    7.5496  -12.3448   23.0240 N   0  0  0  0  0  0  0  0  0  0  0  0
    6.9673  -12.8377   24.1350 C   0  0  0  0  0  0  0  0  0  0  0  0
    6.3816  -12.2171   25.2182 C   0  0  0  0  0  0  0  0  0  0  0  0
    5.8738  -13.0015   26.2260 C   0  0  0  0  0  0  0  0  0  0  0  0
    5.9697  -14.3664   26.1153 C   0  0  0  0  0  0  0  0  0  0  0  0
    6.5482  -14.9890   25.0453 C   0  0  0  0  0  0  0  0  0  0  0  0
    7.0655  -14.2208   24.0170 C   0  0  0  0  0  0  0  0  0  0  0  0
    9.8488  -16.8050   23.6914 C   0  0  0  0  0  0  0  0  0  0  0  0
    9.9148  -18.0453   23.8635 O   0  0  0  0  0  0  0  0  0  0  0  0
   10.4655  -12.9751   28.9426 C   0  0  0  0  0  0  0  0  0  0  0  0
   11.4405  -14.3888   29.4945 S   0  0  0  0  0  0  0  0  0  0  0  0
   11.2452  -15.8037   28.3535 C   0  0  0  0  0  0  0  0  0  0  0  0
   10.7615  -15.3507   27.0110 C   0  0  0  0  0  0  0  0  0  0  0  0
   10.6580  -16.4896   26.0583 C   0  0  2  0  0  0  0  0  0  0  0  0
   10.1715  -15.9581   24.7602 N   0  0  0  0  0  0  0  0  0  0  0  0
    9.6509  -17.4662   26.5048 C   0  0  0  0  0  0  0  0  0  0  0  0
    8.4329  -17.3149   26.3412 O   0  0  0  0  0  0  0  0  0  0  0  0
   10.0584  -18.6336   27.1495 O   0  0  0  0  0  0  0  0  0  0  0  0
  2  1  1  6
  2  3  1  0
  3  4  1  0
  4  8  1  0
  5  4  2  0
  5  6  1  0
  6  7  1  0
  8  7  2  0
  9  2  1  0
  9 10  2  0
 11  9  1  0
 12 13  1  1
 12 11  1  0
 13 14  1  0
 14 15  2  0
 14 22  1  0
 15 16  1  0
 16 17  1  0
 17 18  2  0
 18 19  1  0
 20 19  2  0
 21 20  1  0
 22 21  2  0
 22 17  1  0
 23 12  1  0
 24 23  2  0
 25 26  1  0
 26 27  1  0
 27 28  1  0
 29 28  1  1
 29 30  1  0
 30 23  1  0
 31 29  1  0
 31 33  1  0
 32 31  2  0
M  END
$$$$
