HWM.pdb
     RDKit          3D

 33 35  0  0  1  0  0  0  0  0999 V2000
    9.3391  -18.2517   19.1624 N   0  0  0  0  0  0  0  0  0  0  0  0
    9.9135  -16.9345   19.1583 C   0  0  1  0  0  0  0  0  0  0  0  0
    9.5132  -16.1857   17.9258 C   0  0  0  0  0  0  0  0  0  0  0  0
    9.9236  -16.8702   16.6659 C   0  0  0  0  0  0  0  0  0  0  0  0
   11.2401  -16.9236   16.2259 C   0  0  0  0  0  0  0  0  0  0  0  0
   11.2209  -17.6138   15.0695 N   0  0  0  0  0  0  0  0  0  0  0  0
    9.9538  -17.9764   14.7961 C   0  0  0  0  0  0  0  0  0  0  0  0
    9.1603  -17.5191   15.7768 N   0  0  0  0  0  0  0  0  0  0  0  0
    9.6138  -16.1831   20.4038 C   0  0  0  0  0  0  0  0  0  0  0  0
   10.1201  -15.0443   20.5636 O   0  0  0  0  0  0  0  0  0  0  0  0
    8.7741  -16.7362   21.3981 N   0  0  0  0  0  0  0  0  0  0  0  0
    8.7112  -16.1108   22.7246 C   0  0  1  0  0  0  0  0  0  0  0  0
    7.5550  -16.7054   23.4435 C   0  0  0  0  0  0  0  0  0  0  0  0
    6.9573  -15.8226   24.4564 C   0  0  0  0  0  0  0  0  0  0  0  0
    6.1476  -16.2870   25.5080 C   0  0  0  0  0  0  0  0  0  0  0  0
    5.7888  -15.2529   26.2771 N   0  0  0  0  0  0  0  0  0  0  0  0
    6.3127  -14.1056   25.8022 C   0  0  0  0  0  0  0  0  0  0  0  0
    6.2185  -12.8016   26.2407 C   0  0  0  0  0  0  0  0  0  0  0  0
    6.8671  -11.8227   25.5266 C   0  0  0  0  0  0  0  0  0  0  0  0
    7.5798  -12.1801   24.4092 C   0  0  0  0  0  0  0  0  0  0  0  0
    7.6783  -13.4697   23.9683 C   0  0  0  0  0  0  0  0  0  0  0  0
    7.0353  -14.4735   24.6713 C   0  0  0  0  0  0  0  0  0  0  0  0
   10.0120  -16.1663   23.4108 C   0  0  0  0  0  0  0  0  0  0  0  0
   10.8328  -15.2308   23.2565 O   0  0  0  0  0  0  0  0  0  0  0  0
   11.6247  -12.3979   28.2445 C   0  0  0  0  0  0  0  0  0  0  0  0
   10.6258  -13.8695   27.9438 S   0  0  0  0  0  0  0  0  0  0  0  0
   11.3488  -14.8896   26.6101 C   0  0  0  0  0  0  0  0  0  0  0  0
   10.5174  -16.1076   26.3522 C   0  0  0  0  0  0  0  0  0  0  0  0
   11.2128  -17.0569   25.4408 C   0  0  2  0  0  0  0  0  0  0  0  0
   10.3634  -17.2419   24.2373 N   0  0  0  0  0  0  0  0  0  0  0  0
   11.3441  -18.3869   26.0583 C   0  0  0  0  0  0  0  0  0  0  0  0
   10.4400  -19.2328   26.0576 O   0  0  0  0  0  0  0  0  0  0  0  0
   12.5378  -18.7430   26.6851 O   0  0  0  0  0  0  0  0  0  0  0  0
  2  1  1  1
  2  3  1  0
  3  4  1  0
  4  8  1  0
  5  4  2  0
  5  6  1  0
  6  7  1  0
  8  7  2  0
  9  2  1  0
  9 10  2  0
 11  9  1  0
 12 13  1  1
 12 11  1  0
 13 14  1  0
 14 15  2  0
 14 22  1  0
 15 16  1  0
 16 17  1  0
 17 18  2  0
 18 19  1  0
 20 19  2  0
 21 20  1  0
 22 21  2  0
 22 17  1  0
 23 12  1  0
 24 23  2  0
 25 26  1  0
 26 27  1  0
 27 28  1  0
 29 28  1  1
 29 30  1  0
 30 23  1  0
 31 29  1  0
 31 33  1  0
 32 31  2  0
M  END
$$$$
