HWM.pdb
     RDKit          3D

 33 35  0  0  1  0  0  0  0  0999 V2000
   10.0697  -18.2236   18.7796 N   0  0  0  0  0  0  0  0  0  0  0  0
    9.7260  -18.5944   20.1248 C   0  0  1  0  0  0  0  0  0  0  0  0
   10.5888  -19.7209   20.6007 C   0  0  0  0  0  0  0  0  0  0  0  0
   10.5358  -20.9156   19.7097 C   0  0  0  0  0  0  0  0  0  0  0  0
    9.3459  -21.5002   19.2949 C   0  0  0  0  0  0  0  0  0  0  0  0
    9.6924  -22.5405   18.5126 N   0  0  0  0  0  0  0  0  0  0  0  0
   11.0348  -22.6063   18.4394 C   0  0  0  0  0  0  0  0  0  0  0  0
   11.5495  -21.6087   19.1745 N   0  0  0  0  0  0  0  0  0  0  0  0
    9.7407  -17.4345   21.0523 C   0  0  0  0  0  0  0  0  0  0  0  0
   10.4068  -16.4156   20.7412 O   0  0  0  0  0  0  0  0  0  0  0  0
    9.0196  -17.4714   22.2682 N   0  0  0  0  0  0  0  0  0  0  0  0
    8.7261  -16.2193   22.9757 C   0  0  1  0  0  0  0  0  0  0  0  0
    7.2510  -16.1287   23.1284 C   0  0  0  0  0  0  0  0  0  0  0  0
    6.8137  -15.4161   24.3382 C   0  0  0  0  0  0  0  0  0  0  0  0
    6.3283  -16.0656   25.4870 C   0  0  0  0  0  0  0  0  0  0  0  0
    6.0482  -15.1526   26.4237 N   0  0  0  0  0  0  0  0  0  0  0  0
    6.3175  -13.9120   25.9711 C   0  0  0  0  0  0  0  0  0  0  0  0
    6.1861  -12.6710   26.5578 C   0  0  0  0  0  0  0  0  0  0  0  0
    6.5383  -11.5613   25.8275 C   0  0  0  0  0  0  0  0  0  0  0  0
    7.0048  -11.7314   24.5477 C   0  0  0  0  0  0  0  0  0  0  0  0
    7.1382  -12.9574   23.9592 C   0  0  0  0  0  0  0  0  0  0  0  0
    6.7914  -14.0900   24.6748 C   0  0  0  0  0  0  0  0  0  0  0  0
    9.5240  -16.0935   24.2059 C   0  0  0  0  0  0  0  0  0  0  0  0
    9.5543  -14.9972   24.8139 O   0  0  0  0  0  0  0  0  0  0  0  0
   10.2855  -12.5239   28.8176 C   0  0  0  0  0  0  0  0  0  0  0  0
   10.0138  -14.3025   28.6890 S   0  0  0  0  0  0  0  0  0  0  0  0
   10.6405  -14.9465   27.0969 C   0  0  0  0  0  0  0  0  0  0  0  0
   10.4469  -16.4280   27.0010 C   0  0  0  0  0  0  0  0  0  0  0  0
   11.2023  -17.0013   25.8538 C   0  0  2  0  0  0  0  0  0  0  0  0
   10.2569  -17.1708   24.7217 N   0  0  0  0  0  0  0  0  0  0  0  0
   11.7085  -18.3471   26.1702 C   0  0  0  0  0  0  0  0  0  0  0  0
   12.5780  -18.5668   27.0239 O   0  0  0  0  0  0  0  0  0  0  0  0
   11.2021  -19.4537   25.4893 O   0  0  0  0  0  0  0  0  0  0  0  0
  2  1  1  6
  2  3  1  0
  3  4  1  0
  4  8  1  0
  5  4  2  0
  5  6  1  0
  6  7  1  0
  8  7  2  0
  9  2  1  0
  9 10  2  0
 11  9  1  0
 12 13  1  1
 12 11  1  0
 13 14  1  0
 14 15  2  0
 14 22  1  0
 15 16  1  0
 16 17  1  0
 17 18  2  0
 18 19  1  0
 20 19  2  0
 21 20  1  0
 22 21  2  0
 22 17  1  0
 23 12  1  0
 24 23  2  0
 25 26  1  0
 26 27  1  0
 27 28  1  0
 29 28  1  1
 29 30  1  0
 30 23  1  0
 31 29  1  0
 31 33  1  0
 32 31  2  0
M  END
$$$$
