HWM.pdb
     RDKit          3D

 33 35  0  0  1  0  0  0  0  0999 V2000
   12.0302  -16.2761   19.1724 N   0  0  0  0  0  0  0  0  0  0  0  0
   11.1674  -17.1578   19.9094 C   0  0  1  0  0  0  0  0  0  0  0  0
   11.8234  -18.4862   20.1212 C   0  0  0  0  0  0  0  0  0  0  0  0
   12.0448  -19.2386   18.8527 C   0  0  0  0  0  0  0  0  0  0  0  0
   12.1128  -18.6245   17.6086 C   0  0  0  0  0  0  0  0  0  0  0  0
   12.3186  -19.6107   16.7147 N   0  0  0  0  0  0  0  0  0  0  0  0
   12.3771  -20.7874   17.3656 C   0  0  0  0  0  0  0  0  0  0  0  0
   12.2089  -20.5563   18.6766 N   0  0  0  0  0  0  0  0  0  0  0  0
   10.6880  -16.5506   21.1772 C   0  0  0  0  0  0  0  0  0  0  0  0
   11.3815  -15.6567   21.7236 O   0  0  0  0  0  0  0  0  0  0  0  0
    9.4719  -16.9692   21.7652 N   0  0  0  0  0  0  0  0  0  0  0  0
    9.0848  -16.4465   23.0811 C   0  0  1  0  0  0  0  0  0  0  0  0
    7.6257  -16.6767   23.2406 C   0  0  0  0  0  0  0  0  0  0  0  0
    6.9866  -15.8141   24.2456 C   0  0  0  0  0  0  0  0  0  0  0  0
    6.0618  -16.2845   25.1947 C   0  0  0  0  0  0  0  0  0  0  0  0
    5.6902  -15.2724   25.9866 N   0  0  0  0  0  0  0  0  0  0  0  0
    6.3149  -14.1343   25.6247 C   0  0  0  0  0  0  0  0  0  0  0  0
    6.2506  -12.8513   26.1261 C   0  0  0  0  0  0  0  0  0  0  0  0
    7.0118  -11.8760   25.5276 C   0  0  0  0  0  0  0  0  0  0  0  0
    7.8027  -12.2161   24.4583 C   0  0  0  0  0  0  0  0  0  0  0  0
    7.8722  -13.4848   23.9558 C   0  0  0  0  0  0  0  0  0  0  0  0
    7.1161  -14.4846   24.5422 C   0  0  0  0  0  0  0  0  0  0  0  0
    9.9540  -16.9691   24.1475 C   0  0  0  0  0  0  0  0  0  0  0  0
   10.7007  -17.9486   23.9121 O   0  0  0  0  0  0  0  0  0  0  0  0
    9.9000  -11.9060   28.4336 C   0  0  0  0  0  0  0  0  0  0  0  0
   10.0801  -13.6501   28.8574 S   0  0  0  0  0  0  0  0  0  0  0  0
   10.6434  -14.6194   27.4133 C   0  0  0  0  0  0  0  0  0  0  0  0
   10.6440  -16.0857   27.7155 C   0  0  0  0  0  0  0  0  0  0  0  0
   10.8864  -16.8929   26.4887 C   0  0  2  0  0  0  0  0  0  0  0  0
    9.9717  -16.4004   25.4281 N   0  0  0  0  0  0  0  0  0  0  0  0
   10.5390  -18.3070   26.7056 C   0  0  0  0  0  0  0  0  0  0  0  0
   11.2700  -19.1058   27.3061 O   0  0  0  0  0  0  0  0  0  0  0  0
    9.3293  -18.8037   26.2211 O   0  0  0  0  0  0  0  0  0  0  0  0
  2  1  1  1
  2  3  1  0
  3  4  1  0
  4  8  1  0
  5  4  2  0
  5  6  1  0
  6  7  1  0
  8  7  2  0
  9  2  1  0
  9 10  2  0
 11  9  1  0
 12 13  1  1
 12 11  1  0
 13 14  1  0
 14 15  2  0
 14 22  1  0
 15 16  1  0
 16 17  1  0
 17 18  2  0
 18 19  1  0
 20 19  2  0
 21 20  1  0
 22 21  2  0
 22 17  1  0
 23 12  1  0
 24 23  2  0
 25 26  1  0
 26 27  1  0
 27 28  1  0
 29 28  1  1
 29 30  1  0
 30 23  1  0
 31 29  1  0
 31 33  1  0
 32 31  2  0
M  END
$$$$
