HWM.pdb
     RDKit          3D

 33 35  0  0  1  0  0  0  0  0999 V2000
    9.9181  -18.8769   19.1375 N   0  0  0  0  0  0  0  0  0  0  0  0
    9.3980  -18.7421   20.4703 C   0  0  1  0  0  0  0  0  0  0  0  0
    9.8162  -19.8996   21.3219 C   0  0  0  0  0  0  0  0  0  0  0  0
    9.4524  -21.2208   20.7334 C   0  0  0  0  0  0  0  0  0  0  0  0
    8.3934  -21.3923   19.8510 C   0  0  0  0  0  0  0  0  0  0  0  0
    8.3735  -22.7027   19.5398 N   0  0  0  0  0  0  0  0  0  0  0  0
    9.3716  -23.3243   20.1949 C   0  0  0  0  0  0  0  0  0  0  0  0
   10.0316  -22.4131   20.9261 N   0  0  0  0  0  0  0  0  0  0  0  0
    9.7404  -17.4324   21.0812 C   0  0  0  0  0  0  0  0  0  0  0  0
   10.8547  -16.9132   20.8215 O   0  0  0  0  0  0  0  0  0  0  0  0
    8.8314  -16.7766   21.9434 N   0  0  0  0  0  0  0  0  0  0  0  0
    9.1062  -15.4014   22.3768 C   0  0  1  0  0  0  0  0  0  0  0  0
    7.8109  -14.6741   22.4004 C   0  0  0  0  0  0  0  0  0  0  0  0
    7.2244  -14.5326   23.7416 C   0  0  0  0  0  0  0  0  0  0  0  0
    6.7122  -15.6132   24.4812 C   0  0  0  0  0  0  0  0  0  0  0  0
    6.2851  -15.1707   25.6691 N   0  0  0  0  0  0  0  0  0  0  0  0
    6.4795  -13.8414   25.7769 C   0  0  0  0  0  0  0  0  0  0  0  0
    6.1979  -12.9508   26.7913 C   0  0  0  0  0  0  0  0  0  0  0  0
    6.5067  -11.6249   26.6023 C   0  0  0  0  0  0  0  0  0  0  0  0
    7.0806  -11.2411   25.4158 C   0  0  0  0  0  0  0  0  0  0  0  0
    7.3630  -12.1173   24.4060 C   0  0  0  0  0  0  0  0  0  0  0  0
    7.0627  -13.4579   24.5730 C   0  0  0  0  0  0  0  0  0  0  0  0
    9.8994  -15.3733   23.6162 C   0  0  0  0  0  0  0  0  0  0  0  0
   10.2082  -14.2709   24.1278 O   0  0  0  0  0  0  0  0  0  0  0  0
   10.7703  -13.8674   30.1365 C   0  0  0  0  0  0  0  0  0  0  0  0
   10.9390  -14.1793   28.3679 S   0  0  0  0  0  0  0  0  0  0  0  0
   10.2824  -15.8281   27.9289 C   0  0  0  0  0  0  0  0  0  0  0  0
    9.8374  -15.8681   26.5000 C   0  0  0  0  0  0  0  0  0  0  0  0
   10.8409  -16.5498   25.6376 C   0  0  2  0  0  0  0  0  0  0  0  0
   10.3234  -16.5511   24.2460 N   0  0  0  0  0  0  0  0  0  0  0  0
   10.9964  -17.9633   26.0185 C   0  0  0  0  0  0  0  0  0  0  0  0
   10.0420  -18.7197   26.2422 O   0  0  0  0  0  0  0  0  0  0  0  0
   12.2736  -18.5092   26.1425 O   0  0  0  0  0  0  0  0  0  0  0  0
  2  1  1  6
  2  3  1  0
  3  4  1  0
  4  8  1  0
  5  4  2  0
  5  6  1  0
  6  7  1  0
  8  7  2  0
  9  2  1  0
  9 10  2  0
 11  9  1  0
 12 13  1  1
 12 11  1  0
 13 14  1  0
 14 15  2  0
 14 22  1  0
 15 16  1  0
 16 17  1  0
 17 18  2  0
 18 19  1  0
 20 19  2  0
 21 20  1  0
 22 21  2  0
 22 17  1  0
 23 12  1  0
 24 23  2  0
 25 26  1  0
 26 27  1  0
 27 28  1  0
 29 28  1  1
 29 30  1  0
 30 23  1  0
 31 29  1  0
 31 33  1  0
 32 31  2  0
M  END
$$$$
