HWM.pdb
     RDKit          3D

 33 35  0  0  1  0  0  0  0  0999 V2000
    9.8729  -16.1958   18.9864 N   0  0  0  0  0  0  0  0  0  0  0  0
   10.5706  -16.9367   20.0010 C   0  0  1  0  0  0  0  0  0  0  0  0
   12.0441  -16.9363   19.7385 C   0  0  0  0  0  0  0  0  0  0  0  0
   12.4047  -17.5428   18.4246 C   0  0  0  0  0  0  0  0  0  0  0  0
   12.1638  -18.8748   18.1124 C   0  0  0  0  0  0  0  0  0  0  0  0
   12.6190  -19.0537   16.8574 N   0  0  0  0  0  0  0  0  0  0  0  0
   13.1216  -17.8907   16.4032 C   0  0  0  0  0  0  0  0  0  0  0  0
   12.9889  -16.9658   17.3663 N   0  0  0  0  0  0  0  0  0  0  0  0
   10.2361  -16.4720   21.3713 C   0  0  0  0  0  0  0  0  0  0  0  0
   10.5441  -15.3015   21.7085 O   0  0  0  0  0  0  0  0  0  0  0  0
    9.5828  -17.3295   22.2866 N   0  0  0  0  0  0  0  0  0  0  0  0
    9.3329  -16.8710   23.6584 C   0  0  1  0  0  0  0  0  0  0  0  0
    7.9717  -17.3280   24.0402 C   0  0  0  0  0  0  0  0  0  0  0  0
    7.1295  -16.2794   24.6350 C   0  0  0  0  0  0  0  0  0  0  0  0
    5.8007  -16.4917   25.0430 C   0  0  0  0  0  0  0  0  0  0  0  0
    5.3176  -15.3631   25.5743 N   0  0  0  0  0  0  0  0  0  0  0  0
    6.2503  -14.3906   25.5484 C   0  0  0  0  0  0  0  0  0  0  0  0
    6.2200  -13.0769   25.9665 C   0  0  0  0  0  0  0  0  0  0  0  0
    7.3470  -12.3093   25.7942 C   0  0  0  0  0  0  0  0  0  0  0  0
    8.4538  -12.8783   25.2149 C   0  0  0  0  0  0  0  0  0  0  0  0
    8.4919  -14.1792   24.7983 C   0  0  0  0  0  0  0  0  0  0  0  0
    7.3701  -14.9727   24.9622 C   0  0  0  0  0  0  0  0  0  0  0  0
   10.4312  -17.2473   24.5629 C   0  0  0  0  0  0  0  0  0  0  0  0
   11.2662  -18.1083   24.1968 O   0  0  0  0  0  0  0  0  0  0  0  0
   10.9701  -11.9697   28.4080 C   0  0  0  0  0  0  0  0  0  0  0  0
   11.3328  -13.6537   28.9431 S   0  0  0  0  0  0  0  0  0  0  0  0
   11.4733  -14.7796   27.5096 C   0  0  0  0  0  0  0  0  0  0  0  0
   11.6034  -16.2034   27.9533 C   0  0  0  0  0  0  0  0  0  0  0  0
   11.6011  -17.1362   26.7934 C   0  0  2  0  0  0  0  0  0  0  0  0
   10.5724  -16.6678   25.8309 N   0  0  0  0  0  0  0  0  0  0  0  0
   11.1942  -18.4909   27.2015 C   0  0  0  0  0  0  0  0  0  0  0  0
   11.9739  -19.3215   27.6865 O   0  0  0  0  0  0  0  0  0  0  0  0
    9.8671  -18.8901   27.0461 O   0  0  0  0  0  0  0  0  0  0  0  0
  2  1  1  6
  2  3  1  0
  3  4  1  0
  4  8  1  0
  5  4  2  0
  5  6  1  0
  6  7  1  0
  8  7  2  0
  9  2  1  0
  9 10  2  0
 11  9  1  0
 12 13  1  1
 12 11  1  0
 13 14  1  0
 14 15  2  0
 14 22  1  0
 15 16  1  0
 16 17  1  0
 17 18  2  0
 18 19  1  0
 20 19  2  0
 21 20  1  0
 22 21  2  0
 22 17  1  0
 23 12  1  0
 24 23  2  0
 25 26  1  0
 26 27  1  0
 27 28  1  0
 29 28  1  1
 29 30  1  0
 30 23  1  0
 31 29  1  0
 31 33  1  0
 32 31  2  0
M  END
$$$$
