HWM.pdb
     RDKit          3D

 33 35  0  0  1  0  0  0  0  0999 V2000
    9.5882  -18.2437   19.5130 N   0  0  0  0  0  0  0  0  0  0  0  0
   10.4532  -17.1243   19.7654 C   0  0  1  0  0  0  0  0  0  0  0  0
   10.3617  -16.1234   18.6565 C   0  0  0  0  0  0  0  0  0  0  0  0
   10.6937  -16.6977   17.3207 C   0  0  0  0  0  0  0  0  0  0  0  0
    9.7545  -17.3195   16.5078 C   0  0  0  0  0  0  0  0  0  0  0  0
   10.4152  -17.7050   15.3992 N   0  0  0  0  0  0  0  0  0  0  0  0
   11.7069  -17.3429   15.5102 C   0  0  0  0  0  0  0  0  0  0  0  0
   11.8748  -16.7254   16.6896 N   0  0  0  0  0  0  0  0  0  0  0  0
   10.2184  -16.5180   21.1007 C   0  0  0  0  0  0  0  0  0  0  0  0
   10.8994  -15.5192   21.4431 O   0  0  0  0  0  0  0  0  0  0  0  0
    9.2465  -17.0532   21.9774 N   0  0  0  0  0  0  0  0  0  0  0  0
    9.0858  -16.4801   23.3192 C   0  0  1  0  0  0  0  0  0  0  0  0
    7.7672  -16.9253   23.8391 C   0  0  0  0  0  0  0  0  0  0  0  0
    7.0016  -15.8707   24.5207 C   0  0  0  0  0  0  0  0  0  0  0  0
    5.7881  -16.1047   25.1912 C   0  0  0  0  0  0  0  0  0  0  0  0
    5.3583  -14.9610   25.7358 N   0  0  0  0  0  0  0  0  0  0  0  0
    6.2178  -13.9576   25.4695 C   0  0  0  0  0  0  0  0  0  0  0  0
    6.2007  -12.6199   25.8040 C   0  0  0  0  0  0  0  0  0  0  0  0
    7.2332  -11.8236   25.3693 C   0  0  0  0  0  0  0  0  0  0  0  0
    8.2364  -12.3889   24.6222 C   0  0  0  0  0  0  0  0  0  0  0  0
    8.2608  -13.7134   24.2868 C   0  0  0  0  0  0  0  0  0  0  0  0
    7.2331  -14.5360   24.7139 C   0  0  0  0  0  0  0  0  0  0  0  0
   10.2555  -16.7560   24.1687 C   0  0  0  0  0  0  0  0  0  0  0  0
   10.9886  -17.7402   23.9108 O   0  0  0  0  0  0  0  0  0  0  0  0
    9.1646  -13.9771   30.3832 C   0  0  0  0  0  0  0  0  0  0  0  0
   10.6457  -13.9350   29.3545 S   0  0  0  0  0  0  0  0  0  0  0  0
   10.6479  -15.3139   28.1541 C   0  0  0  0  0  0  0  0  0  0  0  0
   11.7944  -15.1950   27.1988 C   0  0  0  0  0  0  0  0  0  0  0  0
   11.7346  -16.2447   26.1453 C   0  0  2  0  0  0  0  0  0  0  0  0
   10.5765  -15.9456   25.2659 N   0  0  0  0  0  0  0  0  0  0  0  0
   11.4739  -17.5703   26.7300 C   0  0  0  0  0  0  0  0  0  0  0  0
   12.3477  -18.2642   27.2667 O   0  0  0  0  0  0  0  0  0  0  0  0
   10.1847  -18.1006   26.6931 O   0  0  0  0  0  0  0  0  0  0  0  0
  2  1  1  6
  2  3  1  0
  3  4  1  0
  4  8  1  0
  5  4  2  0
  5  6  1  0
  6  7  1  0
  8  7  2  0
  9  2  1  0
  9 10  2  0
 11  9  1  0
 12 13  1  1
 12 11  1  0
 13 14  1  0
 14 15  2  0
 14 22  1  0
 15 16  1  0
 16 17  1  0
 17 18  2  0
 18 19  1  0
 20 19  2  0
 21 20  1  0
 22 21  2  0
 22 17  1  0
 23 12  1  0
 24 23  2  0
 25 26  1  0
 26 27  1  0
 27 28  1  0
 29 28  1  1
 29 30  1  0
 30 23  1  0
 31 29  1  0
 31 33  1  0
 32 31  2  0
M  END
$$$$
