HWM.pdb
     RDKit          3D

 33 35  0  0  1  0  0  0  0  0999 V2000
    9.8273  -16.6259   19.1673 N   0  0  0  0  0  0  0  0  0  0  0  0
   10.2402  -17.4987   20.2316 C   0  0  1  0  0  0  0  0  0  0  0  0
   11.6556  -17.9429   20.0335 C   0  0  0  0  0  0  0  0  0  0  0  0
   11.8822  -18.6058   18.7169 C   0  0  0  0  0  0  0  0  0  0  0  0
   11.3756  -19.8603   18.4021 C   0  0  0  0  0  0  0  0  0  0  0  0
   11.7816  -20.1237   17.1451 N   0  0  0  0  0  0  0  0  0  0  0  0
   12.5081  -19.0852   16.6921 C   0  0  0  0  0  0  0  0  0  0  0  0
   12.5682  -18.1556   17.6580 N   0  0  0  0  0  0  0  0  0  0  0  0
   10.0129  -16.9022   21.5726 C   0  0  0  0  0  0  0  0  0  0  0  0
   10.5121  -15.7784   21.8307 O   0  0  0  0  0  0  0  0  0  0  0  0
    9.2489  -17.5843   22.5476 N   0  0  0  0  0  0  0  0  0  0  0  0
    9.1297  -17.0232   23.8987 C   0  0  1  0  0  0  0  0  0  0  0  0
    7.7824  -17.3809   24.4128 C   0  0  0  0  0  0  0  0  0  0  0  0
    6.9927  -16.2325   24.8820 C   0  0  0  0  0  0  0  0  0  0  0  0
    5.6631  -16.3369   25.3276 C   0  0  0  0  0  0  0  0  0  0  0  0
    5.2344  -15.1320   25.7198 N   0  0  0  0  0  0  0  0  0  0  0  0
    6.2049  -14.2101   25.5632 C   0  0  0  0  0  0  0  0  0  0  0  0
    6.2342  -12.8547   25.8152 C   0  0  0  0  0  0  0  0  0  0  0  0
    7.3883  -12.1622   25.5368 C   0  0  0  0  0  0  0  0  0  0  0  0
    8.4619  -12.8444   25.0206 C   0  0  0  0  0  0  0  0  0  0  0  0
    8.4410  -14.1872   24.7684 C   0  0  0  0  0  0  0  0  0  0  0  0
    7.2909  -14.9067   25.0417 C   0  0  0  0  0  0  0  0  0  0  0  0
   10.2764  -17.3964   24.7424 C   0  0  0  0  0  0  0  0  0  0  0  0
   11.0891  -18.2599   24.3344 O   0  0  0  0  0  0  0  0  0  0  0  0
   11.1266  -12.1322   28.5825 C   0  0  0  0  0  0  0  0  0  0  0  0
   11.2335  -13.8528   29.1136 S   0  0  0  0  0  0  0  0  0  0  0  0
   11.7141  -14.9379   27.7230 C   0  0  0  0  0  0  0  0  0  0  0  0
   11.5827  -16.3819   28.0958 C   0  0  0  0  0  0  0  0  0  0  0  0
   11.5873  -17.2564   26.8914 C   0  0  2  0  0  0  0  0  0  0  0  0
   10.4884  -16.8113   25.9979 N   0  0  0  0  0  0  0  0  0  0  0  0
   11.2862  -18.6528   27.2473 C   0  0  0  0  0  0  0  0  0  0  0  0
   12.1563  -19.5163   27.4216 O   0  0  0  0  0  0  0  0  0  0  0  0
    9.9604  -19.0558   27.4035 O   0  0  0  0  0  0  0  0  0  0  0  0
  2  1  1  6
  2  3  1  0
  3  4  1  0
  4  8  1  0
  5  4  2  0
  5  6  1  0
  6  7  1  0
  8  7  2  0
  9  2  1  0
  9 10  2  0
 11  9  1  0
 12 13  1  1
 12 11  1  0
 13 14  1  0
 14 15  2  0
 14 22  1  0
 15 16  1  0
 16 17  1  0
 17 18  2  0
 18 19  1  0
 20 19  2  0
 21 20  1  0
 22 21  2  0
 22 17  1  0
 23 12  1  0
 24 23  2  0
 25 26  1  0
 26 27  1  0
 27 28  1  0
 29 28  1  1
 29 30  1  0
 30 23  1  0
 31 29  1  0
 31 33  1  0
 32 31  2  0
M  END
$$$$
