HWM.pdb
     RDKit          3D

 33 35  0  0  1  0  0  0  0  0999 V2000
   11.0834  -19.0958   18.9622 N   0  0  0  0  0  0  0  0  0  0  0  0
   10.3532  -19.1605   20.1982 C   0  0  1  0  0  0  0  0  0  0  0  0
   10.8154  -20.3180   21.0267 C   0  0  0  0  0  0  0  0  0  0  0  0
   10.3514  -21.6351   20.5030 C   0  0  0  0  0  0  0  0  0  0  0  0
   10.9062  -22.2448   19.3849 C   0  0  0  0  0  0  0  0  0  0  0  0
   10.2382  -23.4026   19.2194 N   0  0  0  0  0  0  0  0  0  0  0  0
    9.3088  -23.5149   20.1864 C   0  0  0  0  0  0  0  0  0  0  0  0
    9.3804  -22.4296   20.9723 N   0  0  0  0  0  0  0  0  0  0  0  0
   10.3881  -17.8765   20.9436 C   0  0  0  0  0  0  0  0  0  0  0  0
   11.4498  -17.2045   20.9476 O   0  0  0  0  0  0  0  0  0  0  0  0
    9.2483  -17.4135   21.6409 N   0  0  0  0  0  0  0  0  0  0  0  0
    9.3304  -16.1745   22.4236 C   0  0  1  0  0  0  0  0  0  0  0  0
    7.9421  -15.7691   22.7636 C   0  0  0  0  0  0  0  0  0  0  0  0
    7.8326  -14.4196   23.3376 C   0  0  0  0  0  0  0  0  0  0  0  0
    8.2598  -13.2574   22.6714 C   0  0  0  0  0  0  0  0  0  0  0  0
    7.9943  -12.1904   23.4333 N   0  0  0  0  0  0  0  0  0  0  0  0
    7.4079  -12.5666   24.5870 C   0  0  0  0  0  0  0  0  0  0  0  0
    6.9657  -11.8403   25.6726 C   0  0  0  0  0  0  0  0  0  0  0  0
    6.4089  -12.5184   26.7305 C   0  0  0  0  0  0  0  0  0  0  0  0
    6.3155  -13.8864   26.6650 C   0  0  0  0  0  0  0  0  0  0  0  0
    6.7509  -14.6132   25.5930 C   0  0  0  0  0  0  0  0  0  0  0  0
    7.3140  -13.9531   24.5149 C   0  0  0  0  0  0  0  0  0  0  0  0
   10.2715  -16.3061   23.5474 C   0  0  0  0  0  0  0  0  0  0  0  0
   11.3561  -15.6772   23.5225 O   0  0  0  0  0  0  0  0  0  0  0  0
    9.7637  -12.8655   27.8051 C   0  0  0  0  0  0  0  0  0  0  0  0
   10.0418  -14.2513   28.9258 S   0  0  0  0  0  0  0  0  0  0  0  0
   10.7503  -15.6816   28.0344 C   0  0  0  0  0  0  0  0  0  0  0  0
   10.1073  -15.8530   26.6932 C   0  0  0  0  0  0  0  0  0  0  0  0
   10.7229  -16.9765   25.9355 C   0  0  2  0  0  0  0  0  0  0  0  0
    9.9895  -17.1200   24.6527 N   0  0  0  0  0  0  0  0  0  0  0  0
   10.5554  -18.2535   26.6486 C   0  0  0  0  0  0  0  0  0  0  0  0
   11.0569  -18.4886   27.7560 O   0  0  0  0  0  0  0  0  0  0  0  0
    9.7973  -19.2725   26.0727 O   0  0  0  0  0  0  0  0  0  0  0  0
  2  1  1  6
  2  3  1  0
  3  4  1  0
  4  8  1  0
  5  4  2  0
  5  6  1  0
  6  7  1  0
  8  7  2  0
  9  2  1  0
  9 10  2  0
 11  9  1  0
 12 13  1  1
 12 11  1  0
 13 14  1  0
 14 15  2  0
 14 22  1  0
 15 16  1  0
 16 17  1  0
 17 18  2  0
 18 19  1  0
 20 19  2  0
 21 20  1  0
 22 21  2  0
 22 17  1  0
 23 12  1  0
 24 23  2  0
 25 26  1  0
 26 27  1  0
 27 28  1  0
 29 28  1  1
 29 30  1  0
 30 23  1  0
 31 29  1  0
 31 33  1  0
 32 31  2  0
M  END
$$$$
