HWM.pdb
     RDKit          3D

 33 35  0  0  1  0  0  0  0  0999 V2000
    8.7884  -17.9304   19.4522 N   0  0  0  0  0  0  0  0  0  0  0  0
    9.5340  -16.7021   19.4388 C   0  0  1  0  0  0  0  0  0  0  0  0
    9.0714  -15.8135   18.3269 C   0  0  0  0  0  0  0  0  0  0  0  0
    9.1775  -16.4531   16.9838 C   0  0  0  0  0  0  0  0  0  0  0  0
   10.3191  -16.3779   16.1960 C   0  0  0  0  0  0  0  0  0  0  0  0
   10.0437  -17.0651   15.0707 N   0  0  0  0  0  0  0  0  0  0  0  0
    8.7899  -17.5485   15.1478 C   0  0  0  0  0  0  0  0  0  0  0  0
    8.2610  -17.1717   16.3221 N   0  0  0  0  0  0  0  0  0  0  0  0
    9.5212  -16.0184   20.7572 C   0  0  0  0  0  0  0  0  0  0  0  0
   10.1846  -14.9609   20.9002 O   0  0  0  0  0  0  0  0  0  0  0  0
    8.7773  -16.5454   21.8382 N   0  0  0  0  0  0  0  0  0  0  0  0
    9.0403  -16.0677   23.2010 C   0  0  1  0  0  0  0  0  0  0  0  0
    7.9851  -16.6310   24.0823 C   0  0  0  0  0  0  0  0  0  0  0  0
    7.1476  -15.6179   24.7418 C   0  0  0  0  0  0  0  0  0  0  0  0
    5.9591  -15.9230   25.4286 C   0  0  0  0  0  0  0  0  0  0  0  0
    5.4489  -14.7999   25.9460 N   0  0  0  0  0  0  0  0  0  0  0  0
    6.2296  -13.7431   25.6457 C   0  0  0  0  0  0  0  0  0  0  0  0
    6.1151  -12.4017   25.9444 C   0  0  0  0  0  0  0  0  0  0  0  0
    7.0826  -11.5431   25.4799 C   0  0  0  0  0  0  0  0  0  0  0  0
    8.1203  -12.0526   24.7396 C   0  0  0  0  0  0  0  0  0  0  0  0
    8.2410  -13.3803   24.4397 C   0  0  0  0  0  0  0  0  0  0  0  0
    7.2803  -14.2649   24.8973 C   0  0  0  0  0  0  0  0  0  0  0  0
   10.4344  -16.3167   23.6016 C   0  0  0  0  0  0  0  0  0  0  0  0
   11.3557  -15.6379   23.0887 O   0  0  0  0  0  0  0  0  0  0  0  0
   10.9083  -12.7279   27.8824 C   0  0  0  0  0  0  0  0  0  0  0  0
   10.7428  -14.3082   28.7361 S   0  0  0  0  0  0  0  0  0  0  0  0
   11.5852  -15.6421   27.8123 C   0  0  0  0  0  0  0  0  0  0  0  0
   10.8613  -15.9569   26.5403 C   0  0  0  0  0  0  0  0  0  0  0  0
   11.5859  -16.9838   25.7429 C   0  0  2  0  0  0  0  0  0  0  0  0
   10.7654  -17.2975   24.5461 N   0  0  0  0  0  0  0  0  0  0  0  0
   11.7163  -18.2442   26.4924 C   0  0  0  0  0  0  0  0  0  0  0  0
   12.6003  -18.4500   27.3345 O   0  0  0  0  0  0  0  0  0  0  0  0
   10.8117  -19.2807   26.2644 O   0  0  0  0  0  0  0  0  0  0  0  0
  2  1  1  1
  2  3  1  0
  3  4  1  0
  4  8  1  0
  5  4  2  0
  5  6  1  0
  6  7  1  0
  8  7  2  0
  9  2  1  0
  9 10  2  0
 11  9  1  0
 12 13  1  1
 12 11  1  0
 13 14  1  0
 14 15  2  0
 14 22  1  0
 15 16  1  0
 16 17  1  0
 17 18  2  0
 18 19  1  0
 20 19  2  0
 21 20  1  0
 22 21  2  0
 22 17  1  0
 23 12  1  0
 24 23  2  0
 25 26  1  0
 26 27  1  0
 27 28  1  0
 29 28  1  1
 29 30  1  0
 30 23  1  0
 31 29  1  0
 31 33  1  0
 32 31  2  0
M  END
$$$$
