HWM.pdb
     RDKit          3D

 33 35  0  0  1  0  0  0  0  0999 V2000
   10.4336  -18.5488   19.7420 N   0  0  0  0  0  0  0  0  0  0  0  0
   11.1877  -17.3305   19.8513 C   0  0  1  0  0  0  0  0  0  0  0  0
   11.3039  -16.6579   18.5194 C   0  0  0  0  0  0  0  0  0  0  0  0
   11.8389  -17.5553   17.4552 C   0  0  0  0  0  0  0  0  0  0  0  0
   13.1719  -17.9401   17.3869 C   0  0  0  0  0  0  0  0  0  0  0  0
   13.2764  -18.7391   16.3076 N   0  0  0  0  0  0  0  0  0  0  0  0
   12.0677  -18.8508   15.7260 C   0  0  0  0  0  0  0  0  0  0  0  0
   11.1880  -18.1239   16.4318 N   0  0  0  0  0  0  0  0  0  0  0  0
   10.6527  -16.4265   20.9012 C   0  0  0  0  0  0  0  0  0  0  0  0
   11.2801  -15.3724   21.1734 O   0  0  0  0  0  0  0  0  0  0  0  0
    9.4577  -16.7428   21.5879 N   0  0  0  0  0  0  0  0  0  0  0  0
    9.0435  -15.9278   22.7363 C   0  0  1  0  0  0  0  0  0  0  0  0
    7.6479  -16.3095   23.0738 C   0  0  0  0  0  0  0  0  0  0  0  0
    7.0694  -15.5491   24.1917 C   0  0  0  0  0  0  0  0  0  0  0  0
    6.4232  -16.1511   25.2858 C   0  0  0  0  0  0  0  0  0  0  0  0
    6.0407  -15.2023   26.1478 N   0  0  0  0  0  0  0  0  0  0  0  0
    6.3929  -13.9824   25.6959 C   0  0  0  0  0  0  0  0  0  0  0  0
    6.2108  -12.7201   26.2205 C   0  0  0  0  0  0  0  0  0  0  0  0
    6.6792  -11.6419   25.5087 C   0  0  0  0  0  0  0  0  0  0  0  0
    7.3070  -11.8629   24.3081 C   0  0  0  0  0  0  0  0  0  0  0  0
    7.4917  -13.1103   23.7816 C   0  0  0  0  0  0  0  0  0  0  0  0
    7.0302  -14.2121   24.4803 C   0  0  0  0  0  0  0  0  0  0  0  0
   10.0267  -15.9946   23.8295 C   0  0  0  0  0  0  0  0  0  0  0  0
   10.8426  -15.0552   23.9855 O   0  0  0  0  0  0  0  0  0  0  0  0
    9.2688  -13.4603   28.6926 C   0  0  0  0  0  0  0  0  0  0  0  0
    9.5639  -15.0846   29.4193 S   0  0  0  0  0  0  0  0  0  0  0  0
   10.5651  -16.1291   28.3017 C   0  0  0  0  0  0  0  0  0  0  0  0
    9.9847  -16.1523   26.9219 C   0  0  0  0  0  0  0  0  0  0  0  0
   10.7903  -17.0077   26.0082 C   0  0  2  0  0  0  0  0  0  0  0  0
   10.0788  -17.0854   24.7075 N   0  0  0  0  0  0  0  0  0  0  0  0
   10.8769  -18.3885   26.5113 C   0  0  0  0  0  0  0  0  0  0  0  0
   11.5686  -18.7193   27.4835 O   0  0  0  0  0  0  0  0  0  0  0  0
   10.1535  -19.4005   25.8810 O   0  0  0  0  0  0  0  0  0  0  0  0
  2  1  1  6
  2  3  1  0
  3  4  1  0
  4  8  1  0
  5  4  2  0
  5  6  1  0
  6  7  1  0
  8  7  2  0
  9  2  1  0
  9 10  2  0
 11  9  1  0
 12 13  1  1
 12 11  1  0
 13 14  1  0
 14 15  2  0
 14 22  1  0
 15 16  1  0
 16 17  1  0
 17 18  2  0
 18 19  1  0
 20 19  2  0
 21 20  1  0
 22 21  2  0
 22 17  1  0
 23 12  1  0
 24 23  2  0
 25 26  1  0
 26 27  1  0
 27 28  1  0
 29 28  1  1
 29 30  1  0
 30 23  1  0
 31 29  1  0
 31 33  1  0
 32 31  2  0
M  END
$$$$
