HWM.pdb
     RDKit          3D

 33 35  0  0  1  0  0  0  0  0999 V2000
   77.1163   -9.4906   27.1260 N   0  0  0  0  0  0  0  0  0  0  0  0
   77.3945  -10.1424   28.3761 C   0  0  1  0  0  0  0  0  0  0  0  0
   78.4580   -9.4085   29.1312 C   0  0  0  0  0  0  0  0  0  0  0  0
   79.5990  -10.2810   29.5323 C   0  0  0  0  0  0  0  0  0  0  0  0
   80.8088   -9.7815   29.9975 C   0  0  0  0  0  0  0  0  0  0  0  0
   81.5825  -10.8535   30.2553 N   0  0  0  0  0  0  0  0  0  0  0  0
   80.8923  -11.9723   29.9661 C   0  0  0  0  0  0  0  0  0  0  0  0
   79.6762  -11.6183   29.5229 N   0  0  0  0  0  0  0  0  0  0  0  0
   76.1684  -10.3600   29.1856 C   0  0  0  0  0  0  0  0  0  0  0  0
   76.1529  -11.2929   30.0270 O   0  0  0  0  0  0  0  0  0  0  0  0
   75.0330   -9.5345   29.0149 N   0  0  0  0  0  0  0  0  0  0  0  0
   74.2299   -9.6493   27.7917 C   0  0  1  0  0  0  0  0  0  0  0  0
   73.6788  -11.0284   27.7480 C   0  0  0  0  0  0  0  0  0  0  0  0
   73.6037  -11.6041   26.3968 C   0  0  0  0  0  0  0  0  0  0  0  0
   72.4294  -12.1546   25.8536 C   0  0  0  0  0  0  0  0  0  0  0  0
   72.6713  -12.5601   24.6020 N   0  0  0  0  0  0  0  0  0  0  0  0
   73.9527  -12.3144   24.2641 C   0  0  0  0  0  0  0  0  0  0  0  0
   74.6606  -12.5577   23.1060 C   0  0  0  0  0  0  0  0  0  0  0  0
   75.9866  -12.1989   23.0620 C   0  0  0  0  0  0  0  0  0  0  0  0
   76.5518  -11.6151   24.1684 C   0  0  0  0  0  0  0  0  0  0  0  0
   75.8572  -11.3703   25.3194 C   0  0  0  0  0  0  0  0  0  0  0  0
   74.5203  -11.7213   25.3877 C   0  0  0  0  0  0  0  0  0  0  0  0
   73.2594   -8.5489   27.6766 C   0  0  0  0  0  0  0  0  0  0  0  0
   72.7915   -8.2522   26.5517 O   0  0  0  0  0  0  0  0  0  0  0  0
   70.9194   -9.0601   32.0216 C   0  0  0  0  0  0  0  0  0  0  0  0
   70.9774   -7.4700   31.1720 S   0  0  0  0  0  0  0  0  0  0  0  0
   69.8046   -7.4343   29.7700 C   0  0  0  0  0  0  0  0  0  0  0  0
   70.5245   -7.2544   28.4697 C   0  0  0  0  0  0  0  0  0  0  0  0
   71.8848   -6.6866   28.6760 C   0  0  2  0  0  0  0  0  0  0  0  0
   72.8397   -7.8170   28.7955 N   0  0  0  0  0  0  0  0  0  0  0  0
   71.9648   -5.9463   29.9460 C   0  0  0  0  0  0  0  0  0  0  0  0
   71.7938   -4.7233   30.0359 O   0  0  0  0  0  0  0  0  0  0  0  0
   72.2465   -6.6303   31.1282 O   0  0  0  0  0  0  0  0  0  0  0  0
  2  1  1  6
  2  3  1  0
  3  4  1  0
  4  8  1  0
  5  4  2  0
  5  6  1  0
  6  7  1  0
  8  7  2  0
  9  2  1  0
  9 10  2  0
 11  9  1  0
 12 13  1  1
 12 11  1  0
 13 14  1  0
 14 15  2  0
 14 22  1  0
 15 16  1  0
 16 17  1  0
 17 18  2  0
 18 19  1  0
 20 19  2  0
 21 20  1  0
 22 21  2  0
 22 17  1  0
 23 12  1  0
 24 23  2  0
 25 26  1  0
 26 27  1  0
 27 28  1  0
 29 28  1  1
 29 30  1  0
 30 23  1  0
 31 29  1  0
 31 33  1  0
 32 31  2  0
M  END
$$$$
