RLT.pdb
     RDKit          3D

 27 26  0  0  1  0  0  0  0  0999 V2000
   12.5074  -20.5132   14.9816 N   0  0  0  0  0  0  0  0  0  0  0  0
   13.4508  -20.9879   15.9261 C   0  0  0  0  0  0  0  0  0  0  0  0
   13.6754  -22.2549   16.0037 N   0  0  0  0  0  0  0  0  0  0  0  0
   14.1154  -20.0512   16.7526 N   0  0  0  0  0  0  0  0  0  0  0  0
   13.8484  -18.6464   16.6885 C   0  0  0  0  0  0  0  0  0  0  0  0
   12.7431  -18.2003   17.6552 C   0  0  0  0  0  0  0  0  0  0  0  0
   12.6393  -16.7228   17.5203 C   0  0  0  0  0  0  0  0  0  0  0  0
   11.2865  -16.1465   17.7292 C   0  0  2  0  0  0  0  0  0  0  0  0
   10.8135  -15.4646   16.5398 N   0  0  0  0  0  0  0  0  0  0  0  0
   11.1282  -15.2973   18.9007 C   0  0  0  0  0  0  0  0  0  0  0  0
   11.9926  -14.4336   19.1785 O   0  0  0  0  0  0  0  0  0  0  0  0
   14.3409  -22.6835   16.6642 C   0  0  0  0  0  0  0  0  0  0  0  0
    8.5501  -12.1718   19.6807 C   0  0  2  0  0  0  0  0  0  0  0  0
    7.8468  -13.4727   19.8877 C   0  0  0  0  0  0  0  0  0  0  0  0
    6.3846  -13.1497   20.1636 C   0  0  0  0  0  0  0  0  0  0  0  0
    8.3704  -14.1706   21.0983 C   0  0  2  0  0  0  0  0  0  0  0  0
    9.8358  -14.5901   20.9649 N   0  0  0  0  0  0  0  0  0  0  0  0
   10.0148  -15.3960   19.7733 C   0  0  0  0  0  0  0  0  0  0  0  0
   10.1063  -15.4498   22.1401 O   0  0  0  0  0  0  0  0  0  0  0  0
    9.9396  -14.9786   23.2873 C   0  0  0  0  0  0  0  0  0  0  0  0
    8.8653  -18.8970   23.2450 C   0  0  2  0  0  0  0  0  0  0  0  0
   10.3657  -18.9749   23.1207 O   0  0  0  0  0  0  0  0  0  0  0  0
   10.6801  -19.5429   21.8966 C   0  0  2  0  0  0  0  0  0  0  0  0
   10.9245  -17.5693   23.2003 N   0  0  0  0  0  0  0  0  0  0  0  0
   10.5500  -16.7973   22.0319 C   0  0  0  0  0  0  0  0  0  0  0  0
   12.4063  -17.6383   23.3196 O   0  0  0  0  0  0  0  0  0  0  0  0
   13.1609  -17.1656   22.4187 O   0  0  0  0  0  0  0  0  0  0  0  0
  2  1  1  0
  3  2  2  0
  4  2  1  0
  5  4  1  0
  6  5  1  0
  7  6  1  0
  8 10  1  0
  8  9  1  6
  8  7  1  0
 10 17  1  0
 10 11  2  0
 13 12  1  6
 13 14  1  0
 15 13  1  0
 16 15  1  6
 17 16  1  0
 18 16  1  0
 19 18  2  0
 21 20  1  1
 21 23  1  0
 21 22  1  0
 23 24  1  1
 24 18  1  0
 25 27  1  0
 25 23  1  0
 26 25  2  0
M  END
$$$$
