RLT.pdb
     RDKit          3D

 27 26  0  0  1  0  0  0  0  0999 V2000
    8.6879  -12.9318   17.3354 N   0  0  0  0  0  0  0  0  0  0  0  0
    8.7752  -13.8275   16.2412 C   0  0  0  0  0  0  0  0  0  0  0  0
    8.3703  -13.4391   15.0806 N   0  0  0  0  0  0  0  0  0  0  0  0
    9.3061  -15.1205   16.4619 N   0  0  0  0  0  0  0  0  0  0  0  0
    9.6440  -15.5983   17.7682 C   0  0  0  0  0  0  0  0  0  0  0  0
    8.5019  -15.4376   18.7806 C   0  0  0  0  0  0  0  0  0  0  0  0
    9.0210  -15.9384   20.0812 C   0  0  0  0  0  0  0  0  0  0  0  0
    8.0550  -15.9346   21.2092 C   0  0  2  0  0  0  0  0  0  0  0  0
    6.7193  -15.5925   20.7595 N   0  0  0  0  0  0  0  0  0  0  0  0
    8.4255  -15.1303   22.3645 C   0  0  0  0  0  0  0  0  0  0  0  0
    9.5532  -14.5871   22.4227 O   0  0  0  0  0  0  0  0  0  0  0  0
    8.4942  -13.9839   14.2141 C   0  0  0  0  0  0  0  0  0  0  0  0
    5.5856  -12.0371   26.8961 C   0  0  1  0  0  0  0  0  0  0  0  0
    6.8673  -12.5687   26.3444 C   0  0  0  0  0  0  0  0  0  0  0  0
    7.6754  -11.3717   25.8623 C   0  0  0  0  0  0  0  0  0  0  0  0
    6.6138  -13.4272   25.1504 C   0  0  2  0  0  0  0  0  0  0  0  0
    7.8766  -14.1090   24.6199 N   0  0  0  0  0  0  0  0  0  0  0  0
    7.5537  -14.9206   23.4630 C   0  0  0  0  0  0  0  0  0  0  0  0
    8.3170  -15.0171   25.7037 O   0  0  0  0  0  0  0  0  0  0  0  0
    8.6630  -14.5274   26.8021 C   0  0  0  0  0  0  0  0  0  0  0  0
    6.7184  -18.3557   27.0481 C   0  0  2  0  0  0  0  0  0  0  0  0
    8.1475  -18.6101   26.6410 O   0  0  0  0  0  0  0  0  0  0  0  0
    8.1537  -19.1811   25.3786 C   0  0  2  0  0  0  0  0  0  0  0  0
    8.8793  -17.2840   26.6151 N   0  0  0  0  0  0  0  0  0  0  0  0
    8.3676  -16.4318   25.5601 C   0  0  0  0  0  0  0  0  0  0  0  0
   10.3335  -17.5319   26.4182 O   0  0  0  0  0  0  0  0  0  0  0  0
   10.9534  -17.0507   25.4239 O   0  0  0  0  0  0  0  0  0  0  0  0
  2  1  1  0
  3  2  2  0
  4  2  1  0
  5  4  1  0
  6  5  1  0
  7  6  1  0
  8 10  1  0
  8  9  1  6
  8  7  1  0
 10 17  1  0
 10 11  2  0
 13 12  1  1
 13 14  1  0
 15 13  1  0
 16 15  1  6
 17 16  1  0
 18 16  1  0
 19 18  2  0
 21 20  1  1
 21 23  1  0
 21 22  1  0
 23 24  1  1
 24 18  1  0
 25 27  1  0
 25 23  1  0
 26 25  2  0
M  END
$$$$
