RLT.pdb
     RDKit          3D

 27 26  0  0  1  0  0  0  0  0999 V2000
    8.5509  -15.1146   17.1042 N   0  0  0  0  0  0  0  0  0  0  0  0
    8.8007  -13.7418   17.3498 C   0  0  0  0  0  0  0  0  0  0  0  0
    8.3453  -12.8649   16.5219 N   0  0  0  0  0  0  0  0  0  0  0  0
    9.5429  -13.3810   18.4994 N   0  0  0  0  0  0  0  0  0  0  0  0
    9.2606  -13.9201   19.7950 C   0  0  0  0  0  0  0  0  0  0  0  0
    7.9221  -13.4357   20.3686 C   0  0  0  0  0  0  0  0  0  0  0  0
    7.1224  -14.6564   20.6551 C   0  0  0  0  0  0  0  0  0  0  0  0
    7.8262  -15.7326   21.3981 C   0  0  2  0  0  0  0  0  0  0  0  0
    7.0062  -16.9242   21.5047 N   0  0  0  0  0  0  0  0  0  0  0  0
    8.3619  -15.3643   22.7004 C   0  0  0  0  0  0  0  0  0  0  0  0
    9.5855  -15.1323   22.8395 O   0  0  0  0  0  0  0  0  0  0  0  0
    8.5269  -11.8527   16.5957 C   0  0  0  0  0  0  0  0  0  0  0  0
    7.8223  -11.9887   25.8889 C   0  0  2  0  0  0  0  0  0  0  0  0
    6.6643  -12.8858   25.5987 C   0  0  0  0  0  0  0  0  0  0  0  0
    5.5015  -12.4036   26.4553 C   0  0  0  0  0  0  0  0  0  0  0  0
    6.9604  -14.2858   26.0219 C   0  0  2  0  0  0  0  0  0  0  0  0
    8.0546  -14.9497   25.1834 N   0  0  0  0  0  0  0  0  0  0  0  0
    7.5505  -15.2497   23.8577 C   0  0  0  0  0  0  0  0  0  0  0  0
    8.3435  -16.2343   25.8614 O   0  0  0  0  0  0  0  0  0  0  0  0
    7.3892  -16.9249   26.2838 C   0  0  0  0  0  0  0  0  0  0  0  0
    9.9658  -19.3057   24.6776 C   0  0  2  0  0  0  0  0  0  0  0  0
   10.7631  -18.9025   25.8919 O   0  0  0  0  0  0  0  0  0  0  0  0
   11.9031  -18.2362   25.4724 C   0  0  2  0  0  0  0  0  0  0  0  0
    9.9077  -17.9851   26.7410 N   0  0  0  0  0  0  0  0  0  0  0  0
    9.6626  -16.7294   26.0594 C   0  0  0  0  0  0  0  0  0  0  0  0
   10.5922  -17.7418   28.0399 O   0  0  0  0  0  0  0  0  0  0  0  0
   10.9309  -16.5742   28.3956 O   0  0  0  0  0  0  0  0  0  0  0  0
  2  1  1  0
  3  2  2  0
  4  2  1  0
  5  4  1  0
  6  5  1  0
  7  6  1  0
  8 10  1  0
  8  9  1  1
  8  7  1  0
 10 17  1  0
 10 11  2  0
 13 12  1  6
 13 14  1  0
 15 13  1  0
 16 15  1  6
 17 16  1  0
 18 16  1  0
 19 18  2  0
 21 20  1  6
 21 23  1  0
 21 22  1  0
 23 24  1  1
 24 18  1  0
 25 27  1  0
 25 23  1  0
 26 25  2  0
M  END
$$$$
