RLT.pdb
     RDKit          3D

 27 26  0  0  1  0  0  0  0  0999 V2000
    7.5268  -13.0039   16.8155 N   0  0  0  0  0  0  0  0  0  0  0  0
    8.6121  -13.7211   17.3768 C   0  0  0  0  0  0  0  0  0  0  0  0
    9.0043  -14.8092   16.8076 N   0  0  0  0  0  0  0  0  0  0  0  0
    9.2293  -13.2153   18.5454 N   0  0  0  0  0  0  0  0  0  0  0  0
    8.6291  -13.3282   19.8399 C   0  0  0  0  0  0  0  0  0  0  0  0
    7.5155  -14.3826   19.8960 C   0  0  0  0  0  0  0  0  0  0  0  0
    7.7944  -15.2239   21.0903 C   0  0  0  0  0  0  0  0  0  0  0  0
    9.0500  -14.9157   21.8211 C   0  0  2  0  0  0  0  0  0  0  0  0
   10.1764  -15.6402   21.2647 N   0  0  0  0  0  0  0  0  0  0  0  0
    9.0035  -15.0778   23.2669 C   0  0  0  0  0  0  0  0  0  0  0  0
    9.9700  -15.5899   23.8783 O   0  0  0  0  0  0  0  0  0  0  0  0
    9.8299  -15.3505   17.1047 C   0  0  0  0  0  0  0  0  0  0  0  0
    8.0233  -11.9870   26.7138 C   0  0  2  0  0  0  0  0  0  0  0  0
    6.8661  -12.4349   25.8831 C   0  0  0  0  0  0  0  0  0  0  0  0
    5.6229  -11.7655   26.4533 C   0  0  0  0  0  0  0  0  0  0  0  0
    6.6607  -13.9073   26.0118 C   0  0  2  0  0  0  0  0  0  0  0  0
    7.8443  -14.7278   25.4951 N   0  0  0  0  0  0  0  0  0  0  0  0
    7.8897  -14.6759   24.0472 C   0  0  0  0  0  0  0  0  0  0  0  0
    7.5555  -16.1254   25.8911 O   0  0  0  0  0  0  0  0  0  0  0  0
    6.7452  -16.3370   26.8209 C   0  0  0  0  0  0  0  0  0  0  0  0
    6.3713  -19.3295   24.1569 C   0  0  2  0  0  0  0  0  0  0  0  0
    7.7478  -19.5945   24.7114 O   0  0  0  0  0  0  0  0  0  0  0  0
    8.6728  -19.4479   23.6902 C   0  0  2  0  0  0  0  0  0  0  0  0
    8.0219  -18.5874   25.8092 N   0  0  0  0  0  0  0  0  0  0  0  0
    8.1570  -17.2514   25.2630 C   0  0  0  0  0  0  0  0  0  0  0  0
    9.2631  -18.9773   26.5317 O   0  0  0  0  0  0  0  0  0  0  0  0
   10.3050  -18.2585   26.4832 O   0  0  0  0  0  0  0  0  0  0  0  0
  2  1  1  0
  3  2  2  0
  4  2  1  0
  5  4  1  0
  6  5  1  0
  7  6  1  0
  8 10  1  0
  8  9  1  6
  8  7  1  0
 10 17  1  0
 10 11  2  0
 13 12  1  6
 13 14  1  0
 15 13  1  0
 16 15  1  1
 17 16  1  0
 18 16  1  0
 19 18  2  0
 21 20  1  6
 21 23  1  0
 21 22  1  0
 23 24  1  1
 24 18  1  0
 25 27  1  0
 25 23  1  0
 26 25  2  0
M  END
$$$$
