RLT.pdb
     RDKit          3D

 27 26  0  0  1  0  0  0  0  0999 V2000
    9.2828  -12.4858   16.2927 N   0  0  0  0  0  0  0  0  0  0  0  0
    8.4897  -13.6440   16.1011 C   0  0  0  0  0  0  0  0  0  0  0  0
    8.2531  -14.0489   14.9003 N   0  0  0  0  0  0  0  0  0  0  0  0
    7.9847  -14.3178   17.2384 N   0  0  0  0  0  0  0  0  0  0  0  0
    8.3947  -13.9887   18.5698 C   0  0  0  0  0  0  0  0  0  0  0  0
    7.7794  -14.9090   19.6327 C   0  0  0  0  0  0  0  0  0  0  0  0
    8.3473  -14.4798   20.9384 C   0  0  0  0  0  0  0  0  0  0  0  0
    8.3849  -15.5168   22.0009 C   0  0  2  0  0  0  0  0  0  0  0  0
    7.1294  -16.2385   22.0792 N   0  0  0  0  0  0  0  0  0  0  0  0
    8.7953  -15.0631   23.3217 C   0  0  0  0  0  0  0  0  0  0  0  0
    9.9835  -14.7270   23.5352 O   0  0  0  0  0  0  0  0  0  0  0  0
    7.6714  -14.8689   14.6721 C   0  0  0  0  0  0  0  0  0  0  0  0
    7.5932  -11.5709   25.6853 C   0  0  2  0  0  0  0  0  0  0  0  0
    6.5670  -12.6557   25.6829 C   0  0  0  0  0  0  0  0  0  0  0  0
    5.3641  -12.1328   26.4562 C   0  0  0  0  0  0  0  0  0  0  0  0
    7.0638  -13.8557   26.4176 C   0  0  2  0  0  0  0  0  0  0  0  0
    8.2641  -14.5215   25.7416 N   0  0  0  0  0  0  0  0  0  0  0  0
    7.8969  -14.9775   24.4155 C   0  0  0  0  0  0  0  0  0  0  0  0
    8.5662  -15.7148   26.5652 O   0  0  0  0  0  0  0  0  0  0  0  0
    8.8120  -15.5646   27.7830 C   0  0  0  0  0  0  0  0  0  0  0  0
    6.7652  -19.2483   26.6048 C   0  0  2  0  0  0  0  0  0  0  0  0
    8.2464  -19.4281   26.3891 O   0  0  0  0  0  0  0  0  0  0  0  0
    8.4770  -19.6228   25.0368 C   0  0  2  0  0  0  0  0  0  0  0  0
    8.9529  -18.1741   26.8614 N   0  0  0  0  0  0  0  0  0  0  0  0
    8.5915  -17.0365   26.0389 C   0  0  0  0  0  0  0  0  0  0  0  0
   10.4238  -18.3958   26.8177 O   0  0  0  0  0  0  0  0  0  0  0  0
   11.1741  -17.6844   26.0859 O   0  0  0  0  0  0  0  0  0  0  0  0
  2  1  1  0
  3  2  2  0
  4  2  1  0
  5  4  1  0
  6  5  1  0
  7  6  1  0
  8 10  1  0
  8  9  1  1
  8  7  1  0
 10 17  1  0
 10 11  2  0
 13 12  1  6
 13 14  1  0
 15 13  1  0
 16 15  1  6
 17 16  1  0
 18 16  1  0
 19 18  2  0
 21 20  1  1
 21 23  1  0
 21 22  1  0
 23 24  1  1
 24 18  1  0
 25 27  1  0
 25 23  1  0
 26 25  2  0
M  END
$$$$
