RLT.pdb
     RDKit          3D

 27 26  0  0  1  0  0  0  0  0999 V2000
    5.1889  -21.2384   21.6072 N   0  0  0  0  0  0  0  0  0  0  0  0
    5.4722  -20.6401   22.8599 C   0  0  0  0  0  0  0  0  0  0  0  0
    4.5871  -20.6977   23.7953 N   0  0  0  0  0  0  0  0  0  0  0  0
    6.7209  -19.9993   23.0403 N   0  0  0  0  0  0  0  0  0  0  0  0
    7.6568  -19.8283   21.9708 C   0  0  0  0  0  0  0  0  0  0  0  0
    7.6249  -18.4191   21.3641 C   0  0  0  0  0  0  0  0  0  0  0  0
    8.5041  -17.5754   22.2167 C   0  0  0  0  0  0  0  0  0  0  0  0
    8.1791  -16.1267   22.2487 C   0  0  2  0  0  0  0  0  0  0  0  0
    8.6285  -15.4578   21.0428 N   0  0  0  0  0  0  0  0  0  0  0  0
    8.6202  -15.3992   23.4297 C   0  0  0  0  0  0  0  0  0  0  0  0
    9.8012  -14.9894   23.5169 O   0  0  0  0  0  0  0  0  0  0  0  0
    4.7359  -20.3457   24.7529 C   0  0  0  0  0  0  0  0  0  0  0  0
    7.2891  -11.5632   25.2874 C   0  0  1  0  0  0  0  0  0  0  0  0
    6.3345  -12.6891   25.5124 C   0  0  0  0  0  0  0  0  0  0  0  0
    5.1544  -12.1239   26.2911 C   0  0  0  0  0  0  0  0  0  0  0  0
    6.9519  -13.7431   26.3696 C   0  0  2  0  0  0  0  0  0  0  0  0
    8.1655  -14.4122   25.7211 N   0  0  0  0  0  0  0  0  0  0  0  0
    7.7606  -15.1196   24.5223 C   0  0  0  0  0  0  0  0  0  0  0  0
    8.6328  -15.4156   26.7051 O   0  0  0  0  0  0  0  0  0  0  0  0
    8.9357  -15.0379   27.8590 C   0  0  0  0  0  0  0  0  0  0  0  0
    7.5490  -19.4208   27.1405 C   0  0  2  0  0  0  0  0  0  0  0  0
    9.0224  -19.1660   26.9482 O   0  0  0  0  0  0  0  0  0  0  0  0
    9.3332  -19.3507   25.6107 C   0  0  2  0  0  0  0  0  0  0  0  0
    9.3169  -17.7376   27.3577 N   0  0  0  0  0  0  0  0  0  0  0  0
    8.7564  -16.8007   26.4041 C   0  0  0  0  0  0  0  0  0  0  0  0
   10.7900  -17.5518   27.4586 O   0  0  0  0  0  0  0  0  0  0  0  0
   11.3930  -16.6878   26.7555 O   0  0  0  0  0  0  0  0  0  0  0  0
  2  1  1  0
  3  2  2  0
  4  2  1  0
  5  4  1  0
  6  5  1  0
  7  6  1  0
  8 10  1  0
  8  9  1  6
  8  7  1  0
 10 17  1  0
 10 11  2  0
 13 12  1  6
 13 14  1  0
 15 13  1  0
 16 15  1  6
 17 16  1  0
 18 16  1  0
 19 18  2  0
 21 20  1  1
 21 23  1  0
 21 22  1  0
 23 24  1  1
 24 18  1  0
 25 27  1  0
 25 23  1  0
 26 25  2  0
M  END
$$$$
