RLT.pdb
     RDKit          3D

 27 26  0  0  1  0  0  0  0  0999 V2000
    9.2032  -15.4168   15.9516 N   0  0  0  0  0  0  0  0  0  0  0  0
    8.6036  -14.1333   15.9342 C   0  0  0  0  0  0  0  0  0  0  0  0
    8.3502  -13.5763   14.7995 N   0  0  0  0  0  0  0  0  0  0  0  0
    8.3025  -13.5069   17.1668 N   0  0  0  0  0  0  0  0  0  0  0  0
    8.6350  -14.0963   18.4281 C   0  0  0  0  0  0  0  0  0  0  0  0
    7.5381  -13.9115   19.4855 C   0  0  0  0  0  0  0  0  0  0  0  0
    8.2333  -13.7971   20.7952 C   0  0  0  0  0  0  0  0  0  0  0  0
    8.3004  -15.0410   21.6039 C   0  0  2  0  0  0  0  0  0  0  0  0
    7.0530  -15.7783   21.5432 N   0  0  0  0  0  0  0  0  0  0  0  0
    8.7321  -14.8822   22.9849 C   0  0  0  0  0  0  0  0  0  0  0  0
    9.9324  -14.6379   23.2493 O   0  0  0  0  0  0  0  0  0  0  0  0
    7.9670  -12.6247   14.6968 C   0  0  0  0  0  0  0  0  0  0  0  0
    8.0695  -11.9588   26.2707 C   0  0  2  0  0  0  0  0  0  0  0  0
    6.9129  -12.8259   25.8962 C   0  0  0  0  0  0  0  0  0  0  0  0
    5.7132  -12.3391   26.6975 C   0  0  0  0  0  0  0  0  0  0  0  0
    7.1584  -14.2404   26.3032 C   0  0  2  0  0  0  0  0  0  0  0  0
    8.2461  -14.9257   25.4735 N   0  0  0  0  0  0  0  0  0  0  0  0
    7.8416  -14.9921   24.0831 C   0  0  0  0  0  0  0  0  0  0  0  0
    8.3207  -16.3110   25.9919 O   0  0  0  0  0  0  0  0  0  0  0  0
    7.2584  -16.9192   26.2517 C   0  0  0  0  0  0  0  0  0  0  0  0
    9.4878  -19.4018   24.4995 C   0  0  2  0  0  0  0  0  0  0  0  0
   10.3175  -19.2649   25.7507 O   0  0  0  0  0  0  0  0  0  0  0  0
   11.5418  -18.7115   25.4123 C   0  0  2  0  0  0  0  0  0  0  0  0
    9.5834  -18.3536   26.7125 N   0  0  0  0  0  0  0  0  0  0  0  0
    9.5496  -16.9936   26.2120 C   0  0  0  0  0  0  0  0  0  0  0  0
   10.2567  -18.3985   28.0390 O   0  0  0  0  0  0  0  0  0  0  0  0
   10.7526  -17.3557   28.5598 O   0  0  0  0  0  0  0  0  0  0  0  0
  2  1  1  0
  3  2  2  0
  4  2  1  0
  5  4  1  0
  6  5  1  0
  7  6  1  0
  8 10  1  0
  8  9  1  1
  8  7  1  0
 10 17  1  0
 10 11  2  0
 13 12  1  6
 13 14  1  0
 15 13  1  0
 16 15  1  6
 17 16  1  0
 18 16  1  0
 19 18  2  0
 21 20  1  6
 21 23  1  0
 21 22  1  0
 23 24  1  1
 24 18  1  0
 25 27  1  0
 25 23  1  0
 26 25  2  0
M  END
$$$$
