RLT.pdb
     RDKit          3D

 27 26  0  0  1  0  0  0  0  0999 V2000
    9.6368  -20.2242   20.4351 N   0  0  0  0  0  0  0  0  0  0  0  0
    8.6782  -20.9951   21.1381 C   0  0  0  0  0  0  0  0  0  0  0  0
    8.9789  -22.1984   21.4896 N   0  0  0  0  0  0  0  0  0  0  0  0
    7.4214  -20.4147   21.4309 N   0  0  0  0  0  0  0  0  0  0  0  0
    7.1529  -19.0235   21.2273 C   0  0  0  0  0  0  0  0  0  0  0  0
    8.3923  -18.1385   21.4166 C   0  0  0  0  0  0  0  0  0  0  0  0
    7.9482  -16.7390   21.1801 C   0  0  0  0  0  0  0  0  0  0  0  0
    8.9915  -15.6933   21.3339 C   0  0  2  0  0  0  0  0  0  0  0  0
   10.2525  -16.1162   20.7556 N   0  0  0  0  0  0  0  0  0  0  0  0
    9.1940  -15.1870   22.6835 C   0  0  0  0  0  0  0  0  0  0  0  0
   10.3174  -15.2759   23.2315 O   0  0  0  0  0  0  0  0  0  0  0  0
    8.3794  -22.7937   22.0806 C   0  0  0  0  0  0  0  0  0  0  0  0
    5.8537  -12.0675   26.9445 C   0  0  1  0  0  0  0  0  0  0  0  0
    7.1321  -12.7476   26.5801 C   0  0  0  0  0  0  0  0  0  0  0  0
    8.2337  -11.6998   26.6636 C   0  0  0  0  0  0  0  0  0  0  0  0
    7.0945  -13.2223   25.1658 C   0  0  2  0  0  0  0  0  0  0  0  0
    8.3251  -14.0422   24.7730 N   0  0  0  0  0  0  0  0  0  0  0  0
    8.1576  -14.5795   23.4371 C   0  0  0  0  0  0  0  0  0  0  0  0
    8.3569  -15.1804   25.7201 O   0  0  0  0  0  0  0  0  0  0  0  0
    8.5381  -14.9518   26.9370 C   0  0  0  0  0  0  0  0  0  0  0  0
    6.1101  -18.5127   25.5615 C   0  0  2  0  0  0  0  0  0  0  0  0
    7.5669  -18.8557   25.7424 O   0  0  0  0  0  0  0  0  0  0  0  0
    8.0901  -19.2289   24.5150 C   0  0  2  0  0  0  0  0  0  0  0  0
    8.2852  -17.6273   26.2617 N   0  0  0  0  0  0  0  0  0  0  0  0
    8.1900  -16.5340   25.3146 C   0  0  0  0  0  0  0  0  0  0  0  0
    9.7117  -17.9663   26.5166 O   0  0  0  0  0  0  0  0  0  0  0  0
   10.6470  -17.3876   25.8882 O   0  0  0  0  0  0  0  0  0  0  0  0
  2  1  1  0
  3  2  2  0
  4  2  1  0
  5  4  1  0
  6  5  1  0
  7  6  1  0
  8 10  1  0
  8  9  1  1
  8  7  1  0
 10 17  1  0
 10 11  2  0
 13 12  1  1
 13 14  1  0
 15 13  1  0
 16 15  1  6
 17 16  1  0
 18 16  1  0
 19 18  2  0
 21 20  1  1
 21 23  1  0
 21 22  1  0
 23 24  1  1
 24 18  1  0
 25 27  1  0
 25 23  1  0
 26 25  2  0
M  END
$$$$
