RLT.pdb
     RDKit          3D

 27 26  0  0  1  0  0  0  0  0999 V2000
    9.7628  -15.0495   17.2212 N   0  0  0  0  0  0  0  0  0  0  0  0
    8.6055  -14.4419   16.6745 C   0  0  0  0  0  0  0  0  0  0  0  0
    8.1473  -14.8691   15.5479 N   0  0  0  0  0  0  0  0  0  0  0  0
    7.9916  -13.3849   17.3874 N   0  0  0  0  0  0  0  0  0  0  0  0
    8.5078  -12.8961   18.6298 C   0  0  0  0  0  0  0  0  0  0  0  0
    8.0336  -13.7120   19.8400 C   0  0  0  0  0  0  0  0  0  0  0  0
    9.0871  -14.7293   20.0987 C   0  0  0  0  0  0  0  0  0  0  0  0
    8.8693  -15.6015   21.2809 C   0  0  2  0  0  0  0  0  0  0  0  0
    7.5952  -16.2899   21.2019 N   0  0  0  0  0  0  0  0  0  0  0  0
    9.0254  -14.9656   22.5809 C   0  0  0  0  0  0  0  0  0  0  0  0
   10.1506  -14.5633   22.9582 O   0  0  0  0  0  0  0  0  0  0  0  0
    7.3199  -14.4756   15.0751 C   0  0  0  0  0  0  0  0  0  0  0  0
    5.3870  -12.2649   26.8172 C   0  0  1  0  0  0  0  0  0  0  0  0
    6.7360  -12.8032   26.4704 C   0  0  0  0  0  0  0  0  0  0  0  0
    7.6730  -11.6096   26.3441 C   0  0  0  0  0  0  0  0  0  0  0  0
    6.7112  -13.4751   25.1382 C   0  0  2  0  0  0  0  0  0  0  0  0
    8.0493  -14.1141   24.7611 N   0  0  0  0  0  0  0  0  0  0  0  0
    7.9406  -14.7698   23.4729 C   0  0  0  0  0  0  0  0  0  0  0  0
    8.2875  -15.1583   25.7840 O   0  0  0  0  0  0  0  0  0  0  0  0
    8.3759  -14.8209   26.9858 C   0  0  0  0  0  0  0  0  0  0  0  0
    6.4506  -18.5632   26.2299 C   0  0  2  0  0  0  0  0  0  0  0  0
    7.9343  -18.8246   26.1762 O   0  0  0  0  0  0  0  0  0  0  0  0
    8.2636  -19.2494   24.8992 C   0  0  2  0  0  0  0  0  0  0  0  0
    8.6581  -17.5332   26.4971 N   0  0  0  0  0  0  0  0  0  0  0  0
    8.4221  -16.5392   25.4687 C   0  0  0  0  0  0  0  0  0  0  0  0
   10.1152  -17.8079   26.6242 O   0  0  0  0  0  0  0  0  0  0  0  0
   10.9604  -17.2295   25.8789 O   0  0  0  0  0  0  0  0  0  0  0  0
  2  1  1  0
  3  2  2  0
  4  2  1  0
  5  4  1  0
  6  5  1  0
  7  6  1  0
  8 10  1  0
  8  9  1  6
  8  7  1  0
 10 17  1  0
 10 11  2  0
 13 12  1  1
 13 14  1  0
 15 13  1  0
 16 15  1  6
 17 16  1  0
 18 16  1  0
 19 18  2  0
 21 20  1  1
 21 23  1  0
 21 22  1  0
 23 24  1  1
 24 18  1  0
 25 27  1  0
 25 23  1  0
 26 25  2  0
M  END
$$$$
