RLT.pdb
     RDKit          3D

 27 26  0  0  1  0  0  0  0  0999 V2000
    8.1498  -15.1320   16.3264 N   0  0  0  0  0  0  0  0  0  0  0  0
    8.4271  -13.7463   16.4278 C   0  0  0  0  0  0  0  0  0  0  0  0
    8.1624  -12.9802   15.4254 N   0  0  0  0  0  0  0  0  0  0  0  0
    8.9857  -13.2510   17.6299 N   0  0  0  0  0  0  0  0  0  0  0  0
    9.1551  -14.0701   18.7915 C   0  0  0  0  0  0  0  0  0  0  0  0
    8.0742  -13.8351   19.8552 C   0  0  0  0  0  0  0  0  0  0  0  0
    7.4691  -15.1637   20.1388 C   0  0  0  0  0  0  0  0  0  0  0  0
    8.1583  -15.9833   21.1678 C   0  0  2  0  0  0  0  0  0  0  0  0
    7.4233  -17.2008   21.4525 N   0  0  0  0  0  0  0  0  0  0  0  0
    8.5058  -15.2969   22.4034 C   0  0  0  0  0  0  0  0  0  0  0  0
    9.5985  -14.6922   22.5064 O   0  0  0  0  0  0  0  0  0  0  0  0
    8.4506  -11.9923   15.3623 C   0  0  0  0  0  0  0  0  0  0  0  0
    5.9302  -12.5409   27.2157 C   0  0  1  0  0  0  0  0  0  0  0  0
    7.1101  -13.3104   26.7203 C   0  0  0  0  0  0  0  0  0  0  0  0
    8.2546  -12.3185   26.5623 C   0  0  0  0  0  0  0  0  0  0  0  0
    6.8413  -13.8781   25.3667 C   0  0  2  0  0  0  0  0  0  0  0  0
    8.0061  -14.7047   24.8181 N   0  0  0  0  0  0  0  0  0  0  0  0
    7.6494  -15.2735   23.5334 C   0  0  0  0  0  0  0  0  0  0  0  0
    8.1811  -15.8203   25.7764 O   0  0  0  0  0  0  0  0  0  0  0  0
    7.1682  -16.3269   26.3087 C   0  0  0  0  0  0  0  0  0  0  0  0
    9.4672  -19.0855   25.0904 C   0  0  2  0  0  0  0  0  0  0  0  0
   10.3144  -18.6331   26.2524 O   0  0  0  0  0  0  0  0  0  0  0  0
   11.5236  -18.1655   25.7637 C   0  0  2  0  0  0  0  0  0  0  0  0
    9.5805  -17.5215   26.9736 N   0  0  0  0  0  0  0  0  0  0  0  0
    9.4536  -16.3518   26.1269 C   0  0  0  0  0  0  0  0  0  0  0  0
   10.3168  -17.1782   28.2205 O   0  0  0  0  0  0  0  0  0  0  0  0
   10.4774  -18.0297   29.1444 O   0  0  0  0  0  0  0  0  0  0  0  0
  2  1  1  0
  3  2  2  0
  4  2  1  0
  5  4  1  0
  6  5  1  0
  7  6  1  0
  8 10  1  0
  8  9  1  1
  8  7  1  0
 10 17  1  0
 10 11  2  0
 13 12  1  1
 13 14  1  0
 15 13  1  0
 16 15  1  6
 17 16  1  0
 18 16  1  0
 19 18  2  0
 21 20  1  1
 21 23  1  0
 21 22  1  0
 23 24  1  1
 24 18  1  0
 25 27  1  0
 25 23  1  0
 26 25  2  0
M  END
$$$$
