RLT.pdb
     RDKit          3D

 27 26  0  0  1  0  0  0  0  0999 V2000
    9.7679  -14.2278   16.7763 N   0  0  0  0  0  0  0  0  0  0  0  0
    8.4943  -13.6162   16.6704 C   0  0  0  0  0  0  0  0  0  0  0  0
    7.8860  -13.6299   15.5339 N   0  0  0  0  0  0  0  0  0  0  0  0
    7.9333  -13.0108   17.8199 N   0  0  0  0  0  0  0  0  0  0  0  0
    8.1739  -13.5046   19.1417 C   0  0  0  0  0  0  0  0  0  0  0  0
    8.1167  -15.0356   19.2307 C   0  0  0  0  0  0  0  0  0  0  0  0
    7.3953  -15.3556   20.4913 C   0  0  0  0  0  0  0  0  0  0  0  0
    8.1784  -16.0898   21.5176 C   0  0  2  0  0  0  0  0  0  0  0  0
    7.5231  -17.3269   21.8968 N   0  0  0  0  0  0  0  0  0  0  0  0
    8.5536  -15.3284   22.7000 C   0  0  0  0  0  0  0  0  0  0  0  0
    9.7303  -14.9228   22.8452 O   0  0  0  0  0  0  0  0  0  0  0  0
    7.0149  -13.1139   15.3395 C   0  0  0  0  0  0  0  0  0  0  0  0
    5.6462  -12.3341   27.3038 C   0  0  1  0  0  0  0  0  0  0  0  0
    6.9283  -12.8843   26.7716 C   0  0  0  0  0  0  0  0  0  0  0  0
    7.8578  -11.7012   26.5375 C   0  0  0  0  0  0  0  0  0  0  0  0
    6.7152  -13.5345   25.4455 C   0  0  2  0  0  0  0  0  0  0  0  0
    7.9633  -14.2425   24.9144 N   0  0  0  0  0  0  0  0  0  0  0  0
    7.6324  -15.0099   23.7300 C   0  0  0  0  0  0  0  0  0  0  0  0
    8.3565  -15.1951   25.9781 O   0  0  0  0  0  0  0  0  0  0  0  0
    8.5164  -14.7699   27.1441 C   0  0  0  0  0  0  0  0  0  0  0  0
    6.8117  -18.7143   26.6724 C   0  0  2  0  0  0  0  0  0  0  0  0
    8.3108  -18.8551   26.5977 O   0  0  0  0  0  0  0  0  0  0  0  0
    8.6486  -19.3387   25.3440 C   0  0  2  0  0  0  0  0  0  0  0  0
    8.9294  -17.4891   26.8118 N   0  0  0  0  0  0  0  0  0  0  0  0
    8.5638  -16.5827   25.7413 C   0  0  0  0  0  0  0  0  0  0  0  0
   10.4092  -17.6288   26.8865 O   0  0  0  0  0  0  0  0  0  0  0  0
   11.1655  -17.0728   26.0361 O   0  0  0  0  0  0  0  0  0  0  0  0
  2  1  1  0
  3  2  2  0
  4  2  1  0
  5  4  1  0
  6  5  1  0
  7  6  1  0
  8 10  1  0
  8  9  1  1
  8  7  1  0
 10 17  1  0
 10 11  2  0
 13 12  1  1
 13 14  1  0
 15 13  1  0
 16 15  1  6
 17 16  1  0
 18 16  1  0
 19 18  2  0
 21 20  1  1
 21 23  1  0
 21 22  1  0
 23 24  1  1
 24 18  1  0
 25 27  1  0
 25 23  1  0
 26 25  2  0
M  END
$$$$
