PVA.pdb
     RDKit          3D

 20 20  0  0  1  0  0  0  0  0999 V2000
   28.5409  -20.8124  -15.6712 N   0  0  0  0  0  0  0  0  0  0  0  0
   29.2402  -19.9389  -16.5633 C   0  0  0  0  0  0  0  0  0  0  0  0
   28.3781  -18.7217  -16.6458 C   0  0  0  0  0  0  0  0  0  0  0  0
   27.4887  -18.7066  -15.4232 C   0  0  0  0  0  0  0  0  0  0  0  0
   27.9326  -19.9520  -14.6982 C   0  0  1  0  0  0  0  0  0  0  0  0
   26.8486  -20.6447  -14.0006 C   0  0  0  0  0  0  0  0  0  0  0  0
   26.3928  -21.7136  -14.4766 O   0  0  0  0  0  0  0  0  0  0  0  0
   23.9459  -21.0614   -9.9545 C   0  0  0  0  0  0  0  0  0  0  0  0
   25.1195  -20.4246  -10.6659 C   0  0  1  0  0  0  0  0  0  0  0  0
   26.3839  -20.7958   -9.9543 C   0  0  0  0  0  0  0  0  0  0  0  0
   25.1488  -20.8193  -12.1335 C   0  0  2  0  0  0  0  0  0  0  0  0
   26.2599  -20.1844  -12.7941 N   0  0  0  0  0  0  0  0  0  0  0  0
   23.8452  -20.4367  -12.7228 C   0  0  0  0  0  0  0  0  0  0  0  0
   23.5415  -19.2244  -12.7486 O   0  0  0  0  0  0  0  0  0  0  0  0
   21.3016  -21.8095  -15.0404 C   0  0  0  0  0  0  0  0  0  0  0  0
   21.7339  -20.9028  -13.9018 C   0  0  2  0  0  0  0  0  0  0  0  0
   22.9304  -21.3849  -13.2571 N   0  0  0  0  0  0  0  0  0  0  0  0
   20.6173  -20.7496  -12.9031 C   0  0  0  0  0  0  0  0  0  0  0  0
   20.6493  -21.2794  -11.7820 O   0  0  0  0  0  0  0  0  0  0  0  0
   19.5045  -19.9909  -13.2337 O   0  0  0  0  0  0  0  0  0  0  0  0
  2  1  1  0
  3  2  1  0
  4  3  1  0
  4  5  1  0
  5  1  1  0
  6 12  1  0
  5  6  1  6
  7  6  2  0
  9  8  1  1
  9 11  1  0
 10  9  1  0
 11 12  1  6
 11 13  1  0
 13 14  2  0
 16 15  1  6
 16 18  1  0
 17 13  1  0
 17 16  1  0
 18 20  1  0
 19 18  2  0
M  END
$$$$
