PVA.pdb
     RDKit          3D

 20 20  0  0  1  0  0  0  0  0999 V2000
   23.5725  -21.1011  -16.0666 N   0  0  0  0  0  0  0  0  0  0  0  0
   22.5491  -20.3794  -16.7591 C   0  0  0  0  0  0  0  0  0  0  0  0
   21.9750  -19.4640  -15.7276 C   0  0  0  0  0  0  0  0  0  0  0  0
   23.0037  -19.3075  -14.6306 C   0  0  0  0  0  0  0  0  0  0  0  0
   24.1362  -20.1631  -15.1396 C   0  0  1  0  0  0  0  0  0  0  0  0
   24.8699  -20.8585  -14.0814 C   0  0  0  0  0  0  0  0  0  0  0  0
   24.3906  -21.9083  -13.5863 O   0  0  0  0  0  0  0  0  0  0  0  0
   28.7281  -19.5265  -12.9164 C   0  0  0  0  0  0  0  0  0  0  0  0
   28.2802  -20.9346  -12.5917 C   0  0  1  0  0  0  0  0  0  0  0  0
   29.0124  -21.4137  -11.3765 C   0  0  0  0  0  0  0  0  0  0  0  0
   26.7717  -21.0019  -12.4176 C   0  0  2  0  0  0  0  0  0  0  0  0
   26.1157  -20.4215  -13.5607 N   0  0  0  0  0  0  0  0  0  0  0  0
   26.4381  -20.3010  -11.1564 C   0  0  0  0  0  0  0  0  0  0  0  0
   26.3232  -19.0566  -11.1845 O   0  0  0  0  0  0  0  0  0  0  0  0
   25.0025  -20.9190   -7.8088 C   0  0  0  0  0  0  0  0  0  0  0  0
   25.9611  -20.2014   -8.7424 C   0  0  2  0  0  0  0  0  0  0  0  0
   26.2442  -20.9803   -9.9226 N   0  0  0  0  0  0  0  0  0  0  0  0
   27.2344  -19.8537   -8.0174 C   0  0  0  0  0  0  0  0  0  0  0  0
   28.2839  -20.4974   -8.1687 O   0  0  0  0  0  0  0  0  0  0  0  0
   27.2510  -18.7763   -7.1444 O   0  0  0  0  0  0  0  0  0  0  0  0
  2  1  1  0
  3  2  1  0
  4  3  1  0
  4  5  1  0
  5  1  1  0
  6 12  1  0
  5  6  1  1
  7  6  2  0
  9  8  1  1
  9 11  1  0
 10  9  1  0
 11 12  1  6
 11 13  1  0
 13 14  2  0
 16 15  1  1
 16 18  1  0
 17 13  1  0
 17 16  1  0
 18 20  1  0
 19 18  2  0
M  END
$$$$
