PVA.pdb
     RDKit          3D

 20 20  0  0  1  0  0  0  0  0999 V2000
   26.1112  -10.1214  -15.7788 N   0  0  0  0  0  0  0  0  0  0  0  0
   27.3029  -10.8654  -15.5064 C   0  0  0  0  0  0  0  0  0  0  0  0
   27.0556  -12.2042  -16.1211 C   0  0  0  0  0  0  0  0  0  0  0  0
   25.9717  -12.0373  -17.1620 C   0  0  0  0  0  0  0  0  0  0  0  0
   25.6781  -10.5608  -17.0736 C   0  0  1  0  0  0  0  0  0  0  0  0
   24.2697  -10.2270  -17.2890 C   0  0  0  0  0  0  0  0  0  0  0  0
   23.7542  -10.4263  -18.4166 O   0  0  0  0  0  0  0  0  0  0  0  0
   21.1263  -11.6399  -16.1575 C   0  0  0  0  0  0  0  0  0  0  0  0
   21.1496  -10.2206  -15.6341 C   0  0  1  0  0  0  0  0  0  0  0  0
   21.5804  -10.2342  -14.1999 C   0  0  0  0  0  0  0  0  0  0  0  0
   22.0386   -9.3358  -16.4929 C   0  0  2  0  0  0  0  0  0  0  0  0
   23.4222   -9.6803  -16.2905 N   0  0  0  0  0  0  0  0  0  0  0  0
   21.7463   -7.9293  -16.1331 C   0  0  0  0  0  0  0  0  0  0  0  0
   22.1667   -7.5002  -15.0369 O   0  0  0  0  0  0  0  0  0  0  0  0
   20.3859   -4.7736  -17.6329 C   0  0  0  0  0  0  0  0  0  0  0  0
   20.7018   -5.7288  -16.4956 C   0  0  2  0  0  0  0  0  0  0  0  0
   21.0120   -7.0522  -16.9773 N   0  0  0  0  0  0  0  0  0  0  0  0
   19.5571   -5.7741  -15.5182 C   0  0  0  0  0  0  0  0  0  0  0  0
   18.6775   -6.6476  -15.5629 O   0  0  0  0  0  0  0  0  0  0  0  0
   19.4685   -4.8105  -14.5248 O   0  0  0  0  0  0  0  0  0  0  0  0
  2  1  1  0
  3  2  1  0
  4  3  1  0
  4  5  1  0
  5  1  1  0
  6 12  1  0
  5  6  1  1
  7  6  2  0
  9  8  1  6
  9 11  1  0
 10  9  1  0
 11 12  1  1
 11 13  1  0
 13 14  2  0
 16 15  1  6
 16 18  1  0
 17 13  1  0
 17 16  1  0
 18 20  1  0
 19 18  2  0
M  END
$$$$
