PVA.pdb
     RDKit          3D

 20 20  0  0  1  0  0  0  0  0999 V2000
   19.6748  -12.9302  -18.1193 N   0  0  0  0  0  0  0  0  0  0  0  0
   18.8918  -13.2610  -19.2705 C   0  0  0  0  0  0  0  0  0  0  0  0
   18.0653  -12.0424  -19.5222 C   0  0  0  0  0  0  0  0  0  0  0  0
   18.7515  -10.8760  -18.8478 C   0  0  0  0  0  0  0  0  0  0  0  0
   19.9706  -11.5330  -18.2511 C   0  0  1  0  0  0  0  0  0  0  0  0
   20.3741  -10.9657  -16.9639 C   0  0  0  0  0  0  0  0  0  0  0  0
   19.7135  -11.2444  -15.9330 O   0  0  0  0  0  0  0  0  0  0  0  0
   23.1840  -11.3567  -14.6855 C   0  0  0  0  0  0  0  0  0  0  0  0
   23.1996   -9.8978  -15.0856 C   0  0  1  0  0  0  0  0  0  0  0  0
   24.2533   -9.6870  -16.1286 C   0  0  0  0  0  0  0  0  0  0  0  0
   21.8268   -9.4451  -15.5556 C   0  0  2  0  0  0  0  0  0  0  0  0
   21.4863  -10.1012  -16.7916 N   0  0  0  0  0  0  0  0  0  0  0  0
   21.8664   -7.9707  -15.6888 C   0  0  0  0  0  0  0  0  0  0  0  0
   22.4662   -7.4821  -16.6707 O   0  0  0  0  0  0  0  0  0  0  0  0
   19.9260   -5.0618  -15.1010 C   0  0  0  0  0  0  0  0  0  0  0  0
   21.3118   -5.6733  -14.9968 C   0  0  2  0  0  0  0  0  0  0  0  0
   21.2544   -7.0933  -14.7524 N   0  0  0  0  0  0  0  0  0  0  0  0
   22.1089   -4.9812  -13.9228 C   0  0  0  0  0  0  0  0  0  0  0  0
   22.4165   -5.5387  -12.8583 O   0  0  0  0  0  0  0  0  0  0  0  0
   22.5221   -3.6715  -14.1157 O   0  0  0  0  0  0  0  0  0  0  0  0
  2  1  1  0
  3  2  1  0
  4  3  1  0
  4  5  1  0
  5  1  1  0
  6 12  1  0
  5  6  1  1
  7  6  2  0
  9  8  1  6
  9 11  1  0
 10  9  1  0
 11 12  1  6
 11 13  1  0
 13 14  2  0
 16 15  1  1
 16 18  1  0
 17 13  1  0
 17 16  1  0
 18 20  1  0
 19 18  2  0
M  END
$$$$
