PVA.pdb
     RDKit          3D

 20 20  0  0  1  0  0  0  0  0999 V2000
   21.9705  -20.7240  -14.4212 N   0  0  0  0  0  0  0  0  0  0  0  0
   21.5276  -19.9400  -15.5334 C   0  0  0  0  0  0  0  0  0  0  0  0
   20.1069  -19.6075  -15.2133 C   0  0  0  0  0  0  0  0  0  0  0  0
   19.9264  -19.7582  -13.7198 C   0  0  0  0  0  0  0  0  0  0  0  0
   21.3091  -20.1661  -13.2773 C   0  0  1  0  0  0  0  0  0  0  0  0
   21.3144  -21.1145  -12.1628 C   0  0  0  0  0  0  0  0  0  0  0  0
   21.2554  -22.3460  -12.4008 O   0  0  0  0  0  0  0  0  0  0  0  0
   21.8063  -19.6857   -8.1986 C   0  0  0  0  0  0  0  0  0  0  0  0
   22.2865  -21.0712   -8.5709 C   0  0  1  0  0  0  0  0  0  0  0  0
   22.2806  -21.9367   -7.3488 C   0  0  0  0  0  0  0  0  0  0  0  0
   21.4469  -21.6573   -9.6943 C   0  0  2  0  0  0  0  0  0  0  0  0
   21.3831  -20.7336  -10.7974 N   0  0  0  0  0  0  0  0  0  0  0  0
   20.1106  -21.9662   -9.1358 C   0  0  0  0  0  0  0  0  0  0  0  0
   19.2706  -21.0429   -9.0684 O   0  0  0  0  0  0  0  0  0  0  0  0
   17.6914  -24.5976   -8.7633 C   0  0  0  0  0  0  0  0  0  0  0  0
   18.4337  -23.4473   -8.1067 C   0  0  2  0  0  0  0  0  0  0  0  0
   19.7455  -23.2610   -8.6760 N   0  0  0  0  0  0  0  0  0  0  0  0
   18.5263  -23.6663   -6.6196 C   0  0  0  0  0  0  0  0  0  0  0  0
   19.6044  -23.8759   -6.0433 O   0  0  0  0  0  0  0  0  0  0  0  0
   17.3720  -23.6356   -5.8515 O   0  0  0  0  0  0  0  0  0  0  0  0
  2  1  1  0
  3  2  1  0
  4  3  1  0
  4  5  1  0
  5  1  1  0
  6 12  1  0
  5  6  1  1
  7  6  2  0
  9  8  1  1
  9 11  1  0
 10  9  1  0
 11 12  1  6
 11 13  1  0
 13 14  2  0
 16 15  1  6
 16 18  1  0
 17 13  1  0
 17 16  1  0
 18 20  1  0
 19 18  2  0
M  END
$$$$
