PVA.pdb
     RDKit          3D

 20 20  0  0  1  0  0  0  0  0999 V2000
   19.4308  -11.2547  -17.8979 N   0  0  0  0  0  0  0  0  0  0  0  0
   18.8647  -12.3211  -18.6661 C   0  0  0  0  0  0  0  0  0  0  0  0
   18.4425  -13.3303  -17.6488 C   0  0  0  0  0  0  0  0  0  0  0  0
   18.2988  -12.6140  -16.3251 C   0  0  0  0  0  0  0  0  0  0  0  0
   18.6476  -11.1951  -16.6979 C   0  0  1  0  0  0  0  0  0  0  0  0
   19.3638  -10.4699  -15.6479 C   0  0  0  0  0  0  0  0  0  0  0  0
   18.8346  -10.3413  -14.5164 O   0  0  0  0  0  0  0  0  0  0  0  0
   22.7883  -11.1444  -14.1904 C   0  0  0  0  0  0  0  0  0  0  0  0
   22.7835   -9.7145  -14.6845 C   0  0  1  0  0  0  0  0  0  0  0  0
   23.5164   -9.6443  -15.9885 C   0  0  0  0  0  0  0  0  0  0  0  0
   21.3653   -9.1783  -14.7926 C   0  0  2  0  0  0  0  0  0  0  0  0
   20.6460   -9.8864  -15.8198 N   0  0  0  0  0  0  0  0  0  0  0  0
   21.4589   -7.7256  -15.0650 C   0  0  0  0  0  0  0  0  0  0  0  0
   21.9106   -7.3599  -16.1717 O   0  0  0  0  0  0  0  0  0  0  0  0
   19.7742   -4.6605  -14.3627 C   0  0  0  0  0  0  0  0  0  0  0  0
   21.1187   -5.3489  -14.5169 C   0  0  2  0  0  0  0  0  0  0  0  0
   21.0589   -6.7358  -14.1261 N   0  0  0  0  0  0  0  0  0  0  0  0
   22.1729   -4.6195  -13.7268 C   0  0  0  0  0  0  0  0  0  0  0  0
   22.6914   -5.0987  -12.7070 O   0  0  0  0  0  0  0  0  0  0  0  0
   22.5907   -3.3639  -14.1417 O   0  0  0  0  0  0  0  0  0  0  0  0
  2  1  1  0
  3  2  1  0
  4  3  1  0
  4  5  1  0
  5  1  1  0
  6 12  1  0
  5  6  1  1
  7  6  2  0
  9  8  1  6
  9 11  1  0
 10  9  1  0
 11 12  1  6
 11 13  1  0
 13 14  2  0
 16 15  1  1
 16 18  1  0
 17 13  1  0
 17 16  1  0
 18 20  1  0
 19 18  2  0
M  END
$$$$
