PVA.pdb
     RDKit          3D

 20 20  0  0  1  0  0  0  0  0999 V2000
   17.5809  -13.9987  -15.6140 N   0  0  0  0  0  0  0  0  0  0  0  0
   16.2860  -14.5794  -15.4305 C   0  0  0  0  0  0  0  0  0  0  0  0
   15.3834  -13.7582  -16.2921 C   0  0  0  0  0  0  0  0  0  0  0  0
   16.2410  -13.0728  -17.3316 C   0  0  0  0  0  0  0  0  0  0  0  0
   17.6179  -13.5812  -16.9856 C   0  0  1  0  0  0  0  0  0  0  0  0
   18.6794  -12.5966  -17.1985 C   0  0  0  0  0  0  0  0  0  0  0  0
   19.7757  -12.9675  -17.6858 O   0  0  0  0  0  0  0  0  0  0  0  0
   19.2569  -10.0709  -19.5806 C   0  0  0  0  0  0  0  0  0  0  0  0
   19.2023   -9.3276  -18.2640 C   0  0  1  0  0  0  0  0  0  0  0  0
   17.8370   -8.7371  -18.0909 C   0  0  0  0  0  0  0  0  0  0  0  0
   19.5866  -10.2356  -17.1072 C   0  0  2  0  0  0  0  0  0  0  0  0
   18.5567  -11.2176  -16.8863 N   0  0  0  0  0  0  0  0  0  0  0  0
   19.8129   -9.3755  -15.9231 C   0  0  0  0  0  0  0  0  0  0  0  0
   18.8150   -8.9604  -15.2950 O   0  0  0  0  0  0  0  0  0  0  0  0
   22.3227   -8.6596  -13.3706 C   0  0  0  0  0  0  0  0  0  0  0  0
   21.2227   -8.1760  -14.2988 C   0  0  2  0  0  0  0  0  0  0  0  0
   21.1097   -9.0046  -15.4737 N   0  0  0  0  0  0  0  0  0  0  0  0
   21.4573   -6.7389  -14.6828 C   0  0  0  0  0  0  0  0  0  0  0  0
   21.8210   -6.4046  -15.8206 O   0  0  0  0  0  0  0  0  0  0  0  0
   21.2638   -5.7398  -13.7407 O   0  0  0  0  0  0  0  0  0  0  0  0
  2  1  1  0
  3  2  1  0
  4  3  1  0
  4  5  1  0
  5  1  1  0
  6 12  1  0
  5  6  1  1
  7  6  2  0
  9  8  1  6
  9 11  1  0
 10  9  1  0
 11 12  1  1
 11 13  1  0
 13 14  2  0
 16 15  1  1
 16 18  1  0
 17 13  1  0
 17 16  1  0
 18 20  1  0
 19 18  2  0
M  END
$$$$
