PVA.pdb
     RDKit          3D

 20 20  0  0  1  0  0  0  0  0999 V2000
   17.2842  -12.4892  -15.5956 N   0  0  0  0  0  0  0  0  0  0  0  0
   15.9249  -12.9209  -15.4785 C   0  0  0  0  0  0  0  0  0  0  0  0
   15.2564  -11.8397  -14.6940 C   0  0  0  0  0  0  0  0  0  0  0  0
   16.0986  -10.5909  -14.8248 C   0  0  0  0  0  0  0  0  0  0  0  0
   17.2189  -11.0616  -15.7177 C   0  0  1  0  0  0  0  0  0  0  0  0
   18.5140  -10.4558  -15.4058 C   0  0  0  0  0  0  0  0  0  0  0  0
   19.2501  -10.9866  -14.5380 O   0  0  0  0  0  0  0  0  0  0  0  0
   21.4330   -9.9940  -17.6931 C   0  0  0  0  0  0  0  0  0  0  0  0
   21.0588   -8.6300  -17.1561 C   0  0  1  0  0  0  0  0  0  0  0  0
   20.2454   -7.9051  -18.1835 C   0  0  0  0  0  0  0  0  0  0  0  0
   20.3328   -8.7466  -15.8258 C   0  0  2  0  0  0  0  0  0  0  0  0
   19.0114   -9.2817  -16.0290 N   0  0  0  0  0  0  0  0  0  0  0  0
   20.3104   -7.3990  -15.2120 C   0  0  0  0  0  0  0  0  0  0  0  0
   19.3412   -6.6509  -15.4644 O   0  0  0  0  0  0  0  0  0  0  0  0
   21.9712   -5.4668  -12.4847 C   0  0  0  0  0  0  0  0  0  0  0  0
   21.2152   -5.5998  -13.7947 C   0  0  2  0  0  0  0  0  0  0  0  0
   21.3387   -6.9236  -14.3531 N   0  0  0  0  0  0  0  0  0  0  0  0
   21.6878   -4.5621  -14.7784 C   0  0  0  0  0  0  0  0  0  0  0  0
   22.4947   -4.8217  -15.6840 O   0  0  0  0  0  0  0  0  0  0  0  0
   21.2126   -3.2628  -14.6818 O   0  0  0  0  0  0  0  0  0  0  0  0
  2  1  1  0
  3  2  1  0
  4  3  1  0
  4  5  1  0
  5  1  1  0
  6 12  1  0
  5  6  1  1
  7  6  2  0
  9  8  1  6
  9 11  1  0
 10  9  1  0
 11 12  1  6
 11 13  1  0
 13 14  2  0
 16 15  1  1
 16 18  1  0
 17 13  1  0
 17 16  1  0
 18 20  1  0
 19 18  2  0
M  END
$$$$
