PVA.pdb
     RDKit          3D

 20 20  0  0  1  0  0  0  0  0999 V2000
   23.0968  -15.7818  -20.8026 N   0  0  0  0  0  0  0  0  0  0  0  0
   23.4157  -16.4591  -22.0223 C   0  0  0  0  0  0  0  0  0  0  0  0
   23.5562  -17.8928  -21.6271 C   0  0  0  0  0  0  0  0  0  0  0  0
   22.8181  -18.0826  -20.3214 C   0  0  0  0  0  0  0  0  0  0  0  0
   22.2781  -16.6985  -20.0634 C   0  0  1  0  0  0  0  0  0  0  0  0
   22.2441  -16.3349  -18.6462 C   0  0  0  0  0  0  0  0  0  0  0  0
   21.5131  -16.9863  -17.8599 O   0  0  0  0  0  0  0  0  0  0  0  0
   24.8604  -13.2881  -16.9485 C   0  0  0  0  0  0  0  0  0  0  0  0
   24.3580  -14.5158  -16.2211 C   0  0  1  0  0  0  0  0  0  0  0  0
   24.4093  -14.2662  -14.7454 C   0  0  0  0  0  0  0  0  0  0  0  0
   22.9639  -14.8976  -16.6914 C   0  0  2  0  0  0  0  0  0  0  0  0
   22.9965  -15.2724  -18.0815 N   0  0  0  0  0  0  0  0  0  0  0  0
   22.0764  -13.7395  -16.4373 C   0  0  0  0  0  0  0  0  0  0  0  0
   21.7377  -13.5024  -15.2576 O   0  0  0  0  0  0  0  0  0  0  0  0
   20.0974  -12.0280  -15.7348 C   0  0  0  0  0  0  0  0  0  0  0  0
   20.6620  -11.8473  -17.1326 C   0  0  2  0  0  0  0  0  0  0  0  0
   21.5966  -12.8916  -17.4726 N   0  0  0  0  0  0  0  0  0  0  0  0
   21.3076  -10.4932  -17.2644 C   0  0  0  0  0  0  0  0  0  0  0  0
   20.6697   -9.4365  -17.1414 O   0  0  0  0  0  0  0  0  0  0  0  0
   22.6654  -10.4070  -17.5331 O   0  0  0  0  0  0  0  0  0  0  0  0
  2  1  1  0
  3  2  1  0
  4  3  1  0
  4  5  1  0
  5  1  1  0
  6 12  1  0
  5  6  1  1
  7  6  2  0
  9  8  1  6
  9 11  1  0
 10  9  1  0
 11 12  1  6
 11 13  1  0
 13 14  2  0
 16 15  1  1
 16 18  1  0
 17 13  1  0
 17 16  1  0
 18 20  1  0
 19 18  2  0
M  END
$$$$
