PVA.pdb
     RDKit          3D

 20 20  0  0  1  0  0  0  0  0999 V2000
   18.7406  -11.6437  -19.0751 N   0  0  0  0  0  0  0  0  0  0  0  0
   18.2640  -11.6084  -20.4240 C   0  0  0  0  0  0  0  0  0  0  0  0
   18.2831  -10.1600  -20.7887 C   0  0  0  0  0  0  0  0  0  0  0  0
   19.2414   -9.4635  -19.8493 C   0  0  0  0  0  0  0  0  0  0  0  0
   19.7285  -10.6070  -18.9954 C   0  0  1  0  0  0  0  0  0  0  0  0
   19.9781  -10.2361  -17.6019 C   0  0  0  0  0  0  0  0  0  0  0  0
   19.0220  -10.2175  -16.7880 O   0  0  0  0  0  0  0  0  0  0  0  0
   23.9333  -10.0941  -16.0475 C   0  0  0  0  0  0  0  0  0  0  0  0
   22.7051  -10.3312  -15.1965 C   0  0  1  0  0  0  0  0  0  0  0  0
   23.0251  -10.0002  -13.7714 C   0  0  0  0  0  0  0  0  0  0  0  0
   21.5175   -9.5387  -15.7178 C   0  0  2  0  0  0  0  0  0  0  0  0
   21.2550   -9.8868  -17.0904 N   0  0  0  0  0  0  0  0  0  0  0  0
   21.8328   -8.1017  -15.5480 C   0  0  0  0  0  0  0  0  0  0  0  0
   22.7524   -7.6129  -16.2395 O   0  0  0  0  0  0  0  0  0  0  0  0
   20.1732   -5.0146  -14.8375 C   0  0  0  0  0  0  0  0  0  0  0  0
   21.4276   -5.8475  -14.6428 C   0  0  2  0  0  0  0  0  0  0  0  0
   21.1378   -7.2602  -14.6370 N   0  0  0  0  0  0  0  0  0  0  0  0
   22.1308   -5.4443  -13.3736 C   0  0  0  0  0  0  0  0  0  0  0  0
   22.7273   -4.3630  -13.2575 O   0  0  0  0  0  0  0  0  0  0  0  0
   22.1203   -6.3029  -12.2846 O   0  0  0  0  0  0  0  0  0  0  0  0
  2  1  1  0
  3  2  1  0
  4  3  1  0
  4  5  1  0
  5  1  1  0
  6 12  1  0
  5  6  1  1
  7  6  2  0
  9  8  1  6
  9 11  1  0
 10  9  1  0
 11 12  1  6
 11 13  1  0
 13 14  2  0
 16 15  1  1
 16 18  1  0
 17 13  1  0
 17 16  1  0
 18 20  1  0
 19 18  2  0
M  END
$$$$
