FLP.pdb
     RDKit          3D

 27 28  0  0  1  0  0  0  0  0999 V2000
    7.0564  -18.8242   27.4081 N   0  0  0  0  0  0  0  0  0  0  0  0
    7.6798  -17.5458   27.2601 C   0  0  1  0  0  0  0  0  0  0  0  0
    9.1754  -17.7089   27.4319 C   0  0  0  0  0  0  0  0  0  0  0  0
    9.6719  -16.4576   28.0703 C   0  0  0  0  0  0  0  0  0  0  0  0
    9.7389  -16.3858   29.4339 C   0  0  0  0  0  0  0  0  0  0  0  0
   10.2088  -15.1982   29.9942 C   0  0  0  0  0  0  0  0  0  0  0  0
   10.5838  -14.1546   29.1756 C   0  0  0  0  0  0  0  0  0  0  0  0
   10.5086  -14.2472   27.8009 C   0  0  0  0  0  0  0  0  0  0  0  0
   10.0448  -15.4181   27.2337 C   0  0  0  0  0  0  0  0  0  0  0  0
    7.3305  -16.9127   25.9616 C   0  0  0  0  0  0  0  0  0  0  0  0
    7.0184  -17.6481   25.0226 O   0  0  0  0  0  0  0  0  0  0  0  0
    5.2563  -13.0221   26.0361 C   0  0  0  0  0  0  0  0  0  0  0  0
    6.7904  -12.8221   25.9079 C   0  0  2  0  0  0  0  0  0  0  0  0
    7.1008  -11.3888   26.1936 C   0  0  0  0  0  0  0  0  0  0  0  0
    7.2358  -13.3484   24.5860 C   0  0  0  0  0  0  0  0  0  0  0  0
    7.2460  -14.8440   24.5087 C   0  0  2  0  0  0  0  0  0  0  0  0
    7.3463  -15.5045   25.7760 N   0  0  0  0  0  0  0  0  0  0  0  0
    8.2225  -15.4208   23.5847 C   0  0  0  0  0  0  0  0  0  0  0  0
    9.0947  -16.2074   24.1107 O   0  0  0  0  0  0  0  0  0  0  0  0
    8.3260  -15.2247   22.1887 N   0  0  0  0  0  0  0  0  0  0  0  0
    7.7762  -14.0251   21.5232 C   0  0  0  0  0  0  0  0  0  0  0  0
    7.1243  -14.6506   20.3095 C   0  0  0  0  0  0  0  0  0  0  0  0
    7.9376  -15.8569   19.9838 C   0  0  0  0  0  0  0  0  0  0  0  0
    8.9349  -15.9636   21.1167 C   0  0  1  0  0  0  0  0  0  0  0  0
   10.1981  -15.2872   20.6227 C   0  0  0  0  0  0  0  0  0  0  0  0
   10.9647  -15.8839   19.8221 O   0  0  0  0  0  0  0  0  0  0  0  0
   10.5732  -14.0211   21.0079 O   0  0  0  0  0  0  0  0  0  0  0  0
  2 10  1  0
  2  1  1  6
  3  2  1  0
  4  3  1  0
  4  9  1  0
  5  4  2  0
  6  5  1  0
  6  7  2  0
  7  8  1  0
  8  9  2  0
 10 11  2  0
 13 14  1  6
 13 12  1  0
 15 13  1  0
 16 15  1  1
 17 16  1  0
 17 10  1  0
 18 19  2  0
 18 16  1  0
 20 18  1  0
 21 20  1  0
 22 21  1  0
 23 22  1  0
 23 24  1  0
 24 25  1  6
 24 20  1  0
 25 27  1  0
 26 25  2  0
M  END
$$$$
