FLP.pdb
     RDKit          3D

 27 28  0  0  1  0  0  0  0  0999 V2000
    5.8893  -17.7877   25.7358 N   0  0  0  0  0  0  0  0  0  0  0  0
    6.4268  -16.4806   25.5173 C   0  0  1  0  0  0  0  0  0  0  0  0
    7.2879  -16.1021   26.7040 C   0  0  0  0  0  0  0  0  0  0  0  0
    7.3128  -14.6134   26.7573 C   0  0  0  0  0  0  0  0  0  0  0  0
    8.5171  -13.9664   26.7673 C   0  0  0  0  0  0  0  0  0  0  0  0
    8.4994  -12.5728   26.8176 C   0  0  0  0  0  0  0  0  0  0  0  0
    7.2954  -11.9028   26.8549 C   0  0  0  0  0  0  0  0  0  0  0  0
    6.0902  -12.5747   26.8440 C   0  0  0  0  0  0  0  0  0  0  0  0
    6.0943  -13.9550   26.7943 C   0  0  0  0  0  0  0  0  0  0  0  0
    7.1741  -16.4027   24.2350 C   0  0  0  0  0  0  0  0  0  0  0  0
    7.9153  -17.3417   23.9370 O   0  0  0  0  0  0  0  0  0  0  0  0
    8.4524  -12.2650   19.7162 C   0  0  0  0  0  0  0  0  0  0  0  0
    8.1346  -13.7372   20.0927 C   0  0  2  0  0  0  0  0  0  0  0  0
    7.2187  -14.2984   19.0541 C   0  0  0  0  0  0  0  0  0  0  0  0
    7.6482  -13.7797   21.5013 C   0  0  0  0  0  0  0  0  0  0  0  0
    7.8180  -15.1168   22.1543 C   0  0  2  0  0  0  0  0  0  0  0  0
    7.0593  -15.2922   23.3567 N   0  0  0  0  0  0  0  0  0  0  0  0
    9.2007  -15.5319   22.3906 C   0  0  0  0  0  0  0  0  0  0  0  0
    9.7119  -15.1640   23.5129 O   0  0  0  0  0  0  0  0  0  0  0  0
   10.0429  -16.2874   21.5433 N   0  0  0  0  0  0  0  0  0  0  0  0
    9.6075  -16.7370   20.2046 C   0  0  0  0  0  0  0  0  0  0  0  0
   10.1178  -18.1615   20.2065 C   0  0  0  0  0  0  0  0  0  0  0  0
   11.3396  -18.1576   21.0607 C   0  0  0  0  0  0  0  0  0  0  0  0
   11.3962  -16.7616   21.6418 C   0  0  1  0  0  0  0  0  0  0  0  0
   12.3278  -15.9749   20.7416 C   0  0  0  0  0  0  0  0  0  0  0  0
   13.5468  -15.8619   21.0350 O   0  0  0  0  0  0  0  0  0  0  0  0
   11.9115  -15.3546   19.5866 O   0  0  0  0  0  0  0  0  0  0  0  0
  2 10  1  0
  2  1  1  1
  3  2  1  0
  4  3  1  0
  4  9  1  0
  5  4  2  0
  6  5  1  0
  6  7  2  0
  7  8  1  0
  8  9  2  0
 10 11  2  0
 13 14  1  6
 13 12  1  0
 15 13  1  0
 16 15  1  1
 17 16  1  0
 17 10  1  0
 18 19  2  0
 18 16  1  0
 20 18  1  0
 21 20  1  0
 22 21  1  0
 23 22  1  0
 23 24  1  0
 24 25  1  6
 24 20  1  0
 25 27  1  0
 26 25  2  0
M  END
$$$$
