FLP.pdb
     RDKit          3D

 27 28  0  0  1  0  0  0  0  0999 V2000
    7.3537  -19.0346   27.2227 N   0  0  0  0  0  0  0  0  0  0  0  0
    7.8727  -17.7022   27.2043 C   0  0  1  0  0  0  0  0  0  0  0  0
    9.3493  -17.7485   27.5368 C   0  0  0  0  0  0  0  0  0  0  0  0
    9.6685  -16.4776   28.2456 C   0  0  0  0  0  0  0  0  0  0  0  0
    9.9113  -15.3486   27.5139 C   0  0  0  0  0  0  0  0  0  0  0  0
   10.2066  -14.1786   28.2131 C   0  0  0  0  0  0  0  0  0  0  0  0
   10.2444  -14.1937   29.5909 C   0  0  0  0  0  0  0  0  0  0  0  0
    9.9963  -15.3442   30.3113 C   0  0  0  0  0  0  0  0  0  0  0  0
    9.7026  -16.5095   29.6304 C   0  0  0  0  0  0  0  0  0  0  0  0
    7.6117  -17.0302   25.9047 C   0  0  0  0  0  0  0  0  0  0  0  0
    7.4725  -17.7364   24.9037 O   0  0  0  0  0  0  0  0  0  0  0  0
    5.5250  -13.1369   26.3458 C   0  0  0  0  0  0  0  0  0  0  0  0
    7.0409  -12.9451   26.0714 C   0  0  2  0  0  0  0  0  0  0  0  0
    7.3976  -11.5285   26.3852 C   0  0  0  0  0  0  0  0  0  0  0  0
    7.3435  -13.4168   24.6899 C   0  0  0  0  0  0  0  0  0  0  0  0
    7.3496  -14.9082   24.5533 C   0  0  2  0  0  0  0  0  0  0  0  0
    7.5196  -15.6177   25.7862 N   0  0  0  0  0  0  0  0  0  0  0  0
    8.2737  -15.4461   23.5550 C   0  0  0  0  0  0  0  0  0  0  0  0
    9.2093  -16.2044   24.0089 O   0  0  0  0  0  0  0  0  0  0  0  0
    8.2660  -15.2397   22.1567 N   0  0  0  0  0  0  0  0  0  0  0  0
    7.6125  -14.0654   21.5418 C   0  0  0  0  0  0  0  0  0  0  0  0
    6.9049  -14.7169   20.3737 C   0  0  0  0  0  0  0  0  0  0  0  0
    7.7492  -15.8811   19.9810 C   0  0  0  0  0  0  0  0  0  0  0  0
    8.8302  -15.9440   21.0380 C   0  0  1  0  0  0  0  0  0  0  0  0
   10.0203  -15.2053   20.4590 C   0  0  0  0  0  0  0  0  0  0  0  0
   10.7171  -15.7365   19.5550 O   0  0  0  0  0  0  0  0  0  0  0  0
   10.4008  -13.9501   20.8735 O   0  0  0  0  0  0  0  0  0  0  0  0
  2 10  1  0
  2  1  1  6
  3  2  1  0
  4  3  1  0
  4  9  1  0
  5  4  2  0
  6  5  1  0
  6  7  2  0
  7  8  1  0
  8  9  2  0
 10 11  2  0
 13 14  1  6
 13 12  1  0
 15 13  1  0
 16 15  1  1
 17 16  1  0
 17 10  1  0
 18 19  2  0
 18 16  1  0
 20 18  1  0
 21 20  1  0
 22 21  1  0
 23 22  1  0
 23 24  1  0
 24 25  1  6
 24 20  1  0
 25 27  1  0
 26 25  2  0
M  END
$$$$
