FLP.pdb
     RDKit          3D

 27 28  0  0  1  0  0  0  0  0999 V2000
    6.8966  -18.8380   27.6802 N   0  0  0  0  0  0  0  0  0  0  0  0
    7.6302  -17.6215   27.5165 C   0  0  1  0  0  0  0  0  0  0  0  0
    9.1031  -17.9083   27.7196 C   0  0  0  0  0  0  0  0  0  0  0  0
    9.7489  -16.6099   28.0615 C   0  0  0  0  0  0  0  0  0  0  0  0
    9.7855  -16.2066   29.3673 C   0  0  0  0  0  0  0  0  0  0  0  0
   10.3984  -14.9856   29.6476 C   0  0  0  0  0  0  0  0  0  0  0  0
   10.9375  -14.2374   28.6232 C   0  0  0  0  0  0  0  0  0  0  0  0
   10.8902  -14.6623   27.3112 C   0  0  0  0  0  0  0  0  0  0  0  0
   10.2859  -15.8698   27.0206 C   0  0  0  0  0  0  0  0  0  0  0  0
    7.3586  -16.9908   26.1984 C   0  0  0  0  0  0  0  0  0  0  0  0
    7.1800  -17.7292   25.2274 O   0  0  0  0  0  0  0  0  0  0  0  0
    5.1354  -13.0386   26.0429 C   0  0  0  0  0  0  0  0  0  0  0  0
    6.6780  -12.8777   26.1108 C   0  0  2  0  0  0  0  0  0  0  0  0
    6.9858  -11.4528   26.4384 C   0  0  0  0  0  0  0  0  0  0  0  0
    7.2739  -13.4149   24.8543 C   0  0  0  0  0  0  0  0  0  0  0  0
    7.2403  -14.9096   24.7659 C   0  0  2  0  0  0  0  0  0  0  0  0
    7.2999  -15.5816   26.0297 N   0  0  0  0  0  0  0  0  0  0  0  0
    8.2138  -15.5092   23.8534 C   0  0  0  0  0  0  0  0  0  0  0  0
    9.0415  -16.3395   24.3842 O   0  0  0  0  0  0  0  0  0  0  0  0
    8.3569  -15.2932   22.4639 N   0  0  0  0  0  0  0  0  0  0  0  0
    7.8112  -14.0923   21.7974 C   0  0  0  0  0  0  0  0  0  0  0  0
    7.2052  -14.7103   20.5563 C   0  0  0  0  0  0  0  0  0  0  0  0
    8.0445  -15.9012   20.2401 C   0  0  0  0  0  0  0  0  0  0  0  0
    9.0083  -16.0096   21.4016 C   0  0  1  0  0  0  0  0  0  0  0  0
   10.2765  -15.3099   20.9552 C   0  0  0  0  0  0  0  0  0  0  0  0
   10.4854  -14.1108   21.2769 O   0  0  0  0  0  0  0  0  0  0  0  0
   11.2453  -15.9219   20.1943 O   0  0  0  0  0  0  0  0  0  0  0  0
  2 10  1  0
  2  1  1  6
  3  2  1  0
  4  3  1  0
  4  9  1  0
  5  4  2  0
  6  5  1  0
  6  7  2  0
  7  8  1  0
  8  9  2  0
 10 11  2  0
 13 14  1  6
 13 12  1  0
 15 13  1  0
 16 15  1  1
 17 16  1  0
 17 10  1  0
 18 19  2  0
 18 16  1  0
 20 18  1  0
 21 20  1  0
 22 21  1  0
 23 22  1  0
 23 24  1  0
 24 25  1  6
 24 20  1  0
 25 27  1  0
 26 25  2  0
M  END
$$$$
