FLP.pdb
     RDKit          3D

 27 28  0  0  1  0  0  0  0  0999 V2000
    7.1041  -19.0103   27.7118 N   0  0  0  0  0  0  0  0  0  0  0  0
    7.7688  -17.7517   27.5731 C   0  0  1  0  0  0  0  0  0  0  0  0
    9.2579  -17.9640   27.7479 C   0  0  0  0  0  0  0  0  0  0  0  0
    9.8374  -16.6437   28.1229 C   0  0  0  0  0  0  0  0  0  0  0  0
    9.6897  -16.1901   29.4040 C   0  0  0  0  0  0  0  0  0  0  0  0
   10.2459  -14.9499   29.7167 C   0  0  0  0  0  0  0  0  0  0  0  0
   10.9135  -14.2333   28.7468 C   0  0  0  0  0  0  0  0  0  0  0  0
   11.0517  -14.7089   27.4588 C   0  0  0  0  0  0  0  0  0  0  0  0
   10.5053  -15.9359   27.1366 C   0  0  0  0  0  0  0  0  0  0  0  0
    7.4438  -17.1000   26.2776 C   0  0  0  0  0  0  0  0  0  0  0  0
    7.2153  -17.8229   25.3053 O   0  0  0  0  0  0  0  0  0  0  0  0
    5.3389  -13.2773   26.4023 C   0  0  0  0  0  0  0  0  0  0  0  0
    6.8558  -12.9694   26.2831 C   0  0  2  0  0  0  0  0  0  0  0  0
    7.0569  -11.5083   26.5222 C   0  0  0  0  0  0  0  0  0  0  0  0
    7.3555  -13.5059   24.9850 C   0  0  0  0  0  0  0  0  0  0  0  0
    7.2735  -14.9978   24.8814 C   0  0  2  0  0  0  0  0  0  0  0  0
    7.3901  -15.6881   26.1313 N   0  0  0  0  0  0  0  0  0  0  0  0
    8.1724  -15.6122   23.9045 C   0  0  0  0  0  0  0  0  0  0  0  0
    8.8844  -16.5928   24.3376 O   0  0  0  0  0  0  0  0  0  0  0  0
    8.3543  -15.2659   22.5462 N   0  0  0  0  0  0  0  0  0  0  0  0
    7.9148  -13.9632   22.0041 C   0  0  0  0  0  0  0  0  0  0  0  0
    7.2824  -14.3998   20.7007 C   0  0  0  0  0  0  0  0  0  0  0  0
    8.0313  -15.6144   20.2688 C   0  0  0  0  0  0  0  0  0  0  0  0
    8.9649  -15.9182   21.4202 C   0  0  1  0  0  0  0  0  0  0  0  0
   10.2908  -15.2789   21.0592 C   0  0  0  0  0  0  0  0  0  0  0  0
   10.5999  -14.1526   21.5291 O   0  0  0  0  0  0  0  0  0  0  0  0
   11.2077  -15.8703   20.2217 O   0  0  0  0  0  0  0  0  0  0  0  0
  2 10  1  0
  2  1  1  6
  3  2  1  0
  4  3  1  0
  4  9  1  0
  5  4  2  0
  6  5  1  0
  6  7  2  0
  7  8  1  0
  8  9  2  0
 10 11  2  0
 13 14  1  6
 13 12  1  0
 15 13  1  0
 16 15  1  1
 17 16  1  0
 17 10  1  0
 18 19  2  0
 18 16  1  0
 20 18  1  0
 21 20  1  0
 22 21  1  0
 23 22  1  0
 23 24  1  0
 24 25  1  6
 24 20  1  0
 25 27  1  0
 26 25  2  0
M  END
$$$$
