FLP.pdb
     RDKit          3D

 27 28  0  0  1  0  0  0  0  0999 V2000
    9.1680  -19.8566   27.2990 N   0  0  0  0  0  0  0  0  0  0  0  0
    9.1884  -18.4280   27.3595 C   0  0  1  0  0  0  0  0  0  0  0  0
   10.6283  -17.9594   27.3518 C   0  0  0  0  0  0  0  0  0  0  0  0
   10.6542  -16.6443   28.0515 C   0  0  0  0  0  0  0  0  0  0  0  0
   10.6879  -16.6163   29.4179 C   0  0  0  0  0  0  0  0  0  0  0  0
   10.7114  -15.3665   30.0364 C   0  0  0  0  0  0  0  0  0  0  0  0
   10.7003  -14.2212   29.2696 C   0  0  0  0  0  0  0  0  0  0  0  0
   10.6662  -14.2709   27.8910 C   0  0  0  0  0  0  0  0  0  0  0  0
   10.6427  -15.5027   27.2665 C   0  0  0  0  0  0  0  0  0  0  0  0
    8.3957  -17.8214   26.2584 C   0  0  0  0  0  0  0  0  0  0  0  0
    8.5054  -18.3048   25.1296 O   0  0  0  0  0  0  0  0  0  0  0  0
    7.7762  -12.6297   24.4690 C   0  0  0  0  0  0  0  0  0  0  0  0
    6.5394  -13.3334   25.0897 C   0  0  2  0  0  0  0  0  0  0  0  0
    5.6046  -12.2808   25.5905 C   0  0  0  0  0  0  0  0  0  0  0  0
    7.0070  -14.3371   26.0879 C   0  0  0  0  0  0  0  0  0  0  0  0
    7.2566  -15.6931   25.5030 C   0  0  2  0  0  0  0  0  0  0  0  0
    7.5281  -16.7164   26.4682 N   0  0  0  0  0  0  0  0  0  0  0  0
    8.2652  -15.7473   24.4448 C   0  0  0  0  0  0  0  0  0  0  0  0
    9.4391  -16.1287   24.8089 O   0  0  0  0  0  0  0  0  0  0  0  0
    8.1111  -15.4364   23.0746 N   0  0  0  0  0  0  0  0  0  0  0  0
    7.1101  -14.4577   22.6011 C   0  0  0  0  0  0  0  0  0  0  0  0
    6.5486  -15.1880   21.4007 C   0  0  0  0  0  0  0  0  0  0  0  0
    7.6662  -16.0173   20.8662 C   0  0  0  0  0  0  0  0  0  0  0  0
    8.7833  -15.8491   21.8730 C   0  0  1  0  0  0  0  0  0  0  0  0
    9.6717  -14.7491   21.3272 C   0  0  0  0  0  0  0  0  0  0  0  0
    9.4501  -13.5472   21.6294 O   0  0  0  0  0  0  0  0  0  0  0  0
   10.7394  -14.9886   20.4938 O   0  0  0  0  0  0  0  0  0  0  0  0
  2 10  1  0
  2  1  1  6
  3  2  1  0
  4  3  1  0
  4  9  1  0
  5  4  2  0
  6  5  1  0
  6  7  2  0
  7  8  1  0
  8  9  2  0
 10 11  2  0
 13 14  1  1
 13 12  1  0
 15 13  1  0
 16 15  1  1
 17 16  1  0
 17 10  1  0
 18 19  2  0
 18 16  1  0
 20 18  1  0
 21 20  1  0
 22 21  1  0
 23 22  1  0
 23 24  1  0
 24 25  1  6
 24 20  1  0
 25 27  1  0
 26 25  2  0
M  END
$$$$
