FLP.pdb
     RDKit          3D

 27 28  0  0  1  0  0  0  0  0999 V2000
    9.6515  -17.9297   26.5023 N   0  0  0  0  0  0  0  0  0  0  0  0
    8.2764  -17.9305   26.8948 C   0  0  1  0  0  0  0  0  0  0  0  0
    8.1941  -17.6832   28.3865 C   0  0  0  0  0  0  0  0  0  0  0  0
    9.0897  -16.5290   28.6790 C   0  0  0  0  0  0  0  0  0  0  0  0
    8.6838  -15.2677   28.3424 C   0  0  0  0  0  0  0  0  0  0  0  0
    9.5495  -14.2134   28.6322 C   0  0  0  0  0  0  0  0  0  0  0  0
   10.7622  -14.4676   29.2361 C   0  0  0  0  0  0  0  0  0  0  0  0
   11.1535  -15.7485   29.5680 C   0  0  0  0  0  0  0  0  0  0  0  0
   10.3050  -16.8013   29.2862 C   0  0  0  0  0  0  0  0  0  0  0  0
    7.4842  -16.9415   26.1182 C   0  0  0  0  0  0  0  0  0  0  0  0
    6.2566  -17.0561   26.1136 O   0  0  0  0  0  0  0  0  0  0  0  0
    5.6263  -13.4536   25.9768 C   0  0  0  0  0  0  0  0  0  0  0  0
    7.1381  -13.1619   25.7784 C   0  0  2  0  0  0  0  0  0  0  0  0
    7.3725  -11.7094   26.0390 C   0  0  0  0  0  0  0  0  0  0  0  0
    7.5559  -13.6737   24.4419 C   0  0  0  0  0  0  0  0  0  0  0  0
    7.4755  -15.1641   24.3187 C   0  0  2  0  0  0  0  0  0  0  0  0
    8.0938  -15.8839   25.3919 N   0  0  0  0  0  0  0  0  0  0  0  0
    7.9288  -15.7165   23.0422 C   0  0  0  0  0  0  0  0  0  0  0  0
    8.2398  -16.9652   23.0511 O   0  0  0  0  0  0  0  0  0  0  0  0
    8.0652  -15.0520   21.8021 N   0  0  0  0  0  0  0  0  0  0  0  0
    7.8674  -13.5935   21.6688 C   0  0  0  0  0  0  0  0  0  0  0  0
    7.0498  -13.5355   20.3970 C   0  0  0  0  0  0  0  0  0  0  0  0
    7.4855  -14.7015   19.5765 C   0  0  0  0  0  0  0  0  0  0  0  0
    8.4269  -15.4723   20.4760 C   0  0  1  0  0  0  0  0  0  0  0  0
    9.8231  -15.0110   20.1082 C   0  0  0  0  0  0  0  0  0  0  0  0
   10.3708  -15.4274   19.0540 O   0  0  0  0  0  0  0  0  0  0  0  0
   10.5545  -14.1383   20.8799 O   0  0  0  0  0  0  0  0  0  0  0  0
  2 10  1  0
  2  1  1  6
  3  2  1  0
  4  3  1  0
  4  9  1  0
  5  4  2  0
  6  5  1  0
  6  7  2  0
  7  8  1  0
  8  9  2  0
 10 11  2  0
 13 14  1  6
 13 12  1  0
 15 13  1  0
 16 15  1  6
 17 16  1  0
 17 10  1  0
 18 19  2  0
 18 16  1  0
 20 18  1  0
 21 20  1  0
 22 21  1  0
 23 22  1  0
 23 24  1  0
 24 25  1  6
 24 20  1  0
 25 27  1  0
 26 25  2  0
M  END
$$$$
