AWL.pdb
     RDKit          3D

 28 29  0  0  1  0  0  0  0  0999 V2000
    9.0058  -19.9045   20.3278 C   0  0  0  0  0  0  0  0  0  0  0  0
    9.2690  -19.6250   21.7780 C   0  0  2  0  0  0  0  0  0  0  0  0
    8.1153  -19.9075   22.5979 N   0  0  0  0  0  0  0  0  0  0  0  0
    9.7091  -18.2085   21.9163 C   0  0  0  0  0  0  0  0  0  0  0  0
   10.7618  -17.8035   21.3615 O   0  0  0  0  0  0  0  0  0  0  0  0
    8.9753  -17.2524   22.6710 N   0  0  0  0  0  0  0  0  0  0  0  0
    9.3718  -15.8643   22.7437 C   0  0  1  0  0  0  0  0  0  0  0  0
    8.2054  -14.9122   22.7158 C   0  0  0  0  0  0  0  0  0  0  0  0
    7.4508  -14.8943   23.9824 C   0  0  0  0  0  0  0  0  0  0  0  0
    7.0088  -15.9778   24.7037 C   0  0  0  0  0  0  0  0  0  0  0  0
    6.3636  -15.5187   25.7939 N   0  0  0  0  0  0  0  0  0  0  0  0
    6.3577  -14.1835   25.8281 C   0  0  0  0  0  0  0  0  0  0  0  0
    5.8377  -13.2700   26.7171 C   0  0  0  0  0  0  0  0  0  0  0  0
    5.9995  -11.9226   26.4710 C   0  0  0  0  0  0  0  0  0  0  0  0
    6.6868  -11.5106   25.3262 C   0  0  0  0  0  0  0  0  0  0  0  0
    7.2056  -12.4301   24.4391 C   0  0  0  0  0  0  0  0  0  0  0  0
    7.0452  -13.7791   24.6828 C   0  0  0  0  0  0  0  0  0  0  0  0
   10.1244  -15.6624   24.0064 C   0  0  0  0  0  0  0  0  0  0  0  0
   10.9740  -14.7217   24.0816 O   0  0  0  0  0  0  0  0  0  0  0  0
    9.5450  -14.1418   28.9964 C   0  0  0  0  0  0  0  0  0  0  0  0
   10.1812  -14.3850   27.5824 C   0  0  1  0  0  0  0  0  0  0  0  0
   11.5181  -13.6517   27.7024 C   0  0  0  0  0  0  0  0  0  0  0  0
   10.3015  -15.8574   27.4557 C   0  0  0  0  0  0  0  0  0  0  0  0
   10.9530  -16.4565   26.2730 C   0  0  2  0  0  0  0  0  0  0  0  0
    9.9575  -16.4570   25.1477 N   0  0  0  0  0  0  0  0  0  0  0  0
   11.4837  -17.8062   26.3411 C   0  0  0  0  0  0  0  0  0  0  0  0
   12.5910  -18.1414   27.0844 O   0  0  0  0  0  0  0  0  0  0  0  0
   10.9574  -18.7869   25.7025 O   0  0  0  0  0  0  0  0  0  0  0  0
  2  1  1  6
  2  3  1  0
  4  5  2  0
  4  2  1  0
  6  4  1  0
  7  6  1  0
  7  8  1  1
  9  8  1  0
  9 17  1  0
 10 11  1  0
 10  9  2  0
 11 12  1  0
 12 13  1  0
 12 17  2  0
 13 14  2  0
 14 15  1  0
 16 15  2  0
 17 16  1  0
 18 19  2  0
 18  7  1  0
 21 20  1  1
 21 23  1  0
 21 22  1  0
 24 23  1  1
 24 25  1  0
 25 18  1  0
 26 24  1  0
 27 26  1  0
 28 26  2  0
M  END
$$$$
