AWL.pdb
     RDKit          3D

 28 29  0  0  1  0  0  0  0  0999 V2000
    9.5327  -19.8549   20.1462 C   0  0  0  0  0  0  0  0  0  0  0  0
    9.7196  -19.6879   21.6253 C   0  0  2  0  0  0  0  0  0  0  0  0
    8.5501  -20.0987   22.3646 N   0  0  0  0  0  0  0  0  0  0  0  0
   10.0748  -18.2678   21.9016 C   0  0  0  0  0  0  0  0  0  0  0  0
   11.2105  -17.8180   21.6052 O   0  0  0  0  0  0  0  0  0  0  0  0
    9.1643  -17.3578   22.5059 N   0  0  0  0  0  0  0  0  0  0  0  0
    9.4630  -15.9502   22.6420 C   0  0  1  0  0  0  0  0  0  0  0  0
    8.2464  -15.0712   22.5192 C   0  0  0  0  0  0  0  0  0  0  0  0
    7.5454  -14.8817   23.8025 C   0  0  0  0  0  0  0  0  0  0  0  0
    7.0578  -15.8590   24.6372 C   0  0  0  0  0  0  0  0  0  0  0  0
    6.4896  -15.2557   25.6996 N   0  0  0  0  0  0  0  0  0  0  0  0
    6.5781  -13.9261   25.6074 C   0  0  0  0  0  0  0  0  0  0  0  0
    6.1584  -12.8991   26.4225 C   0  0  0  0  0  0  0  0  0  0  0  0
    6.4037  -11.5956   26.0448 C   0  0  0  0  0  0  0  0  0  0  0  0
    7.0724  -11.3420   24.8442 C   0  0  0  0  0  0  0  0  0  0  0  0
    7.4905  -12.3746   24.0316 C   0  0  0  0  0  0  0  0  0  0  0  0
    7.2464  -13.6802   24.4071 C   0  0  0  0  0  0  0  0  0  0  0  0
   10.0777  -15.7333   23.9750 C   0  0  0  0  0  0  0  0  0  0  0  0
   10.4957  -14.5756   24.2872 O   0  0  0  0  0  0  0  0  0  0  0  0
   10.6134  -14.1001   28.4873 C   0  0  0  0  0  0  0  0  0  0  0  0
    9.5192  -15.2180   28.3594 C   0  0  1  0  0  0  0  0  0  0  0  0
    8.2596  -14.4884   28.8293 C   0  0  0  0  0  0  0  0  0  0  0  0
    9.5085  -15.5926   26.9248 C   0  0  0  0  0  0  0  0  0  0  0  0
   10.5827  -16.4370   26.3633 C   0  0  2  0  0  0  0  0  0  0  0  0
   10.2317  -16.7419   24.9346 N   0  0  0  0  0  0  0  0  0  0  0  0
   10.9022  -17.7122   26.9798 C   0  0  0  0  0  0  0  0  0  0  0  0
   10.5970  -18.9227   26.4032 O   0  0  0  0  0  0  0  0  0  0  0  0
   11.4897  -17.8000   28.1172 O   0  0  0  0  0  0  0  0  0  0  0  0
  2  1  1  6
  2  3  1  0
  4  5  2  0
  4  2  1  0
  6  4  1  0
  7  6  1  0
  7  8  1  1
  9  8  1  0
  9 17  1  0
 10 11  1  0
 10  9  2  0
 11 12  1  0
 12 13  1  0
 12 17  2  0
 13 14  2  0
 14 15  1  0
 16 15  2  0
 17 16  1  0
 18 19  2  0
 18  7  1  0
 21 20  1  6
 21 23  1  0
 21 22  1  0
 24 23  1  1
 24 25  1  0
 25 18  1  0
 26 24  1  0
 27 26  1  0
 28 26  2  0
M  END
$$$$
