AWL.pdb
     RDKit          3D

 28 29  0  0  1  0  0  0  0  0999 V2000
   10.3443  -21.1884   23.7179 C   0  0  0  0  0  0  0  0  0  0  0  0
    9.5812  -20.6198   22.5583 C   0  0  2  0  0  0  0  0  0  0  0  0
   10.0591  -21.1329   21.2969 N   0  0  0  0  0  0  0  0  0  0  0  0
    9.6671  -19.1337   22.6162 C   0  0  0  0  0  0  0  0  0  0  0  0
   10.6346  -18.5232   22.0953 O   0  0  0  0  0  0  0  0  0  0  0  0
    8.6765  -18.3370   23.2536 N   0  0  0  0  0  0  0  0  0  0  0  0
    8.7451  -16.8932   23.2673 C   0  0  1  0  0  0  0  0  0  0  0  0
    7.3932  -16.2362   23.3585 C   0  0  0  0  0  0  0  0  0  0  0  0
    7.4734  -14.7643   23.3952 C   0  0  0  0  0  0  0  0  0  0  0  0
    7.9835  -13.9339   22.4258 C   0  0  0  0  0  0  0  0  0  0  0  0
    7.8648  -12.6636   22.8592 N   0  0  0  0  0  0  0  0  0  0  0  0
    7.3005  -12.6143   24.0689 C   0  0  0  0  0  0  0  0  0  0  0  0
    6.9747  -11.5747   24.9105 C   0  0  0  0  0  0  0  0  0  0  0  0
    6.3855  -11.8512   26.1265 C   0  0  0  0  0  0  0  0  0  0  0  0
    6.1308  -13.1787   26.4809 C   0  0  0  0  0  0  0  0  0  0  0  0
    6.4593  -14.2161   25.6339 C   0  0  0  0  0  0  0  0  0  0  0  0
    7.0490  -13.9424   24.4164 C   0  0  0  0  0  0  0  0  0  0  0  0
    9.5587  -16.4787   24.4370 C   0  0  0  0  0  0  0  0  0  0  0  0
   10.0368  -15.3031   24.4780 O   0  0  0  0  0  0  0  0  0  0  0  0
   11.5941  -13.9603   27.9106 C   0  0  0  0  0  0  0  0  0  0  0  0
   10.4873  -14.9387   28.4409 C   0  0  1  0  0  0  0  0  0  0  0  0
    9.4985  -13.9760   29.1007 C   0  0  0  0  0  0  0  0  0  0  0  0
    9.9610  -15.6238   27.2359 C   0  0  0  0  0  0  0  0  0  0  0  0
   10.6222  -16.8382   26.7161 C   0  0  2  0  0  0  0  0  0  0  0  0
    9.8415  -17.3152   25.5243 N   0  0  0  0  0  0  0  0  0  0  0  0
   10.7935  -17.9966   27.5744 C   0  0  0  0  0  0  0  0  0  0  0  0
    9.8636  -19.0052   27.6694 O   0  0  0  0  0  0  0  0  0  0  0  0
   11.8285  -18.1586   28.3154 O   0  0  0  0  0  0  0  0  0  0  0  0
  2  1  1  1
  2  3  1  0
  4  5  2  0
  4  2  1  0
  6  4  1  0
  7  6  1  0
  7  8  1  1
  9  8  1  0
  9 17  1  0
 10 11  1  0
 10  9  2  0
 11 12  1  0
 12 13  1  0
 12 17  2  0
 13 14  2  0
 14 15  1  0
 16 15  2  0
 17 16  1  0
 18 19  2  0
 18  7  1  0
 21 20  1  6
 21 23  1  0
 21 22  1  0
 24 23  1  1
 24 25  1  0
 25 18  1  0
 26 24  1  0
 27 26  1  0
 28 26  2  0
M  END
$$$$
