AWL.pdb
     RDKit          3D

 28 29  0  0  1  0  0  0  0  0999 V2000
   10.4693  -19.7833   20.4252 C   0  0  0  0  0  0  0  0  0  0  0  0
    9.6551  -19.4334   21.6357 C   0  0  2  0  0  0  0  0  0  0  0  0
    8.2425  -19.6187   21.4052 N   0  0  0  0  0  0  0  0  0  0  0  0
    9.9693  -18.0317   22.0302 C   0  0  0  0  0  0  0  0  0  0  0  0
   10.8466  -17.3711   21.4186 O   0  0  0  0  0  0  0  0  0  0  0  0
    9.3057  -17.3745   23.1026 N   0  0  0  0  0  0  0  0  0  0  0  0
    9.6118  -16.0116   23.4743 C   0  0  1  0  0  0  0  0  0  0  0  0
    8.3847  -15.1624   23.6768 C   0  0  0  0  0  0  0  0  0  0  0  0
    7.5250  -15.1043   22.4804 C   0  0  0  0  0  0  0  0  0  0  0  0
    6.4472  -15.9064   22.1898 C   0  0  0  0  0  0  0  0  0  0  0  0
    5.9459  -15.5180   21.0009 N   0  0  0  0  0  0  0  0  0  0  0  0
    6.6407  -14.4973   20.4914 C   0  0  0  0  0  0  0  0  0  0  0  0
    6.5220  -13.7687   19.3294 C   0  0  0  0  0  0  0  0  0  0  0  0
    7.4155  -12.7484   19.0792 C   0  0  0  0  0  0  0  0  0  0  0  0
    8.4229  -12.4737   20.0081 C   0  0  0  0  0  0  0  0  0  0  0  0
    8.5371  -13.2068   21.1704 C   0  0  0  0  0  0  0  0  0  0  0  0
    7.6442  -14.2284   21.4233 C   0  0  0  0  0  0  0  0  0  0  0  0
   10.3890  -16.0389   24.7379 C   0  0  0  0  0  0  0  0  0  0  0  0
   11.5249  -15.4731   24.7829 O   0  0  0  0  0  0  0  0  0  0  0  0
    8.6650  -13.9066   28.9057 C   0  0  0  0  0  0  0  0  0  0  0  0
    9.6965  -14.3651   27.8152 C   0  0  1  0  0  0  0  0  0  0  0  0
   10.8498  -13.3843   28.0329 C   0  0  0  0  0  0  0  0  0  0  0  0
   10.0203  -15.7727   28.1505 C   0  0  0  0  0  0  0  0  0  0  0  0
   10.7427  -16.6254   27.1845 C   0  0  2  0  0  0  0  0  0  0  0  0
    9.9447  -16.6604   25.9119 N   0  0  0  0  0  0  0  0  0  0  0  0
   11.0359  -18.0088   27.5133 C   0  0  0  0  0  0  0  0  0  0  0  0
   10.5290  -19.0730   26.8050 O   0  0  0  0  0  0  0  0  0  0  0  0
   11.7882  -18.3385   28.4992 O   0  0  0  0  0  0  0  0  0  0  0  0
  2  1  1  6
  2  3  1  0
  4  5  2  0
  4  2  1  0
  6  4  1  0
  7  6  1  0
  7  8  1  1
  9  8  1  0
  9 17  1  0
 10 11  1  0
 10  9  2  0
 11 12  1  0
 12 13  1  0
 12 17  2  0
 13 14  2  0
 14 15  1  0
 16 15  2  0
 17 16  1  0
 18 19  2  0
 18  7  1  0
 21 20  1  1
 21 23  1  0
 21 22  1  0
 24 23  1  1
 24 25  1  0
 25 18  1  0
 26 24  1  0
 27 26  1  0
 28 26  2  0
M  END
$$$$
