AWL.pdb
     RDKit          3D

 28 29  0  0  1  0  0  0  0  0999 V2000
   12.7688  -17.7064   20.4136 C   0  0  0  0  0  0  0  0  0  0  0  0
   11.4128  -17.1596   20.0778 C   0  0  2  0  0  0  0  0  0  0  0  0
   11.4578  -16.2715   18.9410 N   0  0  0  0  0  0  0  0  0  0  0  0
   10.8622  -16.4816   21.2846 C   0  0  0  0  0  0  0  0  0  0  0  0
   11.3940  -15.4356   21.7353 O   0  0  0  0  0  0  0  0  0  0  0  0
    9.7239  -16.9719   21.9818 N   0  0  0  0  0  0  0  0  0  0  0  0
    9.1496  -16.2665   23.1052 C   0  0  1  0  0  0  0  0  0  0  0  0
    7.7014  -16.6057   23.3408 C   0  0  0  0  0  0  0  0  0  0  0  0
    7.1211  -15.8757   24.4830 C   0  0  0  0  0  0  0  0  0  0  0  0
    6.4996  -16.4127   25.5852 C   0  0  0  0  0  0  0  0  0  0  0  0
    6.1175  -15.3979   26.3850 N   0  0  0  0  0  0  0  0  0  0  0  0
    6.4566  -14.2155   25.8645 C   0  0  0  0  0  0  0  0  0  0  0  0
    6.2887  -12.9183   26.2939 C   0  0  0  0  0  0  0  0  0  0  0  0
    6.7610  -11.8836   25.5140 C   0  0  0  0  0  0  0  0  0  0  0  0
    7.3999  -12.1705   24.3047 C   0  0  0  0  0  0  0  0  0  0  0  0
    7.5654  -13.4717   23.8794 C   0  0  0  0  0  0  0  0  0  0  0  0
    7.0937  -14.5093   24.6580 C   0  0  0  0  0  0  0  0  0  0  0  0
    9.9270  -16.6169   24.3195 C   0  0  0  0  0  0  0  0  0  0  0  0
   10.8229  -17.5140   24.2481 O   0  0  0  0  0  0  0  0  0  0  0  0
   10.3212  -13.0564   28.5746 C   0  0  0  0  0  0  0  0  0  0  0  0
   10.6325  -13.9386   27.3144 C   0  0  1  0  0  0  0  0  0  0  0  0
   12.0789  -13.5517   27.0020 C   0  0  0  0  0  0  0  0  0  0  0  0
   10.4591  -15.3403   27.7659 C   0  0  0  0  0  0  0  0  0  0  0  0
   10.4895  -16.4501   26.7914 C   0  0  2  0  0  0  0  0  0  0  0  0
    9.7357  -16.0114   25.5679 N   0  0  0  0  0  0  0  0  0  0  0  0
    9.9499  -17.7489   27.1519 C   0  0  0  0  0  0  0  0  0  0  0  0
   10.6221  -18.6471   27.9472 O   0  0  0  0  0  0  0  0  0  0  0  0
    8.8030  -18.1560   26.7452 O   0  0  0  0  0  0  0  0  0  0  0  0
  2  1  1  1
  2  3  1  0
  4  5  2  0
  4  2  1  0
  6  4  1  0
  7  6  1  0
  7  8  1  1
  9  8  1  0
  9 17  1  0
 10 11  1  0
 10  9  2  0
 11 12  1  0
 12 13  1  0
 12 17  2  0
 13 14  2  0
 14 15  1  0
 16 15  2  0
 17 16  1  0
 18 19  2  0
 18  7  1  0
 21 20  1  1
 21 23  1  0
 21 22  1  0
 24 23  1  1
 24 25  1  0
 25 18  1  0
 26 24  1  0
 27 26  1  0
 28 26  2  0
M  END
$$$$
