AWL.pdb
     RDKit          3D

 28 29  0  0  1  0  0  0  0  0999 V2000
   12.2976  -18.4243   20.4440 C   0  0  0  0  0  0  0  0  0  0  0  0
   11.4515  -17.2734   19.9858 C   0  0  2  0  0  0  0  0  0  0  0  0
   12.1847  -16.3765   19.1251 N   0  0  0  0  0  0  0  0  0  0  0  0
   10.9162  -16.5706   21.1853 C   0  0  0  0  0  0  0  0  0  0  0  0
   11.5434  -15.6131   21.7047 O   0  0  0  0  0  0  0  0  0  0  0  0
    9.6871  -16.9380   21.7989 N   0  0  0  0  0  0  0  0  0  0  0  0
    9.1378  -16.2040   22.9164 C   0  0  1  0  0  0  0  0  0  0  0  0
    7.6375  -16.2968   23.0070 C   0  0  0  0  0  0  0  0  0  0  0  0
    7.0939  -15.6281   24.2035 C   0  0  0  0  0  0  0  0  0  0  0  0
    6.4248  -16.2127   25.2523 C   0  0  0  0  0  0  0  0  0  0  0  0
    6.1021  -15.2454   26.1330 N   0  0  0  0  0  0  0  0  0  0  0  0
    6.5258  -14.0490   25.7168 C   0  0  0  0  0  0  0  0  0  0  0  0
    6.4400  -12.7843   26.2537 C   0  0  0  0  0  0  0  0  0  0  0  0
    6.9897  -11.7218   25.5673 C   0  0  0  0  0  0  0  0  0  0  0  0
    7.6222  -11.9484   24.3420 C   0  0  0  0  0  0  0  0  0  0  0  0
    7.7052  -13.2174   23.8088 C   0  0  0  0  0  0  0  0  0  0  0  0
    7.1560  -14.2825   24.4936 C   0  0  0  0  0  0  0  0  0  0  0  0
    9.7274  -16.7492   24.1642 C   0  0  0  0  0  0  0  0  0  0  0  0
   10.0889  -17.9658   24.2025 O   0  0  0  0  0  0  0  0  0  0  0  0
    9.6728  -14.9881   28.9467 C   0  0  0  0  0  0  0  0  0  0  0  0
   10.2774  -14.2736   27.6868 C   0  0  1  0  0  0  0  0  0  0  0  0
   10.8643  -12.9978   28.2931 C   0  0  0  0  0  0  0  0  0  0  0  0
   11.2886  -15.2160   27.1504 C   0  0  0  0  0  0  0  0  0  0  0  0
   10.8687  -16.4237   26.4105 C   0  0  2  0  0  0  0  0  0  0  0  0
    9.9169  -15.9957   25.3296 N   0  0  0  0  0  0  0  0  0  0  0  0
   10.2167  -17.5154   27.1113 C   0  0  0  0  0  0  0  0  0  0  0  0
    8.8891  -17.8308   26.9409 O   0  0  0  0  0  0  0  0  0  0  0  0
   10.8358  -18.2636   27.9500 O   0  0  0  0  0  0  0  0  0  0  0  0
  2  1  1  1
  2  3  1  0
  4  5  2  0
  4  2  1  0
  6  4  1  0
  7  6  1  0
  7  8  1  1
  9  8  1  0
  9 17  1  0
 10 11  1  0
 10  9  2  0
 11 12  1  0
 12 13  1  0
 12 17  2  0
 13 14  2  0
 14 15  1  0
 16 15  2  0
 17 16  1  0
 18 19  2  0
 18  7  1  0
 21 20  1  1
 21 23  1  0
 21 22  1  0
 24 23  1  1
 24 25  1  0
 25 18  1  0
 26 24  1  0
 27 26  1  0
 28 26  2  0
M  END
$$$$
