AWL.pdb
     RDKit          3D

 28 29  0  0  1  0  0  0  0  0999 V2000
   10.7174  -16.2814   19.3374 C   0  0  0  0  0  0  0  0  0  0  0  0
   11.1327  -17.1471   20.4899 C   0  0  2  0  0  0  0  0  0  0  0  0
   10.5412  -18.4615   20.4154 N   0  0  0  0  0  0  0  0  0  0  0  0
   10.7741  -16.4531   21.7584 C   0  0  0  0  0  0  0  0  0  0  0  0
   11.2012  -15.2966   22.0034 O   0  0  0  0  0  0  0  0  0  0  0  0
    9.9431  -17.0506   22.7457 N   0  0  0  0  0  0  0  0  0  0  0  0
    9.5439  -16.3445   23.9421 C   0  0  1  0  0  0  0  0  0  0  0  0
    8.0618  -16.4079   24.2014 C   0  0  0  0  0  0  0  0  0  0  0  0
    7.3736  -15.1387   23.9020 C   0  0  0  0  0  0  0  0  0  0  0  0
    6.9490  -14.6915   22.6735 C   0  0  0  0  0  0  0  0  0  0  0  0
    6.3702  -13.4868   22.8448 N   0  0  0  0  0  0  0  0  0  0  0  0
    6.3916  -13.1161   24.1278 C   0  0  0  0  0  0  0  0  0  0  0  0
    5.9357  -11.9981   24.7891 C   0  0  0  0  0  0  0  0  0  0  0  0
    6.1097  -11.9045   26.1541 C   0  0  0  0  0  0  0  0  0  0  0  0
    6.7443  -12.9442   26.8390 C   0  0  0  0  0  0  0  0  0  0  0  0
    7.1990  -14.0618   26.1715 C   0  0  0  0  0  0  0  0  0  0  0  0
    7.0263  -14.1581   24.8055 C   0  0  0  0  0  0  0  0  0  0  0  0
   10.2578  -16.9457   25.0956 C   0  0  0  0  0  0  0  0  0  0  0  0
   10.9970  -17.9614   24.9099 O   0  0  0  0  0  0  0  0  0  0  0  0
   10.1686  -14.1784   29.9435 C   0  0  0  0  0  0  0  0  0  0  0  0
   10.3320  -14.7459   28.4894 C   0  0  1  0  0  0  0  0  0  0  0  0
   11.2589  -13.7137   27.8451 C   0  0  0  0  0  0  0  0  0  0  0  0
   10.9376  -16.0886   28.6593 C   0  0  0  0  0  0  0  0  0  0  0  0
   10.9800  -17.0394   27.5295 C   0  0  2  0  0  0  0  0  0  0  0  0
   10.1701  -16.4578   26.4056 N   0  0  0  0  0  0  0  0  0  0  0  0
   10.5041  -18.3997   27.7060 C   0  0  0  0  0  0  0  0  0  0  0  0
   11.1687  -19.3356   28.4633 O   0  0  0  0  0  0  0  0  0  0  0  0
    9.4262  -18.8295   27.1584 O   0  0  0  0  0  0  0  0  0  0  0  0
  2  1  1  6
  2  3  1  0
  4  5  2  0
  4  2  1  0
  6  4  1  0
  7  6  1  0
  7  8  1  1
  9  8  1  0
  9 17  1  0
 10 11  1  0
 10  9  2  0
 11 12  1  0
 12 13  1  0
 12 17  2  0
 13 14  2  0
 14 15  1  0
 16 15  2  0
 17 16  1  0
 18 19  2  0
 18  7  1  0
 21 20  1  1
 21 23  1  0
 21 22  1  0
 24 23  1  1
 24 25  1  0
 25 18  1  0
 26 24  1  0
 27 26  1  0
 28 26  2  0
M  END
$$$$
