AWL.pdb
     RDKit          3D

 28 29  0  0  1  0  0  0  0  0999 V2000
    7.0911  -13.6226   19.9581 C   0  0  0  0  0  0  0  0  0  0  0  0
    7.6438  -14.9887   20.2390 C   0  0  2  0  0  0  0  0  0  0  0  0
    6.5967  -15.9571   20.4599 N   0  0  0  0  0  0  0  0  0  0  0  0
    8.5645  -14.8975   21.4065 C   0  0  0  0  0  0  0  0  0  0  0  0
    9.5619  -14.1328   21.3827 O   0  0  0  0  0  0  0  0  0  0  0  0
    8.3697  -15.6578   22.5924 N   0  0  0  0  0  0  0  0  0  0  0  0
    9.3127  -15.6266   23.6874 C   0  0  1  0  0  0  0  0  0  0  0  0
    8.7091  -16.0457   25.0018 C   0  0  0  0  0  0  0  0  0  0  0  0
    7.5596  -15.2106   25.3960 C   0  0  0  0  0  0  0  0  0  0  0  0
    6.2275  -15.5428   25.3293 C   0  0  0  0  0  0  0  0  0  0  0  0
    5.5126  -14.4959   25.7862 N   0  0  0  0  0  0  0  0  0  0  0  0
    6.3084  -13.4875   26.1520 C   0  0  0  0  0  0  0  0  0  0  0  0
    6.0596  -12.2357   26.6683 C   0  0  0  0  0  0  0  0  0  0  0  0
    7.1198  -11.4004   26.9514 C   0  0  0  0  0  0  0  0  0  0  0  0
    8.4244  -11.8393   26.7095 C   0  0  0  0  0  0  0  0  0  0  0  0
    8.6677  -13.0942   26.1922 C   0  0  0  0  0  0  0  0  0  0  0  0
    7.6085  -13.9323   25.9079 C   0  0  0  0  0  0  0  0  0  0  0  0
   10.4329  -16.5433   23.3610 C   0  0  0  0  0  0  0  0  0  0  0  0
   10.2895  -17.3955   22.4307 O   0  0  0  0  0  0  0  0  0  0  0  0
   13.7650  -14.8984   20.0468 C   0  0  0  0  0  0  0  0  0  0  0  0
   14.1277  -15.9302   21.1725 C   0  0  1  0  0  0  0  0  0  0  0  0
   15.4662  -15.3920   21.6810 C   0  0  0  0  0  0  0  0  0  0  0  0
   13.0210  -15.8418   22.1554 C   0  0  0  0  0  0  0  0  0  0  0  0
   12.9627  -16.7702   23.3029 C   0  0  2  0  0  0  0  0  0  0  0  0
   11.6665  -16.5321   24.0244 N   0  0  0  0  0  0  0  0  0  0  0  0
   14.0000  -16.7370   24.3182 C   0  0  0  0  0  0  0  0  0  0  0  0
   13.8763  -16.0377   25.4958 O   0  0  0  0  0  0  0  0  0  0  0  0
   15.1158  -17.3563   24.1843 O   0  0  0  0  0  0  0  0  0  0  0  0
  2  1  1  1
  2  3  1  0
  4  5  2  0
  4  2  1  0
  6  4  1  0
  7  6  1  0
  7  8  1  1
  9  8  1  0
  9 17  1  0
 10 11  1  0
 10  9  2  0
 11 12  1  0
 12 13  1  0
 12 17  2  0
 13 14  2  0
 14 15  1  0
 16 15  2  0
 17 16  1  0
 18 19  2  0
 18  7  1  0
 21 20  1  6
 21 23  1  0
 21 22  1  0
 24 23  1  6
 24 25  1  0
 25 18  1  0
 26 24  1  0
 27 26  1  0
 28 26  2  0
M  END
$$$$
