AWL.pdb
     RDKit          3D

 28 29  0  0  1  0  0  0  0  0999 V2000
   12.2422  -17.6698   20.1875 C   0  0  0  0  0  0  0  0  0  0  0  0
   10.8646  -17.1968   19.8284 C   0  0  2  0  0  0  0  0  0  0  0  0
   10.8675  -16.3945   18.6287 N   0  0  0  0  0  0  0  0  0  0  0  0
   10.3013  -16.4508   20.9882 C   0  0  0  0  0  0  0  0  0  0  0  0
   10.7113  -15.2972   21.2733 O   0  0  0  0  0  0  0  0  0  0  0  0
    9.2860  -16.9932   21.8233 N   0  0  0  0  0  0  0  0  0  0  0  0
    8.7425  -16.2609   22.9448 C   0  0  1  0  0  0  0  0  0  0  0  0
    7.3696  -16.7292   23.3494 C   0  0  0  0  0  0  0  0  0  0  0  0
    6.6846  -15.7835   24.2497 C   0  0  0  0  0  0  0  0  0  0  0  0
    5.5421  -16.0084   24.9802 C   0  0  0  0  0  0  0  0  0  0  0  0
    5.2571  -14.8843   25.6664 N   0  0  0  0  0  0  0  0  0  0  0  0
    6.1566  -13.9269   25.4247 C   0  0  0  0  0  0  0  0  0  0  0  0
    6.2952  -12.6340   25.8768 C   0  0  0  0  0  0  0  0  0  0  0  0
    7.3576  -11.8749   25.4328 C   0  0  0  0  0  0  0  0  0  0  0  0
    8.2717  -12.4311   24.5340 C   0  0  0  0  0  0  0  0  0  0  0  0
    8.1279  -13.7267   24.0843 C   0  0  0  0  0  0  0  0  0  0  0  0
    7.0656  -14.4887   24.5270 C   0  0  0  0  0  0  0  0  0  0  0  0
    9.6633  -16.4259   24.0965 C   0  0  0  0  0  0  0  0  0  0  0  0
   10.7543  -17.0556   23.9366 O   0  0  0  0  0  0  0  0  0  0  0  0
   11.8848  -13.7354   28.4308 C   0  0  0  0  0  0  0  0  0  0  0  0
   10.7879  -14.8100   28.7557 C   0  0  1  0  0  0  0  0  0  0  0  0
   10.0195  -14.1473   29.9002 C   0  0  0  0  0  0  0  0  0  0  0  0
   10.0076  -14.9630   27.5043 C   0  0  0  0  0  0  0  0  0  0  0  0
   10.4553  -15.8984   26.4522 C   0  0  2  0  0  0  0  0  0  0  0  0
    9.4052  -15.9224   25.3779 N   0  0  0  0  0  0  0  0  0  0  0  0
   10.7261  -17.2864   26.7808 C   0  0  0  0  0  0  0  0  0  0  0  0
    9.7375  -18.2324   26.9186 O   0  0  0  0  0  0  0  0  0  0  0  0
   11.9146  -17.7299   26.9741 O   0  0  0  0  0  0  0  0  0  0  0  0
  2  1  1  1
  2  3  1  0
  4  5  2  0
  4  2  1  0
  6  4  1  0
  7  6  1  0
  7  8  1  1
  9  8  1  0
  9 17  1  0
 10 11  1  0
 10  9  2  0
 11 12  1  0
 12 13  1  0
 12 17  2  0
 13 14  2  0
 14 15  1  0
 16 15  2  0
 17 16  1  0
 18 19  2  0
 18  7  1  0
 21 20  1  6
 21 23  1  0
 21 22  1  0
 24 23  1  1
 24 25  1  0
 25 18  1  0
 26 24  1  0
 27 26  1  0
 28 26  2  0
M  END
$$$$
