AWL.pdb
     RDKit          3D

 28 29  0  0  1  0  0  0  0  0999 V2000
   13.3424  -18.6210   20.7919 C   0  0  0  0  0  0  0  0  0  0  0  0
   11.9303  -18.3436   20.3681 C   0  0  2  0  0  0  0  0  0  0  0  0
   11.8607  -17.8738   19.0052 N   0  0  0  0  0  0  0  0  0  0  0  0
   11.3329  -17.3648   21.3189 C   0  0  0  0  0  0  0  0  0  0  0  0
   11.7277  -16.1718   21.3489 O   0  0  0  0  0  0  0  0  0  0  0  0
   10.3005  -17.7198   22.2302 N   0  0  0  0  0  0  0  0  0  0  0  0
    9.5717  -16.7282   22.9884 C   0  0  1  0  0  0  0  0  0  0  0  0
    8.0774  -16.8711   22.8696 C   0  0  0  0  0  0  0  0  0  0  0  0
    7.5144  -16.0885   21.7539 C   0  0  0  0  0  0  0  0  0  0  0  0
    6.7994  -16.5642   20.6807 C   0  0  0  0  0  0  0  0  0  0  0  0
    6.4752  -15.5168   19.8974 N   0  0  0  0  0  0  0  0  0  0  0  0
    6.9416  -14.3712   20.4015 C   0  0  0  0  0  0  0  0  0  0  0  0
    6.8717  -13.0628   19.9789 C   0  0  0  0  0  0  0  0  0  0  0  0
    7.4682  -12.0769   20.7366 C   0  0  0  0  0  0  0  0  0  0  0  0
    8.1313  -12.4236   21.9169 C   0  0  0  0  0  0  0  0  0  0  0  0
    8.1982  -13.7358   22.3355 C   0  0  0  0  0  0  0  0  0  0  0  0
    7.6021  -14.7246   21.5791 C   0  0  0  0  0  0  0  0  0  0  0  0
    9.9535  -16.8630   24.4159 C   0  0  0  0  0  0  0  0  0  0  0  0
   10.5116  -17.9322   24.8131 O   0  0  0  0  0  0  0  0  0  0  0  0
   11.5852  -14.2065   29.0758 C   0  0  0  0  0  0  0  0  0  0  0  0
   10.0889  -14.6711   28.9847 C   0  0  1  0  0  0  0  0  0  0  0  0
    9.3535  -13.5191   29.6717 C   0  0  0  0  0  0  0  0  0  0  0  0
    9.8062  -14.7976   27.5346 C   0  0  0  0  0  0  0  0  0  0  0  0
   10.2020  -16.0153   26.7980 C   0  0  2  0  0  0  0  0  0  0  0  0
    9.7355  -15.8680   25.3774 N   0  0  0  0  0  0  0  0  0  0  0  0
    9.7359  -17.3169   27.2414 C   0  0  0  0  0  0  0  0  0  0  0  0
   10.5242  -18.1974   27.9446 O   0  0  0  0  0  0  0  0  0  0  0  0
    8.5498  -17.7431   27.0008 O   0  0  0  0  0  0  0  0  0  0  0  0
  2  1  1  1
  2  3  1  0
  4  5  2  0
  4  2  1  0
  6  4  1  0
  7  6  1  0
  7  8  1  1
  9  8  1  0
  9 17  1  0
 10 11  1  0
 10  9  2  0
 11 12  1  0
 12 13  1  0
 12 17  2  0
 13 14  2  0
 14 15  1  0
 16 15  2  0
 17 16  1  0
 18 19  2  0
 18  7  1  0
 21 20  1  6
 21 23  1  0
 21 22  1  0
 24 23  1  1
 24 25  1  0
 25 18  1  0
 26 24  1  0
 27 26  1  0
 28 26  2  0
M  END
$$$$
