AWL.pdb
     RDKit          3D

 28 29  0  0  1  0  0  0  0  0999 V2000
    9.8128  -19.5190   20.3507 C   0  0  0  0  0  0  0  0  0  0  0  0
    9.8305  -19.4161   21.8472 C   0  0  2  0  0  0  0  0  0  0  0  0
    8.5616  -19.7869   22.4265 N   0  0  0  0  0  0  0  0  0  0  0  0
   10.2229  -18.0291   22.2232 C   0  0  0  0  0  0  0  0  0  0  0  0
   11.3127  -17.5392   21.8327 O   0  0  0  0  0  0  0  0  0  0  0  0
    9.4005  -17.1965   23.0311 N   0  0  0  0  0  0  0  0  0  0  0  0
    9.7919  -15.8539   23.3966 C   0  0  1  0  0  0  0  0  0  0  0  0
    8.6218  -14.9224   23.5727 C   0  0  0  0  0  0  0  0  0  0  0  0
    7.7497  -14.8680   22.3851 C   0  0  0  0  0  0  0  0  0  0  0  0
    6.6518  -15.6520   22.1217 C   0  0  0  0  0  0  0  0  0  0  0  0
    6.1452  -15.2751   20.9314 N   0  0  0  0  0  0  0  0  0  0  0  0
    6.8555  -14.2791   20.3951 C   0  0  0  0  0  0  0  0  0  0  0  0
    6.7387  -13.5698   19.2210 C   0  0  0  0  0  0  0  0  0  0  0  0
    7.6507  -12.5737   18.9417 C   0  0  0  0  0  0  0  0  0  0  0  0
    8.6744  -12.3034   19.8540 C   0  0  0  0  0  0  0  0  0  0  0  0
    8.7865  -13.0171   21.0285 C   0  0  0  0  0  0  0  0  0  0  0  0
    7.8751  -14.0146   21.3105 C   0  0  0  0  0  0  0  0  0  0  0  0
   10.5460  -15.9218   24.6727 C   0  0  0  0  0  0  0  0  0  0  0  0
   11.4966  -15.1055   24.8786 O   0  0  0  0  0  0  0  0  0  0  0  0
   11.0111  -13.9929   28.1031 C   0  0  0  0  0  0  0  0  0  0  0  0
    9.5593  -14.4854   28.4393 C   0  0  1  0  0  0  0  0  0  0  0  0
    8.7156  -13.2591   28.0874 C   0  0  0  0  0  0  0  0  0  0  0  0
    9.3303  -15.6570   27.5599 C   0  0  0  0  0  0  0  0  0  0  0  0
   10.4602  -16.5121   27.1422 C   0  0  2  0  0  0  0  0  0  0  0  0
   10.2743  -16.8463   25.6893 N   0  0  0  0  0  0  0  0  0  0  0  0
   10.7049  -17.7742   27.8170 C   0  0  0  0  0  0  0  0  0  0  0  0
   11.5367  -17.8951   28.9054 O   0  0  0  0  0  0  0  0  0  0  0  0
   10.1640  -18.8745   27.4385 O   0  0  0  0  0  0  0  0  0  0  0  0
  2  1  1  6
  2  3  1  0
  4  5  2  0
  4  2  1  0
  6  4  1  0
  7  6  1  0
  7  8  1  1
  9  8  1  0
  9 17  1  0
 10 11  1  0
 10  9  2  0
 11 12  1  0
 12 13  1  0
 12 17  2  0
 13 14  2  0
 14 15  1  0
 16 15  2  0
 17 16  1  0
 18 19  2  0
 18  7  1  0
 21 20  1  6
 21 23  1  0
 21 22  1  0
 24 23  1  1
 24 25  1  0
 25 18  1  0
 26 24  1  0
 27 26  1  0
 28 26  2  0
M  END
$$$$
