IYA.pdb
     RDKit          3D

 26 26  0  0  1  0  0  0  0  0999 V2000
   26.1637   -2.6573  -19.3874 C   0  0  0  0  0  0  0  0  0  0  0  0
   26.2509   -4.0878  -19.9165 C   0  0  0  0  0  0  0  0  0  0  0  0
   25.8767   -5.0267  -18.8108 C   0  0  2  0  0  0  0  0  0  0  0  0
   26.6444   -4.6606  -17.5784 C   0  0  0  0  0  0  0  0  0  0  0  0
   26.0055   -6.4745  -19.1880 C   0  0  2  0  0  0  0  0  0  0  0  0
   25.2369   -6.7546  -20.3844 N   0  0  0  0  0  0  0  0  0  0  0  0
   25.6420   -7.4209  -18.1393 C   0  0  0  0  0  0  0  0  0  0  0  0
   26.1895   -7.4388  -17.0080 O   0  0  0  0  0  0  0  0  0  0  0  0
   21.8080   -4.0372  -14.4615 O   0  0  0  0  0  0  0  0  0  0  0  0
   22.0217   -5.2736  -15.0903 C   0  0  0  0  0  0  0  0  0  0  0  0
   22.1759   -6.4288  -14.3536 C   0  0  0  0  0  0  0  0  0  0  0  0
   22.3874   -7.6522  -14.9777 C   0  0  0  0  0  0  0  0  0  0  0  0
   22.4523   -7.7675  -16.3478 C   0  0  0  0  0  0  0  0  0  0  0  0
   22.6755   -9.0490  -17.0491 C   0  0  0  0  0  0  0  0  0  0  0  0
   24.1214   -9.2932  -17.3814 C   0  0  2  0  0  0  0  0  0  0  0  0
   24.6233   -8.3817  -18.3774 N   0  0  0  0  0  0  0  0  0  0  0  0
   24.4375  -10.7029  -17.6907 C   0  0  0  0  0  0  0  0  0  0  0  0
   24.1941  -11.1606  -18.8367 O   0  0  0  0  0  0  0  0  0  0  0  0
   22.2949   -6.5978  -17.0570 C   0  0  0  0  0  0  0  0  0  0  0  0
   22.0851   -5.3795  -16.4588 C   0  0  0  0  0  0  0  0  0  0  0  0
   26.0361  -13.4260  -15.6599 C   0  0  0  0  0  0  0  0  0  0  0  0
   25.2753  -12.9444  -16.9034 C   0  0  2  0  0  0  0  0  0  0  0  0
   25.0145  -11.5526  -16.7114 N   0  0  0  0  0  0  0  0  0  0  0  0
   24.0806  -13.7885  -17.0061 C   0  0  0  0  0  0  0  0  0  0  0  0
   22.9484  -13.4691  -16.6027 O   0  0  0  0  0  0  0  0  0  0  0  0
   24.2200  -15.0374  -17.5968 O   0  0  0  0  0  0  0  0  0  0  0  0
  2  1  1  0
  2  3  1  0
  3  5  1  0
  3  4  1  1
  5  6  1  6
  7  5  1  0
  7  8  2  0
  9 10  1  0
 10 20  2  0
 11 10  1  0
 11 12  2  0
 12 13  1  0
 13 19  2  0
 13 14  1  0
 15 14  1  6
 15 16  1  0
 16  7  1  0
 17 15  1  0
 18 17  2  0
 20 19  1  0
 22 23  1  0
 22 21  1  1
 23 17  1  0
 24 22  1  0
 25 24  2  0
 26 24  1  0
M  END
$$$$
