IYA.pdb
     RDKit          3D

 26 26  0  0  1  0  0  0  0  0999 V2000
   20.9357  -15.4479  -20.2490 C   0  0  0  0  0  0  0  0  0  0  0  0
   21.2367  -13.9685  -20.4825 C   0  0  0  0  0  0  0  0  0  0  0  0
   20.8458  -13.2048  -19.2545 C   0  0  2  0  0  0  0  0  0  0  0  0
   19.4185  -13.5122  -18.9219 C   0  0  0  0  0  0  0  0  0  0  0  0
   21.1350  -11.7342  -19.3489 C   0  0  2  0  0  0  0  0  0  0  0  0
   22.5060  -11.5152  -19.7644 N   0  0  0  0  0  0  0  0  0  0  0  0
   20.8627  -10.9719  -18.1356 C   0  0  0  0  0  0  0  0  0  0  0  0
   19.7835  -11.0563  -17.4969 O   0  0  0  0  0  0  0  0  0  0  0  0
   27.8813  -10.8925  -17.1411 O   0  0  0  0  0  0  0  0  0  0  0  0
   26.5800  -10.6199  -16.6916 C   0  0  0  0  0  0  0  0  0  0  0  0
   25.7191  -11.6395  -16.3450 C   0  0  0  0  0  0  0  0  0  0  0  0
   24.4310  -11.3679  -15.9000 C   0  0  0  0  0  0  0  0  0  0  0  0
   23.9582  -10.0802  -15.7855 C   0  0  0  0  0  0  0  0  0  0  0  0
   22.5962   -9.7498  -15.3168 C   0  0  0  0  0  0  0  0  0  0  0  0
   21.6856   -9.3009  -16.4259 C   0  0  2  0  0  0  0  0  0  0  0  0
   21.8455  -10.0822  -17.6254 N   0  0  0  0  0  0  0  0  0  0  0  0
   21.7256   -7.8470  -16.6854 C   0  0  0  0  0  0  0  0  0  0  0  0
   22.5699   -7.3795  -17.4918 O   0  0  0  0  0  0  0  0  0  0  0  0
   24.8398   -9.0831  -16.1385 C   0  0  0  0  0  0  0  0  0  0  0  0
   26.1162   -9.3312  -16.5803 C   0  0  0  0  0  0  0  0  0  0  0  0
   19.4258   -5.0400  -16.0796 C   0  0  0  0  0  0  0  0  0  0  0  0
   20.8761   -5.5408  -16.1325 C   0  0  2  0  0  0  0  0  0  0  0  0
   20.8222   -6.9654  -16.0368 N   0  0  0  0  0  0  0  0  0  0  0  0
   21.5809   -4.8739  -15.0329 C   0  0  0  0  0  0  0  0  0  0  0  0
   21.8974   -5.4164  -13.9595 O   0  0  0  0  0  0  0  0  0  0  0  0
   21.9215   -3.5381  -15.1989 O   0  0  0  0  0  0  0  0  0  0  0  0
  2  1  1  0
  2  3  1  0
  3  5  1  0
  3  4  1  6
  5  6  1  1
  7  5  1  0
  7  8  2  0
  9 10  1  0
 10 20  2  0
 11 10  1  0
 11 12  2  0
 12 13  1  0
 13 19  2  0
 13 14  1  0
 15 14  1  1
 15 16  1  0
 16  7  1  0
 17 15  1  0
 18 17  2  0
 20 19  1  0
 22 23  1  0
 22 21  1  1
 23 17  1  0
 24 22  1  0
 25 24  2  0
 26 24  1  0
M  END
$$$$
