IYA.pdb
     RDKit          3D

 26 26  0  0  1  0  0  0  0  0999 V2000
   24.4773  -31.6882   -7.4866 C   0  0  0  0  0  0  0  0  0  0  0  0
   25.3848  -32.8809   -7.7824 C   0  0  0  0  0  0  0  0  0  0  0  0
   25.5754  -32.9763   -9.2652 C   0  0  2  0  0  0  0  0  0  0  0  0
   24.2338  -33.0487   -9.9264 C   0  0  0  0  0  0  0  0  0  0  0  0
   26.5062  -34.0802   -9.6776 C   0  0  2  0  0  0  0  0  0  0  0  0
   26.4968  -34.2365  -11.1183 N   0  0  0  0  0  0  0  0  0  0  0  0
   26.2551  -35.3694   -9.0431 C   0  0  0  0  0  0  0  0  0  0  0  0
   25.7666  -36.3537   -9.6533 O   0  0  0  0  0  0  0  0  0  0  0  0
   26.6580  -42.9885   -5.1456 O   0  0  0  0  0  0  0  0  0  0  0  0
   26.8159  -41.7355   -5.7579 C   0  0  0  0  0  0  0  0  0  0  0  0
   27.8602  -40.9031   -5.4153 C   0  0  0  0  0  0  0  0  0  0  0  0
   28.0152  -39.6628   -6.0225 C   0  0  0  0  0  0  0  0  0  0  0  0
   27.1416  -39.2110   -6.9856 C   0  0  0  0  0  0  0  0  0  0  0  0
   27.2716  -37.8997   -7.6545 C   0  0  0  0  0  0  0  0  0  0  0  0
   26.4780  -36.8148   -6.9807 C   0  0  2  0  0  0  0  0  0  0  0  0
   26.5671  -35.5529   -7.6695 N   0  0  0  0  0  0  0  0  0  0  0  0
   26.7387  -36.6907   -5.5317 C   0  0  0  0  0  0  0  0  0  0  0  0
   27.8568  -36.2764   -5.1315 O   0  0  0  0  0  0  0  0  0  0  0  0
   26.1090  -40.0633   -7.3071 C   0  0  0  0  0  0  0  0  0  0  0  0
   25.9390  -41.2924   -6.7185 C   0  0  0  0  0  0  0  0  0  0  0  0
   24.6341  -37.5220   -2.5330 C   0  0  0  0  0  0  0  0  0  0  0  0
   25.9499  -37.0478   -3.1661 C   0  0  2  0  0  0  0  0  0  0  0  0
   25.7431  -37.0324   -4.5798 N   0  0  0  0  0  0  0  0  0  0  0  0
   26.9861  -37.9765   -2.7033 C   0  0  0  0  0  0  0  0  0  0  0  0
   27.1135  -39.1504   -3.0935 O   0  0  0  0  0  0  0  0  0  0  0  0
   27.8940  -37.5145   -1.7596 O   0  0  0  0  0  0  0  0  0  0  0  0
  2  1  1  0
  2  3  1  0
  3  5  1  0
  3  4  1  6
  5  6  1  6
  7  5  1  0
  7  8  2  0
  9 10  1  0
 10 20  2  0
 11 10  1  0
 11 12  2  0
 12 13  1  0
 13 19  2  0
 13 14  1  0
 15 14  1  6
 15 16  1  0
 16  7  1  0
 17 15  1  0
 18 17  2  0
 20 19  1  0
 22 23  1  0
 22 21  1  1
 23 17  1  0
 24 22  1  0
 25 24  2  0
 26 24  1  0
M  END
$$$$
