IYA.pdb
     RDKit          3D

 26 26  0  0  1  0  0  0  0  0999 V2000
   29.2356  -17.9908  -17.7590 C   0  0  0  0  0  0  0  0  0  0  0  0
   27.9441  -18.7966  -17.8869 C   0  0  0  0  0  0  0  0  0  0  0  0
   27.2051  -18.7188  -16.5861 C   0  0  2  0  0  0  0  0  0  0  0  0
   28.1381  -19.0795  -15.4719 C   0  0  0  0  0  0  0  0  0  0  0  0
   25.9281  -19.5089  -16.5770 C   0  0  2  0  0  0  0  0  0  0  0  0
   25.0792  -19.1089  -17.6814 N   0  0  0  0  0  0  0  0  0  0  0  0
   25.1726  -19.4476  -15.3309 C   0  0  0  0  0  0  0  0  0  0  0  0
   24.7444  -18.3739  -14.8373 O   0  0  0  0  0  0  0  0  0  0  0  0
   19.1218  -18.6054  -16.8335 O   0  0  0  0  0  0  0  0  0  0  0  0
   20.0377  -19.2984  -16.0270 C   0  0  0  0  0  0  0  0  0  0  0  0
   20.9123  -20.2152  -16.5705 C   0  0  0  0  0  0  0  0  0  0  0  0
   21.8186  -20.9006  -15.7706 C   0  0  0  0  0  0  0  0  0  0  0  0
   21.8854  -20.6985  -14.4106 C   0  0  0  0  0  0  0  0  0  0  0  0
   22.8339  -21.4067  -13.5261 C   0  0  0  0  0  0  0  0  0  0  0  0
   24.1492  -20.6925  -13.3827 C   0  0  2  0  0  0  0  0  0  0  0  0
   24.8908  -20.6426  -14.6165 N   0  0  0  0  0  0  0  0  0  0  0  0
   24.9681  -21.1628  -12.2464 C   0  0  0  0  0  0  0  0  0  0  0  0
   25.3825  -22.3501  -12.2244 O   0  0  0  0  0  0  0  0  0  0  0  0
   21.0002  -19.7776  -13.8963 C   0  0  0  0  0  0  0  0  0  0  0  0
   20.0974  -19.0904  -14.6701 C   0  0  0  0  0  0  0  0  0  0  0  0
   26.4994  -19.5128   -9.2761 C   0  0  0  0  0  0  0  0  0  0  0  0
   25.8016  -20.7246   -9.9099 C   0  0  2  0  0  0  0  0  0  0  0  0
   25.2966  -20.2924  -11.1747 N   0  0  0  0  0  0  0  0  0  0  0  0
   24.7794  -21.1572   -8.9515 C   0  0  0  0  0  0  0  0  0  0  0  0
   25.0162  -21.6788   -7.8477 O   0  0  0  0  0  0  0  0  0  0  0  0
   23.4478  -20.9725   -9.2989 O   0  0  0  0  0  0  0  0  0  0  0  0
  2  1  1  0
  2  3  1  0
  3  5  1  0
  3  4  1  1
  5  6  1  6
  7  5  1  0
  7  8  2  0
  9 10  1  0
 10 20  2  0
 11 10  1  0
 11 12  2  0
 12 13  1  0
 13 19  2  0
 13 14  1  0
 15 14  1  6
 15 16  1  0
 16  7  1  0
 17 15  1  0
 18 17  2  0
 20 19  1  0
 22 23  1  0
 22 21  1  1
 23 17  1  0
 24 22  1  0
 25 24  2  0
 26 24  1  0
M  END
$$$$
