IYA.pdb
     RDKit          3D

 26 26  0  0  1  0  0  0  0  0999 V2000
   34.8955  -28.4046  -20.9492 C   0  0  0  0  0  0  0  0  0  0  0  0
   34.9683  -29.4420  -19.8302 C   0  0  0  0  0  0  0  0  0  0  0  0
   33.6025  -29.5939  -19.2338 C   0  0  2  0  0  0  0  0  0  0  0  0
   33.0933  -28.2450  -18.8294 C   0  0  0  0  0  0  0  0  0  0  0  0
   33.5424  -30.6116  -18.1312 C   0  0  2  0  0  0  0  0  0  0  0  0
   34.0552  -31.8862  -18.5924 N   0  0  0  0  0  0  0  0  0  0  0  0
   32.2244  -30.8000  -17.5356 C   0  0  0  0  0  0  0  0  0  0  0  0
   31.5314  -29.8539  -17.0835 O   0  0  0  0  0  0  0  0  0  0  0  0
   23.9987  -32.8644  -15.9257 O   0  0  0  0  0  0  0  0  0  0  0  0
   25.3028  -32.5248  -16.3176 C   0  0  0  0  0  0  0  0  0  0  0  0
   26.1156  -31.7663  -15.5022 C   0  0  0  0  0  0  0  0  0  0  0  0
   27.4067  -31.4309  -15.8917 C   0  0  0  0  0  0  0  0  0  0  0  0
   27.9301  -31.8362  -17.0986 C   0  0  0  0  0  0  0  0  0  0  0  0
   29.2969  -31.5007  -17.5491 C   0  0  0  0  0  0  0  0  0  0  0  0
   30.3491  -32.3907  -16.9478 C   0  0  2  0  0  0  0  0  0  0  0  0
   31.6694  -32.1046  -17.4475 N   0  0  0  0  0  0  0  0  0  0  0  0
   30.0212  -33.8303  -17.0011 C   0  0  0  0  0  0  0  0  0  0  0  0
   30.1067  -34.4504  -18.0920 O   0  0  0  0  0  0  0  0  0  0  0  0
   27.0956  -32.5920  -17.8915 C   0  0  0  0  0  0  0  0  0  0  0  0
   25.8172  -32.9337  -17.5243 C   0  0  0  0  0  0  0  0  0  0  0  0
   29.5221  -36.3463  -14.3044 C   0  0  0  0  0  0  0  0  0  0  0  0
   29.3818  -35.9374  -15.7775 C   0  0  2  0  0  0  0  0  0  0  0  0
   29.6098  -34.5280  -15.8358 N   0  0  0  0  0  0  0  0  0  0  0  0
   28.0429  -36.3646  -16.1963 C   0  0  0  0  0  0  0  0  0  0  0  0
   27.1038  -35.5952  -16.4657 O   0  0  0  0  0  0  0  0  0  0  0  0
   27.8023  -37.7282  -16.3007 O   0  0  0  0  0  0  0  0  0  0  0  0
  2  1  1  0
  2  3  1  0
  3  5  1  0
  3  4  1  1
  5  6  1  6
  7  5  1  0
  7  8  2  0
  9 10  1  0
 10 20  2  0
 11 10  1  0
 11 12  2  0
 12 13  1  0
 13 19  2  0
 13 14  1  0
 15 14  1  6
 15 16  1  0
 16  7  1  0
 17 15  1  0
 18 17  2  0
 20 19  1  0
 22 23  1  0
 22 21  1  1
 23 17  1  0
 24 22  1  0
 25 24  2  0
 26 24  1  0
M  END
$$$$
