IYA.pdb
     RDKit          3D

 26 26  0  0  1  0  0  0  0  0999 V2000
   25.0933  -37.2747  -14.2303 C   0  0  0  0  0  0  0  0  0  0  0  0
   24.1432  -36.2077  -13.6896 C   0  0  0  0  0  0  0  0  0  0  0  0
   24.8990  -35.3416  -12.7290 C   0  0  2  0  0  0  0  0  0  0  0  0
   25.5204  -36.2065  -11.6764 C   0  0  0  0  0  0  0  0  0  0  0  0
   24.0797  -34.2140  -12.1702 C   0  0  2  0  0  0  0  0  0  0  0  0
   23.6229  -33.3454  -13.2366 N   0  0  0  0  0  0  0  0  0  0  0  0
   24.7418  -33.4202  -11.1412 C   0  0  0  0  0  0  0  0  0  0  0  0
   25.4971  -32.4494  -11.3999 O   0  0  0  0  0  0  0  0  0  0  0  0
   21.1456  -28.4262  -10.9149 O   0  0  0  0  0  0  0  0  0  0  0  0
   21.8551  -29.3771  -10.1653 C   0  0  0  0  0  0  0  0  0  0  0  0
   21.2845  -30.5858   -9.8270 C   0  0  0  0  0  0  0  0  0  0  0  0
   21.9884  -31.5262   -9.0848 C   0  0  0  0  0  0  0  0  0  0  0  0
   23.2764  -31.2978   -8.6562 C   0  0  0  0  0  0  0  0  0  0  0  0
   24.0581  -32.2714   -7.8657 C   0  0  0  0  0  0  0  0  0  0  0  0
   25.1048  -32.9825   -8.6776 C   0  0  2  0  0  0  0  0  0  0  0  0
   24.5433  -33.7346   -9.7702 N   0  0  0  0  0  0  0  0  0  0  0  0
   26.0552  -33.7758   -7.8711 C   0  0  0  0  0  0  0  0  0  0  0  0
   25.6914  -34.8747   -7.3792 O   0  0  0  0  0  0  0  0  0  0  0  0
   23.8199  -30.0828   -9.0088 C   0  0  0  0  0  0  0  0  0  0  0  0
   23.1407  -29.1407   -9.7416 C   0  0  0  0  0  0  0  0  0  0  0  0
   29.6082  -33.1295   -6.8349 C   0  0  0  0  0  0  0  0  0  0  0  0
   28.3164  -33.9570   -6.7756 C   0  0  2  0  0  0  0  0  0  0  0  0
   27.3781  -33.3160   -7.6419 N   0  0  0  0  0  0  0  0  0  0  0  0
   27.9227  -34.0026   -5.3637 C   0  0  0  0  0  0  0  0  0  0  0  0
   26.9594  -33.3865   -4.8747 O   0  0  0  0  0  0  0  0  0  0  0  0
   28.6791  -34.7908   -4.5065 O   0  0  0  0  0  0  0  0  0  0  0  0
  2  1  1  0
  2  3  1  0
  3  5  1  0
  3  4  1  1
  5  6  1  6
  7  5  1  0
  7  8  2  0
  9 10  1  0
 10 20  2  0
 11 10  1  0
 11 12  2  0
 12 13  1  0
 13 19  2  0
 13 14  1  0
 15 14  1  1
 15 16  1  0
 16  7  1  0
 17 15  1  0
 18 17  2  0
 20 19  1  0
 22 23  1  0
 22 21  1  1
 23 17  1  0
 24 22  1  0
 25 24  2  0
 26 24  1  0
M  END
$$$$
