IYA.pdb
     RDKit          3D

 26 26  0  0  1  0  0  0  0  0999 V2000
   23.3344  -15.8491  -16.4384 C   0  0  0  0  0  0  0  0  0  0  0  0
   22.6598  -14.7941  -15.5634 C   0  0  0  0  0  0  0  0  0  0  0  0
   22.8966  -13.4475  -16.1754 C   0  0  2  0  0  0  0  0  0  0  0  0
   24.3647  -13.2688  -16.4098 C   0  0  0  0  0  0  0  0  0  0  0  0
   22.2727  -12.3220  -15.4013 C   0  0  2  0  0  0  0  0  0  0  0  0
   20.8752  -12.6031  -15.1401 N   0  0  0  0  0  0  0  0  0  0  0  0
   22.4016  -11.0047  -16.0142 C   0  0  0  0  0  0  0  0  0  0  0  0
   23.4983  -10.5317  -16.4056 O   0  0  0  0  0  0  0  0  0  0  0  0
   21.7713  -11.9080  -22.3641 O   0  0  0  0  0  0  0  0  0  0  0  0
   21.4312  -11.1040  -21.2652 C   0  0  0  0  0  0  0  0  0  0  0  0
   22.0931   -9.9200  -21.0184 C   0  0  0  0  0  0  0  0  0  0  0  0
   21.7553   -9.1250  -19.9300 C   0  0  0  0  0  0  0  0  0  0  0  0
   20.7532   -9.4787  -19.0549 C   0  0  0  0  0  0  0  0  0  0  0  0
   20.3641   -8.6615  -17.8867 C   0  0  0  0  0  0  0  0  0  0  0  0
   21.2784   -8.8484  -16.7078 C   0  0  2  0  0  0  0  0  0  0  0  0
   21.2497  -10.1927  -16.1911 N   0  0  0  0  0  0  0  0  0  0  0  0
   21.1123   -7.8298  -15.6506 C   0  0  0  0  0  0  0  0  0  0  0  0
   20.3946   -8.0808  -14.6487 O   0  0  0  0  0  0  0  0  0  0  0  0
   20.1102  -10.6656  -19.3265 C   0  0  0  0  0  0  0  0  0  0  0  0
   20.4295  -11.4648  -20.3967 C   0  0  0  0  0  0  0  0  0  0  0  0
   22.5413   -4.3815  -15.2374 C   0  0  0  0  0  0  0  0  0  0  0  0
   21.5825   -5.5019  -14.8105 C   0  0  2  0  0  0  0  0  0  0  0  0
   21.7527   -6.5671  -15.7476 N   0  0  0  0  0  0  0  0  0  0  0  0
   20.2419   -4.9081  -14.7869 C   0  0  0  0  0  0  0  0  0  0  0  0
   19.3374   -5.1639  -15.6011 O   0  0  0  0  0  0  0  0  0  0  0  0
   19.9579   -3.9920  -13.7827 O   0  0  0  0  0  0  0  0  0  0  0  0
  2  1  1  0
  2  3  1  0
  3  5  1  0
  3  4  1  1
  5  6  1  6
  7  5  1  0
  7  8  2  0
  9 10  1  0
 10 20  2  0
 11 10  1  0
 11 12  2  0
 12 13  1  0
 13 19  2  0
 13 14  1  0
 15 14  1  6
 15 16  1  0
 16  7  1  0
 17 15  1  0
 18 17  2  0
 20 19  1  0
 22 23  1  0
 22 21  1  6
 23 17  1  0
 24 22  1  0
 25 24  2  0
 26 24  1  0
M  END
$$$$
