IYA.pdb
     RDKit          3D

 26 26  0  0  1  0  0  0  0  0999 V2000
   21.0652   -7.8654  -22.5691 C   0  0  0  0  0  0  0  0  0  0  0  0
   21.8977   -8.1219  -21.3143 C   0  0  0  0  0  0  0  0  0  0  0  0
   21.5005   -7.1253  -20.2688 C   0  0  2  0  0  0  0  0  0  0  0  0
   21.6358   -5.7450  -20.8333 C   0  0  0  0  0  0  0  0  0  0  0  0
   22.2190   -7.3112  -18.9633 C   0  0  2  0  0  0  0  0  0  0  0  0
   22.1130   -8.6870  -18.5204 N   0  0  0  0  0  0  0  0  0  0  0  0
   21.7946   -6.4172  -17.8918 C   0  0  0  0  0  0  0  0  0  0  0  0
   20.7325   -6.5797  -17.2396 O   0  0  0  0  0  0  0  0  0  0  0  0
   21.6799   -9.0266  -12.0857 O   0  0  0  0  0  0  0  0  0  0  0  0
   22.0470   -7.9269  -12.8765 C   0  0  0  0  0  0  0  0  0  0  0  0
   22.9662   -8.0590  -13.8956 C   0  0  0  0  0  0  0  0  0  0  0  0
   23.3286   -6.9691  -14.6777 C   0  0  0  0  0  0  0  0  0  0  0  0
   22.7920   -5.7179  -14.4740 C   0  0  0  0  0  0  0  0  0  0  0  0
   23.1509   -4.5346  -15.2832 C   0  0  0  0  0  0  0  0  0  0  0  0
   22.2786   -4.3653  -16.4961 C   0  0  2  0  0  0  0  0  0  0  0  0
   22.5993   -5.2993  -17.5447 N   0  0  0  0  0  0  0  0  0  0  0  0
   22.1893   -2.9733  -16.9830 C   0  0  0  0  0  0  0  0  0  0  0  0
   23.1457   -2.4755  -17.6305 O   0  0  0  0  0  0  0  0  0  0  0  0
   21.8772   -5.6164  -13.4499 C   0  0  0  0  0  0  0  0  0  0  0  0
   21.5062   -6.6813  -12.6661 C   0  0  0  0  0  0  0  0  0  0  0  0
   19.4630   -0.4008  -16.7330 C   0  0  0  0  0  0  0  0  0  0  0  0
   20.8654   -0.8390  -17.1784 C   0  0  2  0  0  0  0  0  0  0  0  0
   21.0361   -2.1853  -16.7311 N   0  0  0  0  0  0  0  0  0  0  0  0
   21.8016    0.1286  -16.5974 C   0  0  0  0  0  0  0  0  0  0  0  0
   22.2754    0.0574  -15.4498 O   0  0  0  0  0  0  0  0  0  0  0  0
   22.1899    1.2052  -17.3837 O   0  0  0  0  0  0  0  0  0  0  0  0
  2  1  1  0
  2  3  1  0
  3  5  1  0
  3  4  1  6
  5  6  1  1
  7  5  1  0
  7  8  2  0
  9 10  1  0
 10 20  2  0
 11 10  1  0
 11 12  2  0
 12 13  1  0
 13 19  2  0
 13 14  1  0
 15 14  1  1
 15 16  1  0
 16  7  1  0
 17 15  1  0
 18 17  2  0
 20 19  1  0
 22 23  1  0
 22 21  1  1
 23 17  1  0
 24 22  1  0
 25 24  2  0
 26 24  1  0
M  END
$$$$
