IYA.pdb
     RDKit          3D

 26 26  0  0  1  0  0  0  0  0999 V2000
   20.6024  -13.1247  -19.5745 C   0  0  0  0  0  0  0  0  0  0  0  0
   21.3454  -11.8062  -19.3672 C   0  0  0  0  0  0  0  0  0  0  0  0
   20.5162  -10.9280  -18.4810 C   0  0  2  0  0  0  0  0  0  0  0  0
   19.1413  -10.8071  -19.0618 C   0  0  0  0  0  0  0  0  0  0  0  0
   21.1586   -9.6038  -18.1831 C   0  0  2  0  0  0  0  0  0  0  0  0
   22.5832   -9.7696  -17.9744 N   0  0  0  0  0  0  0  0  0  0  0  0
   20.5802   -8.8754  -17.0596 C   0  0  0  0  0  0  0  0  0  0  0  0
   19.3468   -8.6682  -16.9350 O   0  0  0  0  0  0  0  0  0  0  0  0
   18.8495   -5.3726   -9.2642 O   0  0  0  0  0  0  0  0  0  0  0  0
   19.4818   -6.0272  -10.3325 C   0  0  0  0  0  0  0  0  0  0  0  0
   20.6766   -5.5654  -10.8426 C   0  0  0  0  0  0  0  0  0  0  0  0
   21.3014   -6.2147  -11.9004 C   0  0  0  0  0  0  0  0  0  0  0  0
   20.7621   -7.3390  -12.4835 C   0  0  0  0  0  0  0  0  0  0  0  0
   21.3949   -8.0577  -13.6091 C   0  0  0  0  0  0  0  0  0  0  0  0
   20.9726   -7.5330  -14.9533 C   0  0  2  0  0  0  0  0  0  0  0  0
   21.4259   -8.3626  -16.0401 N   0  0  0  0  0  0  0  0  0  0  0  0
   21.2791   -6.1031  -15.1640 C   0  0  0  0  0  0  0  0  0  0  0  0
   22.4688   -5.7019  -15.0896 O   0  0  0  0  0  0  0  0  0  0  0  0
   19.5691   -7.7769  -11.9534 C   0  0  0  0  0  0  0  0  0  0  0  0
   18.9363   -7.1492  -10.9086 C   0  0  0  0  0  0  0  0  0  0  0  0
   19.1601   -3.2038  -16.2288 C   0  0  0  0  0  0  0  0  0  0  0  0
   20.4550   -3.7682  -15.6275 C   0  0  2  0  0  0  0  0  0  0  0  0
   20.2482   -5.1710  -15.4508 N   0  0  0  0  0  0  0  0  0  0  0  0
   20.6940   -3.0182  -14.3903 C   0  0  0  0  0  0  0  0  0  0  0  0
   19.9585   -3.0486  -13.3879 O   0  0  0  0  0  0  0  0  0  0  0  0
   21.8240   -2.2134  -14.3299 O   0  0  0  0  0  0  0  0  0  0  0  0
  2  1  1  0
  2  3  1  0
  3  5  1  0
  3  4  1  6
  5  6  1  1
  7  5  1  0
  7  8  2  0
  9 10  1  0
 10 20  2  0
 11 10  1  0
 11 12  2  0
 12 13  1  0
 13 19  2  0
 13 14  1  0
 15 14  1  1
 15 16  1  0
 16  7  1  0
 17 15  1  0
 18 17  2  0
 20 19  1  0
 22 23  1  0
 22 21  1  1
 23 17  1  0
 24 22  1  0
 25 24  2  0
 26 24  1  0
M  END
$$$$
