IYA.pdb
     RDKit          3D

 26 26  0  0  1  0  0  0  0  0999 V2000
   27.5593  -22.7576  -20.6488 C   0  0  0  0  0  0  0  0  0  0  0  0
   28.1813  -23.0156  -19.2776 C   0  0  0  0  0  0  0  0  0  0  0  0
   27.0975  -22.9539  -18.2453 C   0  0  2  0  0  0  0  0  0  0  0  0
   26.3645  -21.6555  -18.3836 C   0  0  0  0  0  0  0  0  0  0  0  0
   27.5860  -23.2198  -16.8504 C   0  0  2  0  0  0  0  0  0  0  0  0
   28.1907  -24.5343  -16.7694 N   0  0  0  0  0  0  0  0  0  0  0  0
   26.5781  -23.0787  -15.8054 C   0  0  0  0  0  0  0  0  0  0  0  0
   25.7328  -23.9700  -15.5393 O   0  0  0  0  0  0  0  0  0  0  0  0
   22.5348  -20.2368   -8.4842 O   0  0  0  0  0  0  0  0  0  0  0  0
   23.4385  -20.4035   -9.5449 C   0  0  0  0  0  0  0  0  0  0  0  0
   24.6072  -21.1158   -9.3783 C   0  0  0  0  0  0  0  0  0  0  0  0
   25.5009  -21.2799  -10.4295 C   0  0  0  0  0  0  0  0  0  0  0  0
   25.2640  -20.7442  -11.6752 C   0  0  0  0  0  0  0  0  0  0  0  0
   26.1885  -20.8961  -12.8180 C   0  0  0  0  0  0  0  0  0  0  0  0
   25.5848  -21.6574  -13.9654 C   0  0  2  0  0  0  0  0  0  0  0  0
   26.5234  -21.8876  -15.0335 N   0  0  0  0  0  0  0  0  0  0  0  0
   24.3021  -21.1037  -14.4459 C   0  0  0  0  0  0  0  0  0  0  0  0
   24.2778  -19.9755  -15.0014 O   0  0  0  0  0  0  0  0  0  0  0  0
   24.0896  -20.0384  -11.8118 C   0  0  0  0  0  0  0  0  0  0  0  0
   23.1939  -19.8652  -10.7853 C   0  0  0  0  0  0  0  0  0  0  0  0
   21.1829  -22.4116  -15.5848 C   0  0  0  0  0  0  0  0  0  0  0  0
   21.8049  -21.3410  -14.6771 C   0  0  2  0  0  0  0  0  0  0  0  0
   23.0915  -21.8277  -14.2904 N   0  0  0  0  0  0  0  0  0  0  0  0
   20.8619  -21.1418  -13.5719 C   0  0  0  0  0  0  0  0  0  0  0  0
   21.0229  -21.5690  -12.4151 O   0  0  0  0  0  0  0  0  0  0  0  0
   19.7024  -20.4236  -13.8325 O   0  0  0  0  0  0  0  0  0  0  0  0
  2  1  1  0
  2  3  1  0
  3  5  1  0
  3  4  1  1
  5  6  1  6
  7  5  1  0
  7  8  2  0
  9 10  1  0
 10 20  2  0
 11 10  1  0
 11 12  2  0
 12 13  1  0
 13 19  2  0
 13 14  1  0
 15 14  1  1
 15 16  1  0
 16  7  1  0
 17 15  1  0
 18 17  2  0
 20 19  1  0
 22 23  1  0
 22 21  1  6
 23 17  1  0
 24 22  1  0
 25 24  2  0
 26 24  1  0
M  END
$$$$
