IYA.pdb
     RDKit          3D

 26 26  0  0  1  0  0  0  0  0999 V2000
   26.4164  -22.4663  -20.4753 C   0  0  0  0  0  0  0  0  0  0  0  0
   27.2807  -22.8066  -19.2626 C   0  0  0  0  0  0  0  0  0  0  0  0
   26.4337  -22.7023  -18.0314 C   0  0  2  0  0  0  0  0  0  0  0  0
   25.8332  -21.3321  -17.9663 C   0  0  0  0  0  0  0  0  0  0  0  0
   27.1545  -23.1001  -16.7755 C   0  0  2  0  0  0  0  0  0  0  0  0
   27.6289  -24.4658  -16.8770 N   0  0  0  0  0  0  0  0  0  0  0  0
   26.3879  -22.9377  -15.5453 C   0  0  0  0  0  0  0  0  0  0  0  0
   25.4483  -23.7036  -15.2133 O   0  0  0  0  0  0  0  0  0  0  0  0
   23.8920  -19.9257   -7.5853 O   0  0  0  0  0  0  0  0  0  0  0  0
   24.6071  -20.1788   -8.7660 C   0  0  0  0  0  0  0  0  0  0  0  0
   25.3808  -21.3122   -8.8997 C   0  0  0  0  0  0  0  0  0  0  0  0
   26.0883  -21.5614  -10.0694 C   0  0  0  0  0  0  0  0  0  0  0  0
   26.0504  -20.6967  -11.1399 C   0  0  0  0  0  0  0  0  0  0  0  0
   26.7877  -20.9254  -12.4000 C   0  0  0  0  0  0  0  0  0  0  0  0
   25.9451  -21.5702  -13.4653 C   0  0  2  0  0  0  0  0  0  0  0  0
   26.6939  -21.8712  -14.6584 N   0  0  0  0  0  0  0  0  0  0  0  0
   24.6851  -20.8537  -13.7511 C   0  0  0  0  0  0  0  0  0  0  0  0
   24.7212  -19.7157  -14.2855 O   0  0  0  0  0  0  0  0  0  0  0  0
   25.2700  -19.5740  -10.9775 C   0  0  0  0  0  0  0  0  0  0  0  0
   24.5636  -19.3101   -9.8297 C   0  0  0  0  0  0  0  0  0  0  0  0
   21.2488  -21.8233  -14.2988 C   0  0  0  0  0  0  0  0  0  0  0  0
   22.1694  -20.7886  -13.6364 C   0  0  2  0  0  0  0  0  0  0  0  0
   23.4289  -21.4315  -13.4314 N   0  0  0  0  0  0  0  0  0  0  0  0
   21.4886  -20.3584  -12.4110 C   0  0  0  0  0  0  0  0  0  0  0  0
   21.7857  -20.7352  -11.2636 O   0  0  0  0  0  0  0  0  0  0  0  0
   20.4336  -19.4644  -12.5371 O   0  0  0  0  0  0  0  0  0  0  0  0
  2  1  1  0
  2  3  1  0
  3  5  1  0
  3  4  1  1
  5  6  1  6
  7  5  1  0
  7  8  2  0
  9 10  1  0
 10 20  2  0
 11 10  1  0
 11 12  2  0
 12 13  1  0
 13 19  2  0
 13 14  1  0
 15 14  1  1
 15 16  1  0
 16  7  1  0
 17 15  1  0
 18 17  2  0
 20 19  1  0
 22 23  1  0
 22 21  1  1
 23 17  1  0
 24 22  1  0
 25 24  2  0
 26 24  1  0
M  END
$$$$
