IYA.pdb
     RDKit          3D

 26 26  0  0  1  0  0  0  0  0999 V2000
   34.8841  -25.6490  -15.6306 C   0  0  0  0  0  0  0  0  0  0  0  0
   33.8367  -26.4359  -16.4163 C   0  0  0  0  0  0  0  0  0  0  0  0
   32.7604  -25.4897  -16.8525 C   0  0  2  0  0  0  0  0  0  0  0  0
   32.1024  -24.9062  -15.6405 C   0  0  0  0  0  0  0  0  0  0  0  0
   31.7912  -26.0960  -17.8262 C   0  0  2  0  0  0  0  0  0  0  0  0
   32.5005  -26.6778  -18.9482 N   0  0  0  0  0  0  0  0  0  0  0  0
   30.7587  -25.1895  -18.3158 C   0  0  0  0  0  0  0  0  0  0  0  0
   30.9638  -24.3315  -19.2111 O   0  0  0  0  0  0  0  0  0  0  0  0
   29.0562  -26.4828  -24.3033 O   0  0  0  0  0  0  0  0  0  0  0  0
   28.6357  -26.1841  -22.9981 C   0  0  0  0  0  0  0  0  0  0  0  0
   28.9687  -27.0017  -21.9390 C   0  0  0  0  0  0  0  0  0  0  0  0
   28.5515  -26.7045  -20.6473 C   0  0  0  0  0  0  0  0  0  0  0  0
   27.7933  -25.5904  -20.3666 C   0  0  0  0  0  0  0  0  0  0  0  0
   27.3302  -25.2397  -19.0078 C   0  0  0  0  0  0  0  0  0  0  0  0
   28.3430  -24.4485  -18.2276 C   0  0  2  0  0  0  0  0  0  0  0  0
   29.4472  -25.2548  -17.7742 N   0  0  0  0  0  0  0  0  0  0  0  0
   27.7606  -23.6245  -17.1484 C   0  0  0  0  0  0  0  0  0  0  0  0
   27.3897  -24.1697  -16.0773 O   0  0  0  0  0  0  0  0  0  0  0  0
   27.4763  -24.7930  -21.4436 C   0  0  0  0  0  0  0  0  0  0  0  0
   27.8789  -25.0697  -22.7270 C   0  0  0  0  0  0  0  0  0  0  0  0
   27.1366  -19.9301  -16.8738 C   0  0  0  0  0  0  0  0  0  0  0  0
   27.0607  -21.3553  -16.3078 C   0  0  2  0  0  0  0  0  0  0  0  0
   27.6126  -22.2214  -17.3013 N   0  0  0  0  0  0  0  0  0  0  0  0
   25.6492  -21.5969  -15.9925 C   0  0  0  0  0  0  0  0  0  0  0  0
   24.8872  -22.3220  -16.6562 O   0  0  0  0  0  0  0  0  0  0  0  0
   25.1208  -20.9717  -14.8709 O   0  0  0  0  0  0  0  0  0  0  0  0
  2  1  1  0
  2  3  1  0
  3  5  1  0
  3  4  1  1
  5  6  1  6
  7  5  1  0
  7  8  2  0
  9 10  1  0
 10 20  2  0
 11 10  1  0
 11 12  2  0
 12 13  1  0
 13 19  2  0
 13 14  1  0
 15 14  1  1
 15 16  1  0
 16  7  1  0
 17 15  1  0
 18 17  2  0
 20 19  1  0
 22 23  1  0
 22 21  1  6
 23 17  1  0
 24 22  1  0
 25 24  2  0
 26 24  1  0
M  END
$$$$
