IYA.pdb
     RDKit          3D

 26 26  0  0  1  0  0  0  0  0999 V2000
   31.9961  -26.2840  -18.2338 C   0  0  0  0  0  0  0  0  0  0  0  0
   30.8181  -25.4395  -17.7514 C   0  0  0  0  0  0  0  0  0  0  0  0
   29.5473  -26.1313  -18.1394 C   0  0  2  0  0  0  0  0  0  0  0  0
   29.6137  -26.4973  -19.5899 C   0  0  0  0  0  0  0  0  0  0  0  0
   28.3120  -25.3603  -17.7726 C   0  0  2  0  0  0  0  0  0  0  0  0
   28.3712  -24.9421  -16.3863 N   0  0  0  0  0  0  0  0  0  0  0  0
   27.0537  -26.0546  -18.0218 C   0  0  0  0  0  0  0  0  0  0  0  0
   26.7557  -26.5625  -19.1323 O   0  0  0  0  0  0  0  0  0  0  0  0
   27.9195  -32.6215  -16.8071 O   0  0  0  0  0  0  0  0  0  0  0  0
   27.1434  -31.4705  -16.6006 C   0  0  0  0  0  0  0  0  0  0  0  0
   27.6698  -30.3610  -15.9739 C   0  0  0  0  0  0  0  0  0  0  0  0
   26.9001  -29.2221  -15.7701 C   0  0  0  0  0  0  0  0  0  0  0  0
   25.5882  -29.1487  -16.1805 C   0  0  0  0  0  0  0  0  0  0  0  0
   24.7369  -27.9570  -15.9827 C   0  0  0  0  0  0  0  0  0  0  0  0
   24.8805  -26.9427  -17.0832 C   0  0  2  0  0  0  0  0  0  0  0  0
   26.0975  -26.1794  -16.9788 N   0  0  0  0  0  0  0  0  0  0  0  0
   23.6895  -26.0896  -17.2739 C   0  0  0  0  0  0  0  0  0  0  0  0
   23.6306  -24.9650  -16.7137 O   0  0  0  0  0  0  0  0  0  0  0  0
   25.0900  -30.2713  -16.8030 C   0  0  0  0  0  0  0  0  0  0  0  0
   25.8345  -31.4059  -17.0135 C   0  0  0  0  0  0  0  0  0  0  0  0
   20.7599  -26.3035  -19.5676 C   0  0  0  0  0  0  0  0  0  0  0  0
   21.3967  -25.7827  -18.2713 C   0  0  2  0  0  0  0  0  0  0  0  0
   22.6059  -26.5202  -18.0829 N   0  0  0  0  0  0  0  0  0  0  0  0
   20.3919  -25.9642  -17.2188 C   0  0  0  0  0  0  0  0  0  0  0  0
   20.4278  -26.8513  -16.3479 O   0  0  0  0  0  0  0  0  0  0  0  0
   19.3197  -25.0824  -17.1892 O   0  0  0  0  0  0  0  0  0  0  0  0
  2  1  1  0
  2  3  1  0
  3  5  1  0
  3  4  1  6
  5  6  1  1
  7  5  1  0
  7  8  2  0
  9 10  1  0
 10 20  2  0
 11 10  1  0
 11 12  2  0
 12 13  1  0
 13 19  2  0
 13 14  1  0
 15 14  1  1
 15 16  1  0
 16  7  1  0
 17 15  1  0
 18 17  2  0
 20 19  1  0
 22 23  1  0
 22 21  1  6
 23 17  1  0
 24 22  1  0
 25 24  2  0
 26 24  1  0
M  END
$$$$
