PTD.pdb
     RDKit          3D

 23 23  0  0  1  0  0  0  0  0999 V2000
   20.2540  -16.4418  -16.8565 N   0  0  0  0  0  0  0  0  0  0  0  0
   18.9901  -17.0778  -17.0660 C   0  0  0  0  0  0  0  0  0  0  0  0
   18.4634  -16.3649  -18.3146 C   0  0  0  0  0  0  0  0  0  0  0  0
   18.7818  -14.9223  -17.9199 C   0  0  0  0  0  0  0  0  0  0  0  0
   20.2211  -15.1188  -17.4352 C   0  0  1  0  0  0  0  0  0  0  0  0
   20.6193  -14.0952  -16.4583 C   0  0  0  0  0  0  0  0  0  0  0  0
   20.1607  -14.1836  -15.2734 O   0  0  0  0  0  0  0  0  0  0  0  0
   23.7833  -13.3665  -15.0251 C   0  0  0  0  0  0  0  0  0  0  0  0
   23.3395  -12.0354  -15.5900 C   0  0  1  0  0  0  0  0  0  0  0  0
   24.0207  -11.7763  -16.7747 O   0  0  0  0  0  0  0  0  0  0  0  0
   21.8363  -12.0520  -15.8178 C   0  0  2  0  0  0  0  0  0  0  0  0
   21.4940  -13.0318  -16.8245 N   0  0  0  0  0  0  0  0  0  0  0  0
   21.3901  -10.6806  -16.2312 C   0  0  0  0  0  0  0  0  0  0  0  0
   20.9241  -10.5043  -17.3760 O   0  0  0  0  0  0  0  0  0  0  0  0
   21.4898   -9.5912  -15.3453 N   0  0  0  0  0  0  0  0  0  0  0  0
   21.0203   -8.2420  -15.6971 C   0  0  1  0  0  0  0  0  0  0  0  0
   19.5426   -8.2864  -15.9709 C   0  0  0  0  0  0  0  0  0  0  0  0
   18.9425   -6.9659  -16.1232 C   0  0  0  0  0  0  0  0  0  0  0  0
   19.2247   -6.1639  -17.0542 O   0  0  0  0  0  0  0  0  0  0  0  0
   21.3364   -7.3641  -14.5421 C   0  0  0  0  0  0  0  0  0  0  0  0
   21.2084   -5.9683  -14.7226 O   0  0  0  0  0  0  0  0  0  0  0  0
   17.9813   -6.5377  -15.1791 O   0  0  0  0  0  0  0  0  0  0  0  0
   21.7055   -7.8108  -13.4345 O   0  0  0  0  0  0  0  0  0  0  0  0
  2  1  1  0
  3  2  1  0
  4  3  1  0
  4  5  1  0
  5  1  1  0
  5  6  1  1
  7  6  2  0
  9  8  1  6
  9 11  1  0
 10  9  1  0
 11 12  1  6
 11 13  1  0
 12  6  1  0
 13 15  1  0
 13 14  2  0
 15 16  1  0
 16 17  1  1
 17 18  1  0
 18 22  1  0
 18 19  2  0
 20 16  1  0
 20 21  1  0
 23 20  2  0
M  END
$$$$
