PTD.pdb
     RDKit          3D

 23 23  0  0  1  0  0  0  0  0999 V2000
   24.2617  -13.9661  -17.6721 N   0  0  0  0  0  0  0  0  0  0  0  0
   25.5759  -14.4950  -17.4748 C   0  0  0  0  0  0  0  0  0  0  0  0
   25.6801  -14.5626  -15.9486 C   0  0  0  0  0  0  0  0  0  0  0  0
   25.1173  -13.1822  -15.6080 C   0  0  0  0  0  0  0  0  0  0  0  0
   23.8793  -13.1996  -16.5092 C   0  0  1  0  0  0  0  0  0  0  0  0
   23.4459  -11.8442  -16.8781 C   0  0  0  0  0  0  0  0  0  0  0  0
   24.0671  -11.2487  -17.8170 O   0  0  0  0  0  0  0  0  0  0  0  0
   20.6710  -10.8625  -18.6155 C   0  0  0  0  0  0  0  0  0  0  0  0
   20.5506  -10.0513  -17.3444 C   0  0  1  0  0  0  0  0  0  0  0  0
   19.6386  -10.6553  -16.4853 O   0  0  0  0  0  0  0  0  0  0  0  0
   21.9161   -9.9235  -16.6879 C   0  0  2  0  0  0  0  0  0  0  0  0
   22.3611  -11.2116  -16.2050 N   0  0  0  0  0  0  0  0  0  0  0  0
   21.8270   -8.9320  -15.5655 C   0  0  0  0  0  0  0  0  0  0  0  0
   21.7187   -9.3407  -14.3907 O   0  0  0  0  0  0  0  0  0  0  0  0
   21.8644   -7.5481  -15.8199 N   0  0  0  0  0  0  0  0  0  0  0  0
   21.8398   -6.5464  -14.7426 C   0  0  1  0  0  0  0  0  0  0  0  0
   22.3223   -5.2277  -15.2800 C   0  0  0  0  0  0  0  0  0  0  0  0
   22.2638   -4.1479  -14.3014 C   0  0  0  0  0  0  0  0  0  0  0  0
   21.8545   -2.9831  -14.5572 O   0  0  0  0  0  0  0  0  0  0  0  0
   20.4354   -6.4627  -14.2679 C   0  0  0  0  0  0  0  0  0  0  0  0
   19.4209   -6.9398  -15.1284 O   0  0  0  0  0  0  0  0  0  0  0  0
   22.6875   -4.4008  -12.9766 O   0  0  0  0  0  0  0  0  0  0  0  0
   20.1258   -5.9926  -13.1518 O   0  0  0  0  0  0  0  0  0  0  0  0
  2  1  1  0
  3  2  1  0
  4  3  1  0
  4  5  1  0
  5  1  1  0
  5  6  1  6
  7  6  2  0
  9  8  1  6
  9 11  1  0
 10  9  1  0
 11 12  1  1
 11 13  1  0
 12  6  1  0
 13 15  1  0
 13 14  2  0
 15 16  1  0
 16 17  1  6
 17 18  1  0
 18 22  1  0
 18 19  2  0
 20 16  1  0
 20 21  1  0
 23 20  2  0
M  END
$$$$
