PTD.pdb
     RDKit          3D

 23 23  0  0  1  0  0  0  0  0999 V2000
   24.2473  -13.2937  -15.4884 N   0  0  0  0  0  0  0  0  0  0  0  0
   23.8699  -14.6442  -15.7704 C   0  0  0  0  0  0  0  0  0  0  0  0
   24.7460  -14.9876  -16.9783 C   0  0  0  0  0  0  0  0  0  0  0  0
   24.5298  -13.7169  -17.8010 C   0  0  0  0  0  0  0  0  0  0  0  0
   24.7438  -12.6777  -16.6967 C   0  0  1  0  0  0  0  0  0  0  0  0
   24.0451  -11.4164  -16.9828 C   0  0  0  0  0  0  0  0  0  0  0  0
   24.4803  -10.6899  -17.9341 O   0  0  0  0  0  0  0  0  0  0  0  0
   20.7990  -10.9020  -18.3691 C   0  0  0  0  0  0  0  0  0  0  0  0
   20.7782  -10.1812  -17.0394 C   0  0  1  0  0  0  0  0  0  0  0  0
   20.1658  -10.9808  -16.0802 O   0  0  0  0  0  0  0  0  0  0  0  0
   22.1982   -9.8263  -16.6277 C   0  0  2  0  0  0  0  0  0  0  0  0
   22.9119  -11.0151  -16.2181 N   0  0  0  0  0  0  0  0  0  0  0  0
   22.1469   -8.8218  -15.5145 C   0  0  0  0  0  0  0  0  0  0  0  0
   22.2240   -9.2110  -14.3306 O   0  0  0  0  0  0  0  0  0  0  0  0
   22.0136   -7.4474  -15.7876 N   0  0  0  0  0  0  0  0  0  0  0  0
   21.8785   -6.4404  -14.7235 C   0  0  1  0  0  0  0  0  0  0  0  0
   22.3267   -5.1036  -15.2455 C   0  0  0  0  0  0  0  0  0  0  0  0
   22.1358   -4.0166  -14.2920 C   0  0  0  0  0  0  0  0  0  0  0  0
   21.5247   -2.9454  -14.5539 O   0  0  0  0  0  0  0  0  0  0  0  0
   20.4466   -6.4222  -14.3308 C   0  0  0  0  0  0  0  0  0  0  0  0
   20.1401   -6.1738  -12.9738 O   0  0  0  0  0  0  0  0  0  0  0  0
   22.6605   -4.1513  -12.9862 O   0  0  0  0  0  0  0  0  0  0  0  0
   19.5194   -6.6156  -15.1465 O   0  0  0  0  0  0  0  0  0  0  0  0
  2  1  1  0
  3  2  1  0
  4  3  1  0
  4  5  1  0
  5  1  1  0
  5  6  1  6
  7  6  2  0
  9  8  1  6
  9 11  1  0
 10  9  1  0
 11 12  1  1
 11 13  1  0
 12  6  1  0
 13 15  1  0
 13 14  2  0
 15 16  1  0
 16 17  1  6
 17 18  1  0
 18 22  1  0
 18 19  2  0
 20 16  1  0
 20 21  1  0
 23 20  2  0
M  END
$$$$
