PTD.pdb
     RDKit          3D

 23 23  0  0  1  0  0  0  0  0999 V2000
   19.6941  -12.4143  -18.0957 N   0  0  0  0  0  0  0  0  0  0  0  0
   19.9689  -13.7836  -18.4044 C   0  0  0  0  0  0  0  0  0  0  0  0
   18.9761  -14.5307  -17.5095 C   0  0  0  0  0  0  0  0  0  0  0  0
   19.1942  -13.7557  -16.2095 C   0  0  0  0  0  0  0  0  0  0  0  0
   19.1334  -12.3308  -16.7672 C   0  0  1  0  0  0  0  0  0  0  0  0
   19.8761  -11.3781  -15.9297 C   0  0  0  0  0  0  0  0  0  0  0  0
   19.5582  -11.2829  -14.7001 O   0  0  0  0  0  0  0  0  0  0  0  0
   23.4727  -11.1160  -14.9778 C   0  0  0  0  0  0  0  0  0  0  0  0
   23.0931   -9.8271  -15.6725 C   0  0  1  0  0  0  0  0  0  0  0  0
   23.5353   -9.8552  -16.9909 O   0  0  0  0  0  0  0  0  0  0  0  0
   21.5861   -9.6353  -15.6067 C   0  0  2  0  0  0  0  0  0  0  0  0
   20.9233  -10.5813  -16.4762 N   0  0  0  0  0  0  0  0  0  0  0  0
   21.2562   -8.2252  -15.9983 C   0  0  0  0  0  0  0  0  0  0  0  0
   20.8114   -7.9922  -17.1415 O   0  0  0  0  0  0  0  0  0  0  0  0
   21.4410   -7.1624  -15.0940 N   0  0  0  0  0  0  0  0  0  0  0  0
   21.1867   -5.7605  -15.4605 C   0  0  1  0  0  0  0  0  0  0  0  0
   20.9264   -4.9610  -14.2141 C   0  0  0  0  0  0  0  0  0  0  0  0
   20.6453   -3.5543  -14.4772 C   0  0  0  0  0  0  0  0  0  0  0  0
   19.8699   -3.1455  -15.3835 O   0  0  0  0  0  0  0  0  0  0  0  0
   22.3952   -5.2793  -16.1766 C   0  0  0  0  0  0  0  0  0  0  0  0
   22.2071   -4.3979  -17.2652 O   0  0  0  0  0  0  0  0  0  0  0  0
   21.2703   -2.5700  -13.6777 O   0  0  0  0  0  0  0  0  0  0  0  0
   23.5533   -5.6218  -15.8542 O   0  0  0  0  0  0  0  0  0  0  0  0
  2  1  1  0
  3  2  1  0
  4  3  1  0
  4  5  1  0
  5  1  1  0
  5  6  1  1
  7  6  2  0
  9  8  1  6
  9 11  1  0
 10  9  1  0
 11 12  1  6
 11 13  1  0
 12  6  1  0
 13 15  1  0
 13 14  2  0
 15 16  1  0
 16 17  1  1
 17 18  1  0
 18 22  1  0
 18 19  2  0
 20 16  1  0
 20 21  1  0
 23 20  2  0
M  END
$$$$
