PTD.pdb
     RDKit          3D

 23 23  0  0  1  0  0  0  0  0999 V2000
   28.1476  -20.3231  -16.0104 N   0  0  0  0  0  0  0  0  0  0  0  0
   27.9663  -19.1122  -16.7497 C   0  0  0  0  0  0  0  0  0  0  0  0
   28.5212  -18.0535  -15.7926 C   0  0  0  0  0  0  0  0  0  0  0  0
   27.8517  -18.5232  -14.5006 C   0  0  0  0  0  0  0  0  0  0  0  0
   28.1653  -20.0189  -14.5986 C   0  0  1  0  0  0  0  0  0  0  0  0
   27.1917  -20.8365  -13.8608 C   0  0  0  0  0  0  0  0  0  0  0  0
   27.6269  -21.8171  -13.1744 O   0  0  0  0  0  0  0  0  0  0  0  0
   26.6847  -21.1106  -11.3265 C   0  0  0  0  0  0  0  0  0  0  0  0
   25.2017  -20.9747  -11.5912 C   0  0  1  0  0  0  0  0  0  0  0  0
   24.7817  -19.6889  -11.2673 O   0  0  0  0  0  0  0  0  0  0  0  0
   24.9113  -21.2920  -13.0496 C   0  0  2  0  0  0  0  0  0  0  0  0
   25.7984  -20.5424  -13.9106 N   0  0  0  0  0  0  0  0  0  0  0  0
   23.4768  -20.9657  -13.3437 C   0  0  0  0  0  0  0  0  0  0  0  0
   23.1942  -19.8890  -13.9093 O   0  0  0  0  0  0  0  0  0  0  0  0
   22.4463  -21.8575  -12.9910 N   0  0  0  0  0  0  0  0  0  0  0  0
   21.0653  -21.6984  -13.4724 C   0  0  1  0  0  0  0  0  0  0  0  0
   20.3218  -22.9914  -13.2836 C   0  0  0  0  0  0  0  0  0  0  0  0
   18.9824  -22.9783  -13.8605 C   0  0  0  0  0  0  0  0  0  0  0  0
   18.5130  -22.0233  -14.5368 O   0  0  0  0  0  0  0  0  0  0  0  0
   20.4597  -20.5985  -12.6797 C   0  0  0  0  0  0  0  0  0  0  0  0
   19.6355  -19.6740  -13.3604 O   0  0  0  0  0  0  0  0  0  0  0  0
   18.1403  -24.0963  -13.6617 O   0  0  0  0  0  0  0  0  0  0  0  0
   20.6512  -20.4653  -11.4517 O   0  0  0  0  0  0  0  0  0  0  0  0
  2  1  1  0
  3  2  1  0
  4  3  1  0
  4  5  1  0
  5  1  1  0
  5  6  1  1
  7  6  2  0
  9  8  1  6
  9 11  1  0
 10  9  1  0
 11 12  1  6
 11 13  1  0
 12  6  1  0
 13 15  1  0
 13 14  2  0
 15 16  1  0
 16 17  1  1
 17 18  1  0
 18 22  1  0
 18 19  2  0
 20 16  1  0
 20 21  1  0
 23 20  2  0
M  END
$$$$
