PTD.pdb
     RDKit          3D

 23 23  0  0  1  0  0  0  0  0999 V2000
   22.7801  -13.1949  -17.1214 N   0  0  0  0  0  0  0  0  0  0  0  0
   22.1914  -14.4852  -16.9357 C   0  0  0  0  0  0  0  0  0  0  0  0
   21.9790  -14.9627  -18.3749 C   0  0  0  0  0  0  0  0  0  0  0  0
   21.3782  -13.6865  -18.9653 C   0  0  0  0  0  0  0  0  0  0  0  0
   22.3777  -12.6703  -18.4055 C   0  0  1  0  0  0  0  0  0  0  0  0
   21.7885  -11.3296  -18.2772 C   0  0  0  0  0  0  0  0  0  0  0  0
   21.6024  -10.6502  -19.3382 O   0  0  0  0  0  0  0  0  0  0  0  0
   18.5670  -10.4942  -17.6589 C   0  0  0  0  0  0  0  0  0  0  0  0
   19.2883   -9.7427  -16.5621 C   0  0  1  0  0  0  0  0  0  0  0  0
   19.1914  -10.4471  -15.3667 O   0  0  0  0  0  0  0  0  0  0  0  0
   20.7420   -9.5339  -16.9558 C   0  0  2  0  0  0  0  0  0  0  0  0
   21.4346  -10.8022  -17.0018 N   0  0  0  0  0  0  0  0  0  0  0  0
   21.3868   -8.6068  -15.9682 C   0  0  0  0  0  0  0  0  0  0  0  0
   22.1770   -9.0666  -15.1178 O   0  0  0  0  0  0  0  0  0  0  0  0
   21.1127   -7.2262  -15.9882 N   0  0  0  0  0  0  0  0  0  0  0  0
   21.7545   -6.2803  -15.0621 C   0  0  1  0  0  0  0  0  0  0  0  0
   21.6699   -4.8920  -15.6330 C   0  0  0  0  0  0  0  0  0  0  0  0
   22.1726   -3.8633  -14.7297 C   0  0  0  0  0  0  0  0  0  0  0  0
   23.1663   -4.0147  -13.9685 O   0  0  0  0  0  0  0  0  0  0  0  0
   21.0286   -6.3860  -13.7711 C   0  0  0  0  0  0  0  0  0  0  0  0
   21.6830   -5.9196  -12.6086 O   0  0  0  0  0  0  0  0  0  0  0  0
   21.5202   -2.6098  -14.6887 O   0  0  0  0  0  0  0  0  0  0  0  0
   19.8777   -6.8653  -13.6798 O   0  0  0  0  0  0  0  0  0  0  0  0
  2  1  1  0
  3  2  1  0
  4  3  1  0
  4  5  1  0
  5  1  1  0
  5  6  1  1
  7  6  2  0
  9  8  1  6
  9 11  1  0
 10  9  1  0
 11 12  1  1
 11 13  1  0
 12  6  1  0
 13 15  1  0
 13 14  2  0
 15 16  1  0
 16 17  1  6
 17 18  1  0
 18 22  1  0
 18 19  2  0
 20 16  1  0
 20 21  1  0
 23 20  2  0
M  END
$$$$
