PTD.pdb
     RDKit          3D

 23 23  0  0  1  0  0  0  0  0999 V2000
   25.0072  -10.5314  -16.0614 N   0  0  0  0  0  0  0  0  0  0  0  0
   25.4034  -11.7875  -15.5037 C   0  0  0  0  0  0  0  0  0  0  0  0
   24.7752  -12.7930  -16.4727 C   0  0  0  0  0  0  0  0  0  0  0  0
   23.3842  -12.1703  -16.5968 C   0  0  0  0  0  0  0  0  0  0  0  0
   23.7940  -10.7124  -16.8240 C   0  0  1  0  0  0  0  0  0  0  0  0
   22.7471   -9.7720  -16.3991 C   0  0  0  0  0  0  0  0  0  0  0  0
   21.6937   -9.6834  -17.1094 O   0  0  0  0  0  0  0  0  0  0  0  0
   20.6101   -9.7143  -13.5013 C   0  0  0  0  0  0  0  0  0  0  0  0
   21.3132   -8.3751  -13.4859 C   0  0  1  0  0  0  0  0  0  0  0  0
   22.3425   -8.3947  -12.5506 O   0  0  0  0  0  0  0  0  0  0  0  0
   21.8447   -8.0605  -14.8753 C   0  0  2  0  0  0  0  0  0  0  0  0
   22.9042   -8.9800  -15.2252 N   0  0  0  0  0  0  0  0  0  0  0  0
   22.3352   -6.6430  -14.9007 C   0  0  0  0  0  0  0  0  0  0  0  0
   23.4894   -6.3985  -15.3094 O   0  0  0  0  0  0  0  0  0  0  0  0
   21.5113   -5.5859  -14.4703 N   0  0  0  0  0  0  0  0  0  0  0  0
   21.7853   -4.1815  -14.8126 C   0  0  1  0  0  0  0  0  0  0  0  0
   21.8643   -4.0414  -16.3075 C   0  0  0  0  0  0  0  0  0  0  0  0
   21.9872   -2.6581  -16.7532 C   0  0  0  0  0  0  0  0  0  0  0  0
   22.5715   -1.7532  -16.0979 O   0  0  0  0  0  0  0  0  0  0  0  0
   20.6728   -3.3779  -14.2458 C   0  0  0  0  0  0  0  0  0  0  0  0
   20.9881   -2.1155  -13.6943 O   0  0  0  0  0  0  0  0  0  0  0  0
   21.4235   -2.2863  -17.9952 O   0  0  0  0  0  0  0  0  0  0  0  0
   19.4872   -3.7738  -14.2405 O   0  0  0  0  0  0  0  0  0  0  0  0
  2  1  1  0
  3  2  1  0
  4  3  1  0
  4  5  1  0
  5  1  1  0
  5  6  1  1
  7  6  2  0
  9  8  1  6
  9 11  1  0
 10  9  1  0
 11 12  1  1
 11 13  1  0
 12  6  1  0
 13 15  1  0
 13 14  2  0
 15 16  1  0
 16 17  1  6
 17 18  1  0
 18 22  1  0
 18 19  2  0
 20 16  1  0
 20 21  1  0
 23 20  2  0
M  END
$$$$
