PTD.pdb
     RDKit          3D

 23 23  0  0  1  0  0  0  0  0999 V2000
   20.9202  -13.7422  -16.8366 N   0  0  0  0  0  0  0  0  0  0  0  0
   20.1881  -14.9709  -16.8235 C   0  0  0  0  0  0  0  0  0  0  0  0
   20.2398  -15.4030  -18.2916 C   0  0  0  0  0  0  0  0  0  0  0  0
   19.8981  -14.0649  -18.9480 C   0  0  0  0  0  0  0  0  0  0  0  0
   20.8476  -13.1608  -18.1568 C   0  0  1  0  0  0  0  0  0  0  0  0
   20.3720  -11.7708  -18.1060 C   0  0  0  0  0  0  0  0  0  0  0  0
   20.4138  -11.0812  -19.1759 O   0  0  0  0  0  0  0  0  0  0  0  0
   17.1458  -10.4015  -17.8179 C   0  0  0  0  0  0  0  0  0  0  0  0
   17.8962   -9.8176  -16.6416 C   0  0  1  0  0  0  0  0  0  0  0  0
   17.5916  -10.5318  -15.4876 O   0  0  0  0  0  0  0  0  0  0  0  0
   19.3903   -9.8469  -16.9225 C   0  0  2  0  0  0  0  0  0  0  0  0
   19.8777  -11.2078  -16.8941 N   0  0  0  0  0  0  0  0  0  0  0  0
   20.0955   -9.0037  -15.9016 C   0  0  0  0  0  0  0  0  0  0  0  0
   20.6931   -9.5556  -14.9544 O   0  0  0  0  0  0  0  0  0  0  0  0
   20.0923   -7.5993  -15.9981 N   0  0  0  0  0  0  0  0  0  0  0  0
   20.7888   -6.7397  -15.0284 C   0  0  1  0  0  0  0  0  0  0  0  0
   21.6364   -5.7424  -15.7683 C   0  0  0  0  0  0  0  0  0  0  0  0
   22.2368   -4.7362  -14.8999 C   0  0  0  0  0  0  0  0  0  0  0  0
   22.7682   -4.9903  -13.7851 O   0  0  0  0  0  0  0  0  0  0  0  0
   19.7395   -6.0712  -14.2179 C   0  0  0  0  0  0  0  0  0  0  0  0
   18.3938   -6.2425  -14.6142 O   0  0  0  0  0  0  0  0  0  0  0  0
   22.2343   -3.3846  -15.3144 O   0  0  0  0  0  0  0  0  0  0  0  0
   20.0021   -5.3741  -13.2141 O   0  0  0  0  0  0  0  0  0  0  0  0
  2  1  1  0
  3  2  1  0
  4  3  1  0
  4  5  1  0
  5  1  1  0
  5  6  1  1
  7  6  2  0
  9  8  1  6
  9 11  1  0
 10  9  1  0
 11 12  1  1
 11 13  1  0
 12  6  1  0
 13 15  1  0
 13 14  2  0
 15 16  1  0
 16 17  1  6
 17 18  1  0
 18 22  1  0
 18 19  2  0
 20 16  1  0
 20 21  1  0
 23 20  2  0
M  END
$$$$
