PTD.pdb
     RDKit          3D

 23 23  0  0  1  0  0  0  0  0999 V2000
   25.5286  -11.9773  -16.3113 N   0  0  0  0  0  0  0  0  0  0  0  0
   25.5374  -13.3411  -15.8800 C   0  0  0  0  0  0  0  0  0  0  0  0
   25.4210  -14.1070  -17.2008 C   0  0  0  0  0  0  0  0  0  0  0  0
   24.3036  -13.2922  -17.8533 C   0  0  0  0  0  0  0  0  0  0  0  0
   24.8418  -11.8851  -17.5786 C   0  0  1  0  0  0  0  0  0  0  0  0
   23.7682  -10.8820  -17.5359 C   0  0  0  0  0  0  0  0  0  0  0  0
   23.1491  -10.6169  -18.6169 O   0  0  0  0  0  0  0  0  0  0  0  0
   20.5827  -11.0634  -16.1417 C   0  0  0  0  0  0  0  0  0  0  0  0
   21.1754   -9.8384  -15.4814 C   0  0  1  0  0  0  0  0  0  0  0  0
   21.6168  -10.1603  -14.2023 O   0  0  0  0  0  0  0  0  0  0  0  0
   22.3147   -9.2996  -16.3320 C   0  0  2  0  0  0  0  0  0  0  0  0
   23.4276  -10.2225  -16.3196 N   0  0  0  0  0  0  0  0  0  0  0  0
   22.7259   -7.9572  -15.8032 C   0  0  0  0  0  0  0  0  0  0  0  0
   23.7140   -7.8710  -15.0447 O   0  0  0  0  0  0  0  0  0  0  0  0
   22.0129   -6.7945  -16.1514 N   0  0  0  0  0  0  0  0  0  0  0  0
   22.4226   -5.4538  -15.7054 C   0  0  1  0  0  0  0  0  0  0  0  0
   21.7540   -4.4184  -16.5665 C   0  0  0  0  0  0  0  0  0  0  0  0
   22.0393   -3.0494  -16.1523 C   0  0  0  0  0  0  0  0  0  0  0  0
   23.1820   -2.6358  -15.8164 O   0  0  0  0  0  0  0  0  0  0  0  0
   22.0115   -5.3313  -14.2839 C   0  0  0  0  0  0  0  0  0  0  0  0
   21.2435   -6.3797  -13.7288 O   0  0  0  0  0  0  0  0  0  0  0  0
   20.9832   -2.1103  -16.1180 O   0  0  0  0  0  0  0  0  0  0  0  0
   22.3170   -4.3488  -13.5740 O   0  0  0  0  0  0  0  0  0  0  0  0
  2  1  1  0
  3  2  1  0
  4  3  1  0
  4  5  1  0
  5  1  1  0
  5  6  1  1
  7  6  2  0
  9  8  1  6
  9 11  1  0
 10  9  1  0
 11 12  1  1
 11 13  1  0
 12  6  1  0
 13 15  1  0
 13 14  2  0
 15 16  1  0
 16 17  1  6
 17 18  1  0
 18 22  1  0
 18 19  2  0
 20 16  1  0
 20 21  1  0
 23 20  2  0
M  END
$$$$
