PTD.pdb
     RDKit          3D

 23 23  0  0  1  0  0  0  0  0999 V2000
   22.2275  -11.2767  -14.8295 N   0  0  0  0  0  0  0  0  0  0  0  0
   22.5724  -12.6144  -15.2002 C   0  0  0  0  0  0  0  0  0  0  0  0
   24.0584  -12.6859  -14.8376 C   0  0  0  0  0  0  0  0  0  0  0  0
   24.5156  -11.3542  -15.4341 C   0  0  0  0  0  0  0  0  0  0  0  0
   23.4115  -10.4509  -14.8771 C   0  0  1  0  0  0  0  0  0  0  0  0
   23.2013   -9.2583  -15.7103 C   0  0  0  0  0  0  0  0  0  0  0  0
   24.1938   -8.4879  -15.9195 O   0  0  0  0  0  0  0  0  0  0  0  0
   22.0255   -9.0254  -19.2880 C   0  0  0  0  0  0  0  0  0  0  0  0
   21.0954   -8.2014  -18.4255 C   0  0  1  0  0  0  0  0  0  0  0  0
   19.9345   -8.9215  -18.1642 O   0  0  0  0  0  0  0  0  0  0  0  0
   21.8010   -7.8173  -17.1345 C   0  0  2  0  0  0  0  0  0  0  0  0
   21.9231   -8.9694  -16.2696 N   0  0  0  0  0  0  0  0  0  0  0  0
   21.0266   -6.7223  -16.4623 C   0  0  0  0  0  0  0  0  0  0  0  0
   20.3655   -6.9779  -15.4344 O   0  0  0  0  0  0  0  0  0  0  0  0
   21.0361   -5.4114  -16.9750 N   0  0  0  0  0  0  0  0  0  0  0  0
   20.2143   -4.3337  -16.4027 C   0  0  1  0  0  0  0  0  0  0  0  0
   20.7112   -3.0082  -16.9092 C   0  0  0  0  0  0  0  0  0  0  0  0
   19.9507   -1.8724  -16.4005 C   0  0  0  0  0  0  0  0  0  0  0  0
   19.0001   -1.9692  -15.5779 O   0  0  0  0  0  0  0  0  0  0  0  0
   18.8148   -4.5915  -16.8266 C   0  0  0  0  0  0  0  0  0  0  0  0
   17.7865   -4.3329  -15.8923 O   0  0  0  0  0  0  0  0  0  0  0  0
   20.2832   -0.5719  -16.8440 O   0  0  0  0  0  0  0  0  0  0  0  0
   18.5209   -5.0220  -17.9628 O   0  0  0  0  0  0  0  0  0  0  0  0
  2  1  1  0
  3  2  1  0
  4  3  1  0
  4  5  1  0
  5  1  1  0
  5  6  1  6
  7  6  2  0
  9  8  1  6
  9 11  1  0
 10  9  1  0
 11 12  1  1
 11 13  1  0
 12  6  1  0
 13 15  1  0
 13 14  2  0
 15 16  1  0
 16 17  1  6
 17 18  1  0
 18 22  1  0
 18 19  2  0
 20 16  1  0
 20 21  1  0
 23 20  2  0
M  END
$$$$
