PTD.pdb
     RDKit          3D

 23 23  0  0  1  0  0  0  0  0999 V2000
   19.8059  -11.3966  -18.1505 N   0  0  0  0  0  0  0  0  0  0  0  0
   20.0997  -12.7280  -18.5830 C   0  0  0  0  0  0  0  0  0  0  0  0
   19.0268  -13.5532  -17.8671 C   0  0  0  0  0  0  0  0  0  0  0  0
   19.1321  -12.9286  -16.4754 C   0  0  0  0  0  0  0  0  0  0  0  0
   19.1292  -11.4505  -16.8756 C   0  0  1  0  0  0  0  0  0  0  0  0
   19.7994  -10.6066  -15.8758 C   0  0  0  0  0  0  0  0  0  0  0  0
   19.3509  -10.6145  -14.6838 O   0  0  0  0  0  0  0  0  0  0  0  0
   23.1728  -10.7754  -14.6149 C   0  0  0  0  0  0  0  0  0  0  0  0
   23.0163   -9.3442  -15.0789 C   0  0  1  0  0  0  0  0  0  0  0  0
   23.6645   -9.1710  -16.2972 O   0  0  0  0  0  0  0  0  0  0  0  0
   21.5392   -9.0023  -15.1936 C   0  0  2  0  0  0  0  0  0  0  0  0
   20.9202   -9.8004  -16.2282 N   0  0  0  0  0  0  0  0  0  0  0  0
   21.3988   -7.5384  -15.4900 C   0  0  0  0  0  0  0  0  0  0  0  0
   21.4461   -7.1429  -16.6733 O   0  0  0  0  0  0  0  0  0  0  0  0
   21.2139   -6.6059  -14.4519 N   0  0  0  0  0  0  0  0  0  0  0  0
   21.1263   -5.1580  -14.6975 C   0  0  1  0  0  0  0  0  0  0  0  0
   19.7093   -4.7032  -14.4841 C   0  0  0  0  0  0  0  0  0  0  0  0
   19.5373   -3.2615  -14.6221 C   0  0  0  0  0  0  0  0  0  0  0  0
   20.3235   -2.5138  -15.2643 O   0  0  0  0  0  0  0  0  0  0  0  0
   22.0596   -4.5050  -13.7449 C   0  0  0  0  0  0  0  0  0  0  0  0
   22.3120   -3.1247  -13.9133 O   0  0  0  0  0  0  0  0  0  0  0  0
   18.4259   -2.6425  -14.0055 O   0  0  0  0  0  0  0  0  0  0  0  0
   22.6198   -5.1247  -12.8150 O   0  0  0  0  0  0  0  0  0  0  0  0
  2  1  1  0
  3  2  1  0
  4  3  1  0
  4  5  1  0
  5  1  1  0
  5  6  1  1
  7  6  2  0
  9  8  1  6
  9 11  1  0
 10  9  1  0
 11 12  1  6
 11 13  1  0
 12  6  1  0
 13 15  1  0
 13 14  2  0
 15 16  1  0
 16 17  1  1
 17 18  1  0
 18 22  1  0
 18 19  2  0
 20 16  1  0
 20 21  1  0
 23 20  2  0
M  END
$$$$
