PTD.pdb
     RDKit          3D

 23 23  0  0  1  0  0  0  0  0999 V2000
   14.2545  -22.8334    0.0181 N   0  0  0  0  0  0  0  0  0  0  0  0
   15.0758  -23.0165   -1.1385 C   0  0  0  0  0  0  0  0  0  0  0  0
   15.7593  -24.3562   -0.8508 C   0  0  0  0  0  0  0  0  0  0  0  0
   16.1568  -24.1151    0.6059 C   0  0  0  0  0  0  0  0  0  0  0  0
   14.8289  -23.5585    1.1274 C   0  0  1  0  0  0  0  0  0  0  0  0
   15.0164  -22.6891    2.2978 C   0  0  0  0  0  0  0  0  0  0  0  0
   15.0255  -21.4286    2.1158 O   0  0  0  0  0  0  0  0  0  0  0  0
   12.7284  -22.3937    5.1316 C   0  0  0  0  0  0  0  0  0  0  0  0
   14.0834  -22.7323    5.7122 C   0  0  1  0  0  0  0  0  0  0  0  0
   14.1445  -24.0910    6.0033 O   0  0  0  0  0  0  0  0  0  0  0  0
   15.1743  -22.3354    4.7301 C   0  0  2  0  0  0  0  0  0  0  0  0
   15.1839  -23.2391    3.6015 N   0  0  0  0  0  0  0  0  0  0  0  0
   16.4968  -22.3485    5.4383 C   0  0  0  0  0  0  0  0  0  0  0  0
   17.2889  -23.2941    5.2451 O   0  0  0  0  0  0  0  0  0  0  0  0
   16.8559  -21.3088    6.3166 N   0  0  0  0  0  0  0  0  0  0  0  0
   18.1205  -21.3118    7.0685 C   0  0  1  0  0  0  0  0  0  0  0  0
   18.4894  -19.8985    7.4248 C   0  0  0  0  0  0  0  0  0  0  0  0
   19.6483  -19.8076    8.3055 C   0  0  0  0  0  0  0  0  0  0  0  0
   19.5816  -19.5504    9.5380 O   0  0  0  0  0  0  0  0  0  0  0  0
   17.8962  -22.1406    8.2799 C   0  0  0  0  0  0  0  0  0  0  0  0
   18.9382  -23.0033    8.6886 O   0  0  0  0  0  0  0  0  0  0  0  0
   20.9375  -20.0176    7.7646 O   0  0  0  0  0  0  0  0  0  0  0  0
   16.8348  -22.1012    8.9391 O   0  0  0  0  0  0  0  0  0  0  0  0
  2  1  1  0
  3  2  1  0
  4  3  1  0
  4  5  1  0
  5  1  1  0
  5  6  1  1
  7  6  2  0
  9  8  1  6
  9 11  1  0
 10  9  1  0
 11 12  1  6
 11 13  1  0
 12  6  1  0
 13 15  1  0
 13 14  2  0
 15 16  1  0
 16 17  1  1
 17 18  1  0
 18 22  1  0
 18 19  2  0
 20 16  1  0
 20 21  1  0
 23 20  2  0
M  END
$$$$
