PTD.pdb
     RDKit          3D

 23 23  0  0  1  0  0  0  0  0999 V2000
   27.1329  -13.2783  -16.8765 N   0  0  0  0  0  0  0  0  0  0  0  0
   28.4754  -13.6116  -17.2405 C   0  0  0  0  0  0  0  0  0  0  0  0
   29.2992  -12.8656  -16.1872 C   0  0  0  0  0  0  0  0  0  0  0  0
   28.5779  -11.5179  -16.2284 C   0  0  0  0  0  0  0  0  0  0  0  0
   27.1319  -12.0185  -16.1700 C   0  0  1  0  0  0  0  0  0  0  0  0
   26.1924  -11.0639  -16.7757 C   0  0  0  0  0  0  0  0  0  0  0  0
   26.3694  -10.7360  -17.9936 O   0  0  0  0  0  0  0  0  0  0  0  0
   23.0608  -11.3978  -17.9427 C   0  0  0  0  0  0  0  0  0  0  0  0
   22.8764  -10.2707  -16.9509 C   0  0  1  0  0  0  0  0  0  0  0  0
   22.3240  -10.7651  -15.7741 O   0  0  0  0  0  0  0  0  0  0  0  0
   24.2145   -9.5992  -16.6852 C   0  0  2  0  0  0  0  0  0  0  0  0
   25.1125  -10.5186  -16.0230 N   0  0  0  0  0  0  0  0  0  0  0  0
   23.9882   -8.3747  -15.8484 C   0  0  0  0  0  0  0  0  0  0  0  0
   24.2925   -8.3922  -14.6376 O   0  0  0  0  0  0  0  0  0  0  0  0
   23.4382   -7.2073  -16.4105 N   0  0  0  0  0  0  0  0  0  0  0  0
   23.2887   -5.9583  -15.6476 C   0  0  1  0  0  0  0  0  0  0  0  0
   23.0718   -4.8168  -16.6018 C   0  0  0  0  0  0  0  0  0  0  0  0
   22.8803   -3.5339  -15.9351 C   0  0  0  0  0  0  0  0  0  0  0  0
   23.4471   -3.2050  -14.8580 O   0  0  0  0  0  0  0  0  0  0  0  0
   22.1250   -6.1450  -14.7445 C   0  0  0  0  0  0  0  0  0  0  0  0
   22.1220   -5.4378  -13.5210 O   0  0  0  0  0  0  0  0  0  0  0  0
   22.0089   -2.5840  -16.5156 O   0  0  0  0  0  0  0  0  0  0  0  0
   21.1643   -6.8938  -15.0257 O   0  0  0  0  0  0  0  0  0  0  0  0
  2  1  1  0
  3  2  1  0
  4  3  1  0
  4  5  1  0
  5  1  1  0
  5  6  1  6
  7  6  2  0
  9  8  1  6
  9 11  1  0
 10  9  1  0
 11 12  1  1
 11 13  1  0
 12  6  1  0
 13 15  1  0
 13 14  2  0
 15 16  1  0
 16 17  1  6
 17 18  1  0
 18 22  1  0
 18 19  2  0
 20 16  1  0
 20 21  1  0
 23 20  2  0
M  END
$$$$
