QFT.pdb
     RDKit          3D

 28 28  0  0  1  0  0  0  0  0999 V2000
   26.2601  -19.1995  -16.4018 N   0  0  0  0  0  0  0  0  0  0  0  0
   27.4593  -18.4311  -16.5449 C   0  0  0  0  0  0  0  0  0  0  0  0
   27.7709  -18.1375  -17.7219 O   0  0  0  0  0  0  0  0  0  0  0  0
   28.1982  -18.0695  -15.3281 C   0  0  0  0  0  0  0  0  0  0  0  0
   27.5462  -18.5405  -14.0854 C   0  0  0  0  0  0  0  0  0  0  0  0
   28.1059  -19.7790  -13.4557 C   0  0  2  0  0  0  0  0  0  0  0  0
   28.8587  -20.6105  -14.3494 N   0  0  0  0  0  0  0  0  0  0  0  0
   26.9577  -20.5600  -12.8630 C   0  0  0  0  0  0  0  0  0  0  0  0
   26.5501  -21.5662  -13.4757 O   0  0  0  0  0  0  0  0  0  0  0  0
   26.3543  -20.1631  -11.6397 N   0  0  0  0  0  0  0  0  0  0  0  0
   25.2453  -20.9172  -11.0891 C   0  0  1  0  0  0  0  0  0  0  0  0
   25.0894  -20.6633   -9.6056 C   0  0  0  0  0  0  0  0  0  0  0  0
   26.3709  -20.7731   -8.8745 C   0  0  0  0  0  0  0  0  0  0  0  0
   27.3505  -21.6888   -9.2076 C   0  0  0  0  0  0  0  0  0  0  0  0
   28.5390  -21.7768   -8.5145 C   0  0  0  0  0  0  0  0  0  0  0  0
   28.7752  -20.9322   -7.4521 C   0  0  0  0  0  0  0  0  0  0  0  0
   27.8194  -20.0086   -7.0946 C   0  0  0  0  0  0  0  0  0  0  0  0
   26.6323  -19.9425   -7.8103 C   0  0  0  0  0  0  0  0  0  0  0  0
   23.9820  -20.4885  -11.7382 C   0  0  0  0  0  0  0  0  0  0  0  0
   23.5280  -19.3227  -11.6245 O   0  0  0  0  0  0  0  0  0  0  0  0
   23.2018  -21.3176  -15.5072 C   0  0  0  0  0  0  0  0  0  0  0  0
   22.0313  -21.6229  -14.6306 C   0  0  1  0  0  0  0  0  0  0  0  0
   21.9384  -23.0067  -14.5179 O   0  0  0  0  0  0  0  0  0  0  0  0
   22.0952  -20.9580  -13.2707 C   0  0  2  0  0  0  0  0  0  0  0  0
   23.2461  -21.4141  -12.5193 N   0  0  0  0  0  0  0  0  0  0  0  0
   20.8473  -21.1789  -12.4983 C   0  0  0  0  0  0  0  0  0  0  0  0
   20.8583  -21.7721  -11.3918 O   0  0  0  0  0  0  0  0  0  0  0  0
   19.6023  -20.7375  -12.9655 O   0  0  0  0  0  0  0  0  0  0  0  0
  2  1  1  0
  2  3  2  0
  4  5  1  0
  4  2  1  0
  5  6  1  0
  6  8  1  0
  6  7  1  6
  8  9  2  0
 10 11  1  0
 10  8  1  0
 11 12  1  1
 13 12  1  0
 14 13  2  0
 15 14  1  0
 16 17  1  0
 16 15  2  0
 17 18  2  0
 18 13  1  0
 19 20  2  0
 19 11  1  0
 22 21  1  6
 22 24  1  0
 23 22  1  0
 24 26  1  0
 24 25  1  1
 25 19  1  0
 26 28  1  0
 27 26  2  0
M  END
$$$$
