QFT.pdb
     RDKit          3D

 28 28  0  0  1  0  0  0  0  0999 V2000
   26.9350  -23.0162  -19.3151 N   0  0  0  0  0  0  0  0  0  0  0  0
   26.3331  -21.9433  -20.0470 C   0  0  0  0  0  0  0  0  0  0  0  0
   26.4879  -21.9881  -21.2890 O   0  0  0  0  0  0  0  0  0  0  0  0
   25.6100  -20.9114  -19.2921 C   0  0  0  0  0  0  0  0  0  0  0  0
   25.6183  -21.1419  -17.8299 C   0  0  0  0  0  0  0  0  0  0  0  0
   26.0211  -19.9868  -16.9656 C   0  0  2  0  0  0  0  0  0  0  0  0
   27.1445  -19.2424  -17.4561 N   0  0  0  0  0  0  0  0  0  0  0  0
   26.3145  -20.5191  -15.5835 C   0  0  0  0  0  0  0  0  0  0  0  0
   26.1798  -21.7418  -15.3813 O   0  0  0  0  0  0  0  0  0  0  0  0
   26.7335  -19.6539  -14.5376 N   0  0  0  0  0  0  0  0  0  0  0  0
   26.7771  -20.1254  -13.1673 C   0  0  1  0  0  0  0  0  0  0  0  0
   27.6597  -19.2448  -12.3099 C   0  0  0  0  0  0  0  0  0  0  0  0
   27.7551  -19.7260  -10.9142 C   0  0  0  0  0  0  0  0  0  0  0  0
   28.5020  -20.8294  -10.5488 C   0  0  0  0  0  0  0  0  0  0  0  0
   28.5792  -21.2635   -9.2426 C   0  0  0  0  0  0  0  0  0  0  0  0
   27.8959  -20.5874   -8.2558 C   0  0  0  0  0  0  0  0  0  0  0  0
   27.1426  -19.4840   -8.5868 C   0  0  0  0  0  0  0  0  0  0  0  0
   27.0832  -19.0698   -9.9099 C   0  0  0  0  0  0  0  0  0  0  0  0
   25.4150  -20.0769  -12.5816 C   0  0  0  0  0  0  0  0  0  0  0  0
   24.6920  -19.0512  -12.6413 O   0  0  0  0  0  0  0  0  0  0  0  0
   22.3231  -21.4974  -13.5142 C   0  0  0  0  0  0  0  0  0  0  0  0
   22.5894  -22.0121  -12.1373 C   0  0  1  0  0  0  0  0  0  0  0  0
   23.0317  -23.3260  -12.2565 O   0  0  0  0  0  0  0  0  0  0  0  0
   23.5668  -21.1667  -11.3464 C   0  0  2  0  0  0  0  0  0  0  0  0
   24.8926  -21.2198  -11.9264 N   0  0  0  0  0  0  0  0  0  0  0  0
   23.6053  -21.5720   -9.9192 C   0  0  0  0  0  0  0  0  0  0  0  0
   24.6251  -22.1052   -9.4172 O   0  0  0  0  0  0  0  0  0  0  0  0
   22.5095  -21.3796   -9.0676 O   0  0  0  0  0  0  0  0  0  0  0  0
  2  1  1  0
  2  3  2  0
  4  5  1  0
  4  2  1  0
  5  6  1  0
  6  8  1  0
  6  7  1  6
  8  9  2  0
 10 11  1  0
 10  8  1  0
 11 12  1  1
 13 12  1  0
 14 13  2  0
 15 14  1  0
 16 17  1  0
 16 15  2  0
 17 18  2  0
 18 13  1  0
 19 20  2  0
 19 11  1  0
 22 21  1  6
 22 24  1  0
 23 22  1  0
 24 26  1  0
 24 25  1  6
 25 19  1  0
 26 28  1  0
 27 26  2  0
M  END
$$$$
