QFT.pdb
     RDKit          3D

 28 28  0  0  1  0  0  0  0  0999 V2000
   27.1776  -17.0619  -14.1631 N   0  0  0  0  0  0  0  0  0  0  0  0
   28.2379  -17.6959  -14.8861 C   0  0  0  0  0  0  0  0  0  0  0  0
   28.7876  -16.9891  -15.7617 O   0  0  0  0  0  0  0  0  0  0  0  0
   28.5731  -19.0848  -14.5454 C   0  0  0  0  0  0  0  0  0  0  0  0
   27.7590  -19.6281  -13.4349 C   0  0  0  0  0  0  0  0  0  0  0  0
   28.4936  -20.3553  -12.3508 C   0  0  2  0  0  0  0  0  0  0  0  0
   29.3212  -21.4312  -12.8138 N   0  0  0  0  0  0  0  0  0  0  0  0
   27.4750  -20.8718  -11.3633 C   0  0  0  0  0  0  0  0  0  0  0  0
   27.0452  -22.0325  -11.5116 O   0  0  0  0  0  0  0  0  0  0  0  0
   27.0151  -20.0606  -10.2915 N   0  0  0  0  0  0  0  0  0  0  0  0
   25.8043  -20.4085   -9.5741 C   0  0  1  0  0  0  0  0  0  0  0  0
   25.6370  -19.5601   -8.3324 C   0  0  0  0  0  0  0  0  0  0  0  0
   26.5996  -19.9184   -7.2677 C   0  0  0  0  0  0  0  0  0  0  0  0
   26.7037  -21.1937   -6.7462 C   0  0  0  0  0  0  0  0  0  0  0  0
   27.6070  -21.5092   -5.7537 C   0  0  0  0  0  0  0  0  0  0  0  0
   28.4414  -20.5339   -5.2532 C   0  0  0  0  0  0  0  0  0  0  0  0
   28.3629  -19.2533   -5.7514 C   0  0  0  0  0  0  0  0  0  0  0  0
   27.4440  -18.9644   -6.7504 C   0  0  0  0  0  0  0  0  0  0  0  0
   24.6249  -20.1531  -10.4369 C   0  0  0  0  0  0  0  0  0  0  0  0
   24.2866  -18.9960  -10.7903 O   0  0  0  0  0  0  0  0  0  0  0  0
   24.0936  -22.0126  -13.7565 C   0  0  0  0  0  0  0  0  0  0  0  0
   22.8242  -22.0309  -12.9691 C   0  0  1  0  0  0  0  0  0  0  0  0
   22.6474  -23.3231  -12.4842 O   0  0  0  0  0  0  0  0  0  0  0  0
   22.7823  -21.0081  -11.8522 C   0  0  2  0  0  0  0  0  0  0  0  0
   23.8382  -21.2417  -10.8892 N   0  0  0  0  0  0  0  0  0  0  0  0
   21.4588  -20.9903  -11.1807 C   0  0  0  0  0  0  0  0  0  0  0  0
   21.3432  -21.2345   -9.9546 O   0  0  0  0  0  0  0  0  0  0  0  0
   20.2800  -20.7011  -11.8806 O   0  0  0  0  0  0  0  0  0  0  0  0
  2  1  1  0
  2  3  2  0
  4  5  1  0
  4  2  1  0
  5  6  1  0
  6  8  1  0
  6  7  1  6
  8  9  2  0
 10 11  1  0
 10  8  1  0
 11 12  1  1
 13 12  1  0
 14 13  2  0
 15 14  1  0
 16 17  1  0
 16 15  2  0
 17 18  2  0
 18 13  1  0
 19 20  2  0
 19 11  1  0
 22 21  1  1
 22 24  1  0
 23 22  1  0
 24 26  1  0
 24 25  1  1
 25 19  1  0
 26 28  1  0
 27 26  2  0
M  END
$$$$
