QFT.pdb
     RDKit          3D

 28 28  0  0  1  0  0  0  0  0999 V2000
   22.0881   -7.7606  -21.9430 N   0  0  0  0  0  0  0  0  0  0  0  0
   22.4549   -9.1435  -21.9882 C   0  0  0  0  0  0  0  0  0  0  0  0
   23.0086   -9.5172  -23.0476 O   0  0  0  0  0  0  0  0  0  0  0  0
   22.1520   -9.9778  -20.8179 C   0  0  0  0  0  0  0  0  0  0  0  0
   21.5883   -9.2123  -19.6832 C   0  0  0  0  0  0  0  0  0  0  0  0
   21.3456   -9.9672  -18.4124 C   0  0  2  0  0  0  0  0  0  0  0  0
   20.6383  -11.2032  -18.5827 N   0  0  0  0  0  0  0  0  0  0  0  0
   20.5895   -9.0619  -17.4699 C   0  0  0  0  0  0  0  0  0  0  0  0
   19.3916   -8.8212  -17.7171 O   0  0  0  0  0  0  0  0  0  0  0  0
   21.2216   -8.4969  -16.3301 N   0  0  0  0  0  0  0  0  0  0  0  0
   20.4862   -7.6172  -15.4429 C   0  0  1  0  0  0  0  0  0  0  0  0
   20.1265   -8.3152  -14.1494 C   0  0  0  0  0  0  0  0  0  0  0  0
   19.0591   -9.3239  -14.3279 C   0  0  0  0  0  0  0  0  0  0  0  0
   17.7142   -9.0086  -14.2986 C   0  0  0  0  0  0  0  0  0  0  0  0
   16.7331   -9.9624  -14.4668 C   0  0  0  0  0  0  0  0  0  0  0  0
   17.0863  -11.2781  -14.6720 C   0  0  0  0  0  0  0  0  0  0  0  0
   18.4178  -11.6252  -14.7066 C   0  0  0  0  0  0  0  0  0  0  0  0
   19.3839  -10.6440  -14.5342 C   0  0  0  0  0  0  0  0  0  0  0  0
   21.3311   -6.4511  -15.0868 C   0  0  0  0  0  0  0  0  0  0  0  0
   22.5062   -6.5756  -14.6603 O   0  0  0  0  0  0  0  0  0  0  0  0
   22.3083   -3.7876  -17.4666 C   0  0  0  0  0  0  0  0  0  0  0  0
   21.7178   -3.1220  -16.2666 C   0  0  1  0  0  0  0  0  0  0  0  0
   20.4442   -2.6811  -16.6130 O   0  0  0  0  0  0  0  0  0  0  0  0
   21.6847   -4.0013  -15.0333 C   0  0  2  0  0  0  0  0  0  0  0  0
   20.8112   -5.1400  -15.2262 N   0  0  0  0  0  0  0  0  0  0  0  0
   21.2821   -3.2334  -13.8287 C   0  0  0  0  0  0  0  0  0  0  0  0
   20.2559   -3.5362  -13.1718 O   0  0  0  0  0  0  0  0  0  0  0  0
   22.0253   -2.1383  -13.3691 O   0  0  0  0  0  0  0  0  0  0  0  0
  2  1  1  0
  2  3  2  0
  4  5  1  0
  4  2  1  0
  5  6  1  0
  6  8  1  0
  6  7  1  6
  8  9  2  0
 10 11  1  0
 10  8  1  0
 11 12  1  1
 13 12  1  0
 14 13  2  0
 15 14  1  0
 16 17  1  0
 16 15  2  0
 17 18  2  0
 18 13  1  0
 19 20  2  0
 19 11  1  0
 22 21  1  6
 22 24  1  0
 23 22  1  0
 24 26  1  0
 24 25  1  6
 25 19  1  0
 26 28  1  0
 27 26  2  0
M  END
$$$$
