QFT.pdb
     RDKit          3D

 28 28  0  0  1  0  0  0  0  0999 V2000
   27.3248  -20.1377  -16.2178 N   0  0  0  0  0  0  0  0  0  0  0  0
   27.3025  -18.8094  -15.6849 C   0  0  0  0  0  0  0  0  0  0  0  0
   27.3359  -17.8899  -16.5346 O   0  0  0  0  0  0  0  0  0  0  0  0
   27.2477  -18.6506  -14.2257 C   0  0  0  0  0  0  0  0  0  0  0  0
   27.2193  -19.9389  -13.4972 C   0  0  0  0  0  0  0  0  0  0  0  0
   28.4590  -20.3192  -12.7475 C   0  0  2  0  0  0  0  0  0  0  0  0
   29.1947  -21.4041  -13.3294 N   0  0  0  0  0  0  0  0  0  0  0  0
   28.0607  -20.6621  -11.3321 C   0  0  0  0  0  0  0  0  0  0  0  0
   27.5465  -21.7773  -11.1177 O   0  0  0  0  0  0  0  0  0  0  0  0
   28.2644  -19.7420  -10.2691 N   0  0  0  0  0  0  0  0  0  0  0  0
   27.8903  -20.0920   -8.9129 C   0  0  1  0  0  0  0  0  0  0  0  0
   28.6628  -19.2748   -7.9004 C   0  0  0  0  0  0  0  0  0  0  0  0
   28.3518  -19.6595   -6.5061 C   0  0  0  0  0  0  0  0  0  0  0  0
   27.4538  -18.9662   -5.7174 C   0  0  0  0  0  0  0  0  0  0  0  0
   27.1764  -19.3395   -4.4196 C   0  0  0  0  0  0  0  0  0  0  0  0
   27.8057  -20.4370   -3.8743 C   0  0  0  0  0  0  0  0  0  0  0  0
   28.7059  -21.1492   -4.6337 C   0  0  0  0  0  0  0  0  0  0  0  0
   28.9656  -20.7505   -5.9373 C   0  0  0  0  0  0  0  0  0  0  0  0
   26.4517  -19.7971   -8.7024 C   0  0  0  0  0  0  0  0  0  0  0  0
   25.9592  -18.6606   -8.9122 O   0  0  0  0  0  0  0  0  0  0  0  0
   24.1715  -20.0393  -10.7381 C   0  0  0  0  0  0  0  0  0  0  0  0
   23.5922  -20.8986   -9.6622 C   0  0  1  0  0  0  0  0  0  0  0  0
   23.7910  -22.2259  -10.0296 O   0  0  0  0  0  0  0  0  0  0  0  0
   24.1526  -20.6141   -8.2836 C   0  0  2  0  0  0  0  0  0  0  0  0
   25.5851  -20.8225   -8.2483 N   0  0  0  0  0  0  0  0  0  0  0  0
   23.4807  -21.4330   -7.2440 C   0  0  0  0  0  0  0  0  0  0  0  0
   24.1088  -22.2964   -6.5833 O   0  0  0  0  0  0  0  0  0  0  0  0
   22.1189  -21.2821   -6.9516 O   0  0  0  0  0  0  0  0  0  0  0  0
  2  1  1  0
  2  3  2  0
  4  5  1  0
  4  2  1  0
  5  6  1  0
  6  8  1  0
  6  7  1  6
  8  9  2  0
 10 11  1  0
 10  8  1  0
 11 12  1  1
 13 12  1  0
 14 13  2  0
 15 14  1  0
 16 17  1  0
 16 15  2  0
 17 18  2  0
 18 13  1  0
 19 20  2  0
 19 11  1  0
 22 21  1  6
 22 24  1  0
 23 22  1  0
 24 26  1  0
 24 25  1  6
 25 19  1  0
 26 28  1  0
 27 26  2  0
M  END
$$$$
