QFT.pdb
     RDKit          3D

 28 28  0  0  1  0  0  0  0  0999 V2000
   27.0415  -19.4833  -16.5681 N   0  0  0  0  0  0  0  0  0  0  0  0
   28.0920  -18.5600  -16.2632 C   0  0  0  0  0  0  0  0  0  0  0  0
   28.6822  -18.0724  -17.2544 O   0  0  0  0  0  0  0  0  0  0  0  0
   28.3768  -18.2789  -14.8499 C   0  0  0  0  0  0  0  0  0  0  0  0
   27.4378  -18.9453  -13.9196 C   0  0  0  0  0  0  0  0  0  0  0  0
   27.9696  -20.1086  -13.1401 C   0  0  2  0  0  0  0  0  0  0  0  0
   28.6540  -21.0896  -13.9314 N   0  0  0  0  0  0  0  0  0  0  0  0
   26.8134  -20.7466  -12.4082 C   0  0  0  0  0  0  0  0  0  0  0  0
   26.5517  -21.9418  -12.6466 O   0  0  0  0  0  0  0  0  0  0  0  0
   26.0410  -20.0088  -11.4716 N   0  0  0  0  0  0  0  0  0  0  0  0
   24.8780  -20.6067  -10.8457 C   0  0  1  0  0  0  0  0  0  0  0  0
   24.6175  -20.0066   -9.4813 C   0  0  0  0  0  0  0  0  0  0  0  0
   25.7888  -20.1109   -8.5835 C   0  0  0  0  0  0  0  0  0  0  0  0
   26.6268  -19.0460   -8.3143 C   0  0  0  0  0  0  0  0  0  0  0  0
   27.7142  -19.1618   -7.4747 C   0  0  0  0  0  0  0  0  0  0  0  0
   27.9898  -20.3714   -6.8756 C   0  0  0  0  0  0  0  0  0  0  0  0
   27.1741  -21.4521   -7.1232 C   0  0  0  0  0  0  0  0  0  0  0  0
   26.0865  -21.3063   -7.9727 C   0  0  0  0  0  0  0  0  0  0  0  0
   23.6762  -20.3409  -11.6738 C   0  0  0  0  0  0  0  0  0  0  0  0
   23.3060  -19.1775  -11.9701 O   0  0  0  0  0  0  0  0  0  0  0  0
   23.0327  -22.2917  -15.0021 C   0  0  0  0  0  0  0  0  0  0  0  0
   21.7875  -22.2290  -14.1790 C   0  0  1  0  0  0  0  0  0  0  0  0
   21.5655  -23.4979  -13.6529 O   0  0  0  0  0  0  0  0  0  0  0  0
   21.8257  -21.1755  -13.0909 C   0  0  2  0  0  0  0  0  0  0  0  0
   22.9043  -21.4264  -12.1578 N   0  0  0  0  0  0  0  0  0  0  0  0
   20.5282  -21.0850  -12.3760 C   0  0  0  0  0  0  0  0  0  0  0  0
   20.4378  -21.3344  -11.1488 O   0  0  0  0  0  0  0  0  0  0  0  0
   19.3470  -20.7183  -13.0342 O   0  0  0  0  0  0  0  0  0  0  0  0
  2  1  1  0
  2  3  2  0
  4  5  1  0
  4  2  1  0
  5  6  1  0
  6  8  1  0
  6  7  1  6
  8  9  2  0
 10 11  1  0
 10  8  1  0
 11 12  1  1
 13 12  1  0
 14 13  2  0
 15 14  1  0
 16 17  1  0
 16 15  2  0
 17 18  2  0
 18 13  1  0
 19 20  2  0
 19 11  1  0
 22 21  1  1
 22 24  1  0
 23 22  1  0
 24 26  1  0
 24 25  1  1
 25 19  1  0
 26 28  1  0
 27 26  2  0
M  END
$$$$
