QFT.pdb
     RDKit          3D

 28 28  0  0  1  0  0  0  0  0999 V2000
   20.8062  -24.7977  -14.2489 N   0  0  0  0  0  0  0  0  0  0  0  0
   19.9095  -23.7292  -13.9279 C   0  0  0  0  0  0  0  0  0  0  0  0
   19.1793  -23.9235  -12.9291 O   0  0  0  0  0  0  0  0  0  0  0  0
   19.9250  -22.5336  -14.7810 C   0  0  0  0  0  0  0  0  0  0  0  0
   21.0463  -21.6149  -14.4812 C   0  0  0  0  0  0  0  0  0  0  0  0
   21.1161  -21.0646  -13.0898 C   0  0  2  0  0  0  0  0  0  0  0  0
   20.1507  -20.0423  -12.8073 N   0  0  0  0  0  0  0  0  0  0  0  0
   22.5126  -20.5356  -12.8675 C   0  0  0  0  0  0  0  0  0  0  0  0
   22.7457  -19.3457  -13.1565 O   0  0  0  0  0  0  0  0  0  0  0  0
   23.5376  -21.3677  -12.3431 N   0  0  0  0  0  0  0  0  0  0  0  0
   24.8864  -20.8604  -12.1845 C   0  0  1  0  0  0  0  0  0  0  0  0
   25.7570  -21.8386  -11.4264 C   0  0  0  0  0  0  0  0  0  0  0  0
   27.0917  -21.2832  -11.1121 C   0  0  0  0  0  0  0  0  0  0  0  0
   28.1929  -21.4663  -11.9262 C   0  0  0  0  0  0  0  0  0  0  0  0
   29.4296  -20.9411  -11.6171 C   0  0  0  0  0  0  0  0  0  0  0  0
   29.5915  -20.2069  -10.4626 C   0  0  0  0  0  0  0  0  0  0  0  0
   28.5141  -20.0062   -9.6300 C   0  0  0  0  0  0  0  0  0  0  0  0
   27.2811  -20.5468   -9.9664 C   0  0  0  0  0  0  0  0  0  0  0  0
   25.5061  -20.6711  -13.5190 C   0  0  0  0  0  0  0  0  0  0  0  0
   25.6200  -21.6081  -14.3480 O   0  0  0  0  0  0  0  0  0  0  0  0
   24.6778  -17.7005  -16.1464 C   0  0  0  0  0  0  0  0  0  0  0  0
   26.1146  -17.8149  -15.7537 C   0  0  1  0  0  0  0  0  0  0  0  0
   26.3763  -16.8199  -14.8169 O   0  0  0  0  0  0  0  0  0  0  0  0
   26.4990  -19.1842  -15.2315 C   0  0  2  0  0  0  0  0  0  0  0  0
   25.9937  -19.3933  -13.8906 N   0  0  0  0  0  0  0  0  0  0  0  0
   27.9685  -19.3890  -15.2727 C   0  0  0  0  0  0  0  0  0  0  0  0
   28.6450  -19.4927  -14.2202 O   0  0  0  0  0  0  0  0  0  0  0  0
   28.6678  -19.4760  -16.4836 O   0  0  0  0  0  0  0  0  0  0  0  0
  2  1  1  0
  2  3  2  0
  4  5  1  0
  4  2  1  0
  5  6  1  0
  6  8  1  0
  6  7  1  6
  8  9  2  0
 10 11  1  0
 10  8  1  0
 11 12  1  1
 13 12  1  0
 14 13  2  0
 15 14  1  0
 16 17  1  0
 16 15  2  0
 17 18  2  0
 18 13  1  0
 19 20  2  0
 19 11  1  0
 22 21  1  1
 22 24  1  0
 23 22  1  0
 24 26  1  0
 24 25  1  1
 25 19  1  0
 26 28  1  0
 27 26  2  0
M  END
$$$$
