QFT.pdb
     RDKit          3D

 28 28  0  0  1  0  0  0  0  0999 V2000
   29.6760  -18.5072  -19.4677 N   0  0  0  0  0  0  0  0  0  0  0  0
   28.3482  -18.2662  -18.9903 C   0  0  0  0  0  0  0  0  0  0  0  0
   28.2334  -17.3183  -18.1798 O   0  0  0  0  0  0  0  0  0  0  0  0
   27.2692  -19.1342  -19.4799 C   0  0  0  0  0  0  0  0  0  0  0  0
   26.6728  -19.9804  -18.4218 C   0  0  0  0  0  0  0  0  0  0  0  0
   27.6196  -20.7877  -17.5878 C   0  0  2  0  0  0  0  0  0  0  0  0
   28.1365  -21.9557  -18.2401 N   0  0  0  0  0  0  0  0  0  0  0  0
   26.9047  -21.1768  -16.3161 C   0  0  0  0  0  0  0  0  0  0  0  0
   26.0852  -22.1149  -16.3634 O   0  0  0  0  0  0  0  0  0  0  0  0
   27.1556  -20.4951  -15.0953 N   0  0  0  0  0  0  0  0  0  0  0  0
   26.4272  -20.8495  -13.8930 C   0  0  1  0  0  0  0  0  0  0  0  0
   27.0720  -20.2507  -12.6620 C   0  0  0  0  0  0  0  0  0  0  0  0
   26.3077  -20.5342  -11.4275 C   0  0  0  0  0  0  0  0  0  0  0  0
   25.5131  -19.5925  -10.8022 C   0  0  0  0  0  0  0  0  0  0  0  0
   24.8077  -19.8748   -9.6518 C   0  0  0  0  0  0  0  0  0  0  0  0
   24.8855  -21.1316   -9.0930 C   0  0  0  0  0  0  0  0  0  0  0  0
   25.6684  -22.0925   -9.6915 C   0  0  0  0  0  0  0  0  0  0  0  0
   26.3674  -21.7801  -10.8489 C   0  0  0  0  0  0  0  0  0  0  0  0
   25.0487  -20.3065  -13.9690 C   0  0  0  0  0  0  0  0  0  0  0  0
   24.8143  -19.0898  -14.1763 O   0  0  0  0  0  0  0  0  0  0  0  0
   22.4259  -20.6506  -16.3125 C   0  0  0  0  0  0  0  0  0  0  0  0
   21.8215  -21.0830  -15.0165 C   0  0  1  0  0  0  0  0  0  0  0  0
   21.6891  -22.4676  -15.0542 O   0  0  0  0  0  0  0  0  0  0  0  0
   22.6006  -20.6326  -13.7976 C   0  0  2  0  0  0  0  0  0  0  0  0
   23.9425  -21.1769  -13.8042 N   0  0  0  0  0  0  0  0  0  0  0  0
   21.8983  -20.9916  -12.5403 C   0  0  0  0  0  0  0  0  0  0  0  0
   22.3639  -21.8515  -11.7528 O   0  0  0  0  0  0  0  0  0  0  0  0
   20.6871  -20.3903  -12.1739 O   0  0  0  0  0  0  0  0  0  0  0  0
  2  1  1  0
  2  3  2  0
  4  5  1  0
  4  2  1  0
  5  6  1  0
  6  8  1  0
  6  7  1  6
  8  9  2  0
 10 11  1  0
 10  8  1  0
 11 12  1  1
 13 12  1  0
 14 13  2  0
 15 14  1  0
 16 17  1  0
 16 15  2  0
 17 18  2  0
 18 13  1  0
 19 20  2  0
 19 11  1  0
 22 21  1  6
 22 24  1  0
 23 22  1  0
 24 26  1  0
 24 25  1  1
 25 19  1  0
 26 28  1  0
 27 26  2  0
M  END
$$$$
