QFT.pdb
     RDKit          3D

 28 28  0  0  1  0  0  0  0  0999 V2000
   25.0203  -18.2510  -13.1592 N   0  0  0  0  0  0  0  0  0  0  0  0
   24.3808  -19.1728  -14.0481 C   0  0  0  0  0  0  0  0  0  0  0  0
   24.2059  -18.7575  -15.2167 O   0  0  0  0  0  0  0  0  0  0  0  0
   23.9942  -20.4877  -13.5199 C   0  0  0  0  0  0  0  0  0  0  0  0
   24.4600  -20.7222  -12.1345 C   0  0  0  0  0  0  0  0  0  0  0  0
   25.9262  -20.9635  -11.9458 C   0  0  2  0  0  0  0  0  0  0  0  0
   26.4392  -22.0920  -12.6670 N   0  0  0  0  0  0  0  0  0  0  0  0
   26.1843  -21.1310  -10.4676 C   0  0  0  0  0  0  0  0  0  0  0  0
   25.7329  -22.1456   -9.9012 O   0  0  0  0  0  0  0  0  0  0  0  0
   26.9215  -20.1611   -9.7369 N   0  0  0  0  0  0  0  0  0  0  0  0
   27.1993  -20.3581   -8.3277 C   0  0  1  0  0  0  0  0  0  0  0  0
   28.2644  -19.4016   -7.8376 C   0  0  0  0  0  0  0  0  0  0  0  0
   28.5415  -19.5546   -6.3924 C   0  0  0  0  0  0  0  0  0  0  0  0
   29.1995  -20.6489   -5.8647 C   0  0  0  0  0  0  0  0  0  0  0  0
   29.4489  -20.7744   -4.5146 C   0  0  0  0  0  0  0  0  0  0  0  0
   29.0359  -19.7863   -3.6481 C   0  0  0  0  0  0  0  0  0  0  0  0
   28.3777  -18.6830   -4.1420 C   0  0  0  0  0  0  0  0  0  0  0  0
   28.1402  -18.5833   -5.5057 C   0  0  0  0  0  0  0  0  0  0  0  0
   25.9740  -20.0860   -7.5370 C   0  0  0  0  0  0  0  0  0  0  0  0
   25.2423  -19.0873   -7.7505 O   0  0  0  0  0  0  0  0  0  0  0  0
   23.7465  -23.2259   -6.2370 C   0  0  0  0  0  0  0  0  0  0  0  0
   23.3036  -21.8038   -6.3521 C   0  0  1  0  0  0  0  0  0  0  0  0
   22.0892  -21.6849   -5.6832 O   0  0  0  0  0  0  0  0  0  0  0  0
   24.3197  -20.8032   -5.8405 C   0  0  2  0  0  0  0  0  0  0  0  0
   25.5985  -20.9738   -6.4981 N   0  0  0  0  0  0  0  0  0  0  0  0
   24.4751  -20.8911   -4.3671 C   0  0  0  0  0  0  0  0  0  0  0  0
   25.5836  -21.1557   -3.8402 O   0  0  0  0  0  0  0  0  0  0  0  0
   23.3964  -20.6840   -3.4975 O   0  0  0  0  0  0  0  0  0  0  0  0
  2  1  1  0
  2  3  2  0
  4  5  1  0
  4  2  1  0
  5  6  1  0
  6  8  1  0
  6  7  1  6
  8  9  2  0
 10 11  1  0
 10  8  1  0
 11 12  1  1
 13 12  1  0
 14 13  2  0
 15 14  1  0
 16 17  1  0
 16 15  2  0
 17 18  2  0
 18 13  1  0
 19 20  2  0
 19 11  1  0
 22 21  1  1
 22 24  1  0
 23 22  1  0
 24 26  1  0
 24 25  1  6
 25 19  1  0
 26 28  1  0
 27 26  2  0
M  END
$$$$
