QFT.pdb
     RDKit          3D

 28 28  0  0  1  0  0  0  0  0999 V2000
   27.0299  -19.0705  -17.5879 N   0  0  0  0  0  0  0  0  0  0  0  0
   28.1559  -18.2907  -17.1720 C   0  0  0  0  0  0  0  0  0  0  0  0
   28.7609  -17.6903  -18.0897 O   0  0  0  0  0  0  0  0  0  0  0  0
   28.4924  -18.2698  -15.7424 C   0  0  0  0  0  0  0  0  0  0  0  0
   27.5607  -19.0636  -14.9099 C   0  0  0  0  0  0  0  0  0  0  0  0
   28.1494  -20.2010  -14.1332 C   0  0  2  0  0  0  0  0  0  0  0  0
   28.7265  -21.2355  -14.9418 N   0  0  0  0  0  0  0  0  0  0  0  0
   27.0652  -20.7744  -13.2527 C   0  0  0  0  0  0  0  0  0  0  0  0
   26.5960  -21.8914  -13.5462 O   0  0  0  0  0  0  0  0  0  0  0  0
   26.5889  -20.0640  -12.1184 N   0  0  0  0  0  0  0  0  0  0  0  0
   25.4919  -20.5899  -11.3299 C   0  0  1  0  0  0  0  0  0  0  0  0
   25.4335  -19.9392   -9.9650 C   0  0  0  0  0  0  0  0  0  0  0  0
   26.5685  -20.3322   -9.1011 C   0  0  0  0  0  0  0  0  0  0  0  0
   26.4773  -20.3988   -7.7241 C   0  0  0  0  0  0  0  0  0  0  0  0
   27.5460  -20.7672   -6.9349 C   0  0  0  0  0  0  0  0  0  0  0  0
   28.7522  -21.0827   -7.5209 C   0  0  0  0  0  0  0  0  0  0  0  0
   28.8760  -21.0262   -8.8905 C   0  0  0  0  0  0  0  0  0  0  0  0
   27.7834  -20.6522   -9.6600 C   0  0  0  0  0  0  0  0  0  0  0  0
   24.2059  -20.2936  -12.0076 C   0  0  0  0  0  0  0  0  0  0  0  0
   23.8534  -19.1243  -12.3023 O   0  0  0  0  0  0  0  0  0  0  0  0
   23.2348  -22.0041  -15.2500 C   0  0  0  0  0  0  0  0  0  0  0  0
   22.0705  -22.0628  -14.3159 C   0  0  1  0  0  0  0  0  0  0  0  0
   21.9546  -23.3753  -13.8684 O   0  0  0  0  0  0  0  0  0  0  0  0
   22.1638  -21.0881  -13.1597 C   0  0  2  0  0  0  0  0  0  0  0  0
   23.3294  -21.3554  -12.3432 N   0  0  0  0  0  0  0  0  0  0  0  0
   20.9319  -21.1067  -12.3321 C   0  0  0  0  0  0  0  0  0  0  0  0
   19.8215  -20.7572  -12.8026 O   0  0  0  0  0  0  0  0  0  0  0  0
   20.9495  -21.5137  -10.9916 O   0  0  0  0  0  0  0  0  0  0  0  0
  2  1  1  0
  2  3  2  0
  4  5  1  0
  4  2  1  0
  5  6  1  0
  6  8  1  0
  6  7  1  6
  8  9  2  0
 10 11  1  0
 10  8  1  0
 11 12  1  1
 13 12  1  0
 14 13  2  0
 15 14  1  0
 16 17  1  0
 16 15  2  0
 17 18  2  0
 18 13  1  0
 19 20  2  0
 19 11  1  0
 22 21  1  6
 22 24  1  0
 23 22  1  0
 24 26  1  0
 24 25  1  1
 25 19  1  0
 26 28  1  0
 27 26  2  0
M  END
$$$$
