KHR.pdb
     RDKit          3D

 31 31  0  0  1  0  0  0  0  0999 V2000
    9.1108  -17.2887   16.5400 N   0  0  0  0  0  0  0  0  0  0  0  0
    9.4132  -16.2420   17.4595 C   0  0  1  0  0  0  0  0  0  0  0  0
    8.8151  -14.9278   17.2492 C   0  0  0  0  0  0  0  0  0  0  0  0
    8.3052  -14.5613   15.9348 C   0  0  0  0  0  0  0  0  0  0  0  0
    7.9371  -13.2576   15.4377 C   0  0  0  0  0  0  0  0  0  0  0  0
    7.3887  -12.9707   14.1126 C   0  0  0  0  0  0  0  0  0  0  0  0
    7.0209  -11.5064   14.1590 N   0  0  0  0  0  0  0  0  0  0  0  0
    9.1020  -16.7949   18.8378 C   0  0  0  0  0  0  0  0  0  0  0  0
    8.0209  -16.4996   19.3685 O   0  0  0  0  0  0  0  0  0  0  0  0
    9.9860  -17.6267   19.5379 N   0  0  0  0  0  0  0  0  0  0  0  0
    9.6506  -18.2069   20.8485 C   0  0  1  0  0  0  0  0  0  0  0  0
   10.4722  -19.4435   20.9799 C   0  0  0  0  0  0  0  0  0  0  0  0
   10.1483  -20.0756   22.2963 C   0  0  0  0  0  0  0  0  0  0  0  0
    8.9201  -20.3931   22.8139 C   0  0  0  0  0  0  0  0  0  0  0  0
    9.0971  -20.9439   24.0223 N   0  0  0  0  0  0  0  0  0  0  0  0
   10.4151  -20.9832   24.2840 C   0  0  0  0  0  0  0  0  0  0  0  0
   11.0592  -20.4511   23.2264 N   0  0  0  0  0  0  0  0  0  0  0  0
    9.8767  -17.1887   21.8612 C   0  0  0  0  0  0  0  0  0  0  0  0
   10.8250  -16.3755   21.7180 O   0  0  0  0  0  0  0  0  0  0  0  0
    4.7608  -12.2806   26.8282 N   0  0  0  0  0  0  0  0  0  0  0  0
    5.9618  -11.5332   26.5963 C   0  0  0  0  0  0  0  0  0  0  0  0
    6.1311  -10.3697   27.1152 N   0  0  0  0  0  0  0  0  0  0  0  0
    6.9977  -12.0735   25.7796 N   0  0  0  0  0  0  0  0  0  0  0  0
    6.8046  -13.3260   25.0901 C   0  0  0  0  0  0  0  0  0  0  0  0
    8.1642  -14.0228   25.0954 C   0  0  0  0  0  0  0  0  0  0  0  0
    8.0250  -15.2101   24.1710 C   0  0  0  0  0  0  0  0  0  0  0  0
    9.3010  -15.9879   24.0133 C   0  0  2  0  0  0  0  0  0  0  0  0
    9.0944  -17.0253   23.0391 N   0  0  0  0  0  0  0  0  0  0  0  0
    9.7415  -16.4878   25.3164 C   0  0  0  0  0  0  0  0  0  0  0  0
   10.6433  -15.8107   26.1155 O   0  0  0  0  0  0  0  0  0  0  0  0
    9.2883  -17.5787   25.7394 O   0  0  0  0  0  0  0  0  0  0  0  0
  2  1  1  6
  3  2  1  0
  3  4  1  0
  4  5  1  0
  5  6  1  0
  6  7  1  0
  8 10  1  0
  8  2  1  0
  9  8  2  0
 11 10  1  0
 11 12  1  1
 12 13  1  0
 13 17  1  0
 14 13  2  0
 14 15  1  0
 15 16  1  0
 17 16  2  0
 18 11  1  0
 19 18  2  0
 21 20  1  0
 21 22  2  0
 23 21  1  0
 24 23  1  0
 25 26  1  0
 25 24  1  0
 27 28  1  0
 27 26  1  1
 28 18  1  0
 29 30  1  0
 29 27  1  0
 31 29  2  0
M  END
$$$$
