KHR.pdb
     RDKit          3D

 31 31  0  0  1  0  0  0  0  0999 V2000
    9.1323  -18.7254   18.6789 N   0  0  0  0  0  0  0  0  0  0  0  0
   10.1688  -17.7532   18.5647 C   0  0  1  0  0  0  0  0  0  0  0  0
   10.2218  -16.9203   17.3678 C   0  0  0  0  0  0  0  0  0  0  0  0
    8.9886  -16.4391   16.7599 C   0  0  0  0  0  0  0  0  0  0  0  0
    8.8093  -15.7261   15.5182 C   0  0  0  0  0  0  0  0  0  0  0  0
    7.5318  -15.2756   14.9671 C   0  0  0  0  0  0  0  0  0  0  0  0
    7.8989  -14.5442   13.6975 N   0  0  0  0  0  0  0  0  0  0  0  0
   10.1037  -16.9232   19.8333 C   0  0  0  0  0  0  0  0  0  0  0  0
   11.0201  -16.1218   20.0690 O   0  0  0  0  0  0  0  0  0  0  0  0
    9.0501  -17.0239   20.7514 N   0  0  0  0  0  0  0  0  0  0  0  0
    9.0139  -16.2416   21.9978 C   0  0  1  0  0  0  0  0  0  0  0  0
    7.7172  -15.5068   21.9918 C   0  0  0  0  0  0  0  0  0  0  0  0
    7.8122  -14.4105   20.9787 C   0  0  0  0  0  0  0  0  0  0  0  0
    7.0413  -14.2058   19.8646 C   0  0  0  0  0  0  0  0  0  0  0  0
    7.4766  -13.1017   19.2431 N   0  0  0  0  0  0  0  0  0  0  0  0
    8.5101  -12.5992   19.9404 C   0  0  0  0  0  0  0  0  0  0  0  0
    8.7158  -13.4012   21.0039 N   0  0  0  0  0  0  0  0  0  0  0  0
    9.2147  -17.1578   23.1086 C   0  0  0  0  0  0  0  0  0  0  0  0
    8.5780  -18.2417   23.1376 O   0  0  0  0  0  0  0  0  0  0  0  0
   16.0861  -18.3596   28.5203 N   0  0  0  0  0  0  0  0  0  0  0  0
   15.1123  -19.3481   28.8800 C   0  0  0  0  0  0  0  0  0  0  0  0
   15.4285  -20.3575   29.6100 N   0  0  0  0  0  0  0  0  0  0  0  0
   13.7650  -19.2261   28.4307 N   0  0  0  0  0  0  0  0  0  0  0  0
   13.4172  -18.2534   27.4236 C   0  0  0  0  0  0  0  0  0  0  0  0
   11.9887  -18.5846   26.9949 C   0  0  0  0  0  0  0  0  0  0  0  0
   11.6666  -17.6391   25.8609 C   0  0  0  0  0  0  0  0  0  0  0  0
   10.2902  -17.8448   25.2940 C   0  0  2  0  0  0  0  0  0  0  0  0
   10.0968  -16.9293   24.2021 N   0  0  0  0  0  0  0  0  0  0  0  0
    9.2914  -17.7099   26.3552 C   0  0  0  0  0  0  0  0  0  0  0  0
    8.9482  -18.7478   27.2009 O   0  0  0  0  0  0  0  0  0  0  0  0
    8.7128  -16.6082   26.5156 O   0  0  0  0  0  0  0  0  0  0  0  0
  2  1  1  6
  3  2  1  0
  3  4  1  0
  4  5  1  0
  5  6  1  0
  6  7  1  0
  8 10  1  0
  8  2  1  0
  9  8  2  0
 11 10  1  0
 11 12  1  1
 12 13  1  0
 13 17  1  0
 14 13  2  0
 14 15  1  0
 15 16  1  0
 17 16  2  0
 18 11  1  0
 19 18  2  0
 21 20  1  0
 21 22  2  0
 23 21  1  0
 24 23  1  0
 25 26  1  0
 25 24  1  0
 27 28  1  0
 27 26  1  1
 28 18  1  0
 29 30  1  0
 29 27  1  0
 31 29  2  0
M  END
$$$$
