KHR.pdb
     RDKit          3D

 31 31  0  0  1  0  0  0  0  0999 V2000
    7.0240  -15.8105   20.0557 N   0  0  0  0  0  0  0  0  0  0  0  0
    7.8335  -14.6452   20.1940 C   0  0  1  0  0  0  0  0  0  0  0  0
    7.2670  -13.3496   19.8340 C   0  0  0  0  0  0  0  0  0  0  0  0
    7.6055  -12.7359   18.5570 C   0  0  0  0  0  0  0  0  0  0  0  0
    7.5852  -13.3203   17.2378 C   0  0  0  0  0  0  0  0  0  0  0  0
    7.9296  -12.6347   15.9929 C   0  0  0  0  0  0  0  0  0  0  0  0
    7.7542  -13.6813   14.9179 N   0  0  0  0  0  0  0  0  0  0  0  0
    8.3508  -14.6636   21.6204 C   0  0  0  0  0  0  0  0  0  0  0  0
    9.2427  -13.8642   21.9414 O   0  0  0  0  0  0  0  0  0  0  0  0
    7.8626  -15.5471   22.5921 N   0  0  0  0  0  0  0  0  0  0  0  0
    8.3386  -15.5275   23.9848 C   0  0  1  0  0  0  0  0  0  0  0  0
    7.1258  -15.6532   24.8421 C   0  0  0  0  0  0  0  0  0  0  0  0
    6.7992  -14.2971   25.3820 C   0  0  0  0  0  0  0  0  0  0  0  0
    7.4681  -13.1165   25.1918 C   0  0  0  0  0  0  0  0  0  0  0  0
    6.8246  -12.1504   25.8608 N   0  0  0  0  0  0  0  0  0  0  0  0
    5.7584  -12.6935   26.4734 C   0  0  0  0  0  0  0  0  0  0  0  0
    5.7429  -14.0089   26.1801 N   0  0  0  0  0  0  0  0  0  0  0  0
    9.3293  -16.5808   24.1353 C   0  0  0  0  0  0  0  0  0  0  0  0
    9.0633  -17.7409   23.7299 O   0  0  0  0  0  0  0  0  0  0  0  0
   16.2211  -19.3061   22.2295 N   0  0  0  0  0  0  0  0  0  0  0  0
   16.8713  -18.9582   23.4587 C   0  0  0  0  0  0  0  0  0  0  0  0
   17.8646  -19.6427   23.9019 N   0  0  0  0  0  0  0  0  0  0  0  0
   16.4234  -17.8366   24.2159 N   0  0  0  0  0  0  0  0  0  0  0  0
   15.2872  -17.0651   23.7741 C   0  0  0  0  0  0  0  0  0  0  0  0
   14.0509  -17.8436   24.2210 C   0  0  0  0  0  0  0  0  0  0  0  0
   12.9386  -16.8267   24.3323 C   0  0  0  0  0  0  0  0  0  0  0  0
   11.6302  -17.4281   24.7619 C   0  0  2  0  0  0  0  0  0  0  0  0
   10.6158  -16.4098   24.7199 N   0  0  0  0  0  0  0  0  0  0  0  0
   11.7793  -18.0522   26.0773 C   0  0  0  0  0  0  0  0  0  0  0  0
   11.0907  -17.6221   27.1958 O   0  0  0  0  0  0  0  0  0  0  0  0
   12.5643  -19.0221   26.2100 O   0  0  0  0  0  0  0  0  0  0  0  0
  2  1  1  1
  3  2  1  0
  3  4  1  0
  4  5  1  0
  5  6  1  0
  6  7  1  0
  8 10  1  0
  8  2  1  0
  9  8  2  0
 11 10  1  0
 11 12  1  1
 12 13  1  0
 13 17  1  0
 14 13  2  0
 14 15  1  0
 15 16  1  0
 17 16  2  0
 18 11  1  0
 19 18  2  0
 21 20  1  0
 21 22  2  0
 23 21  1  0
 24 23  1  0
 25 26  1  0
 25 24  1  0
 27 28  1  0
 27 26  1  1
 28 18  1  0
 29 30  1  0
 29 27  1  0
 31 29  2  0
M  END
$$$$
