KHR.pdb
     RDKit          3D

 31 31  0  0  1  0  0  0  0  0999 V2000
    9.2609  -20.6351   16.8787 N   0  0  0  0  0  0  0  0  0  0  0  0
   10.1339  -20.1832   17.9112 C   0  0  1  0  0  0  0  0  0  0  0  0
   11.0748  -19.1080   17.6148 C   0  0  0  0  0  0  0  0  0  0  0  0
   12.0668  -19.2777   16.5617 C   0  0  0  0  0  0  0  0  0  0  0  0
   13.0828  -18.3542   16.1175 C   0  0  0  0  0  0  0  0  0  0  0  0
   14.0337  -18.5862   15.0309 C   0  0  0  0  0  0  0  0  0  0  0  0
   14.8136  -17.2971   14.9226 N   0  0  0  0  0  0  0  0  0  0  0  0
    9.2436  -19.8504   19.0941 C   0  0  0  0  0  0  0  0  0  0  0  0
    8.1711  -19.2638   18.8865 O   0  0  0  0  0  0  0  0  0  0  0  0
    9.5825  -20.1784   20.4134 N   0  0  0  0  0  0  0  0  0  0  0  0
    8.7161  -19.8444   21.5555 C   0  0  1  0  0  0  0  0  0  0  0  0
    8.6460  -21.0712   22.3990 C   0  0  0  0  0  0  0  0  0  0  0  0
    7.8393  -20.7491   23.6167 C   0  0  0  0  0  0  0  0  0  0  0  0
    6.5270  -20.3636   23.6964 C   0  0  0  0  0  0  0  0  0  0  0  0
    6.2151  -20.1797   24.9863 N   0  0  0  0  0  0  0  0  0  0  0  0
    7.3042  -20.4410   25.7296 C   0  0  0  0  0  0  0  0  0  0  0  0
    8.2995  -20.7898   24.8904 N   0  0  0  0  0  0  0  0  0  0  0  0
    9.2633  -18.6636   22.2037 C   0  0  0  0  0  0  0  0  0  0  0  0
   10.5074  -18.4811   22.2055 O   0  0  0  0  0  0  0  0  0  0  0  0
    6.6698  -11.1434   27.8787 N   0  0  0  0  0  0  0  0  0  0  0  0
    6.4237  -11.9022   26.6876 C   0  0  0  0  0  0  0  0  0  0  0  0
    5.3404  -11.7482   26.0136 N   0  0  0  0  0  0  0  0  0  0  0  0
    7.3857  -12.8478   26.2268 N   0  0  0  0  0  0  0  0  0  0  0  0
    7.1802  -13.5507   24.9838 C   0  0  0  0  0  0  0  0  0  0  0  0
    8.4026  -14.4489   24.8017 C   0  0  0  0  0  0  0  0  0  0  0  0
    7.9294  -15.6336   23.9916 C   0  0  0  0  0  0  0  0  0  0  0  0
    9.0466  -16.5490   23.5771 C   0  0  2  0  0  0  0  0  0  0  0  0
    8.4905  -17.6632   22.8578 N   0  0  0  0  0  0  0  0  0  0  0  0
    9.8282  -16.9410   24.7507 C   0  0  0  0  0  0  0  0  0  0  0  0
   11.0341  -16.3523   25.0816 O   0  0  0  0  0  0  0  0  0  0  0  0
    9.3961  -17.8509   25.4987 O   0  0  0  0  0  0  0  0  0  0  0  0
  2  1  1  6
  3  2  1  0
  3  4  1  0
  4  5  1  0
  5  6  1  0
  6  7  1  0
  8 10  1  0
  8  2  1  0
  9  8  2  0
 11 10  1  0
 11 12  1  1
 12 13  1  0
 13 17  1  0
 14 13  2  0
 14 15  1  0
 15 16  1  0
 17 16  2  0
 18 11  1  0
 19 18  2  0
 21 20  1  0
 21 22  2  0
 23 21  1  0
 24 23  1  0
 25 26  1  0
 25 24  1  0
 27 28  1  0
 27 26  1  1
 28 18  1  0
 29 30  1  0
 29 27  1  0
 31 29  2  0
M  END
$$$$
