KHR.pdb
     RDKit          3D

 31 31  0  0  1  0  0  0  0  0999 V2000
    6.5352  -18.2944   20.3006 N   0  0  0  0  0  0  0  0  0  0  0  0
    7.7438  -18.4393   19.5586 C   0  0  1  0  0  0  0  0  0  0  0  0
    7.6627  -18.6313   18.1144 C   0  0  0  0  0  0  0  0  0  0  0  0
    6.6202  -19.4775   17.5494 C   0  0  0  0  0  0  0  0  0  0  0  0
    6.4293  -19.8858   16.1786 C   0  0  0  0  0  0  0  0  0  0  0  0
    5.3024  -20.6648   15.6670 C   0  0  0  0  0  0  0  0  0  0  0  0
    5.5657  -20.7917   14.1850 N   0  0  0  0  0  0  0  0  0  0  0  0
    8.6047  -17.2450   19.9264 C   0  0  0  0  0  0  0  0  0  0  0  0
    9.7510  -17.1702   19.4595 O   0  0  0  0  0  0  0  0  0  0  0  0
    8.1586  -16.2214   20.7727 N   0  0  0  0  0  0  0  0  0  0  0  0
    9.0440  -15.1407   21.2362 C   0  0  1  0  0  0  0  0  0  0  0  0
    8.2305  -13.8922   21.2043 C   0  0  0  0  0  0  0  0  0  0  0  0
    7.9350  -13.5698   19.7739 C   0  0  0  0  0  0  0  0  0  0  0  0
    6.7621  -13.1270   19.2213 C   0  0  0  0  0  0  0  0  0  0  0  0
    6.9462  -12.9670   17.9039 N   0  0  0  0  0  0  0  0  0  0  0  0
    8.2144  -13.2994   17.6072 C   0  0  0  0  0  0  0  0  0  0  0  0
    8.8203  -13.6689   18.7530 N   0  0  0  0  0  0  0  0  0  0  0  0
    9.5693  -15.5182   22.5383 C   0  0  0  0  0  0  0  0  0  0  0  0
    8.7824  -15.6300   23.5125 O   0  0  0  0  0  0  0  0  0  0  0  0
   10.8929  -22.8800   25.2809 N   0  0  0  0  0  0  0  0  0  0  0  0
   11.5970  -22.1477   26.2923 C   0  0  0  0  0  0  0  0  0  0  0  0
   12.0216  -22.7271   27.3579 N   0  0  0  0  0  0  0  0  0  0  0  0
   11.8405  -20.7526   26.1307 N   0  0  0  0  0  0  0  0  0  0  0  0
   11.2310  -20.0268   25.0429 C   0  0  0  0  0  0  0  0  0  0  0  0
   11.6198  -18.5631   25.2441 C   0  0  0  0  0  0  0  0  0  0  0  0
   11.0186  -17.8108   24.0795 C   0  0  0  0  0  0  0  0  0  0  0  0
   11.4225  -16.3639   24.0400 C   0  0  2  0  0  0  0  0  0  0  0  0
   10.9401  -15.7811   22.8171 N   0  0  0  0  0  0  0  0  0  0  0  0
   12.8713  -16.2484   24.2122 C   0  0  0  0  0  0  0  0  0  0  0  0
   13.5130  -16.5440   25.4001 O   0  0  0  0  0  0  0  0  0  0  0  0
   13.5745  -15.8650   23.2464 O   0  0  0  0  0  0  0  0  0  0  0  0
  2  1  1  6
  3  2  1  0
  3  4  1  0
  4  5  1  0
  5  6  1  0
  6  7  1  0
  8 10  1  0
  8  2  1  0
  9  8  2  0
 11 10  1  0
 11 12  1  1
 12 13  1  0
 13 17  1  0
 14 13  2  0
 14 15  1  0
 15 16  1  0
 17 16  2  0
 18 11  1  0
 19 18  2  0
 21 20  1  0
 21 22  2  0
 23 21  1  0
 24 23  1  0
 25 26  1  0
 25 24  1  0
 27 28  1  0
 27 26  1  6
 28 18  1  0
 29 30  1  0
 29 27  1  0
 31 29  2  0
M  END
$$$$
