KHR.pdb
     RDKit          3D

 31 31  0  0  1  0  0  0  0  0999 V2000
    7.7952  -13.6855   17.2557 N   0  0  0  0  0  0  0  0  0  0  0  0
    8.9586  -12.9928   17.7019 C   0  0  1  0  0  0  0  0  0  0  0  0
    8.8327  -12.0470   18.8058 C   0  0  0  0  0  0  0  0  0  0  0  0
    8.5622  -12.5312   20.1528 C   0  0  0  0  0  0  0  0  0  0  0  0
    7.6533  -13.5688   20.5765 C   0  0  0  0  0  0  0  0  0  0  0  0
    7.4499  -14.0183   21.9532 C   0  0  0  0  0  0  0  0  0  0  0  0
    6.2789  -14.9694   21.8766 N   0  0  0  0  0  0  0  0  0  0  0  0
    9.9978  -14.0619   17.9841 C   0  0  0  0  0  0  0  0  0  0  0  0
    9.6243  -15.1471   18.4535 O   0  0  0  0  0  0  0  0  0  0  0  0
   11.3641  -13.8747   17.7362 N   0  0  0  0  0  0  0  0  0  0  0  0
   12.3617  -14.9275   17.9874 C   0  0  1  0  0  0  0  0  0  0  0  0
   13.5403  -14.5970   17.1369 C   0  0  0  0  0  0  0  0  0  0  0  0
   14.4513  -15.7833   17.1288 C   0  0  0  0  0  0  0  0  0  0  0  0
   14.2415  -17.0194   16.5761 C   0  0  0  0  0  0  0  0  0  0  0  0
   15.3226  -17.7768   16.8052 N   0  0  0  0  0  0  0  0  0  0  0  0
   16.2170  -17.0463   17.4933 C   0  0  0  0  0  0  0  0  0  0  0  0
   15.6830  -15.8248   17.6916 N   0  0  0  0  0  0  0  0  0  0  0  0
   12.6109  -14.9773   19.4188 C   0  0  0  0  0  0  0  0  0  0  0  0
   12.7080  -13.9038   20.0662 O   0  0  0  0  0  0  0  0  0  0  0  0
   11.9578  -20.8950   25.2106 N   0  0  0  0  0  0  0  0  0  0  0  0
   12.0635  -19.7802   26.1057 C   0  0  0  0  0  0  0  0  0  0  0  0
   12.4904  -19.9319   27.3083 N   0  0  0  0  0  0  0  0  0  0  0  0
   11.6944  -18.4735   25.6722 N   0  0  0  0  0  0  0  0  0  0  0  0
   11.3510  -18.2326   24.2918 C   0  0  0  0  0  0  0  0  0  0  0  0
   12.4374  -17.3092   23.7432 C   0  0  0  0  0  0  0  0  0  0  0  0
   12.1209  -17.1218   22.2775 C   0  0  0  0  0  0  0  0  0  0  0  0
   13.0884  -16.2103   21.5767 C   0  0  2  0  0  0  0  0  0  0  0  0
   12.7595  -16.1726   20.1773 N   0  0  0  0  0  0  0  0  0  0  0  0
   14.4606  -16.6433   21.8443 C   0  0  0  0  0  0  0  0  0  0  0  0
   15.1538  -16.2828   22.9844 O   0  0  0  0  0  0  0  0  0  0  0  0
   15.0461  -17.3747   21.0097 O   0  0  0  0  0  0  0  0  0  0  0  0
  2  1  1  1
  3  2  1  0
  3  4  1  0
  4  5  1  0
  5  6  1  0
  6  7  1  0
  8 10  1  0
  8  2  1  0
  9  8  2  0
 11 10  1  0
 11 12  1  6
 12 13  1  0
 13 17  1  0
 14 13  2  0
 14 15  1  0
 15 16  1  0
 17 16  2  0
 18 11  1  0
 19 18  2  0
 21 20  1  0
 21 22  2  0
 23 21  1  0
 24 23  1  0
 25 26  1  0
 25 24  1  0
 27 28  1  0
 27 26  1  1
 28 18  1  0
 29 30  1  0
 29 27  1  0
 31 29  2  0
M  END
$$$$
