KHR.pdb
     RDKit          3D

 31 31  0  0  1  0  0  0  0  0999 V2000
    9.0209  -15.3233   17.7545 N   0  0  0  0  0  0  0  0  0  0  0  0
    8.7228  -14.3204   18.7228 C   0  0  1  0  0  0  0  0  0  0  0  0
    7.7486  -13.2873   18.3870 C   0  0  0  0  0  0  0  0  0  0  0  0
    6.9492  -13.4061   17.1751 C   0  0  0  0  0  0  0  0  0  0  0  0
    7.3610  -13.8207   15.8558 C   0  0  0  0  0  0  0  0  0  0  0  0
    7.6518  -12.9318   14.7314 C   0  0  0  0  0  0  0  0  0  0  0  0
    7.8453  -13.8560   13.5524 N   0  0  0  0  0  0  0  0  0  0  0  0
    8.3494  -15.0639   19.9918 C   0  0  0  0  0  0  0  0  0  0  0  0
    7.9574  -14.4121   20.9712 O   0  0  0  0  0  0  0  0  0  0  0  0
    8.4287  -16.4583   20.1043 N   0  0  0  0  0  0  0  0  0  0  0  0
    8.1525  -17.1637   21.3664 C   0  0  1  0  0  0  0  0  0  0  0  0
    7.5827  -18.4880   20.9881 C   0  0  0  0  0  0  0  0  0  0  0  0
    6.0952  -18.3476   20.9170 C   0  0  0  0  0  0  0  0  0  0  0  0
    5.2523  -17.7177   21.7945 C   0  0  0  0  0  0  0  0  0  0  0  0
    3.9980  -17.8363   21.3389 N   0  0  0  0  0  0  0  0  0  0  0  0
    4.0263  -18.5297   20.1878 C   0  0  0  0  0  0  0  0  0  0  0  0
    5.3114  -18.8432   19.9292 N   0  0  0  0  0  0  0  0  0  0  0  0
    9.3847  -17.2040   22.1369 C   0  0  0  0  0  0  0  0  0  0  0  0
   10.4769  -17.3977   21.5448 O   0  0  0  0  0  0  0  0  0  0  0  0
   10.4494  -14.6421   30.2748 N   0  0  0  0  0  0  0  0  0  0  0  0
   10.1816  -14.1647   28.9500 C   0  0  0  0  0  0  0  0  0  0  0  0
    9.5673  -13.0526   28.7559 N   0  0  0  0  0  0  0  0  0  0  0  0
   10.5968  -14.9219   27.8159 N   0  0  0  0  0  0  0  0  0  0  0  0
   11.1537  -16.2421   27.9844 C   0  0  0  0  0  0  0  0  0  0  0  0
   11.6302  -16.6773   26.5996 C   0  0  0  0  0  0  0  0  0  0  0  0
   10.3994  -16.6902   25.7229 C   0  0  0  0  0  0  0  0  0  0  0  0
   10.6932  -17.0698   24.2990 C   0  0  2  0  0  0  0  0  0  0  0  0
    9.4671  -17.0382   23.5482 N   0  0  0  0  0  0  0  0  0  0  0  0
   11.3699  -18.3670   24.2609 C   0  0  0  0  0  0  0  0  0  0  0  0
   12.7443  -18.4961   24.1926 O   0  0  0  0  0  0  0  0  0  0  0  0
   10.6838  -19.4171   24.2909 O   0  0  0  0  0  0  0  0  0  0  0  0
  2  1  1  6
  3  2  1  0
  3  4  1  0
  4  5  1  0
  5  6  1  0
  6  7  1  0
  8 10  1  0
  8  2  1  0
  9  8  2  0
 11 10  1  0
 11 12  1  6
 12 13  1  0
 13 17  1  0
 14 13  2  0
 14 15  1  0
 15 16  1  0
 17 16  2  0
 18 11  1  0
 19 18  2  0
 21 20  1  0
 21 22  2  0
 23 21  1  0
 24 23  1  0
 25 26  1  0
 25 24  1  0
 27 28  1  0
 27 26  1  1
 28 18  1  0
 29 30  1  0
 29 27  1  0
 31 29  2  0
M  END
$$$$
