KHR.pdb
     RDKit          3D

 31 31  0  0  1  0  0  0  0  0999 V2000
    7.1729  -16.5311   21.2187 N   0  0  0  0  0  0  0  0  0  0  0  0
    7.8870  -15.3063   21.3690 C   0  0  1  0  0  0  0  0  0  0  0  0
    7.3913  -14.1159   20.6862 C   0  0  0  0  0  0  0  0  0  0  0  0
    7.8357  -13.8147   19.3320 C   0  0  0  0  0  0  0  0  0  0  0  0
    7.6136  -12.6223   18.5504 C   0  0  0  0  0  0  0  0  0  0  0  0
    8.0640  -12.4038   17.1762 C   0  0  0  0  0  0  0  0  0  0  0  0
    7.6057  -13.6304   16.4232 N   0  0  0  0  0  0  0  0  0  0  0  0
    8.0290  -15.0873   22.8638 C   0  0  0  0  0  0  0  0  0  0  0  0
    7.5039  -14.0855   23.3720 O   0  0  0  0  0  0  0  0  0  0  0  0
    8.7297  -15.9704   23.6959 N   0  0  0  0  0  0  0  0  0  0  0  0
    8.7669  -15.8122   25.1588 C   0  0  1  0  0  0  0  0  0  0  0  0
    7.3516  -15.6493   25.5971 C   0  0  0  0  0  0  0  0  0  0  0  0
    7.1035  -14.1920   25.8251 C   0  0  0  0  0  0  0  0  0  0  0  0
    7.9689  -13.1417   25.6669 C   0  0  0  0  0  0  0  0  0  0  0  0
    7.3261  -12.0095   25.9828 N   0  0  0  0  0  0  0  0  0  0  0  0
    6.0674  -12.3190   26.3391 C   0  0  0  0  0  0  0  0  0  0  0  0
    5.9310  -13.6564   26.2425 N   0  0  0  0  0  0  0  0  0  0  0  0
    9.4722  -16.9549   25.7160 C   0  0  0  0  0  0  0  0  0  0  0  0
    9.6535  -17.0225   26.9584 O   0  0  0  0  0  0  0  0  0  0  0  0
   12.5145  -14.2077   19.4070 N   0  0  0  0  0  0  0  0  0  0  0  0
   13.5397  -15.2017   19.5327 C   0  0  0  0  0  0  0  0  0  0  0  0
   14.7162  -15.0072   19.0534 N   0  0  0  0  0  0  0  0  0  0  0  0
   13.2688  -16.4328   20.1983 N   0  0  0  0  0  0  0  0  0  0  0  0
   12.0415  -16.6086   20.9359 C   0  0  0  0  0  0  0  0  0  0  0  0
   12.4524  -16.8130   22.3931 C   0  0  0  0  0  0  0  0  0  0  0  0
   11.1647  -16.9633   23.1696 C   0  0  0  0  0  0  0  0  0  0  0  0
   11.2440  -18.0076   24.2473 C   0  0  2  0  0  0  0  0  0  0  0  0
    9.9927  -18.0394   24.9551 N   0  0  0  0  0  0  0  0  0  0  0  0
   12.3976  -17.7448   25.1087 C   0  0  0  0  0  0  0  0  0  0  0  0
   12.4652  -16.6619   25.9649 O   0  0  0  0  0  0  0  0  0  0  0  0
   13.3761  -18.5296   25.0788 O   0  0  0  0  0  0  0  0  0  0  0  0
  2  1  1  1
  3  2  1  0
  3  4  1  0
  4  5  1  0
  5  6  1  0
  6  7  1  0
  8 10  1  0
  8  2  1  0
  9  8  2  0
 11 10  1  0
 11 12  1  1
 12 13  1  0
 13 17  1  0
 14 13  2  0
 14 15  1  0
 15 16  1  0
 17 16  2  0
 18 11  1  0
 19 18  2  0
 21 20  1  0
 21 22  2  0
 23 21  1  0
 24 23  1  0
 25 26  1  0
 25 24  1  0
 27 28  1  0
 27 26  1  6
 28 18  1  0
 29 30  1  0
 29 27  1  0
 31 29  2  0
M  END
$$$$
