WPE.pdb
     RDKit          3D

 31 33  0  0  1  0  0  0  0  0999 V2000
   26.1863  -34.5193   -5.9154 N   0  0  0  0  0  0  0  0  0  0  0  0
   25.3291  -34.1250   -4.8589 C   0  0  1  0  0  0  0  0  0  0  0  0
   24.3192  -35.2273   -4.5526 C   0  0  0  0  0  0  0  0  0  0  0  0
   23.3837  -35.4916   -5.6411 C   0  0  0  0  0  0  0  0  0  0  0  0
   23.7015  -36.1766   -6.8280 C   0  0  0  0  0  0  0  0  0  0  0  0
   22.6100  -36.2607   -7.6043 N   0  0  0  0  0  0  0  0  0  0  0  0
   21.5745  -35.6479   -6.9616 C   0  0  0  0  0  0  0  0  0  0  0  0
   20.2556  -35.4375   -7.3019 C   0  0  0  0  0  0  0  0  0  0  0  0
   19.3762  -34.7669   -6.4761 C   0  0  0  0  0  0  0  0  0  0  0  0
   19.8699  -34.3007   -5.2731 C   0  0  0  0  0  0  0  0  0  0  0  0
   21.1877  -34.4984   -4.9081 C   0  0  0  0  0  0  0  0  0  0  0  0
   22.0615  -35.1741   -5.7442 C   0  0  0  0  0  0  0  0  0  0  0  0
   25.9750  -33.7308   -3.6014 C   0  0  0  0  0  0  0  0  0  0  0  0
   26.9431  -34.4072   -3.1921 O   0  0  0  0  0  0  0  0  0  0  0  0
   25.5624  -32.6061   -2.8103 N   0  0  0  0  0  0  0  0  0  0  0  0
   24.6654  -31.6108   -3.3187 C   0  0  0  0  0  0  0  0  0  0  0  0
   24.0981  -30.9322   -2.1126 C   0  0  0  0  0  0  0  0  0  0  0  0
   24.9012  -31.3534   -0.9410 C   0  0  0  0  0  0  0  0  0  0  0  0
   25.9872  -32.2669   -1.5016 C   0  0  1  0  0  0  0  0  0  0  0  0
   26.1817  -33.3864   -0.5520 C   0  0  0  0  0  0  0  0  0  0  0  0
   25.4656  -34.4336   -0.5992 O   0  0  0  0  0  0  0  0  0  0  0  0
   27.1751  -33.3477    0.4419 N   0  0  0  0  0  0  0  0  0  0  0  0
   27.3356  -34.5053    1.3701 C   0  0  1  0  0  0  0  0  0  0  0  0
   28.7861  -34.5032    1.7702 C   0  0  0  0  0  0  0  0  0  0  0  0
   29.2108  -35.5179    2.7557 C   0  0  0  0  0  0  0  0  0  0  0  0
   30.3533  -36.3468    2.3078 C   0  0  0  0  0  0  0  0  0  0  0  0
   30.9146  -36.0645    1.2065 O   0  0  0  0  0  0  0  0  0  0  0  0
   26.5538  -34.3018    2.6106 C   0  0  0  0  0  0  0  0  0  0  0  0
   26.2591  -33.1365    2.9613 O   0  0  0  0  0  0  0  0  0  0  0  0
   30.8526  -37.4136    3.0237 O   0  0  0  0  0  0  0  0  0  0  0  0
   26.1407  -35.3649    3.3891 O   0  0  0  0  0  0  0  0  0  0  0  0
  2  3  1  0
  2  1  1  6
  4  3  1  0
  5  4  2  0
  6  5  1  0
  7  6  1  0
  7 12  2  0
  8  7  1  0
  9  8  2  0
  9 10  1  0
 10 11  2  0
 11 12  1  0
 12  4  1  0
 13 15  1  0
 13  2  1  0
 14 13  2  0
 15 16  1  0
 17 16  1  0
 18 17  1  0
 19 18  1  0
 19 15  1  0
 20 21  2  0
 19 20  1  1
 22 20  1  0
 23 28  1  0
 23 22  1  0
 23 24  1  1
 25 24  1  0
 26 25  1  0
 26 27  2  0
 28 31  1  0
 29 28  2  0
 30 26  1  0
M  END
$$$$
