WPE.pdb
     RDKit          3D

 31 33  0  0  1  0  0  0  0  0999 V2000
   19.5360  -22.8223  -14.2574 N   0  0  0  0  0  0  0  0  0  0  0  0
   20.1097  -23.5817  -13.2083 C   0  0  1  0  0  0  0  0  0  0  0  0
   21.2428  -22.8036  -12.5454 C   0  0  0  0  0  0  0  0  0  0  0  0
   22.3184  -22.4316  -13.4590 C   0  0  0  0  0  0  0  0  0  0  0  0
   22.5351  -21.1363  -13.9632 C   0  0  0  0  0  0  0  0  0  0  0  0
   23.6161  -21.1388  -14.7587 N   0  0  0  0  0  0  0  0  0  0  0  0
   24.1226  -22.4049  -14.7952 C   0  0  0  0  0  0  0  0  0  0  0  0
   25.1981  -22.9634  -15.4517 C   0  0  0  0  0  0  0  0  0  0  0  0
   25.5182  -24.3015  -15.3423 C   0  0  0  0  0  0  0  0  0  0  0  0
   24.7087  -25.0811  -14.5391 C   0  0  0  0  0  0  0  0  0  0  0  0
   23.6248  -24.5459  -13.8699 C   0  0  0  0  0  0  0  0  0  0  0  0
   23.3133  -23.2010  -13.9860 C   0  0  0  0  0  0  0  0  0  0  0  0
   19.1958  -24.0470  -12.1585 C   0  0  0  0  0  0  0  0  0  0  0  0
   18.5334  -23.1963  -11.5263 O   0  0  0  0  0  0  0  0  0  0  0  0
   19.0125  -25.4286  -11.8144 N   0  0  0  0  0  0  0  0  0  0  0  0
   19.3585  -26.4864  -12.7172 C   0  0  0  0  0  0  0  0  0  0  0  0
   19.5066  -27.7060  -11.8641 C   0  0  0  0  0  0  0  0  0  0  0  0
   18.9556  -27.3878  -10.5261 C   0  0  0  0  0  0  0  0  0  0  0  0
   18.4378  -25.9563  -10.6313 C   0  0  1  0  0  0  0  0  0  0  0  0
   18.7571  -25.2577   -9.3653 C   0  0  0  0  0  0  0  0  0  0  0  0
   19.9123  -24.7829   -9.1381 O   0  0  0  0  0  0  0  0  0  0  0  0
   17.7937  -25.0782   -8.3575 N   0  0  0  0  0  0  0  0  0  0  0  0
   18.1634  -24.3597   -7.1027 C   0  0  1  0  0  0  0  0  0  0  0  0
   16.9923  -23.4691   -6.7879 C   0  0  0  0  0  0  0  0  0  0  0  0
   15.6894  -24.1284   -6.5669 C   0  0  0  0  0  0  0  0  0  0  0  0
   14.6483  -23.2294   -6.0183 C   0  0  0  0  0  0  0  0  0  0  0  0
   13.4845  -23.6938   -5.8244 O   0  0  0  0  0  0  0  0  0  0  0  0
   18.2936  -25.3043   -5.9703 C   0  0  0  0  0  0  0  0  0  0  0  0
   17.8401  -26.4653   -6.0896 O   0  0  0  0  0  0  0  0  0  0  0  0
   14.8698  -21.9074   -5.6972 O   0  0  0  0  0  0  0  0  0  0  0  0
   18.9038  -24.9370   -4.7872 O   0  0  0  0  0  0  0  0  0  0  0  0
  2  3  1  0
  2  1  1  6
  4  3  1  0
  5  4  2  0
  6  5  1  0
  7  6  1  0
  7 12  2  0
  8  7  1  0
  9  8  2  0
  9 10  1  0
 10 11  2  0
 11 12  1  0
 12  4  1  0
 13 15  1  0
 13  2  1  0
 14 13  2  0
 15 16  1  0
 17 16  1  0
 18 17  1  0
 19 18  1  0
 19 15  1  0
 20 21  2  0
 19 20  1  1
 22 20  1  0
 23 28  1  0
 23 22  1  0
 23 24  1  1
 25 24  1  0
 26 25  1  0
 26 27  2  0
 28 31  1  0
 29 28  2  0
 30 26  1  0
M  END
$$$$
