WPE.pdb
     RDKit          3D

 31 33  0  0  1  0  0  0  0  0999 V2000
   22.1119  -21.7064  -14.1791 N   0  0  0  0  0  0  0  0  0  0  0  0
   21.5606  -20.9832  -13.0931 C   0  0  1  0  0  0  0  0  0  0  0  0
   20.1941  -20.4171  -13.4688 C   0  0  0  0  0  0  0  0  0  0  0  0
   20.2474  -19.3632  -14.4769 C   0  0  0  0  0  0  0  0  0  0  0  0
   21.3638  -18.5455  -14.7293 C   0  0  0  0  0  0  0  0  0  0  0  0
   21.0819  -17.6961  -15.7295 N   0  0  0  0  0  0  0  0  0  0  0  0
   19.8047  -17.9299  -16.1476 C   0  0  0  0  0  0  0  0  0  0  0  0
   19.0178  -17.3502  -17.1193 C   0  0  0  0  0  0  0  0  0  0  0  0
   17.7210  -17.7565  -17.3611 C   0  0  0  0  0  0  0  0  0  0  0  0
   17.2246  -18.7826  -16.5808 C   0  0  0  0  0  0  0  0  0  0  0  0
   17.9927  -19.3808  -15.6004 C   0  0  0  0  0  0  0  0  0  0  0  0
   19.2937  -18.9659  -15.3670 C   0  0  0  0  0  0  0  0  0  0  0  0
   21.4253  -21.7065  -11.8234 C   0  0  0  0  0  0  0  0  0  0  0  0
   20.7347  -22.7481  -11.8025 O   0  0  0  0  0  0  0  0  0  0  0  0
   22.0452  -21.2900  -10.5973 N   0  0  0  0  0  0  0  0  0  0  0  0
   23.0403  -20.2593  -10.5637 C   0  0  0  0  0  0  0  0  0  0  0  0
   23.0644  -19.7747   -9.1489 C   0  0  0  0  0  0  0  0  0  0  0  0
   22.2902  -20.7374   -8.3311 C   0  0  0  0  0  0  0  0  0  0  0  0
   21.8466  -21.8283   -9.3014 C   0  0  1  0  0  0  0  0  0  0  0  0
   20.4641  -22.2237   -8.9478 C   0  0  0  0  0  0  0  0  0  0  0  0
   19.4636  -21.5106   -9.2673 O   0  0  0  0  0  0  0  0  0  0  0  0
   20.1918  -23.4128   -8.2492 N   0  0  0  0  0  0  0  0  0  0  0  0
   18.7800  -23.7703   -7.9231 C   0  0  1  0  0  0  0  0  0  0  0  0
   18.5502  -25.1184   -8.5505 C   0  0  0  0  0  0  0  0  0  0  0  0
   17.1941  -25.6911   -8.4303 C   0  0  0  0  0  0  0  0  0  0  0  0
   16.7561  -26.4496   -9.6243 C   0  0  0  0  0  0  0  0  0  0  0  0
   17.5691  -26.5911  -10.5870 O   0  0  0  0  0  0  0  0  0  0  0  0
   18.6018  -23.9463   -6.4641 C   0  0  0  0  0  0  0  0  0  0  0  0
   19.6137  -24.0635   -5.7360 O   0  0  0  0  0  0  0  0  0  0  0  0
   15.5086  -27.0216   -9.7531 O   0  0  0  0  0  0  0  0  0  0  0  0
   17.3479  -23.9828   -5.8867 O   0  0  0  0  0  0  0  0  0  0  0  0
  2  3  1  0
  2  1  1  6
  4  3  1  0
  5  4  2  0
  6  5  1  0
  7  6  1  0
  7 12  2  0
  8  7  1  0
  9  8  2  0
  9 10  1  0
 10 11  2  0
 11 12  1  0
 12  4  1  0
 13 15  1  0
 13  2  1  0
 14 13  2  0
 15 16  1  0
 17 16  1  0
 18 17  1  0
 19 18  1  0
 19 15  1  0
 20 21  2  0
 19 20  1  1
 22 20  1  0
 23 28  1  0
 23 22  1  0
 23 24  1  6
 25 24  1  0
 26 25  1  0
 26 27  2  0
 28 31  1  0
 29 28  2  0
 30 26  1  0
M  END
$$$$
