WPE.pdb
     RDKit          3D

 31 33  0  0  1  0  0  0  0  0999 V2000
   24.4865  -19.2018   -9.3635 N   0  0  0  0  0  0  0  0  0  0  0  0
   25.7114  -19.6751   -9.8947 C   0  0  1  0  0  0  0  0  0  0  0  0
   26.4764  -20.4716   -8.8416 C   0  0  0  0  0  0  0  0  0  0  0  0
   26.9029  -19.6776   -7.6938 C   0  0  0  0  0  0  0  0  0  0  0  0
   26.6043  -18.3166   -7.5001 C   0  0  0  0  0  0  0  0  0  0  0  0
   27.1315  -17.9019   -6.3376 N   0  0  0  0  0  0  0  0  0  0  0  0
   27.7733  -18.9549   -5.7543 C   0  0  0  0  0  0  0  0  0  0  0  0
   28.4821  -19.0836   -4.5794 C   0  0  0  0  0  0  0  0  0  0  0  0
   29.0644  -20.2739   -4.1932 C   0  0  0  0  0  0  0  0  0  0  0  0
   28.9138  -21.3549   -5.0399 C   0  0  0  0  0  0  0  0  0  0  0  0
   28.2080  -21.2525   -6.2233 C   0  0  0  0  0  0  0  0  0  0  0  0
   27.6265  -20.0530   -6.6006 C   0  0  0  0  0  0  0  0  0  0  0  0
   25.6282  -20.4867  -11.1146 C   0  0  0  0  0  0  0  0  0  0  0  0
   24.6058  -21.1818  -11.2984 O   0  0  0  0  0  0  0  0  0  0  0  0
   26.6546  -20.5279  -12.1176 N   0  0  0  0  0  0  0  0  0  0  0  0
   27.8853  -19.8082  -11.9720 C   0  0  0  0  0  0  0  0  0  0  0  0
   28.8473  -20.4709  -12.9059 C   0  0  0  0  0  0  0  0  0  0  0  0
   28.0692  -21.3732  -13.7865 C   0  0  0  0  0  0  0  0  0  0  0  0
   26.6127  -21.1877  -13.3711 C   0  0  1  0  0  0  0  0  0  0  0  0
   25.9523  -22.5126  -13.4061 C   0  0  0  0  0  0  0  0  0  0  0  0
   26.1733  -23.3921  -12.5178 O   0  0  0  0  0  0  0  0  0  0  0  0
   25.0413  -22.8572  -14.4198 N   0  0  0  0  0  0  0  0  0  0  0  0
   24.3824  -24.1960  -14.3958 C   0  0  1  0  0  0  0  0  0  0  0  0
   23.0081  -23.9591  -13.8310 C   0  0  0  0  0  0  0  0  0  0  0  0
   22.1728  -22.9440  -14.5042 C   0  0  0  0  0  0  0  0  0  0  0  0
   21.7248  -21.8497  -13.6127 C   0  0  0  0  0  0  0  0  0  0  0  0
   21.1749  -22.1499  -12.5104 O   0  0  0  0  0  0  0  0  0  0  0  0
   24.1922  -24.7173  -15.7682 C   0  0  0  0  0  0  0  0  0  0  0  0
   23.8146  -25.9010  -15.9239 O   0  0  0  0  0  0  0  0  0  0  0  0
   21.8748  -20.5116  -13.9077 O   0  0  0  0  0  0  0  0  0  0  0  0
   24.4193  -23.9303  -16.8800 O   0  0  0  0  0  0  0  0  0  0  0  0
  2  3  1  0
  2  1  1  1
  4  3  1  0
  5  4  2  0
  6  5  1  0
  7  6  1  0
  7 12  2  0
  8  7  1  0
  9  8  2  0
  9 10  1  0
 10 11  2  0
 11 12  1  0
 12  4  1  0
 13 15  1  0
 13  2  1  0
 14 13  2  0
 15 16  1  0
 17 16  1  0
 18 17  1  0
 19 18  1  0
 19 15  1  0
 20 21  2  0
 19 20  1  1
 22 20  1  0
 23 28  1  0
 23 22  1  0
 23 24  1  6
 25 24  1  0
 26 25  1  0
 26 27  2  0
 28 31  1  0
 29 28  2  0
 30 26  1  0
M  END
$$$$
