WPE.pdb
     RDKit          3D

 31 33  0  0  1  0  0  0  0  0999 V2000
   25.0245  -18.6513  -16.8955 N   0  0  0  0  0  0  0  0  0  0  0  0
   25.7844  -18.4074  -15.7252 C   0  0  1  0  0  0  0  0  0  0  0  0
   25.2827  -17.1527  -15.0161 C   0  0  0  0  0  0  0  0  0  0  0  0
   25.5617  -15.9146  -15.7365 C   0  0  0  0  0  0  0  0  0  0  0  0
   26.7207  -15.1335  -15.5771 C   0  0  0  0  0  0  0  0  0  0  0  0
   26.6665  -14.0755  -16.4012 N   0  0  0  0  0  0  0  0  0  0  0  0
   25.4991  -14.1351  -17.1043 C   0  0  0  0  0  0  0  0  0  0  0  0
   24.9400  -13.3145  -18.0602 C   0  0  0  0  0  0  0  0  0  0  0  0
   23.7140  -13.5784  -18.6367 C   0  0  0  0  0  0  0  0  0  0  0  0
   23.0490  -14.7134  -18.2152 C   0  0  0  0  0  0  0  0  0  0  0  0
   23.5874  -15.5527  -17.2588 C   0  0  0  0  0  0  0  0  0  0  0  0
   24.8195  -15.2788  -16.6875 C   0  0  0  0  0  0  0  0  0  0  0  0
   25.8466  -19.4966  -14.7437 C   0  0  0  0  0  0  0  0  0  0  0  0
   24.7817  -20.0612  -14.4130 O   0  0  0  0  0  0  0  0  0  0  0  0
   27.0644  -19.9584  -14.1397 N   0  0  0  0  0  0  0  0  0  0  0  0
   28.3250  -19.8735  -14.8160 C   0  0  0  0  0  0  0  0  0  0  0  0
   29.3609  -19.9612  -13.7407 C   0  0  0  0  0  0  0  0  0  0  0  0
   28.6810  -20.3898  -12.4960 C   0  0  0  0  0  0  0  0  0  0  0  0
   27.2193  -20.5947  -12.8828 C   0  0  1  0  0  0  0  0  0  0  0  0
   26.3756  -20.0946  -11.7733 C   0  0  0  0  0  0  0  0  0  0  0  0
   26.2723  -18.8550  -11.5199 O   0  0  0  0  0  0  0  0  0  0  0  0
   25.6408  -20.9680  -10.9528 N   0  0  0  0  0  0  0  0  0  0  0  0
   24.8581  -20.4199   -9.8062 C   0  0  1  0  0  0  0  0  0  0  0  0
   23.5045  -20.0793  -10.3681 C   0  0  0  0  0  0  0  0  0  0  0  0
   22.8169  -21.1314  -11.1437 C   0  0  0  0  0  0  0  0  0  0  0  0
   21.3832  -20.8541  -11.3896 C   0  0  0  0  0  0  0  0  0  0  0  0
   20.7217  -21.6629  -12.1079 O   0  0  0  0  0  0  0  0  0  0  0  0
   24.6388  -21.4557   -8.7715 C   0  0  0  0  0  0  0  0  0  0  0  0
   24.1267  -21.1258   -7.6775 O   0  0  0  0  0  0  0  0  0  0  0  0
   20.7151  -19.7630  -10.8763 O   0  0  0  0  0  0  0  0  0  0  0  0
   24.9833  -22.7760   -8.9837 O   0  0  0  0  0  0  0  0  0  0  0  0
  2  3  1  0
  2  1  1  6
  4  3  1  0
  5  4  2  0
  6  5  1  0
  7  6  1  0
  7 12  2  0
  8  7  1  0
  9  8  2  0
  9 10  1  0
 10 11  2  0
 11 12  1  0
 12  4  1  0
 13 15  1  0
 13  2  1  0
 14 13  2  0
 15 16  1  0
 17 16  1  0
 18 17  1  0
 19 18  1  0
 19 15  1  0
 20 21  2  0
 19 20  1  1
 22 20  1  0
 23 28  1  0
 23 22  1  0
 23 24  1  6
 25 24  1  0
 26 25  1  0
 26 27  2  0
 28 31  1  0
 29 28  2  0
 30 26  1  0
M  END
$$$$
