WPE.pdb
     RDKit          3D

 31 33  0  0  1  0  0  0  0  0999 V2000
   24.1083  -19.4588  -11.4808 N   0  0  0  0  0  0  0  0  0  0  0  0
   25.3206  -19.6261  -12.1943 C   0  0  1  0  0  0  0  0  0  0  0  0
   26.0240  -20.9076  -11.7563 C   0  0  0  0  0  0  0  0  0  0  0  0
   26.6283  -20.8269  -10.4304 C   0  0  0  0  0  0  0  0  0  0  0  0
   25.9251  -20.5739   -9.2386 C   0  0  0  0  0  0  0  0  0  0  0  0
   26.7781  -20.5851   -8.2025 N   0  0  0  0  0  0  0  0  0  0  0  0
   28.0313  -20.8394   -8.6773 C   0  0  0  0  0  0  0  0  0  0  0  0
   29.2599  -20.9496   -8.0626 C   0  0  0  0  0  0  0  0  0  0  0  0
   30.4189  -21.2078   -8.7663 C   0  0  0  0  0  0  0  0  0  0  0  0
   30.3076  -21.3530  -10.1355 C   0  0  0  0  0  0  0  0  0  0  0  0
   29.0880  -21.2475  -10.7761 C   0  0  0  0  0  0  0  0  0  0  0  0
   27.9306  -20.9893  -10.0598 C   0  0  0  0  0  0  0  0  0  0  0  0
   25.2253  -19.6314  -13.6588 C   0  0  0  0  0  0  0  0  0  0  0  0
   24.1707  -20.0473  -14.1850 O   0  0  0  0  0  0  0  0  0  0  0  0
   26.2750  -19.1813  -14.5287 N   0  0  0  0  0  0  0  0  0  0  0  0
   27.4963  -18.6305  -14.0201 C   0  0  0  0  0  0  0  0  0  0  0  0
   28.4849  -18.7559  -15.1354 C   0  0  0  0  0  0  0  0  0  0  0  0
   27.7345  -19.1084  -16.3632 C   0  0  0  0  0  0  0  0  0  0  0  0
   26.2673  -19.1431  -15.9453 C   0  0  1  0  0  0  0  0  0  0  0  0
   25.6182  -20.2784  -16.6400 C   0  0  0  0  0  0  0  0  0  0  0  0
   26.0951  -21.4537  -16.5875 O   0  0  0  0  0  0  0  0  0  0  0  0
   24.4369  -20.1113  -17.3835 N   0  0  0  0  0  0  0  0  0  0  0  0
   23.7547  -21.3055  -17.9630 C   0  0  1  0  0  0  0  0  0  0  0  0
   22.6550  -21.6507  -16.9958 C   0  0  0  0  0  0  0  0  0  0  0  0
   21.7527  -22.7570  -17.3741 C   0  0  0  0  0  0  0  0  0  0  0  0
   20.6579  -22.9950  -16.4059 C   0  0  0  0  0  0  0  0  0  0  0  0
   20.5975  -22.2716  -15.3662 O   0  0  0  0  0  0  0  0  0  0  0  0
   23.0992  -20.9696  -19.2472 C   0  0  0  0  0  0  0  0  0  0  0  0
   22.9135  -19.7666  -19.5407 O   0  0  0  0  0  0  0  0  0  0  0  0
   19.6875  -23.9603  -16.5690 O   0  0  0  0  0  0  0  0  0  0  0  0
   22.6893  -21.9498  -20.1294 O   0  0  0  0  0  0  0  0  0  0  0  0
  2  3  1  0
  2  1  1  1
  4  3  1  0
  5  4  2  0
  6  5  1  0
  7  6  1  0
  7 12  2  0
  8  7  1  0
  9  8  2  0
  9 10  1  0
 10 11  2  0
 11 12  1  0
 12  4  1  0
 13 15  1  0
 13  2  1  0
 14 13  2  0
 15 16  1  0
 17 16  1  0
 18 17  1  0
 19 18  1  0
 19 15  1  0
 20 21  2  0
 19 20  1  6
 22 20  1  0
 23 28  1  0
 23 22  1  0
 23 24  1  1
 25 24  1  0
 26 25  1  0
 26 27  2  0
 28 31  1  0
 29 28  2  0
 30 26  1  0
M  END
$$$$
