WPE.pdb
     RDKit          3D

 31 33  0  0  1  0  0  0  0  0999 V2000
   24.5604  -20.6626  -16.9325 N   0  0  0  0  0  0  0  0  0  0  0  0
   25.2378  -19.9377  -15.9214 C   0  0  1  0  0  0  0  0  0  0  0  0
   24.4276  -18.7112  -15.5115 C   0  0  0  0  0  0  0  0  0  0  0  0
   24.0649  -17.8423  -16.6266 C   0  0  0  0  0  0  0  0  0  0  0  0
   22.7493  -17.5885  -17.0553 C   0  0  0  0  0  0  0  0  0  0  0  0
   22.7708  -16.7339  -18.0899 N   0  0  0  0  0  0  0  0  0  0  0  0
   24.0692  -16.4139  -18.3590 C   0  0  0  0  0  0  0  0  0  0  0  0
   24.6555  -15.6021  -19.3060 C   0  0  0  0  0  0  0  0  0  0  0  0
   26.0230  -15.4366  -19.3944 C   0  0  0  0  0  0  0  0  0  0  0  0
   26.8029  -16.1264  -18.4866 C   0  0  0  0  0  0  0  0  0  0  0  0
   26.2402  -16.9463  -17.5274 C   0  0  0  0  0  0  0  0  0  0  0  0
   24.8662  -17.1043  -17.4468 C   0  0  0  0  0  0  0  0  0  0  0  0
   25.5934  -20.6807  -14.7068 C   0  0  0  0  0  0  0  0  0  0  0  0
   24.7057  -21.3529  -14.1391 O   0  0  0  0  0  0  0  0  0  0  0  0
   26.9081  -20.6856  -14.1302 N   0  0  0  0  0  0  0  0  0  0  0  0
   28.0839  -20.4796  -14.9232 C   0  0  0  0  0  0  0  0  0  0  0  0
   29.1466  -20.0589  -13.9585 C   0  0  0  0  0  0  0  0  0  0  0  0
   28.6382  -20.3147  -12.5906 C   0  0  0  0  0  0  0  0  0  0  0  0
   27.2598  -20.9407  -12.7812 C   0  0  1  0  0  0  0  0  0  0  0  0
   26.3585  -20.3933  -11.7417 C   0  0  0  0  0  0  0  0  0  0  0  0
   25.8730  -19.2236  -11.8279 O   0  0  0  0  0  0  0  0  0  0  0  0
   25.9893  -21.1462  -10.6134 N   0  0  0  0  0  0  0  0  0  0  0  0
   25.1906  -20.5052   -9.5277 C   0  0  1  0  0  0  0  0  0  0  0  0
   23.9454  -21.3396   -9.3968 C   0  0  0  0  0  0  0  0  0  0  0  0
   22.9788  -20.9417   -8.3535 C   0  0  0  0  0  0  0  0  0  0  0  0
   21.6823  -21.6526   -8.4354 C   0  0  0  0  0  0  0  0  0  0  0  0
   21.4095  -22.3003   -9.4908 O   0  0  0  0  0  0  0  0  0  0  0  0
   25.8966  -20.5914   -8.2294 C   0  0  0  0  0  0  0  0  0  0  0  0
   25.4702  -19.9261   -7.2581 O   0  0  0  0  0  0  0  0  0  0  0  0
   20.7467  -21.6582   -7.4232 O   0  0  0  0  0  0  0  0  0  0  0  0
   27.0122  -21.3882   -8.0630 O   0  0  0  0  0  0  0  0  0  0  0  0
  2  3  1  0
  2  1  1  6
  4  3  1  0
  5  4  2  0
  6  5  1  0
  7  6  1  0
  7 12  2  0
  8  7  1  0
  9  8  2  0
  9 10  1  0
 10 11  2  0
 11 12  1  0
 12  4  1  0
 13 15  1  0
 13  2  1  0
 14 13  2  0
 15 16  1  0
 17 16  1  0
 18 17  1  0
 19 18  1  0
 19 15  1  0
 20 21  2  0
 19 20  1  1
 22 20  1  0
 23 28  1  0
 23 22  1  0
 23 24  1  1
 25 24  1  0
 26 25  1  0
 26 27  2  0
 28 31  1  0
 29 28  2  0
 30 26  1  0
M  END
$$$$
