WPE.pdb
     RDKit          3D

 31 33  0  0  1  0  0  0  0  0999 V2000
   24.5531  -20.3771  -13.9251 N   0  0  0  0  0  0  0  0  0  0  0  0
   24.1248  -21.1419  -12.8124 C   0  0  1  0  0  0  0  0  0  0  0  0
   24.4690  -20.4258  -11.5095 C   0  0  0  0  0  0  0  0  0  0  0  0
   25.7632  -20.8038  -10.9510 C   0  0  0  0  0  0  0  0  0  0  0  0
   26.7899  -21.4504  -11.6627 C   0  0  0  0  0  0  0  0  0  0  0  0
   27.8481  -21.6338  -10.8578 N   0  0  0  0  0  0  0  0  0  0  0  0
   27.5490  -21.1245   -9.6282 C   0  0  0  0  0  0  0  0  0  0  0  0
   28.2557  -21.0564   -8.4469 C   0  0  0  0  0  0  0  0  0  0  0  0
   27.7312  -20.4904   -7.3025 C   0  0  0  0  0  0  0  0  0  0  0  0
   26.4476  -19.9857   -7.3785 C   0  0  0  0  0  0  0  0  0  0  0  0
   25.7180  -20.0412   -8.5504 C   0  0  0  0  0  0  0  0  0  0  0  0
   26.2547  -20.6105   -9.6937 C   0  0  0  0  0  0  0  0  0  0  0  0
   22.7040  -21.5076  -12.7747 C   0  0  0  0  0  0  0  0  0  0  0  0
   21.8584  -20.5967  -12.6428 O   0  0  0  0  0  0  0  0  0  0  0  0
   22.2235  -22.8559  -12.8847 N   0  0  0  0  0  0  0  0  0  0  0  0
   23.0458  -23.9139  -13.3928 C   0  0  0  0  0  0  0  0  0  0  0  0
   22.4195  -25.1785  -12.8972 C   0  0  0  0  0  0  0  0  0  0  0  0
   21.0824  -24.8363  -12.3584 C   0  0  0  0  0  0  0  0  0  0  0  0
   20.9228  -23.3370  -12.5928 C   0  0  1  0  0  0  0  0  0  0  0  0
   20.2464  -22.7563  -11.4105 C   0  0  0  0  0  0  0  0  0  0  0  0
   20.9017  -22.2486  -10.4490 O   0  0  0  0  0  0  0  0  0  0  0  0
   18.8452  -22.7306  -11.2998 N   0  0  0  0  0  0  0  0  0  0  0  0
   18.2141  -22.3071  -10.0153 C   0  0  1  0  0  0  0  0  0  0  0  0
   16.8030  -21.9213  -10.3673 C   0  0  0  0  0  0  0  0  0  0  0  0
   15.9460  -21.4380   -9.2659 C   0  0  0  0  0  0  0  0  0  0  0  0
   14.7014  -22.2205   -9.0876 C   0  0  0  0  0  0  0  0  0  0  0  0
   14.2822  -22.9250  -10.0549 O   0  0  0  0  0  0  0  0  0  0  0  0
   18.1195  -23.4439   -9.0717 C   0  0  0  0  0  0  0  0  0  0  0  0
   18.0982  -24.6114   -9.5238 O   0  0  0  0  0  0  0  0  0  0  0  0
   13.9660  -22.2346   -7.9219 O   0  0  0  0  0  0  0  0  0  0  0  0
   18.0557  -23.2484   -7.7062 O   0  0  0  0  0  0  0  0  0  0  0  0
  2  3  1  0
  2  1  1  6
  4  3  1  0
  5  4  2  0
  6  5  1  0
  7  6  1  0
  7 12  2  0
  8  7  1  0
  9  8  2  0
  9 10  1  0
 10 11  2  0
 11 12  1  0
 12  4  1  0
 13 15  1  0
 13  2  1  0
 14 13  2  0
 15 16  1  0
 17 16  1  0
 18 17  1  0
 19 18  1  0
 19 15  1  0
 20 21  2  0
 19 20  1  1
 22 20  1  0
 23 28  1  0
 23 22  1  0
 23 24  1  6
 25 24  1  0
 26 25  1  0
 26 27  2  0
 28 31  1  0
 29 28  2  0
 30 26  1  0
M  END
$$$$
