WPE.pdb
     RDKit          3D

 31 33  0  0  1  0  0  0  0  0999 V2000
   26.8001  -19.5586  -12.6068 N   0  0  0  0  0  0  0  0  0  0  0  0
   26.2748  -20.8625  -12.4323 C   0  0  1  0  0  0  0  0  0  0  0  0
   26.1113  -21.1768  -10.9480 C   0  0  0  0  0  0  0  0  0  0  0  0
   27.3284  -20.9863  -10.1655 C   0  0  0  0  0  0  0  0  0  0  0  0
   28.6237  -21.3284  -10.5945 C   0  0  0  0  0  0  0  0  0  0  0  0
   29.5126  -21.0045   -9.6426 N   0  0  0  0  0  0  0  0  0  0  0  0
   28.8388  -20.4555   -8.5912 C   0  0  0  0  0  0  0  0  0  0  0  0
   29.2495  -19.9667   -7.3697 C   0  0  0  0  0  0  0  0  0  0  0  0
   28.3644  -19.4574   -6.4411 C   0  0  0  0  0  0  0  0  0  0  0  0
   27.0252  -19.4547   -6.7799 C   0  0  0  0  0  0  0  0  0  0  0  0
   26.5874  -19.9385   -7.9977 C   0  0  0  0  0  0  0  0  0  0  0  0
   27.4847  -20.4465   -8.9231 C   0  0  0  0  0  0  0  0  0  0  0  0
   25.0046  -21.1545  -13.1068 C   0  0  0  0  0  0  0  0  0  0  0  0
   24.0503  -20.3632  -12.9470 O   0  0  0  0  0  0  0  0  0  0  0  0
   24.7915  -22.2987  -13.9473 N   0  0  0  0  0  0  0  0  0  0  0  0
   25.8695  -23.1509  -14.3542 C   0  0  0  0  0  0  0  0  0  0  0  0
   25.2276  -24.4399  -14.7585 C   0  0  0  0  0  0  0  0  0  0  0  0
   23.7680  -24.2042  -14.8543 C   0  0  0  0  0  0  0  0  0  0  0  0
   23.5750  -22.7243  -14.5368 C   0  0  1  0  0  0  0  0  0  0  0  0
   22.3511  -22.5862  -13.7148 C   0  0  0  0  0  0  0  0  0  0  0  0
   22.3370  -22.8902  -12.4824 O   0  0  0  0  0  0  0  0  0  0  0  0
   21.1477  -22.1028  -14.2574 N   0  0  0  0  0  0  0  0  0  0  0  0
   19.9294  -22.0259  -13.3988 C   0  0  1  0  0  0  0  0  0  0  0  0
   19.2487  -20.7391  -13.7790 C   0  0  0  0  0  0  0  0  0  0  0  0
   19.9360  -19.4840  -13.4135 C   0  0  0  0  0  0  0  0  0  0  0  0
   19.2170  -18.2613  -13.8389 C   0  0  0  0  0  0  0  0  0  0  0  0
   18.2909  -17.8117  -13.0987 O   0  0  0  0  0  0  0  0  0  0  0  0
   18.9834  -23.1174  -13.7229 C   0  0  0  0  0  0  0  0  0  0  0  0
   19.0392  -23.6576  -14.8511 O   0  0  0  0  0  0  0  0  0  0  0  0
   19.4984  -17.5719  -14.9989 O   0  0  0  0  0  0  0  0  0  0  0  0
   18.0426  -23.5550  -12.8116 O   0  0  0  0  0  0  0  0  0  0  0  0
  2  3  1  0
  2  1  1  1
  4  3  1  0
  5  4  2  0
  6  5  1  0
  7  6  1  0
  7 12  2  0
  8  7  1  0
  9  8  2  0
  9 10  1  0
 10 11  2  0
 11 12  1  0
 12  4  1  0
 13 15  1  0
 13  2  1  0
 14 13  2  0
 15 16  1  0
 17 16  1  0
 18 17  1  0
 19 18  1  0
 19 15  1  0
 20 21  2  0
 19 20  1  1
 22 20  1  0
 23 28  1  0
 23 22  1  0
 23 24  1  6
 25 24  1  0
 26 25  1  0
 26 27  2  0
 28 31  1  0
 29 28  2  0
 30 26  1  0
M  END
$$$$
