WPE.pdb
     RDKit          3D

 31 33  0  0  1  0  0  0  0  0999 V2000
   16.5354  -10.7022  -14.8700 N   0  0  0  0  0  0  0  0  0  0  0  0
   17.5587  -10.0477  -15.5988 C   0  0  1  0  0  0  0  0  0  0  0  0
   17.0629   -9.6712  -16.9921 C   0  0  0  0  0  0  0  0  0  0  0  0
   16.7958  -10.8177  -17.8547 C   0  0  0  0  0  0  0  0  0  0  0  0
   16.2885  -12.0545  -17.4167 C   0  0  0  0  0  0  0  0  0  0  0  0
   16.1453  -12.8785  -18.4662 N   0  0  0  0  0  0  0  0  0  0  0  0
   16.5453  -12.2189  -19.5912 C   0  0  0  0  0  0  0  0  0  0  0  0
   16.6161  -12.5887  -20.9170 C   0  0  0  0  0  0  0  0  0  0  0  0
   17.0742  -11.7348  -21.8999 C   0  0  0  0  0  0  0  0  0  0  0  0
   17.4704  -10.4717  -21.5051 C   0  0  0  0  0  0  0  0  0  0  0  0
   17.4092  -10.0760  -20.1828 C   0  0  0  0  0  0  0  0  0  0  0  0
   16.9465  -10.9409  -19.2044 C   0  0  0  0  0  0  0  0  0  0  0  0
   18.1438   -8.8523  -14.9804 C   0  0  0  0  0  0  0  0  0  0  0  0
   17.3767   -7.9369  -14.6120 O   0  0  0  0  0  0  0  0  0  0  0  0
   19.5521   -8.6715  -14.7679 N   0  0  0  0  0  0  0  0  0  0  0  0
   20.4688   -9.7727  -14.7890 C   0  0  0  0  0  0  0  0  0  0  0  0
   21.8139   -9.1668  -15.0354 C   0  0  0  0  0  0  0  0  0  0  0  0
   21.6855   -7.7014  -14.8589 C   0  0  0  0  0  0  0  0  0  0  0  0
   20.2321   -7.4676  -14.4572 C   0  0  1  0  0  0  0  0  0  0  0  0
   19.7593   -6.2397  -15.1365 C   0  0  0  0  0  0  0  0  0  0  0  0
   19.3576   -6.2556  -16.3406 O   0  0  0  0  0  0  0  0  0  0  0  0
   19.7234   -4.9984  -14.4776 N   0  0  0  0  0  0  0  0  0  0  0  0
   19.2390   -3.7897  -15.2068 C   0  0  1  0  0  0  0  0  0  0  0  0
   18.0815   -3.2684  -14.3992 C   0  0  0  0  0  0  0  0  0  0  0  0
   17.4254   -2.0378  -14.8854 C   0  0  0  0  0  0  0  0  0  0  0  0
   16.1208   -1.7601  -14.2422 C   0  0  0  0  0  0  0  0  0  0  0  0
   15.6736   -2.5876  -13.3918 O   0  0  0  0  0  0  0  0  0  0  0  0
   20.2675   -2.7249  -15.2090 C   0  0  0  0  0  0  0  0  0  0  0  0
   21.1565   -2.7342  -14.3272 O   0  0  0  0  0  0  0  0  0  0  0  0
   15.3573   -0.6440  -14.5093 O   0  0  0  0  0  0  0  0  0  0  0  0
   20.2713   -1.7234  -16.1597 O   0  0  0  0  0  0  0  0  0  0  0  0
  2  3  1  0
  2  1  1  1
  4  3  1  0
  5  4  2  0
  6  5  1  0
  7  6  1  0
  7 12  2  0
  8  7  1  0
  9  8  2  0
  9 10  1  0
 10 11  2  0
 11 12  1  0
 12  4  1  0
 13 15  1  0
 13  2  1  0
 14 13  2  0
 15 16  1  0
 17 16  1  0
 18 17  1  0
 19 18  1  0
 19 15  1  0
 20 21  2  0
 19 20  1  6
 22 20  1  0
 23 28  1  0
 23 22  1  0
 23 24  1  1
 25 24  1  0
 26 25  1  0
 26 27  2  0
 28 31  1  0
 29 28  2  0
 30 26  1  0
M  END
$$$$
