WPE.pdb
     RDKit          3D

 31 33  0  0  1  0  0  0  0  0999 V2000
   24.8205  -19.1426   -9.3252 N   0  0  0  0  0  0  0  0  0  0  0  0
   26.0230  -19.7136   -9.8096 C   0  0  1  0  0  0  0  0  0  0  0  0
   26.3403  -21.0038   -9.0589 C   0  0  0  0  0  0  0  0  0  0  0  0
   26.4097  -20.8432   -7.6100 C   0  0  0  0  0  0  0  0  0  0  0  0
   25.3659  -21.1417   -6.7154 C   0  0  0  0  0  0  0  0  0  0  0  0
   25.7677  -20.8973   -5.4584 N   0  0  0  0  0  0  0  0  0  0  0  0
   27.0536  -20.4436   -5.4964 C   0  0  0  0  0  0  0  0  0  0  0  0
   27.9328  -20.0411   -4.5143 C   0  0  0  0  0  0  0  0  0  0  0  0
   29.2098  -19.6016   -4.7992 C   0  0  0  0  0  0  0  0  0  0  0  0
   29.5869  -19.5747   -6.1279 C   0  0  0  0  0  0  0  0  0  0  0  0
   28.7249  -19.9730   -7.1314 C   0  0  0  0  0  0  0  0  0  0  0  0
   27.4455  -20.4136   -6.8340 C   0  0  0  0  0  0  0  0  0  0  0  0
   26.0845  -19.9923  -11.2491 C   0  0  0  0  0  0  0  0  0  0  0  0
   25.0113  -20.1041  -11.8800 O   0  0  0  0  0  0  0  0  0  0  0  0
   27.3101  -20.1411  -11.9819 N   0  0  0  0  0  0  0  0  0  0  0  0
   28.5873  -19.8979  -11.3790 C   0  0  0  0  0  0  0  0  0  0  0  0
   29.5775  -20.6153  -12.2403 C   0  0  0  0  0  0  0  0  0  0  0  0
   28.8832  -21.0132  -13.4871 C   0  0  0  0  0  0  0  0  0  0  0  0
   27.4642  -20.4686  -13.3520 C   0  0  1  0  0  0  0  0  0  0  0  0
   26.5306  -21.4755  -13.9065 C   0  0  0  0  0  0  0  0  0  0  0  0
   26.1968  -22.5092  -13.2496 O   0  0  0  0  0  0  0  0  0  0  0  0
   25.9613  -21.3306  -15.1836 N   0  0  0  0  0  0  0  0  0  0  0  0
   24.7997  -22.1821  -15.5747 C   0  0  1  0  0  0  0  0  0  0  0  0
   23.6586  -21.7326  -14.7029 C   0  0  0  0  0  0  0  0  0  0  0  0
   22.3613  -22.4121  -14.8940 C   0  0  0  0  0  0  0  0  0  0  0  0
   21.2990  -21.9450  -13.9741 C   0  0  0  0  0  0  0  0  0  0  0  0
   20.1374  -22.4411  -14.0846 O   0  0  0  0  0  0  0  0  0  0  0  0
   24.3946  -21.9153  -16.9733 C   0  0  0  0  0  0  0  0  0  0  0  0
   23.9371  -22.8535  -17.6650 O   0  0  0  0  0  0  0  0  0  0  0  0
   21.4981  -20.9986  -12.9919 O   0  0  0  0  0  0  0  0  0  0  0  0
   24.5075  -20.6579  -17.5329 O   0  0  0  0  0  0  0  0  0  0  0  0
  2  3  1  0
  2  1  1  1
  4  3  1  0
  5  4  2  0
  6  5  1  0
  7  6  1  0
  7 12  2  0
  8  7  1  0
  9  8  2  0
  9 10  1  0
 10 11  2  0
 11 12  1  0
 12  4  1  0
 13 15  1  0
 13  2  1  0
 14 13  2  0
 15 16  1  0
 17 16  1  0
 18 17  1  0
 19 18  1  0
 19 15  1  0
 20 21  2  0
 19 20  1  1
 22 20  1  0
 23 28  1  0
 23 22  1  0
 23 24  1  1
 25 24  1  0
 26 25  1  0
 26 27  2  0
 28 31  1  0
 29 28  2  0
 30 26  1  0
M  END
$$$$
