WPE.pdb
     RDKit          3D

 31 33  0  0  1  0  0  0  0  0999 V2000
   25.2839  -21.5938  -12.5329 N   0  0  0  0  0  0  0  0  0  0  0  0
   24.9558  -21.4543  -11.1619 C   0  0  1  0  0  0  0  0  0  0  0  0
   25.5854  -20.1875  -10.5896 C   0  0  0  0  0  0  0  0  0  0  0  0
   26.9080  -20.3949  -10.0086 C   0  0  0  0  0  0  0  0  0  0  0  0
   28.0087  -20.9479  -10.6880 C   0  0  0  0  0  0  0  0  0  0  0  0
   29.0721  -20.9795   -9.8699 N   0  0  0  0  0  0  0  0  0  0  0  0
   28.7044  -20.4608   -8.6631 C   0  0  0  0  0  0  0  0  0  0  0  0
   29.3862  -20.2681   -7.4809 C   0  0  0  0  0  0  0  0  0  0  0  0
   28.7890  -19.7217   -6.3629 C   0  0  0  0  0  0  0  0  0  0  0  0
   27.4575  -19.3687   -6.4666 C   0  0  0  0  0  0  0  0  0  0  0  0
   26.7514  -19.5512   -7.6401 C   0  0  0  0  0  0  0  0  0  0  0  0
   27.3611  -20.0994   -8.7568 C   0  0  0  0  0  0  0  0  0  0  0  0
   23.5272  -21.4500  -10.8257 C   0  0  0  0  0  0  0  0  0  0  0  0
   22.7185  -21.0081  -11.6700 O   0  0  0  0  0  0  0  0  0  0  0  0
   22.9989  -21.9292   -9.5798 N   0  0  0  0  0  0  0  0  0  0  0  0
   23.8352  -22.1493   -8.4370 C   0  0  0  0  0  0  0  0  0  0  0  0
   22.9117  -22.1446   -7.2605 C   0  0  0  0  0  0  0  0  0  0  0  0
   21.5251  -22.2146   -7.7777 C   0  0  0  0  0  0  0  0  0  0  0  0
   21.6627  -22.3055   -9.2947 C   0  0  1  0  0  0  0  0  0  0  0  0
   20.5932  -21.4820   -9.9035 C   0  0  0  0  0  0  0  0  0  0  0  0
   20.6600  -20.2146   -9.9297 O   0  0  0  0  0  0  0  0  0  0  0  0
   19.4563  -22.0644  -10.4904 N   0  0  0  0  0  0  0  0  0  0  0  0
   18.2108  -21.2569  -10.6465 C   0  0  1  0  0  0  0  0  0  0  0  0
   17.7653  -21.4736  -12.0672 C   0  0  0  0  0  0  0  0  0  0  0  0
   18.6866  -21.0310  -13.1333 C   0  0  0  0  0  0  0  0  0  0  0  0
   18.1584  -21.2298  -14.5024 C   0  0  0  0  0  0  0  0  0  0  0  0
   17.0405  -21.8111  -14.6445 O   0  0  0  0  0  0  0  0  0  0  0  0
   17.1298  -21.7778   -9.7795 C   0  0  0  0  0  0  0  0  0  0  0  0
   17.2951  -22.8689   -9.1880 O   0  0  0  0  0  0  0  0  0  0  0  0
   18.8106  -20.8131  -15.6430 O   0  0  0  0  0  0  0  0  0  0  0  0
   15.9453  -21.0895   -9.6062 O   0  0  0  0  0  0  0  0  0  0  0  0
  2  3  1  0
  2  1  1  6
  4  3  1  0
  5  4  2  0
  6  5  1  0
  7  6  1  0
  7 12  2  0
  8  7  1  0
  9  8  2  0
  9 10  1  0
 10 11  2  0
 11 12  1  0
 12  4  1  0
 13 15  1  0
 13  2  1  0
 14 13  2  0
 15 16  1  0
 17 16  1  0
 18 17  1  0
 19 18  1  0
 19 15  1  0
 20 21  2  0
 19 20  1  6
 22 20  1  0
 23 28  1  0
 23 22  1  0
 23 24  1  6
 25 24  1  0
 26 25  1  0
 26 27  2  0
 28 31  1  0
 29 28  2  0
 30 26  1  0
M  END
$$$$
