QFF.pdb
     RDKit          3D

 32 33  0  0  1  0  0  0  0  0999 V2000
   28.0082  -16.9278  -13.6749 N   0  0  0  0  0  0  0  0  0  0  0  0
   27.9512  -17.6359  -14.9069 C   0  0  0  0  0  0  0  0  0  0  0  0
   28.6200  -17.0871  -15.8486 O   0  0  0  0  0  0  0  0  0  0  0  0
   27.2013  -18.8904  -15.1145 C   0  0  0  0  0  0  0  0  0  0  0  0
   26.8009  -19.5876  -13.8731 C   0  0  0  0  0  0  0  0  0  0  0  0
   27.8179  -20.4478  -13.2058 C   0  0  2  0  0  0  0  0  0  0  0  0
   28.2497  -21.5335  -14.0542 N   0  0  0  0  0  0  0  0  0  0  0  0
   27.3701  -21.0062  -11.9171 C   0  0  0  0  0  0  0  0  0  0  0  0
   26.8111  -22.1315  -11.8809 O   0  0  0  0  0  0  0  0  0  0  0  0
   27.5142  -20.3796  -10.6688 N   0  0  0  0  0  0  0  0  0  0  0  0
   27.1195  -20.9394   -9.4064 C   0  0  1  0  0  0  0  0  0  0  0  0
   28.1989  -21.1602   -8.4323 C   0  0  0  0  0  0  0  0  0  0  0  0
   27.8908  -20.6325   -7.0980 C   0  0  0  0  0  0  0  0  0  0  0  0
   28.2327  -19.3125   -6.7909 C   0  0  0  0  0  0  0  0  0  0  0  0
   27.9570  -18.7293   -5.5834 C   0  0  0  0  0  0  0  0  0  0  0  0
   27.3118  -19.4385   -4.5864 C   0  0  0  0  0  0  0  0  0  0  0  0
   26.9590  -20.7425   -4.8517 C   0  0  0  0  0  0  0  0  0  0  0  0
   27.2476  -21.3193   -6.0886 C   0  0  0  0  0  0  0  0  0  0  0  0
   26.0475  -20.0945   -8.8546 C   0  0  0  0  0  0  0  0  0  0  0  0
   26.2503  -18.8653   -8.7211 O   0  0  0  0  0  0  0  0  0  0  0  0
   24.7825  -20.6019   -8.4637 N   0  0  0  0  0  0  0  0  0  0  0  0
   23.6350  -20.2724   -9.3017 C   0  0  1  0  0  0  0  0  0  0  0  0
   23.8269  -20.8656  -10.6811 C   0  0  0  0  0  0  0  0  0  0  0  0
   22.6422  -20.5907  -11.5120 C   0  0  0  0  0  0  0  0  0  0  0  0
   22.5386  -19.4269  -12.2687 C   0  0  0  0  0  0  0  0  0  0  0  0
   21.4647  -19.1435  -13.0851 C   0  0  0  0  0  0  0  0  0  0  0  0
   20.4343  -20.0487  -13.1642 C   0  0  0  0  0  0  0  0  0  0  0  0
   20.4995  -21.2331  -12.4162 C   0  0  0  0  0  0  0  0  0  0  0  0
   21.5849  -21.4852  -11.6134 C   0  0  0  0  0  0  0  0  0  0  0  0
   22.4320  -20.8209   -8.6881 C   0  0  0  0  0  0  0  0  0  0  0  0
   22.3598  -22.0396   -8.0396 O   0  0  0  0  0  0  0  0  0  0  0  0
   21.3472  -20.1499   -8.7397 O   0  0  0  0  0  0  0  0  0  0  0  0
  2  1  1  0
  3  2  2  0
  4  2  1  0
  5  4  1  0
  6  5  1  0
  6  7  1  6
  8  6  1  0
  8  9  2  0
 10  8  1  0
 11 10  1  0
 11 12  1  1
 12 13  1  0
 13 14  2  0
 13 18  1  0
 14 15  1  0
 15 16  2  0
 17 16  1  0
 18 17  2  0
 19 11  1  0
 20 19  2  0
 21 19  1  0
 22 21  1  0
 22 23  1  6
 23 24  1  0
 24 29  1  0
 25 24  2  0
 25 26  1  0
 26 27  2  0
 27 28  1  0
 29 28  2  0
 30 31  1  0
 30 22  1  0
 32 30  2  0
M  END
$$$$
