QFF.pdb
     RDKit          3D

 32 33  0  0  1  0  0  0  0  0999 V2000
   12.2462  -23.1251    2.8530 N   0  0  0  0  0  0  0  0  0  0  0  0
   12.6555  -22.2567    3.9022 C   0  0  0  0  0  0  0  0  0  0  0  0
   11.7273  -21.9854    4.7389 O   0  0  0  0  0  0  0  0  0  0  0  0
   14.0166  -21.7028    4.0438 C   0  0  0  0  0  0  0  0  0  0  0  0
   14.9650  -22.1061    2.9831 C   0  0  0  0  0  0  0  0  0  0  0  0
   15.3956  -21.0641    2.0094 C   0  0  2  0  0  0  0  0  0  0  0  0
   15.5377  -21.5957    0.6744 N   0  0  0  0  0  0  0  0  0  0  0  0
   16.6497  -20.3847    2.3821 C   0  0  0  0  0  0  0  0  0  0  0  0
   17.7560  -20.9190    2.1159 O   0  0  0  0  0  0  0  0  0  0  0  0
   16.7363  -19.1430    3.0319 N   0  0  0  0  0  0  0  0  0  0  0  0
   17.9540  -18.4385    3.3211 C   0  0  1  0  0  0  0  0  0  0  0  0
   17.9948  -17.0258    2.9143 C   0  0  0  0  0  0  0  0  0  0  0  0
   19.2282  -16.6630    2.2065 C   0  0  0  0  0  0  0  0  0  0  0  0
   19.8705  -17.6229    1.4194 C   0  0  0  0  0  0  0  0  0  0  0  0
   21.0073  -17.3641    0.7019 C   0  0  0  0  0  0  0  0  0  0  0  0
   21.5874  -16.1086    0.7247 C   0  0  0  0  0  0  0  0  0  0  0  0
   20.9832  -15.1360    1.4892 C   0  0  0  0  0  0  0  0  0  0  0  0
   19.8246  -15.4186    2.2128 C   0  0  0  0  0  0  0  0  0  0  0  0
   18.2403  -18.6042    4.7557 C   0  0  0  0  0  0  0  0  0  0  0  0
   17.2840  -18.6823    5.5614 O   0  0  0  0  0  0  0  0  0  0  0  0
   19.5550  -18.6837    5.2808 N   0  0  0  0  0  0  0  0  0  0  0  0
   19.7026  -18.6920    6.7319 C   0  0  1  0  0  0  0  0  0  0  0  0
   21.1486  -18.9564    7.0935 C   0  0  0  0  0  0  0  0  0  0  0  0
   21.3038  -18.9632    8.5582 C   0  0  0  0  0  0  0  0  0  0  0  0
   20.7503  -19.9706    9.3435 C   0  0  0  0  0  0  0  0  0  0  0  0
   20.8976  -20.0353   10.7126 C   0  0  0  0  0  0  0  0  0  0  0  0
   21.6257  -19.0591   11.3484 C   0  0  0  0  0  0  0  0  0  0  0  0
   22.1985  -18.0256   10.5933 C   0  0  0  0  0  0  0  0  0  0  0  0
   22.0335  -17.9917    9.2303 C   0  0  0  0  0  0  0  0  0  0  0  0
   19.2893  -17.3952    7.2538 C   0  0  0  0  0  0  0  0  0  0  0  0
   19.2486  -16.2239    6.5209 O   0  0  0  0  0  0  0  0  0  0  0  0
   18.9355  -17.3020    8.4769 O   0  0  0  0  0  0  0  0  0  0  0  0
  2  1  1  0
  3  2  2  0
  4  2  1  0
  5  4  1  0
  6  5  1  0
  6  7  1  6
  8  6  1  0
  8  9  2  0
 10  8  1  0
 11 10  1  0
 11 12  1  1
 12 13  1  0
 13 14  2  0
 13 18  1  0
 14 15  1  0
 15 16  2  0
 17 16  1  0
 18 17  2  0
 19 11  1  0
 20 19  2  0
 21 19  1  0
 22 21  1  0
 22 23  1  6
 23 24  1  0
 24 29  1  0
 25 24  2  0
 25 26  1  0
 26 27  2  0
 27 28  1  0
 29 28  2  0
 30 31  1  0
 30 22  1  0
 32 30  2  0
M  END
$$$$
