QFF.pdb
     RDKit          3D

 32 33  0  0  1  0  0  0  0  0999 V2000
   28.5521  -24.2914  -20.0257 N   0  0  0  0  0  0  0  0  0  0  0  0
   29.7266  -23.5252  -19.7892 C   0  0  0  0  0  0  0  0  0  0  0  0
   30.4942  -23.4301  -20.8075 O   0  0  0  0  0  0  0  0  0  0  0  0
   30.0598  -22.8844  -18.5016 C   0  0  0  0  0  0  0  0  0  0  0  0
   29.0806  -23.1202  -17.4186 C   0  0  0  0  0  0  0  0  0  0  0  0
   27.9600  -22.1488  -17.2776 C   0  0  2  0  0  0  0  0  0  0  0  0
   28.4032  -20.7837  -17.4364 N   0  0  0  0  0  0  0  0  0  0  0  0
   27.2324  -22.2624  -16.0005 C   0  0  0  0  0  0  0  0  0  0  0  0
   26.7661  -23.3728  -15.6405 O   0  0  0  0  0  0  0  0  0  0  0  0
   26.9997  -21.2070  -15.1040 N   0  0  0  0  0  0  0  0  0  0  0  0
   26.2820  -21.3115  -13.8643 C   0  0  1  0  0  0  0  0  0  0  0  0
   26.6887  -20.3790  -12.8023 C   0  0  0  0  0  0  0  0  0  0  0  0
   25.9226  -20.5455  -11.5617 C   0  0  0  0  0  0  0  0  0  0  0  0
   26.4276  -21.3719  -10.5539 C   0  0  0  0  0  0  0  0  0  0  0  0
   25.7956  -21.5615   -9.3544 C   0  0  0  0  0  0  0  0  0  0  0  0
   24.5972  -20.9282   -9.0786 C   0  0  0  0  0  0  0  0  0  0  0  0
   24.0679  -20.1056  -10.0475 C   0  0  0  0  0  0  0  0  0  0  0  0
   24.7270  -19.9241  -11.2633 C   0  0  0  0  0  0  0  0  0  0  0  0
   24.8448  -21.2058  -14.1658 C   0  0  0  0  0  0  0  0  0  0  0  0
   24.4134  -20.1644  -14.7128 O   0  0  0  0  0  0  0  0  0  0  0  0
   23.9120  -22.2317  -13.8694 N   0  0  0  0  0  0  0  0  0  0  0  0
   22.5103  -21.9812  -14.1860 C   0  0  1  0  0  0  0  0  0  0  0  0
   21.8792  -23.2449  -14.7301 C   0  0  0  0  0  0  0  0  0  0  0  0
   20.4587  -23.0024  -15.0348 C   0  0  0  0  0  0  0  0  0  0  0  0
   20.0675  -22.3175  -16.1819 C   0  0  0  0  0  0  0  0  0  0  0  0
   18.7506  -22.0963  -16.5238 C   0  0  0  0  0  0  0  0  0  0  0  0
   17.7617  -22.5704  -15.6963 C   0  0  0  0  0  0  0  0  0  0  0  0
   18.1140  -23.2642  -14.5297 C   0  0  0  0  0  0  0  0  0  0  0  0
   19.4361  -23.4685  -14.2192 C   0  0  0  0  0  0  0  0  0  0  0  0
   21.8211  -21.5653  -12.9708 C   0  0  0  0  0  0  0  0  0  0  0  0
   20.8883  -20.5476  -12.8991 O   0  0  0  0  0  0  0  0  0  0  0  0
   22.0794  -22.1652  -11.8739 O   0  0  0  0  0  0  0  0  0  0  0  0
  2  1  1  0
  3  2  2  0
  4  2  1  0
  5  4  1  0
  6  5  1  0
  6  7  1  1
  8  6  1  0
  8  9  2  0
 10  8  1  0
 11 10  1  0
 11 12  1  1
 12 13  1  0
 13 14  2  0
 13 18  1  0
 14 15  1  0
 15 16  2  0
 17 16  1  0
 18 17  2  0
 19 11  1  0
 20 19  2  0
 21 19  1  0
 22 21  1  0
 22 23  1  1
 23 24  1  0
 24 29  1  0
 25 24  2  0
 25 26  1  0
 26 27  2  0
 27 28  1  0
 29 28  2  0
 30 31  1  0
 30 22  1  0
 32 30  2  0
M  END
$$$$
