QFF.pdb
     RDKit          3D

 32 33  0  0  1  0  0  0  0  0999 V2000
   24.4151  -23.7039  -20.6555 N   0  0  0  0  0  0  0  0  0  0  0  0
   24.3335  -25.0966  -20.9317 C   0  0  0  0  0  0  0  0  0  0  0  0
   24.1842  -25.3685  -22.1723 O   0  0  0  0  0  0  0  0  0  0  0  0
   24.4113  -26.1565  -19.9070 C   0  0  0  0  0  0  0  0  0  0  0  0
   24.6837  -25.6756  -18.5352 C   0  0  0  0  0  0  0  0  0  0  0  0
   26.1014  -25.4006  -18.1690 C   0  0  2  0  0  0  0  0  0  0  0  0
   26.8157  -26.6071  -17.8240 N   0  0  0  0  0  0  0  0  0  0  0  0
   26.2533  -24.4319  -17.0682 C   0  0  0  0  0  0  0  0  0  0  0  0
   26.2035  -24.8246  -15.8752 O   0  0  0  0  0  0  0  0  0  0  0  0
   26.4600  -23.0520  -17.2262 N   0  0  0  0  0  0  0  0  0  0  0  0
   26.6213  -22.1072  -16.1565 C   0  0  1  0  0  0  0  0  0  0  0  0
   27.2863  -20.8430  -16.5064 C   0  0  0  0  0  0  0  0  0  0  0  0
   27.3708  -19.9034  -15.3823 C   0  0  0  0  0  0  0  0  0  0  0  0
   26.4760  -18.8315  -15.3205 C   0  0  0  0  0  0  0  0  0  0  0  0
   26.4633  -17.9249  -14.2948 C   0  0  0  0  0  0  0  0  0  0  0  0
   27.3594  -18.0307  -13.2464 C   0  0  0  0  0  0  0  0  0  0  0  0
   28.2571  -19.0743  -13.2720 C   0  0  0  0  0  0  0  0  0  0  0  0
   28.2541  -19.9887  -14.3254 C   0  0  0  0  0  0  0  0  0  0  0  0
   25.2981  -21.8814  -15.5519 C   0  0  0  0  0  0  0  0  0  0  0  0
   24.3104  -21.6998  -16.3011 O   0  0  0  0  0  0  0  0  0  0  0  0
   25.0778  -21.8605  -14.1513 N   0  0  0  0  0  0  0  0  0  0  0  0
   23.7079  -21.6736  -13.6864 C   0  0  1  0  0  0  0  0  0  0  0  0
   23.5727  -22.2095  -12.2771 C   0  0  0  0  0  0  0  0  0  0  0  0
   24.5008  -21.4984  -11.3813 C   0  0  0  0  0  0  0  0  0  0  0  0
   24.0749  -20.4386  -10.5856 C   0  0  0  0  0  0  0  0  0  0  0  0
   24.8996  -19.7661   -9.7094 C   0  0  0  0  0  0  0  0  0  0  0  0
   26.2143  -20.1513   -9.6074 C   0  0  0  0  0  0  0  0  0  0  0  0
   26.6834  -21.2138  -10.3931 C   0  0  0  0  0  0  0  0  0  0  0  0
   25.8345  -21.8635  -11.2554 C   0  0  0  0  0  0  0  0  0  0  0  0
   23.3941  -20.2503  -13.7088 C   0  0  0  0  0  0  0  0  0  0  0  0
   22.1178  -19.7209  -13.6676 O   0  0  0  0  0  0  0  0  0  0  0  0
   24.3483  -19.4048  -13.7739 O   0  0  0  0  0  0  0  0  0  0  0  0
  2  1  1  0
  3  2  2  0
  4  2  1  0
  5  4  1  0
  6  5  1  0
  6  7  1  1
  8  6  1  0
  8  9  2  0
 10  8  1  0
 11 10  1  0
 11 12  1  6
 12 13  1  0
 13 14  2  0
 13 18  1  0
 14 15  1  0
 15 16  2  0
 17 16  1  0
 18 17  2  0
 19 11  1  0
 20 19  2  0
 21 19  1  0
 22 21  1  0
 22 23  1  1
 23 24  1  0
 24 29  1  0
 25 24  2  0
 25 26  1  0
 26 27  2  0
 27 28  1  0
 29 28  2  0
 30 31  1  0
 30 22  1  0
 32 30  2  0
M  END
$$$$
