QFF.pdb
     RDKit          3D

 32 33  0  0  1  0  0  0  0  0999 V2000
   44.8986  -10.6716   -3.0766 N   0  0  0  0  0  0  0  0  0  0  0  0
   44.4530   -9.4444   -3.6403 C   0  0  0  0  0  0  0  0  0  0  0  0
   44.0931   -8.5782   -2.7711 O   0  0  0  0  0  0  0  0  0  0  0  0
   44.3989   -9.1620   -5.0883 C   0  0  0  0  0  0  0  0  0  0  0  0
   44.8079  -10.2874   -5.9564 C   0  0  0  0  0  0  0  0  0  0  0  0
   43.7337  -11.1613   -6.5057 C   0  0  2  0  0  0  0  0  0  0  0  0
   44.2331  -12.0632   -7.5167 N   0  0  0  0  0  0  0  0  0  0  0  0
   42.5890  -10.4173   -7.0618 C   0  0  0  0  0  0  0  0  0  0  0  0
   42.7010   -9.8264   -8.1656 O   0  0  0  0  0  0  0  0  0  0  0  0
   41.3279  -10.2991   -6.4556 N   0  0  0  0  0  0  0  0  0  0  0  0
   40.2318   -9.5205   -6.9606 C   0  0  1  0  0  0  0  0  0  0  0  0
   38.8922   -9.9176   -6.5015 C   0  0  0  0  0  0  0  0  0  0  0  0
   37.8456   -8.9578   -6.8721 C   0  0  0  0  0  0  0  0  0  0  0  0
   37.1862   -8.2457   -5.8664 C   0  0  0  0  0  0  0  0  0  0  0  0
   36.2195   -7.3106   -6.1219 C   0  0  0  0  0  0  0  0  0  0  0  0
   35.8411   -7.0214   -7.4205 C   0  0  0  0  0  0  0  0  0  0  0  0
   36.4685   -7.7030   -8.4390 C   0  0  0  0  0  0  0  0  0  0  0  0
   37.4520   -8.6517   -8.1588 C   0  0  0  0  0  0  0  0  0  0  0  0
   40.5135   -8.1050   -6.6700 C   0  0  0  0  0  0  0  0  0  0  0  0
   41.0268   -7.8011   -5.5682 O   0  0  0  0  0  0  0  0  0  0  0  0
   40.2344   -7.0550   -7.5811 N   0  0  0  0  0  0  0  0  0  0  0  0
   40.4115   -5.6865   -7.1084 C   0  0  1  0  0  0  0  0  0  0  0  0
   41.8871   -5.3963   -6.9351 C   0  0  0  0  0  0  0  0  0  0  0  0
   42.5042   -5.1455   -8.2488 C   0  0  0  0  0  0  0  0  0  0  0  0
   41.9585   -4.2317   -9.1461 C   0  0  0  0  0  0  0  0  0  0  0  0
   42.5194   -3.9412  -10.3714 C   0  0  0  0  0  0  0  0  0  0  0  0
   43.6779   -4.5815  -10.7393 C   0  0  0  0  0  0  0  0  0  0  0  0
   44.2588   -5.5106   -9.8642 C   0  0  0  0  0  0  0  0  0  0  0  0
   43.6746   -5.7759   -8.6499 C   0  0  0  0  0  0  0  0  0  0  0  0
   39.8373   -4.7727   -8.0882 C   0  0  0  0  0  0  0  0  0  0  0  0
   39.3612   -5.1436   -9.3318 O   0  0  0  0  0  0  0  0  0  0  0  0
   39.7574   -3.5301   -7.8066 O   0  0  0  0  0  0  0  0  0  0  0  0
  2  1  1  0
  3  2  2  0
  4  2  1  0
  5  4  1  0
  6  5  1  0
  6  7  1  6
  8  6  1  0
  8  9  2  0
 10  8  1  0
 11 10  1  0
 11 12  1  1
 12 13  1  0
 13 14  2  0
 13 18  1  0
 14 15  1  0
 15 16  2  0
 17 16  1  0
 18 17  2  0
 19 11  1  0
 20 19  2  0
 21 19  1  0
 22 21  1  0
 22 23  1  6
 23 24  1  0
 24 29  1  0
 25 24  2  0
 25 26  1  0
 26 27  2  0
 27 28  1  0
 29 28  2  0
 30 31  1  0
 30 22  1  0
 32 30  2  0
M  END
$$$$
