QFF.pdb
     RDKit          3D

 32 33  0  0  1  0  0  0  0  0999 V2000
   24.3548  -22.0293  -15.5859 N   0  0  0  0  0  0  0  0  0  0  0  0
   24.8254  -20.6990  -15.7623 C   0  0  0  0  0  0  0  0  0  0  0  0
   24.6159  -20.2288  -16.9330 O   0  0  0  0  0  0  0  0  0  0  0  0
   25.4961  -19.9050  -14.7139 C   0  0  0  0  0  0  0  0  0  0  0  0
   25.5668  -20.5589  -13.3892 C   0  0  0  0  0  0  0  0  0  0  0  0
   26.9092  -20.6957  -12.7577 C   0  0  2  0  0  0  0  0  0  0  0  0
   27.6910  -21.7446  -13.3689 N   0  0  0  0  0  0  0  0  0  0  0  0
   26.8603  -20.9310  -11.3033 C   0  0  0  0  0  0  0  0  0  0  0  0
   26.3682  -21.9978  -10.8562 O   0  0  0  0  0  0  0  0  0  0  0  0
   27.3320  -20.0434  -10.3227 N   0  0  0  0  0  0  0  0  0  0  0  0
   27.2445  -20.2484   -8.9039 C   0  0  1  0  0  0  0  0  0  0  0  0
   28.1347  -19.4207   -8.0759 C   0  0  0  0  0  0  0  0  0  0  0  0
   27.9770  -19.6626   -6.6370 C   0  0  0  0  0  0  0  0  0  0  0  0
   28.6345  -20.7483   -6.0518 C   0  0  0  0  0  0  0  0  0  0  0  0
   28.5678  -21.0314   -4.7140 C   0  0  0  0  0  0  0  0  0  0  0  0
   27.8268  -20.2358   -3.8589 C   0  0  0  0  0  0  0  0  0  0  0  0
   27.1645  -19.1562   -4.3988 C   0  0  0  0  0  0  0  0  0  0  0  0
   27.2452  -18.8833   -5.7643 C   0  0  0  0  0  0  0  0  0  0  0  0
   25.8334  -20.0956   -8.5131 C   0  0  0  0  0  0  0  0  0  0  0  0
   25.1926  -19.1011   -8.9257 O   0  0  0  0  0  0  0  0  0  0  0  0
   25.1515  -21.0249   -7.6874 N   0  0  0  0  0  0  0  0  0  0  0  0
   23.7058  -20.8798   -7.5592 C   0  0  1  0  0  0  0  0  0  0  0  0
   23.0374  -21.2943   -8.8526 C   0  0  0  0  0  0  0  0  0  0  0  0
   21.6121  -20.9243   -8.8190 C   0  0  0  0  0  0  0  0  0  0  0  0
   20.7486  -21.2612   -9.8576 C   0  0  0  0  0  0  0  0  0  0  0  0
   19.4024  -20.9648   -9.8539 C   0  0  0  0  0  0  0  0  0  0  0  0
   18.8723  -20.3006   -8.7745 C   0  0  0  0  0  0  0  0  0  0  0  0
   19.7091  -19.9418   -7.7080 C   0  0  0  0  0  0  0  0  0  0  0  0
   21.0461  -20.2536   -7.7430 C   0  0  0  0  0  0  0  0  0  0  0  0
   23.2433  -21.7275   -6.4673 C   0  0  0  0  0  0  0  0  0  0  0  0
   22.3167  -21.3524   -5.5125 O   0  0  0  0  0  0  0  0  0  0  0  0
   23.7133  -22.9093   -6.3565 O   0  0  0  0  0  0  0  0  0  0  0  0
  2  1  1  0
  3  2  2  0
  4  2  1  0
  5  4  1  0
  6  5  1  0
  6  7  1  6
  8  6  1  0
  8  9  2  0
 10  8  1  0
 11 10  1  0
 11 12  1  1
 12 13  1  0
 13 14  2  0
 13 18  1  0
 14 15  1  0
 15 16  2  0
 17 16  1  0
 18 17  2  0
 19 11  1  0
 20 19  2  0
 21 19  1  0
 22 21  1  0
 22 23  1  6
 23 24  1  0
 24 29  1  0
 25 24  2  0
 25 26  1  0
 26 27  2  0
 27 28  1  0
 29 28  2  0
 30 31  1  0
 30 22  1  0
 32 30  2  0
M  END
$$$$
