QFF.pdb
     RDKit          3D

 32 33  0  0  1  0  0  0  0  0999 V2000
   14.7435   -9.4222  -18.4413 N   0  0  0  0  0  0  0  0  0  0  0  0
   15.1158   -9.9112  -19.7237 C   0  0  0  0  0  0  0  0  0  0  0  0
   14.3400  -10.8230  -20.1732 O   0  0  0  0  0  0  0  0  0  0  0  0
   16.2814   -9.4329  -20.4931 C   0  0  0  0  0  0  0  0  0  0  0  0
   17.0797   -8.3834  -19.8234 C   0  0  0  0  0  0  0  0  0  0  0  0
   18.4338   -8.7571  -19.3273 C   0  0  2  0  0  0  0  0  0  0  0  0
   18.3920   -9.9025  -18.4490 N   0  0  0  0  0  0  0  0  0  0  0  0
   19.1377   -7.6603  -18.6382 C   0  0  0  0  0  0  0  0  0  0  0  0
   19.3982   -6.5964  -19.2549 O   0  0  0  0  0  0  0  0  0  0  0  0
   19.5634   -7.6852  -17.3004 N   0  0  0  0  0  0  0  0  0  0  0  0
   20.1999   -6.5986  -16.6096 C   0  0  1  0  0  0  0  0  0  0  0  0
   19.4788   -6.0631  -15.4451 C   0  0  0  0  0  0  0  0  0  0  0  0
   18.1865   -5.4603  -15.7920 C   0  0  0  0  0  0  0  0  0  0  0  0
   17.0178   -6.2080  -15.6233 C   0  0  0  0  0  0  0  0  0  0  0  0
   15.7689   -5.7163  -15.8928 C   0  0  0  0  0  0  0  0  0  0  0  0
   15.6028   -4.4240  -16.3572 C   0  0  0  0  0  0  0  0  0  0  0  0
   16.7314   -3.6561  -16.5362 C   0  0  0  0  0  0  0  0  0  0  0  0
   17.9956   -4.1744  -16.2552 C   0  0  0  0  0  0  0  0  0  0  0  0
   21.5650   -7.0252  -16.2603 C   0  0  0  0  0  0  0  0  0  0  0  0
   22.3271   -6.2137  -15.6855 O   0  0  0  0  0  0  0  0  0  0  0  0
   22.0691   -8.3206  -16.5401 N   0  0  0  0  0  0  0  0  0  0  0  0
   23.4836   -8.5647  -16.2813 C   0  0  1  0  0  0  0  0  0  0  0  0
   23.6635   -9.9584  -15.7184 C   0  0  0  0  0  0  0  0  0  0  0  0
   25.0979  -10.2838  -15.6398 C   0  0  0  0  0  0  0  0  0  0  0  0
   25.8274  -10.0782  -14.4721 C   0  0  0  0  0  0  0  0  0  0  0  0
   27.1620  -10.3982  -14.3428 C   0  0  0  0  0  0  0  0  0  0  0  0
   27.8193  -10.9485  -15.4163 C   0  0  0  0  0  0  0  0  0  0  0  0
   27.1206  -11.1702  -16.6117 C   0  0  0  0  0  0  0  0  0  0  0  0
   25.7906  -10.8410  -16.7065 C   0  0  0  0  0  0  0  0  0  0  0  0
   24.2196   -8.4357  -17.5329 C   0  0  0  0  0  0  0  0  0  0  0  0
   23.7346   -8.7953  -18.7764 O   0  0  0  0  0  0  0  0  0  0  0  0
   25.4044   -7.9610  -17.5107 O   0  0  0  0  0  0  0  0  0  0  0  0
  2  1  1  0
  3  2  2  0
  4  2  1  0
  5  4  1  0
  6  5  1  0
  6  7  1  1
  8  6  1  0
  8  9  2  0
 10  8  1  0
 11 10  1  0
 11 12  1  1
 12 13  1  0
 13 14  2  0
 13 18  1  0
 14 15  1  0
 15 16  2  0
 17 16  1  0
 18 17  2  0
 19 11  1  0
 20 19  2  0
 21 19  1  0
 22 21  1  0
 22 23  1  6
 23 24  1  0
 24 29  1  0
 25 24  2  0
 25 26  1  0
 26 27  2  0
 27 28  1  0
 29 28  2  0
 30 31  1  0
 30 22  1  0
 32 30  2  0
M  END
$$$$
