QFF.pdb
     RDKit          3D

 32 33  0  0  1  0  0  0  0  0999 V2000
   28.7995  -18.4199  -14.1729 N   0  0  0  0  0  0  0  0  0  0  0  0
   27.8194  -18.7612  -15.1452 C   0  0  0  0  0  0  0  0  0  0  0  0
   28.1844  -18.5299  -16.3487 O   0  0  0  0  0  0  0  0  0  0  0  0
   26.4948  -19.3321  -14.8302 C   0  0  0  0  0  0  0  0  0  0  0  0
   26.3100  -19.7306  -13.4180 C   0  0  0  0  0  0  0  0  0  0  0  0
   27.1473  -20.8492  -12.9012 C   0  0  2  0  0  0  0  0  0  0  0  0
   26.8935  -22.0851  -13.6034 N   0  0  0  0  0  0  0  0  0  0  0  0
   26.9919  -21.0885  -11.4549 C   0  0  0  0  0  0  0  0  0  0  0  0
   26.1222  -21.8967  -11.0423 O   0  0  0  0  0  0  0  0  0  0  0  0
   27.7546  -20.4779  -10.4462 N   0  0  0  0  0  0  0  0  0  0  0  0
   27.5509  -20.6433   -9.0341 C   0  0  1  0  0  0  0  0  0  0  0  0
   28.6434  -20.1795   -8.1656 C   0  0  0  0  0  0  0  0  0  0  0  0
   28.2915  -20.1841   -6.7409 C   0  0  0  0  0  0  0  0  0  0  0  0
   27.8693  -18.9955   -6.1387 C   0  0  0  0  0  0  0  0  0  0  0  0
   27.4937  -18.9142   -4.8248 C   0  0  0  0  0  0  0  0  0  0  0  0
   27.5164  -20.0334   -4.0122 C   0  0  0  0  0  0  0  0  0  0  0  0
   27.9267  -21.2234   -4.5699 C   0  0  0  0  0  0  0  0  0  0  0  0
   28.3049  -21.2867   -5.9111 C   0  0  0  0  0  0  0  0  0  0  0  0
   26.2682  -20.0095   -8.6870 C   0  0  0  0  0  0  0  0  0  0  0  0
   26.0344  -18.8477   -9.0937 O   0  0  0  0  0  0  0  0  0  0  0  0
   25.2703  -20.6512   -7.9105 N   0  0  0  0  0  0  0  0  0  0  0  0
   23.8784  -20.3173   -8.1911 C   0  0  1  0  0  0  0  0  0  0  0  0
   23.5653  -20.6233   -9.6402 C   0  0  0  0  0  0  0  0  0  0  0  0
   22.1401  -20.3656   -9.9082 C   0  0  0  0  0  0  0  0  0  0  0  0
   21.3358  -19.6997   -8.9876 C   0  0  0  0  0  0  0  0  0  0  0  0
   20.0069  -19.4080   -9.2095 C   0  0  0  0  0  0  0  0  0  0  0  0
   19.4331  -19.7907  -10.3977 C   0  0  0  0  0  0  0  0  0  0  0  0
   20.2090  -20.4654  -11.3511 C   0  0  0  0  0  0  0  0  0  0  0  0
   21.5309  -20.7392  -11.0987 C   0  0  0  0  0  0  0  0  0  0  0  0
   23.0201  -21.1098   -7.3194 C   0  0  0  0  0  0  0  0  0  0  0  0
   21.7570  -20.7358   -6.9002 O   0  0  0  0  0  0  0  0  0  0  0  0
   23.4399  -22.2372   -6.8923 O   0  0  0  0  0  0  0  0  0  0  0  0
  2  1  1  0
  3  2  2  0
  4  2  1  0
  5  4  1  0
  6  5  1  0
  6  7  1  6
  8  6  1  0
  8  9  2  0
 10  8  1  0
 11 10  1  0
 11 12  1  1
 12 13  1  0
 13 14  2  0
 13 18  1  0
 14 15  1  0
 15 16  2  0
 17 16  1  0
 18 17  2  0
 19 11  1  0
 20 19  2  0
 21 19  1  0
 22 21  1  0
 22 23  1  6
 23 24  1  0
 24 29  1  0
 25 24  2  0
 25 26  1  0
 26 27  2  0
 27 28  1  0
 29 28  2  0
 30 31  1  0
 30 22  1  0
 32 30  2  0
M  END
$$$$
