QFF.pdb
     RDKit          3D

 32 33  0  0  1  0  0  0  0  0999 V2000
   29.1097  -24.8288  -15.4606 N   0  0  0  0  0  0  0  0  0  0  0  0
   28.6736  -23.7940  -16.3332 C   0  0  0  0  0  0  0  0  0  0  0  0
   27.8508  -24.1878  -17.2295 O   0  0  0  0  0  0  0  0  0  0  0  0
   29.1083  -22.3862  -16.2410 C   0  0  0  0  0  0  0  0  0  0  0  0
   28.4593  -21.6047  -15.1661 C   0  0  0  0  0  0  0  0  0  0  0  0
   26.9777  -21.4575  -15.2179 C   0  0  2  0  0  0  0  0  0  0  0  0
   26.5477  -20.7104  -16.3762 N   0  0  0  0  0  0  0  0  0  0  0  0
   26.4003  -20.8335  -14.0135 C   0  0  0  0  0  0  0  0  0  0  0  0
   26.3765  -19.5814  -13.9055 O   0  0  0  0  0  0  0  0  0  0  0  0
   25.8469  -21.5293  -12.9267 N   0  0  0  0  0  0  0  0  0  0  0  0
   25.0970  -20.9368  -11.8545 C   0  0  1  0  0  0  0  0  0  0  0  0
   23.6969  -21.3693  -11.7298 C   0  0  0  0  0  0  0  0  0  0  0  0
   22.8354  -20.8564  -12.8015 C   0  0  0  0  0  0  0  0  0  0  0  0
   22.3741  -19.5387  -12.7340 C   0  0  0  0  0  0  0  0  0  0  0  0
   21.5918  -18.9688  -13.7022 C   0  0  0  0  0  0  0  0  0  0  0  0
   21.2119  -19.6901  -14.8196 C   0  0  0  0  0  0  0  0  0  0  0  0
   21.6470  -20.9923  -14.9217 C   0  0  0  0  0  0  0  0  0  0  0  0
   22.4444  -21.5554  -13.9252 C   0  0  0  0  0  0  0  0  0  0  0  0
   25.8496  -21.1499  -10.6072 C   0  0  0  0  0  0  0  0  0  0  0  0
   26.2796  -22.2972  -10.3451 O   0  0  0  0  0  0  0  0  0  0  0  0
   26.1195  -20.1145   -9.6768 N   0  0  0  0  0  0  0  0  0  0  0  0
   26.8267  -20.4746   -8.4529 C   0  0  1  0  0  0  0  0  0  0  0  0
   27.6187  -19.2842   -7.9555 C   0  0  0  0  0  0  0  0  0  0  0  0
   28.1861  -19.5812   -6.6291 C   0  0  0  0  0  0  0  0  0  0  0  0
   27.6076  -19.0871   -5.4633 C   0  0  0  0  0  0  0  0  0  0  0  0
   28.0844  -19.3658   -4.2003 C   0  0  0  0  0  0  0  0  0  0  0  0
   29.1896  -20.1715   -4.0713 C   0  0  0  0  0  0  0  0  0  0  0  0
   29.8030  -20.6884   -5.2215 C   0  0  0  0  0  0  0  0  0  0  0  0
   29.3014  -20.3920   -6.4652 C   0  0  0  0  0  0  0  0  0  0  0  0
   25.8511  -20.8774   -7.4476 C   0  0  0  0  0  0  0  0  0  0  0  0
   26.1038  -21.7485   -6.4045 O   0  0  0  0  0  0  0  0  0  0  0  0
   24.6651  -20.4094   -7.5105 O   0  0  0  0  0  0  0  0  0  0  0  0
  2  1  1  0
  3  2  2  0
  4  2  1  0
  5  4  1  0
  6  5  1  0
  6  7  1  6
  8  6  1  0
  8  9  2  0
 10  8  1  0
 11 10  1  0
 11 12  1  1
 12 13  1  0
 13 14  2  0
 13 18  1  0
 14 15  1  0
 15 16  2  0
 17 16  1  0
 18 17  2  0
 19 11  1  0
 20 19  2  0
 21 19  1  0
 22 21  1  0
 22 23  1  1
 23 24  1  0
 24 29  1  0
 25 24  2  0
 25 26  1  0
 26 27  2  0
 27 28  1  0
 29 28  2  0
 30 31  1  0
 30 22  1  0
 32 30  2  0
M  END
$$$$
