NTG.pdb
     RDKit          3D

 20 19  0  0  1  0  0  0  0  0999 V2000
   17.4168  -14.7352  -16.0647 N   0  0  0  0  0  0  0  0  0  0  0  0
   17.9310  -13.5824  -16.6818 C   0  0  0  0  0  0  0  0  0  0  0  0
   17.5828  -13.3760  -17.8949 O   0  0  0  0  0  0  0  0  0  0  0  0
   18.8422  -12.6258  -15.9797 C   0  0  0  0  0  0  0  0  0  0  0  0
   20.0260  -12.3590  -16.8799 C   0  0  2  0  0  0  0  0  0  0  0  0
   20.6891  -13.5716  -17.2480 N   0  0  0  0  0  0  0  0  0  0  0  0
   20.9435  -11.3459  -16.3197 C   0  0  0  0  0  0  0  0  0  0  0  0
   21.5494  -11.5721  -15.2565 O   0  0  0  0  0  0  0  0  0  0  0  0
   24.1541  -10.1200  -17.5385 C   0  0  0  0  0  0  0  0  0  0  0  0
   23.3059   -8.8715  -17.3547 C   0  0  1  0  0  0  0  0  0  0  0  0
   22.8052   -8.5823  -18.6430 O   0  0  0  0  0  0  0  0  0  0  0  0
   22.1150   -9.1129  -16.4944 C   0  0  2  0  0  0  0  0  0  0  0  0
   21.1954  -10.0880  -16.9244 N   0  0  0  0  0  0  0  0  0  0  0  0
   21.3810   -7.8024  -16.3751 C   0  0  0  0  0  0  0  0  0  0  0  0
   20.4236   -7.6263  -17.1706 O   0  0  0  0  0  0  0  0  0  0  0  0
   21.7412   -6.8305  -15.4319 N   0  0  0  0  0  0  0  0  0  0  0  0
   21.0024   -5.5945  -15.3599 C   0  0  0  0  0  0  0  0  0  0  0  0
   21.5840   -4.6488  -14.3947 C   0  0  0  0  0  0  0  0  0  0  0  0
   20.9589   -4.2808  -13.3688 O   0  0  0  0  0  0  0  0  0  0  0  0
   22.8482   -4.1458  -14.6106 O   0  0  0  0  0  0  0  0  0  0  0  0
  2  1  1  0
  3  2  2  0
  4  2  1  0
  5  4  1  0
  5  6  1  1
  7  5  1  0
  8  7  2  0
 10  9  1  6
 10 12  1  0
 11 10  1  0
 12 14  1  0
 12 13  1  6
 13  7  1  0
 14 16  1  0
 15 14  2  0
 16 17  1  0
 18 17  1  0
 18 20  1  0
 19 18  2  0
M  END
$$$$
