NTG.pdb
     RDKit          3D

 20 19  0  0  1  0  0  0  0  0999 V2000
   19.1850  -10.6011  -15.9305 N   0  0  0  0  0  0  0  0  0  0  0  0
   18.6452   -9.8478  -14.8743 C   0  0  0  0  0  0  0  0  0  0  0  0
   17.4705  -10.1669  -14.4825 O   0  0  0  0  0  0  0  0  0  0  0  0
   19.3845   -8.7229  -14.2213 C   0  0  0  0  0  0  0  0  0  0  0  0
   20.7605   -8.6439  -14.8402 C   0  0  2  0  0  0  0  0  0  0  0  0
   21.5206   -9.8276  -14.5823 N   0  0  0  0  0  0  0  0  0  0  0  0
   21.4755   -7.4058  -14.4691 C   0  0  0  0  0  0  0  0  0  0  0  0
   22.3572   -7.4331  -13.5912 O   0  0  0  0  0  0  0  0  0  0  0  0
   23.6331   -5.4496  -16.7171 C   0  0  0  0  0  0  0  0  0  0  0  0
   22.6824   -4.4357  -16.1006 C   0  0  1  0  0  0  0  0  0  0  0  0
   21.6826   -4.2374  -17.0779 O   0  0  0  0  0  0  0  0  0  0  0  0
   21.9837   -4.9671  -14.8981 C   0  0  2  0  0  0  0  0  0  0  0  0
   21.2239   -6.1411  -15.0596 N   0  0  0  0  0  0  0  0  0  0  0  0
   21.0625   -3.8817  -14.4045 C   0  0  0  0  0  0  0  0  0  0  0  0
   19.8302   -4.1139  -14.4944 O   0  0  0  0  0  0  0  0  0  0  0  0
   21.5468   -2.6784  -13.8739 N   0  0  0  0  0  0  0  0  0  0  0  0
   20.6199   -1.6598  -13.4472 C   0  0  0  0  0  0  0  0  0  0  0  0
   21.2997   -0.4848  -12.8802 C   0  0  0  0  0  0  0  0  0  0  0  0
   22.5422   -0.4635  -12.6947 O   0  0  0  0  0  0  0  0  0  0  0  0
   20.5645    0.6292  -12.5393 O   0  0  0  0  0  0  0  0  0  0  0  0
  2  1  1  0
  3  2  2  0
  4  2  1  0
  5  4  1  0
  5  6  1  1
  7  5  1  0
  8  7  2  0
 10  9  1  6
 10 12  1  0
 11 10  1  0
 12 14  1  0
 12 13  1  6
 13  7  1  0
 14 16  1  0
 15 14  2  0
 16 17  1  0
 18 17  1  0
 18 20  1  0
 19 18  2  0
M  END
$$$$
