NTG.pdb
     RDKit          3D

 20 19  0  0  1  0  0  0  0  0999 V2000
   26.6016  -21.7651   -9.2591 N   0  0  0  0  0  0  0  0  0  0  0  0
   25.8672  -20.5741   -9.3868 C   0  0  0  0  0  0  0  0  0  0  0  0
   25.5264  -19.9898   -8.3014 O   0  0  0  0  0  0  0  0  0  0  0  0
   25.4883  -19.9944  -10.7129 C   0  0  0  0  0  0  0  0  0  0  0  0
   26.0167  -20.9091  -11.7931 C   0  0  2  0  0  0  0  0  0  0  0  0
   27.4302  -21.0942  -11.6789 N   0  0  0  0  0  0  0  0  0  0  0  0
   25.5966  -20.4871  -13.1448 C   0  0  0  0  0  0  0  0  0  0  0  0
   26.2058  -19.5742  -13.7315 O   0  0  0  0  0  0  0  0  0  0  0  0
   23.4221  -22.9572  -16.0008 C   0  0  0  0  0  0  0  0  0  0  0  0
   24.2140  -21.6793  -16.2288 C   0  0  1  0  0  0  0  0  0  0  0  0
   23.6299  -21.0916  -17.3721 O   0  0  0  0  0  0  0  0  0  0  0  0
   24.0392  -20.6958  -15.1248 C   0  0  2  0  0  0  0  0  0  0  0  0
   24.5109  -21.0651  -13.8510 N   0  0  0  0  0  0  0  0  0  0  0  0
   22.5632  -20.4151  -15.0104 C   0  0  0  0  0  0  0  0  0  0  0  0
   21.9475  -21.0336  -14.1054 O   0  0  0  0  0  0  0  0  0  0  0  0
   21.9080  -19.5158  -15.8625 N   0  0  0  0  0  0  0  0  0  0  0  0
   20.5222  -19.1918  -15.6323 C   0  0  0  0  0  0  0  0  0  0  0  0
   19.6082  -20.1098  -16.3295 C   0  0  0  0  0  0  0  0  0  0  0  0
   18.4815  -19.7367  -16.7418 O   0  0  0  0  0  0  0  0  0  0  0  0
   19.9868  -21.4172  -16.5422 O   0  0  0  0  0  0  0  0  0  0  0  0
  2  1  1  0
  3  2  2  0
  4  2  1  0
  5  4  1  0
  5  6  1  6
  7  5  1  0
  8  7  2  0
 10  9  1  1
 10 12  1  0
 11 10  1  0
 12 14  1  0
 12 13  1  1
 13  7  1  0
 14 16  1  0
 15 14  2  0
 16 17  1  0
 18 17  1  0
 18 20  1  0
 19 18  2  0
M  END
$$$$
