NTG.pdb
     RDKit          3D

 20 19  0  0  1  0  0  0  0  0999 V2000
   15.4157  -10.7167  -17.2020 N   0  0  0  0  0  0  0  0  0  0  0  0
   15.3612  -10.0386  -15.9725 C   0  0  0  0  0  0  0  0  0  0  0  0
   14.2144   -9.6102  -15.6027 O   0  0  0  0  0  0  0  0  0  0  0  0
   16.5680   -9.8141  -15.1173 C   0  0  0  0  0  0  0  0  0  0  0  0
   17.7403  -10.5109  -15.7676 C   0  0  2  0  0  0  0  0  0  0  0  0
   17.5557  -11.9287  -15.8003 N   0  0  0  0  0  0  0  0  0  0  0  0
   19.0333  -10.1101  -15.1765 C   0  0  0  0  0  0  0  0  0  0  0  0
   19.5041  -10.7450  -14.2153 O   0  0  0  0  0  0  0  0  0  0  0  0
   22.2042   -8.2753  -17.3943 C   0  0  0  0  0  0  0  0  0  0  0  0
   22.2472   -8.9793  -16.0473 C   0  0  1  0  0  0  0  0  0  0  0  0
   23.3852   -8.4506  -15.3997 O   0  0  0  0  0  0  0  0  0  0  0  0
   21.0840   -8.6322  -15.1853 C   0  0  2  0  0  0  0  0  0  0  0  0
   19.8077   -9.0156  -15.6390 N   0  0  0  0  0  0  0  0  0  0  0  0
   21.0872   -7.1348  -15.0178 C   0  0  0  0  0  0  0  0  0  0  0  0
   20.4877   -6.4743  -15.9037 O   0  0  0  0  0  0  0  0  0  0  0  0
   21.7215   -6.5079  -13.9367 N   0  0  0  0  0  0  0  0  0  0  0  0
   21.5933   -5.0828  -13.7599 C   0  0  0  0  0  0  0  0  0  0  0  0
   22.5040   -4.3253  -14.6323 C   0  0  0  0  0  0  0  0  0  0  0  0
   23.3246   -4.8991  -15.3912 O   0  0  0  0  0  0  0  0  0  0  0  0
   22.4655   -2.9482  -14.6258 O   0  0  0  0  0  0  0  0  0  0  0  0
  2  1  1  0
  3  2  2  0
  4  2  1  0
  5  4  1  0
  5  6  1  1
  7  5  1  0
  8  7  2  0
 10  9  1  6
 10 12  1  0
 11 10  1  0
 12 14  1  0
 12 13  1  6
 13  7  1  0
 14 16  1  0
 15 14  2  0
 16 17  1  0
 18 17  1  0
 18 20  1  0
 19 18  2  0
M  END
$$$$
