NTG.pdb
     RDKit          3D

 20 19  0  0  1  0  0  0  0  0999 V2000
   24.4408  -14.6004  -16.0600 N   0  0  0  0  0  0  0  0  0  0  0  0
   25.3740  -13.5871  -15.7830 C   0  0  0  0  0  0  0  0  0  0  0  0
   26.4901  -13.9557  -15.2793 O   0  0  0  0  0  0  0  0  0  0  0  0
   25.1032  -12.1407  -16.0532 C   0  0  0  0  0  0  0  0  0  0  0  0
   23.7110  -12.0235  -16.6285 C   0  0  2  0  0  0  0  0  0  0  0  0
   23.5344  -12.8865  -17.7552 N   0  0  0  0  0  0  0  0  0  0  0  0
   23.3324  -10.6234  -16.9081 C   0  0  0  0  0  0  0  0  0  0  0  0
   23.7829  -10.0434  -17.9128 O   0  0  0  0  0  0  0  0  0  0  0  0
   19.8709   -9.5182  -17.5075 C   0  0  0  0  0  0  0  0  0  0  0  0
   20.4286   -8.5170  -16.5083 C   0  0  1  0  0  0  0  0  0  0  0  0
   19.9073   -8.9234  -15.2606 O   0  0  0  0  0  0  0  0  0  0  0  0
   21.9098   -8.6010  -16.3833 C   0  0  2  0  0  0  0  0  0  0  0  0
   22.4618   -9.8617  -16.0875 N   0  0  0  0  0  0  0  0  0  0  0  0
   22.3175   -7.6471  -15.2904 C   0  0  0  0  0  0  0  0  0  0  0  0
   22.4763   -8.1455  -14.1472 O   0  0  0  0  0  0  0  0  0  0  0  0
   22.5102   -6.2797  -15.5293 N   0  0  0  0  0  0  0  0  0  0  0  0
   22.9883   -5.4282  -14.4686 C   0  0  0  0  0  0  0  0  0  0  0  0
   21.9140   -4.6208  -13.8701 C   0  0  0  0  0  0  0  0  0  0  0  0
   20.7143   -4.7508  -14.2197 O   0  0  0  0  0  0  0  0  0  0  0  0
   22.2194   -3.6931  -12.8985 O   0  0  0  0  0  0  0  0  0  0  0  0
  2  1  1  0
  3  2  2  0
  4  2  1  0
  5  4  1  0
  5  6  1  6
  7  5  1  0
  8  7  2  0
 10  9  1  6
 10 12  1  0
 11 10  1  0
 12 14  1  0
 12 13  1  1
 13  7  1  0
 14 16  1  0
 15 14  2  0
 16 17  1  0
 18 17  1  0
 18 20  1  0
 19 18  2  0
M  END
$$$$
