NTG.pdb
     RDKit          3D

 20 19  0  0  1  0  0  0  0  0999 V2000
   21.9956  -12.0690  -21.7690 N   0  0  0  0  0  0  0  0  0  0  0  0
   21.6079  -12.7184  -20.5848 C   0  0  0  0  0  0  0  0  0  0  0  0
   21.2762  -13.9493  -20.6864 O   0  0  0  0  0  0  0  0  0  0  0  0
   21.5750  -12.0299  -19.2569 C   0  0  0  0  0  0  0  0  0  0  0  0
   22.8822  -12.3076  -18.5519 C   0  0  2  0  0  0  0  0  0  0  0  0
   23.0517  -13.7036  -18.2915 N   0  0  0  0  0  0  0  0  0  0  0  0
   23.0635  -11.4693  -17.3493 C   0  0  0  0  0  0  0  0  0  0  0  0
   22.3856  -11.6868  -16.3286 O   0  0  0  0  0  0  0  0  0  0  0  0
   26.2146  -10.9987  -15.3364 C   0  0  0  0  0  0  0  0  0  0  0  0
   25.6953   -9.6072  -15.6617 C   0  0  1  0  0  0  0  0  0  0  0  0
   26.4676   -9.1822  -16.7648 O   0  0  0  0  0  0  0  0  0  0  0  0
   24.2818   -9.6210  -16.1291 C   0  0  2  0  0  0  0  0  0  0  0  0
   23.9861  -10.3953  -17.2669 N   0  0  0  0  0  0  0  0  0  0  0  0
   23.8986   -8.1943  -16.4255 C   0  0  0  0  0  0  0  0  0  0  0  0
   24.1036   -7.7953  -17.5999 O   0  0  0  0  0  0  0  0  0  0  0  0
   23.3442   -7.3542  -15.4502 N   0  0  0  0  0  0  0  0  0  0  0  0
   22.9510   -6.0122  -15.8010 C   0  0  0  0  0  0  0  0  0  0  0  0
   22.3492   -5.2902  -14.6694 C   0  0  0  0  0  0  0  0  0  0  0  0
   21.1125   -5.3157  -14.4494 O   0  0  0  0  0  0  0  0  0  0  0  0
   23.1535   -4.5623  -13.8202 O   0  0  0  0  0  0  0  0  0  0  0  0
  2  1  1  0
  3  2  2  0
  4  2  1  0
  5  4  1  0
  5  6  1  1
  7  5  1  0
  8  7  2  0
 10  9  1  6
 10 12  1  0
 11 10  1  0
 12 14  1  0
 12 13  1  6
 13  7  1  0
 14 16  1  0
 15 14  2  0
 16 17  1  0
 18 17  1  0
 18 20  1  0
 19 18  2  0
M  END
$$$$
