NTG.pdb
     RDKit          3D

 20 19  0  0  1  0  0  0  0  0999 V2000
   14.6261  -10.2690  -16.1508 N   0  0  0  0  0  0  0  0  0  0  0  0
   14.9999   -9.8968  -14.8485 C   0  0  0  0  0  0  0  0  0  0  0  0
   14.0537   -9.5936  -14.0434 O   0  0  0  0  0  0  0  0  0  0  0  0
   16.4257   -9.8485  -14.3977 C   0  0  0  0  0  0  0  0  0  0  0  0
   17.2965  -10.3011  -15.5464 C   0  0  2  0  0  0  0  0  0  0  0  0
   17.0678  -11.6756  -15.8685 N   0  0  0  0  0  0  0  0  0  0  0  0
   18.7238   -9.9883  -15.3294 C   0  0  0  0  0  0  0  0  0  0  0  0
   19.4765  -10.8334  -14.8119 O   0  0  0  0  0  0  0  0  0  0  0  0
   21.2874   -9.2726  -17.8840 C   0  0  0  0  0  0  0  0  0  0  0  0
   21.3910   -8.1297  -16.8866 C   0  0  1  0  0  0  0  0  0  0  0  0
   20.6818   -7.0643  -17.4832 O   0  0  0  0  0  0  0  0  0  0  0  0
   20.6908   -8.4251  -15.6063 C   0  0  2  0  0  0  0  0  0  0  0  0
   19.3234   -8.7516  -15.6793 N   0  0  0  0  0  0  0  0  0  0  0  0
   20.8314   -7.2059  -14.7322 C   0  0  0  0  0  0  0  0  0  0  0  0
   19.8047   -6.4920  -14.6032 O   0  0  0  0  0  0  0  0  0  0  0  0
   22.0372   -6.8809  -14.0961 N   0  0  0  0  0  0  0  0  0  0  0  0
   22.0796   -5.7863  -13.1587 C   0  0  0  0  0  0  0  0  0  0  0  0
   21.9716   -4.4768  -13.8204 C   0  0  0  0  0  0  0  0  0  0  0  0
   21.8515   -4.3720  -15.0666 O   0  0  0  0  0  0  0  0  0  0  0  0
   22.0017   -3.3262  -13.0633 O   0  0  0  0  0  0  0  0  0  0  0  0
  2  1  1  0
  3  2  2  0
  4  2  1  0
  5  4  1  0
  5  6  1  1
  7  5  1  0
  8  7  2  0
 10  9  1  6
 10 12  1  0
 11 10  1  0
 12 14  1  0
 12 13  1  6
 13  7  1  0
 14 16  1  0
 15 14  2  0
 16 17  1  0
 18 17  1  0
 18 20  1  0
 19 18  2  0
M  END
$$$$
