NTG.pdb
     RDKit          3D

 20 19  0  0  1  0  0  0  0  0999 V2000
   26.1135  -20.3764   -7.2005 N   0  0  0  0  0  0  0  0  0  0  0  0
   25.6232  -20.8066   -8.4451 C   0  0  0  0  0  0  0  0  0  0  0  0
   25.2313  -22.0216   -8.5196 O   0  0  0  0  0  0  0  0  0  0  0  0
   25.5513  -19.9105   -9.6409 C   0  0  0  0  0  0  0  0  0  0  0  0
   25.9128  -20.7258  -10.8606 C   0  0  2  0  0  0  0  0  0  0  0  0
   27.1967  -21.3398  -10.7196 N   0  0  0  0  0  0  0  0  0  0  0  0
   25.7746  -19.9568  -12.1141 C   0  0  0  0  0  0  0  0  0  0  0  0
   26.3610  -18.8671  -12.2462 O   0  0  0  0  0  0  0  0  0  0  0  0
   27.2376  -19.9395  -15.1533 C   0  0  0  0  0  0  0  0  0  0  0  0
   25.7783  -20.0993  -15.5492 C   0  0  1  0  0  0  0  0  0  0  0  0
   25.6072  -21.4871  -15.7452 O   0  0  0  0  0  0  0  0  0  0  0  0
   24.8453  -19.7197  -14.4529 C   0  0  2  0  0  0  0  0  0  0  0  0
   24.9950  -20.3823  -13.2199 N   0  0  0  0  0  0  0  0  0  0  0  0
   23.4469  -19.9767  -14.9517 C   0  0  0  0  0  0  0  0  0  0  0  0
   22.9478  -21.0928  -14.6589 O   0  0  0  0  0  0  0  0  0  0  0  0
   22.7374  -19.0280  -15.7006 N   0  0  0  0  0  0  0  0  0  0  0  0
   21.4058  -19.3313  -16.1627 C   0  0  0  0  0  0  0  0  0  0  0  0
   20.8428  -18.2570  -16.9952 C   0  0  0  0  0  0  0  0  0  0  0  0
   21.4765  -17.1971  -17.2269 O   0  0  0  0  0  0  0  0  0  0  0  0
   19.5869  -18.4054  -17.5415 O   0  0  0  0  0  0  0  0  0  0  0  0
  2  1  1  0
  3  2  2  0
  4  2  1  0
  5  4  1  0
  5  6  1  1
  7  5  1  0
  8  7  2  0
 10  9  1  1
 10 12  1  0
 11 10  1  0
 12 14  1  0
 12 13  1  1
 13  7  1  0
 14 16  1  0
 15 14  2  0
 16 17  1  0
 18 17  1  0
 18 20  1  0
 19 18  2  0
M  END
$$$$
