NTG.pdb
     RDKit          3D

 20 19  0  0  1  0  0  0  0  0999 V2000
   20.5687  -22.0717  -11.2843 N   0  0  0  0  0  0  0  0  0  0  0  0
   21.1096  -20.9089  -10.7102 C   0  0  0  0  0  0  0  0  0  0  0  0
   20.6374  -20.5548   -9.5757 O   0  0  0  0  0  0  0  0  0  0  0  0
   22.1848  -20.1046  -11.3700 C   0  0  0  0  0  0  0  0  0  0  0  0
   23.4882  -20.8548  -11.2244 C   0  0  2  0  0  0  0  0  0  0  0  0
   23.7946  -21.1128   -9.8515 N   0  0  0  0  0  0  0  0  0  0  0  0
   24.5973  -20.2048  -11.9517 C   0  0  0  0  0  0  0  0  0  0  0  0
   25.1623  -19.2074  -11.4670 O   0  0  0  0  0  0  0  0  0  0  0  0
   28.0976  -21.0996  -12.7799 C   0  0  0  0  0  0  0  0  0  0  0  0
   27.3790  -20.8868  -14.1028 C   0  0  1  0  0  0  0  0  0  0  0  0
   26.9631  -22.1766  -14.4994 O   0  0  0  0  0  0  0  0  0  0  0  0
   26.1361  -20.0808  -13.9533 C   0  0  2  0  0  0  0  0  0  0  0  0
   25.0854  -20.6477  -13.2076 N   0  0  0  0  0  0  0  0  0  0  0  0
   25.6213  -19.7979  -15.3409 C   0  0  0  0  0  0  0  0  0  0  0  0
   24.5160  -20.3165  -15.6409 O   0  0  0  0  0  0  0  0  0  0  0  0
   26.3307  -19.0019  -16.2503 N   0  0  0  0  0  0  0  0  0  0  0  0
   25.7753  -18.7362  -17.5540 C   0  0  0  0  0  0  0  0  0  0  0  0
   26.6242  -17.8389  -18.3531 C   0  0  0  0  0  0  0  0  0  0  0  0
   27.6738  -18.2438  -18.9124 O   0  0  0  0  0  0  0  0  0  0  0  0
   26.2689  -16.5160  -18.4995 O   0  0  0  0  0  0  0  0  0  0  0  0
  2  1  1  0
  3  2  2  0
  4  2  1  0
  5  4  1  0
  5  6  1  1
  7  5  1  0
  8  7  2  0
 10  9  1  1
 10 12  1  0
 11 10  1  0
 12 14  1  0
 12 13  1  1
 13  7  1  0
 14 16  1  0
 15 14  2  0
 16 17  1  0
 18 17  1  0
 18 20  1  0
 19 18  2  0
M  END
$$$$
