NTG.pdb
     RDKit          3D

 20 19  0  0  1  0  0  0  0  0999 V2000
   26.9952  -20.5047   -6.0793 N   0  0  0  0  0  0  0  0  0  0  0  0
   26.9871  -19.6675   -7.2077 C   0  0  0  0  0  0  0  0  0  0  0  0
   26.9139  -18.4095   -6.9895 O   0  0  0  0  0  0  0  0  0  0  0  0
   27.0593  -20.1929   -8.6066 C   0  0  0  0  0  0  0  0  0  0  0  0
   25.7274  -19.9380   -9.2729 C   0  0  2  0  0  0  0  0  0  0  0  0
   24.7377  -20.8767   -8.8433 N   0  0  0  0  0  0  0  0  0  0  0  0
   25.8401  -19.8494  -10.7431 C   0  0  0  0  0  0  0  0  0  0  0  0
   26.7389  -19.1611  -11.2601 O   0  0  0  0  0  0  0  0  0  0  0  0
   27.0601  -21.6992  -13.4624 C   0  0  0  0  0  0  0  0  0  0  0  0
   25.5957  -21.5042  -13.8222 C   0  0  1  0  0  0  0  0  0  0  0  0
   24.9599  -22.6940  -13.4053 O   0  0  0  0  0  0  0  0  0  0  0  0
   24.9599  -20.4036  -13.0468 C   0  0  2  0  0  0  0  0  0  0  0  0
   24.9691  -20.5142  -11.6435 N   0  0  0  0  0  0  0  0  0  0  0  0
   23.5245  -20.3160  -13.4967 C   0  0  0  0  0  0  0  0  0  0  0  0
   22.6514  -20.4674  -12.6048 O   0  0  0  0  0  0  0  0  0  0  0  0
   23.1762  -20.0792  -14.8334 N   0  0  0  0  0  0  0  0  0  0  0  0
   21.8382  -19.6528  -15.1597 C   0  0  0  0  0  0  0  0  0  0  0  0
   21.1786  -20.5570  -16.1145 C   0  0  0  0  0  0  0  0  0  0  0  0
   21.8239  -21.4110  -16.7724 O   0  0  0  0  0  0  0  0  0  0  0  0
   19.8162  -20.4747  -16.3012 O   0  0  0  0  0  0  0  0  0  0  0  0
  2  1  1  0
  3  2  2  0
  4  2  1  0
  5  4  1  0
  5  6  1  6
  7  5  1  0
  8  7  2  0
 10  9  1  1
 10 12  1  0
 11 10  1  0
 12 14  1  0
 12 13  1  1
 13  7  1  0
 14 16  1  0
 15 14  2  0
 16 17  1  0
 18 17  1  0
 18 20  1  0
 19 18  2  0
M  END
$$$$
