NTG.pdb
     RDKit          3D

 20 19  0  0  1  0  0  0  0  0999 V2000
   22.4932  -14.3034  -17.5840 N   0  0  0  0  0  0  0  0  0  0  0  0
   21.6139  -13.7673  -18.5399 C   0  0  0  0  0  0  0  0  0  0  0  0
   21.0896  -14.5918  -19.3649 O   0  0  0  0  0  0  0  0  0  0  0  0
   21.2884  -12.3089  -18.6131 C   0  0  0  0  0  0  0  0  0  0  0  0
   22.0095  -11.6099  -17.4842 C   0  0  2  0  0  0  0  0  0  0  0  0
   21.7334  -12.2266  -16.2237 N   0  0  0  0  0  0  0  0  0  0  0  0
   21.7703  -10.1523  -17.4791 C   0  0  0  0  0  0  0  0  0  0  0  0
   22.0374   -9.4721  -18.4864 O   0  0  0  0  0  0  0  0  0  0  0  0
   18.6882   -8.2498  -17.4638 C   0  0  0  0  0  0  0  0  0  0  0  0
   19.4636   -7.7239  -16.2662 C   0  0  1  0  0  0  0  0  0  0  0  0
   18.9354   -8.4229  -15.1588 O   0  0  0  0  0  0  0  0  0  0  0  0
   20.9092   -8.0753  -16.3241 C   0  0  2  0  0  0  0  0  0  0  0  0
   21.2393   -9.4429  -16.3717 N   0  0  0  0  0  0  0  0  0  0  0  0
   21.5590   -7.4827  -15.1006 C   0  0  0  0  0  0  0  0  0  0  0  0
   22.1078   -8.2948  -14.3132 O   0  0  0  0  0  0  0  0  0  0  0  0
   21.5549   -6.1039  -14.8493 N   0  0  0  0  0  0  0  0  0  0  0  0
   22.1626   -5.5940  -13.6454 C   0  0  0  0  0  0  0  0  0  0  0  0
   21.9756   -4.1427  -13.4940 C   0  0  0  0  0  0  0  0  0  0  0  0
   21.4899   -3.4377  -14.4136 O   0  0  0  0  0  0  0  0  0  0  0  0
   22.3391   -3.5280  -12.3159 O   0  0  0  0  0  0  0  0  0  0  0  0
  2  1  1  0
  3  2  2  0
  4  2  1  0
  5  4  1  0
  5  6  1  1
  7  5  1  0
  8  7  2  0
 10  9  1  6
 10 12  1  0
 11 10  1  0
 12 14  1  0
 12 13  1  1
 13  7  1  0
 14 16  1  0
 15 14  2  0
 16 17  1  0
 18 17  1  0
 18 20  1  0
 19 18  2  0
M  END
$$$$
