NTG.pdb
     RDKit          3D

 20 19  0  0  1  0  0  0  0  0999 V2000
   20.0805  -15.6841  -17.8008 N   0  0  0  0  0  0  0  0  0  0  0  0
   19.2930  -14.6453  -17.2766 C   0  0  0  0  0  0  0  0  0  0  0  0
   18.4550  -14.9634  -16.3645 O   0  0  0  0  0  0  0  0  0  0  0  0
   19.4070  -13.2282  -17.7427 C   0  0  0  0  0  0  0  0  0  0  0  0
   19.9862  -12.4081  -16.6136 C   0  0  2  0  0  0  0  0  0  0  0  0
   19.2010  -12.5246  -15.4240 N   0  0  0  0  0  0  0  0  0  0  0  0
   20.2366  -11.0062  -17.0057 C   0  0  0  0  0  0  0  0  0  0  0  0
   20.7226  -10.7471  -18.1217 O   0  0  0  0  0  0  0  0  0  0  0  0
   17.8786   -8.3722  -17.6443 C   0  0  0  0  0  0  0  0  0  0  0  0
   18.8585   -7.7306  -16.6748 C   0  0  1  0  0  0  0  0  0  0  0  0
   18.2027   -7.7621  -15.4247 O   0  0  0  0  0  0  0  0  0  0  0  0
   20.1024   -8.5315  -16.5080 C   0  0  2  0  0  0  0  0  0  0  0  0
   19.9544   -9.8914  -16.1756 N   0  0  0  0  0  0  0  0  0  0  0  0
   20.9118   -7.8728  -15.4211 C   0  0  0  0  0  0  0  0  0  0  0  0
   20.8768   -8.4219  -14.2907 O   0  0  0  0  0  0  0  0  0  0  0  0
   21.6634   -6.7126  -15.6517 N   0  0  0  0  0  0  0  0  0  0  0  0
   22.4560   -6.1499  -14.5870 C   0  0  0  0  0  0  0  0  0  0  0  0
   21.6969   -5.1915  -13.7688 C   0  0  0  0  0  0  0  0  0  0  0  0
   20.4602   -5.0270  -13.9176 O   0  0  0  0  0  0  0  0  0  0  0  0
   22.3487   -4.4479  -12.8097 O   0  0  0  0  0  0  0  0  0  0  0  0
  2  1  1  0
  3  2  2  0
  4  2  1  0
  5  4  1  0
  5  6  1  1
  7  5  1  0
  8  7  2  0
 10  9  1  6
 10 12  1  0
 11 10  1  0
 12 14  1  0
 12 13  1  1
 13  7  1  0
 14 16  1  0
 15 14  2  0
 16 17  1  0
 18 17  1  0
 18 20  1  0
 19 18  2  0
M  END
$$$$
