NTG.pdb
     RDKit          3D

 20 19  0  0  1  0  0  0  0  0999 V2000
   24.5978  -13.6645  -19.1000 N   0  0  0  0  0  0  0  0  0  0  0  0
   24.0124  -13.0080  -18.0043 C   0  0  0  0  0  0  0  0  0  0  0  0
   24.0330  -13.6270  -16.8854 O   0  0  0  0  0  0  0  0  0  0  0  0
   23.3887  -11.6523  -18.1111 C   0  0  0  0  0  0  0  0  0  0  0  0
   22.0077  -11.7220  -17.5022 C   0  0  2  0  0  0  0  0  0  0  0  0
   21.1684  -12.6394  -18.2087 N   0  0  0  0  0  0  0  0  0  0  0  0
   21.3957  -10.3876  -17.3384 C   0  0  0  0  0  0  0  0  0  0  0  0
   21.1477   -9.6875  -18.3369 O   0  0  0  0  0  0  0  0  0  0  0  0
   18.6767   -9.3885  -14.2428 C   0  0  0  0  0  0  0  0  0  0  0  0
   18.9640   -8.6265  -15.5268 C   0  0  1  0  0  0  0  0  0  0  0  0
   18.5934   -7.2932  -15.2461 O   0  0  0  0  0  0  0  0  0  0  0  0
   20.4156   -8.5903  -15.8556 C   0  0  2  0  0  0  0  0  0  0  0  0
   21.0566   -9.8229  -16.0823 N   0  0  0  0  0  0  0  0  0  0  0  0
   21.1136   -7.9078  -14.7077 C   0  0  0  0  0  0  0  0  0  0  0  0
   21.5684   -8.6583  -13.8074 O   0  0  0  0  0  0  0  0  0  0  0  0
   21.2509   -6.5147  -14.6422 N   0  0  0  0  0  0  0  0  0  0  0  0
   22.0082   -5.9198  -13.5692 C   0  0  0  0  0  0  0  0  0  0  0  0
   21.9744   -4.4496  -13.6069 C   0  0  0  0  0  0  0  0  0  0  0  0
   21.3445   -3.8238  -14.4959 O   0  0  0  0  0  0  0  0  0  0  0  0
   22.6480   -3.7276  -12.6462 O   0  0  0  0  0  0  0  0  0  0  0  0
  2  1  1  0
  3  2  2  0
  4  2  1  0
  5  4  1  0
  5  6  1  6
  7  5  1  0
  8  7  2  0
 10  9  1  1
 10 12  1  0
 11 10  1  0
 12 14  1  0
 12 13  1  1
 13  7  1  0
 14 16  1  0
 15 14  2  0
 16 17  1  0
 18 17  1  0
 18 20  1  0
 19 18  2  0
M  END
$$$$
