NTG.pdb
     RDKit          3D

 20 19  0  0  1  0  0  0  0  0999 V2000
   20.3971  -10.1646  -21.0598 N   0  0  0  0  0  0  0  0  0  0  0  0
   21.0614   -9.4848  -20.0250 C   0  0  0  0  0  0  0  0  0  0  0  0
   22.3353   -9.5920  -19.9920 O   0  0  0  0  0  0  0  0  0  0  0  0
   20.3409   -8.6687  -18.9988 C   0  0  0  0  0  0  0  0  0  0  0  0
   20.9984   -8.9112  -17.6602 C   0  0  2  0  0  0  0  0  0  0  0  0
   20.8885  -10.2804  -17.2620 N   0  0  0  0  0  0  0  0  0  0  0  0
   20.5312   -7.9686  -16.6234 C   0  0  0  0  0  0  0  0  0  0  0  0
   19.4886   -7.3125  -16.8001 O   0  0  0  0  0  0  0  0  0  0  0  0
   19.9345   -9.1160  -13.0808 C   0  0  0  0  0  0  0  0  0  0  0  0
   20.6795   -7.7945  -12.9794 C   0  0  1  0  0  0  0  0  0  0  0  0
   22.0163   -8.1539  -12.7012 O   0  0  0  0  0  0  0  0  0  0  0  0
   20.7114   -7.0573  -14.2725 C   0  0  2  0  0  0  0  0  0  0  0  0
   21.2060   -7.7465  -15.3959 N   0  0  0  0  0  0  0  0  0  0  0  0
   21.5659   -5.8338  -14.0646 C   0  0  0  0  0  0  0  0  0  0  0  0
   22.8049   -6.0282  -13.9784 O   0  0  0  0  0  0  0  0  0  0  0  0
   21.0154   -4.5483  -13.9718 N   0  0  0  0  0  0  0  0  0  0  0  0
   21.8816   -3.4103  -13.7887 C   0  0  0  0  0  0  0  0  0  0  0  0
   21.1324   -2.1520  -13.6490 C   0  0  0  0  0  0  0  0  0  0  0  0
   21.7100   -1.0575  -13.4323 O   0  0  0  0  0  0  0  0  0  0  0  0
   19.7590   -2.1611  -13.7566 O   0  0  0  0  0  0  0  0  0  0  0  0
  2  1  1  0
  3  2  2  0
  4  2  1  0
  5  4  1  0
  5  6  1  1
  7  5  1  0
  8  7  2  0
 10  9  1  6
 10 12  1  0
 11 10  1  0
 12 14  1  0
 12 13  1  6
 13  7  1  0
 14 16  1  0
 15 14  2  0
 16 17  1  0
 18 17  1  0
 18 20  1  0
 19 18  2  0
M  END
$$$$
