ETW.pdb
     RDKit          3D

 31 32  0  0  1  0  0  0  0  0999 V2000
   10.6188  -18.3679   18.0757 N   0  0  0  0  0  0  0  0  0  0  0  0
   11.1206  -17.0121   17.9962 C   0  0  1  0  0  0  0  0  0  0  0  0
   10.9742  -16.5207   16.5985 C   0  0  0  0  0  0  0  0  0  0  0  0
   11.6266  -17.5684   15.6876 C   0  0  0  0  0  0  0  0  0  0  0  0
   11.6546  -17.0857   14.2853 C   0  0  0  0  0  0  0  0  0  0  0  0
   10.6875  -16.4722   13.8076 O   0  0  0  0  0  0  0  0  0  0  0  0
   10.5184  -16.1770   19.0319 C   0  0  0  0  0  0  0  0  0  0  0  0
   10.8864  -14.9792   19.1415 O   0  0  0  0  0  0  0  0  0  0  0  0
   12.7624  -17.3197   13.5055 O   0  0  0  0  0  0  0  0  0  0  0  0
    7.0833  -15.0016   19.7787 C   0  0  0  0  0  0  0  0  0  0  0  0
    7.5383  -15.7765   20.9783 C   0  0  1  0  0  0  0  0  0  0  0  0
    6.9392  -17.0045   21.1036 O   0  0  0  0  0  0  0  0  0  0  0  0
    9.0576  -15.8211   21.0746 C   0  0  2  0  0  0  0  0  0  0  0  0
    9.5249  -16.6272   19.9460 N   0  0  0  0  0  0  0  0  0  0  0  0
    9.5537  -16.3141   22.3533 C   0  0  0  0  0  0  0  0  0  0  0  0
   10.2455  -17.3545   22.4055 O   0  0  0  0  0  0  0  0  0  0  0  0
    9.2572  -15.6187   23.5442 N   0  0  0  0  0  0  0  0  0  0  0  0
    9.6969  -16.0485   24.8748 C   0  0  1  0  0  0  0  0  0  0  0  0
    9.5641  -14.9341   25.8420 C   0  0  0  0  0  0  0  0  0  0  0  0
    8.2027  -14.4914   26.0944 C   0  0  0  0  0  0  0  0  0  0  0  0
    7.0154  -15.2153   26.0809 C   0  0  0  0  0  0  0  0  0  0  0  0
    5.9609  -14.4321   26.3403 N   0  0  0  0  0  0  0  0  0  0  0  0
    6.4142  -13.1863   26.5302 C   0  0  0  0  0  0  0  0  0  0  0  0
    5.7129  -12.0186   26.8407 C   0  0  0  0  0  0  0  0  0  0  0  0
    6.3719  -10.8255   27.0155 C   0  0  0  0  0  0  0  0  0  0  0  0
    7.7555  -10.8292   26.8715 C   0  0  0  0  0  0  0  0  0  0  0  0
    8.4376  -11.9784   26.5661 C   0  0  0  0  0  0  0  0  0  0  0  0
    7.7946  -13.1908   26.3852 C   0  0  0  0  0  0  0  0  0  0  0  0
    9.1386  -17.3387   25.2056 C   0  0  0  0  0  0  0  0  0  0  0  0
    9.6425  -18.1244   26.2019 O   0  0  0  0  0  0  0  0  0  0  0  0
    8.1385  -17.7730   24.5451 O   0  0  0  0  0  0  0  0  0  0  0  0
  2  3  1  0
  2  1  1  6
  3  4  1  0
  4  5  1  0
  5  9  1  0
  6  5  2  0
  7  2  1  0
  8  7  2  0
 11 10  1  6
 11 13  1  0
 12 11  1  0
 13 14  1  6
 14  7  1  0
 15 13  1  0
 15 17  1  0
 16 15  2  0
 18 17  1  0
 18 29  1  0
 18 19  1  1
 20 19  1  0
 20 21  2  0
 22 21  1  0
 23 22  1  0
 24 23  2  0
 25 24  1  0
 26 25  2  0
 26 27  1  0
 27 28  2  0
 28 23  1  0
 28 20  1  0
 29 30  1  0
 31 29  2  0
M  END
$$$$
