ETW.pdb
     RDKit          3D

 31 32  0  0  1  0  0  0  0  0999 V2000
   10.5912  -17.6986   19.1537 N   0  0  0  0  0  0  0  0  0  0  0  0
    9.9221  -16.7035   19.9650 C   0  0  1  0  0  0  0  0  0  0  0  0
    8.8056  -16.1075   19.1810 C   0  0  0  0  0  0  0  0  0  0  0  0
    9.3647  -15.7759   17.7916 C   0  0  0  0  0  0  0  0  0  0  0  0
    8.2777  -15.3072   16.8976 C   0  0  0  0  0  0  0  0  0  0  0  0
    7.8628  -16.0259   15.9750 O   0  0  0  0  0  0  0  0  0  0  0  0
    9.5620  -17.2564   21.2678 C   0  0  0  0  0  0  0  0  0  0  0  0
    8.4031  -17.7147   21.4379 O   0  0  0  0  0  0  0  0  0  0  0  0
    7.7233  -14.0643   17.0917 O   0  0  0  0  0  0  0  0  0  0  0  0
   10.1986  -20.2172   22.8856 C   0  0  0  0  0  0  0  0  0  0  0  0
   10.7480  -19.1964   23.8357 C   0  0  1  0  0  0  0  0  0  0  0  0
   12.1173  -19.1092   23.8230 O   0  0  0  0  0  0  0  0  0  0  0  0
   10.0452  -17.8537   23.6851 C   0  0  2  0  0  0  0  0  0  0  0  0
   10.4437  -17.3166   22.3833 N   0  0  0  0  0  0  0  0  0  0  0  0
   10.3100  -16.9234   24.7753 C   0  0  0  0  0  0  0  0  0  0  0  0
   11.1507  -16.0081   24.6365 O   0  0  0  0  0  0  0  0  0  0  0  0
    9.6173  -17.0484   25.9976 N   0  0  0  0  0  0  0  0  0  0  0  0
    9.9010  -16.2392   27.1864 C   0  0  1  0  0  0  0  0  0  0  0  0
    8.6434  -15.6848   27.7398 C   0  0  0  0  0  0  0  0  0  0  0  0
    7.7118  -15.1591   26.7555 C   0  0  0  0  0  0  0  0  0  0  0  0
    6.7876  -15.8279   25.9600 C   0  0  0  0  0  0  0  0  0  0  0  0
    6.1314  -14.9826   25.1553 N   0  0  0  0  0  0  0  0  0  0  0  0
    6.5958  -13.7491   25.3924 C   0  0  0  0  0  0  0  0  0  0  0  0
    6.2231  -12.5296   24.8216 C   0  0  0  0  0  0  0  0  0  0  0  0
    6.8151  -11.3548   25.2187 C   0  0  0  0  0  0  0  0  0  0  0  0
    7.7931  -11.4302   26.2050 C   0  0  0  0  0  0  0  0  0  0  0  0
    8.1547  -12.6300   26.7606 C   0  0  0  0  0  0  0  0  0  0  0  0
    7.5724  -13.8254   26.3757 C   0  0  0  0  0  0  0  0  0  0  0  0
   10.8150  -16.9278   28.0673 C   0  0  0  0  0  0  0  0  0  0  0  0
   11.3962  -16.3217   29.1437 O   0  0  0  0  0  0  0  0  0  0  0  0
   11.1011  -18.1488   27.8379 O   0  0  0  0  0  0  0  0  0  0  0  0
  2  3  1  0
  2  1  1  6
  3  4  1  0
  4  5  1  0
  5  9  1  0
  6  5  2  0
  7  2  1  0
  8  7  2  0
 11 10  1  6
 11 13  1  0
 12 11  1  0
 13 14  1  6
 14  7  1  0
 15 13  1  0
 15 17  1  0
 16 15  2  0
 18 17  1  0
 18 29  1  0
 18 19  1  1
 20 19  1  0
 20 21  2  0
 22 21  1  0
 23 22  1  0
 24 23  2  0
 25 24  1  0
 26 25  2  0
 26 27  1  0
 27 28  2  0
 28 23  1  0
 28 20  1  0
 29 30  1  0
 31 29  2  0
M  END
$$$$
