ETW.pdb
     RDKit          3D

 31 32  0  0  1  0  0  0  0  0999 V2000
   10.8773  -19.0446   17.7591 N   0  0  0  0  0  0  0  0  0  0  0  0
   10.9474  -17.6003   17.8325 C   0  0  1  0  0  0  0  0  0  0  0  0
   10.7245  -17.0329   16.4742 C   0  0  0  0  0  0  0  0  0  0  0  0
   12.0582  -17.1380   15.7237 C   0  0  0  0  0  0  0  0  0  0  0  0
   11.8948  -16.6916   14.3185 C   0  0  0  0  0  0  0  0  0  0  0  0
   12.7692  -16.9332   13.4718 O   0  0  0  0  0  0  0  0  0  0  0  0
   10.0725  -17.0937   18.8864 C   0  0  0  0  0  0  0  0  0  0  0  0
    9.0113  -16.4990   18.5662 O   0  0  0  0  0  0  0  0  0  0  0  0
   10.7637  -16.0030   13.9489 O   0  0  0  0  0  0  0  0  0  0  0  0
    7.4976  -17.3750   19.7667 C   0  0  0  0  0  0  0  0  0  0  0  0
    8.1277  -17.6561   21.0974 C   0  0  1  0  0  0  0  0  0  0  0  0
    8.3011  -18.9923   21.3562 O   0  0  0  0  0  0  0  0  0  0  0  0
    9.3828  -16.8205   21.3119 C   0  0  2  0  0  0  0  0  0  0  0  0
   10.3367  -17.2255   20.2785 N   0  0  0  0  0  0  0  0  0  0  0  0
    9.9395  -16.9258   22.6547 C   0  0  0  0  0  0  0  0  0  0  0  0
   10.9150  -17.6753   22.8788 O   0  0  0  0  0  0  0  0  0  0  0  0
    9.3811  -16.1800   23.7138 N   0  0  0  0  0  0  0  0  0  0  0  0
    9.9142  -16.1705   25.0791 C   0  0  1  0  0  0  0  0  0  0  0  0
    9.5428  -14.9106   25.7645 C   0  0  0  0  0  0  0  0  0  0  0  0
    8.1193  -14.6172   25.7935 C   0  0  0  0  0  0  0  0  0  0  0  0
    7.0327  -15.4662   25.6132 C   0  0  0  0  0  0  0  0  0  0  0  0
    5.8733  -14.8008   25.6888 N   0  0  0  0  0  0  0  0  0  0  0  0
    6.1560  -13.5120   25.9181 C   0  0  0  0  0  0  0  0  0  0  0  0
    5.2943  -12.4257   26.0899 C   0  0  0  0  0  0  0  0  0  0  0  0
    5.7870  -11.1670   26.3373 C   0  0  0  0  0  0  0  0  0  0  0  0
    7.1685  -11.0210   26.4088 C   0  0  0  0  0  0  0  0  0  0  0  0
    8.0085  -12.0909   26.2386 C   0  0  0  0  0  0  0  0  0  0  0  0
    7.5345  -13.3671   25.9881 C   0  0  0  0  0  0  0  0  0  0  0  0
    9.6598  -17.4312   25.7360 C   0  0  0  0  0  0  0  0  0  0  0  0
   10.3845  -17.8600   26.8106 O   0  0  0  0  0  0  0  0  0  0  0  0
    8.7271  -18.1835   25.3011 O   0  0  0  0  0  0  0  0  0  0  0  0
  2  3  1  0
  2  1  1  6
  3  4  1  0
  4  5  1  0
  5  9  1  0
  6  5  2  0
  7  2  1  0
  8  7  2  0
 11 10  1  6
 11 13  1  0
 12 11  1  0
 13 14  1  6
 14  7  1  0
 15 13  1  0
 15 17  1  0
 16 15  2  0
 18 17  1  0
 18 29  1  0
 18 19  1  1
 20 19  1  0
 20 21  2  0
 22 21  1  0
 23 22  1  0
 24 23  2  0
 25 24  1  0
 26 25  2  0
 26 27  1  0
 27 28  2  0
 28 23  1  0
 28 20  1  0
 29 30  1  0
 31 29  2  0
M  END
$$$$
