ETW.pdb
     RDKit          3D

 31 32  0  0  1  0  0  0  0  0999 V2000
   10.3598  -15.6293   18.1737 N   0  0  0  0  0  0  0  0  0  0  0  0
    8.9774  -15.4028   18.5398 C   0  0  1  0  0  0  0  0  0  0  0  0
    8.1112  -15.6734   17.3595 C   0  0  0  0  0  0  0  0  0  0  0  0
    9.0281  -15.6948   16.1300 C   0  0  0  0  0  0  0  0  0  0  0  0
    8.2385  -15.9637   14.9034 C   0  0  0  0  0  0  0  0  0  0  0  0
    8.7771  -15.9395   13.7858 O   0  0  0  0  0  0  0  0  0  0  0  0
    8.6398  -16.1325   19.7589 C   0  0  0  0  0  0  0  0  0  0  0  0
    7.4712  -16.0500   20.2166 O   0  0  0  0  0  0  0  0  0  0  0  0
    6.8961  -16.2428   15.0041 O   0  0  0  0  0  0  0  0  0  0  0  0
    8.8311  -19.7537   20.4853 C   0  0  0  0  0  0  0  0  0  0  0  0
    9.6103  -19.0791   21.5736 C   0  0  1  0  0  0  0  0  0  0  0  0
   10.9662  -19.2683   21.4820 O   0  0  0  0  0  0  0  0  0  0  0  0
    9.2027  -17.6205   21.7344 C   0  0  2  0  0  0  0  0  0  0  0  0
    9.5544  -16.9474   20.4833 N   0  0  0  0  0  0  0  0  0  0  0  0
    9.7875  -16.9693   22.8997 C   0  0  0  0  0  0  0  0  0  0  0  0
   10.6185  -16.0457   22.7585 O   0  0  0  0  0  0  0  0  0  0  0  0
    9.4184  -17.3766   24.1988 N   0  0  0  0  0  0  0  0  0  0  0  0
    9.9012  -16.7368   25.4260 C   0  0  1  0  0  0  0  0  0  0  0  0
    9.6718  -15.2744   25.3647 C   0  0  0  0  0  0  0  0  0  0  0  0
    8.2865  -14.8578   25.5082 C   0  0  0  0  0  0  0  0  0  0  0  0
    7.1169  -15.5984   25.3747 C   0  0  0  0  0  0  0  0  0  0  0  0
    6.0312  -14.8371   25.5597 N   0  0  0  0  0  0  0  0  0  0  0  0
    6.4456  -13.5900   25.8174 C   0  0  0  0  0  0  0  0  0  0  0  0
    5.7008  -12.4405   26.0929 C   0  0  0  0  0  0  0  0  0  0  0  0
    6.3224  -11.2427   26.3521 C   0  0  0  0  0  0  0  0  0  0  0  0
    7.7130  -11.2228   26.3287 C   0  0  0  0  0  0  0  0  0  0  0  0
    8.4380  -12.3541   26.0570 C   0  0  0  0  0  0  0  0  0  0  0  0
    7.8332  -13.5708   25.7927 C   0  0  0  0  0  0  0  0  0  0  0  0
    9.4643  -17.4702   26.5908 C   0  0  0  0  0  0  0  0  0  0  0  0
    9.9455  -17.2164   27.8429 O   0  0  0  0  0  0  0  0  0  0  0  0
    8.5987  -18.3963   26.4558 O   0  0  0  0  0  0  0  0  0  0  0  0
  2  3  1  0
  2  1  1  6
  3  4  1  0
  4  5  1  0
  5  9  1  0
  6  5  2  0
  7  2  1  0
  8  7  2  0
 11 10  1  6
 11 13  1  0
 12 11  1  0
 13 14  1  6
 14  7  1  0
 15 13  1  0
 15 17  1  0
 16 15  2  0
 18 17  1  0
 18 29  1  0
 18 19  1  1
 20 19  1  0
 20 21  2  0
 22 21  1  0
 23 22  1  0
 24 23  2  0
 25 24  1  0
 26 25  2  0
 26 27  1  0
 27 28  2  0
 28 23  1  0
 28 20  1  0
 29 30  1  0
 31 29  2  0
M  END
$$$$
