ETW.pdb
     RDKit          3D

 31 32  0  0  1  0  0  0  0  0999 V2000
    8.4065  -13.7652   18.9162 N   0  0  0  0  0  0  0  0  0  0  0  0
    7.7756  -15.0434   18.6623 C   0  0  1  0  0  0  0  0  0  0  0  0
    7.8381  -15.3354   17.2038 C   0  0  0  0  0  0  0  0  0  0  0  0
    7.8293  -13.9837   16.4785 C   0  0  0  0  0  0  0  0  0  0  0  0
    7.7980  -14.1878   15.0096 C   0  0  0  0  0  0  0  0  0  0  0  0
    7.8803  -13.2223   14.2344 O   0  0  0  0  0  0  0  0  0  0  0  0
    8.3221  -16.0728   19.5424 C   0  0  0  0  0  0  0  0  0  0  0  0
    8.0011  -17.2738   19.3509 O   0  0  0  0  0  0  0  0  0  0  0  0
    7.6766  -15.4589   14.5001 O   0  0  0  0  0  0  0  0  0  0  0  0
    9.6624  -18.4765   19.5016 C   0  0  0  0  0  0  0  0  0  0  0  0
   10.5942  -17.7572   20.4296 C   0  0  1  0  0  0  0  0  0  0  0  0
   11.6256  -17.1164   19.7908 O   0  0  0  0  0  0  0  0  0  0  0  0
    9.8366  -16.8743   21.4125 C   0  0  2  0  0  0  0  0  0  0  0  0
    9.2097  -15.8127   20.6239 N   0  0  0  0  0  0  0  0  0  0  0  0
   10.6626  -16.3506   22.4931 C   0  0  0  0  0  0  0  0  0  0  0  0
   11.5221  -15.4717   22.2642 O   0  0  0  0  0  0  0  0  0  0  0  0
   10.4970  -16.8319   23.8086 N   0  0  0  0  0  0  0  0  0  0  0  0
    9.7182  -16.1423   24.8412 C   0  0  1  0  0  0  0  0  0  0  0  0
    8.5028  -15.5383   24.2471 C   0  0  0  0  0  0  0  0  0  0  0  0
    7.5655  -14.9666   25.1999 C   0  0  0  0  0  0  0  0  0  0  0  0
    6.4167  -15.5179   25.7571 C   0  0  0  0  0  0  0  0  0  0  0  0
    5.8078  -14.6542   26.5792 N   0  0  0  0  0  0  0  0  0  0  0  0
    6.5261  -13.5240   26.5892 C   0  0  0  0  0  0  0  0  0  0  0  0
    6.3151  -12.3381   27.2971 C   0  0  0  0  0  0  0  0  0  0  0  0
    7.1893  -11.2840   27.1837 C   0  0  0  0  0  0  0  0  0  0  0  0
    8.2843  -11.4459   26.3412 C   0  0  0  0  0  0  0  0  0  0  0  0
    8.4853  -12.6118   25.6489 C   0  0  0  0  0  0  0  0  0  0  0  0
    7.6178  -13.6860   25.7475 C   0  0  0  0  0  0  0  0  0  0  0  0
    9.5910  -16.9657   26.0209 C   0  0  0  0  0  0  0  0  0  0  0  0
    9.8954  -16.5107   27.2715 O   0  0  0  0  0  0  0  0  0  0  0  0
    9.1836  -18.1677   25.9010 O   0  0  0  0  0  0  0  0  0  0  0  0
  2  3  1  0
  2  1  1  6
  3  4  1  0
  4  5  1  0
  5  9  1  0
  6  5  2  0
  7  2  1  0
  8  7  2  0
 11 10  1  6
 11 13  1  0
 12 11  1  0
 13 14  1  6
 14  7  1  0
 15 13  1  0
 15 17  1  0
 16 15  2  0
 18 17  1  0
 18 29  1  0
 18 19  1  6
 20 19  1  0
 20 21  2  0
 22 21  1  0
 23 22  1  0
 24 23  2  0
 25 24  1  0
 26 25  2  0
 26 27  1  0
 27 28  2  0
 28 23  1  0
 28 20  1  0
 29 30  1  0
 31 29  2  0
M  END
$$$$
