ETW.pdb
     RDKit          3D

 31 32  0  0  1  0  0  0  0  0999 V2000
    9.3994  -18.8734   19.8294 N   0  0  0  0  0  0  0  0  0  0  0  0
   10.2911  -17.8687   19.2894 C   0  0  1  0  0  0  0  0  0  0  0  0
   10.0962  -17.7871   17.8156 C   0  0  0  0  0  0  0  0  0  0  0  0
   10.7694  -19.0244   17.2084 C   0  0  0  0  0  0  0  0  0  0  0  0
   10.1846  -19.3288   15.8795 C   0  0  0  0  0  0  0  0  0  0  0  0
   10.3694  -18.5675   14.9172 O   0  0  0  0  0  0  0  0  0  0  0  0
   10.1563  -16.6118   20.0207 C   0  0  0  0  0  0  0  0  0  0  0  0
   10.8904  -15.6401   19.7061 O   0  0  0  0  0  0  0  0  0  0  0  0
    9.4301  -20.4655   15.7107 O   0  0  0  0  0  0  0  0  0  0  0  0
    7.1079  -14.4160   20.2275 C   0  0  0  0  0  0  0  0  0  0  0  0
    7.5186  -14.8167   21.6123 C   0  0  1  0  0  0  0  0  0  0  0  0
    6.7431  -15.8108   22.1535 O   0  0  0  0  0  0  0  0  0  0  0  0
    9.0146  -15.0891   21.6974 C   0  0  2  0  0  0  0  0  0  0  0  0
    9.2366  -16.4001   21.0859 N   0  0  0  0  0  0  0  0  0  0  0  0
    9.5534  -15.0075   23.0491 C   0  0  0  0  0  0  0  0  0  0  0  0
   10.0939  -13.9547   23.4529 O   0  0  0  0  0  0  0  0  0  0  0  0
    9.4678  -16.1182   23.9143 N   0  0  0  0  0  0  0  0  0  0  0  0
    9.9431  -16.1150   25.3009 C   0  0  1  0  0  0  0  0  0  0  0  0
    8.8316  -16.4450   26.2234 C   0  0  0  0  0  0  0  0  0  0  0  0
    7.6561  -15.5980   26.1055 C   0  0  0  0  0  0  0  0  0  0  0  0
    6.3669  -15.9186   25.6942 C   0  0  0  0  0  0  0  0  0  0  0  0
    5.5697  -14.8429   25.6978 N   0  0  0  0  0  0  0  0  0  0  0  0
    6.2982  -13.7959   26.1059 C   0  0  0  0  0  0  0  0  0  0  0  0
    5.9212  -12.4632   26.2897 C   0  0  0  0  0  0  0  0  0  0  0  0
    6.8248  -11.5302   26.7386 C   0  0  0  0  0  0  0  0  0  0  0  0
    8.1200  -11.9649   27.0001 C   0  0  0  0  0  0  0  0  0  0  0  0
    8.4836  -13.2739   26.8170 C   0  0  0  0  0  0  0  0  0  0  0  0
    7.5906  -14.2302   26.3654 C   0  0  0  0  0  0  0  0  0  0  0  0
   11.1905  -16.8337   25.4154 C   0  0  0  0  0  0  0  0  0  0  0  0
   11.8826  -16.9233   26.5887 O   0  0  0  0  0  0  0  0  0  0  0  0
   11.6760  -17.4074   24.3857 O   0  0  0  0  0  0  0  0  0  0  0  0
  2  3  1  0
  2  1  1  1
  3  4  1  0
  4  5  1  0
  5  9  1  0
  6  5  2  0
  7  2  1  0
  8  7  2  0
 11 10  1  6
 11 13  1  0
 12 11  1  0
 13 14  1  1
 14  7  1  0
 15 13  1  0
 15 17  1  0
 16 15  2  0
 18 17  1  0
 18 29  1  0
 18 19  1  1
 20 19  1  0
 20 21  2  0
 22 21  1  0
 23 22  1  0
 24 23  2  0
 25 24  1  0
 26 25  2  0
 26 27  1  0
 27 28  2  0
 28 23  1  0
 28 20  1  0
 29 30  1  0
 31 29  2  0
M  END
$$$$
