ETW.pdb
     RDKit          3D

 31 32  0  0  1  0  0  0  0  0999 V2000
   11.0825  -17.5564   16.8626 N   0  0  0  0  0  0  0  0  0  0  0  0
   10.7443  -18.2863   18.0664 C   0  0  1  0  0  0  0  0  0  0  0  0
   11.9109  -19.1153   18.4764 C   0  0  0  0  0  0  0  0  0  0  0  0
   13.1560  -18.4699   17.8548 C   0  0  0  0  0  0  0  0  0  0  0  0
   14.2600  -18.4228   18.8444 C   0  0  0  0  0  0  0  0  0  0  0  0
   14.5116  -17.3769   19.4629 O   0  0  0  0  0  0  0  0  0  0  0  0
   10.2136  -17.3845   19.0852 C   0  0  0  0  0  0  0  0  0  0  0  0
   10.5167  -16.1646   19.0391 O   0  0  0  0  0  0  0  0  0  0  0  0
   15.0132  -19.5485   19.0799 O   0  0  0  0  0  0  0  0  0  0  0  0
    6.6477  -16.6407   19.9425 C   0  0  0  0  0  0  0  0  0  0  0  0
    7.3248  -17.0950   21.2001 C   0  0  1  0  0  0  0  0  0  0  0  0
    6.9767  -18.3640   21.5886 O   0  0  0  0  0  0  0  0  0  0  0  0
    8.8286  -16.8601   21.1443 C   0  0  2  0  0  0  0  0  0  0  0  0
    9.3610  -17.7919   20.1493 N   0  0  0  0  0  0  0  0  0  0  0  0
    9.4937  -16.9849   22.4351 C   0  0  0  0  0  0  0  0  0  0  0  0
   10.2837  -17.9297   22.6516 O   0  0  0  0  0  0  0  0  0  0  0  0
    9.2514  -16.0376   23.4518 N   0  0  0  0  0  0  0  0  0  0  0  0
    9.8616  -16.0910   24.7834 C   0  0  1  0  0  0  0  0  0  0  0  0
    9.6585  -14.8052   25.4910 C   0  0  0  0  0  0  0  0  0  0  0  0
    8.2743  -14.4700   25.7823 C   0  0  0  0  0  0  0  0  0  0  0  0
    7.1483  -15.2859   25.8078 C   0  0  0  0  0  0  0  0  0  0  0  0
    6.0432  -14.5869   26.0952 N   0  0  0  0  0  0  0  0  0  0  0  0
    6.4015  -13.3078   26.2657 C   0  0  0  0  0  0  0  0  0  0  0  0
    5.6191  -12.1972   26.5918 C   0  0  0  0  0  0  0  0  0  0  0  0
    6.1863  -10.9544   26.7412 C   0  0  0  0  0  0  0  0  0  0  0  0
    7.5608  -10.8495   26.5555 C   0  0  0  0  0  0  0  0  0  0  0  0
    8.3227  -11.9431   26.2350 C   0  0  0  0  0  0  0  0  0  0  0  0
    7.7729  -13.2039   26.0792 C   0  0  0  0  0  0  0  0  0  0  0  0
    9.5214  -17.3247   25.4526 C   0  0  0  0  0  0  0  0  0  0  0  0
   10.2518  -17.8227   26.4928 O   0  0  0  0  0  0  0  0  0  0  0  0
    8.5034  -17.9854   25.0621 O   0  0  0  0  0  0  0  0  0  0  0  0
  2  3  1  0
  2  1  1  6
  3  4  1  0
  4  5  1  0
  5  9  1  0
  6  5  2  0
  7  2  1  0
  8  7  2  0
 11 10  1  6
 11 13  1  0
 12 11  1  0
 13 14  1  6
 14  7  1  0
 15 13  1  0
 15 17  1  0
 16 15  2  0
 18 17  1  0
 18 29  1  0
 18 19  1  1
 20 19  1  0
 20 21  2  0
 22 21  1  0
 23 22  1  0
 24 23  2  0
 25 24  1  0
 26 25  2  0
 26 27  1  0
 27 28  2  0
 28 23  1  0
 28 20  1  0
 29 30  1  0
 31 29  2  0
M  END
$$$$
