ETW.pdb
     RDKit          3D

 31 32  0  0  1  0  0  0  0  0999 V2000
    8.8391  -21.0626   20.2604 N   0  0  0  0  0  0  0  0  0  0  0  0
    9.5586  -20.6439   21.4450 C   0  0  1  0  0  0  0  0  0  0  0  0
   10.2850  -21.8134   22.0116 C   0  0  0  0  0  0  0  0  0  0  0  0
    9.3193  -23.0042   21.9611 C   0  0  0  0  0  0  0  0  0  0  0  0
    9.9738  -24.2211   22.5008 C   0  0  0  0  0  0  0  0  0  0  0  0
    9.4128  -24.9104   23.3668 O   0  0  0  0  0  0  0  0  0  0  0  0
   10.3714  -19.4633   21.1651 C   0  0  0  0  0  0  0  0  0  0  0  0
   10.8879  -19.3332   20.0257 O   0  0  0  0  0  0  0  0  0  0  0  0
   11.2145  -24.5904   22.0379 O   0  0  0  0  0  0  0  0  0  0  0  0
   10.3257  -17.1882   19.3374 C   0  0  0  0  0  0  0  0  0  0  0  0
   10.0963  -16.5735   20.6851 C   0  0  1  0  0  0  0  0  0  0  0  0
    8.7897  -16.6236   21.1009 O   0  0  0  0  0  0  0  0  0  0  0  0
   11.0896  -17.0938   21.7157 C   0  0  2  0  0  0  0  0  0  0  0  0
   10.6282  -18.4268   22.1059 N   0  0  0  0  0  0  0  0  0  0  0  0
   11.2692  -16.2102   22.8609 C   0  0  0  0  0  0  0  0  0  0  0  0
   11.6603  -15.0338   22.6977 O   0  0  0  0  0  0  0  0  0  0  0  0
   11.0012  -16.6767   24.1648 N   0  0  0  0  0  0  0  0  0  0  0  0
    9.9576  -16.1251   25.0337 C   0  0  1  0  0  0  0  0  0  0  0  0
    8.8176  -15.6413   24.2204 C   0  0  0  0  0  0  0  0  0  0  0  0
    7.7092  -15.0829   24.9770 C   0  0  0  0  0  0  0  0  0  0  0  0
    6.5515  -15.6971   25.4425 C   0  0  0  0  0  0  0  0  0  0  0  0
    5.7574  -14.8273   26.0792 N   0  0  0  0  0  0  0  0  0  0  0  0
    6.3585  -13.6309   26.0536 C   0  0  0  0  0  0  0  0  0  0  0  0
    5.9423  -12.4107   26.5921 C   0  0  0  0  0  0  0  0  0  0  0  0
    6.7213  -11.2850   26.4731 C   0  0  0  0  0  0  0  0  0  0  0  0
    7.9318  -11.4102   25.7993 C   0  0  0  0  0  0  0  0  0  0  0  0
    8.3341  -12.6101   25.2727 C   0  0  0  0  0  0  0  0  0  0  0  0
    7.5657  -13.7565   25.3802 C   0  0  0  0  0  0  0  0  0  0  0  0
    9.7032  -17.0060   26.1496 C   0  0  0  0  0  0  0  0  0  0  0  0
    9.7430  -18.3659   26.0369 O   0  0  0  0  0  0  0  0  0  0  0  0
    9.4251  -16.5049   27.2884 O   0  0  0  0  0  0  0  0  0  0  0  0
  2  3  1  0
  2  1  1  6
  3  4  1  0
  4  5  1  0
  5  9  1  0
  6  5  2  0
  7  2  1  0
  8  7  2  0
 11 10  1  6
 11 13  1  0
 12 11  1  0
 13 14  1  1
 14  7  1  0
 15 13  1  0
 15 17  1  0
 16 15  2  0
 18 17  1  0
 18 29  1  0
 18 19  1  6
 20 19  1  0
 20 21  2  0
 22 21  1  0
 23 22  1  0
 24 23  2  0
 25 24  1  0
 26 25  2  0
 26 27  1  0
 27 28  2  0
 28 23  1  0
 28 20  1  0
 29 30  1  0
 31 29  2  0
M  END
$$$$
