ETW.pdb
     RDKit          3D

 31 32  0  0  1  0  0  0  0  0999 V2000
   11.3760  -18.1767   17.7103 N   0  0  0  0  0  0  0  0  0  0  0  0
   12.0175  -18.2521   19.0061 C   0  0  1  0  0  0  0  0  0  0  0  0
   13.4754  -17.9987   18.8424 C   0  0  0  0  0  0  0  0  0  0  0  0
   13.8051  -18.2359   17.3632 C   0  0  0  0  0  0  0  0  0  0  0  0
   15.2554  -18.0399   17.1211 C   0  0  0  0  0  0  0  0  0  0  0  0
   15.6503  -17.3266   16.1856 O   0  0  0  0  0  0  0  0  0  0  0  0
   11.3278  -17.4036   19.9740 C   0  0  0  0  0  0  0  0  0  0  0  0
   11.6029  -16.1769   20.0165 O   0  0  0  0  0  0  0  0  0  0  0  0
   16.1727  -18.6541   17.9405 O   0  0  0  0  0  0  0  0  0  0  0  0
    7.6956  -16.7332   20.2885 C   0  0  0  0  0  0  0  0  0  0  0  0
    8.1580  -17.2306   21.6248 C   0  0  1  0  0  0  0  0  0  0  0  0
    7.7614  -18.5139   21.9049 O   0  0  0  0  0  0  0  0  0  0  0  0
    9.6479  -16.9894   21.8287 C   0  0  2  0  0  0  0  0  0  0  0  0
   10.3465  -17.8711   20.8925 N   0  0  0  0  0  0  0  0  0  0  0  0
   10.0928  -17.1742   23.2042 C   0  0  0  0  0  0  0  0  0  0  0  0
   10.8474  -18.1254   23.5032 O   0  0  0  0  0  0  0  0  0  0  0  0
    9.6752  -16.2783   24.2105 N   0  0  0  0  0  0  0  0  0  0  0  0
   10.0553  -16.3960   25.6212 C   0  0  1  0  0  0  0  0  0  0  0  0
    9.7312  -15.1442   26.3444 C   0  0  0  0  0  0  0  0  0  0  0  0
    8.3234  -14.7822   26.3567 C   0  0  0  0  0  0  0  0  0  0  0  0
    7.1958  -15.5958   26.3252 C   0  0  0  0  0  0  0  0  0  0  0  0
    6.0694  -14.8720   26.3232 N   0  0  0  0  0  0  0  0  0  0  0  0
    6.4148  -13.5785   26.3532 C   0  0  0  0  0  0  0  0  0  0  0  0
    5.6069  -12.4389   26.3783 C   0  0  0  0  0  0  0  0  0  0  0  0
    6.1612  -11.1824   26.4265 C   0  0  0  0  0  0  0  0  0  0  0  0
    7.5491  -11.0935   26.4492 C   0  0  0  0  0  0  0  0  0  0  0  0
    8.3362  -12.2155   26.4238 C   0  0  0  0  0  0  0  0  0  0  0  0
    7.7998  -13.4907   26.3746 C   0  0  0  0  0  0  0  0  0  0  0  0
    9.6140  -17.6587   26.1658 C   0  0  0  0  0  0  0  0  0  0  0  0
   10.1445  -18.1943   27.3040 O   0  0  0  0  0  0  0  0  0  0  0  0
    8.6965  -18.3096   25.5661 O   0  0  0  0  0  0  0  0  0  0  0  0
  2  3  1  0
  2  1  1  6
  3  4  1  0
  4  5  1  0
  5  9  1  0
  6  5  2  0
  7  2  1  0
  8  7  2  0
 11 10  1  6
 11 13  1  0
 12 11  1  0
 13 14  1  6
 14  7  1  0
 15 13  1  0
 15 17  1  0
 16 15  2  0
 18 17  1  0
 18 29  1  0
 18 19  1  1
 20 19  1  0
 20 21  2  0
 22 21  1  0
 23 22  1  0
 24 23  2  0
 25 24  1  0
 26 25  2  0
 26 27  1  0
 27 28  2  0
 28 23  1  0
 28 20  1  0
 29 30  1  0
 31 29  2  0
M  END
$$$$
