ETW.pdb
     RDKit          3D

 31 32  0  0  1  0  0  0  0  0999 V2000
   10.4044  -17.3337   16.7742 N   0  0  0  0  0  0  0  0  0  0  0  0
   10.9910  -17.5558   18.0791 C   0  0  1  0  0  0  0  0  0  0  0  0
   12.4365  -17.2031   18.0288 C   0  0  0  0  0  0  0  0  0  0  0  0
   13.1600  -18.3837   17.3688 C   0  0  0  0  0  0  0  0  0  0  0  0
   14.6061  -18.0861   17.2250 C   0  0  0  0  0  0  0  0  0  0  0  0
   14.9908  -17.1414   16.5184 O   0  0  0  0  0  0  0  0  0  0  0  0
   10.2083  -16.8904   19.1171 C   0  0  0  0  0  0  0  0  0  0  0  0
    9.9509  -15.6651   18.9972 O   0  0  0  0  0  0  0  0  0  0  0  0
   15.5309  -18.8640   17.8806 O   0  0  0  0  0  0  0  0  0  0  0  0
    6.8327  -17.0120   20.0726 C   0  0  0  0  0  0  0  0  0  0  0  0
    7.5595  -17.3751   21.3322 C   0  0  1  0  0  0  0  0  0  0  0  0
    7.4751  -18.7059   21.6556 O   0  0  0  0  0  0  0  0  0  0  0  0
    8.9818  -16.8306   21.3365 C   0  0  2  0  0  0  0  0  0  0  0  0
    9.7043  -17.5391   20.2792 N   0  0  0  0  0  0  0  0  0  0  0  0
    9.6482  -16.9307   22.6288 C   0  0  0  0  0  0  0  0  0  0  0  0
   10.5948  -17.7311   22.7928 O   0  0  0  0  0  0  0  0  0  0  0  0
    9.2298  -16.1223   23.7063 N   0  0  0  0  0  0  0  0  0  0  0  0
    9.8182  -16.1765   25.0477 C   0  0  1  0  0  0  0  0  0  0  0  0
    9.4931  -14.9418   25.7992 C   0  0  0  0  0  0  0  0  0  0  0  0
    8.0813  -14.5983   25.8461 C   0  0  0  0  0  0  0  0  0  0  0  0
    6.9634  -15.4066   25.6701 C   0  0  0  0  0  0  0  0  0  0  0  0
    5.8292  -14.7013   25.7639 N   0  0  0  0  0  0  0  0  0  0  0  0
    6.1599  -13.4255   26.0013 C   0  0  0  0  0  0  0  0  0  0  0  0
    5.3393  -12.3109   26.1919 C   0  0  0  0  0  0  0  0  0  0  0  0
    5.8790  -11.0728   26.4448 C   0  0  0  0  0  0  0  0  0  0  0  0
    7.2655  -10.9765   26.5027 C   0  0  0  0  0  0  0  0  0  0  0  0
    8.0651  -12.0738   26.3142 C   0  0  0  0  0  0  0  0  0  0  0  0
    7.5434  -13.3301   26.0578 C   0  0  0  0  0  0  0  0  0  0  0  0
    9.5728  -17.4603   25.6621 C   0  0  0  0  0  0  0  0  0  0  0  0
    8.6767  -18.3580   25.1571 O   0  0  0  0  0  0  0  0  0  0  0  0
   10.2091  -17.7766   26.7205 O   0  0  0  0  0  0  0  0  0  0  0  0
  2  3  1  0
  2  1  1  6
  3  4  1  0
  4  5  1  0
  5  9  1  0
  6  5  2  0
  7  2  1  0
  8  7  2  0
 11 10  1  6
 11 13  1  0
 12 11  1  0
 13 14  1  6
 14  7  1  0
 15 13  1  0
 15 17  1  0
 16 15  2  0
 18 17  1  0
 18 29  1  0
 18 19  1  1
 20 19  1  0
 20 21  2  0
 22 21  1  0
 23 22  1  0
 24 23  2  0
 25 24  1  0
 26 25  2  0
 26 27  1  0
 27 28  2  0
 28 23  1  0
 28 20  1  0
 29 30  1  0
 31 29  2  0
M  END
$$$$
