ETW.pdb
     RDKit          3D

 31 32  0  0  1  0  0  0  0  0999 V2000
    9.2228  -16.7233   18.5597 N   0  0  0  0  0  0  0  0  0  0  0  0
    8.7846  -16.1069   19.7943 C   0  0  1  0  0  0  0  0  0  0  0  0
    7.3143  -15.8818   19.7303 C   0  0  0  0  0  0  0  0  0  0  0  0
    6.6740  -17.2256   19.3600 C   0  0  0  0  0  0  0  0  0  0  0  0
    5.6499  -17.6023   20.3648 C   0  0  0  0  0  0  0  0  0  0  0  0
    4.8689  -16.7532   20.8217 O   0  0  0  0  0  0  0  0  0  0  0  0
    9.2639  -16.8636   20.9478 C   0  0  0  0  0  0  0  0  0  0  0  0
    8.9467  -18.0757   21.0580 O   0  0  0  0  0  0  0  0  0  0  0  0
    5.5640  -18.9050   20.7955 O   0  0  0  0  0  0  0  0  0  0  0  0
   12.2732  -18.1949   21.7851 C   0  0  0  0  0  0  0  0  0  0  0  0
   11.9885  -17.3534   22.9924 C   0  0  1  0  0  0  0  0  0  0  0  0
   12.7641  -16.2245   23.0752 O   0  0  0  0  0  0  0  0  0  0  0  0
   10.4975  -17.0879   23.1527 C   0  0  2  0  0  0  0  0  0  0  0  0
   10.0806  -16.3199   21.9787 N   0  0  0  0  0  0  0  0  0  0  0  0
   10.1469  -16.4264   24.4032 C   0  0  0  0  0  0  0  0  0  0  0  0
    9.6098  -15.2972   24.3933 O   0  0  0  0  0  0  0  0  0  0  0  0
   10.4106  -17.0574   25.6368 N   0  0  0  0  0  0  0  0  0  0  0  0
   10.0039  -16.5164   26.9370 C   0  0  1  0  0  0  0  0  0  0  0  0
    8.5606  -16.7618   27.1642 C   0  0  0  0  0  0  0  0  0  0  0  0
    7.6625  -15.8151   26.5237 C   0  0  0  0  0  0  0  0  0  0  0  0
    6.6124  -16.0433   25.6408 C   0  0  0  0  0  0  0  0  0  0  0  0
    6.0414  -14.8965   25.2517 N   0  0  0  0  0  0  0  0  0  0  0  0
    6.6878  -13.8921   25.8574 C   0  0  0  0  0  0  0  0  0  0  0  0
    6.4622  -12.5150   25.7888 C   0  0  0  0  0  0  0  0  0  0  0  0
    7.2348  -11.6371   26.5104 C   0  0  0  0  0  0  0  0  0  0  0  0
    8.2427  -12.1727   27.3055 C   0  0  0  0  0  0  0  0  0  0  0  0
    8.4592  -13.5248   27.3679 C   0  0  0  0  0  0  0  0  0  0  0  0
    7.6939  -14.4274   26.6496 C   0  0  0  0  0  0  0  0  0  0  0  0
   10.9512  -16.8850   27.9629 C   0  0  0  0  0  0  0  0  0  0  0  0
   12.0257  -17.6903   27.7167 O   0  0  0  0  0  0  0  0  0  0  0  0
   10.7849  -16.4505   29.1498 O   0  0  0  0  0  0  0  0  0  0  0  0
  2  3  1  0
  2  1  1  6
  3  4  1  0
  4  5  1  0
  5  9  1  0
  6  5  2  0
  7  2  1  0
  8  7  2  0
 11 10  1  6
 11 13  1  0
 12 11  1  0
 13 14  1  6
 14  7  1  0
 15 13  1  0
 15 17  1  0
 16 15  2  0
 18 17  1  0
 18 29  1  0
 18 19  1  1
 20 19  1  0
 20 21  2  0
 22 21  1  0
 23 22  1  0
 24 23  2  0
 25 24  1  0
 26 25  2  0
 26 27  1  0
 27 28  2  0
 28 23  1  0
 28 20  1  0
 29 30  1  0
 31 29  2  0
M  END
$$$$
