ETW.pdb
     RDKit          3D

 31 32  0  0  1  0  0  0  0  0999 V2000
   10.2136  -18.8741   20.3230 N   0  0  0  0  0  0  0  0  0  0  0  0
   11.0972  -17.7362   20.1788 C   0  0  1  0  0  0  0  0  0  0  0  0
   11.5057  -17.6155   18.7523 C   0  0  0  0  0  0  0  0  0  0  0  0
   12.2885  -18.8879   18.4042 C   0  0  0  0  0  0  0  0  0  0  0  0
   12.7694  -18.8292   17.0021 C   0  0  0  0  0  0  0  0  0  0  0  0
   13.9649  -18.6103   16.7516 O   0  0  0  0  0  0  0  0  0  0  0  0
   10.5036  -16.5426   20.7751 C   0  0  0  0  0  0  0  0  0  0  0  0
   11.1784  -15.4821   20.8204 O   0  0  0  0  0  0  0  0  0  0  0  0
   11.8830  -19.0190   15.9686 O   0  0  0  0  0  0  0  0  0  0  0  0
    7.1567  -14.6786   19.9744 C   0  0  0  0  0  0  0  0  0  0  0  0
    7.1941  -15.1674   21.3909 C   0  0  1  0  0  0  0  0  0  0  0  0
    6.4392  -16.2924   21.6081 O   0  0  0  0  0  0  0  0  0  0  0  0
    8.6219  -15.2756   21.9097 C   0  0  2  0  0  0  0  0  0  0  0  0
    9.1903  -16.4888   21.3207 N   0  0  0  0  0  0  0  0  0  0  0  0
    8.7241  -15.2627   23.3636 C   0  0  0  0  0  0  0  0  0  0  0  0
    8.0070  -14.4951   24.0420 O   0  0  0  0  0  0  0  0  0  0  0  0
    9.6342  -16.1191   24.0176 N   0  0  0  0  0  0  0  0  0  0  0  0
    9.7220  -16.2629   25.4737 C   0  0  1  0  0  0  0  0  0  0  0  0
    8.3925  -16.5970   26.0357 C   0  0  0  0  0  0  0  0  0  0  0  0
    7.4161  -15.5207   25.9997 C   0  0  0  0  0  0  0  0  0  0  0  0
    6.1129  -15.5184   25.5141 C   0  0  0  0  0  0  0  0  0  0  0  0
    5.5455  -14.3122   25.6392 N   0  0  0  0  0  0  0  0  0  0  0  0
    6.4439  -13.4946   26.2031 C   0  0  0  0  0  0  0  0  0  0  0  0
    6.3290  -12.1468   26.5527 C   0  0  0  0  0  0  0  0  0  0  0  0
    7.3739  -11.4808   27.1466 C   0  0  0  0  0  0  0  0  0  0  0  0
    8.5415  -12.1990   27.3833 C   0  0  0  0  0  0  0  0  0  0  0  0
    8.6480  -13.5211   27.0372 C   0  0  0  0  0  0  0  0  0  0  0  0
    7.6088  -14.2117   26.4378 C   0  0  0  0  0  0  0  0  0  0  0  0
   10.8641  -17.0675   25.8400 C   0  0  0  0  0  0  0  0  0  0  0  0
   11.2399  -17.2632   27.1377 O   0  0  0  0  0  0  0  0  0  0  0  0
   11.5584  -17.6179   24.9234 O   0  0  0  0  0  0  0  0  0  0  0  0
  2  3  1  0
  2  1  1  6
  3  4  1  0
  4  5  1  0
  5  9  1  0
  6  5  2  0
  7  2  1  0
  8  7  2  0
 11 10  1  6
 11 13  1  0
 12 11  1  0
 13 14  1  1
 14  7  1  0
 15 13  1  0
 15 17  1  0
 16 15  2  0
 18 17  1  0
 18 29  1  0
 18 19  1  6
 20 19  1  0
 20 21  2  0
 22 21  1  0
 23 22  1  0
 24 23  2  0
 25 24  1  0
 26 25  2  0
 26 27  1  0
 27 28  2  0
 28 23  1  0
 28 20  1  0
 29 30  1  0
 31 29  2  0
M  END
$$$$
