ETW.pdb
     RDKit          3D

 31 32  0  0  1  0  0  0  0  0999 V2000
   10.5949  -16.6970   18.1680 N   0  0  0  0  0  0  0  0  0  0  0  0
    9.5596  -15.8908   18.7800 C   0  0  1  0  0  0  0  0  0  0  0  0
    8.5318  -15.5593   17.7552 C   0  0  0  0  0  0  0  0  0  0  0  0
    9.1863  -15.7702   16.3840 C   0  0  0  0  0  0  0  0  0  0  0  0
    8.1734  -15.6540   15.3066 C   0  0  0  0  0  0  0  0  0  0  0  0
    7.4907  -14.6246   15.1879 O   0  0  0  0  0  0  0  0  0  0  0  0
    9.0636  -16.5252   19.9983 C   0  0  0  0  0  0  0  0  0  0  0  0
    8.0048  -17.2023   19.9470 O   0  0  0  0  0  0  0  0  0  0  0  0
    7.9878  -16.6965   14.4299 O   0  0  0  0  0  0  0  0  0  0  0  0
    8.4868  -19.0470   20.9553 C   0  0  0  0  0  0  0  0  0  0  0  0
    9.3977  -18.6635   22.0822 C   0  0  1  0  0  0  0  0  0  0  0  0
   10.6959  -19.0721   21.9078 O   0  0  0  0  0  0  0  0  0  0  0  0
    9.2600  -17.1892   22.4384 C   0  0  2  0  0  0  0  0  0  0  0  0
    9.7026  -16.4325   21.2665 N   0  0  0  0  0  0  0  0  0  0  0  0
    9.9733  -16.8056   23.6501 C   0  0  0  0  0  0  0  0  0  0  0  0
   11.1640  -16.4280   23.5912 O   0  0  0  0  0  0  0  0  0  0  0  0
    9.3237  -16.8566   24.9011 N   0  0  0  0  0  0  0  0  0  0  0  0
    9.9505  -16.4628   26.1661 C   0  0  1  0  0  0  0  0  0  0  0  0
    8.9352  -15.8992   27.0864 C   0  0  0  0  0  0  0  0  0  0  0  0
    7.8493  -15.1771   26.4441 C   0  0  0  0  0  0  0  0  0  0  0  0
    6.6891  -15.6611   25.8493 C   0  0  0  0  0  0  0  0  0  0  0  0
    5.9476  -14.6682   25.3423 N   0  0  0  0  0  0  0  0  0  0  0  0
    6.5867  -13.5165   25.5840 C   0  0  0  0  0  0  0  0  0  0  0  0
    6.2168  -12.2067   25.2684 C   0  0  0  0  0  0  0  0  0  0  0  0
    7.0124  -11.1441   25.6237 C   0  0  0  0  0  0  0  0  0  0  0  0
    8.1920  -11.4250   26.3053 C   0  0  0  0  0  0  0  0  0  0  0  0
    8.5496  -12.7125   26.6114 C   0  0  0  0  0  0  0  0  0  0  0  0
    7.7641  -13.7978   26.2630 C   0  0  0  0  0  0  0  0  0  0  0  0
   10.8350  -17.5000   26.6431 C   0  0  0  0  0  0  0  0  0  0  0  0
   10.8947  -18.7371   26.0688 O   0  0  0  0  0  0  0  0  0  0  0  0
   11.5912  -17.2637   27.6418 O   0  0  0  0  0  0  0  0  0  0  0  0
  2  3  1  0
  2  1  1  6
  3  4  1  0
  4  5  1  0
  5  9  1  0
  6  5  2  0
  7  2  1  0
  8  7  2  0
 11 10  1  6
 11 13  1  0
 12 11  1  0
 13 14  1  6
 14  7  1  0
 15 13  1  0
 15 17  1  0
 16 15  2  0
 18 17  1  0
 18 29  1  0
 18 19  1  1
 20 19  1  0
 20 21  2  0
 22 21  1  0
 23 22  1  0
 24 23  2  0
 25 24  1  0
 26 25  2  0
 26 27  1  0
 27 28  2  0
 28 23  1  0
 28 20  1  0
 29 30  1  0
 31 29  2  0
M  END
$$$$
