DSK.pdb
     RDKit          3D

 24 23  0  0  1  0  0  0  0  0999 V2000
   12.2412  -16.3419   17.2951 N   0  0  0  0  0  0  0  0  0  0  0  0
   11.7239  -17.3050   18.2792 C   0  0  1  0  0  0  0  0  0  0  0  0
   12.8544  -18.2250   18.5794 C   0  0  0  0  0  0  0  0  0  0  0  0
   13.2829  -19.1247   17.5252 C   0  0  0  0  0  0  0  0  0  0  0  0
   14.2087  -19.9467   17.6497 O   0  0  0  0  0  0  0  0  0  0  0  0
   11.1804  -16.5800   19.4544 C   0  0  0  0  0  0  0  0  0  0  0  0
   11.8221  -15.7518   20.1387 O   0  0  0  0  0  0  0  0  0  0  0  0
   12.6411  -19.0895   16.2938 O   0  0  0  0  0  0  0  0  0  0  0  0
    7.5531  -17.7130   20.9872 O   0  0  0  0  0  0  0  0  0  0  0  0
    7.7339  -16.3204   20.9694 C   0  0  0  0  0  0  0  0  0  0  0  0
    9.2371  -16.0892   21.0019 C   0  0  2  0  0  0  0  0  0  0  0  0
    9.8263  -16.7839   19.9101 N   0  0  0  0  0  0  0  0  0  0  0  0
    9.7402  -16.4807   22.3211 C   0  0  0  0  0  0  0  0  0  0  0  0
   10.3977  -17.5466   22.4315 O   0  0  0  0  0  0  0  0  0  0  0  0
    9.5339  -15.7278   23.5043 N   0  0  0  0  0  0  0  0  0  0  0  0
   10.0896  -16.1716   24.8073 C   0  0  1  0  0  0  0  0  0  0  0  0
    9.8699  -15.0731   25.8126 C   0  0  0  0  0  0  0  0  0  0  0  0
   10.3923  -15.3825   27.1687 C   0  0  0  0  0  0  0  0  0  0  0  0
   10.0614  -14.2086   28.0822 C   0  0  0  0  0  0  0  0  0  0  0  0
   10.5371  -14.4711   29.4944 C   0  0  0  0  0  0  0  0  0  0  0  0
   10.2636  -13.2634   30.2665 N   0  0  0  0  0  0  0  0  0  0  0  0
    9.3431  -17.3776   25.1716 C   0  0  0  0  0  0  0  0  0  0  0  0
    8.1815  -17.5571   24.7514 O   0  0  0  0  0  0  0  0  0  0  0  0
    9.9065  -18.3357   25.9805 O   0  0  0  0  0  0  0  0  0  0  0  0
  2  1  1  6
  2  3  1  0
  3  4  1  0
  4  5  2  0
  4  8  1  0
  6  2  1  0
  7  6  2  0
  9 10  1  0
 11 10  1  1
 11 13  1  0
 11 12  1  0
 12  6  1  0
 13 14  2  0
 15 16  1  0
 15 13  1  0
 17 18  1  0
 16 17  1  1
 19 20  1  0
 19 18  1  0
 20 21  1  0
 22 24  1  0
 22 16  1  0
 23 22  2  0
M  END
$$$$
