DSK.pdb
     RDKit          3D

 24 23  0  0  1  0  0  0  0  0999 V2000
    8.7295  -17.0168   16.7734 N   0  0  0  0  0  0  0  0  0  0  0  0
    7.9421  -17.1707   18.0062 C   0  0  1  0  0  0  0  0  0  0  0  0
    7.7159  -18.6331   18.1632 C   0  0  0  0  0  0  0  0  0  0  0  0
    6.8763  -19.2897   17.1791 C   0  0  0  0  0  0  0  0  0  0  0  0
    7.3176  -19.9688   16.2345 O   0  0  0  0  0  0  0  0  0  0  0  0
    8.6496  -16.5236   19.1388 C   0  0  0  0  0  0  0  0  0  0  0  0
    9.8778  -16.6200   19.3589 O   0  0  0  0  0  0  0  0  0  0  0  0
    5.4953  -19.1712   17.2707 O   0  0  0  0  0  0  0  0  0  0  0  0
    6.4576  -15.0406   22.2742 O   0  0  0  0  0  0  0  0  0  0  0  0
    7.5422  -14.2187   21.9272 C   0  0  0  0  0  0  0  0  0  0  0  0
    8.5580  -15.1245   21.2474 C   0  0  2  0  0  0  0  0  0  0  0  0
    7.9499  -15.7083   20.1023 N   0  0  0  0  0  0  0  0  0  0  0  0
    9.0583  -16.0858   22.2334 C   0  0  0  0  0  0  0  0  0  0  0  0
    8.5373  -17.2287   22.2898 O   0  0  0  0  0  0  0  0  0  0  0  0
   10.1084  -15.8128   23.1455 N   0  0  0  0  0  0  0  0  0  0  0  0
   10.5716  -16.8356   24.1165 C   0  0  1  0  0  0  0  0  0  0  0  0
   12.0670  -16.9568   23.9967 C   0  0  0  0  0  0  0  0  0  0  0  0
   12.6752  -17.9072   24.9635 C   0  0  0  0  0  0  0  0  0  0  0  0
   14.1814  -17.9168   24.7336 C   0  0  0  0  0  0  0  0  0  0  0  0
   14.8711  -18.8498   25.7049 C   0  0  0  0  0  0  0  0  0  0  0  0
   16.2858  -18.8655   25.3475 N   0  0  0  0  0  0  0  0  0  0  0  0
   10.1866  -16.3369   25.4384 C   0  0  0  0  0  0  0  0  0  0  0  0
    9.8466  -15.1459   25.5940 O   0  0  0  0  0  0  0  0  0  0  0  0
   10.1898  -17.1694   26.5323 O   0  0  0  0  0  0  0  0  0  0  0  0
  2  1  1  6
  2  3  1  0
  3  4  1  0
  4  5  2  0
  4  8  1  0
  6  2  1  0
  7  6  2  0
  9 10  1  0
 11 10  1  1
 11 13  1  0
 11 12  1  0
 12  6  1  0
 13 14  2  0
 15 16  1  0
 15 13  1  0
 17 18  1  0
 16 17  1  1
 19 20  1  0
 19 18  1  0
 20 21  1  0
 22 24  1  0
 22 16  1  0
 23 22  2  0
M  END
$$$$
