DSK.pdb
     RDKit          3D

 24 23  0  0  1  0  0  0  0  0999 V2000
   11.4613  -16.0614   20.1012 N   0  0  0  0  0  0  0  0  0  0  0  0
   11.2106  -17.2321   20.9557 C   0  0  1  0  0  0  0  0  0  0  0  0
   12.0691  -18.3205   20.4146 C   0  0  0  0  0  0  0  0  0  0  0  0
   11.7822  -18.7952   19.0742 C   0  0  0  0  0  0  0  0  0  0  0  0
   11.0502  -18.1932   18.2680 O   0  0  0  0  0  0  0  0  0  0  0  0
   11.4666  -16.8825   22.3750 C   0  0  0  0  0  0  0  0  0  0  0  0
   12.6024  -16.8013   22.8941 O   0  0  0  0  0  0  0  0  0  0  0  0
   12.3430  -19.9884   18.6369 O   0  0  0  0  0  0  0  0  0  0  0  0
    8.2626  -15.9027   24.7080 O   0  0  0  0  0  0  0  0  0  0  0  0
    9.4801  -15.3179   25.0928 C   0  0  0  0  0  0  0  0  0  0  0  0
   10.5692  -16.2913   24.6679 C   0  0  2  0  0  0  0  0  0  0  0  0
   10.3883  -16.6015   23.2920 N   0  0  0  0  0  0  0  0  0  0  0  0
   10.5368  -17.4480   25.5666 C   0  0  0  0  0  0  0  0  0  0  0  0
    9.8688  -18.4600   25.2346 O   0  0  0  0  0  0  0  0  0  0  0  0
   11.2188  -17.5074   26.8079 N   0  0  0  0  0  0  0  0  0  0  0  0
   11.1335  -18.7072   27.6778 C   0  0  1  0  0  0  0  0  0  0  0  0
   12.4992  -18.9713   28.2525 C   0  0  0  0  0  0  0  0  0  0  0  0
   12.5506  -20.1327   29.1780 C   0  0  0  0  0  0  0  0  0  0  0  0
   13.9791  -20.2654   29.6915 C   0  0  0  0  0  0  0  0  0  0  0  0
   14.1208  -21.4743   30.5904 C   0  0  0  0  0  0  0  0  0  0  0  0
   15.5292  -21.5659   30.9609 N   0  0  0  0  0  0  0  0  0  0  0  0
   10.1735  -18.3711   28.7313 C   0  0  0  0  0  0  0  0  0  0  0  0
    9.7450  -19.2519   29.5051 O   0  0  0  0  0  0  0  0  0  0  0  0
    9.7275  -17.0806   28.8904 O   0  0  0  0  0  0  0  0  0  0  0  0
  2  1  1  6
  2  3  1  0
  3  4  1  0
  4  5  2  0
  4  8  1  0
  6  2  1  0
  7  6  2  0
  9 10  1  0
 11 10  1  1
 11 13  1  0
 11 12  1  0
 12  6  1  0
 13 14  2  0
 15 16  1  0
 15 13  1  0
 17 18  1  0
 16 17  1  1
 19 20  1  0
 19 18  1  0
 20 21  1  0
 22 24  1  0
 22 16  1  0
 23 22  2  0
M  END
$$$$
