DSK.pdb
     RDKit          3D

 24 23  0  0  1  0  0  0  0  0999 V2000
    9.6096  -17.2601   19.5926 N   0  0  0  0  0  0  0  0  0  0  0  0
   10.9729  -17.3530   20.1369 C   0  0  1  0  0  0  0  0  0  0  0  0
   11.8782  -16.9135   19.0406 C   0  0  0  0  0  0  0  0  0  0  0  0
   12.0747  -17.8249   17.9292 C   0  0  0  0  0  0  0  0  0  0  0  0
   12.3699  -19.0264   18.0625 O   0  0  0  0  0  0  0  0  0  0  0  0
   11.0715  -16.5561   21.3848 C   0  0  0  0  0  0  0  0  0  0  0  0
   12.1452  -16.2443   21.9470 O   0  0  0  0  0  0  0  0  0  0  0  0
   11.9319  -17.3580   16.6288 O   0  0  0  0  0  0  0  0  0  0  0  0
    7.5860  -15.5300   23.4001 O   0  0  0  0  0  0  0  0  0  0  0  0
    8.6339  -14.5973   23.4662 C   0  0  0  0  0  0  0  0  0  0  0  0
    9.9202  -15.3960   23.3190 C   0  0  2  0  0  0  0  0  0  0  0  0
    9.8968  -16.0658   22.0649 N   0  0  0  0  0  0  0  0  0  0  0  0
   10.0577  -16.2764   24.4820 C   0  0  0  0  0  0  0  0  0  0  0  0
    9.5598  -17.4301   24.4360 O   0  0  0  0  0  0  0  0  0  0  0  0
   10.7252  -15.9121   25.6782 N   0  0  0  0  0  0  0  0  0  0  0  0
   11.0154  -16.9136   26.7348 C   0  0  1  0  0  0  0  0  0  0  0  0
   12.4431  -17.3639   26.5786 C   0  0  0  0  0  0  0  0  0  0  0  0
   12.8529  -18.4173   27.5431 C   0  0  0  0  0  0  0  0  0  0  0  0
   14.3104  -18.7677   27.2698 C   0  0  0  0  0  0  0  0  0  0  0  0
   14.7584  -19.9285   28.1308 C   0  0  0  0  0  0  0  0  0  0  0  0
   16.0895  -20.3103   27.6705 N   0  0  0  0  0  0  0  0  0  0  0  0
   10.8170  -16.2205   28.0095 C   0  0  0  0  0  0  0  0  0  0  0  0
   10.5906  -14.9933   28.0370 O   0  0  0  0  0  0  0  0  0  0  0  0
   10.8737  -16.9068   29.1992 O   0  0  0  0  0  0  0  0  0  0  0  0
  2  1  1  6
  2  3  1  0
  3  4  1  0
  4  5  2  0
  4  8  1  0
  6  2  1  0
  7  6  2  0
  9 10  1  0
 11 10  1  1
 11 13  1  0
 11 12  1  0
 12  6  1  0
 13 14  2  0
 15 16  1  0
 15 13  1  0
 17 18  1  0
 16 17  1  6
 19 20  1  0
 19 18  1  0
 20 21  1  0
 22 24  1  0
 22 16  1  0
 23 22  2  0
M  END
$$$$
