DSK.pdb
     RDKit          3D

 24 23  0  0  1  0  0  0  0  0999 V2000
    7.8616  -17.0052   15.6872 N   0  0  0  0  0  0  0  0  0  0  0  0
    7.8822  -17.7996   16.9249 C   0  0  1  0  0  0  0  0  0  0  0  0
    8.5272  -19.0920   16.5668 C   0  0  0  0  0  0  0  0  0  0  0  0
    7.8464  -19.9348   15.6021 C   0  0  0  0  0  0  0  0  0  0  0  0
    7.1209  -20.8967   15.9129 O   0  0  0  0  0  0  0  0  0  0  0  0
    8.5654  -17.0380   17.9998 C   0  0  0  0  0  0  0  0  0  0  0  0
    9.8010  -16.8506   18.0640 O   0  0  0  0  0  0  0  0  0  0  0  0
    7.9941  -19.6775   14.2451 O   0  0  0  0  0  0  0  0  0  0  0  0
    6.5117  -16.0918   21.3996 O   0  0  0  0  0  0  0  0  0  0  0  0
    7.3152  -15.0312   20.9503 C   0  0  0  0  0  0  0  0  0  0  0  0
    8.4234  -15.6627   20.1212 C   0  0  2  0  0  0  0  0  0  0  0  0
    7.8303  -16.4374   19.0869 N   0  0  0  0  0  0  0  0  0  0  0  0
    9.3074  -16.4114   21.0183 C   0  0  0  0  0  0  0  0  0  0  0  0
    9.1363  -17.6501   21.1493 O   0  0  0  0  0  0  0  0  0  0  0  0
   10.3621  -15.8263   21.7630 N   0  0  0  0  0  0  0  0  0  0  0  0
   11.2087  -16.6402   22.6710 C   0  0  1  0  0  0  0  0  0  0  0  0
   12.6168  -16.1133   22.6017 C   0  0  0  0  0  0  0  0  0  0  0  0
   13.5797  -16.8485   23.4620 C   0  0  0  0  0  0  0  0  0  0  0  0
   14.9541  -16.2159   23.2813 C   0  0  0  0  0  0  0  0  0  0  0  0
   15.9767  -16.8780   24.1787 C   0  0  0  0  0  0  0  0  0  0  0  0
   17.2682  -16.2727   23.8706 N   0  0  0  0  0  0  0  0  0  0  0  0
   10.6444  -16.4638   24.0107 C   0  0  0  0  0  0  0  0  0  0  0  0
    9.8702  -15.5154   24.2543 O   0  0  0  0  0  0  0  0  0  0  0  0
   10.9536  -17.3390   25.0247 O   0  0  0  0  0  0  0  0  0  0  0  0
  2  1  1  6
  2  3  1  0
  3  4  1  0
  4  5  2  0
  4  8  1  0
  6  2  1  0
  7  6  2  0
  9 10  1  0
 11 10  1  1
 11 13  1  0
 11 12  1  0
 12  6  1  0
 13 14  2  0
 15 16  1  0
 15 13  1  0
 17 18  1  0
 16 17  1  1
 19 20  1  0
 19 18  1  0
 20 21  1  0
 22 24  1  0
 22 16  1  0
 23 22  2  0
M  END
$$$$
