DSK.pdb
     RDKit          3D

 24 23  0  0  1  0  0  0  0  0999 V2000
   12.9115  -16.5263   18.4481 N   0  0  0  0  0  0  0  0  0  0  0  0
   13.6681  -16.0802   19.6280 C   0  0  1  0  0  0  0  0  0  0  0  0
   14.5687  -14.9975   19.1469 C   0  0  0  0  0  0  0  0  0  0  0  0
   15.5488  -15.3429   18.1347 C   0  0  0  0  0  0  0  0  0  0  0  0
   15.5166  -14.9179   16.9657 O   0  0  0  0  0  0  0  0  0  0  0  0
   12.7295  -15.6786   20.7049 C   0  0  0  0  0  0  0  0  0  0  0  0
   13.0647  -15.0957   21.7603 O   0  0  0  0  0  0  0  0  0  0  0  0
   16.5957  -16.1960   18.4599 O   0  0  0  0  0  0  0  0  0  0  0  0
    8.0657  -15.3155   21.9753 O   0  0  0  0  0  0  0  0  0  0  0  0
    8.9746  -15.9426   21.1076 C   0  0  0  0  0  0  0  0  0  0  0  0
   10.3618  -15.5509   21.5939 C   0  0  2  0  0  0  0  0  0  0  0  0
   11.3132  -15.9396   20.6112 N   0  0  0  0  0  0  0  0  0  0  0  0
   10.5741  -16.1385   22.9191 C   0  0  0  0  0  0  0  0  0  0  0  0
   11.0244  -17.3094   23.0022 O   0  0  0  0  0  0  0  0  0  0  0  0
   10.3022  -15.4669   24.1375 N   0  0  0  0  0  0  0  0  0  0  0  0
   10.4403  -16.1558   25.4451 C   0  0  1  0  0  0  0  0  0  0  0  0
   10.4181  -15.1145   26.5316 C   0  0  0  0  0  0  0  0  0  0  0  0
   10.4613  -15.6758   27.9068 C   0  0  0  0  0  0  0  0  0  0  0  0
   10.2899  -14.5264   28.8923 C   0  0  0  0  0  0  0  0  0  0  0  0
   10.1231  -15.0445   30.3041 C   0  0  0  0  0  0  0  0  0  0  0  0
    9.9145  -13.8824   31.1617 N   0  0  0  0  0  0  0  0  0  0  0  0
    9.2872  -17.0524   25.5496 C   0  0  0  0  0  0  0  0  0  0  0  0
    8.2147  -16.7782   24.9729 O   0  0  0  0  0  0  0  0  0  0  0  0
    9.3634  -18.2134   26.2818 O   0  0  0  0  0  0  0  0  0  0  0  0
  2  1  1  6
  2  3  1  0
  3  4  1  0
  4  5  2  0
  4  8  1  0
  6  2  1  0
  7  6  2  0
  9 10  1  0
 11 10  1  6
 11 13  1  0
 11 12  1  0
 12  6  1  0
 13 14  2  0
 15 16  1  0
 15 13  1  0
 17 18  1  0
 16 17  1  1
 19 20  1  0
 19 18  1  0
 20 21  1  0
 22 24  1  0
 22 16  1  0
 23 22  2  0
M  END
$$$$
