DSK.pdb
     RDKit          3D

 24 23  0  0  1  0  0  0  0  0999 V2000
    9.7263  -17.1481   17.9111 N   0  0  0  0  0  0  0  0  0  0  0  0
   10.6102  -17.4476   19.0481 C   0  0  1  0  0  0  0  0  0  0  0  0
   11.9832  -17.0886   18.6002 C   0  0  0  0  0  0  0  0  0  0  0  0
   12.5861  -17.9097   17.5674 C   0  0  0  0  0  0  0  0  0  0  0  0
   12.0710  -18.9508   17.1214 O   0  0  0  0  0  0  0  0  0  0  0  0
   10.1387  -16.7250   20.2554 C   0  0  0  0  0  0  0  0  0  0  0  0
   10.8787  -16.0860   21.0366 O   0  0  0  0  0  0  0  0  0  0  0  0
   13.8097  -17.5373   17.0257 O   0  0  0  0  0  0  0  0  0  0  0  0
    6.1264  -15.7774   20.8223 O   0  0  0  0  0  0  0  0  0  0  0  0
    6.7582  -16.3839   21.9202 C   0  0  0  0  0  0  0  0  0  0  0  0
    8.2382  -16.0567   21.7896 C   0  0  2  0  0  0  0  0  0  0  0  0
    8.7452  -16.7056   20.6303 N   0  0  0  0  0  0  0  0  0  0  0  0
    8.9084  -16.4230   23.0399 C   0  0  0  0  0  0  0  0  0  0  0  0
    9.6025  -17.4707   23.0758 O   0  0  0  0  0  0  0  0  0  0  0  0
    8.8278  -15.6646   24.2348 N   0  0  0  0  0  0  0  0  0  0  0  0
    9.5701  -16.0678   25.4554 C   0  0  1  0  0  0  0  0  0  0  0  0
    9.4649  -14.9532   26.4613 C   0  0  0  0  0  0  0  0  0  0  0  0
   10.1496  -15.2358   27.7495 C   0  0  0  0  0  0  0  0  0  0  0  0
    9.9365  -14.0407   28.6705 C   0  0  0  0  0  0  0  0  0  0  0  0
   10.6812  -14.2234   29.9749 C   0  0  0  0  0  0  0  0  0  0  0  0
   10.4931  -12.9994   30.7469 N   0  0  0  0  0  0  0  0  0  0  0  0
    8.9119  -17.2820   25.9421 C   0  0  0  0  0  0  0  0  0  0  0  0
    9.5373  -18.1088   26.6375 O   0  0  0  0  0  0  0  0  0  0  0  0
    7.5935  -17.5342   25.6455 O   0  0  0  0  0  0  0  0  0  0  0  0
  2  1  1  6
  2  3  1  0
  3  4  1  0
  4  5  2  0
  4  8  1  0
  6  2  1  0
  7  6  2  0
  9 10  1  0
 11 10  1  1
 11 13  1  0
 11 12  1  0
 12  6  1  0
 13 14  2  0
 15 16  1  0
 15 13  1  0
 17 18  1  0
 16 17  1  1
 19 20  1  0
 19 18  1  0
 20 21  1  0
 22 24  1  0
 22 16  1  0
 23 22  2  0
M  END
$$$$
