DSK.pdb
     RDKit          3D

 24 23  0  0  1  0  0  0  0  0999 V2000
   11.2272  -17.9238   18.1733 N   0  0  0  0  0  0  0  0  0  0  0  0
   12.1570  -17.6113   19.2694 C   0  0  1  0  0  0  0  0  0  0  0  0
   13.3283  -16.9508   18.6319 C   0  0  0  0  0  0  0  0  0  0  0  0
   14.0226  -17.6816   17.5887 C   0  0  0  0  0  0  0  0  0  0  0  0
   13.8727  -17.4636   16.3728 O   0  0  0  0  0  0  0  0  0  0  0  0
   11.4650  -16.7965   20.2987 C   0  0  0  0  0  0  0  0  0  0  0  0
   12.0115  -15.9050   20.9862 O   0  0  0  0  0  0  0  0  0  0  0  0
   14.9130  -18.6894   17.9368 O   0  0  0  0  0  0  0  0  0  0  0  0
    7.7804  -18.0358   21.6250 O   0  0  0  0  0  0  0  0  0  0  0  0
    7.8942  -16.6388   21.5372 C   0  0  0  0  0  0  0  0  0  0  0  0
    9.3787  -16.3277   21.6550 C   0  0  2  0  0  0  0  0  0  0  0  0
   10.0639  -16.9788   20.5927 N   0  0  0  0  0  0  0  0  0  0  0  0
    9.8286  -16.7051   22.9973 C   0  0  0  0  0  0  0  0  0  0  0  0
   10.4750  -17.7732   23.1462 O   0  0  0  0  0  0  0  0  0  0  0  0
    9.5817  -15.9360   24.1622 N   0  0  0  0  0  0  0  0  0  0  0  0
   10.1113  -16.3498   25.4858 C   0  0  1  0  0  0  0  0  0  0  0  0
    9.8909  -15.2205   26.4560 C   0  0  0  0  0  0  0  0  0  0  0  0
   10.3766  -15.5028   27.8316 C   0  0  0  0  0  0  0  0  0  0  0  0
   10.1478  -14.2572   28.6790 C   0  0  0  0  0  0  0  0  0  0  0  0
   10.6974  -14.4449   30.0762 C   0  0  0  0  0  0  0  0  0  0  0  0
   10.4331  -13.2095   30.8065 N   0  0  0  0  0  0  0  0  0  0  0  0
    9.3431  -17.5351   25.8722 C   0  0  0  0  0  0  0  0  0  0  0  0
    8.1656  -17.6831   25.4854 O   0  0  0  0  0  0  0  0  0  0  0  0
    9.9033  -18.5082   26.6653 O   0  0  0  0  0  0  0  0  0  0  0  0
  2  1  1  6
  2  3  1  0
  3  4  1  0
  4  5  2  0
  4  8  1  0
  6  2  1  0
  7  6  2  0
  9 10  1  0
 11 10  1  1
 11 13  1  0
 11 12  1  0
 12  6  1  0
 13 14  2  0
 15 16  1  0
 15 13  1  0
 17 18  1  0
 16 17  1  1
 19 20  1  0
 19 18  1  0
 20 21  1  0
 22 24  1  0
 22 16  1  0
 23 22  2  0
M  END
$$$$
