DSK.pdb
     RDKit          3D

 24 23  0  0  1  0  0  0  0  0999 V2000
   10.1298  -16.9634   18.2251 N   0  0  0  0  0  0  0  0  0  0  0  0
   10.9978  -17.2543   19.3764 C   0  0  1  0  0  0  0  0  0  0  0  0
   12.3782  -16.9080   18.9415 C   0  0  0  0  0  0  0  0  0  0  0  0
   13.0832  -17.8741   18.1204 C   0  0  0  0  0  0  0  0  0  0  0  0
   12.8374  -19.0939   18.1208 O   0  0  0  0  0  0  0  0  0  0  0  0
   10.5154  -16.5150   20.5693 C   0  0  0  0  0  0  0  0  0  0  0  0
   11.1199  -16.4579   21.6635 O   0  0  0  0  0  0  0  0  0  0  0  0
   14.0966  -17.4420   17.2745 O   0  0  0  0  0  0  0  0  0  0  0  0
    6.5631  -15.4053   20.8537 O   0  0  0  0  0  0  0  0  0  0  0  0
    7.4541  -14.3956   21.2523 C   0  0  0  0  0  0  0  0  0  0  0  0
    8.7306  -15.1037   21.6806 C   0  0  2  0  0  0  0  0  0  0  0  0
    9.2717  -15.7831   20.5547 N   0  0  0  0  0  0  0  0  0  0  0  0
    8.4244  -15.9635   22.8267 C   0  0  0  0  0  0  0  0  0  0  0  0
    8.2094  -17.1868   22.6314 O   0  0  0  0  0  0  0  0  0  0  0  0
    8.3521  -15.5044   24.1658 N   0  0  0  0  0  0  0  0  0  0  0  0
    8.0883  -16.4394   25.2882 C   0  0  1  0  0  0  0  0  0  0  0  0
    9.2039  -16.3016   26.2892 C   0  0  0  0  0  0  0  0  0  0  0  0
    9.0815  -17.2101   27.4586 C   0  0  0  0  0  0  0  0  0  0  0  0
   10.2730  -16.9636   28.3758 C   0  0  0  0  0  0  0  0  0  0  0  0
   10.2731  -17.9353   29.5357 C   0  0  0  0  0  0  0  0  0  0  0  0
   11.4716  -17.6595   30.3212 N   0  0  0  0  0  0  0  0  0  0  0  0
    6.8079  -16.0231   25.8642 C   0  0  0  0  0  0  0  0  0  0  0  0
    6.3959  -14.8538   25.7189 O   0  0  0  0  0  0  0  0  0  0  0  0
    6.0342  -16.9109   26.5734 O   0  0  0  0  0  0  0  0  0  0  0  0
  2  1  1  6
  2  3  1  0
  3  4  1  0
  4  5  2  0
  4  8  1  0
  6  2  1  0
  7  6  2  0
  9 10  1  0
 11 10  1  6
 11 13  1  0
 11 12  1  0
 12  6  1  0
 13 14  2  0
 15 16  1  0
 15 13  1  0
 17 18  1  0
 16 17  1  1
 19 20  1  0
 19 18  1  0
 20 21  1  0
 22 24  1  0
 22 16  1  0
 23 22  2  0
M  END
$$$$
