DSK.pdb
     RDKit          3D

 24 23  0  0  1  0  0  0  0  0999 V2000
    9.3723  -17.6305   18.0107 N   0  0  0  0  0  0  0  0  0  0  0  0
   10.5469  -17.2685   18.8187 C   0  0  1  0  0  0  0  0  0  0  0  0
   11.5057  -16.6293   17.8769 C   0  0  0  0  0  0  0  0  0  0  0  0
   11.9199  -17.3989   16.7191 C   0  0  0  0  0  0  0  0  0  0  0  0
   11.4531  -18.5143   16.4256 O   0  0  0  0  0  0  0  0  0  0  0  0
   10.1293  -16.4152   19.9587 C   0  0  0  0  0  0  0  0  0  0  0  0
   10.9159  -15.8699   20.7649 O   0  0  0  0  0  0  0  0  0  0  0  0
   12.8927  -16.8866   15.8702 O   0  0  0  0  0  0  0  0  0  0  0  0
    6.2156  -16.5050   21.3257 O   0  0  0  0  0  0  0  0  0  0  0  0
    6.7683  -15.2182   21.2203 C   0  0  0  0  0  0  0  0  0  0  0  0
    8.2741  -15.3936   21.3468 C   0  0  2  0  0  0  0  0  0  0  0  0
    8.7385  -16.1426   20.2309 N   0  0  0  0  0  0  0  0  0  0  0  0
    8.5654  -15.9929   22.6516 C   0  0  0  0  0  0  0  0  0  0  0  0
    8.9657  -17.1837   22.7003 O   0  0  0  0  0  0  0  0  0  0  0  0
    8.4249  -15.3115   23.8866 N   0  0  0  0  0  0  0  0  0  0  0  0
    8.7771  -15.9650   25.1721 C   0  0  1  0  0  0  0  0  0  0  0  0
    8.8523  -14.9030   26.2361 C   0  0  0  0  0  0  0  0  0  0  0  0
    9.2368  -15.4171   27.5762 C   0  0  0  0  0  0  0  0  0  0  0  0
    9.2982  -14.2355   28.5363 C   0  0  0  0  0  0  0  0  0  0  0  0
    9.5649  -14.7012   29.9510 C   0  0  0  0  0  0  0  0  0  0  0  0
    9.5662  -13.5121   30.7969 N   0  0  0  0  0  0  0  0  0  0  0  0
    7.6965  -16.9138   25.4488 C   0  0  0  0  0  0  0  0  0  0  0  0
    6.5557  -16.7335   24.9752 O   0  0  0  0  0  0  0  0  0  0  0  0
    7.9170  -18.0214   26.2325 O   0  0  0  0  0  0  0  0  0  0  0  0
  2  1  1  6
  2  3  1  0
  3  4  1  0
  4  5  2  0
  4  8  1  0
  6  2  1  0
  7  6  2  0
  9 10  1  0
 11 10  1  6
 11 13  1  0
 11 12  1  0
 12  6  1  0
 13 14  2  0
 15 16  1  0
 15 13  1  0
 17 18  1  0
 16 17  1  1
 19 20  1  0
 19 18  1  0
 20 21  1  0
 22 24  1  0
 22 16  1  0
 23 22  2  0
M  END
$$$$
