DSK.pdb
     RDKit          3D

 24 23  0  0  1  0  0  0  0  0999 V2000
   11.4777  -17.4839   18.6142 N   0  0  0  0  0  0  0  0  0  0  0  0
   12.4040  -17.7336   19.7291 C   0  0  1  0  0  0  0  0  0  0  0  0
   13.7710  -17.5544   19.1688 C   0  0  0  0  0  0  0  0  0  0  0  0
   14.1266  -18.3461   18.0064 C   0  0  0  0  0  0  0  0  0  0  0  0
   14.2593  -19.5831   18.0250 O   0  0  0  0  0  0  0  0  0  0  0  0
   12.0739  -16.8398   20.8668 C   0  0  0  0  0  0  0  0  0  0  0  0
   12.9139  -16.3539   21.6570 O   0  0  0  0  0  0  0  0  0  0  0  0
   14.3377  -17.7141   16.7876 O   0  0  0  0  0  0  0  0  0  0  0  0
    8.1126  -16.3483   21.8723 O   0  0  0  0  0  0  0  0  0  0  0  0
    8.9003  -15.2060   22.0895 C   0  0  0  0  0  0  0  0  0  0  0  0
   10.3212  -15.7068   22.3008 C   0  0  2  0  0  0  0  0  0  0  0  0
   10.7140  -16.4524   21.1556 N   0  0  0  0  0  0  0  0  0  0  0  0
   10.3705  -16.4496   23.5627 C   0  0  0  0  0  0  0  0  0  0  0  0
   10.3767  -17.7065   23.5309 O   0  0  0  0  0  0  0  0  0  0  0  0
   10.4125  -15.8393   24.8414 N   0  0  0  0  0  0  0  0  0  0  0  0
   10.3894  -16.6508   26.0842 C   0  0  1  0  0  0  0  0  0  0  0  0
   10.6632  -15.7377   27.2490 C   0  0  0  0  0  0  0  0  0  0  0  0
   10.5694  -16.4042   28.5737 C   0  0  0  0  0  0  0  0  0  0  0  0
   10.7538  -15.3427   29.6513 C   0  0  0  0  0  0  0  0  0  0  0  0
   10.6188  -15.9450   31.0328 C   0  0  0  0  0  0  0  0  0  0  0  0
   10.6299  -14.8372   31.9825 N   0  0  0  0  0  0  0  0  0  0  0  0
    9.0431  -17.2211   26.1657 C   0  0  0  0  0  0  0  0  0  0  0  0
    8.8353  -18.2702   26.8093 O   0  0  0  0  0  0  0  0  0  0  0  0
    7.9825  -16.6122   25.5379 O   0  0  0  0  0  0  0  0  0  0  0  0
  2  1  1  6
  2  3  1  0
  3  4  1  0
  4  5  2  0
  4  8  1  0
  6  2  1  0
  7  6  2  0
  9 10  1  0
 11 10  1  6
 11 13  1  0
 11 12  1  0
 12  6  1  0
 13 14  2  0
 15 16  1  0
 15 13  1  0
 17 18  1  0
 16 17  1  1
 19 20  1  0
 19 18  1  0
 20 21  1  0
 22 24  1  0
 22 16  1  0
 23 22  2  0
M  END
$$$$
