DSK.pdb
     RDKit          3D

 24 23  0  0  1  0  0  0  0  0999 V2000
    8.5901  -13.1125   17.3625 N   0  0  0  0  0  0  0  0  0  0  0  0
    8.4871  -14.4375   17.9929 C   0  0  1  0  0  0  0  0  0  0  0  0
    9.5018  -15.2892   17.3150 C   0  0  0  0  0  0  0  0  0  0  0  0
    9.1510  -15.8479   16.0231 C   0  0  0  0  0  0  0  0  0  0  0  0
    8.8151  -15.1628   15.0402 O   0  0  0  0  0  0  0  0  0  0  0  0
    8.6596  -14.3103   19.4613 C   0  0  0  0  0  0  0  0  0  0  0  0
    9.6534  -13.7929   20.0189 O   0  0  0  0  0  0  0  0  0  0  0  0
    9.1826  -17.2248   15.8424 O   0  0  0  0  0  0  0  0  0  0  0  0
    5.4434  -15.0394   21.8307 O   0  0  0  0  0  0  0  0  0  0  0  0
    6.4183  -14.1593   22.3281 C   0  0  0  0  0  0  0  0  0  0  0  0
    7.7523  -14.6639   21.7988 C   0  0  2  0  0  0  0  0  0  0  0  0
    7.6605  -14.7905   20.3855 N   0  0  0  0  0  0  0  0  0  0  0  0
    8.0954  -15.9013   22.5043 C   0  0  0  0  0  0  0  0  0  0  0  0
    7.8893  -17.0042   21.9369 O   0  0  0  0  0  0  0  0  0  0  0  0
    8.6542  -15.9432   23.8063 N   0  0  0  0  0  0  0  0  0  0  0  0
    8.7713  -17.2201   24.5543 C   0  0  1  0  0  0  0  0  0  0  0  0
    9.6831  -16.9959   25.7306 C   0  0  0  0  0  0  0  0  0  0  0  0
    9.9644  -18.2235   26.5191 C   0  0  0  0  0  0  0  0  0  0  0  0
   10.9596  -17.8638   27.6155 C   0  0  0  0  0  0  0  0  0  0  0  0
   11.4214  -19.1009   28.3542 C   0  0  0  0  0  0  0  0  0  0  0  0
   12.4372  -18.6712   29.3097 N   0  0  0  0  0  0  0  0  0  0  0  0
    7.4147  -17.5531   24.9939 C   0  0  0  0  0  0  0  0  0  0  0  0
    6.5362  -16.6695   25.0691 O   0  0  0  0  0  0  0  0  0  0  0  0
    7.0814  -18.8438   25.3297 O   0  0  0  0  0  0  0  0  0  0  0  0
  2  1  1  6
  2  3  1  0
  3  4  1  0
  4  5  2  0
  4  8  1  0
  6  2  1  0
  7  6  2  0
  9 10  1  0
 11 10  1  1
 11 13  1  0
 11 12  1  0
 12  6  1  0
 13 14  2  0
 15 16  1  0
 15 13  1  0
 17 18  1  0
 16 17  1  1
 19 20  1  0
 19 18  1  0
 20 21  1  0
 22 24  1  0
 22 16  1  0
 23 22  2  0
M  END
$$$$
