DSK.pdb
     RDKit          3D

 24 23  0  0  1  0  0  0  0  0999 V2000
   13.2104  -18.9222   16.6982 N   0  0  0  0  0  0  0  0  0  0  0  0
   14.2011  -19.1167   17.7678 C   0  0  1  0  0  0  0  0  0  0  0  0
   15.4173  -18.3771   17.3337 C   0  0  0  0  0  0  0  0  0  0  0  0
   15.8092  -18.4924   15.9417 C   0  0  0  0  0  0  0  0  0  0  0  0
   16.3443  -17.5743   15.2944 O   0  0  0  0  0  0  0  0  0  0  0  0
   13.6328  -18.6759   19.0658 C   0  0  0  0  0  0  0  0  0  0  0  0
   14.2761  -18.6047   20.1368 O   0  0  0  0  0  0  0  0  0  0  0  0
   15.5868  -19.6852   15.2656 O   0  0  0  0  0  0  0  0  0  0  0  0
    9.7601  -16.8118   21.3055 O   0  0  0  0  0  0  0  0  0  0  0  0
   10.2389  -17.3729   20.1105 C   0  0  0  0  0  0  0  0  0  0  0  0
   11.6441  -17.8722   20.4116 C   0  0  2  0  0  0  0  0  0  0  0  0
   12.2496  -18.2841   19.1928 N   0  0  0  0  0  0  0  0  0  0  0  0
   11.5581  -18.9154   21.4368 C   0  0  0  0  0  0  0  0  0  0  0  0
   11.1971  -20.0721   21.1014 O   0  0  0  0  0  0  0  0  0  0  0  0
   11.8591  -18.7083   22.8064 N   0  0  0  0  0  0  0  0  0  0  0  0
   11.6912  -19.7935   23.8053 C   0  0  1  0  0  0  0  0  0  0  0  0
   12.8669  -19.7563   24.7443 C   0  0  0  0  0  0  0  0  0  0  0  0
   12.8392  -20.8130   25.7886 C   0  0  0  0  0  0  0  0  0  0  0  0
   14.0529  -20.6198   26.6894 C   0  0  0  0  0  0  0  0  0  0  0  0
   14.0265  -21.5917   27.8488 C   0  0  0  0  0  0  0  0  0  0  0  0
   15.2548  -21.3813   28.6079 N   0  0  0  0  0  0  0  0  0  0  0  0
   10.4424  -19.4989   24.5112 C   0  0  0  0  0  0  0  0  0  0  0  0
    9.9423  -18.3561   24.4678 O   0  0  0  0  0  0  0  0  0  0  0  0
    9.7958  -20.4742   25.2326 O   0  0  0  0  0  0  0  0  0  0  0  0
  2  1  1  6
  2  3  1  0
  3  4  1  0
  4  5  2  0
  4  8  1  0
  6  2  1  0
  7  6  2  0
  9 10  1  0
 11 10  1  6
 11 13  1  0
 11 12  1  0
 12  6  1  0
 13 14  2  0
 15 16  1  0
 15 13  1  0
 17 18  1  0
 16 17  1  1
 19 20  1  0
 19 18  1  0
 20 21  1  0
 22 24  1  0
 22 16  1  0
 23 22  2  0
M  END
$$$$
