DSK.pdb
     RDKit          3D

 24 23  0  0  1  0  0  0  0  0999 V2000
   11.3781  -17.5964   18.4934 N   0  0  0  0  0  0  0  0  0  0  0  0
   12.4234  -17.2359   19.4635 C   0  0  1  0  0  0  0  0  0  0  0  0
   13.4664  -16.5131   18.6861 C   0  0  0  0  0  0  0  0  0  0  0  0
   14.3754  -17.3100   17.8842 C   0  0  0  0  0  0  0  0  0  0  0  0
   15.1511  -16.8328   17.0363 O   0  0  0  0  0  0  0  0  0  0  0  0
   11.8276  -16.4605   20.5797 C   0  0  0  0  0  0  0  0  0  0  0  0
   12.4847  -15.8639   21.4619 O   0  0  0  0  0  0  0  0  0  0  0  0
   14.4041  -18.6887   18.0503 O   0  0  0  0  0  0  0  0  0  0  0  0
    7.8745  -16.9840   21.6613 O   0  0  0  0  0  0  0  0  0  0  0  0
    8.2659  -15.6388   21.5628 C   0  0  0  0  0  0  0  0  0  0  0  0
    9.7697  -15.6186   21.7915 C   0  0  2  0  0  0  0  0  0  0  0  0
   10.3985  -16.3334   20.7353 N   0  0  0  0  0  0  0  0  0  0  0  0
   10.0440  -16.1397   23.1331 C   0  0  0  0  0  0  0  0  0  0  0  0
   10.5186  -17.2979   23.2524 O   0  0  0  0  0  0  0  0  0  0  0  0
    9.8074  -15.4162   24.3289 N   0  0  0  0  0  0  0  0  0  0  0  0
   10.1839  -15.9713   25.6532 C   0  0  1  0  0  0  0  0  0  0  0  0
   10.0353  -14.8818   26.6809 C   0  0  0  0  0  0  0  0  0  0  0  0
   10.3198  -15.3207   28.0716 C   0  0  0  0  0  0  0  0  0  0  0  0
   10.1949  -14.1078   28.9854 C   0  0  0  0  0  0  0  0  0  0  0  0
   10.4365  -14.4908   30.4291 C   0  0  0  0  0  0  0  0  0  0  0  0
   10.3803  -13.2597   31.2107 N   0  0  0  0  0  0  0  0  0  0  0  0
    9.2486  -17.0688   25.9084 C   0  0  0  0  0  0  0  0  0  0  0  0
    9.5413  -17.9797   26.7101 O   0  0  0  0  0  0  0  0  0  0  0  0
    8.0305  -17.1166   25.2731 O   0  0  0  0  0  0  0  0  0  0  0  0
  2  1  1  6
  2  3  1  0
  3  4  1  0
  4  5  2  0
  4  8  1  0
  6  2  1  0
  7  6  2  0
  9 10  1  0
 11 10  1  6
 11 13  1  0
 11 12  1  0
 12  6  1  0
 13 14  2  0
 15 16  1  0
 15 13  1  0
 17 18  1  0
 16 17  1  1
 19 20  1  0
 19 18  1  0
 20 21  1  0
 22 24  1  0
 22 16  1  0
 23 22  2  0
M  END
$$$$
