DSK.pdb
     RDKit          3D

 24 23  0  0  1  0  0  0  0  0999 V2000
    9.8781  -13.0594   18.4443 N   0  0  0  0  0  0  0  0  0  0  0  0
    8.4996  -13.0622   18.9577 C   0  0  1  0  0  0  0  0  0  0  0  0
    7.6250  -13.2619   17.7704 C   0  0  0  0  0  0  0  0  0  0  0  0
    7.9608  -14.3460   16.8668 C   0  0  0  0  0  0  0  0  0  0  0  0
    8.9400  -15.0980   17.0209 O   0  0  0  0  0  0  0  0  0  0  0  0
    8.3596  -14.0925   20.0164 C   0  0  0  0  0  0  0  0  0  0  0  0
    7.3716  -14.2017   20.7768 O   0  0  0  0  0  0  0  0  0  0  0  0
    7.1610  -14.5824   15.7560 O   0  0  0  0  0  0  0  0  0  0  0  0
    8.4968  -18.0627   20.3662 O   0  0  0  0  0  0  0  0  0  0  0  0
    9.7048  -17.4113   20.6645 C   0  0  0  0  0  0  0  0  0  0  0  0
    9.3225  -16.0697   21.2716 C   0  0  2  0  0  0  0  0  0  0  0  0
    9.3870  -15.0774   20.2552 N   0  0  0  0  0  0  0  0  0  0  0  0
   10.1854  -15.8193   22.4288 C   0  0  0  0  0  0  0  0  0  0  0  0
   11.3430  -15.3664   22.2400 O   0  0  0  0  0  0  0  0  0  0  0  0
    9.7996  -16.0560   23.7721 N   0  0  0  0  0  0  0  0  0  0  0  0
   10.7537  -15.8659   24.8933 C   0  0  1  0  0  0  0  0  0  0  0  0
    9.9738  -15.4482   26.1109 C   0  0  0  0  0  0  0  0  0  0  0  0
   10.8026  -15.2897   27.3338 C   0  0  0  0  0  0  0  0  0  0  0  0
    9.8802  -14.9040   28.4837 C   0  0  0  0  0  0  0  0  0  0  0  0
   10.6618  -14.7209   29.7663 C   0  0  0  0  0  0  0  0  0  0  0  0
    9.7108  -14.2904   30.7860 N   0  0  0  0  0  0  0  0  0  0  0  0
   11.3957  -17.1661   25.0981 C   0  0  0  0  0  0  0  0  0  0  0  0
   12.5143  -17.2430   25.6467 O   0  0  0  0  0  0  0  0  0  0  0  0
   10.7793  -18.3261   24.6932 O   0  0  0  0  0  0  0  0  0  0  0  0
  2  1  1  6
  2  3  1  0
  3  4  1  0
  4  5  2  0
  4  8  1  0
  6  2  1  0
  7  6  2  0
  9 10  1  0
 11 10  1  6
 11 13  1  0
 11 12  1  0
 12  6  1  0
 13 14  2  0
 15 16  1  0
 15 13  1  0
 17 18  1  0
 16 17  1  1
 19 20  1  0
 19 18  1  0
 20 21  1  0
 22 24  1  0
 22 16  1  0
 23 22  2  0
M  END
$$$$
