DSK.pdb
     RDKit          3D

 24 23  0  0  1  0  0  0  0  0999 V2000
   15.6569  -18.6150   12.4481 N   0  0  0  0  0  0  0  0  0  0  0  0
   16.2847  -18.3191   13.7449 C   0  0  1  0  0  0  0  0  0  0  0  0
   16.9449  -16.9952   13.5834 C   0  0  0  0  0  0  0  0  0  0  0  0
   18.1280  -16.9353   12.7461 C   0  0  0  0  0  0  0  0  0  0  0  0
   18.6211  -17.9230   12.1720 O   0  0  0  0  0  0  0  0  0  0  0  0
   15.2662  -18.3811   14.8224 C   0  0  0  0  0  0  0  0  0  0  0  0
   15.3764  -17.8260   15.9385 O   0  0  0  0  0  0  0  0  0  0  0  0
   18.7697  -15.7182   12.5556 O   0  0  0  0  0  0  0  0  0  0  0  0
   12.3025  -21.2762   14.6714 O   0  0  0  0  0  0  0  0  0  0  0  0
   11.8638  -20.0136   15.1025 C   0  0  0  0  0  0  0  0  0  0  0  0
   13.0829  -19.3222   15.6942 C   0  0  2  0  0  0  0  0  0  0  0  0
   14.0322  -19.1110   14.6568 N   0  0  0  0  0  0  0  0  0  0  0  0
   13.5722  -20.1228   16.8195 C   0  0  0  0  0  0  0  0  0  0  0  0
   14.5719  -20.8662   16.6501 O   0  0  0  0  0  0  0  0  0  0  0  0
   12.9866  -20.1179   18.1103 N   0  0  0  0  0  0  0  0  0  0  0  0
   13.5440  -20.9408   19.2129 C   0  0  1  0  0  0  0  0  0  0  0  0
   12.9028  -20.5000   20.5013 C   0  0  0  0  0  0  0  0  0  0  0  0
   13.4261  -21.1959   21.7053 C   0  0  0  0  0  0  0  0  0  0  0  0
   12.7893  -20.5586   22.9342 C   0  0  0  0  0  0  0  0  0  0  0  0
   13.1834  -21.2993   24.1934 C   0  0  0  0  0  0  0  0  0  0  0  0
   12.5331  -20.6184   25.3083 N   0  0  0  0  0  0  0  0  0  0  0  0
   13.1931  -22.3267   18.8958 C   0  0  0  0  0  0  0  0  0  0  0  0
   12.1321  -22.5918   18.2940 O   0  0  0  0  0  0  0  0  0  0  0  0
   14.0248  -23.3617   19.2519 O   0  0  0  0  0  0  0  0  0  0  0  0
  2  1  1  6
  2  3  1  0
  3  4  1  0
  4  5  2  0
  4  8  1  0
  6  2  1  0
  7  6  2  0
  9 10  1  0
 11 10  1  6
 11 13  1  0
 11 12  1  0
 12  6  1  0
 13 14  2  0
 15 16  1  0
 15 13  1  0
 17 18  1  0
 16 17  1  1
 19 20  1  0
 19 18  1  0
 20 21  1  0
 22 24  1  0
 22 16  1  0
 23 22  2  0
M  END
$$$$
