VEV.pdb
     RDKit          3D

 24 23  0  0  1  0  0  0  0  0999 V2000
   24.1058  -25.8751  -16.0519 C   0  0  0  0  0  0  0  0  0  0  0  0
   25.1926  -24.8484  -15.8342 C   0  0  1  0  0  0  0  0  0  0  0  0
   26.2340  -24.9266  -16.9288 C   0  0  0  0  0  0  0  0  0  0  0  0
   24.5661  -23.4708  -15.7846 C   0  0  2  0  0  0  0  0  0  0  0  0
   25.6168  -22.5111  -15.6104 N   0  0  0  0  0  0  0  0  0  0  0  0
   23.5301  -23.3800  -14.7300 C   0  0  0  0  0  0  0  0  0  0  0  0
   23.8700  -23.2710  -13.5304 O   0  0  0  0  0  0  0  0  0  0  0  0
   22.1421  -23.4112  -15.0222 N   0  0  0  0  0  0  0  0  0  0  0  0
   21.1158  -23.3046  -13.9878 C   0  0  1  0  0  0  0  0  0  0  0  0
   20.1856  -22.2239  -14.4066 C   0  0  0  0  0  0  0  0  0  0  0  0
   19.0041  -21.9883  -13.5330 C   0  0  0  0  0  0  0  0  0  0  0  0
   18.0388  -20.9986  -14.0349 C   0  0  0  0  0  0  0  0  0  0  0  0
   18.3932  -20.0816  -14.8131 O   0  0  0  0  0  0  0  0  0  0  0  0
   20.4621  -24.6087  -13.7397 C   0  0  0  0  0  0  0  0  0  0  0  0
   20.2634  -25.3528  -14.7348 O   0  0  0  0  0  0  0  0  0  0  0  0
   16.6974  -21.0231  -13.6802 O   0  0  0  0  0  0  0  0  0  0  0  0
   21.5478  -27.3997  -11.4357 C   0  0  0  0  0  0  0  0  0  0  0  0
   20.0760  -27.2029  -11.2572 C   0  0  2  0  0  0  0  0  0  0  0  0
   19.3800  -28.5402  -11.1169 C   0  0  0  0  0  0  0  0  0  0  0  0
   19.4523  -26.3687  -12.3456 C   0  0  2  0  0  0  0  0  0  0  0  0
   20.0508  -25.0691  -12.4747 N   0  0  0  0  0  0  0  0  0  0  0  0
   17.9970  -26.2560  -12.1210 C   0  0  0  0  0  0  0  0  0  0  0  0
   17.4555  -25.2714  -11.5635 O   0  0  0  0  0  0  0  0  0  0  0  0
   17.1813  -27.2909  -12.5471 O   0  0  0  0  0  0  0  0  0  0  0  0
  2  1  1  6
  2  4  1  0
  3  2  1  0
  4  5  1  1
  6  8  1  0
  6  4  1  0
  7  6  2  0
  9  8  1  0
 10 11  1  0
  9 10  1  6
 12 16  1  0
 12 11  1  0
 13 12  2  0
 14 21  1  0
 14  9  1  0
 15 14  2  0
 18 17  1  6
 18 20  1  0
 19 18  1  0
 20 21  1  1
 20 22  1  0
 22 24  1  0
 23 22  2  0
M  END
$$$$
