VEV.pdb
     RDKit          3D

 24 23  0  0  1  0  0  0  0  0999 V2000
   16.9749  -16.4178  -17.7172 C   0  0  0  0  0  0  0  0  0  0  0  0
   17.3353  -14.9895  -18.0526 C   0  0  1  0  0  0  0  0  0  0  0  0
   16.0908  -14.1581  -18.2741 C   0  0  0  0  0  0  0  0  0  0  0  0
   18.1729  -14.4158  -16.9292 C   0  0  2  0  0  0  0  0  0  0  0  0
   17.4687  -14.6258  -15.6982 N   0  0  0  0  0  0  0  0  0  0  0  0
   18.4982  -12.9900  -17.1641 C   0  0  0  0  0  0  0  0  0  0  0  0
   19.2029  -12.6654  -18.1463 O   0  0  0  0  0  0  0  0  0  0  0  0
   18.0388  -11.9540  -16.3106 N   0  0  0  0  0  0  0  0  0  0  0  0
   18.3834  -10.5495  -16.5188 C   0  0  1  0  0  0  0  0  0  0  0  0
   17.1067   -9.7907  -16.5710 C   0  0  0  0  0  0  0  0  0  0  0  0
   16.5321   -9.5489  -17.9224 C   0  0  0  0  0  0  0  0  0  0  0  0
   15.2431  -10.2070  -18.1841 C   0  0  0  0  0  0  0  0  0  0  0  0
   14.6595  -10.8705  -17.2945 O   0  0  0  0  0  0  0  0  0  0  0  0
   19.3356  -10.0698  -15.4929 C   0  0  0  0  0  0  0  0  0  0  0  0
   19.0489  -10.2967  -14.2889 O   0  0  0  0  0  0  0  0  0  0  0  0
   14.6072  -10.1320  -19.4153 O   0  0  0  0  0  0  0  0  0  0  0  0
   23.4934   -9.2965  -16.0740 C   0  0  0  0  0  0  0  0  0  0  0  0
   22.7765   -9.6578  -14.8121 C   0  0  2  0  0  0  0  0  0  0  0  0
   22.6969  -11.1626  -14.6650 C   0  0  0  0  0  0  0  0  0  0  0  0
   21.4162   -9.0203  -14.6989 C   0  0  2  0  0  0  0  0  0  0  0  0
   20.5316   -9.3818  -15.7715 N   0  0  0  0  0  0  0  0  0  0  0  0
   21.5550   -7.5530  -14.6054 C   0  0  0  0  0  0  0  0  0  0  0  0
   22.1120   -6.9688  -13.6453 O   0  0  0  0  0  0  0  0  0  0  0  0
   21.0442   -6.7751  -15.6310 O   0  0  0  0  0  0  0  0  0  0  0  0
  2  1  1  1
  2  4  1  0
  3  2  1  0
  4  5  1  1
  6  8  1  0
  6  4  1  0
  7  6  2  0
  9  8  1  0
 10 11  1  0
  9 10  1  1
 12 16  1  0
 12 11  1  0
 13 12  2  0
 14 21  1  0
 14  9  1  0
 15 14  2  0
 18 17  1  6
 18 20  1  0
 19 18  1  0
 20 21  1  6
 20 22  1  0
 22 24  1  0
 23 22  2  0
M  END
$$$$
