VEV.pdb
     RDKit          3D

 24 23  0  0  1  0  0  0  0  0999 V2000
   20.2743  -11.6481  -15.1173 C   0  0  0  0  0  0  0  0  0  0  0  0
   19.5885  -12.3726  -16.2519 C   0  0  1  0  0  0  0  0  0  0  0  0
   19.4273  -13.8426  -15.9325 C   0  0  0  0  0  0  0  0  0  0  0  0
   18.2429  -11.7266  -16.5072 C   0  0  2  0  0  0  0  0  0  0  0  0
   17.5954  -12.4510  -17.5614 N   0  0  0  0  0  0  0  0  0  0  0  0
   18.3790  -10.2826  -16.8073 C   0  0  0  0  0  0  0  0  0  0  0  0
   19.0986   -9.9095  -17.7610 O   0  0  0  0  0  0  0  0  0  0  0  0
   17.7181   -9.2822  -16.0489 N   0  0  0  0  0  0  0  0  0  0  0  0
   17.8567   -7.8559  -16.3339 C   0  0  1  0  0  0  0  0  0  0  0  0
   16.4850   -7.3105  -16.5052 C   0  0  0  0  0  0  0  0  0  0  0  0
   16.3812   -5.8597  -16.8201 C   0  0  0  0  0  0  0  0  0  0  0  0
   15.3266   -5.1334  -16.0966 C   0  0  0  0  0  0  0  0  0  0  0  0
   14.4858   -5.7404  -15.3915 O   0  0  0  0  0  0  0  0  0  0  0  0
   18.6582   -7.1733  -15.2941 C   0  0  0  0  0  0  0  0  0  0  0  0
   18.5042   -7.5540  -14.1047 O   0  0  0  0  0  0  0  0  0  0  0  0
   15.2034   -3.7523  -16.1522 O   0  0  0  0  0  0  0  0  0  0  0  0
   22.5319   -5.3742  -13.3041 C   0  0  0  0  0  0  0  0  0  0  0  0
   21.7523   -6.0023  -14.4152 C   0  0  2  0  0  0  0  0  0  0  0  0
   22.4448   -5.7684  -15.7411 C   0  0  0  0  0  0  0  0  0  0  0  0
   20.3144   -5.5550  -14.4581 C   0  0  2  0  0  0  0  0  0  0  0  0
   19.5744   -6.1345  -15.5446 N   0  0  0  0  0  0  0  0  0  0  0  0
   20.2480   -4.0804  -14.5058 C   0  0  0  0  0  0  0  0  0  0  0  0
   19.8442   -3.4363  -15.5035 O   0  0  0  0  0  0  0  0  0  0  0  0
   20.6523   -3.3651  -13.3910 O   0  0  0  0  0  0  0  0  0  0  0  0
  2  1  1  1
  2  4  1  0
  3  2  1  0
  4  5  1  6
  6  8  1  0
  6  4  1  0
  7  6  2  0
  9  8  1  0
 10 11  1  0
  9 10  1  1
 12 16  1  0
 12 11  1  0
 13 12  2  0
 14 21  1  0
 14  9  1  0
 15 14  2  0
 18 17  1  1
 18 20  1  0
 19 18  1  0
 20 21  1  6
 20 22  1  0
 22 24  1  0
 23 22  2  0
M  END
$$$$
