VEV.pdb
     RDKit          3D

 24 23  0  0  1  0  0  0  0  0999 V2000
   22.3818   -9.9379  -22.8885 C   0  0  0  0  0  0  0  0  0  0  0  0
   21.7042   -8.9646  -21.9526 C   0  0  1  0  0  0  0  0  0  0  0  0
   20.4254   -8.4334  -22.5620 C   0  0  0  0  0  0  0  0  0  0  0  0
   21.4251   -9.6594  -20.6365 C   0  0  2  0  0  0  0  0  0  0  0  0
   20.6816  -10.8534  -20.9136 N   0  0  0  0  0  0  0  0  0  0  0  0
   20.7310   -8.7636  -19.6828 C   0  0  0  0  0  0  0  0  0  0  0  0
   19.4807   -8.7646  -19.6242 O   0  0  0  0  0  0  0  0  0  0  0  0
   21.4314   -7.8867  -18.8149 N   0  0  0  0  0  0  0  0  0  0  0  0
   20.7568   -7.0586  -17.8179 C   0  0  1  0  0  0  0  0  0  0  0  0
   21.0442   -7.6566  -16.4882 C   0  0  0  0  0  0  0  0  0  0  0  0
   20.5872   -6.8858  -15.3000 C   0  0  0  0  0  0  0  0  0  0  0  0
   20.9666   -7.4547  -13.9979 C   0  0  0  0  0  0  0  0  0  0  0  0
   21.6744   -8.4869  -13.9209 O   0  0  0  0  0  0  0  0  0  0  0  0
   21.1474   -5.6369  -17.9438 C   0  0  0  0  0  0  0  0  0  0  0  0
   22.3748   -5.3838  -18.0566 O   0  0  0  0  0  0  0  0  0  0  0  0
   20.5679   -6.8885  -12.7953 O   0  0  0  0  0  0  0  0  0  0  0  0
   20.7447   -3.2796  -20.5787 C   0  0  0  0  0  0  0  0  0  0  0  0
   20.3067   -2.5436  -19.3525 C   0  0  2  0  0  0  0  0  0  0  0  0
   20.7734   -1.1044  -19.4083 C   0  0  0  0  0  0  0  0  0  0  0  0
   20.7363   -3.2131  -18.0732 C   0  0  2  0  0  0  0  0  0  0  0  0
   20.2447   -4.5569  -17.9457 N   0  0  0  0  0  0  0  0  0  0  0  0
   20.3276   -2.3930  -16.9150 C   0  0  0  0  0  0  0  0  0  0  0  0
   19.2130   -2.4985  -16.3493 O   0  0  0  0  0  0  0  0  0  0  0  0
   21.2196   -1.4549  -16.4228 O   0  0  0  0  0  0  0  0  0  0  0  0
  2  1  1  6
  2  4  1  0
  3  2  1  0
  4  5  1  6
  6  8  1  0
  6  4  1  0
  7  6  2  0
  9  8  1  0
 10 11  1  0
  9 10  1  1
 12 16  1  0
 12 11  1  0
 13 12  2  0
 14 21  1  0
 14  9  1  0
 15 14  2  0
 18 17  1  6
 18 20  1  0
 19 18  1  0
 20 21  1  1
 20 22  1  0
 22 24  1  0
 23 22  2  0
M  END
$$$$
