VEV.pdb
     RDKit          3D

 24 23  0  0  1  0  0  0  0  0999 V2000
   18.1194  -12.4411  -18.5261 C   0  0  0  0  0  0  0  0  0  0  0  0
   17.9874  -11.1066  -17.8300 C   0  0  1  0  0  0  0  0  0  0  0  0
   16.5368  -10.7953  -17.5337 C   0  0  0  0  0  0  0  0  0  0  0  0
   18.8036  -11.1330  -16.5549 C   0  0  2  0  0  0  0  0  0  0  0  0
   18.4647  -12.3258  -15.8353 N   0  0  0  0  0  0  0  0  0  0  0  0
   18.6009   -9.9052  -15.7517 C   0  0  0  0  0  0  0  0  0  0  0  0
   17.7299   -9.8853  -14.8531 O   0  0  0  0  0  0  0  0  0  0  0  0
   19.3636   -8.7268  -15.9574 N   0  0  0  0  0  0  0  0  0  0  0  0
   19.1859   -7.5214  -15.1510 C   0  0  1  0  0  0  0  0  0  0  0  0
   20.5431   -7.0193  -14.8129 C   0  0  0  0  0  0  0  0  0  0  0  0
   20.6078   -5.8007  -13.9611 C   0  0  0  0  0  0  0  0  0  0  0  0
   21.9613   -5.3785  -13.5699 C   0  0  0  0  0  0  0  0  0  0  0  0
   22.4114   -4.2547  -13.8966 O   0  0  0  0  0  0  0  0  0  0  0  0
   18.3250   -6.5340  -15.8391 C   0  0  0  0  0  0  0  0  0  0  0  0
   18.4653   -6.4147  -17.0838 O   0  0  0  0  0  0  0  0  0  0  0  0
   22.8067   -6.1897  -12.8263 O   0  0  0  0  0  0  0  0  0  0  0  0
   14.8561   -6.2448  -16.8131 C   0  0  0  0  0  0  0  0  0  0  0  0
   15.1769   -5.0017  -16.0457 C   0  0  2  0  0  0  0  0  0  0  0  0
   14.4314   -3.8186  -16.6259 C   0  0  0  0  0  0  0  0  0  0  0  0
   16.6553   -4.7283  -15.9498 C   0  0  2  0  0  0  0  0  0  0  0  0
   17.3669   -5.7252  -15.1992 N   0  0  0  0  0  0  0  0  0  0  0  0
   16.8819   -3.3837  -15.3824 C   0  0  0  0  0  0  0  0  0  0  0  0
   16.9863   -3.1583  -14.1530 O   0  0  0  0  0  0  0  0  0  0  0  0
   16.9855   -2.3098  -16.2508 O   0  0  0  0  0  0  0  0  0  0  0  0
  2  1  1  1
  2  4  1  0
  3  2  1  0
  4  5  1  1
  6  8  1  0
  6  4  1  0
  7  6  2  0
  9  8  1  0
 10 11  1  0
  9 10  1  6
 12 16  1  0
 12 11  1  0
 13 12  2  0
 14 21  1  0
 14  9  1  0
 15 14  2  0
 18 17  1  6
 18 20  1  0
 19 18  1  0
 20 21  1  1
 20 22  1  0
 22 24  1  0
 23 22  2  0
M  END
$$$$
