VEV.pdb
     RDKit          3D

 24 23  0  0  1  0  0  0  0  0999 V2000
   25.5909  -21.2134  -11.0861 C   0  0  0  0  0  0  0  0  0  0  0  0
   26.7101  -20.6005  -11.8949 C   0  0  1  0  0  0  0  0  0  0  0  0
   28.0586  -21.0235  -11.3548 C   0  0  0  0  0  0  0  0  0  0  0  0
   26.5561  -21.0154  -13.3430 C   0  0  2  0  0  0  0  0  0  0  0  0
   27.6868  -20.5177  -14.0703 N   0  0  0  0  0  0  0  0  0  0  0  0
   25.2667  -20.5552  -13.9083 C   0  0  0  0  0  0  0  0  0  0  0  0
   25.0650  -19.3327  -14.0854 O   0  0  0  0  0  0  0  0  0  0  0  0
   24.2286  -21.4537  -14.2659 N   0  0  0  0  0  0  0  0  0  0  0  0
   22.9315  -21.0022  -14.7643 C   0  0  1  0  0  0  0  0  0  0  0  0
   22.6831  -21.7174  -16.0431 C   0  0  0  0  0  0  0  0  0  0  0  0
   21.4059  -21.4070  -16.7409 C   0  0  0  0  0  0  0  0  0  0  0  0
   21.1441  -22.1973  -17.9534 C   0  0  0  0  0  0  0  0  0  0  0  0
   20.1141  -22.0078  -18.6430 O   0  0  0  0  0  0  0  0  0  0  0  0
   21.8705  -21.1834  -13.7490 C   0  0  0  0  0  0  0  0  0  0  0  0
   21.9149  -22.2277  -13.0484 O   0  0  0  0  0  0  0  0  0  0  0  0
   22.0112  -23.1854  -18.3978 O   0  0  0  0  0  0  0  0  0  0  0  0
   21.0636  -19.0517  -10.8161 C   0  0  0  0  0  0  0  0  0  0  0  0
   19.7671  -19.3829  -11.4839 C   0  0  2  0  0  0  0  0  0  0  0  0
   18.6942  -19.6452  -10.4483 C   0  0  0  0  0  0  0  0  0  0  0  0
   19.8779  -20.5223  -12.4633 C   0  0  2  0  0  0  0  0  0  0  0  0
   20.8228  -20.2726  -13.5162 N   0  0  0  0  0  0  0  0  0  0  0  0
   18.5464  -20.8396  -13.0178 C   0  0  0  0  0  0  0  0  0  0  0  0
   18.1391  -20.4195  -14.1273 O   0  0  0  0  0  0  0  0  0  0  0  0
   17.6974  -21.6445  -12.2765 O   0  0  0  0  0  0  0  0  0  0  0  0
  2  1  1  1
  2  4  1  0
  3  2  1  0
  4  5  1  6
  6  8  1  0
  6  4  1  0
  7  6  2  0
  9  8  1  0
 10 11  1  0
  9 10  1  6
 12 16  1  0
 12 11  1  0
 13 12  2  0
 14 21  1  0
 14  9  1  0
 15 14  2  0
 18 17  1  1
 18 20  1  0
 19 18  1  0
 20 21  1  6
 20 22  1  0
 22 24  1  0
 23 22  2  0
M  END
$$$$
