VEV.pdb
     RDKit          3D

 24 23  0  0  1  0  0  0  0  0999 V2000
   16.4661  -13.9168  -17.5588 C   0  0  0  0  0  0  0  0  0  0  0  0
   17.1027  -12.5793  -17.8559 C   0  0  1  0  0  0  0  0  0  0  0  0
   16.0707  -11.5903  -18.3519 C   0  0  0  0  0  0  0  0  0  0  0  0
   17.7806  -12.0669  -16.6027 C   0  0  2  0  0  0  0  0  0  0  0  0
   16.8400  -12.1487  -15.5238 N   0  0  0  0  0  0  0  0  0  0  0  0
   18.3143  -10.6981  -16.7915 C   0  0  0  0  0  0  0  0  0  0  0  0
   19.2161  -10.4919  -17.6346 O   0  0  0  0  0  0  0  0  0  0  0  0
   17.8413   -9.5874  -16.0464 N   0  0  0  0  0  0  0  0  0  0  0  0
   18.4626   -8.2670  -16.1184 C   0  0  1  0  0  0  0  0  0  0  0  0
   17.3624   -7.2684  -16.1417 C   0  0  0  0  0  0  0  0  0  0  0  0
   17.7629   -5.8366  -16.0765 C   0  0  0  0  0  0  0  0  0  0  0  0
   16.6514   -4.8747  -16.0249 C   0  0  0  0  0  0  0  0  0  0  0  0
   15.4580   -5.2580  -16.0607 O   0  0  0  0  0  0  0  0  0  0  0  0
   19.4405   -8.0706  -15.0254 C   0  0  0  0  0  0  0  0  0  0  0  0
   19.0738   -8.3769  -13.8614 O   0  0  0  0  0  0  0  0  0  0  0  0
   16.8576   -3.5054  -15.9347 O   0  0  0  0  0  0  0  0  0  0  0  0
   23.6284   -8.2764  -15.3544 C   0  0  0  0  0  0  0  0  0  0  0  0
   22.7771   -8.4466  -14.1366 C   0  0  2  0  0  0  0  0  0  0  0  0
   22.2941   -9.8774  -14.0284 C   0  0  0  0  0  0  0  0  0  0  0  0
   21.6303   -7.4717  -14.0731 C   0  0  2  0  0  0  0  0  0  0  0  0
   20.7437   -7.5678  -15.1994 N   0  0  0  0  0  0  0  0  0  0  0  0
   22.1476   -6.0959  -13.9288 C   0  0  0  0  0  0  0  0  0  0  0  0
   22.0806   -5.2311  -14.8348 O   0  0  0  0  0  0  0  0  0  0  0  0
   22.7399   -5.7359  -12.7297 O   0  0  0  0  0  0  0  0  0  0  0  0
  2  1  1  1
  2  4  1  0
  3  2  1  0
  4  5  1  1
  6  8  1  0
  6  4  1  0
  7  6  2  0
  9  8  1  0
 10 11  1  0
  9 10  1  1
 12 16  1  0
 12 11  1  0
 13 12  2  0
 14 21  1  0
 14  9  1  0
 15 14  2  0
 18 17  1  6
 18 20  1  0
 19 18  1  0
 20 21  1  6
 20 22  1  0
 22 24  1  0
 23 22  2  0
M  END
$$$$
