VEV.pdb
     RDKit          3D

 24 23  0  0  1  0  0  0  0  0999 V2000
   14.8240   -9.9241  -17.2213 C   0  0  0  0  0  0  0  0  0  0  0  0
   16.1366   -9.5057  -16.6013 C   0  0  1  0  0  0  0  0  0  0  0  0
   15.9088   -8.8074  -15.2786 C   0  0  0  0  0  0  0  0  0  0  0  0
   17.0086  -10.7303  -16.4202 C   0  0  2  0  0  0  0  0  0  0  0  0
   16.2725  -11.6898  -15.6503 N   0  0  0  0  0  0  0  0  0  0  0  0
   18.3123  -10.3862  -15.8072 C   0  0  0  0  0  0  0  0  0  0  0  0
   18.4908  -10.5648  -14.5813 O   0  0  0  0  0  0  0  0  0  0  0  0
   19.3901   -9.8528  -16.5599 N   0  0  0  0  0  0  0  0  0  0  0  0
   20.6407   -9.4142  -15.9450 C   0  0  1  0  0  0  0  0  0  0  0  0
   21.7404  -10.1503  -16.6212 C   0  0  0  0  0  0  0  0  0  0  0  0
   23.1183   -9.8927  -16.1216 C   0  0  0  0  0  0  0  0  0  0  0  0
   24.1705  -10.7278  -16.7205 C   0  0  0  0  0  0  0  0  0  0  0  0
   23.9351  -11.9017  -17.0932 O   0  0  0  0  0  0  0  0  0  0  0  0
   20.7763   -7.9414  -15.9892 C   0  0  0  0  0  0  0  0  0  0  0  0
   20.5334   -7.3725  -17.0850 O   0  0  0  0  0  0  0  0  0  0  0  0
   25.4674  -10.2699  -16.9051 O   0  0  0  0  0  0  0  0  0  0  0  0
   19.2155   -5.2295  -13.6452 C   0  0  0  0  0  0  0  0  0  0  0  0
   19.8947   -5.0329  -14.9631 C   0  0  2  0  0  0  0  0  0  0  0  0
   18.9837   -5.4626  -16.0934 C   0  0  0  0  0  0  0  0  0  0  0  0
   21.2359   -5.7139  -15.0470 C   0  0  2  0  0  0  0  0  0  0  0  0
   21.1559   -7.1403  -14.8958 N   0  0  0  0  0  0  0  0  0  0  0  0
   22.1583   -5.1319  -14.0513 C   0  0  0  0  0  0  0  0  0  0  0  0
   22.5364   -5.7366  -13.0194 O   0  0  0  0  0  0  0  0  0  0  0  0
   22.6347   -3.8489  -14.2636 O   0  0  0  0  0  0  0  0  0  0  0  0
  2  1  1  1
  2  4  1  0
  3  2  1  0
  4  5  1  1
  6  8  1  0
  6  4  1  0
  7  6  2  0
  9  8  1  0
 10 11  1  0
  9 10  1  6
 12 16  1  0
 12 11  1  0
 13 12  2  0
 14 21  1  0
 14  9  1  0
 15 14  2  0
 18 17  1  1
 18 20  1  0
 19 18  1  0
 20 21  1  1
 20 22  1  0
 22 24  1  0
 23 22  2  0
M  END
$$$$
