VEV.pdb
     RDKit          3D

 24 23  0  0  1  0  0  0  0  0999 V2000
   14.0741  -22.7735    1.2028 C   0  0  0  0  0  0  0  0  0  0  0  0
   13.8694  -21.7136    2.2599 C   0  0  1  0  0  0  0  0  0  0  0  0
   14.2211  -22.2465    3.6315 C   0  0  0  0  0  0  0  0  0  0  0  0
   14.7171  -20.5064    1.9178 C   0  0  2  0  0  0  0  0  0  0  0  0
   16.0461  -20.9629    1.6340 N   0  0  0  0  0  0  0  0  0  0  0  0
   14.6807  -19.4910    2.9955 C   0  0  0  0  0  0  0  0  0  0  0  0
   13.6028  -18.9213    3.2786 O   0  0  0  0  0  0  0  0  0  0  0  0
   15.8340  -19.1267    3.7370 N   0  0  0  0  0  0  0  0  0  0  0  0
   15.8037  -18.1269    4.8020 C   0  0  1  0  0  0  0  0  0  0  0  0
   15.7860  -18.8647    6.0919 C   0  0  0  0  0  0  0  0  0  0  0  0
   14.4587  -19.0317    6.7438 C   0  0  0  0  0  0  0  0  0  0  0  0
   14.4764  -19.7388    8.0334 C   0  0  0  0  0  0  0  0  0  0  0  0
   15.5274  -20.2625    8.4731 O   0  0  0  0  0  0  0  0  0  0  0  0
   16.9171  -17.1616    4.6677 C   0  0  0  0  0  0  0  0  0  0  0  0
   18.0634  -17.6305    4.4457 O   0  0  0  0  0  0  0  0  0  0  0  0
   13.3450  -19.8650    8.8270 O   0  0  0  0  0  0  0  0  0  0  0  0
   16.6175  -13.0739    3.5027 C   0  0  0  0  0  0  0  0  0  0  0  0
   17.7934  -13.9927    3.4030 C   0  0  2  0  0  0  0  0  0  0  0  0
   17.7505  -14.7621    2.0998 C   0  0  0  0  0  0  0  0  0  0  0  0
   17.9260  -14.9175    4.5848 C   0  0  2  0  0  0  0  0  0  0  0  0
   16.7806  -15.7644    4.7711 N   0  0  0  0  0  0  0  0  0  0  0  0
   18.2041  -14.1354    5.8063 C   0  0  0  0  0  0  0  0  0  0  0  0
   17.4503  -14.1234    6.8088 O   0  0  0  0  0  0  0  0  0  0  0  0
   19.3587  -13.3720    5.8526 O   0  0  0  0  0  0  0  0  0  0  0  0
  2  1  1  6
  2  4  1  0
  3  2  1  0
  4  5  1  1
  6  8  1  0
  6  4  1  0
  7  6  2  0
  9  8  1  0
 10 11  1  0
  9 10  1  1
 12 16  1  0
 12 11  1  0
 13 12  2  0
 14 21  1  0
 14  9  1  0
 15 14  2  0
 18 17  1  1
 18 20  1  0
 19 18  1  0
 20 21  1  1
 20 22  1  0
 22 24  1  0
 23 22  2  0
M  END
$$$$
