VEV.pdb
     RDKit          3D

 24 23  0  0  1  0  0  0  0  0999 V2000
   28.6001  -18.9627  -17.5293 C   0  0  0  0  0  0  0  0  0  0  0  0
   27.7035  -18.5417  -16.3886 C   0  0  1  0  0  0  0  0  0  0  0  0
   26.2544  -18.5194  -16.8230 C   0  0  0  0  0  0  0  0  0  0  0  0
   27.9029  -19.4935  -15.2279 C   0  0  2  0  0  0  0  0  0  0  0  0
   27.7928  -20.8327  -15.7278 N   0  0  0  0  0  0  0  0  0  0  0  0
   26.9533  -19.2164  -14.1255 C   0  0  0  0  0  0  0  0  0  0  0  0
   26.9452  -18.0907  -13.5784 O   0  0  0  0  0  0  0  0  0  0  0  0
   26.0337  -20.1870  -13.6512 N   0  0  0  0  0  0  0  0  0  0  0  0
   25.1318  -19.9372  -12.5291 C   0  0  1  0  0  0  0  0  0  0  0  0
   23.7673  -20.3246  -12.9723 C   0  0  0  0  0  0  0  0  0  0  0  0
   22.6874  -20.2373  -11.9521 C   0  0  0  0  0  0  0  0  0  0  0  0
   21.3480  -20.6251  -12.4199 C   0  0  0  0  0  0  0  0  0  0  0  0
   21.1813  -21.1625  -13.5405 O   0  0  0  0  0  0  0  0  0  0  0  0
   25.5925  -20.6255  -11.3030 C   0  0  0  0  0  0  0  0  0  0  0  0
   25.9141  -21.8375  -11.4082 O   0  0  0  0  0  0  0  0  0  0  0  0
   20.2067  -20.4209  -11.6573 O   0  0  0  0  0  0  0  0  0  0  0  0
   26.3932  -18.8534   -7.3719 C   0  0  0  0  0  0  0  0  0  0  0  0
   26.9589  -20.1193   -7.9324 C   0  0  2  0  0  0  0  0  0  0  0  0
   28.3064  -19.8557   -8.5705 C   0  0  0  0  0  0  0  0  0  0  0  0
   26.0242  -20.8157   -8.8867 C   0  0  2  0  0  0  0  0  0  0  0  0
   25.6940  -20.0200  -10.0363 N   0  0  0  0  0  0  0  0  0  0  0  0
   24.8022  -21.2395   -8.1738 C   0  0  0  0  0  0  0  0  0  0  0  0
   23.6632  -20.7704   -8.4105 O   0  0  0  0  0  0  0  0  0  0  0  0
   24.9144  -22.2073   -7.1895 O   0  0  0  0  0  0  0  0  0  0  0  0
  2  1  1  6
  2  4  1  0
  3  2  1  0
  4  5  1  6
  6  8  1  0
  6  4  1  0
  7  6  2  0
  9  8  1  0
 10 11  1  0
  9 10  1  6
 12 16  1  0
 12 11  1  0
 13 12  2  0
 14 21  1  0
 14  9  1  0
 15 14  2  0
 18 17  1  6
 18 20  1  0
 19 18  1  0
 20 21  1  6
 20 22  1  0
 22 24  1  0
 23 22  2  0
M  END
$$$$
