RSE.pdb
     RDKit          3D

 27 26  0  0  1  0  0  0  0  0999 V2000
   13.8259  -21.3249   -6.2743 N   0  0  0  0  0  0  0  0  0  0  0  0
   13.0468  -22.5098   -6.3269 C   0  0  0  0  0  0  0  0  0  0  0  0
   11.8666  -22.5155   -6.8828 N   0  0  0  0  0  0  0  0  0  0  0  0
   13.5076  -23.7366   -5.7832 N   0  0  0  0  0  0  0  0  0  0  0  0
   13.8477  -23.8429   -4.4029 C   0  0  0  0  0  0  0  0  0  0  0  0
   12.6205  -23.5770   -3.5251 C   0  0  0  0  0  0  0  0  0  0  0  0
   12.9770  -23.5243   -2.0599 C   0  0  0  0  0  0  0  0  0  0  0  0
   13.1978  -24.8417   -1.4381 C   0  0  2  0  0  0  0  0  0  0  0  0
   12.0759  -25.7471   -1.5704 N   0  0  0  0  0  0  0  0  0  0  0  0
   13.7548  -24.9001   -0.0908 C   0  0  0  0  0  0  0  0  0  0  0  0
   13.0588  -24.4580    0.8980 O   0  0  0  0  0  0  0  0  0  0  0  0
   11.3190  -23.4034   -6.8558 O   0  0  0  0  0  0  0  0  0  0  0  0
   17.7496  -25.8709    1.1277 C   0  0  0  0  0  0  0  0  0  0  0  0
   16.6287  -26.4139    1.7407 C   0  0  1  0  0  0  0  0  0  0  0  0
   15.4563  -25.4607    1.6815 N   0  0  0  0  0  0  0  0  0  0  0  0
   15.0249  -25.3987    0.2950 C   0  0  0  0  0  0  0  0  0  0  0  0
   15.9307  -24.1286    2.1564 O   0  0  0  0  0  0  0  0  0  0  0  0
   16.0635  -23.1800    1.3417 N   0  0  0  0  0  0  0  0  0  0  0  0
   16.2380  -23.9101    3.5265 C   0  0  1  0  0  0  0  0  0  0  0  0
   16.6417  -22.6043    4.0351 C   0  0  0  0  0  0  0  0  0  0  0  0
   15.5378  -21.6370    3.7179 C   0  0  0  0  0  0  0  0  0  0  0  0
   15.6766  -20.2883    4.3279 C   0  0  0  0  0  0  0  0  0  0  0  0
   14.5769  -19.3543    4.0320 O   0  0  0  0  0  0  0  0  0  0  0  0
   14.1940  -19.0832    2.8669 C   0  0  0  0  0  0  0  0  0  0  0  0
   16.9682  -22.6657    5.4776 O   0  0  0  0  0  0  0  0  0  0  0  0
   17.4163  -21.6475    6.0595 O   0  0  0  0  0  0  0  0  0  0  0  0
   13.9121  -18.7265    5.0661 O   0  0  0  0  0  0  0  0  0  0  0  0
  2  3  2  0
  2  1  1  0
  4  2  1  0
  5  4  1  0
  6  5  1  0
  7  6  1  0
  8  7  1  0
  8 10  1  0
  8  9  1  1
 10 11  2  0
 13 12  1  0
 14 13  1  1
 15 10  1  0
 15 14  1  0
 16 14  1  0
 16 17  2  0
 18 16  1  0
 19 24  1  0
 19 18  1  0
 19 20  1  1
 21 20  1  0
 22 21  1  0
 23 22  2  0
 24 27  1  0
 25 24  2  0
 26 22  1  0
M  END
$$$$
