RSE.pdb
     RDKit          3D

 27 26  0  0  1  0  0  0  0  0999 V2000
   28.5961  -20.9135  -11.0604 N   0  0  0  0  0  0  0  0  0  0  0  0
   27.2660  -21.0157  -11.5443 C   0  0  0  0  0  0  0  0  0  0  0  0
   26.3677  -21.7109  -10.9026 N   0  0  0  0  0  0  0  0  0  0  0  0
   26.8496  -20.3729  -12.7386 N   0  0  0  0  0  0  0  0  0  0  0  0
   27.4503  -19.1504  -13.1588 C   0  0  0  0  0  0  0  0  0  0  0  0
   26.7177  -18.5833  -14.3790 C   0  0  0  0  0  0  0  0  0  0  0  0
   27.3195  -19.0709  -15.6739 C   0  0  0  0  0  0  0  0  0  0  0  0
   27.0861  -20.4982  -15.9557 C   0  0  2  0  0  0  0  0  0  0  0  0
   27.9083  -21.0261  -17.0240 N   0  0  0  0  0  0  0  0  0  0  0  0
   25.7131  -20.9776  -16.0733 C   0  0  0  0  0  0  0  0  0  0  0  0
   24.8755  -20.3181  -16.7952 O   0  0  0  0  0  0  0  0  0  0  0  0
   25.4401  -21.8499  -11.3601 O   0  0  0  0  0  0  0  0  0  0  0  0
   23.9411  -23.8666  -13.6675 C   0  0  0  0  0  0  0  0  0  0  0  0
   23.5711  -23.8580  -15.0054 C   0  0  1  0  0  0  0  0  0  0  0  0
   23.7465  -22.4846  -15.6133 N   0  0  0  0  0  0  0  0  0  0  0  0
   25.1473  -22.1269  -15.4653 C   0  0  0  0  0  0  0  0  0  0  0  0
   22.8689  -21.5410  -14.8621 O   0  0  0  0  0  0  0  0  0  0  0  0
   23.3250  -20.4395  -14.4619 N   0  0  0  0  0  0  0  0  0  0  0  0
   21.5133  -21.8674  -14.5881 C   0  0  1  0  0  0  0  0  0  0  0  0
   20.5740  -20.8955  -14.0403 C   0  0  0  0  0  0  0  0  0  0  0  0
   20.4893  -19.7542  -15.0126 C   0  0  0  0  0  0  0  0  0  0  0  0
   19.4829  -18.7103  -14.6848 C   0  0  0  0  0  0  0  0  0  0  0  0
   19.2754  -17.6942  -15.7307 O   0  0  0  0  0  0  0  0  0  0  0  0
   19.5731  -16.4825  -15.5869 C   0  0  0  0  0  0  0  0  0  0  0  0
   19.2616  -21.5174  -13.7537 O   0  0  0  0  0  0  0  0  0  0  0  0
   18.8587  -22.4758  -14.4572 O   0  0  0  0  0  0  0  0  0  0  0  0
   18.7264  -18.0592  -16.9435 O   0  0  0  0  0  0  0  0  0  0  0  0
  2  3  2  0
  2  1  1  0
  4  2  1  0
  5  4  1  0
  6  5  1  0
  7  6  1  0
  8  7  1  0
  8 10  1  0
  8  9  1  6
 10 11  2  0
 13 12  1  0
 14 13  1  6
 15 10  1  0
 15 14  1  0
 16 14  1  0
 16 17  2  0
 18 16  1  0
 19 24  1  0
 19 18  1  0
 19 20  1  1
 21 20  1  0
 22 21  1  0
 23 22  2  0
 24 27  1  0
 25 24  2  0
 26 22  1  0
M  END
$$$$
