RSE.pdb
     RDKit          3D

 27 26  0  0  1  0  0  0  0  0999 V2000
   28.0787  -27.2272  -16.3198 N   0  0  0  0  0  0  0  0  0  0  0  0
   28.7484  -26.9710  -17.5443 C   0  0  0  0  0  0  0  0  0  0  0  0
   28.9771  -27.9290  -18.3999 N   0  0  0  0  0  0  0  0  0  0  0  0
   29.1984  -25.6725  -17.8971 N   0  0  0  0  0  0  0  0  0  0  0  0
   28.8522  -24.5385  -17.1057 C   0  0  0  0  0  0  0  0  0  0  0  0
   27.5375  -23.9229  -17.5953 C   0  0  0  0  0  0  0  0  0  0  0  0
   27.1635  -22.6926  -16.8058 C   0  0  0  0  0  0  0  0  0  0  0  0
   26.2983  -22.9542  -15.6422 C   0  0  2  0  0  0  0  0  0  0  0  0
   25.0119  -23.5229  -15.9852 N   0  0  0  0  0  0  0  0  0  0  0  0
   26.1521  -21.9174  -14.6260 C   0  0  0  0  0  0  0  0  0  0  0  0
   27.1824  -21.2297  -14.2753 O   0  0  0  0  0  0  0  0  0  0  0  0
   29.5104  -27.6930  -19.2653 O   0  0  0  0  0  0  0  0  0  0  0  0
   22.5823  -20.8659  -12.7577 C   0  0  0  0  0  0  0  0  0  0  0  0
   23.5635  -19.9006  -12.9376 C   0  0  1  0  0  0  0  0  0  0  0  0
   24.9456  -20.5138  -12.9159 N   0  0  0  0  0  0  0  0  0  0  0  0
   24.9699  -21.5501  -13.9345 C   0  0  0  0  0  0  0  0  0  0  0  0
   25.1643  -21.0904  -11.5577 O   0  0  0  0  0  0  0  0  0  0  0  0
   24.8508  -22.2853  -11.3226 N   0  0  0  0  0  0  0  0  0  0  0  0
   25.7263  -20.3061  -10.5145 C   0  0  1  0  0  0  0  0  0  0  0  0
   25.7500  -20.7571   -9.1279 C   0  0  0  0  0  0  0  0  0  0  0  0
   26.6023  -19.7919   -8.3553 C   0  0  0  0  0  0  0  0  0  0  0  0
   26.8200  -20.1360   -6.9254 C   0  0  0  0  0  0  0  0  0  0  0  0
   27.7071  -19.2176   -6.1913 O   0  0  0  0  0  0  0  0  0  0  0  0
   28.1391  -18.1408   -6.6724 C   0  0  0  0  0  0  0  0  0  0  0  0
   24.3806  -20.8934   -8.5824 O   0  0  0  0  0  0  0  0  0  0  0  0
   23.4587  -20.1634   -9.0220 O   0  0  0  0  0  0  0  0  0  0  0  0
   28.1042  -19.5272   -4.9060 O   0  0  0  0  0  0  0  0  0  0  0  0
  2  3  2  0
  2  1  1  0
  4  2  1  0
  5  4  1  0
  6  5  1  0
  7  6  1  0
  8  7  1  0
  8 10  1  0
  8  9  1  6
 10 11  2  0
 13 12  1  0
 14 13  1  6
 15 10  1  0
 15 14  1  0
 16 14  1  0
 16 17  2  0
 18 16  1  0
 19 24  1  0
 19 18  1  0
 19 20  1  1
 21 20  1  0
 22 21  1  0
 23 22  2  0
 24 27  1  0
 25 24  2  0
 26 22  1  0
M  END
$$$$
