RSE.pdb
     RDKit          3D

 27 26  0  0  1  0  0  0  0  0999 V2000
   18.6625  -24.6944   -8.5093 N   0  0  0  0  0  0  0  0  0  0  0  0
   18.3445  -23.8644   -9.6155 C   0  0  0  0  0  0  0  0  0  0  0  0
   17.1098  -23.5331   -9.8758 N   0  0  0  0  0  0  0  0  0  0  0  0
   19.3437  -23.3573  -10.4860 N   0  0  0  0  0  0  0  0  0  0  0  0
   20.4089  -22.5526   -9.9863 C   0  0  0  0  0  0  0  0  0  0  0  0
   20.0696  -21.0651  -10.1256 C   0  0  0  0  0  0  0  0  0  0  0  0
   21.1681  -20.2998  -10.8215 C   0  0  0  0  0  0  0  0  0  0  0  0
   22.5293  -20.7759  -10.5191 C   0  0  2  0  0  0  0  0  0  0  0  0
   22.9864  -20.4357   -9.1882 N   0  0  0  0  0  0  0  0  0  0  0  0
   23.5861  -20.5582  -11.5014 C   0  0  0  0  0  0  0  0  0  0  0  0
   24.1187  -19.3908  -11.6050 O   0  0  0  0  0  0  0  0  0  0  0  0
   16.9289  -22.9530  -10.7241 O   0  0  0  0  0  0  0  0  0  0  0  0
   27.2663  -22.0268  -14.1529 C   0  0  0  0  0  0  0  0  0  0  0  0
   26.2104  -22.2720  -13.2856 C   0  0  2  0  0  0  0  0  0  0  0  0
   25.1752  -21.1722  -13.3582 N   0  0  0  0  0  0  0  0  0  0  0  0
   24.1292  -21.5056  -12.4059 C   0  0  0  0  0  0  0  0  0  0  0  0
   24.6433  -21.1417  -14.7514 O   0  0  0  0  0  0  0  0  0  0  0  0
   23.7526  -21.9566  -15.1037 N   0  0  0  0  0  0  0  0  0  0  0  0
   25.1295  -20.1990  -15.6970 C   0  0  1  0  0  0  0  0  0  0  0  0
   24.6528  -20.1618  -17.0748 C   0  0  0  0  0  0  0  0  0  0  0  0
   24.0272  -18.8151  -17.2983 C   0  0  0  0  0  0  0  0  0  0  0  0
   22.6926  -18.6199  -16.6731 C   0  0  0  0  0  0  0  0  0  0  0  0
   22.0279  -17.3485  -17.0066 O   0  0  0  0  0  0  0  0  0  0  0  0
   22.5564  -16.4568  -17.7159 C   0  0  0  0  0  0  0  0  0  0  0  0
   25.7423  -20.4656  -18.0299 O   0  0  0  0  0  0  0  0  0  0  0  0
   26.9326  -20.4875  -17.6317 O   0  0  0  0  0  0  0  0  0  0  0  0
   20.7582  -17.0918  -16.5299 O   0  0  0  0  0  0  0  0  0  0  0  0
  2  3  2  0
  2  1  1  0
  4  2  1  0
  5  4  1  0
  6  5  1  0
  7  6  1  0
  8  7  1  0
  8 10  1  0
  8  9  1  1
 10 11  2  0
 13 12  1  0
 14 13  1  1
 15 10  1  0
 15 14  1  0
 16 14  1  0
 16 17  2  0
 18 16  1  0
 19 24  1  0
 19 18  1  0
 19 20  1  6
 21 20  1  0
 22 21  1  0
 23 22  2  0
 24 27  1  0
 25 24  2  0
 26 22  1  0
M  END
$$$$
