RSE.pdb
     RDKit          3D

 27 26  0  0  1  0  0  0  0  0999 V2000
   10.2389   -8.4569   -7.5113 N   0  0  0  0  0  0  0  0  0  0  0  0
   11.1742   -7.5825   -6.8996 C   0  0  0  0  0  0  0  0  0  0  0  0
   10.7842   -6.4896   -6.3035 N   0  0  0  0  0  0  0  0  0  0  0  0
   12.5676   -7.8502   -6.9050 N   0  0  0  0  0  0  0  0  0  0  0  0
   13.3724   -7.5141   -8.0325 C   0  0  0  0  0  0  0  0  0  0  0  0
   14.8540   -7.7552   -7.7260 C   0  0  0  0  0  0  0  0  0  0  0  0
   15.7305   -7.4635   -8.9191 C   0  0  0  0  0  0  0  0  0  0  0  0
   15.5835   -8.4178  -10.0320 C   0  0  2  0  0  0  0  0  0  0  0  0
   15.8372   -9.7939   -9.6606 N   0  0  0  0  0  0  0  0  0  0  0  0
   16.2038   -8.1046  -11.3150 C   0  0  0  0  0  0  0  0  0  0  0  0
   17.4166   -8.4758  -11.5354 O   0  0  0  0  0  0  0  0  0  0  0  0
   11.5175   -5.8619   -5.9071 O   0  0  0  0  0  0  0  0  0  0  0  0
   14.7025   -5.4875  -14.0799 C   0  0  0  0  0  0  0  0  0  0  0  0
   15.3156   -6.6047  -14.6304 C   0  0  1  0  0  0  0  0  0  0  0  0
   16.3124   -7.2119  -13.6690 N   0  0  0  0  0  0  0  0  0  0  0  0
   15.6231   -7.4071  -12.4046 C   0  0  0  0  0  0  0  0  0  0  0  0
   17.4432   -6.2504  -13.5214 O   0  0  0  0  0  0  0  0  0  0  0  0
   17.5671   -5.5810  -12.4641 N   0  0  0  0  0  0  0  0  0  0  0  0
   18.3926   -6.0757  -14.5643 C   0  0  1  0  0  0  0  0  0  0  0  0
   19.5016   -5.1347  -14.4577 C   0  0  0  0  0  0  0  0  0  0  0  0
   20.7698   -5.9065  -14.6836 C   0  0  0  0  0  0  0  0  0  0  0  0
   22.0171   -5.0974  -14.6868 C   0  0  0  0  0  0  0  0  0  0  0  0
   23.2491   -5.8524  -14.9725 O   0  0  0  0  0  0  0  0  0  0  0  0
   23.2798   -7.1006  -15.1083 C   0  0  0  0  0  0  0  0  0  0  0  0
   19.3352   -3.9982  -15.3916 O   0  0  0  0  0  0  0  0  0  0  0  0
   18.7303   -4.1676  -16.4785 O   0  0  0  0  0  0  0  0  0  0  0  0
   24.4496   -5.1837  -15.1029 O   0  0  0  0  0  0  0  0  0  0  0  0
  2  3  2  0
  2  1  1  0
  4  2  1  0
  5  4  1  0
  6  5  1  0
  7  6  1  0
  8  7  1  0
  8 10  1  0
  8  9  1  1
 10 11  2  0
 13 12  1  0
 14 13  1  6
 15 10  1  0
 15 14  1  0
 16 14  1  0
 16 17  2  0
 18 16  1  0
 19 24  1  0
 19 18  1  0
 19 20  1  6
 21 20  1  0
 22 21  1  0
 23 22  2  0
 24 27  1  0
 25 24  2  0
 26 22  1  0
M  END
$$$$
