RSE.pdb
     RDKit          3D

 27 26  0  0  1  0  0  0  0  0999 V2000
   27.1192  -21.2664  -10.6465 N   0  0  0  0  0  0  0  0  0  0  0  0
   25.7414  -20.9571  -10.5062 C   0  0  0  0  0  0  0  0  0  0  0  0
   25.1642  -20.9697   -9.3364 N   0  0  0  0  0  0  0  0  0  0  0  0
   24.9297  -20.6213  -11.6204 N   0  0  0  0  0  0  0  0  0  0  0  0
   25.5076  -20.3892  -12.9027 C   0  0  0  0  0  0  0  0  0  0  0  0
   26.8343  -19.6354  -12.7656 C   0  0  0  0  0  0  0  0  0  0  0  0
   27.4200  -19.2776  -14.1093 C   0  0  0  0  0  0  0  0  0  0  0  0
   26.9008  -20.0764  -15.2334 C   0  0  2  0  0  0  0  0  0  0  0  0
   27.9077  -20.8780  -15.8962 N   0  0  0  0  0  0  0  0  0  0  0  0
   26.0250  -19.4347  -16.2080 C   0  0  0  0  0  0  0  0  0  0  0  0
   25.3248  -18.4153  -15.8503 O   0  0  0  0  0  0  0  0  0  0  0  0
   24.1607  -20.6883   -9.2845 O   0  0  0  0  0  0  0  0  0  0  0  0
   25.4710  -20.7747  -20.0607 C   0  0  0  0  0  0  0  0  0  0  0  0
   25.3284  -19.4082  -19.8621 C   0  0  1  0  0  0  0  0  0  0  0  0
   24.9078  -19.1021  -18.4422 N   0  0  0  0  0  0  0  0  0  0  0  0
   25.8276  -19.8040  -17.5628 C   0  0  0  0  0  0  0  0  0  0  0  0
   23.5122  -19.5982  -18.2660 O   0  0  0  0  0  0  0  0  0  0  0  0
   23.2984  -20.6707  -17.6452 N   0  0  0  0  0  0  0  0  0  0  0  0
   22.4089  -18.8733  -18.7919 C   0  0  1  0  0  0  0  0  0  0  0  0
   21.0597  -19.0121  -18.2561 C   0  0  0  0  0  0  0  0  0  0  0  0
   21.1148  -18.6514  -16.7994 C   0  0  0  0  0  0  0  0  0  0  0  0
   20.4748  -19.6254  -15.8764 C   0  0  0  0  0  0  0  0  0  0  0  0
   19.5318  -19.0397  -14.9083 O   0  0  0  0  0  0  0  0  0  0  0  0
   19.2912  -17.8093  -14.8344 C   0  0  0  0  0  0  0  0  0  0  0  0
   20.0893  -18.1988  -19.0230 O   0  0  0  0  0  0  0  0  0  0  0  0
   20.4585  -17.1216  -19.5515 O   0  0  0  0  0  0  0  0  0  0  0  0
   18.8617  -19.8580  -14.0212 O   0  0  0  0  0  0  0  0  0  0  0  0
  2  3  2  0
  2  1  1  0
  4  2  1  0
  5  4  1  0
  6  5  1  0
  7  6  1  0
  8  7  1  0
  8 10  1  0
  8  9  1  6
 10 11  2  0
 13 12  1  0
 14 13  1  1
 15 10  1  0
 15 14  1  0
 16 14  1  0
 16 17  2  0
 18 16  1  0
 19 24  1  0
 19 18  1  0
 19 20  1  6
 21 20  1  0
 22 21  1  0
 23 22  2  0
 24 27  1  0
 25 24  2  0
 26 22  1  0
M  END
$$$$
