RSE.pdb
     RDKit          3D

 27 26  0  0  1  0  0  0  0  0999 V2000
   23.2143  -20.8492   -7.9237 N   0  0  0  0  0  0  0  0  0  0  0  0
   22.6437  -20.5603   -9.1904 C   0  0  0  0  0  0  0  0  0  0  0  0
   21.3629  -20.3484   -9.3193 N   0  0  0  0  0  0  0  0  0  0  0  0
   23.4296  -20.4874  -10.3694 N   0  0  0  0  0  0  0  0  0  0  0  0
   24.7663  -20.9822  -10.3889 C   0  0  0  0  0  0  0  0  0  0  0  0
   25.4011  -20.7610  -11.7656 C   0  0  0  0  0  0  0  0  0  0  0  0
   26.7966  -21.3300  -11.8402 C   0  0  0  0  0  0  0  0  0  0  0  0
   27.6573  -20.7034  -12.8587 C   0  0  2  0  0  0  0  0  0  0  0  0
   28.6219  -19.7701  -12.3163 N   0  0  0  0  0  0  0  0  0  0  0  0
   27.0417  -20.1681  -14.0684 C   0  0  0  0  0  0  0  0  0  0  0  0
   26.5902  -18.9624  -14.0645 O   0  0  0  0  0  0  0  0  0  0  0  0
   20.9947  -20.1529  -10.2760 O   0  0  0  0  0  0  0  0  0  0  0  0
   26.9882  -22.0217  -17.7888 C   0  0  0  0  0  0  0  0  0  0  0  0
   26.9269  -20.6387  -17.6855 C   0  0  1  0  0  0  0  0  0  0  0  0
   26.1851  -20.2150  -16.4378 N   0  0  0  0  0  0  0  0  0  0  0  0
   26.8604  -20.8317  -15.3083 C   0  0  0  0  0  0  0  0  0  0  0  0
   24.7812  -20.7047  -16.5569 O   0  0  0  0  0  0  0  0  0  0  0  0
   24.3134  -21.4921  -15.6951 N   0  0  0  0  0  0  0  0  0  0  0  0
   23.9546  -20.2933  -17.6371 C   0  0  1  0  0  0  0  0  0  0  0  0
   22.5005  -20.2548  -17.5337 C   0  0  0  0  0  0  0  0  0  0  0  0
   22.1550  -19.3616  -16.3771 C   0  0  0  0  0  0  0  0  0  0  0  0
   20.7047  -19.0963  -16.1868 C   0  0  0  0  0  0  0  0  0  0  0  0
   20.3785  -18.1790  -15.0815 O   0  0  0  0  0  0  0  0  0  0  0  0
   19.8056  -17.0735  -15.2461 C   0  0  0  0  0  0  0  0  0  0  0  0
   21.8811  -19.8262  -18.8081 O   0  0  0  0  0  0  0  0  0  0  0  0
   22.5576  -19.1771  -19.6430 O   0  0  0  0  0  0  0  0  0  0  0  0
   20.7068  -18.5216  -13.7852 O   0  0  0  0  0  0  0  0  0  0  0  0
  2  3  2  0
  2  1  1  0
  4  2  1  0
  5  4  1  0
  6  5  1  0
  7  6  1  0
  8  7  1  0
  8 10  1  0
  8  9  1  1
 10 11  2  0
 13 12  1  0
 14 13  1  1
 15 10  1  0
 15 14  1  0
 16 14  1  0
 16 17  2  0
 18 16  1  0
 19 24  1  0
 19 18  1  0
 19 20  1  6
 21 20  1  0
 22 21  1  0
 23 22  2  0
 24 27  1  0
 25 24  2  0
 26 22  1  0
M  END
$$$$
