RSE.pdb
     RDKit          3D

 27 26  0  0  1  0  0  0  0  0999 V2000
   14.7725  -15.1315  -15.2681 N   0  0  0  0  0  0  0  0  0  0  0  0
   14.7994  -14.8555  -16.6598 C   0  0  0  0  0  0  0  0  0  0  0  0
   14.8820  -15.8187  -17.5358 N   0  0  0  0  0  0  0  0  0  0  0  0
   14.7379  -13.5308  -17.1642 N   0  0  0  0  0  0  0  0  0  0  0  0
   14.8792  -12.4099  -16.2949 C   0  0  0  0  0  0  0  0  0  0  0  0
   15.9114  -11.4244  -16.8521 C   0  0  0  0  0  0  0  0  0  0  0  0
   16.0472  -10.1993  -15.9817 C   0  0  0  0  0  0  0  0  0  0  0  0
   16.9594  -10.3628  -14.8362 C   0  0  2  0  0  0  0  0  0  0  0  0
   16.2934  -10.7356  -13.6060 N   0  0  0  0  0  0  0  0  0  0  0  0
   17.9699   -9.3398  -14.5890 C   0  0  0  0  0  0  0  0  0  0  0  0
   17.6325   -8.2546  -13.9841 O   0  0  0  0  0  0  0  0  0  0  0  0
   14.9240  -15.5577  -18.5453 O   0  0  0  0  0  0  0  0  0  0  0  0
   22.6230   -7.8826  -14.5566 C   0  0  0  0  0  0  0  0  0  0  0  0
   21.6637   -8.8416  -14.8518 C   0  0  2  0  0  0  0  0  0  0  0  0
   20.2671   -8.3050  -14.6321 N   0  0  0  0  0  0  0  0  0  0  0  0
   19.3412   -9.3798  -14.9475 C   0  0  0  0  0  0  0  0  0  0  0  0
   20.0774   -7.1456  -15.5512 O   0  0  0  0  0  0  0  0  0  0  0  0
   19.8094   -7.3405  -16.7643 N   0  0  0  0  0  0  0  0  0  0  0  0
   20.1948   -5.8115  -15.0760 C   0  0  1  0  0  0  0  0  0  0  0  0
   19.9282   -4.6563  -15.9252 C   0  0  0  0  0  0  0  0  0  0  0  0
   18.5539   -4.1556  -15.5853 C   0  0  0  0  0  0  0  0  0  0  0  0
   18.1250   -2.9292  -16.3078 C   0  0  0  0  0  0  0  0  0  0  0  0
   16.7801   -2.4393  -15.9605 O   0  0  0  0  0  0  0  0  0  0  0  0
   16.0454   -2.9858  -15.1008 C   0  0  0  0  0  0  0  0  0  0  0  0
   20.9793   -3.6246  -15.7765 O   0  0  0  0  0  0  0  0  0  0  0  0
   21.6242   -3.5415  -14.7026 O   0  0  0  0  0  0  0  0  0  0  0  0
   16.2703   -1.3243  -16.5948 O   0  0  0  0  0  0  0  0  0  0  0  0
  2  3  2  0
  2  1  1  0
  4  2  1  0
  5  4  1  0
  6  5  1  0
  7  6  1  0
  8  7  1  0
  8 10  1  0
  8  9  1  1
 10 11  2  0
 13 12  1  0
 14 13  1  1
 15 10  1  0
 15 14  1  0
 16 14  1  0
 16 17  2  0
 18 16  1  0
 19 24  1  0
 19 18  1  0
 19 20  1  6
 21 20  1  0
 22 21  1  0
 23 22  2  0
 24 27  1  0
 25 24  2  0
 26 22  1  0
M  END
$$$$
