RSE.pdb
     RDKit          3D

 27 26  0  0  1  0  0  0  0  0999 V2000
   28.2147  -22.8565  -15.6846 N   0  0  0  0  0  0  0  0  0  0  0  0
   28.9879  -22.2045  -16.6799 C   0  0  0  0  0  0  0  0  0  0  0  0
   29.5757  -22.8822  -17.6271 N   0  0  0  0  0  0  0  0  0  0  0  0
   29.1589  -20.7961  -16.6955 N   0  0  0  0  0  0  0  0  0  0  0  0
   28.6036  -19.9806  -15.6666 C   0  0  0  0  0  0  0  0  0  0  0  0
   27.6680  -18.9247  -16.2640 C   0  0  0  0  0  0  0  0  0  0  0  0
   26.2162  -19.3022  -16.1015 C   0  0  0  0  0  0  0  0  0  0  0  0
   25.5730  -19.7963  -17.3316 C   0  0  2  0  0  0  0  0  0  0  0  0
   26.1769  -19.2974  -18.5491 N   0  0  0  0  0  0  0  0  0  0  0  0
   24.1172  -19.7674  -17.4255 C   0  0  0  0  0  0  0  0  0  0  0  0
   23.5508  -18.8671  -18.1509 O   0  0  0  0  0  0  0  0  0  0  0  0
   30.2389  -22.3731  -18.2516 O   0  0  0  0  0  0  0  0  0  0  0  0
   21.5895  -22.6783  -15.8986 C   0  0  0  0  0  0  0  0  0  0  0  0
   21.2512  -21.9939  -17.0580 C   0  0  1  0  0  0  0  0  0  0  0  0
   21.7631  -20.5715  -17.0235 N   0  0  0  0  0  0  0  0  0  0  0  0
   23.1960  -20.6379  -16.7899 C   0  0  0  0  0  0  0  0  0  0  0  0
   21.0689  -19.8669  -15.9070 O   0  0  0  0  0  0  0  0  0  0  0  0
   21.6104  -19.7947  -14.7742 N   0  0  0  0  0  0  0  0  0  0  0  0
   19.7944  -19.2697  -16.1022 C   0  0  1  0  0  0  0  0  0  0  0  0
   19.1066  -18.5393  -15.0437 C   0  0  0  0  0  0  0  0  0  0  0  0
   18.1660  -17.5717  -15.7025 C   0  0  0  0  0  0  0  0  0  0  0  0
   17.2846  -16.8097  -14.7791 C   0  0  0  0  0  0  0  0  0  0  0  0
   16.2865  -15.9499  -15.4378 O   0  0  0  0  0  0  0  0  0  0  0  0
   16.2244  -15.7901  -16.6820 C   0  0  0  0  0  0  0  0  0  0  0  0
   18.4315  -19.4623  -14.1036 O   0  0  0  0  0  0  0  0  0  0  0  0
   18.1010  -20.6111  -14.4869 O   0  0  0  0  0  0  0  0  0  0  0  0
   15.3572  -15.2694  -14.6770 O   0  0  0  0  0  0  0  0  0  0  0  0
  2  3  2  0
  2  1  1  0
  4  2  1  0
  5  4  1  0
  6  5  1  0
  7  6  1  0
  8  7  1  0
  8 10  1  0
  8  9  1  6
 10 11  2  0
 13 12  1  0
 14 13  1  6
 15 10  1  0
 15 14  1  0
 16 14  1  0
 16 17  2  0
 18 16  1  0
 19 24  1  0
 19 18  1  0
 19 20  1  1
 21 20  1  0
 22 21  1  0
 23 22  2  0
 24 27  1  0
 25 24  2  0
 26 22  1  0
M  END
$$$$
