RSE.pdb
     RDKit          3D

 27 26  0  0  1  0  0  0  0  0999 V2000
   26.6927  -19.6091   -8.9358 N   0  0  0  0  0  0  0  0  0  0  0  0
   25.7059  -20.5119   -8.4617 C   0  0  0  0  0  0  0  0  0  0  0  0
   25.4230  -20.5936   -7.1908 N   0  0  0  0  0  0  0  0  0  0  0  0
   24.9836  -21.3630   -9.3375 N   0  0  0  0  0  0  0  0  0  0  0  0
   24.9502  -21.1105  -10.7400 C   0  0  0  0  0  0  0  0  0  0  0  0
   26.2320  -21.6182  -11.4080 C   0  0  0  0  0  0  0  0  0  0  0  0
   26.2814  -21.2639  -12.8739 C   0  0  0  0  0  0  0  0  0  0  0  0
   27.1417  -20.1114  -13.1943 C   0  0  2  0  0  0  0  0  0  0  0  0
   27.6864  -19.4457  -12.0298 N   0  0  0  0  0  0  0  0  0  0  0  0
   26.6782  -19.1385  -14.1779 C   0  0  0  0  0  0  0  0  0  0  0  0
   26.2052  -18.0112  -13.7741 O   0  0  0  0  0  0  0  0  0  0  0  0
   24.6876  -21.2735   -6.8975 O   0  0  0  0  0  0  0  0  0  0  0  0
   27.6597  -17.3787  -17.5060 C   0  0  0  0  0  0  0  0  0  0  0  0
   26.5830  -18.2258  -17.7296 C   0  0  2  0  0  0  0  0  0  0  0  0
   25.8147  -18.4837  -16.4529 N   0  0  0  0  0  0  0  0  0  0  0  0
   26.6738  -19.2761  -15.5892 C   0  0  0  0  0  0  0  0  0  0  0  0
   24.5764  -19.2335  -16.8128 O   0  0  0  0  0  0  0  0  0  0  0  0
   24.6143  -20.4828  -16.9517 N   0  0  0  0  0  0  0  0  0  0  0  0
   23.3425  -18.5548  -17.0031 C   0  0  1  0  0  0  0  0  0  0  0  0
   22.0947  -19.2652  -17.2582 C   0  0  0  0  0  0  0  0  0  0  0  0
   20.9832  -18.4510  -16.6610 C   0  0  0  0  0  0  0  0  0  0  0  0
   19.6275  -19.0532  -16.7590 C   0  0  0  0  0  0  0  0  0  0  0  0
   18.5383  -18.2300  -16.2063 O   0  0  0  0  0  0  0  0  0  0  0  0
   17.9091  -17.3746  -16.8768 C   0  0  0  0  0  0  0  0  0  0  0  0
   21.9124  -19.5318  -18.7029 O   0  0  0  0  0  0  0  0  0  0  0  0
   21.1423  -18.8063  -19.3786 O   0  0  0  0  0  0  0  0  0  0  0  0
   18.1656  -18.3811  -14.8858 O   0  0  0  0  0  0  0  0  0  0  0  0
  2  3  2  0
  2  1  1  0
  4  2  1  0
  5  4  1  0
  6  5  1  0
  7  6  1  0
  8  7  1  0
  8 10  1  0
  8  9  1  1
 10 11  2  0
 13 12  1  0
 14 13  1  1
 15 10  1  0
 15 14  1  0
 16 14  1  0
 16 17  2  0
 18 16  1  0
 19 24  1  0
 19 18  1  0
 19 20  1  6
 21 20  1  0
 22 21  1  0
 23 22  2  0
 24 27  1  0
 25 24  2  0
 26 22  1  0
M  END
$$$$
