RSE.pdb
     RDKit          3D

 27 26  0  0  1  0  0  0  0  0999 V2000
   15.3655  -15.1873  -15.0876 N   0  0  0  0  0  0  0  0  0  0  0  0
   16.2965  -14.1210  -14.9884 C   0  0  0  0  0  0  0  0  0  0  0  0
   15.9947  -13.0202  -14.3566 N   0  0  0  0  0  0  0  0  0  0  0  0
   17.5904  -14.1973  -15.5654 N   0  0  0  0  0  0  0  0  0  0  0  0
   17.9980  -15.3509  -16.2970 C   0  0  0  0  0  0  0  0  0  0  0  0
   19.4148  -15.1641  -16.8493 C   0  0  0  0  0  0  0  0  0  0  0  0
   19.5198  -13.9423  -17.7284 C   0  0  0  0  0  0  0  0  0  0  0  0
   20.8142  -13.7955  -18.4168 C   0  0  2  0  0  0  0  0  0  0  0  0
   21.8023  -14.7769  -18.0213 N   0  0  0  0  0  0  0  0  0  0  0  0
   21.4126  -12.4685  -18.5161 C   0  0  0  0  0  0  0  0  0  0  0  0
   22.0701  -11.9977  -17.5143 O   0  0  0  0  0  0  0  0  0  0  0  0
   16.6792  -12.2334  -14.3933 O   0  0  0  0  0  0  0  0  0  0  0  0
   22.6712   -8.5589  -21.1382 C   0  0  0  0  0  0  0  0  0  0  0  0
   21.9861   -9.7616  -21.0320 C   0  0  2  0  0  0  0  0  0  0  0  0
   21.9982  -10.2750  -19.6097 N   0  0  0  0  0  0  0  0  0  0  0  0
   21.3609  -11.5811  -19.6209 C   0  0  0  0  0  0  0  0  0  0  0  0
   21.2290   -9.3092  -18.7727 O   0  0  0  0  0  0  0  0  0  0  0  0
   19.9933   -9.4683  -18.6019 N   0  0  0  0  0  0  0  0  0  0  0  0
   21.8739   -8.2018  -18.1585 C   0  0  1  0  0  0  0  0  0  0  0  0
   21.1697   -7.2872  -17.2672 C   0  0  0  0  0  0  0  0  0  0  0  0
   22.0781   -7.0021  -16.1060 C   0  0  0  0  0  0  0  0  0  0  0  0
   21.5224   -6.0925  -15.0696 C   0  0  0  0  0  0  0  0  0  0  0  0
   22.3841   -5.8880  -13.8928 O   0  0  0  0  0  0  0  0  0  0  0  0
   23.4383   -6.5387  -13.6858 C   0  0  0  0  0  0  0  0  0  0  0  0
   20.7351   -6.0662  -17.9825 O   0  0  0  0  0  0  0  0  0  0  0  0
   21.3677   -5.6780  -18.9949 O   0  0  0  0  0  0  0  0  0  0  0  0
   22.0437   -4.9403  -12.9487 O   0  0  0  0  0  0  0  0  0  0  0  0
  2  3  2  0
  2  1  1  0
  4  2  1  0
  5  4  1  0
  6  5  1  0
  7  6  1  0
  8  7  1  0
  8 10  1  0
  8  9  1  1
 10 11  2  0
 13 12  1  0
 14 13  1  6
 15 10  1  0
 15 14  1  0
 16 14  1  0
 16 17  2  0
 18 16  1  0
 19 24  1  0
 19 18  1  0
 19 20  1  6
 21 20  1  0
 22 21  1  0
 23 22  2  0
 24 27  1  0
 25 24  2  0
 26 22  1  0
M  END
$$$$
