RSE.pdb
     RDKit          3D

 27 26  0  0  1  0  0  0  0  0999 V2000
   20.8687  -20.5229  -14.6534 N   0  0  0  0  0  0  0  0  0  0  0  0
   21.0901  -21.8844  -14.3205 C   0  0  0  0  0  0  0  0  0  0  0  0
   20.9967  -22.8220  -15.2227 N   0  0  0  0  0  0  0  0  0  0  0  0
   21.4218  -22.2910  -13.0022 N   0  0  0  0  0  0  0  0  0  0  0  0
   21.5135  -21.3395  -11.9447 C   0  0  0  0  0  0  0  0  0  0  0  0
   22.7573  -20.4619  -12.1180 C   0  0  0  0  0  0  0  0  0  0  0  0
   23.6564  -20.5143  -10.9073 C   0  0  0  0  0  0  0  0  0  0  0  0
   24.9608  -21.1576  -11.1436 C   0  0  2  0  0  0  0  0  0  0  0  0
   25.6880  -21.4693   -9.9312 N   0  0  0  0  0  0  0  0  0  0  0  0
   25.8519  -20.5936  -12.1519 C   0  0  0  0  0  0  0  0  0  0  0  0
   26.5087  -19.5197  -11.8820 O   0  0  0  0  0  0  0  0  0  0  0  0
   21.1639  -23.8071  -14.9216 O   0  0  0  0  0  0  0  0  0  0  0  0
   27.5323  -22.2845  -15.3761 C   0  0  0  0  0  0  0  0  0  0  0  0
   27.7916  -20.9426  -15.1329 C   0  0  1  0  0  0  0  0  0  0  0  0
   26.5857  -20.2508  -14.5381 N   0  0  0  0  0  0  0  0  0  0  0  0
   26.1007  -21.0912  -13.4562 C   0  0  0  0  0  0  0  0  0  0  0  0
   25.5623  -20.1179  -15.6152 O   0  0  0  0  0  0  0  0  0  0  0  0
   24.6341  -20.9610  -15.7097 N   0  0  0  0  0  0  0  0  0  0  0  0
   25.6178  -19.0451  -16.5454 C   0  0  1  0  0  0  0  0  0  0  0  0
   24.6674  -18.9175  -17.6441 C   0  0  0  0  0  0  0  0  0  0  0  0
   24.0200  -17.5678  -17.5245 C   0  0  0  0  0  0  0  0  0  0  0  0
   22.9239  -17.2980  -18.4920 C   0  0  0  0  0  0  0  0  0  0  0  0
   22.3226  -15.9571  -18.3946 O   0  0  0  0  0  0  0  0  0  0  0  0
   22.7169  -15.0789  -17.5879 C   0  0  0  0  0  0  0  0  0  0  0  0
   25.3242  -19.1365  -18.9525 O   0  0  0  0  0  0  0  0  0  0  0  0
   26.5639  -18.9729  -19.0631 O   0  0  0  0  0  0  0  0  0  0  0  0
   21.2683  -15.6158  -19.2178 O   0  0  0  0  0  0  0  0  0  0  0  0
  2  3  2  0
  2  1  1  0
  4  2  1  0
  5  4  1  0
  6  5  1  0
  7  6  1  0
  8  7  1  0
  8 10  1  0
  8  9  1  1
 10 11  2  0
 13 12  1  0
 14 13  1  1
 15 10  1  0
 15 14  1  0
 16 14  1  0
 16 17  2  0
 18 16  1  0
 19 24  1  0
 19 18  1  0
 19 20  1  6
 21 20  1  0
 22 21  1  0
 23 22  2  0
 24 27  1  0
 25 24  2  0
 26 22  1  0
M  END
$$$$
