RSE.pdb
     RDKit          3D

 27 26  0  0  1  0  0  0  0  0999 V2000
   13.7466  -10.9630  -20.1785 N   0  0  0  0  0  0  0  0  0  0  0  0
   13.9615  -12.2640  -19.6542 C   0  0  0  0  0  0  0  0  0  0  0  0
   12.9591  -13.0467  -19.3633 N   0  0  0  0  0  0  0  0  0  0  0  0
   15.2647  -12.7748  -19.4225 N   0  0  0  0  0  0  0  0  0  0  0  0
   16.3284  -11.9125  -19.0262 C   0  0  0  0  0  0  0  0  0  0  0  0
   17.6316  -12.7029  -18.8715 C   0  0  0  0  0  0  0  0  0  0  0  0
   18.7880  -11.8125  -18.4885 C   0  0  0  0  0  0  0  0  0  0  0  0
   19.3935  -12.1268  -17.1825 C   0  0  2  0  0  0  0  0  0  0  0  0
   18.7086  -13.1758  -16.4568 N   0  0  0  0  0  0  0  0  0  0  0  0
   19.7534  -11.0296  -16.2907 C   0  0  0  0  0  0  0  0  0  0  0  0
   18.9378  -10.6842  -15.3564 O   0  0  0  0  0  0  0  0  0  0  0  0
   13.1747  -14.0086  -19.0209 O   0  0  0  0  0  0  0  0  0  0  0  0
   23.5163   -9.7918  -15.5659 C   0  0  0  0  0  0  0  0  0  0  0  0
   22.4976   -9.5520  -14.6539 C   0  0  1  0  0  0  0  0  0  0  0  0
   21.2067   -9.1953  -15.3561 N   0  0  0  0  0  0  0  0  0  0  0  0
   20.9376  -10.2501  -16.3188 C   0  0  0  0  0  0  0  0  0  0  0  0
   21.4091   -7.8843  -16.0382 O   0  0  0  0  0  0  0  0  0  0  0  0
   21.9150   -7.8443  -17.1888 N   0  0  0  0  0  0  0  0  0  0  0  0
   21.0366   -6.6678  -15.4052 C   0  0  1  0  0  0  0  0  0  0  0  0
   21.2702   -5.3666  -16.0208 C   0  0  0  0  0  0  0  0  0  0  0  0
   20.3456   -4.3842  -15.3612 C   0  0  0  0  0  0  0  0  0  0  0  0
   20.5086   -2.9694  -15.7876 C   0  0  0  0  0  0  0  0  0  0  0  0
   19.6001   -2.0125  -15.1330 O   0  0  0  0  0  0  0  0  0  0  0  0
   19.5981   -0.7810  -15.3794 C   0  0  0  0  0  0  0  0  0  0  0  0
   22.6957   -4.9773  -15.9324 O   0  0  0  0  0  0  0  0  0  0  0  0
   23.3695   -5.3020  -14.9242 O   0  0  0  0  0  0  0  0  0  0  0  0
   18.6920   -2.4597  -14.1945 O   0  0  0  0  0  0  0  0  0  0  0  0
  2  3  2  0
  2  1  1  0
  4  2  1  0
  5  4  1  0
  6  5  1  0
  7  6  1  0
  8  7  1  0
  8 10  1  0
  8  9  1  1
 10 11  2  0
 13 12  1  0
 14 13  1  1
 15 10  1  0
 15 14  1  0
 16 14  1  0
 16 17  2  0
 18 16  1  0
 19 24  1  0
 19 18  1  0
 19 20  1  1
 21 20  1  0
 22 21  1  0
 23 22  2  0
 24 27  1  0
 25 24  2  0
 26 22  1  0
M  END
$$$$
