RSE.pdb
     RDKit          3D

 27 26  0  0  1  0  0  0  0  0999 V2000
   13.2341  -11.7215  -11.1857 N   0  0  0  0  0  0  0  0  0  0  0  0
   12.5235  -12.5348  -12.1061 C   0  0  0  0  0  0  0  0  0  0  0  0
   11.2416  -12.3793  -12.2919 N   0  0  0  0  0  0  0  0  0  0  0  0
   13.1650  -13.5483  -12.8640 N   0  0  0  0  0  0  0  0  0  0  0  0
   14.5320  -13.4201  -13.2474 C   0  0  0  0  0  0  0  0  0  0  0  0
   14.8541  -11.9669  -13.6105 C   0  0  0  0  0  0  0  0  0  0  0  0
   16.2634  -11.8151  -14.1279 C   0  0  0  0  0  0  0  0  0  0  0  0
   16.3629  -11.6572  -15.5895 C   0  0  2  0  0  0  0  0  0  0  0  0
   16.6915  -12.8810  -16.2896 N   0  0  0  0  0  0  0  0  0  0  0  0
   17.1226  -10.5331  -16.1263 C   0  0  0  0  0  0  0  0  0  0  0  0
   17.8890  -10.7196  -17.1438 O   0  0  0  0  0  0  0  0  0  0  0  0
   10.7759  -12.9801  -13.0068 O   0  0  0  0  0  0  0  0  0  0  0  0
   16.6202   -6.6338  -14.9702 C   0  0  0  0  0  0  0  0  0  0  0  0
   17.1294   -6.8840  -16.2371 C   0  0  1  0  0  0  0  0  0  0  0  0
   17.9475   -8.1556  -16.2573 N   0  0  0  0  0  0  0  0  0  0  0  0
   17.1348   -9.1970  -15.6515 C   0  0  0  0  0  0  0  0  0  0  0  0
   19.1859   -7.9103  -15.4628 O   0  0  0  0  0  0  0  0  0  0  0  0
   19.2076   -8.1722  -14.2330 N   0  0  0  0  0  0  0  0  0  0  0  0
   20.3532   -7.3812  -16.0767 C   0  0  1  0  0  0  0  0  0  0  0  0
   21.5499   -7.0455  -15.3138 C   0  0  0  0  0  0  0  0  0  0  0  0
   22.6920   -6.9557  -16.2846 C   0  0  0  0  0  0  0  0  0  0  0  0
   23.9867   -6.5084  -15.7069 C   0  0  0  0  0  0  0  0  0  0  0  0
   25.0731   -6.3201  -16.6834 O   0  0  0  0  0  0  0  0  0  0  0  0
   26.2049   -5.8676  -16.3805 C   0  0  0  0  0  0  0  0  0  0  0  0
   21.3557   -5.8085  -14.5242 O   0  0  0  0  0  0  0  0  0  0  0  0
   20.5654   -4.9239  -14.9351 O   0  0  0  0  0  0  0  0  0  0  0  0
   24.8694   -6.6473  -18.0090 O   0  0  0  0  0  0  0  0  0  0  0  0
  2  3  2  0
  2  1  1  0
  4  2  1  0
  5  4  1  0
  6  5  1  0
  7  6  1  0
  8  7  1  0
  8 10  1  0
  8  9  1  6
 10 11  2  0
 13 12  1  0
 14 13  1  6
 15 10  1  0
 15 14  1  0
 16 14  1  0
 16 17  2  0
 18 16  1  0
 19 24  1  0
 19 18  1  0
 19 20  1  1
 21 20  1  0
 22 21  1  0
 23 22  2  0
 24 27  1  0
 25 24  2  0
 26 22  1  0
M  END
$$$$
