LQV.pdb
     RDKit          3D

 25 24  0  0  1  0  0  0  0  0999 V2000
    9.3372  -13.8119   20.0000 C   0  0  0  0  0  0  0  0  0  0  0  0
    8.1699  -13.7293   19.0645 C   0  0  2  0  0  0  0  0  0  0  0  0
    7.6384  -12.2999   19.1382 C   0  0  0  0  0  0  0  0  0  0  0  0
    7.0458  -14.6428   19.4265 C   0  0  0  0  0  0  0  0  0  0  0  0
    7.5278  -15.8657   20.1694 C   0  0  2  0  0  0  0  0  0  0  0  0
    7.1279  -17.0292   19.4389 N   0  0  0  0  0  0  0  0  0  0  0  0
    6.9819  -15.9307   21.5432 C   0  0  0  0  0  0  0  0  0  0  0  0
    5.7262  -15.8490   21.7413 O   0  0  0  0  0  0  0  0  0  0  0  0
    7.9806  -20.2559   25.2359 N   0  0  0  0  0  0  0  0  0  0  0  0
    7.2473  -19.4079   26.1306 C   0  0  0  0  0  0  0  0  0  0  0  0
    6.7876  -19.9511   27.1596 O   0  0  0  0  0  0  0  0  0  0  0  0
    7.0513  -17.9642   25.8395 C   0  0  0  0  0  0  0  0  0  0  0  0
    7.5973  -17.6994   24.4539 C   0  0  0  0  0  0  0  0  0  0  0  0
    7.3448  -16.2702   24.0222 C   0  0  2  0  0  0  0  0  0  0  0  0
    7.8242  -16.0840   22.6723 N   0  0  0  0  0  0  0  0  0  0  0  0
    8.0488  -15.3020   24.8938 C   0  0  0  0  0  0  0  0  0  0  0  0
    9.3124  -15.1890   24.8370 O   0  0  0  0  0  0  0  0  0  0  0  0
    6.5173  -11.7054   25.7487 C   0  0  0  0  0  0  0  0  0  0  0  0
    7.1037  -12.3774   26.9439 C   0  0  1  0  0  0  0  0  0  0  0  0
    6.0396  -13.0805   27.7861 C   0  0  0  0  0  0  0  0  0  0  0  0
    8.1173  -13.4551   26.5775 C   0  0  2  0  0  0  0  0  0  0  0  0
    7.4004  -14.4595   25.8212 N   0  0  0  0  0  0  0  0  0  0  0  0
    8.7776  -14.0170   27.7719 C   0  0  0  0  0  0  0  0  0  0  0  0
    8.5096  -15.1925   28.1266 O   0  0  0  0  0  0  0  0  0  0  0  0
    9.6929  -13.3115   28.5397 O   0  0  0  0  0  0  0  0  0  0  0  0
  2  1  1  1
  2  3  1  0
  4  2  1  0
  4  5  1  0
  5  7  1  0
  5  6  1  6
  7  8  2  0
  9 10  1  0
 10 12  1  0
 11 10  2  0
 12 13  1  0
 14 13  1  1
 15 14  1  0
 15  7  1  0
 16 17  2  0
 16 14  1  0
 19 18  1  6
 19 21  1  0
 20 19  1  0
 21 23  1  0
 21 22  1  1
 22 16  1  0
 23 25  1  0
 24 23  2  0
M  END
$$$$
