LQV.pdb
     RDKit          3D

 25 24  0  0  1  0  0  0  0  0999 V2000
    9.4640  -13.3364   19.0297 C   0  0  0  0  0  0  0  0  0  0  0  0
    8.1548  -13.8940   18.5607 C   0  0  2  0  0  0  0  0  0  0  0  0
    7.3578  -12.7308   17.9750 C   0  0  0  0  0  0  0  0  0  0  0  0
    7.3326  -14.4932   19.6534 C   0  0  0  0  0  0  0  0  0  0  0  0
    8.1893  -15.1252   20.7241 C   0  0  2  0  0  0  0  0  0  0  0  0
    8.4228  -16.4922   20.3723 N   0  0  0  0  0  0  0  0  0  0  0  0
    7.5500  -15.0582   22.0569 C   0  0  0  0  0  0  0  0  0  0  0  0
    7.1522  -13.9420   22.5245 O   0  0  0  0  0  0  0  0  0  0  0  0
    6.4195  -20.1311   25.6547 N   0  0  0  0  0  0  0  0  0  0  0  0
    7.7504  -19.6417   25.4391 C   0  0  0  0  0  0  0  0  0  0  0  0
    8.6839  -20.4140   25.7511 O   0  0  0  0  0  0  0  0  0  0  0  0
    7.9937  -18.2888   24.8751 C   0  0  0  0  0  0  0  0  0  0  0  0
    6.6477  -17.6277   24.6772 C   0  0  0  0  0  0  0  0  0  0  0  0
    6.7964  -16.2051   24.1804 C   0  0  2  0  0  0  0  0  0  0  0  0
    7.3596  -16.2167   22.8502 N   0  0  0  0  0  0  0  0  0  0  0  0
    7.6959  -15.4123   25.0495 C   0  0  0  0  0  0  0  0  0  0  0  0
    8.9559  -15.4978   24.9159 O   0  0  0  0  0  0  0  0  0  0  0  0
    7.0960  -11.6755   25.9038 C   0  0  0  0  0  0  0  0  0  0  0  0
    7.4608  -12.4214   27.1425 C   0  0  1  0  0  0  0  0  0  0  0  0
    6.2326  -12.7810   27.9781 C   0  0  0  0  0  0  0  0  0  0  0  0
    8.1621  -13.7429   26.8513 C   0  0  2  0  0  0  0  0  0  0  0  0
    7.2459  -14.5328   26.0564 N   0  0  0  0  0  0  0  0  0  0  0  0
    8.5690  -14.4337   28.0904 C   0  0  0  0  0  0  0  0  0  0  0  0
    9.4293  -13.9020   28.8365 O   0  0  0  0  0  0  0  0  0  0  0  0
    8.0484  -15.6571   28.4871 O   0  0  0  0  0  0  0  0  0  0  0  0
  2  1  1  1
  2  3  1  0
  4  2  1  0
  4  5  1  0
  5  7  1  0
  5  6  1  6
  7  8  2  0
  9 10  1  0
 10 12  1  0
 11 10  2  0
 12 13  1  0
 14 13  1  1
 15 14  1  0
 15  7  1  0
 16 17  2  0
 16 14  1  0
 19 18  1  6
 19 21  1  0
 20 19  1  0
 21 23  1  0
 21 22  1  1
 22 16  1  0
 23 25  1  0
 24 23  2  0
M  END
$$$$
