LQV.pdb
     RDKit          3D

 25 24  0  0  1  0  0  0  0  0999 V2000
    9.5531  -14.1604   19.2857 C   0  0  0  0  0  0  0  0  0  0  0  0
    8.1279  -13.9647   18.8671 C   0  0  2  0  0  0  0  0  0  0  0  0
    7.9104  -12.4615   18.7112 C   0  0  0  0  0  0  0  0  0  0  0  0
    7.1361  -14.4578   19.8682 C   0  0  0  0  0  0  0  0  0  0  0  0
    7.5255  -15.8019   20.4353 C   0  0  2  0  0  0  0  0  0  0  0  0
    6.9052  -16.8244   19.6500 N   0  0  0  0  0  0  0  0  0  0  0  0
    7.1164  -15.9462   21.8500 C   0  0  0  0  0  0  0  0  0  0  0  0
    6.0013  -15.4768   22.2486 O   0  0  0  0  0  0  0  0  0  0  0  0
    6.7774  -20.3099   25.3186 N   0  0  0  0  0  0  0  0  0  0  0  0
    7.1739  -19.4700   26.4116 C   0  0  0  0  0  0  0  0  0  0  0  0
    6.8150  -19.8366   27.5526 O   0  0  0  0  0  0  0  0  0  0  0  0
    7.9677  -18.2343   26.1873 C   0  0  0  0  0  0  0  0  0  0  0  0
    8.1643  -18.0822   24.6953 C   0  0  0  0  0  0  0  0  0  0  0  0
    7.5919  -16.7742   24.1911 C   0  0  2  0  0  0  0  0  0  0  0  0
    7.9386  -16.6024   22.7993 N   0  0  0  0  0  0  0  0  0  0  0  0
    8.1289  -15.6157   24.9412 C   0  0  0  0  0  0  0  0  0  0  0  0
    9.3606  -15.3164   24.8630 O   0  0  0  0  0  0  0  0  0  0  0  0
    5.6223  -13.1431   27.3604 C   0  0  0  0  0  0  0  0  0  0  0  0
    6.8247  -12.6278   26.6446 C   0  0  1  0  0  0  0  0  0  0  0  0
    7.4679  -11.4510   27.3776 C   0  0  0  0  0  0  0  0  0  0  0  0
    7.9227  -13.6754   26.5043 C   0  0  2  0  0  0  0  0  0  0  0  0
    7.3485  -14.7830   25.7704 N   0  0  0  0  0  0  0  0  0  0  0  0
    8.4583  -14.0889   27.8159 C   0  0  0  0  0  0  0  0  0  0  0  0
    8.0683  -15.1690   28.3265 O   0  0  0  0  0  0  0  0  0  0  0  0
    9.3835  -13.3421   28.5311 O   0  0  0  0  0  0  0  0  0  0  0  0
  2  1  1  1
  2  3  1  0
  4  2  1  0
  4  5  1  0
  5  7  1  0
  5  6  1  6
  7  8  2  0
  9 10  1  0
 10 12  1  0
 11 10  2  0
 12 13  1  0
 14 13  1  1
 15 14  1  0
 15  7  1  0
 16 17  2  0
 16 14  1  0
 19 18  1  1
 19 21  1  0
 20 19  1  0
 21 23  1  0
 21 22  1  1
 22 16  1  0
 23 25  1  0
 24 23  2  0
M  END
$$$$
