LQV.pdb
     RDKit          3D

 25 24  0  0  1  0  0  0  0  0999 V2000
    9.3803  -14.1417   20.0507 C   0  0  0  0  0  0  0  0  0  0  0  0
    8.1257  -13.9965   19.2446 C   0  0  2  0  0  0  0  0  0  0  0  0
    7.8536  -12.5005   19.1070 C   0  0  0  0  0  0  0  0  0  0  0  0
    6.9263  -14.6113   19.8867 C   0  0  0  0  0  0  0  0  0  0  0  0
    7.2241  -15.9817   20.4461 C   0  0  2  0  0  0  0  0  0  0  0  0
    6.5805  -16.9592   19.6230 N   0  0  0  0  0  0  0  0  0  0  0  0
    6.7567  -16.1239   21.8428 C   0  0  0  0  0  0  0  0  0  0  0  0
    5.5263  -15.9602   22.1296 O   0  0  0  0  0  0  0  0  0  0  0  0
    8.1122  -20.4264   25.6956 N   0  0  0  0  0  0  0  0  0  0  0  0
    7.6032  -19.4843   26.6499 C   0  0  0  0  0  0  0  0  0  0  0  0
    7.4574  -19.9023   27.8200 O   0  0  0  0  0  0  0  0  0  0  0  0
    7.2710  -18.0904   26.2572 C   0  0  0  0  0  0  0  0  0  0  0  0
    7.5252  -17.9615   24.7718 C   0  0  0  0  0  0  0  0  0  0  0  0
    7.2574  -16.5534   24.2836 C   0  0  2  0  0  0  0  0  0  0  0  0
    7.6480  -16.4428   22.8972 N   0  0  0  0  0  0  0  0  0  0  0  0
    8.0263  -15.5503   25.0553 C   0  0  0  0  0  0  0  0  0  0  0  0
    9.2959  -15.5551   25.0268 O   0  0  0  0  0  0  0  0  0  0  0  0
    7.0363  -11.7247   25.5169 C   0  0  0  0  0  0  0  0  0  0  0  0
    7.3908  -12.3669   26.8152 C   0  0  1  0  0  0  0  0  0  0  0  0
    6.1516  -12.7995   27.5983 C   0  0  0  0  0  0  0  0  0  0  0  0
    8.2288  -13.6280   26.6409 C   0  0  2  0  0  0  0  0  0  0  0  0
    7.4361  -14.5477   25.8531 N   0  0  0  0  0  0  0  0  0  0  0  0
    8.6314  -14.2038   27.9388 C   0  0  0  0  0  0  0  0  0  0  0  0
    8.0887  -15.2658   28.3352 O   0  0  0  0  0  0  0  0  0  0  0  0
    9.5909  -13.6315   28.7618 O   0  0  0  0  0  0  0  0  0  0  0  0
  2  1  1  1
  2  3  1  0
  4  2  1  0
  4  5  1  0
  5  7  1  0
  5  6  1  6
  7  8  2  0
  9 10  1  0
 10 12  1  0
 11 10  2  0
 12 13  1  0
 14 13  1  1
 15 14  1  0
 15  7  1  0
 16 17  2  0
 16 14  1  0
 19 18  1  6
 19 21  1  0
 20 19  1  0
 21 23  1  0
 21 22  1  1
 22 16  1  0
 23 25  1  0
 24 23  2  0
M  END
$$$$
