LQV.pdb
     RDKit          3D

 25 24  0  0  1  0  0  0  0  0999 V2000
    9.4605  -13.4441   19.6165 C   0  0  0  0  0  0  0  0  0  0  0  0
    8.0207  -13.4604   19.2022 C   0  0  2  0  0  0  0  0  0  0  0  0
    7.5751  -12.0054   19.0775 C   0  0  0  0  0  0  0  0  0  0  0  0
    7.1194  -14.1201   20.1930 C   0  0  0  0  0  0  0  0  0  0  0  0
    7.5426  -15.5397   20.4850 C   0  0  2  0  0  0  0  0  0  0  0  0
    6.7072  -16.4271   19.7355 N   0  0  0  0  0  0  0  0  0  0  0  0
    7.4427  -15.8627   21.9256 C   0  0  0  0  0  0  0  0  0  0  0  0
    6.3091  -15.8693   22.5066 O   0  0  0  0  0  0  0  0  0  0  0  0
   11.0710  -19.8164   24.8189 N   0  0  0  0  0  0  0  0  0  0  0  0
   10.4071  -19.2462   25.9553 C   0  0  0  0  0  0  0  0  0  0  0  0
   10.6521  -19.7721   27.0637 O   0  0  0  0  0  0  0  0  0  0  0  0
    9.4811  -18.0934   25.8105 C   0  0  0  0  0  0  0  0  0  0  0  0
    9.4301  -17.7301   24.3430 C   0  0  0  0  0  0  0  0  0  0  0  0
    8.5492  -16.5225   24.1011 C   0  0  2  0  0  0  0  0  0  0  0  0
    8.5882  -16.1720   22.7002 N   0  0  0  0  0  0  0  0  0  0  0  0
    9.0050  -15.3472   24.8781 C   0  0  0  0  0  0  0  0  0  0  0  0
   10.1300  -14.8122   24.6309 O   0  0  0  0  0  0  0  0  0  0  0  0
    7.5946  -11.9022   25.4973 C   0  0  0  0  0  0  0  0  0  0  0  0
    7.7683  -12.5935   26.8072 C   0  0  1  0  0  0  0  0  0  0  0  0
    6.4759  -13.2577   27.2808 C   0  0  0  0  0  0  0  0  0  0  0  0
    8.8080  -13.7066   26.7543 C   0  0  2  0  0  0  0  0  0  0  0  0
    8.2578  -14.7492   25.9145 N   0  0  0  0  0  0  0  0  0  0  0  0
    9.1566  -14.1972   28.1019 C   0  0  0  0  0  0  0  0  0  0  0  0
    8.7752  -15.3406   28.4577 O   0  0  0  0  0  0  0  0  0  0  0  0
    9.8938  -13.4572   29.0154 O   0  0  0  0  0  0  0  0  0  0  0  0
  2  1  1  1
  2  3  1  0
  4  2  1  0
  4  5  1  0
  5  7  1  0
  5  6  1  6
  7  8  2  0
  9 10  1  0
 10 12  1  0
 11 10  2  0
 12 13  1  0
 14 13  1  6
 15 14  1  0
 15  7  1  0
 16 17  2  0
 16 14  1  0
 19 18  1  6
 19 21  1  0
 20 19  1  0
 21 23  1  0
 21 22  1  6
 22 16  1  0
 23 25  1  0
 24 23  2  0
M  END
$$$$
