LQV.pdb
     RDKit          3D

 25 24  0  0  1  0  0  0  0  0999 V2000
    8.9653  -12.3728   19.0032 C   0  0  0  0  0  0  0  0  0  0  0  0
    7.8344  -13.2957   18.6656 C   0  0  2  0  0  0  0  0  0  0  0  0
    6.6210  -12.4216   18.3577 C   0  0  0  0  0  0  0  0  0  0  0  0
    7.4537  -14.2106   19.7823 C   0  0  0  0  0  0  0  0  0  0  0  0
    8.6630  -14.7676   20.4944 C   0  0  2  0  0  0  0  0  0  0  0  0
    9.1985  -15.8393   19.7122 N   0  0  0  0  0  0  0  0  0  0  0  0
    8.3302  -15.2604   21.8494 C   0  0  0  0  0  0  0  0  0  0  0  0
    7.3239  -14.7930   22.4751 O   0  0  0  0  0  0  0  0  0  0  0  0
   10.9066  -20.4187   24.1824 N   0  0  0  0  0  0  0  0  0  0  0  0
    9.8543  -20.3668   23.2091 C   0  0  0  0  0  0  0  0  0  0  0  0
    9.6651  -21.4064   22.5393 O   0  0  0  0  0  0  0  0  0  0  0  0
    9.0404  -19.1388   23.0167 C   0  0  0  0  0  0  0  0  0  0  0  0
    9.5463  -18.0982   23.9910 C   0  0  0  0  0  0  0  0  0  0  0  0
    8.8316  -16.7756   23.8103 C   0  0  2  0  0  0  0  0  0  0  0  0
    9.1078  -16.2562   22.4910 N   0  0  0  0  0  0  0  0  0  0  0  0
    9.2816  -15.7699   24.7997 C   0  0  0  0  0  0  0  0  0  0  0  0
   10.4907  -15.3817   24.8149 O   0  0  0  0  0  0  0  0  0  0  0  0
    7.6487  -12.4159   25.6258 C   0  0  0  0  0  0  0  0  0  0  0  0
    7.8842  -13.1591   26.8970 C   0  0  1  0  0  0  0  0  0  0  0  0
    6.6216  -13.8640   27.3915 C   0  0  0  0  0  0  0  0  0  0  0  0
    8.9375  -14.2516   26.7560 C   0  0  2  0  0  0  0  0  0  0  0  0
    8.4389  -15.1839   25.7675 N   0  0  0  0  0  0  0  0  0  0  0  0
    9.2277  -14.9048   28.0472 C   0  0  0  0  0  0  0  0  0  0  0  0
    8.8439  -16.0861   28.2386 O   0  0  0  0  0  0  0  0  0  0  0  0
    9.9116  -14.2805   29.0805 O   0  0  0  0  0  0  0  0  0  0  0  0
  2  1  1  1
  2  3  1  0
  4  2  1  0
  4  5  1  0
  5  7  1  0
  5  6  1  6
  7  8  2  0
  9 10  1  0
 10 12  1  0
 11 10  2  0
 12 13  1  0
 14 13  1  1
 15 14  1  0
 15  7  1  0
 16 17  2  0
 16 14  1  0
 19 18  1  6
 19 21  1  0
 20 19  1  0
 21 23  1  0
 21 22  1  6
 22 16  1  0
 23 25  1  0
 24 23  2  0
M  END
$$$$
