LQV.pdb
     RDKit          3D

 25 24  0  0  1  0  0  0  0  0999 V2000
    9.4044  -12.9421   19.1125 C   0  0  0  0  0  0  0  0  0  0  0  0
    7.9905  -13.3149   18.7860 C   0  0  2  0  0  0  0  0  0  0  0  0
    7.1767  -12.0230   18.7844 C   0  0  0  0  0  0  0  0  0  0  0  0
    7.3673  -14.2339   19.7840 C   0  0  0  0  0  0  0  0  0  0  0  0
    8.3856  -15.1435   20.4284 C   0  0  2  0  0  0  0  0  0  0  0  0
    8.4389  -16.3654   19.6859 N   0  0  0  0  0  0  0  0  0  0  0  0
    8.0534  -15.4352   21.8405 C   0  0  0  0  0  0  0  0  0  0  0  0
    7.0204  -14.9192   22.3785 O   0  0  0  0  0  0  0  0  0  0  0  0
   10.8780  -20.1079   24.4601 N   0  0  0  0  0  0  0  0  0  0  0  0
    9.8168  -20.1726   23.4973 C   0  0  0  0  0  0  0  0  0  0  0  0
    9.7671  -21.2059   22.7936 O   0  0  0  0  0  0  0  0  0  0  0  0
    8.8362  -19.0658   23.3534 C   0  0  0  0  0  0  0  0  0  0  0  0
    9.2339  -17.9744   24.3222 C   0  0  0  0  0  0  0  0  0  0  0  0
    8.5491  -16.6645   23.9935 C   0  0  2  0  0  0  0  0  0  0  0  0
    8.8609  -16.2869   22.6345 N   0  0  0  0  0  0  0  0  0  0  0  0
    8.9999  -15.5716   24.8852 C   0  0  0  0  0  0  0  0  0  0  0  0
   10.1707  -15.0930   24.7716 O   0  0  0  0  0  0  0  0  0  0  0  0
    7.4635  -12.2064   25.4855 C   0  0  0  0  0  0  0  0  0  0  0  0
    7.6503  -12.8644   26.8106 C   0  0  1  0  0  0  0  0  0  0  0  0
    6.3671  -13.5308   27.3059 C   0  0  0  0  0  0  0  0  0  0  0  0
    8.7017  -13.9674   26.7795 C   0  0  2  0  0  0  0  0  0  0  0  0
    8.1988  -14.9954   25.8934 N   0  0  0  0  0  0  0  0  0  0  0  0
    8.9950  -14.4850   28.1301 C   0  0  0  0  0  0  0  0  0  0  0  0
    9.5211  -13.7230   28.9797 O   0  0  0  0  0  0  0  0  0  0  0  0
    8.7192  -15.7866   28.5240 O   0  0  0  0  0  0  0  0  0  0  0  0
  2  1  1  1
  2  3  1  0
  4  2  1  0
  4  5  1  0
  5  7  1  0
  5  6  1  6
  7  8  2  0
  9 10  1  0
 10 12  1  0
 11 10  2  0
 12 13  1  0
 14 13  1  1
 15 14  1  0
 15  7  1  0
 16 17  2  0
 16 14  1  0
 19 18  1  6
 19 21  1  0
 20 19  1  0
 21 23  1  0
 21 22  1  6
 22 16  1  0
 23 25  1  0
 24 23  2  0
M  END
$$$$
