LQV.pdb
     RDKit          3D

 25 24  0  0  1  0  0  0  0  0999 V2000
    7.2619  -12.5988   19.2267 C   0  0  0  0  0  0  0  0  0  0  0  0
    8.0013  -13.7140   19.9008 C   0  0  2  0  0  0  0  0  0  0  0  0
    9.4864  -13.5014   19.6169 C   0  0  0  0  0  0  0  0  0  0  0  0
    7.6385  -15.0689   19.3892 C   0  0  0  0  0  0  0  0  0  0  0  0
    7.8806  -16.1459   20.4194 C   0  0  2  0  0  0  0  0  0  0  0  0
    7.4631  -17.4006   19.8730 N   0  0  0  0  0  0  0  0  0  0  0  0
    7.1475  -15.8843   21.6778 C   0  0  0  0  0  0  0  0  0  0  0  0
    6.1061  -15.1506   21.6753 O   0  0  0  0  0  0  0  0  0  0  0  0
    6.4889  -20.0559   25.8238 N   0  0  0  0  0  0  0  0  0  0  0  0
    7.7883  -19.4533   25.8991 C   0  0  0  0  0  0  0  0  0  0  0  0
    8.6948  -20.1491   26.4084 O   0  0  0  0  0  0  0  0  0  0  0  0
    8.0315  -18.0767   25.3960 C   0  0  0  0  0  0  0  0  0  0  0  0
    6.7142  -17.5387   24.8829 C   0  0  0  0  0  0  0  0  0  0  0  0
    6.8955  -16.2142   24.1718 C   0  0  2  0  0  0  0  0  0  0  0  0
    7.5712  -16.4325   22.9138 N   0  0  0  0  0  0  0  0  0  0  0  0
    7.7114  -15.2708   24.9700 C   0  0  0  0  0  0  0  0  0  0  0  0
    8.9667  -15.1990   24.7914 O   0  0  0  0  0  0  0  0  0  0  0  0
    7.2131  -11.4769   25.6813 C   0  0  0  0  0  0  0  0  0  0  0  0
    7.3098  -12.2485   26.9537 C   0  0  1  0  0  0  0  0  0  0  0  0
    5.9332  -12.5945   27.5206 C   0  0  0  0  0  0  0  0  0  0  0  0
    8.0316  -13.5800   26.7836 C   0  0  2  0  0  0  0  0  0  0  0  0
    7.1833  -14.4092   25.9543 N   0  0  0  0  0  0  0  0  0  0  0  0
    8.3348  -14.2105   28.0831 C   0  0  0  0  0  0  0  0  0  0  0  0
    9.1059  -13.6260   28.8850 O   0  0  0  0  0  0  0  0  0  0  0  0
    7.8092  -15.4323   28.4786 O   0  0  0  0  0  0  0  0  0  0  0  0
  2  1  1  6
  2  3  1  0
  4  2  1  0
  4  5  1  0
  5  7  1  0
  5  6  1  6
  7  8  2  0
  9 10  1  0
 10 12  1  0
 11 10  2  0
 12 13  1  0
 14 13  1  1
 15 14  1  0
 15  7  1  0
 16 17  2  0
 16 14  1  0
 19 18  1  6
 19 21  1  0
 20 19  1  0
 21 23  1  0
 21 22  1  6
 22 16  1  0
 23 25  1  0
 24 23  2  0
M  END
$$$$
