LQV.pdb
     RDKit          3D

 25 24  0  0  1  0  0  0  0  0999 V2000
    9.5611  -12.6961   19.1795 C   0  0  0  0  0  0  0  0  0  0  0  0
    8.2020  -13.3005   19.3597 C   0  0  2  0  0  0  0  0  0  0  0  0
    7.1979  -12.1503   19.3604 C   0  0  0  0  0  0  0  0  0  0  0  0
    8.0394  -14.0360   20.6488 C   0  0  0  0  0  0  0  0  0  0  0  0
    8.9808  -15.2119   20.7517 C   0  0  2  0  0  0  0  0  0  0  0  0
    8.6247  -16.1692   19.7498 N   0  0  0  0  0  0  0  0  0  0  0  0
    8.9289  -15.8484   22.0866 C   0  0  0  0  0  0  0  0  0  0  0  0
    7.9278  -15.6593   22.8512 O   0  0  0  0  0  0  0  0  0  0  0  0
   12.1686  -20.9389   23.5652 N   0  0  0  0  0  0  0  0  0  0  0  0
   11.6832  -20.5684   24.8631 C   0  0  0  0  0  0  0  0  0  0  0  0
   11.9516  -21.3515   25.8011 O   0  0  0  0  0  0  0  0  0  0  0  0
   10.9049  -19.3197   25.0689 C   0  0  0  0  0  0  0  0  0  0  0  0
   10.7718  -18.6378   23.7253 C   0  0  0  0  0  0  0  0  0  0  0  0
    9.9597  -17.3639   23.8281 C   0  0  2  0  0  0  0  0  0  0  0  0
    9.9761  -16.6794   22.5561 N   0  0  0  0  0  0  0  0  0  0  0  0
   10.5112  -16.4433   24.8485 C   0  0  0  0  0  0  0  0  0  0  0  0
   11.6663  -15.9374   24.6983 O   0  0  0  0  0  0  0  0  0  0  0  0
    8.1534  -14.2643   27.2531 C   0  0  0  0  0  0  0  0  0  0  0  0
    9.6168  -13.9894   27.1727 C   0  0  1  0  0  0  0  0  0  0  0  0
   10.1353  -13.2742   28.4199 C   0  0  0  0  0  0  0  0  0  0  0  0
   10.4505  -15.2594   27.0497 C   0  0  2  0  0  0  0  0  0  0  0  0
    9.8270  -16.0676   26.0236 N   0  0  0  0  0  0  0  0  0  0  0  0
   10.5584  -15.9725   28.3373 C   0  0  0  0  0  0  0  0  0  0  0  0
    9.8784  -17.0130   28.5227 O   0  0  0  0  0  0  0  0  0  0  0  0
   11.3811  -15.5545   29.3735 O   0  0  0  0  0  0  0  0  0  0  0  0
  2  1  1  1
  2  3  1  0
  4  2  1  0
  4  5  1  0
  5  7  1  0
  5  6  1  6
  7  8  2  0
  9 10  1  0
 10 12  1  0
 11 10  2  0
 12 13  1  0
 14 13  1  6
 15 14  1  0
 15  7  1  0
 16 17  2  0
 16 14  1  0
 19 18  1  1
 19 21  1  0
 20 19  1  0
 21 23  1  0
 21 22  1  6
 22 16  1  0
 23 25  1  0
 24 23  2  0
M  END
$$$$
