LQV.pdb
     RDKit          3D

 25 24  0  0  1  0  0  0  0  0999 V2000
    9.4493  -13.7541   19.7156 C   0  0  0  0  0  0  0  0  0  0  0  0
    8.2633  -13.8577   18.8060 C   0  0  2  0  0  0  0  0  0  0  0  0
    7.7330  -12.4408   18.6000 C   0  0  0  0  0  0  0  0  0  0  0  0
    7.1470  -14.6749   19.3675 C   0  0  0  0  0  0  0  0  0  0  0  0
    7.6443  -15.9512   20.0025 C   0  0  2  0  0  0  0  0  0  0  0  0
    7.2998  -17.0479   19.1506 N   0  0  0  0  0  0  0  0  0  0  0  0
    7.0626  -16.1651   21.3462 C   0  0  0  0  0  0  0  0  0  0  0  0
    5.8084  -16.3400   21.4841 O   0  0  0  0  0  0  0  0  0  0  0  0
    8.2323  -20.2557   26.0979 N   0  0  0  0  0  0  0  0  0  0  0  0
    7.3661  -19.1226   26.2499 C   0  0  0  0  0  0  0  0  0  0  0  0
    7.2464  -18.6661   27.4086 O   0  0  0  0  0  0  0  0  0  0  0  0
    6.6554  -18.5323   25.0864 C   0  0  0  0  0  0  0  0  0  0  0  0
    7.6985  -17.9295   24.1718 C   0  0  0  0  0  0  0  0  0  0  0  0
    7.3742  -16.4895   23.8342 C   0  0  2  0  0  0  0  0  0  0  0  0
    7.8682  -16.1828   22.5118 N   0  0  0  0  0  0  0  0  0  0  0  0
    8.0058  -15.5477   24.7866 C   0  0  0  0  0  0  0  0  0  0  0  0
    9.2639  -15.3746   24.7782 O   0  0  0  0  0  0  0  0  0  0  0  0
    7.3696  -11.8611   28.0540 C   0  0  0  0  0  0  0  0  0  0  0  0
    6.8417  -12.9393   27.1693 C   0  0  1  0  0  0  0  0  0  0  0  0
    6.0977  -12.3753   25.9593 C   0  0  0  0  0  0  0  0  0  0  0  0
    7.9417  -13.8271   26.5994 C   0  0  2  0  0  0  0  0  0  0  0  0
    7.2913  -14.7958   25.7428 N   0  0  0  0  0  0  0  0  0  0  0  0
    8.7391  -14.4659   27.6643 C   0  0  0  0  0  0  0  0  0  0  0  0
    8.4849  -15.6513   27.9956 O   0  0  0  0  0  0  0  0  0  0  0  0
    9.7712  -13.8235   28.3331 O   0  0  0  0  0  0  0  0  0  0  0  0
  2  1  1  1
  2  3  1  0
  4  2  1  0
  4  5  1  0
  5  7  1  0
  5  6  1  6
  7  8  2  0
  9 10  1  0
 10 12  1  0
 11 10  2  0
 12 13  1  0
 14 13  1  1
 15 14  1  0
 15  7  1  0
 16 17  2  0
 16 14  1  0
 19 18  1  6
 19 21  1  0
 20 19  1  0
 21 23  1  0
 21 22  1  1
 22 16  1  0
 23 25  1  0
 24 23  2  0
M  END
$$$$
