LQV.pdb
     RDKit          3D

 25 24  0  0  1  0  0  0  0  0999 V2000
    9.6357  -13.6756   19.3291 C   0  0  0  0  0  0  0  0  0  0  0  0
    8.2713  -13.7853   18.7200 C   0  0  2  0  0  0  0  0  0  0  0  0
    7.7167  -12.3672   18.6074 C   0  0  0  0  0  0  0  0  0  0  0  0
    7.3094  -14.5768   19.5431 C   0  0  0  0  0  0  0  0  0  0  0  0
    8.0127  -15.5758   20.4303 C   0  0  2  0  0  0  0  0  0  0  0  0
    7.8596  -16.8787   19.8593 N   0  0  0  0  0  0  0  0  0  0  0  0
    7.4719  -15.5711   21.8077 C   0  0  0  0  0  0  0  0  0  0  0  0
    6.5336  -14.7714   22.1280 O   0  0  0  0  0  0  0  0  0  0  0  0
    7.7655  -20.5184   25.4848 N   0  0  0  0  0  0  0  0  0  0  0  0
    6.6280  -20.1995   24.6713 C   0  0  0  0  0  0  0  0  0  0  0  0
    5.8530  -21.1446   24.4045 O   0  0  0  0  0  0  0  0  0  0  0  0
    6.3943  -18.8174   24.1786 C   0  0  0  0  0  0  0  0  0  0  0  0
    7.5586  -17.9667   24.6354 C   0  0  0  0  0  0  0  0  0  0  0  0
    7.4305  -16.5408   24.1423 C   0  0  2  0  0  0  0  0  0  0  0  0
    7.9712  -16.4437   22.8062 N   0  0  0  0  0  0  0  0  0  0  0  0
    8.1737  -15.5938   25.0048 C   0  0  0  0  0  0  0  0  0  0  0  0
    9.4368  -15.4990   24.9133 O   0  0  0  0  0  0  0  0  0  0  0  0
    7.0953  -11.9065   25.7768 C   0  0  0  0  0  0  0  0  0  0  0  0
    7.4519  -12.6271   27.0327 C   0  0  1  0  0  0  0  0  0  0  0  0
    6.2164  -13.1531   27.7626 C   0  0  0  0  0  0  0  0  0  0  0  0
    8.3335  -13.8454   26.7846 C   0  0  2  0  0  0  0  0  0  0  0  0
    7.5648  -14.7532   25.9602 N   0  0  0  0  0  0  0  0  0  0  0  0
    8.7746  -14.4704   28.0467 C   0  0  0  0  0  0  0  0  0  0  0  0
    8.2964  -15.5833   28.3816 O   0  0  0  0  0  0  0  0  0  0  0  0
    9.7027  -13.8915   28.9004 O   0  0  0  0  0  0  0  0  0  0  0  0
  2  1  1  1
  2  3  1  0
  4  2  1  0
  4  5  1  0
  5  7  1  0
  5  6  1  6
  7  8  2  0
  9 10  1  0
 10 12  1  0
 11 10  2  0
 12 13  1  0
 14 13  1  1
 15 14  1  0
 15  7  1  0
 16 17  2  0
 16 14  1  0
 19 18  1  6
 19 21  1  0
 20 19  1  0
 21 23  1  0
 21 22  1  6
 22 16  1  0
 23 25  1  0
 24 23  2  0
M  END
$$$$
