LQV.pdb
     RDKit          3D

 25 24  0  0  1  0  0  0  0  0999 V2000
    9.5806  -13.8745   19.9447 C   0  0  0  0  0  0  0  0  0  0  0  0
    8.3847  -13.8594   19.0422 C   0  0  2  0  0  0  0  0  0  0  0  0
    7.9583  -12.4013   18.8897 C   0  0  0  0  0  0  0  0  0  0  0  0
    7.2150  -14.6122   19.5847 C   0  0  0  0  0  0  0  0  0  0  0  0
    7.6304  -15.9082   20.2386 C   0  0  2  0  0  0  0  0  0  0  0  0
    7.2132  -16.9932   19.4044 N   0  0  0  0  0  0  0  0  0  0  0  0
    7.0399  -16.0633   21.5864 C   0  0  0  0  0  0  0  0  0  0  0  0
    5.7772  -16.0094   21.7459 O   0  0  0  0  0  0  0  0  0  0  0  0
    8.4365  -20.2891   25.4728 N   0  0  0  0  0  0  0  0  0  0  0  0
    7.6007  -19.4968   26.3278 C   0  0  0  0  0  0  0  0  0  0  0  0
    7.2448  -20.0270   27.4036 O   0  0  0  0  0  0  0  0  0  0  0  0
    7.1870  -18.1221   25.9448 C   0  0  0  0  0  0  0  0  0  0  0  0
    7.7141  -17.8579   24.5519 C   0  0  0  0  0  0  0  0  0  0  0  0
    7.3247  -16.4783   24.0641 C   0  0  2  0  0  0  0  0  0  0  0  0
    7.8460  -16.2743   22.7325 N   0  0  0  0  0  0  0  0  0  0  0  0
    7.8722  -15.4140   24.9361 C   0  0  0  0  0  0  0  0  0  0  0  0
    9.1133  -15.1456   24.9182 O   0  0  0  0  0  0  0  0  0  0  0  0
    6.9256  -11.6171   28.0096 C   0  0  0  0  0  0  0  0  0  0  0  0
    6.4904  -12.7552   27.1498 C   0  0  1  0  0  0  0  0  0  0  0  0
    5.7144  -12.2816   25.9212 C   0  0  0  0  0  0  0  0  0  0  0  0
    7.6608  -13.5684   26.6094 C   0  0  2  0  0  0  0  0  0  0  0  0
    7.0922  -14.6420   25.8225 N   0  0  0  0  0  0  0  0  0  0  0  0
    8.5303  -14.0666   27.6928 C   0  0  0  0  0  0  0  0  0  0  0  0
    8.3304  -15.2149   28.1627 O   0  0  0  0  0  0  0  0  0  0  0  0
    9.5740  -13.3287   28.2327 O   0  0  0  0  0  0  0  0  0  0  0  0
  2  1  1  1
  2  3  1  0
  4  2  1  0
  4  5  1  0
  5  7  1  0
  5  6  1  6
  7  8  2  0
  9 10  1  0
 10 12  1  0
 11 10  2  0
 12 13  1  0
 14 13  1  1
 15 14  1  0
 15  7  1  0
 16 17  2  0
 16 14  1  0
 19 18  1  6
 19 21  1  0
 20 19  1  0
 21 23  1  0
 21 22  1  1
 22 16  1  0
 23 25  1  0
 24 23  2  0
M  END
$$$$
