HTH.pdb
     RDKit          3D

 28 29  0  0  1  0  0  0  0  0999 V2000
   18.9608  -12.4112  -17.6634 N   0  0  0  0  0  0  0  0  0  0  0  0
   18.4989  -11.2757  -16.9277 C   0  0  1  0  0  0  0  0  0  0  0  0
   18.2456  -11.6512  -15.4831 C   0  0  0  0  0  0  0  0  0  0  0  0
   17.0976  -12.5776  -15.3778 C   0  0  0  0  0  0  0  0  0  0  0  0
   17.1029  -13.9634  -15.4040 C   0  0  0  0  0  0  0  0  0  0  0  0
   15.8286  -14.3460  -15.2753 N   0  0  0  0  0  0  0  0  0  0  0  0
   15.0361  -13.2654  -15.1708 C   0  0  0  0  0  0  0  0  0  0  0  0
   15.8118  -12.1806  -15.2335 N   0  0  0  0  0  0  0  0  0  0  0  0
   19.4834  -10.1465  -16.9584 C   0  0  0  0  0  0  0  0  0  0  0  0
   20.6935  -10.4053  -16.7325 O   0  0  0  0  0  0  0  0  0  0  0  0
   20.3309   -8.1509  -19.8449 C   0  0  0  0  0  0  0  0  0  0  0  0
   19.9634   -7.1459  -18.7656 C   0  0  1  0  0  0  0  0  0  0  0  0
   18.6510   -6.7510  -18.9582 O   0  0  0  0  0  0  0  0  0  0  0  0
   20.0989   -7.7860  -17.3745 C   0  0  2  0  0  0  0  0  0  0  0  0
   19.0791   -8.8182  -17.2326 N   0  0  0  0  0  0  0  0  0  0  0  0
   20.0309   -6.7999  -16.3000 C   0  0  0  0  0  0  0  0  0  0  0  0
   18.9524   -6.4537  -15.7264 O   0  0  0  0  0  0  0  0  0  0  0  0
   21.2127   -6.1721  -15.8415 N   0  0  0  0  0  0  0  0  0  0  0  0
   21.1623   -5.0760  -14.8610 C   0  0  1  0  0  0  0  0  0  0  0  0
   22.0577   -5.5329  -13.7320 C   0  0  0  0  0  0  0  0  0  0  0  0
   21.4299   -6.5790  -12.8761 C   0  0  0  0  0  0  0  0  0  0  0  0
   20.1688   -7.0712  -13.0125 C   0  0  0  0  0  0  0  0  0  0  0  0
   19.9744   -7.9842  -12.0515 N   0  0  0  0  0  0  0  0  0  0  0  0
   21.0852   -8.0689  -11.3230 C   0  0  0  0  0  0  0  0  0  0  0  0
   21.9865   -7.2088  -11.8218 N   0  0  0  0  0  0  0  0  0  0  0  0
   21.7815   -3.8968  -15.5064 C   0  0  0  0  0  0  0  0  0  0  0  0
   22.3129   -3.9382  -16.6528 O   0  0  0  0  0  0  0  0  0  0  0  0
   21.8188   -2.6517  -14.8851 O   0  0  0  0  0  0  0  0  0  0  0  0
  2  1  1  6
  2  9  1  0
  3  2  1  0
  3  4  1  0
  4  5  2  0
  5  6  1  0
  7  6  1  0
  8  4  1  0
  8  7  2  0
  9 10  2  0
 12 11  1  6
 12 14  1  0
 13 12  1  0
 14 16  1  0
 14 15  1  1
 15  9  1  0
 16 17  2  0
 16 18  1  0
 18 19  1  0
 19 26  1  0
 19 20  1  1
 21 20  1  0
 21 22  2  0
 23 22  1  0
 24 23  1  0
 25 24  2  0
 25 21  1  0
 26 27  2  0
 26 28  1  0
M  END
$$$$
