HTH.pdb
     RDKit          3D

 28 29  0  0  1  0  0  0  0  0999 V2000
   19.4391  -14.2442  -15.7983 N   0  0  0  0  0  0  0  0  0  0  0  0
   18.9820  -12.9725  -16.2647 C   0  0  1  0  0  0  0  0  0  0  0  0
   17.4740  -12.9720  -16.4003 C   0  0  0  0  0  0  0  0  0  0  0  0
   17.0414  -13.9465  -17.4250 C   0  0  0  0  0  0  0  0  0  0  0  0
   17.1557  -13.8560  -18.8034 C   0  0  0  0  0  0  0  0  0  0  0  0
   16.6232  -14.9777  -19.2985 N   0  0  0  0  0  0  0  0  0  0  0  0
   16.1856  -15.7569  -18.2945 C   0  0  0  0  0  0  0  0  0  0  0  0
   16.4409  -15.1268  -17.1455 N   0  0  0  0  0  0  0  0  0  0  0  0
   19.3754  -11.8596  -15.3418 C   0  0  0  0  0  0  0  0  0  0  0  0
   19.2121  -12.0253  -14.1056 O   0  0  0  0  0  0  0  0  0  0  0  0
   22.5946  -10.1851  -14.6894 C   0  0  0  0  0  0  0  0  0  0  0  0
   21.6237   -9.0822  -15.0779 C   0  0  1  0  0  0  0  0  0  0  0  0
   21.8308   -8.7594  -16.4077 O   0  0  0  0  0  0  0  0  0  0  0  0
   20.1743   -9.5606  -14.8944 C   0  0  2  0  0  0  0  0  0  0  0  0
   19.9178  -10.6476  -15.8315 N   0  0  0  0  0  0  0  0  0  0  0  0
   19.2083   -8.4754  -15.0394 C   0  0  0  0  0  0  0  0  0  0  0  0
   18.3307   -8.4288  -15.9557 O   0  0  0  0  0  0  0  0  0  0  0  0
   19.2164   -7.3958  -14.1255 N   0  0  0  0  0  0  0  0  0  0  0  0
   18.3200   -6.2420  -14.3008 C   0  0  1  0  0  0  0  0  0  0  0  0
   16.9567   -6.7532  -13.8941 C   0  0  0  0  0  0  0  0  0  0  0  0
   16.7889   -6.8555  -12.4168 C   0  0  0  0  0  0  0  0  0  0  0  0
   16.9073   -7.9908  -11.6765 C   0  0  0  0  0  0  0  0  0  0  0  0
   16.6758   -7.6758  -10.3952 N   0  0  0  0  0  0  0  0  0  0  0  0
   16.4164   -6.3722  -10.3243 C   0  0  0  0  0  0  0  0  0  0  0  0
   16.4834   -5.8583  -11.5622 N   0  0  0  0  0  0  0  0  0  0  0  0
   18.7493   -5.2155  -13.3249 C   0  0  0  0  0  0  0  0  0  0  0  0
   19.6270   -5.4295  -12.4406 O   0  0  0  0  0  0  0  0  0  0  0  0
   18.2075   -3.9333  -13.3182 O   0  0  0  0  0  0  0  0  0  0  0  0
  2  1  1  1
  2  9  1  0
  3  2  1  0
  3  4  1  0
  4  5  2  0
  5  6  1  0
  7  6  1  0
  8  4  1  0
  8  7  2  0
  9 10  2  0
 12 11  1  6
 12 14  1  0
 13 12  1  0
 14 16  1  0
 14 15  1  6
 15  9  1  0
 16 17  2  0
 16 18  1  0
 18 19  1  0
 19 26  1  0
 19 20  1  1
 21 20  1  0
 21 22  2  0
 23 22  1  0
 24 23  1  0
 25 24  2  0
 25 21  1  0
 26 27  2  0
 26 28  1  0
M  END
$$$$
