HTH.pdb
     RDKit          3D

 28 29  0  0  1  0  0  0  0  0999 V2000
   37.8496  -38.1722   -4.9112 N   0  0  0  0  0  0  0  0  0  0  0  0
   36.7195  -38.0228   -4.0484 C   0  0  1  0  0  0  0  0  0  0  0  0
   36.8400  -38.9494   -2.8571 C   0  0  0  0  0  0  0  0  0  0  0  0
   36.6512  -40.3571   -3.2690 C   0  0  0  0  0  0  0  0  0  0  0  0
   35.4646  -41.0412   -3.4819 C   0  0  0  0  0  0  0  0  0  0  0  0
   35.8065  -42.2830   -3.8395 N   0  0  0  0  0  0  0  0  0  0  0  0
   37.1454  -42.4002   -3.8581 C   0  0  0  0  0  0  0  0  0  0  0  0
   37.6650  -41.2210   -3.5089 N   0  0  0  0  0  0  0  0  0  0  0  0
   36.5776  -36.6188   -3.5445 C   0  0  0  0  0  0  0  0  0  0  0  0
   37.6237  -35.9739   -3.2761 O   0  0  0  0  0  0  0  0  0  0  0  0
   34.0598  -33.8984   -4.9714 C   0  0  0  0  0  0  0  0  0  0  0  0
   33.9708  -33.9860   -3.4567 C   0  0  1  0  0  0  0  0  0  0  0  0
   32.8690  -34.7540   -3.1225 O   0  0  0  0  0  0  0  0  0  0  0  0
   35.2372  -34.6454   -2.8867 C   0  0  2  0  0  0  0  0  0  0  0  0
   35.3076  -36.0192   -3.3695 N   0  0  0  0  0  0  0  0  0  0  0  0
   35.2925  -34.5752   -1.4295 C   0  0  0  0  0  0  0  0  0  0  0  0
   34.9706  -35.5353   -0.6635 O   0  0  0  0  0  0  0  0  0  0  0  0
   35.7259  -33.3874   -0.7954 N   0  0  0  0  0  0  0  0  0  0  0  0
   35.7115  -33.2568    0.6703 C   0  0  1  0  0  0  0  0  0  0  0  0
   36.3567  -31.9167    0.9401 C   0  0  0  0  0  0  0  0  0  0  0  0
   36.3274  -31.5344    2.3802 C   0  0  0  0  0  0  0  0  0  0  0  0
   35.8507  -32.2989    3.3998 C   0  0  0  0  0  0  0  0  0  0  0  0
   35.9888  -31.6050    4.5373 N   0  0  0  0  0  0  0  0  0  0  0  0
   36.5396  -30.4287    4.2465 C   0  0  0  0  0  0  0  0  0  0  0  0
   36.7517  -30.3751    2.9225 N   0  0  0  0  0  0  0  0  0  0  0  0
   34.2907  -33.1871    1.0788 C   0  0  0  0  0  0  0  0  0  0  0  0
   33.8828  -33.5492    2.2193 O   0  0  0  0  0  0  0  0  0  0  0  0
   33.3006  -32.7125    0.2231 O   0  0  0  0  0  0  0  0  0  0  0  0
  2  1  1  6
  2  9  1  0
  3  2  1  0
  3  4  1  0
  4  5  2  0
  5  6  1  0
  7  6  1  0
  8  4  1  0
  8  7  2  0
  9 10  2  0
 12 11  1  6
 12 14  1  0
 13 12  1  0
 14 16  1  0
 14 15  1  1
 15  9  1  0
 16 17  2  0
 16 18  1  0
 18 19  1  0
 19 26  1  0
 19 20  1  6
 21 20  1  0
 21 22  2  0
 23 22  1  0
 24 23  1  0
 25 24  2  0
 25 21  1  0
 26 27  2  0
 26 28  1  0
M  END
$$$$
