HTH.pdb
     RDKit          3D

 28 29  0  0  1  0  0  0  0  0999 V2000
   34.3939  -34.7872  -12.8020 N   0  0  0  0  0  0  0  0  0  0  0  0
   33.2661  -34.2262  -12.1256 C   0  0  1  0  0  0  0  0  0  0  0  0
   31.9995  -34.4763  -12.9165 C   0  0  0  0  0  0  0  0  0  0  0  0
   31.9996  -33.6861  -14.1664 C   0  0  0  0  0  0  0  0  0  0  0  0
   32.7323  -33.9023  -15.3230 C   0  0  0  0  0  0  0  0  0  0  0  0
   32.3921  -32.9263  -16.1707 N   0  0  0  0  0  0  0  0  0  0  0  0
   31.4855  -32.1177  -15.5953 C   0  0  0  0  0  0  0  0  0  0  0  0
   31.2436  -32.5815  -14.3670 N   0  0  0  0  0  0  0  0  0  0  0  0
   33.0895  -34.8011  -10.7533 C   0  0  0  0  0  0  0  0  0  0  0  0
   33.6522  -35.8946  -10.4888 O   0  0  0  0  0  0  0  0  0  0  0  0
   34.6716  -35.2981   -8.6912 C   0  0  0  0  0  0  0  0  0  0  0  0
   33.6434  -34.6351   -7.7894 C   0  0  1  0  0  0  0  0  0  0  0  0
   33.9935  -33.3066   -7.6223 O   0  0  0  0  0  0  0  0  0  0  0  0
   32.2472  -34.7126   -8.4280 C   0  0  2  0  0  0  0  0  0  0  0  0
   32.3134  -34.1441   -9.7689 N   0  0  0  0  0  0  0  0  0  0  0  0
   31.2254  -34.0653   -7.6104 C   0  0  0  0  0  0  0  0  0  0  0  0
   30.9304  -32.8332   -7.6934 O   0  0  0  0  0  0  0  0  0  0  0  0
   30.4982  -34.8200   -6.6603 N   0  0  0  0  0  0  0  0  0  0  0  0
   29.4260  -34.2078   -5.8598 C   0  0  1  0  0  0  0  0  0  0  0  0
   28.1607  -34.8835   -6.3368 C   0  0  0  0  0  0  0  0  0  0  0  0
   27.3509  -34.0279   -7.2496 C   0  0  0  0  0  0  0  0  0  0  0  0
   27.7930  -32.9241   -7.9109 C   0  0  0  0  0  0  0  0  0  0  0  0
   26.7697  -32.4282   -8.6191 N   0  0  0  0  0  0  0  0  0  0  0  0
   25.7042  -33.1985   -8.4120 C   0  0  0  0  0  0  0  0  0  0  0  0
   26.0510  -34.1853   -7.5712 N   0  0  0  0  0  0  0  0  0  0  0  0
   29.6675  -34.5981   -4.4527 C   0  0  0  0  0  0  0  0  0  0  0  0
   30.5257  -35.4627   -4.1148 O   0  0  0  0  0  0  0  0  0  0  0  0
   28.9566  -34.0314   -3.3986 O   0  0  0  0  0  0  0  0  0  0  0  0
  2  1  1  6
  2  9  1  0
  3  2  1  0
  3  4  1  0
  4  5  2  0
  5  6  1  0
  7  6  1  0
  8  4  1  0
  8  7  2  0
  9 10  2  0
 12 11  1  6
 12 14  1  0
 13 12  1  0
 14 16  1  0
 14 15  1  6
 15  9  1  0
 16 17  2  0
 16 18  1  0
 18 19  1  0
 19 26  1  0
 19 20  1  6
 21 20  1  0
 21 22  2  0
 23 22  1  0
 24 23  1  0
 25 24  2  0
 25 21  1  0
 26 27  2  0
 26 28  1  0
M  END
$$$$
