HTH.pdb
     RDKit          3D

 28 29  0  0  1  0  0  0  0  0999 V2000
   31.1189  -24.1712  -15.3033 N   0  0  0  0  0  0  0  0  0  0  0  0
   32.4155  -24.5052  -15.8044 C   0  0  1  0  0  0  0  0  0  0  0  0
   33.1996  -25.2770  -14.7643 C   0  0  0  0  0  0  0  0  0  0  0  0
   34.5398  -25.6330  -15.2785 C   0  0  0  0  0  0  0  0  0  0  0  0
   35.1186  -26.8883  -15.3801 C   0  0  0  0  0  0  0  0  0  0  0  0
   36.3344  -26.6997  -15.9025 N   0  0  0  0  0  0  0  0  0  0  0  0
   36.5357  -25.3900  -16.1287 C   0  0  0  0  0  0  0  0  0  0  0  0
   35.4370  -24.7346  -15.7470 N   0  0  0  0  0  0  0  0  0  0  0  0
   32.3413  -25.3318  -17.0519 C   0  0  0  0  0  0  0  0  0  0  0  0
   31.5127  -26.2775  -17.0912 O   0  0  0  0  0  0  0  0  0  0  0  0
   33.2658  -25.7920  -21.8674 C   0  0  0  0  0  0  0  0  0  0  0  0
   33.6174  -25.1022  -20.5595 C   0  0  1  0  0  0  0  0  0  0  0  0
   33.1010  -23.8183  -20.5846 O   0  0  0  0  0  0  0  0  0  0  0  0
   33.0085  -25.8680  -19.3738 C   0  0  2  0  0  0  0  0  0  0  0  0
   33.1741  -25.0690  -18.1656 N   0  0  0  0  0  0  0  0  0  0  0  0
   33.5755  -27.2053  -19.2260 C   0  0  0  0  0  0  0  0  0  0  0  0
   34.5508  -27.4781  -18.4601 O   0  0  0  0  0  0  0  0  0  0  0  0
   33.0345  -28.2870  -19.9594 N   0  0  0  0  0  0  0  0  0  0  0  0
   33.4691  -29.6705  -19.7097 C   0  0  1  0  0  0  0  0  0  0  0  0
   33.0719  -29.9422  -18.2766 C   0  0  0  0  0  0  0  0  0  0  0  0
   33.3296  -31.3485  -17.8563 C   0  0  0  0  0  0  0  0  0  0  0  0
   33.8740  -32.3262  -18.6302 C   0  0  0  0  0  0  0  0  0  0  0  0
   33.9330  -33.4477  -17.8999 N   0  0  0  0  0  0  0  0  0  0  0  0
   33.4378  -33.1880  -16.6920 C   0  0  0  0  0  0  0  0  0  0  0  0
   33.0638  -31.8997  -16.6548 N   0  0  0  0  0  0  0  0  0  0  0  0
   32.6615  -30.5385  -20.5956 C   0  0  0  0  0  0  0  0  0  0  0  0
   31.5192  -30.2108  -21.0268 O   0  0  0  0  0  0  0  0  0  0  0  0
   33.1135  -31.7862  -21.0159 O   0  0  0  0  0  0  0  0  0  0  0  0
  2  1  1  1
  2  9  1  0
  3  2  1  0
  3  4  1  0
  4  5  2  0
  5  6  1  0
  7  6  1  0
  8  4  1  0
  8  7  2  0
  9 10  2  0
 12 11  1  6
 12 14  1  0
 13 12  1  0
 14 16  1  0
 14 15  1  1
 15  9  1  0
 16 17  2  0
 16 18  1  0
 18 19  1  0
 19 26  1  0
 19 20  1  1
 21 20  1  0
 21 22  2  0
 23 22  1  0
 24 23  1  0
 25 24  2  0
 25 21  1  0
 26 27  2  0
 26 28  1  0
M  END
$$$$
