HTH.pdb
     RDKit          3D

 28 29  0  0  1  0  0  0  0  0999 V2000
   22.6921  -12.7618  -19.1678 N   0  0  0  0  0  0  0  0  0  0  0  0
   22.1164  -11.4533  -19.1866 C   0  0  1  0  0  0  0  0  0  0  0  0
   20.6082  -11.5426  -19.2846 C   0  0  0  0  0  0  0  0  0  0  0  0
   20.2041  -12.1714  -20.5607 C   0  0  0  0  0  0  0  0  0  0  0  0
   20.1886  -11.6139  -21.8296 C   0  0  0  0  0  0  0  0  0  0  0  0
   19.7481  -12.5694  -22.6539 N   0  0  0  0  0  0  0  0  0  0  0  0
   19.4905  -13.6899  -21.9575 C   0  0  0  0  0  0  0  0  0  0  0  0
   19.7693  -13.4481  -20.6744 N   0  0  0  0  0  0  0  0  0  0  0  0
   22.4659  -10.6668  -17.9601 C   0  0  0  0  0  0  0  0  0  0  0  0
   22.4369  -11.2537  -16.8479 O   0  0  0  0  0  0  0  0  0  0  0  0
   25.6900   -9.1798  -17.4182 C   0  0  0  0  0  0  0  0  0  0  0  0
   24.7085   -8.0571  -17.1247 C   0  0  1  0  0  0  0  0  0  0  0  0
   24.6370   -7.2317  -18.2333 O   0  0  0  0  0  0  0  0  0  0  0  0
   23.3133   -8.6329  -16.8333 C   0  0  2  0  0  0  0  0  0  0  0  0
   22.8216   -9.2988  -18.0334 N   0  0  0  0  0  0  0  0  0  0  0  0
   22.3819   -7.6166  -16.3523 C   0  0  0  0  0  0  0  0  0  0  0  0
   21.5239   -7.0397  -17.0892 O   0  0  0  0  0  0  0  0  0  0  0  0
   22.4034   -7.2254  -14.9932 N   0  0  0  0  0  0  0  0  0  0  0  0
   21.5494   -6.1328  -14.5009 C   0  0  1  0  0  0  0  0  0  0  0  0
   21.0799   -6.5986  -13.1416 C   0  0  0  0  0  0  0  0  0  0  0  0
   19.9531   -7.5711  -13.2152 C   0  0  0  0  0  0  0  0  0  0  0  0
   19.3294   -7.9861  -14.3509 C   0  0  0  0  0  0  0  0  0  0  0  0
   18.3664   -8.8498  -14.0026 N   0  0  0  0  0  0  0  0  0  0  0  0
   18.3787   -8.9795  -12.6779 C   0  0  0  0  0  0  0  0  0  0  0  0
   19.3508   -8.1972  -12.1840 N   0  0  0  0  0  0  0  0  0  0  0  0
   22.4261   -4.9543  -14.3189 C   0  0  0  0  0  0  0  0  0  0  0  0
   23.6830   -5.0044  -14.4443 O   0  0  0  0  0  0  0  0  0  0  0  0
   21.9165   -3.7003  -13.9941 O   0  0  0  0  0  0  0  0  0  0  0  0
  2  1  1  1
  2  9  1  0
  3  2  1  0
  3  4  1  0
  4  5  2  0
  5  6  1  0
  7  6  1  0
  8  4  1  0
  8  7  2  0
  9 10  2  0
 12 11  1  6
 12 14  1  0
 13 12  1  0
 14 16  1  0
 14 15  1  6
 15  9  1  0
 16 17  2  0
 16 18  1  0
 18 19  1  0
 19 26  1  0
 19 20  1  1
 21 20  1  0
 21 22  2  0
 23 22  1  0
 24 23  1  0
 25 24  2  0
 25 21  1  0
 26 27  2  0
 26 28  1  0
M  END
$$$$
