HTH.pdb
     RDKit          3D

 28 29  0  0  1  0  0  0  0  0999 V2000
   44.8587  -12.6992   -7.7937 N   0  0  0  0  0  0  0  0  0  0  0  0
   44.2761  -11.8054   -6.8420 C   0  0  1  0  0  0  0  0  0  0  0  0
   45.3124  -10.8229   -6.3389 C   0  0  0  0  0  0  0  0  0  0  0  0
   46.4574  -11.5360   -5.7328 C   0  0  0  0  0  0  0  0  0  0  0  0
   46.7845  -11.6584   -4.3914 C   0  0  0  0  0  0  0  0  0  0  0  0
   47.9012  -12.3916   -4.3430 N   0  0  0  0  0  0  0  0  0  0  0  0
   48.2804  -12.7283   -5.5878 C   0  0  0  0  0  0  0  0  0  0  0  0
   47.3969  -12.2049   -6.4411 N   0  0  0  0  0  0  0  0  0  0  0  0
   43.1321  -11.0318   -7.4232 C   0  0  0  0  0  0  0  0  0  0  0  0
   43.1350  -10.8034   -8.6602 O   0  0  0  0  0  0  0  0  0  0  0  0
   39.5142  -11.7384   -7.5844 C   0  0  0  0  0  0  0  0  0  0  0  0
   39.6555  -10.3918   -6.8940 C   0  0  1  0  0  0  0  0  0  0  0  0
   39.5700  -10.5855   -5.5263 O   0  0  0  0  0  0  0  0  0  0  0  0
   41.0169   -9.7619   -7.2304 C   0  0  2  0  0  0  0  0  0  0  0  0
   42.0683  -10.5632   -6.6158 N   0  0  0  0  0  0  0  0  0  0  0  0
   41.0945   -8.3598   -6.8305 C   0  0  0  0  0  0  0  0  0  0  0  0
   41.2176   -7.9745   -5.6270 O   0  0  0  0  0  0  0  0  0  0  0  0
   41.0345   -7.3414   -7.8104 N   0  0  0  0  0  0  0  0  0  0  0  0
   40.9598   -5.9217   -7.4306 C   0  0  1  0  0  0  0  0  0  0  0  0
   42.3122   -5.3564   -7.8002 C   0  0  0  0  0  0  0  0  0  0  0  0
   42.4539   -3.9125   -7.4595 C   0  0  0  0  0  0  0  0  0  0  0  0
   42.1080   -3.3332   -6.2781 C   0  0  0  0  0  0  0  0  0  0  0  0
   42.3777   -2.0238   -6.3643 N   0  0  0  0  0  0  0  0  0  0  0  0
   42.8823   -1.7783   -7.5713 C   0  0  0  0  0  0  0  0  0  0  0  0
   42.9333   -2.9332   -8.2528 N   0  0  0  0  0  0  0  0  0  0  0  0
   39.9354   -5.3005   -8.2996 C   0  0  0  0  0  0  0  0  0  0  0  0
   39.5582   -5.8102   -9.3933 O   0  0  0  0  0  0  0  0  0  0  0  0
   39.3141   -4.1008   -7.9642 O   0  0  0  0  0  0  0  0  0  0  0  0
  2  1  1  6
  2  9  1  0
  3  2  1  0
  3  4  1  0
  4  5  2  0
  5  6  1  0
  7  6  1  0
  8  4  1  0
  8  7  2  0
  9 10  2  0
 12 11  1  6
 12 14  1  0
 13 12  1  0
 14 16  1  0
 14 15  1  1
 15  9  1  0
 16 17  2  0
 16 18  1  0
 18 19  1  0
 19 26  1  0
 19 20  1  6
 21 20  1  0
 21 22  2  0
 23 22  1  0
 24 23  1  0
 25 24  2  0
 25 21  1  0
 26 27  2  0
 26 28  1  0
M  END
$$$$
