HTH.pdb
     RDKit          3D

 28 29  0  0  1  0  0  0  0  0999 V2000
   21.5718  -13.6569  -17.4145 N   0  0  0  0  0  0  0  0  0  0  0  0
   21.8265  -12.3475  -17.9289 C   0  0  1  0  0  0  0  0  0  0  0  0
   20.6077  -11.8210  -18.6566 C   0  0  0  0  0  0  0  0  0  0  0  0
   20.2809  -12.6784  -19.8163 C   0  0  0  0  0  0  0  0  0  0  0  0
   19.4175  -13.7614  -19.8716 C   0  0  0  0  0  0  0  0  0  0  0  0
   19.4565  -14.2084  -21.1308 N   0  0  0  0  0  0  0  0  0  0  0  0
   20.3012  -13.4554  -21.8563 C   0  0  0  0  0  0  0  0  0  0  0  0
   20.8075  -12.5173  -21.0527 N   0  0  0  0  0  0  0  0  0  0  0  0
   22.1877  -11.3774  -16.8455 C   0  0  0  0  0  0  0  0  0  0  0  0
   21.6125  -11.4870  -15.7322 O   0  0  0  0  0  0  0  0  0  0  0  0
   25.4525  -10.8144  -15.3467 C   0  0  0  0  0  0  0  0  0  0  0  0
   24.9670   -9.4261  -15.7297 C   0  0  1  0  0  0  0  0  0  0  0  0
   25.6018   -9.0429  -16.8983 O   0  0  0  0  0  0  0  0  0  0  0  0
   23.4474   -9.4393  -15.9618 C   0  0  2  0  0  0  0  0  0  0  0  0
   23.1483  -10.3590  -17.0528 N   0  0  0  0  0  0  0  0  0  0  0  0
   22.9116   -8.1042  -16.2107 C   0  0  0  0  0  0  0  0  0  0  0  0
   22.4510   -7.7258  -17.3318 O   0  0  0  0  0  0  0  0  0  0  0  0
   22.8845   -7.1483  -15.1684 N   0  0  0  0  0  0  0  0  0  0  0  0
   22.2274   -5.8438  -15.3474 C   0  0  1  0  0  0  0  0  0  0  0  0
   20.7544   -6.1690  -15.4448 C   0  0  0  0  0  0  0  0  0  0  0  0
   20.2592   -6.2173  -16.8496 C   0  0  0  0  0  0  0  0  0  0  0  0
   20.9930   -5.9535  -17.9644 C   0  0  0  0  0  0  0  0  0  0  0  0
   20.1928   -6.0934  -19.0297 N   0  0  0  0  0  0  0  0  0  0  0  0
   18.9806   -6.4374  -18.6010 C   0  0  0  0  0  0  0  0  0  0  0  0
   19.0106   -6.5163  -17.2617 N   0  0  0  0  0  0  0  0  0  0  0  0
   22.4595   -5.0746  -14.1045 C   0  0  0  0  0  0  0  0  0  0  0  0
   22.7075   -5.6211  -12.9918 O   0  0  0  0  0  0  0  0  0  0  0  0
   22.4191   -3.6834  -14.0808 O   0  0  0  0  0  0  0  0  0  0  0  0
  2  1  1  1
  2  9  1  0
  3  2  1  0
  3  4  1  0
  4  5  2  0
  5  6  1  0
  7  6  1  0
  8  4  1  0
  8  7  2  0
  9 10  2  0
 12 11  1  6
 12 14  1  0
 13 12  1  0
 14 16  1  0
 14 15  1  6
 15  9  1  0
 16 17  2  0
 16 18  1  0
 18 19  1  0
 19 26  1  0
 19 20  1  1
 21 20  1  0
 21 22  2  0
 23 22  1  0
 24 23  1  0
 25 24  2  0
 25 21  1  0
 26 27  2  0
 26 28  1  0
M  END
$$$$
