HTH.pdb
     RDKit          3D

 28 29  0  0  1  0  0  0  0  0999 V2000
   18.1574  -12.4429  -15.9927 N   0  0  0  0  0  0  0  0  0  0  0  0
   18.6016  -11.2237  -16.5928 C   0  0  1  0  0  0  0  0  0  0  0  0
   17.4208  -10.4316  -17.1130 C   0  0  0  0  0  0  0  0  0  0  0  0
   16.7125  -11.1841  -18.1709 C   0  0  0  0  0  0  0  0  0  0  0  0
   17.0961  -11.3892  -19.4869 C   0  0  0  0  0  0  0  0  0  0  0  0
   16.1331  -12.1275  -20.0477 N   0  0  0  0  0  0  0  0  0  0  0  0
   15.1735  -12.3888  -19.1434 C   0  0  0  0  0  0  0  0  0  0  0  0
   15.5266  -11.8115  -17.9926 N   0  0  0  0  0  0  0  0  0  0  0  0
   19.3603  -10.3649  -15.6275 C   0  0  0  0  0  0  0  0  0  0  0  0
   18.9041  -10.2320  -14.4628 O   0  0  0  0  0  0  0  0  0  0  0  0
   22.5102  -10.8638  -14.1382 C   0  0  0  0  0  0  0  0  0  0  0  0
   22.6387   -9.4801  -14.7536 C   0  0  1  0  0  0  0  0  0  0  0  0
   23.3197   -9.5916  -15.9533 O   0  0  0  0  0  0  0  0  0  0  0  0
   21.2465   -8.8838  -15.0170 C   0  0  2  0  0  0  0  0  0  0  0  0
   20.5602   -9.7132  -16.0000 N   0  0  0  0  0  0  0  0  0  0  0  0
   21.3103   -7.4854  -15.4317 C   0  0  0  0  0  0  0  0  0  0  0  0
   21.4123   -7.1113  -16.6407 O   0  0  0  0  0  0  0  0  0  0  0  0
   21.2567   -6.4576  -14.4613 N   0  0  0  0  0  0  0  0  0  0  0  0
   21.3393   -5.0399  -14.8471 C   0  0  1  0  0  0  0  0  0  0  0  0
   19.9907   -4.4652  -14.4779 C   0  0  0  0  0  0  0  0  0  0  0  0
   18.9149   -4.8370  -15.4399 C   0  0  0  0  0  0  0  0  0  0  0  0
   18.8430   -4.4555  -16.7439 C   0  0  0  0  0  0  0  0  0  0  0  0
   17.7288   -4.9826  -17.2687 N   0  0  0  0  0  0  0  0  0  0  0  0
   17.1087   -5.6813  -16.3205 C   0  0  0  0  0  0  0  0  0  0  0  0
   17.8300   -5.5982  -15.1919 N   0  0  0  0  0  0  0  0  0  0  0  0
   22.3685   -4.4212  -13.9821 C   0  0  0  0  0  0  0  0  0  0  0  0
   22.9124   -5.0282  -13.0157 O   0  0  0  0  0  0  0  0  0  0  0  0
   22.8089   -3.1155  -14.1796 O   0  0  0  0  0  0  0  0  0  0  0  0
  2  1  1  1
  2  9  1  0
  3  2  1  0
  3  4  1  0
  4  5  2  0
  5  6  1  0
  7  6  1  0
  8  4  1  0
  8  7  2  0
  9 10  2  0
 12 11  1  6
 12 14  1  0
 13 12  1  0
 14 16  1  0
 14 15  1  6
 15  9  1  0
 16 17  2  0
 16 18  1  0
 18 19  1  0
 19 26  1  0
 19 20  1  1
 21 20  1  0
 21 22  2  0
 23 22  1  0
 24 23  1  0
 25 24  2  0
 25 21  1  0
 26 27  2  0
 26 28  1  0
M  END
$$$$
