HTH.pdb
     RDKit          3D

 28 29  0  0  1  0  0  0  0  0999 V2000
   28.3042  -21.0463   -9.0625 N   0  0  0  0  0  0  0  0  0  0  0  0
   26.9161  -20.7403   -8.9093 C   0  0  1  0  0  0  0  0  0  0  0  0
   26.7362  -19.5630   -7.9744 C   0  0  0  0  0  0  0  0  0  0  0  0
   27.3714  -19.8329   -6.6665 C   0  0  0  0  0  0  0  0  0  0  0  0
   28.7175  -19.7968   -6.3380 C   0  0  0  0  0  0  0  0  0  0  0  0
   28.7959  -20.1125   -5.0415 N   0  0  0  0  0  0  0  0  0  0  0  0
   27.5651  -20.3420   -4.5524 C   0  0  0  0  0  0  0  0  0  0  0  0
   26.6906  -20.1712   -5.5467 N   0  0  0  0  0  0  0  0  0  0  0  0
   26.2644  -20.4107  -10.2176 C   0  0  0  0  0  0  0  0  0  0  0  0
   26.7387  -19.4645  -10.8974 O   0  0  0  0  0  0  0  0  0  0  0  0
   26.0435  -22.3427  -13.1739 C   0  0  0  0  0  0  0  0  0  0  0  0
   24.5989  -21.9436  -12.9215 C   0  0  1  0  0  0  0  0  0  0  0  0
   23.9366  -23.0179  -12.3534 O   0  0  0  0  0  0  0  0  0  0  0  0
   24.5382  -20.7468  -11.9586 C   0  0  2  0  0  0  0  0  0  0  0  0
   25.1441  -21.1347  -10.6906 N   0  0  0  0  0  0  0  0  0  0  0  0
   23.1791  -20.2432  -11.7829 C   0  0  0  0  0  0  0  0  0  0  0  0
   22.5341  -20.3173  -10.6918 O   0  0  0  0  0  0  0  0  0  0  0  0
   22.5077  -19.6291  -12.8660 N   0  0  0  0  0  0  0  0  0  0  0  0
   21.1806  -19.0176  -12.6922 C   0  0  1  0  0  0  0  0  0  0  0  0
   21.0065  -18.1329  -13.9055 C   0  0  0  0  0  0  0  0  0  0  0  0
   19.7382  -17.3507  -13.8800 C   0  0  0  0  0  0  0  0  0  0  0  0
   18.8095  -17.3675  -12.8859 C   0  0  0  0  0  0  0  0  0  0  0  0
   17.8133  -16.5431  -13.2358 N   0  0  0  0  0  0  0  0  0  0  0  0
   18.1028  -16.0161  -14.4233 C   0  0  0  0  0  0  0  0  0  0  0  0
   19.2846  -16.5063  -14.8283 N   0  0  0  0  0  0  0  0  0  0  0  0
   20.1915  -20.1163  -12.7637 C   0  0  0  0  0  0  0  0  0  0  0  0
   20.3668  -21.1574  -13.4592 O   0  0  0  0  0  0  0  0  0  0  0  0
   18.9905  -20.0732  -12.0612 O   0  0  0  0  0  0  0  0  0  0  0  0
  2  1  1  6
  2  9  1  0
  3  2  1  0
  3  4  1  0
  4  5  2  0
  5  6  1  0
  7  6  1  0
  8  4  1  0
  8  7  2  0
  9 10  2  0
 12 11  1  1
 12 14  1  0
 13 12  1  0
 14 16  1  0
 14 15  1  1
 15  9  1  0
 16 17  2  0
 16 18  1  0
 18 19  1  0
 19 26  1  0
 19 20  1  6
 21 20  1  0
 21 22  2  0
 23 22  1  0
 24 23  1  0
 25 24  2  0
 25 21  1  0
 26 27  2  0
 26 28  1  0
M  END
$$$$
