SKD.pdb
     RDKit          3D

 24 23  0  0  1  0  0  0  0  0999 V2000
    8.6835  -15.7675   17.2093 O   0  0  0  0  0  0  0  0  0  0  0  0
    7.4009  -15.2238   17.2966 C   0  0  0  0  0  0  0  0  0  0  0  0
    7.5782  -13.7729   17.7400 C   0  0  2  0  0  0  0  0  0  0  0  0
    8.3889  -13.0341   16.8200 N   0  0  0  0  0  0  0  0  0  0  0  0
    8.1966  -13.7560   19.0818 C   0  0  0  0  0  0  0  0  0  0  0  0
    9.4260  -13.6423   19.2771 O   0  0  0  0  0  0  0  0  0  0  0  0
    7.3761  -13.8738   20.2535 N   0  0  0  0  0  0  0  0  0  0  0  0
    7.9415  -13.8556   21.5869 C   0  0  1  0  0  0  0  0  0  0  0  0
    6.8564  -13.8190   22.6632 C   0  0  0  0  0  0  0  0  0  0  0  0
    7.5442  -13.7232   23.9900 C   0  0  0  0  0  0  0  0  0  0  0  0
    6.5724  -13.6445   25.1453 C   0  0  0  0  0  0  0  0  0  0  0  0
    7.2461  -13.2480   26.4325 C   0  0  0  0  0  0  0  0  0  0  0  0
    6.1937  -13.2107   27.4551 N   0  0  0  0  0  0  0  0  0  0  0  0
    8.6915  -15.1158   21.7969 C   0  0  0  0  0  0  0  0  0  0  0  0
    8.7651  -15.9667   20.8802 O   0  0  0  0  0  0  0  0  0  0  0  0
    9.3594  -15.4274   23.0290 N   0  0  0  0  0  0  0  0  0  0  0  0
   10.2936  -16.5315   23.0896 C   0  0  1  0  0  0  0  0  0  0  0  0
   11.3032  -16.4811   21.9679 C   0  0  0  0  0  0  0  0  0  0  0  0
   12.2905  -17.5701   22.0632 C   0  0  0  0  0  0  0  0  0  0  0  0
   12.2477  -18.3577   23.0301 O   0  0  0  0  0  0  0  0  0  0  0  0
   10.9346  -16.6411   24.4120 C   0  0  0  0  0  0  0  0  0  0  0  0
   10.7944  -15.6757   25.3910 O   0  0  0  0  0  0  0  0  0  0  0  0
   13.2419  -17.6829   21.0657 O   0  0  0  0  0  0  0  0  0  0  0  0
   11.6361  -17.6479   24.6647 O   0  0  0  0  0  0  0  0  0  0  0  0
  1  2  1  0
  3  5  1  0
  3  2  1  0
  3  4  1  6
  5  6  2  0
  7  8  1  0
  7  5  1  0
  8  9  1  1
 10  9  1  0
 11 10  1  0
 12 11  1  0
 12 13  1  0
 14 16  1  0
 14  8  1  0
 15 14  2  0
 17 18  1  6
 17 16  1  0
 18 19  1  0
 19 20  2  0
 21 17  1  0
 21 22  1  0
 23 19  1  0
 24 21  2  0
M  END
$$$$
