SKD.pdb
     RDKit          3D

 24 23  0  0  1  0  0  0  0  0999 V2000
   13.8210  -18.8256   16.7206 O   0  0  0  0  0  0  0  0  0  0  0  0
   12.8596  -19.6178   17.3503 C   0  0  0  0  0  0  0  0  0  0  0  0
   11.6704  -18.7034   17.6381 C   0  0  2  0  0  0  0  0  0  0  0  0
   11.3240  -17.9113   16.4970 N   0  0  0  0  0  0  0  0  0  0  0  0
   12.0084  -17.8247   18.7768 C   0  0  0  0  0  0  0  0  0  0  0  0
   12.5685  -16.7142   18.6531 O   0  0  0  0  0  0  0  0  0  0  0  0
   11.6934  -18.2308   20.1170 N   0  0  0  0  0  0  0  0  0  0  0  0
   12.0041  -17.3978   21.2605 C   0  0  1  0  0  0  0  0  0  0  0  0
   11.2507  -17.8482   22.5123 C   0  0  0  0  0  0  0  0  0  0  0  0
   11.5422  -16.8533   23.5929 C   0  0  0  0  0  0  0  0  0  0  0  0
   10.8380  -17.1796   24.8902 C   0  0  0  0  0  0  0  0  0  0  0  0
   11.1693  -16.1976   25.9829 C   0  0  0  0  0  0  0  0  0  0  0  0
   10.5360  -16.7094   27.2042 N   0  0  0  0  0  0  0  0  0  0  0  0
   13.4456  -17.5423   21.5697 C   0  0  0  0  0  0  0  0  0  0  0  0
   14.0054  -18.6581   21.4629 O   0  0  0  0  0  0  0  0  0  0  0  0
   14.2633  -16.4426   21.9980 N   0  0  0  0  0  0  0  0  0  0  0  0
   15.6949  -16.6108   22.1313 C   0  0  1  0  0  0  0  0  0  0  0  0
   16.4616  -15.5234   21.4175 C   0  0  0  0  0  0  0  0  0  0  0  0
   17.9185  -15.7047   21.5363 C   0  0  0  0  0  0  0  0  0  0  0  0
   18.5418  -15.1104   22.4392 O   0  0  0  0  0  0  0  0  0  0  0  0
   16.1062  -16.7506   23.5394 C   0  0  0  0  0  0  0  0  0  0  0  0
   17.1739  -17.5365   23.9299 O   0  0  0  0  0  0  0  0  0  0  0  0
   18.5525  -16.5375   20.6321 O   0  0  0  0  0  0  0  0  0  0  0  0
   15.4659  -16.1347   24.4227 O   0  0  0  0  0  0  0  0  0  0  0  0
  1  2  1  0
  3  5  1  0
  3  2  1  0
  3  4  1  6
  5  6  2  0
  7  8  1  0
  7  5  1  0
  8  9  1  1
 10  9  1  0
 11 10  1  0
 12 11  1  0
 12 13  1  0
 14 16  1  0
 14  8  1  0
 15 14  2  0
 17 18  1  1
 17 16  1  0
 18 19  1  0
 19 20  2  0
 21 17  1  0
 21 22  1  0
 23 19  1  0
 24 21  2  0
M  END
$$$$
