SKD.pdb
     RDKit          3D

 24 23  0  0  1  0  0  0  0  0999 V2000
   15.5030  -19.4002   15.3866 O   0  0  0  0  0  0  0  0  0  0  0  0
   15.0568  -18.9855   16.6425 C   0  0  0  0  0  0  0  0  0  0  0  0
   13.6054  -18.5459   16.4596 C   0  0  2  0  0  0  0  0  0  0  0  0
   13.4901  -17.4868   15.5032 N   0  0  0  0  0  0  0  0  0  0  0  0
   13.0720  -18.1053   17.7651 C   0  0  0  0  0  0  0  0  0  0  0  0
   13.2681  -16.9684   18.2461 O   0  0  0  0  0  0  0  0  0  0  0  0
   12.2790  -19.0016   18.5577 N   0  0  0  0  0  0  0  0  0  0  0  0
   11.7149  -18.6005   19.8300 C   0  0  1  0  0  0  0  0  0  0  0  0
   10.7502  -19.6515   20.3798 C   0  0  0  0  0  0  0  0  0  0  0  0
   10.1860  -19.1161   21.6594 C   0  0  0  0  0  0  0  0  0  0  0  0
    9.2364  -20.0844   22.3272 C   0  0  0  0  0  0  0  0  0  0  0  0
    8.7032  -19.5537   23.6319 C   0  0  0  0  0  0  0  0  0  0  0  0
    7.6908  -20.5147   24.0858 N   0  0  0  0  0  0  0  0  0  0  0  0
   12.8137  -18.4895   20.8174 C   0  0  0  0  0  0  0  0  0  0  0  0
   13.7222  -19.3517   20.8504 O   0  0  0  0  0  0  0  0  0  0  0  0
   12.8996  -17.4173   21.7683 N   0  0  0  0  0  0  0  0  0  0  0  0
   14.0650  -17.2915   22.6177 C   0  0  1  0  0  0  0  0  0  0  0  0
   15.0527  -16.2848   22.0783 C   0  0  0  0  0  0  0  0  0  0  0  0
   16.2262  -16.1364   22.9561 C   0  0  0  0  0  0  0  0  0  0  0  0
   16.6705  -14.9969   23.2033 O   0  0  0  0  0  0  0  0  0  0  0  0
   13.7005  -17.0191   24.0193 C   0  0  0  0  0  0  0  0  0  0  0  0
   14.4766  -17.4326   25.0855 O   0  0  0  0  0  0  0  0  0  0  0  0
   16.8016  -17.2789   23.4819 O   0  0  0  0  0  0  0  0  0  0  0  0
   12.6457  -16.3875   24.2603 O   0  0  0  0  0  0  0  0  0  0  0  0
  1  2  1  0
  3  5  1  0
  3  2  1  0
  3  4  1  6
  5  6  2  0
  7  8  1  0
  7  5  1  0
  8  9  1  1
 10  9  1  0
 11 10  1  0
 12 11  1  0
 12 13  1  0
 14 16  1  0
 14  8  1  0
 15 14  2  0
 17 18  1  6
 17 16  1  0
 18 19  1  0
 19 20  2  0
 21 17  1  0
 21 22  1  0
 23 19  1  0
 24 21  2  0
M  END
$$$$
