SKD.pdb
     RDKit          3D

 24 23  0  0  1  0  0  0  0  0999 V2000
   10.1916  -20.1937   18.9863 O   0  0  0  0  0  0  0  0  0  0  0  0
    8.9002  -19.6640   18.9930 C   0  0  0  0  0  0  0  0  0  0  0  0
    8.9913  -18.3004   18.3107 C   0  0  2  0  0  0  0  0  0  0  0  0
    9.7830  -18.3570   17.1192 N   0  0  0  0  0  0  0  0  0  0  0  0
    9.5774  -17.3304   19.2587 C   0  0  0  0  0  0  0  0  0  0  0  0
   10.7729  -16.9668   19.2279 O   0  0  0  0  0  0  0  0  0  0  0  0
    8.7635  -16.7490   20.2880 N   0  0  0  0  0  0  0  0  0  0  0  0
    9.3010  -15.8021   21.2432 C   0  0  1  0  0  0  0  0  0  0  0  0
    8.1935  -15.0650   21.9966 C   0  0  0  0  0  0  0  0  0  0  0  0
    8.0105  -13.7342   21.3349 C   0  0  0  0  0  0  0  0  0  0  0  0
    7.3707  -13.8458   19.9698 C   0  0  0  0  0  0  0  0  0  0  0  0
    7.0599  -12.4986   19.3726 C   0  0  0  0  0  0  0  0  0  0  0  0
    6.4766  -12.7573   18.0508 N   0  0  0  0  0  0  0  0  0  0  0  0
   10.0703  -16.5500   22.2647 C   0  0  0  0  0  0  0  0  0  0  0  0
    9.7258  -17.7097   22.5905 O   0  0  0  0  0  0  0  0  0  0  0  0
   11.2239  -16.0049   22.9230 N   0  0  0  0  0  0  0  0  0  0  0  0
   12.0843  -16.8630   23.7097 C   0  0  1  0  0  0  0  0  0  0  0  0
   13.5416  -16.5001   23.5535 C   0  0  0  0  0  0  0  0  0  0  0  0
   14.4179  -17.3747   24.3515 C   0  0  0  0  0  0  0  0  0  0  0  0
   14.9788  -16.9213   25.3698 O   0  0  0  0  0  0  0  0  0  0  0  0
   11.6709  -16.9140   25.1232 C   0  0  0  0  0  0  0  0  0  0  0  0
   10.6184  -16.1684   25.6197 O   0  0  0  0  0  0  0  0  0  0  0  0
   14.5906  -18.6836   23.9394 O   0  0  0  0  0  0  0  0  0  0  0  0
   12.2948  -17.6617   25.9114 O   0  0  0  0  0  0  0  0  0  0  0  0
  1  2  1  0
  3  5  1  0
  3  2  1  0
  3  4  1  6
  5  6  2  0
  7  8  1  0
  7  5  1  0
  8  9  1  1
 10  9  1  0
 11 10  1  0
 12 11  1  0
 12 13  1  0
 14 16  1  0
 14  8  1  0
 15 14  2  0
 17 18  1  1
 17 16  1  0
 18 19  1  0
 19 20  2  0
 21 17  1  0
 21 22  1  0
 23 19  1  0
 24 21  2  0
M  END
$$$$
