SKD.pdb
     RDKit          3D

 24 23  0  0  1  0  0  0  0  0999 V2000
    9.1613  -18.7477   20.6520 O   0  0  0  0  0  0  0  0  0  0  0  0
    9.6986  -18.0068   19.5982 C   0  0  0  0  0  0  0  0  0  0  0  0
    8.9845  -16.6567   19.6136 C   0  0  2  0  0  0  0  0  0  0  0  0
    9.3593  -15.8474   18.4937 N   0  0  0  0  0  0  0  0  0  0  0  0
    9.3137  -15.9569   20.8726 C   0  0  0  0  0  0  0  0  0  0  0  0
   10.4452  -15.4943   21.1333 O   0  0  0  0  0  0  0  0  0  0  0  0
    8.3070  -15.7766   21.8797 N   0  0  0  0  0  0  0  0  0  0  0  0
    8.5681  -15.0357   23.0966 C   0  0  1  0  0  0  0  0  0  0  0  0
    7.2773  -14.5303   23.7416 C   0  0  0  0  0  0  0  0  0  0  0  0
    7.6641  -13.6842   24.9149 C   0  0  0  0  0  0  0  0  0  0  0  0
    6.4671  -13.1152   25.6422 C   0  0  0  0  0  0  0  0  0  0  0  0
    6.8648  -12.1645   26.7405 C   0  0  0  0  0  0  0  0  0  0  0  0
    5.6182  -11.7293   27.3816 N   0  0  0  0  0  0  0  0  0  0  0  0
    9.1919  -15.9514   24.0799 C   0  0  0  0  0  0  0  0  0  0  0  0
    8.6655  -17.0600   24.3325 O   0  0  0  0  0  0  0  0  0  0  0  0
   10.4028  -15.6311   24.7818 N   0  0  0  0  0  0  0  0  0  0  0  0
   10.9870  -16.5889   25.6966 C   0  0  1  0  0  0  0  0  0  0  0  0
   12.4845  -16.4282   25.8044 C   0  0  0  0  0  0  0  0  0  0  0  0
   13.1453  -16.5083   24.4905 C   0  0  0  0  0  0  0  0  0  0  0  0
   14.1607  -15.8180   24.2684 O   0  0  0  0  0  0  0  0  0  0  0  0
   10.3277  -16.5678   27.0143 C   0  0  0  0  0  0  0  0  0  0  0  0
    9.3176  -15.6784   27.3286 O   0  0  0  0  0  0  0  0  0  0  0  0
   12.6108  -17.3560   23.5372 O   0  0  0  0  0  0  0  0  0  0  0  0
   10.6933  -17.3869   27.8890 O   0  0  0  0  0  0  0  0  0  0  0  0
  1  2  1  0
  3  5  1  0
  3  2  1  0
  3  4  1  6
  5  6  2  0
  7  8  1  0
  7  5  1  0
  8  9  1  1
 10  9  1  0
 11 10  1  0
 12 11  1  0
 12 13  1  0
 14 16  1  0
 14  8  1  0
 15 14  2  0
 17 18  1  1
 17 16  1  0
 18 19  1  0
 19 20  2  0
 21 17  1  0
 21 22  1  0
 23 19  1  0
 24 21  2  0
M  END
$$$$
