SKD.pdb
     RDKit          3D

 24 23  0  0  1  0  0  0  0  0999 V2000
   14.3346  -17.2428   18.6983 O   0  0  0  0  0  0  0  0  0  0  0  0
   13.4051  -16.6606   17.8349 C   0  0  0  0  0  0  0  0  0  0  0  0
   13.3313  -15.1832   18.2156 C   0  0  2  0  0  0  0  0  0  0  0  0
   14.6188  -14.5591   18.1654 N   0  0  0  0  0  0  0  0  0  0  0  0
   12.7692  -15.0685   19.5772 C   0  0  0  0  0  0  0  0  0  0  0  0
   13.4569  -14.8288   20.5931 O   0  0  0  0  0  0  0  0  0  0  0  0
   11.3595  -15.2346   19.7898 N   0  0  0  0  0  0  0  0  0  0  0  0
   10.7587  -15.0630   21.0965 C   0  0  1  0  0  0  0  0  0  0  0  0
    9.2318  -15.0437   21.0212 C   0  0  0  0  0  0  0  0  0  0  0  0
    8.8350  -13.8009   20.2860 C   0  0  0  0  0  0  0  0  0  0  0  0
    8.3564  -14.0837   18.8802 C   0  0  0  0  0  0  0  0  0  0  0  0
    7.9933  -12.8256   18.1364 C   0  0  0  0  0  0  0  0  0  0  0  0
    7.6370  -13.2395   16.7739 N   0  0  0  0  0  0  0  0  0  0  0  0
   11.1176  -16.2296   21.9361 C   0  0  0  0  0  0  0  0  0  0  0  0
   11.3490  -17.3412   21.4063 O   0  0  0  0  0  0  0  0  0  0  0  0
   11.2186  -16.1569   23.3664 N   0  0  0  0  0  0  0  0  0  0  0  0
   11.6691  -17.3066   24.1219 C   0  0  1  0  0  0  0  0  0  0  0  0
   12.8777  -16.9891   24.9694 C   0  0  0  0  0  0  0  0  0  0  0  0
   13.3192  -18.1506   25.7603 C   0  0  0  0  0  0  0  0  0  0  0  0
   12.7058  -18.4547   26.8035 O   0  0  0  0  0  0  0  0  0  0  0  0
   10.5801  -17.9121   24.9087 C   0  0  0  0  0  0  0  0  0  0  0  0
    9.3073  -17.3754   24.9568 O   0  0  0  0  0  0  0  0  0  0  0  0
   14.4113  -18.8723   25.3138 O   0  0  0  0  0  0  0  0  0  0  0  0
   10.8113  -18.9555   25.5624 O   0  0  0  0  0  0  0  0  0  0  0  0
  1  2  1  0
  3  5  1  0
  3  2  1  0
  3  4  1  1
  5  6  2  0
  7  8  1  0
  7  5  1  0
  8  9  1  6
 10  9  1  0
 11 10  1  0
 12 11  1  0
 12 13  1  0
 14 16  1  0
 14  8  1  0
 15 14  2  0
 17 18  1  1
 17 16  1  0
 18 19  1  0
 19 20  2  0
 21 17  1  0
 21 22  1  0
 23 19  1  0
 24 21  2  0
M  END
$$$$
