SKD.pdb
     RDKit          3D

 24 23  0  0  1  0  0  0  0  0999 V2000
   10.0315  -17.7884   15.3348 O   0  0  0  0  0  0  0  0  0  0  0  0
    8.8053  -17.1351   15.2011 C   0  0  0  0  0  0  0  0  0  0  0  0
    9.1172  -15.7424   14.6569 C   0  0  2  0  0  0  0  0  0  0  0  0
    9.8325  -15.8065   13.4184 N   0  0  0  0  0  0  0  0  0  0  0  0
    9.9130  -15.0050   15.6599 C   0  0  0  0  0  0  0  0  0  0  0  0
   11.1349  -14.7712   15.5398 O   0  0  0  0  0  0  0  0  0  0  0  0
    9.2869  -14.5121   16.8538 N   0  0  0  0  0  0  0  0  0  0  0  0
   10.0149  -13.7280   17.8301 C   0  0  1  0  0  0  0  0  0  0  0  0
    9.0786  -13.0819   18.8515 C   0  0  0  0  0  0  0  0  0  0  0  0
    8.4537  -14.1856   19.6476 C   0  0  0  0  0  0  0  0  0  0  0  0
    7.4395  -13.6797   20.6480 C   0  0  0  0  0  0  0  0  0  0  0  0
    6.8326  -14.7939   21.4595 C   0  0  0  0  0  0  0  0  0  0  0  0
    5.8623  -14.1651   22.3638 N   0  0  0  0  0  0  0  0  0  0  0  0
   10.9010  -14.6352   18.5957 C   0  0  0  0  0  0  0  0  0  0  0  0
   10.7059  -15.8727   18.5764 O   0  0  0  0  0  0  0  0  0  0  0  0
   12.0048  -14.1629   19.3829 N   0  0  0  0  0  0  0  0  0  0  0  0
   12.9268  -15.1055   19.9803 C   0  0  1  0  0  0  0  0  0  0  0  0
   14.3552  -14.6205   19.9132 C   0  0  0  0  0  0  0  0  0  0  0  0
   15.3015  -15.6107   20.4550 C   0  0  0  0  0  0  0  0  0  0  0  0
   15.5139  -15.6518   21.6839 O   0  0  0  0  0  0  0  0  0  0  0  0
   12.5279  -15.4769   21.3494 C   0  0  0  0  0  0  0  0  0  0  0  0
   11.4566  -14.8926   21.9984 O   0  0  0  0  0  0  0  0  0  0  0  0
   15.9291  -16.4707   19.5721 O   0  0  0  0  0  0  0  0  0  0  0  0
   13.1825  -16.3571   21.9545 O   0  0  0  0  0  0  0  0  0  0  0  0
  1  2  1  0
  3  5  1  0
  3  2  1  0
  3  4  1  6
  5  6  2  0
  7  8  1  0
  7  5  1  0
  8  9  1  1
 10  9  1  0
 11 10  1  0
 12 11  1  0
 12 13  1  0
 14 16  1  0
 14  8  1  0
 15 14  2  0
 17 18  1  1
 17 16  1  0
 18 19  1  0
 19 20  2  0
 21 17  1  0
 21 22  1  0
 23 19  1  0
 24 21  2  0
M  END
$$$$
