SKD.pdb
     RDKit          3D

 24 23  0  0  1  0  0  0  0  0999 V2000
    9.7104  -18.4427   18.0404 O   0  0  0  0  0  0  0  0  0  0  0  0
    8.4158  -18.7848   18.4344 C   0  0  0  0  0  0  0  0  0  0  0  0
    7.7637  -17.4968   18.9333 C   0  0  2  0  0  0  0  0  0  0  0  0
    8.0501  -16.3905   18.0709 N   0  0  0  0  0  0  0  0  0  0  0  0
    8.2535  -17.2112   20.2977 C   0  0  0  0  0  0  0  0  0  0  0  0
    8.9752  -16.2317   20.5843 O   0  0  0  0  0  0  0  0  0  0  0  0
    7.9045  -18.0818   21.3842 N   0  0  0  0  0  0  0  0  0  0  0  0
    8.3362  -17.8200   22.7417 C   0  0  1  0  0  0  0  0  0  0  0  0
    7.7335  -18.8172   23.7315 C   0  0  0  0  0  0  0  0  0  0  0  0
    8.2564  -18.4708   25.0913 C   0  0  0  0  0  0  0  0  0  0  0  0
    7.8711  -19.4891   26.1401 C   0  0  0  0  0  0  0  0  0  0  0  0
    8.3889  -19.1255   27.5068 C   0  0  0  0  0  0  0  0  0  0  0  0
    7.8930  -20.1582   28.4245 N   0  0  0  0  0  0  0  0  0  0  0  0
    9.8047  -18.0026   22.8116 C   0  0  0  0  0  0  0  0  0  0  0  0
   10.3580  -18.9211   22.1635 O   0  0  0  0  0  0  0  0  0  0  0  0
   10.6564  -17.1613   23.6041 N   0  0  0  0  0  0  0  0  0  0  0  0
   12.0920  -17.3437   23.5706 C   0  0  1  0  0  0  0  0  0  0  0  0
   12.7730  -16.3172   22.6973 C   0  0  0  0  0  0  0  0  0  0  0  0
   14.2373  -16.4761   22.6961 C   0  0  0  0  0  0  0  0  0  0  0  0
   14.7337  -17.6134   22.8276 O   0  0  0  0  0  0  0  0  0  0  0  0
   12.6738  -17.3988   24.9233 C   0  0  0  0  0  0  0  0  0  0  0  0
   11.9264  -17.1843   26.0659 O   0  0  0  0  0  0  0  0  0  0  0  0
   15.0204  -15.3458   22.5476 O   0  0  0  0  0  0  0  0  0  0  0  0
   13.8948  -17.6499   25.0490 O   0  0  0  0  0  0  0  0  0  0  0  0
  1  2  1  0
  3  5  1  0
  3  2  1  0
  3  4  1  6
  5  6  2  0
  7  8  1  0
  7  5  1  0
  8  9  1  1
 10  9  1  0
 11 10  1  0
 12 11  1  0
 12 13  1  0
 14 16  1  0
 14  8  1  0
 15 14  2  0
 17 18  1  6
 17 16  1  0
 18 19  1  0
 19 20  2  0
 21 17  1  0
 21 22  1  0
 23 19  1  0
 24 21  2  0
M  END
$$$$
