SKD.pdb
     RDKit          3D

 24 23  0  0  1  0  0  0  0  0999 V2000
    7.8189  -16.6149   16.8589 O   0  0  0  0  0  0  0  0  0  0  0  0
    8.4342  -15.8822   17.8752 C   0  0  0  0  0  0  0  0  0  0  0  0
    8.3076  -16.7198   19.1463 C   0  0  2  0  0  0  0  0  0  0  0  0
    6.9620  -17.1608   19.3572 N   0  0  0  0  0  0  0  0  0  0  0  0
    8.7584  -15.9112   20.2978 C   0  0  0  0  0  0  0  0  0  0  0  0
    9.8904  -15.3870   20.3760 O   0  0  0  0  0  0  0  0  0  0  0  0
    7.8786  -15.6904   21.4102 N   0  0  0  0  0  0  0  0  0  0  0  0
    8.2963  -14.9416   22.5775 C   0  0  1  0  0  0  0  0  0  0  0  0
    7.1069  -14.5412   23.4507 C   0  0  0  0  0  0  0  0  0  0  0  0
    7.6368  -13.7028   24.5727 C   0  0  0  0  0  0  0  0  0  0  0  0
    6.5390  -13.1267   25.4377 C   0  0  0  0  0  0  0  0  0  0  0  0
    7.0726  -12.1896   26.4890 C   0  0  0  0  0  0  0  0  0  0  0  0
    5.9126  -11.7383   27.2672 N   0  0  0  0  0  0  0  0  0  0  0  0
    9.1505  -15.8149   23.4155 C   0  0  0  0  0  0  0  0  0  0  0  0
    8.7774  -16.9764   23.7012 O   0  0  0  0  0  0  0  0  0  0  0  0
   10.4207  -15.3934   23.9353 N   0  0  0  0  0  0  0  0  0  0  0  0
   11.3243  -16.3622   24.5188 C   0  0  1  0  0  0  0  0  0  0  0  0
   12.7639  -16.0815   24.1599 C   0  0  0  0  0  0  0  0  0  0  0  0
   13.6853  -17.0586   24.7650 C   0  0  0  0  0  0  0  0  0  0  0  0
   13.3201  -18.2431   24.9081 O   0  0  0  0  0  0  0  0  0  0  0  0
   11.1280  -16.4951   25.9732 C   0  0  0  0  0  0  0  0  0  0  0  0
   11.4869  -17.6313   26.6734 O   0  0  0  0  0  0  0  0  0  0  0  0
   14.9380  -16.6237   25.1581 O   0  0  0  0  0  0  0  0  0  0  0  0
   10.6156  -15.5429   26.6059 O   0  0  0  0  0  0  0  0  0  0  0  0
  1  2  1  0
  3  5  1  0
  3  2  1  0
  3  4  1  1
  5  6  2  0
  7  8  1  0
  7  5  1  0
  8  9  1  1
 10  9  1  0
 11 10  1  0
 12 11  1  0
 12 13  1  0
 14 16  1  0
 14  8  1  0
 15 14  2  0
 17 18  1  1
 17 16  1  0
 18 19  1  0
 19 20  2  0
 21 17  1  0
 21 22  1  0
 23 19  1  0
 24 21  2  0
M  END
$$$$
