VGF.pdb
     RDKit          3D

 23 23  0  0  1  0  0  0  0  0999 V2000
   25.1310  -21.0574  -15.4083 C   0  0  0  0  0  0  0  0  0  0  0  0
   26.0951  -20.3697  -16.3628 C   0  0  2  0  0  0  0  0  0  0  0  0
   26.1296  -21.0152  -17.7064 C   0  0  0  0  0  0  0  0  0  0  0  0
   27.4496  -20.2848  -15.7010 C   0  0  2  0  0  0  0  0  0  0  0  0
   28.0440  -21.5787  -15.6641 N   0  0  0  0  0  0  0  0  0  0  0  0
   27.4197  -19.6702  -14.3836 C   0  0  0  0  0  0  0  0  0  0  0  0
   27.0162  -18.5102  -14.1178 O   0  0  0  0  0  0  0  0  0  0  0  0
   27.8921  -20.4400  -13.2513 N   0  0  0  0  0  0  0  0  0  0  0  0
   27.9475  -19.8633  -11.9511 C   0  0  0  0  0  0  0  0  0  0  0  0
   27.1263  -20.5464  -10.9415 C   0  0  0  0  0  0  0  0  0  0  0  0
   26.8327  -21.7983  -11.1262 O   0  0  0  0  0  0  0  0  0  0  0  0
   26.6241  -19.9400   -9.7695 N   0  0  0  0  0  0  0  0  0  0  0  0
   25.8396  -20.7134   -8.7938 C   0  0  1  0  0  0  0  0  0  0  0  0
   25.9015  -19.9211   -7.5121 C   0  0  0  0  0  0  0  0  0  0  0  0
   27.1644  -20.0810   -6.7692 C   0  0  0  0  0  0  0  0  0  0  0  0
   27.6762  -19.0321   -6.0484 C   0  0  0  0  0  0  0  0  0  0  0  0
   28.8519  -19.1590   -5.3449 C   0  0  0  0  0  0  0  0  0  0  0  0
   29.5143  -20.3630   -5.3737 C   0  0  0  0  0  0  0  0  0  0  0  0
   29.0066  -21.4151   -6.0931 C   0  0  0  0  0  0  0  0  0  0  0  0
   27.8335  -21.2782   -6.7911 C   0  0  0  0  0  0  0  0  0  0  0  0
   24.4600  -20.8858   -9.3059 C   0  0  0  0  0  0  0  0  0  0  0  0
   24.0505  -20.1664  -10.2412 O   0  0  0  0  0  0  0  0  0  0  0  0
   23.6061  -21.8318   -8.7703 O   0  0  0  0  0  0  0  0  0  0  0  0
  2  1  1  1
  2  3  1  0
  4  6  1  0
  4  2  1  0
  4  5  1  1
  6  8  1  0
  7  6  2  0
  8  9  1  0
  9 10  1  0
 10 11  2  0
 10 12  1  0
 12 13  1  0
 13 21  1  0
 13 14  1  1
 15 14  1  0
 15 16  2  0
 17 16  1  0
 18 17  2  0
 19 20  2  0
 19 18  1  0
 20 15  1  0
 21 22  2  0
 21 23  1  0
M  END
$$$$
