VGF.pdb
     RDKit          3D

 23 23  0  0  1  0  0  0  0  0999 V2000
   25.5859  -19.2287  -18.4610 C   0  0  0  0  0  0  0  0  0  0  0  0
   26.1586  -17.8930  -18.9097 C   0  0  2  0  0  0  0  0  0  0  0  0
   26.7225  -17.9454  -20.2890 C   0  0  0  0  0  0  0  0  0  0  0  0
   27.1489  -17.4207  -17.8723 C   0  0  2  0  0  0  0  0  0  0  0  0
   28.3556  -18.1683  -17.9901 N   0  0  0  0  0  0  0  0  0  0  0  0
   26.6311  -17.4481  -16.5138 C   0  0  0  0  0  0  0  0  0  0  0  0
   25.5651  -16.9136  -16.1180 O   0  0  0  0  0  0  0  0  0  0  0  0
   27.3910  -18.1483  -15.4989 N   0  0  0  0  0  0  0  0  0  0  0  0
   26.9602  -18.1554  -14.1423 C   0  0  0  0  0  0  0  0  0  0  0  0
   26.1231  -19.3049  -13.7704 C   0  0  0  0  0  0  0  0  0  0  0  0
   25.4179  -19.8824  -14.6960 O   0  0  0  0  0  0  0  0  0  0  0  0
   26.0239  -19.8387  -12.4670 N   0  0  0  0  0  0  0  0  0  0  0  0
   25.2763  -21.0804  -12.2127 C   0  0  1  0  0  0  0  0  0  0  0  0
   26.0622  -21.8111  -11.1531 C   0  0  0  0  0  0  0  0  0  0  0  0
   26.1465  -21.0939   -9.8683 C   0  0  0  0  0  0  0  0  0  0  0  0
   26.9223  -19.9680   -9.7583 C   0  0  0  0  0  0  0  0  0  0  0  0
   27.0139  -19.2805   -8.5699 C   0  0  0  0  0  0  0  0  0  0  0  0
   26.3106  -19.7410   -7.4826 C   0  0  0  0  0  0  0  0  0  0  0  0
   25.5332  -20.8665   -7.5873 C   0  0  0  0  0  0  0  0  0  0  0  0
   25.4486  -21.5447   -8.7768 C   0  0  0  0  0  0  0  0  0  0  0  0
   23.8990  -20.7402  -11.7854 C   0  0  0  0  0  0  0  0  0  0  0  0
   23.6394  -19.5843  -11.3898 O   0  0  0  0  0  0  0  0  0  0  0  0
   22.8839  -21.6781  -11.8140 O   0  0  0  0  0  0  0  0  0  0  0  0
  2  1  1  1
  2  3  1  0
  4  6  1  0
  4  2  1  0
  4  5  1  1
  6  8  1  0
  7  6  2  0
  8  9  1  0
  9 10  1  0
 10 11  2  0
 10 12  1  0
 12 13  1  0
 13 21  1  0
 13 14  1  1
 15 14  1  0
 15 16  2  0
 17 16  1  0
 18 17  2  0
 19 20  2  0
 19 18  1  0
 20 15  1  0
 21 22  2  0
 21 23  1  0
M  END
$$$$
