VGF.pdb
     RDKit          3D

 23 23  0  0  1  0  0  0  0  0999 V2000
   20.3116  -14.5716  -20.0159 C   0  0  0  0  0  0  0  0  0  0  0  0
   20.9440  -15.3135  -18.8484 C   0  0  2  0  0  0  0  0  0  0  0  0
   20.5701  -16.7565  -18.8162 C   0  0  0  0  0  0  0  0  0  0  0  0
   20.6116  -14.5770  -17.5729 C   0  0  2  0  0  0  0  0  0  0  0  0
   19.2339  -14.7610  -17.2615 N   0  0  0  0  0  0  0  0  0  0  0  0
   20.9723  -13.1687  -17.5993 C   0  0  0  0  0  0  0  0  0  0  0  0
   22.1400  -12.7045  -17.6055 O   0  0  0  0  0  0  0  0  0  0  0  0
   19.9105  -12.1839  -17.6210 N   0  0  0  0  0  0  0  0  0  0  0  0
   20.2062  -10.7970  -17.7443 C   0  0  0  0  0  0  0  0  0  0  0  0
   20.4684  -10.1101  -16.4715 C   0  0  0  0  0  0  0  0  0  0  0  0
   19.5991  -10.2289  -15.5135 O   0  0  0  0  0  0  0  0  0  0  0  0
   21.6075   -9.3197  -16.2045 N   0  0  0  0  0  0  0  0  0  0  0  0
   21.7805   -8.6574  -14.9018 C   0  0  1  0  0  0  0  0  0  0  0  0
   22.7168   -9.5461  -14.1221 C   0  0  0  0  0  0  0  0  0  0  0  0
   24.0316   -9.7374  -14.7602 C   0  0  0  0  0  0  0  0  0  0  0  0
   24.6886  -10.9352  -14.6366 C   0  0  0  0  0  0  0  0  0  0  0  0
   25.9154  -11.1377  -15.2260 C   0  0  0  0  0  0  0  0  0  0  0  0
   26.4804  -10.1136  -15.9479 C   0  0  0  0  0  0  0  0  0  0  0  0
   25.8274   -8.9138  -16.0745 C   0  0  0  0  0  0  0  0  0  0  0  0
   24.6044   -8.7221  -15.4830 C   0  0  0  0  0  0  0  0  0  0  0  0
   22.3166   -7.2931  -15.1171 C   0  0  0  0  0  0  0  0  0  0  0  0
   22.6514   -6.9315  -16.2647 O   0  0  0  0  0  0  0  0  0  0  0  0
   22.4569   -6.4011  -14.0703 O   0  0  0  0  0  0  0  0  0  0  0  0
  2  1  1  6
  2  3  1  0
  4  6  1  0
  4  2  1  0
  4  5  1  6
  6  8  1  0
  7  6  2  0
  8  9  1  0
  9 10  1  0
 10 11  2  0
 10 12  1  0
 12 13  1  0
 13 21  1  0
 13 14  1  1
 15 14  1  0
 15 16  2  0
 17 16  1  0
 18 17  2  0
 19 20  2  0
 19 18  1  0
 20 15  1  0
 21 22  2  0
 21 23  1  0
M  END
$$$$
