VGF.pdb
     RDKit          3D

 23 23  0  0  1  0  0  0  0  0999 V2000
   22.4469  -20.4835  -15.2102 C   0  0  0  0  0  0  0  0  0  0  0  0
   22.8892  -19.9752  -13.8466 C   0  0  2  0  0  0  0  0  0  0  0  0
   24.2931  -19.4729  -13.8498 C   0  0  0  0  0  0  0  0  0  0  0  0
   22.6400  -21.0585  -12.8247 C   0  0  2  0  0  0  0  0  0  0  0  0
   21.3035  -21.5346  -12.9510 N   0  0  0  0  0  0  0  0  0  0  0  0
   22.9394  -20.6556  -11.4600 C   0  0  0  0  0  0  0  0  0  0  0  0
   22.3466  -19.7612  -10.8062 O   0  0  0  0  0  0  0  0  0  0  0  0
   24.0152  -21.3283  -10.7614 N   0  0  0  0  0  0  0  0  0  0  0  0
   24.5555  -20.7856   -9.5616 C   0  0  0  0  0  0  0  0  0  0  0  0
   25.9584  -20.3580   -9.6589 C   0  0  0  0  0  0  0  0  0  0  0  0
   26.3718  -19.8408  -10.7765 O   0  0  0  0  0  0  0  0  0  0  0  0
   26.9059  -20.4669   -8.6177 N   0  0  0  0  0  0  0  0  0  0  0  0
   28.2988  -20.0346   -8.8140 C   0  0  1  0  0  0  0  0  0  0  0  0
   28.5433  -18.9820   -7.7620 C   0  0  0  0  0  0  0  0  0  0  0  0
   28.4806  -19.4902   -6.3799 C   0  0  0  0  0  0  0  0  0  0  0  0
   29.6159  -19.9531   -5.7648 C   0  0  0  0  0  0  0  0  0  0  0  0
   29.5820  -20.4295   -4.4743 C   0  0  0  0  0  0  0  0  0  0  0  0
   28.3832  -20.4357   -3.8020 C   0  0  0  0  0  0  0  0  0  0  0  0
   27.2449  -19.9737   -4.4127 C   0  0  0  0  0  0  0  0  0  0  0  0
   27.2895  -19.5008   -5.6998 C   0  0  0  0  0  0  0  0  0  0  0  0
   29.1950  -21.2073   -8.6838 C   0  0  0  0  0  0  0  0  0  0  0  0
   28.7627  -22.2665   -8.1828 O   0  0  0  0  0  0  0  0  0  0  0  0
   30.5101  -21.1588   -9.1070 O   0  0  0  0  0  0  0  0  0  0  0  0
  2  1  1  6
  2  3  1  0
  4  6  1  0
  4  2  1  0
  4  5  1  1
  6  8  1  0
  7  6  2  0
  8  9  1  0
  9 10  1  0
 10 11  2  0
 10 12  1  0
 12 13  1  0
 13 21  1  0
 13 14  1  1
 15 14  1  0
 15 16  2  0
 17 16  1  0
 18 17  2  0
 19 20  2  0
 19 18  1  0
 20 15  1  0
 21 22  2  0
 21 23  1  0
M  END
$$$$
