VGF.pdb
     RDKit          3D

 23 23  0  0  1  0  0  0  0  0999 V2000
   26.7305  -15.2197  -16.7253 C   0  0  0  0  0  0  0  0  0  0  0  0
   26.6290  -16.2623  -17.8280 C   0  0  2  0  0  0  0  0  0  0  0  0
   25.8596  -15.7749  -19.0086 C   0  0  0  0  0  0  0  0  0  0  0  0
   26.0787  -17.5376  -17.2359 C   0  0  2  0  0  0  0  0  0  0  0  0
   24.6969  -17.3664  -16.9358 N   0  0  0  0  0  0  0  0  0  0  0  0
   26.8232  -18.0159  -16.0821 C   0  0  0  0  0  0  0  0  0  0  0  0
   27.9114  -18.6435  -16.1125 O   0  0  0  0  0  0  0  0  0  0  0  0
   26.2877  -17.7616  -14.7605 N   0  0  0  0  0  0  0  0  0  0  0  0
   27.0206  -18.1251  -13.5958 C   0  0  0  0  0  0  0  0  0  0  0  0
   26.7883  -19.4993  -13.1288 C   0  0  0  0  0  0  0  0  0  0  0  0
   26.7971  -20.4600  -14.0031 O   0  0  0  0  0  0  0  0  0  0  0  0
   26.5529  -19.8625  -11.7848 N   0  0  0  0  0  0  0  0  0  0  0  0
   26.3508  -21.2699  -11.4056 C   0  0  1  0  0  0  0  0  0  0  0  0
   27.4963  -21.6047  -10.4836 C   0  0  0  0  0  0  0  0  0  0  0  0
   27.5175  -20.8112   -9.2417 C   0  0  0  0  0  0  0  0  0  0  0  0
   28.5582  -20.9438   -8.3580 C   0  0  0  0  0  0  0  0  0  0  0  0
   28.6007  -20.2114   -7.1939 C   0  0  0  0  0  0  0  0  0  0  0  0
   27.5761  -19.3357   -6.9248 C   0  0  0  0  0  0  0  0  0  0  0  0
   26.5330  -19.1993   -7.8053 C   0  0  0  0  0  0  0  0  0  0  0  0
   26.5001  -19.9342   -8.9633 C   0  0  0  0  0  0  0  0  0  0  0  0
   25.0240  -21.4146  -10.7622 C   0  0  0  0  0  0  0  0  0  0  0  0
   24.6071  -22.5490  -10.4472 O   0  0  0  0  0  0  0  0  0  0  0  0
   24.2279  -20.3156  -10.4986 O   0  0  0  0  0  0  0  0  0  0  0  0
  2  1  1  1
  2  3  1  0
  4  6  1  0
  4  2  1  0
  4  5  1  1
  6  8  1  0
  7  6  2  0
  8  9  1  0
  9 10  1  0
 10 11  2  0
 10 12  1  0
 12 13  1  0
 13 21  1  0
 13 14  1  1
 15 14  1  0
 15 16  2  0
 17 16  1  0
 18 17  2  0
 19 20  2  0
 19 18  1  0
 20 15  1  0
 21 22  2  0
 21 23  1  0
M  END
$$$$
