VGF.pdb
     RDKit          3D

 23 23  0  0  1  0  0  0  0  0999 V2000
   20.8306  -12.8088  -17.0697 C   0  0  0  0  0  0  0  0  0  0  0  0
   20.2172  -11.6732  -17.8745 C   0  0  2  0  0  0  0  0  0  0  0  0
   21.1449  -10.5168  -18.0332 C   0  0  0  0  0  0  0  0  0  0  0  0
   18.8932  -11.3014  -17.2511 C   0  0  2  0  0  0  0  0  0  0  0  0
   17.9094  -11.1587  -18.2711 N   0  0  0  0  0  0  0  0  0  0  0  0
   18.9575  -10.1249  -16.3991 C   0  0  0  0  0  0  0  0  0  0  0  0
   19.1466  -10.1210  -15.1568 O   0  0  0  0  0  0  0  0  0  0  0  0
   18.7921   -8.8211  -17.0079 N   0  0  0  0  0  0  0  0  0  0  0  0
   18.8354   -7.6380  -16.2179 C   0  0  0  0  0  0  0  0  0  0  0  0
   20.1193   -7.3967  -15.5443 C   0  0  0  0  0  0  0  0  0  0  0  0
   21.0846   -8.2462  -15.7290 O   0  0  0  0  0  0  0  0  0  0  0  0
   20.3900   -6.2979  -14.6999 N   0  0  0  0  0  0  0  0  0  0  0  0
   21.7258   -6.1052  -14.1135 C   0  0  1  0  0  0  0  0  0  0  0  0
   22.6610   -5.9582  -15.2875 C   0  0  0  0  0  0  0  0  0  0  0  0
   22.4297   -4.7433  -16.0892 C   0  0  0  0  0  0  0  0  0  0  0  0
   22.8774   -3.5269  -15.6400 C   0  0  0  0  0  0  0  0  0  0  0  0
   22.6755   -2.3798  -16.3728 C   0  0  0  0  0  0  0  0  0  0  0  0
   22.0125   -2.4691  -17.5735 C   0  0  0  0  0  0  0  0  0  0  0  0
   21.5628   -3.6832  -18.0271 C   0  0  0  0  0  0  0  0  0  0  0  0
   21.7692   -4.8210  -17.2889 C   0  0  0  0  0  0  0  0  0  0  0  0
   21.7036   -4.9132  -13.2338 C   0  0  0  0  0  0  0  0  0  0  0  0
   20.6725   -4.2119  -13.1643 O   0  0  0  0  0  0  0  0  0  0  0  0
   22.8055   -4.5540  -12.4801 O   0  0  0  0  0  0  0  0  0  0  0  0
  2  1  1  1
  2  3  1  0
  4  6  1  0
  4  2  1  0
  4  5  1  6
  6  8  1  0
  7  6  2  0
  8  9  1  0
  9 10  1  0
 10 11  2  0
 10 12  1  0
 12 13  1  0
 13 21  1  0
 13 14  1  6
 15 14  1  0
 15 16  2  0
 17 16  1  0
 18 17  2  0
 19 20  2  0
 19 18  1  0
 20 15  1  0
 21 22  2  0
 21 23  1  0
M  END
$$$$
