VGF.pdb
     RDKit          3D

 23 23  0  0  1  0  0  0  0  0999 V2000
   25.6380  -37.9377   -9.8449 C   0  0  0  0  0  0  0  0  0  0  0  0
   27.0146  -38.4533   -9.4543 C   0  0  2  0  0  0  0  0  0  0  0  0
   27.0441  -39.9339   -9.2807 C   0  0  0  0  0  0  0  0  0  0  0  0
   27.4852  -37.6951   -8.2363 C   0  0  2  0  0  0  0  0  0  0  0  0
   27.4555  -36.2965   -8.5045 N   0  0  0  0  0  0  0  0  0  0  0  0
   28.7876  -38.1205   -7.7493 C   0  0  0  0  0  0  0  0  0  0  0  0
   29.1183  -39.2960   -7.4529 O   0  0  0  0  0  0  0  0  0  0  0  0
   29.8217  -37.1208   -7.5789 N   0  0  0  0  0  0  0  0  0  0  0  0
   31.0681  -37.4576   -6.9798 C   0  0  0  0  0  0  0  0  0  0  0  0
   31.3505  -36.7597   -5.7174 C   0  0  0  0  0  0  0  0  0  0  0  0
   32.5186  -36.9167   -5.1711 O   0  0  0  0  0  0  0  0  0  0  0  0
   30.4385  -35.9197   -5.0419 N   0  0  0  0  0  0  0  0  0  0  0  0
   30.8107  -35.2570   -3.7818 C   0  0  1  0  0  0  0  0  0  0  0  0
   30.6790  -33.7793   -4.0525 C   0  0  0  0  0  0  0  0  0  0  0  0
   31.5559  -33.2870   -5.1301 C   0  0  0  0  0  0  0  0  0  0  0  0
   32.9175  -33.2867   -4.9630 C   0  0  0  0  0  0  0  0  0  0  0  0
   33.7559  -32.8347   -5.9562 C   0  0  0  0  0  0  0  0  0  0  0  0
   33.2060  -32.3786   -7.1303 C   0  0  0  0  0  0  0  0  0  0  0  0
   31.8449  -32.3769   -7.3023 C   0  0  0  0  0  0  0  0  0  0  0  0
   31.0177  -32.8297   -6.3059 C   0  0  0  0  0  0  0  0  0  0  0  0
   29.9174  -35.7327   -2.6997 C   0  0  0  0  0  0  0  0  0  0  0  0
   29.9876  -35.2165   -1.5646 O   0  0  0  0  0  0  0  0  0  0  0  0
   28.9989  -36.7429   -2.9163 O   0  0  0  0  0  0  0  0  0  0  0  0
  2  1  1  1
  2  3  1  0
  4  6  1  0
  4  2  1  0
  4  5  1  6
  6  8  1  0
  7  6  2  0
  8  9  1  0
  9 10  1  0
 10 11  2  0
 10 12  1  0
 12 13  1  0
 13 21  1  0
 13 14  1  6
 15 14  1  0
 15 16  2  0
 17 16  1  0
 18 17  2  0
 19 20  2  0
 19 18  1  0
 20 15  1  0
 21 22  2  0
 21 23  1  0
M  END
$$$$
