VGF.pdb
     RDKit          3D

 23 23  0  0  1  0  0  0  0  0999 V2000
   24.4421  -20.5079  -15.8965 C   0  0  0  0  0  0  0  0  0  0  0  0
   24.7451  -19.1523  -16.5163 C   0  0  2  0  0  0  0  0  0  0  0  0
   24.4378  -19.1072  -17.9746 C   0  0  0  0  0  0  0  0  0  0  0  0
   26.1721  -18.7818  -16.1902 C   0  0  2  0  0  0  0  0  0  0  0  0
   27.0613  -19.6110  -16.9323 N   0  0  0  0  0  0  0  0  0  0  0  0
   26.4735  -18.8095  -14.7680 C   0  0  0  0  0  0  0  0  0  0  0  0
   25.8646  -18.1748  -13.8707 O   0  0  0  0  0  0  0  0  0  0  0  0
   27.5717  -19.6356  -14.3106 N   0  0  0  0  0  0  0  0  0  0  0  0
   27.9663  -19.6301  -12.9430 C   0  0  0  0  0  0  0  0  0  0  0  0
   27.1122  -20.4315  -12.0548 C   0  0  0  0  0  0  0  0  0  0  0  0
   27.0623  -21.7167  -12.2380 O   0  0  0  0  0  0  0  0  0  0  0  0
   26.3304  -19.9066  -11.0028 N   0  0  0  0  0  0  0  0  0  0  0  0
   25.5183  -20.7894  -10.1503 C   0  0  1  0  0  0  0  0  0  0  0  0
   25.5234  -20.1448   -8.7869 C   0  0  0  0  0  0  0  0  0  0  0  0
   26.8308  -20.1898   -8.1078 C   0  0  0  0  0  0  0  0  0  0  0  0
   27.2550  -19.1207   -7.3603 C   0  0  0  0  0  0  0  0  0  0  0  0
   28.4702  -19.1414   -6.7151 C   0  0  0  0  0  0  0  0  0  0  0  0
   29.2622  -20.2588   -6.8303 C   0  0  0  0  0  0  0  0  0  0  0  0
   28.8425  -21.3306   -7.5766 C   0  0  0  0  0  0  0  0  0  0  0  0
   27.6290  -21.3000   -8.2159 C   0  0  0  0  0  0  0  0  0  0  0  0
   24.1609  -20.9124  -10.7312 C   0  0  0  0  0  0  0  0  0  0  0  0
   23.8587  -20.2536  -11.7484 O   0  0  0  0  0  0  0  0  0  0  0  0
   23.2109  -21.7461  -10.1711 O   0  0  0  0  0  0  0  0  0  0  0  0
  2  1  1  6
  2  3  1  0
  4  6  1  0
  4  2  1  0
  4  5  1  6
  6  8  1  0
  7  6  2  0
  8  9  1  0
  9 10  1  0
 10 11  2  0
 10 12  1  0
 12 13  1  0
 13 21  1  0
 13 14  1  1
 15 14  1  0
 15 16  2  0
 17 16  1  0
 18 17  2  0
 19 20  2  0
 19 18  1  0
 20 15  1  0
 21 22  2  0
 21 23  1  0
M  END
$$$$
