VGF.pdb
     RDKit          3D

 23 23  0  0  1  0  0  0  0  0999 V2000
   25.4792  -14.4363  -18.2463 C   0  0  0  0  0  0  0  0  0  0  0  0
   25.7758  -14.9257  -16.8371 C   0  0  2  0  0  0  0  0  0  0  0  0
   25.3226  -16.3279  -16.6100 C   0  0  0  0  0  0  0  0  0  0  0  0
   25.1956  -13.9389  -15.8524 C   0  0  2  0  0  0  0  0  0  0  0  0
   23.7733  -13.9951  -15.9032 N   0  0  0  0  0  0  0  0  0  0  0  0
   25.6856  -12.5810  -16.0273 C   0  0  0  0  0  0  0  0  0  0  0  0
   26.8809  -12.2073  -15.9244 O   0  0  0  0  0  0  0  0  0  0  0  0
   24.7329  -11.5391  -16.3506 N   0  0  0  0  0  0  0  0  0  0  0  0
   25.1385  -10.1763  -16.4152 C   0  0  0  0  0  0  0  0  0  0  0  0
   24.0402   -9.2175  -16.6021 C   0  0  0  0  0  0  0  0  0  0  0  0
   23.7484   -8.8383  -17.8099 O   0  0  0  0  0  0  0  0  0  0  0  0
   23.2661   -8.6681  -15.5568 N   0  0  0  0  0  0  0  0  0  0  0  0
   22.0697   -7.8612  -15.8448 C   0  0  1  0  0  0  0  0  0  0  0  0
   21.1468   -8.7737  -16.6129 C   0  0  0  0  0  0  0  0  0  0  0  0
   19.8284   -8.1836  -16.9063 C   0  0  0  0  0  0  0  0  0  0  0  0
   19.7337   -7.0764  -17.7105 C   0  0  0  0  0  0  0  0  0  0  0  0
   18.5136   -6.5101  -18.0005 C   0  0  0  0  0  0  0  0  0  0  0  0
   17.3786   -7.0740  -17.4685 C   0  0  0  0  0  0  0  0  0  0  0  0
   17.4679   -8.1814  -16.6636 C   0  0  0  0  0  0  0  0  0  0  0  0
   18.6893   -8.7384  -16.3806 C   0  0  0  0  0  0  0  0  0  0  0  0
   21.4869   -7.3830  -14.5693 C   0  0  0  0  0  0  0  0  0  0  0  0
   20.6697   -6.4385  -14.5756 O   0  0  0  0  0  0  0  0  0  0  0  0
   21.8275   -7.9611  -13.3606 O   0  0  0  0  0  0  0  0  0  0  0  0
  2  1  1  6
  2  3  1  0
  4  6  1  0
  4  2  1  0
  4  5  1  6
  6  8  1  0
  7  6  2  0
  8  9  1  0
  9 10  1  0
 10 11  2  0
 10 12  1  0
 12 13  1  0
 13 21  1  0
 13 14  1  1
 15 14  1  0
 15 16  2  0
 17 16  1  0
 18 17  2  0
 19 20  2  0
 19 18  1  0
 20 15  1  0
 21 22  2  0
 21 23  1  0
M  END
$$$$
