VGF.pdb
     RDKit          3D

 23 23  0  0  1  0  0  0  0  0999 V2000
   22.1928  -22.5328  -14.7130 C   0  0  0  0  0  0  0  0  0  0  0  0
   23.1862  -23.6739  -14.5561 C   0  0  2  0  0  0  0  0  0  0  0  0
   23.2651  -24.1765  -13.1546 C   0  0  0  0  0  0  0  0  0  0  0  0
   24.5184  -23.2326  -15.1131 C   0  0  2  0  0  0  0  0  0  0  0  0
   25.3901  -24.3550  -15.2094 N   0  0  0  0  0  0  0  0  0  0  0  0
   25.1295  -22.1406  -14.3725 C   0  0  0  0  0  0  0  0  0  0  0  0
   24.7593  -20.9398  -14.3859 O   0  0  0  0  0  0  0  0  0  0  0  0
   26.2730  -22.4305  -13.5321 N   0  0  0  0  0  0  0  0  0  0  0  0
   26.9077  -21.3984  -12.7852 C   0  0  0  0  0  0  0  0  0  0  0  0
   26.7021  -21.4777  -11.3319 C   0  0  0  0  0  0  0  0  0  0  0  0
   26.1022  -22.5232  -10.8477 O   0  0  0  0  0  0  0  0  0  0  0  0
   27.1113  -20.4921  -10.4073 N   0  0  0  0  0  0  0  0  0  0  0  0
   27.0729  -20.7507   -8.9592 C   0  0  1  0  0  0  0  0  0  0  0  0
   28.2075  -19.9448   -8.3783 C   0  0  0  0  0  0  0  0  0  0  0  0
   28.2874  -19.9960   -6.9075 C   0  0  0  0  0  0  0  0  0  0  0  0
   27.7439  -18.9873   -6.1533 C   0  0  0  0  0  0  0  0  0  0  0  0
   27.8038  -19.0152   -4.7789 C   0  0  0  0  0  0  0  0  0  0  0  0
   28.4218  -20.0781   -4.1645 C   0  0  0  0  0  0  0  0  0  0  0  0
   28.9669  -21.0895   -4.9142 C   0  0  0  0  0  0  0  0  0  0  0  0
   28.9017  -21.0521   -6.2841 C   0  0  0  0  0  0  0  0  0  0  0  0
   25.7469  -20.3554   -8.4295 C   0  0  0  0  0  0  0  0  0  0  0  0
   25.1275  -19.4051   -8.9523 O   0  0  0  0  0  0  0  0  0  0  0  0
   25.1716  -21.0180   -7.3612 O   0  0  0  0  0  0  0  0  0  0  0  0
  2  1  1  1
  2  3  1  0
  4  6  1  0
  4  2  1  0
  4  5  1  1
  6  8  1  0
  7  6  2  0
  8  9  1  0
  9 10  1  0
 10 11  2  0
 10 12  1  0
 12 13  1  0
 13 21  1  0
 13 14  1  1
 15 14  1  0
 15 16  2  0
 17 16  1  0
 18 17  2  0
 19 20  2  0
 19 18  1  0
 20 15  1  0
 21 22  2  0
 21 23  1  0
M  END
$$$$
