VGF.pdb
     RDKit          3D

 23 23  0  0  1  0  0  0  0  0999 V2000
   22.4119  -21.8849  -13.2924 C   0  0  0  0  0  0  0  0  0  0  0  0
   22.1282  -20.7131  -14.2196 C   0  0  2  0  0  0  0  0  0  0  0  0
   21.4808  -21.1349  -15.4949 C   0  0  0  0  0  0  0  0  0  0  0  0
   23.4082  -19.9383  -14.4222 C   0  0  2  0  0  0  0  0  0  0  0  0
   24.2943  -20.6889  -15.2471 N   0  0  0  0  0  0  0  0  0  0  0  0
   24.0471  -19.5292  -13.1817 C   0  0  0  0  0  0  0  0  0  0  0  0
   23.5180  -18.8498  -12.2666 O   0  0  0  0  0  0  0  0  0  0  0  0
   25.4206  -19.9253  -12.9486 N   0  0  0  0  0  0  0  0  0  0  0  0
   26.1127  -19.4998  -11.7799 C   0  0  0  0  0  0  0  0  0  0  0  0
   26.0733  -20.4534  -10.6621 C   0  0  0  0  0  0  0  0  0  0  0  0
   25.5478  -21.6240  -10.8653 O   0  0  0  0  0  0  0  0  0  0  0  0
   26.5689  -20.1934   -9.3658 N   0  0  0  0  0  0  0  0  0  0  0  0
   26.5614  -21.2378   -8.3293 C   0  0  1  0  0  0  0  0  0  0  0  0
   27.9577  -21.2464   -7.7594 C   0  0  0  0  0  0  0  0  0  0  0  0
   28.1290  -20.3787   -6.5804 C   0  0  0  0  0  0  0  0  0  0  0  0
   28.2940  -19.0262   -6.7396 C   0  0  0  0  0  0  0  0  0  0  0  0
   28.4527  -18.1963   -5.6535 C   0  0  0  0  0  0  0  0  0  0  0  0
   28.4437  -18.7454   -4.3936 C   0  0  0  0  0  0  0  0  0  0  0  0
   28.2790  -20.0974   -4.2290 C   0  0  0  0  0  0  0  0  0  0  0  0
   28.1215  -20.9162   -5.3185 C   0  0  0  0  0  0  0  0  0  0  0  0
   25.5233  -20.9162   -7.3221 C   0  0  0  0  0  0  0  0  0  0  0  0
   25.0294  -19.7697   -7.2839 O   0  0  0  0  0  0  0  0  0  0  0  0
   25.0828  -21.8618   -6.4150 O   0  0  0  0  0  0  0  0  0  0  0  0
  2  1  1  1
  2  3  1  0
  4  6  1  0
  4  2  1  0
  4  5  1  1
  6  8  1  0
  7  6  2  0
  8  9  1  0
  9 10  1  0
 10 11  2  0
 10 12  1  0
 12 13  1  0
 13 21  1  0
 13 14  1  1
 15 14  1  0
 15 16  2  0
 17 16  1  0
 18 17  2  0
 19 20  2  0
 19 18  1  0
 20 15  1  0
 21 22  2  0
 21 23  1  0
M  END
$$$$
