VGF.pdb
     RDKit          3D

 23 23  0  0  1  0  0  0  0  0999 V2000
   23.6763  -21.9967  -13.9033 C   0  0  0  0  0  0  0  0  0  0  0  0
   23.0816  -20.8293  -14.6759 C   0  0  2  0  0  0  0  0  0  0  0  0
   22.7982  -21.1692  -16.0998 C   0  0  0  0  0  0  0  0  0  0  0  0
   23.9866  -19.6319  -14.5117 C   0  0  2  0  0  0  0  0  0  0  0  0
   25.1563  -19.8061  -15.3057 N   0  0  0  0  0  0  0  0  0  0  0  0
   24.3172  -19.3337  -13.1274 C   0  0  0  0  0  0  0  0  0  0  0  0
   23.4961  -19.1116  -12.2025 O   0  0  0  0  0  0  0  0  0  0  0  0
   25.7136  -19.2803  -12.7467 N   0  0  0  0  0  0  0  0  0  0  0  0
   26.0932  -18.9460  -11.4163 C   0  0  0  0  0  0  0  0  0  0  0  0
   26.0587  -20.0685  -10.4680 C   0  0  0  0  0  0  0  0  0  0  0  0
   25.7233  -21.2428  -10.9108 O   0  0  0  0  0  0  0  0  0  0  0  0
   26.3660  -19.9693   -9.0935 N   0  0  0  0  0  0  0  0  0  0  0  0
   26.3495  -21.1583   -8.2267 C   0  0  1  0  0  0  0  0  0  0  0  0
   27.7527  -21.2803   -7.6877 C   0  0  0  0  0  0  0  0  0  0  0  0
   28.0546  -20.3487   -6.5862 C   0  0  0  0  0  0  0  0  0  0  0  0
   28.3225  -20.8315   -5.3305 C   0  0  0  0  0  0  0  0  0  0  0  0
   28.6098  -19.9809   -4.2877 C   0  0  0  0  0  0  0  0  0  0  0  0
   28.6252  -18.6268   -4.5226 C   0  0  0  0  0  0  0  0  0  0  0  0
   28.3580  -18.1388   -5.7767 C   0  0  0  0  0  0  0  0  0  0  0  0
   28.0727  -18.9954   -6.8097 C   0  0  0  0  0  0  0  0  0  0  0  0
   25.3322  -20.9727   -7.1656 C   0  0  0  0  0  0  0  0  0  0  0  0
   25.0740  -21.9104   -6.3820 O   0  0  0  0  0  0  0  0  0  0  0  0
   24.6549  -19.7765   -7.0188 O   0  0  0  0  0  0  0  0  0  0  0  0
  2  1  1  6
  2  3  1  0
  4  6  1  0
  4  2  1  0
  4  5  1  6
  6  8  1  0
  7  6  2  0
  8  9  1  0
  9 10  1  0
 10 11  2  0
 10 12  1  0
 12 13  1  0
 13 21  1  0
 13 14  1  1
 15 14  1  0
 15 16  2  0
 17 16  1  0
 18 17  2  0
 19 20  2  0
 19 18  1  0
 20 15  1  0
 21 22  2  0
 21 23  1  0
M  END
$$$$
