YPI.pdb
     RDKit          3D

 28 29  0  0  1  0  0  0  0  0999 V2000
   10.2726  -22.6811   16.8105 O   0  0  0  0  0  0  0  0  0  0  0  0
   10.1954  -21.6645   17.7654 C   0  0  0  0  0  0  0  0  0  0  0  0
   10.5682  -20.3728   17.5025 C   0  0  0  0  0  0  0  0  0  0  0  0
   10.4749  -19.3854   18.4874 C   0  0  0  0  0  0  0  0  0  0  0  0
   10.0060  -19.6845   19.7471 C   0  0  0  0  0  0  0  0  0  0  0  0
    9.8931  -18.6606   20.8075 C   0  0  0  0  0  0  0  0  0  0  0  0
   10.5896  -17.3603   20.4612 C   0  0  2  0  0  0  0  0  0  0  0  0
   12.0091  -17.4679   20.3490 N   0  0  0  0  0  0  0  0  0  0  0  0
   10.1077  -16.2470   21.3130 C   0  0  0  0  0  0  0  0  0  0  0  0
   11.0000  -15.6478   22.0345 O   0  0  0  0  0  0  0  0  0  0  0  0
    9.6344  -21.0036   19.9871 C   0  0  0  0  0  0  0  0  0  0  0  0
    9.7268  -21.9748   19.0166 C   0  0  0  0  0  0  0  0  0  0  0  0
    8.7771  -15.7848   21.4092 N   0  0  0  0  0  0  0  0  0  0  0  0
    7.5612  -16.2820   20.8413 C   0  0  0  0  0  0  0  0  0  0  0  0
    6.7640  -15.0183   20.5357 C   0  0  0  0  0  0  0  0  0  0  0  0
    7.4495  -13.9173   21.2659 C   0  0  0  0  0  0  0  0  0  0  0  0
    8.3829  -14.6123   22.1971 C   0  0  1  0  0  0  0  0  0  0  0  0
    7.7912  -15.0577   23.4603 C   0  0  0  0  0  0  0  0  0  0  0  0
    7.6048  -16.3003   23.6745 O   0  0  0  0  0  0  0  0  0  0  0  0
    5.5880  -11.6504   27.5751 C   0  0  0  0  0  0  0  0  0  0  0  0
    6.1796  -12.4763   26.5144 C   0  0  0  0  0  0  0  0  0  0  0  0
    7.4519  -13.1694   26.6738 C   0  0  2  0  0  0  0  0  0  0  0  0
    8.6539  -12.2161   26.5734 C   0  0  0  0  0  0  0  0  0  0  0  0
    7.6846  -14.4114   25.9137 C   0  0  2  0  0  0  0  0  0  0  0  0
    7.4105  -14.1479   24.4727 N   0  0  0  0  0  0  0  0  0  0  0  0
    6.8093  -15.5102   26.2667 C   0  0  0  0  0  0  0  0  0  0  0  0
    6.9645  -16.1260   27.3522 O   0  0  0  0  0  0  0  0  0  0  0  0
    5.7802  -15.9309   25.4679 O   0  0  0  0  0  0  0  0  0  0  0  0
  2  1  1  0
  3  2  2  0
  4  3  1  0
  5  4  2  0
  5 11  1  0
  6  5  1  0
  7  9  1  0
  7  6  1  0
  7  8  1  1
  9 13  1  0
  9 10  2  0
 11 12  2  0
 12  2  1  0
 13 14  1  0
 14 15  1  0
 16 15  1  0
 17 13  1  0
 17 16  1  0
 17 18  1  1
 19 18  2  0
 20 21  1  0
 21 22  1  0
 22 24  1  0
 22 23  1  6
 24 25  1  6
 25 18  1  0
 26 24  1  0
 26 28  1  0
 27 26  2  0
M  END
$$$$
