YPI.pdb
     RDKit          3D

 28 29  0  0  1  0  0  0  0  0999 V2000
    9.1550  -19.7798   28.9148 O   0  0  0  0  0  0  0  0  0  0  0  0
    8.3558  -19.4817   27.8087 C   0  0  0  0  0  0  0  0  0  0  0  0
    8.2060  -20.3399   26.7515 C   0  0  0  0  0  0  0  0  0  0  0  0
    7.3961  -20.0023   25.6636 C   0  0  0  0  0  0  0  0  0  0  0  0
    6.7277  -18.7990   25.6255 C   0  0  0  0  0  0  0  0  0  0  0  0
    5.8617  -18.4163   24.4900 C   0  0  0  0  0  0  0  0  0  0  0  0
    6.4568  -18.7617   23.1400 C   0  0  2  0  0  0  0  0  0  0  0  0
    6.7190  -20.1531   22.9540 N   0  0  0  0  0  0  0  0  0  0  0  0
    7.5810  -17.8578   22.7991 C   0  0  0  0  0  0  0  0  0  0  0  0
    8.7306  -18.4196   22.6022 O   0  0  0  0  0  0  0  0  0  0  0  0
    6.8974  -17.9464   26.7118 C   0  0  0  0  0  0  0  0  0  0  0  0
    7.6951  -18.2800   27.7822 C   0  0  0  0  0  0  0  0  0  0  0  0
    7.5140  -16.4533   22.6713 N   0  0  0  0  0  0  0  0  0  0  0  0
    6.4395  -15.5348   22.8948 C   0  0  0  0  0  0  0  0  0  0  0  0
    6.6449  -14.4727   21.8198 C   0  0  0  0  0  0  0  0  0  0  0  0
    8.0168  -14.6929   21.2860 C   0  0  0  0  0  0  0  0  0  0  0  0
    8.6517  -15.6229   22.2624 C   0  0  1  0  0  0  0  0  0  0  0  0
    9.2335  -14.9869   23.4460 C   0  0  0  0  0  0  0  0  0  0  0  0
   10.1599  -14.1212   23.3149 O   0  0  0  0  0  0  0  0  0  0  0  0
    5.7574  -12.8593   26.8729 C   0  0  0  0  0  0  0  0  0  0  0  0
    6.7904  -13.8216   26.4679 C   0  0  0  0  0  0  0  0  0  0  0  0
    8.1443  -13.4186   26.1087 C   0  0  2  0  0  0  0  0  0  0  0  0
    8.1655  -12.4043   24.9535 C   0  0  0  0  0  0  0  0  0  0  0  0
    9.1720  -14.4606   25.9295 C   0  0  2  0  0  0  0  0  0  0  0  0
    8.8015  -15.2997   24.7549 N   0  0  0  0  0  0  0  0  0  0  0  0
    9.2890  -15.3917   27.0330 C   0  0  0  0  0  0  0  0  0  0  0  0
    9.6270  -14.9880   28.1751 O   0  0  0  0  0  0  0  0  0  0  0  0
    9.0375  -16.7316   26.9088 O   0  0  0  0  0  0  0  0  0  0  0  0
  2  1  1  0
  3  2  2  0
  4  3  1  0
  5  4  2  0
  5 11  1  0
  6  5  1  0
  7  9  1  0
  7  6  1  0
  7  8  1  1
  9 13  1  0
  9 10  2  0
 11 12  2  0
 12  2  1  0
 13 14  1  0
 14 15  1  0
 16 15  1  0
 17 13  1  0
 17 16  1  0
 17 18  1  1
 19 18  2  0
 20 21  1  0
 21 22  1  0
 22 24  1  0
 22 23  1  6
 24 25  1  6
 25 18  1  0
 26 24  1  0
 26 28  1  0
 27 26  2  0
M  END
$$$$
