YPI.pdb
     RDKit          3D

 28 29  0  0  1  0  0  0  0  0999 V2000
    8.1680  -20.1535   27.9056 O   0  0  0  0  0  0  0  0  0  0  0  0
    8.1236  -19.9084   26.5311 C   0  0  0  0  0  0  0  0  0  0  0  0
    9.1431  -20.2555   25.6845 C   0  0  0  0  0  0  0  0  0  0  0  0
    9.0581  -19.9918   24.3145 C   0  0  0  0  0  0  0  0  0  0  0  0
    7.9482  -19.3767   23.7798 C   0  0  0  0  0  0  0  0  0  0  0  0
    7.8289  -19.0882   22.3347 C   0  0  0  0  0  0  0  0  0  0  0  0
    9.0296  -18.3577   21.7686 C   0  0  2  0  0  0  0  0  0  0  0  0
   10.2319  -19.1282   21.7563 N   0  0  0  0  0  0  0  0  0  0  0  0
    9.1576  -16.9999   22.3493 C   0  0  0  0  0  0  0  0  0  0  0  0
   10.2106  -16.7799   23.0695 O   0  0  0  0  0  0  0  0  0  0  0  0
    6.9279  -19.0348   24.6618 C   0  0  0  0  0  0  0  0  0  0  0  0
    7.0128  -19.2949   26.0103 C   0  0  0  0  0  0  0  0  0  0  0  0
    8.2447  -15.9345   22.1910 N   0  0  0  0  0  0  0  0  0  0  0  0
    7.0192  -15.8420   21.4578 C   0  0  0  0  0  0  0  0  0  0  0  0
    7.0147  -14.4058   20.9448 C   0  0  0  0  0  0  0  0  0  0  0  0
    8.0750  -13.6959   21.7111 C   0  0  0  0  0  0  0  0  0  0  0  0
    8.4127  -14.6238   22.8274 C   0  0  1  0  0  0  0  0  0  0  0  0
    7.5364  -14.5410   23.9976 C   0  0  0  0  0  0  0  0  0  0  0  0
    7.0026  -15.5971   24.4711 O   0  0  0  0  0  0  0  0  0  0  0  0
   10.0686  -13.6288   28.1434 C   0  0  0  0  0  0  0  0  0  0  0  0
    8.9965  -13.0908   27.2960 C   0  0  0  0  0  0  0  0  0  0  0  0
    7.8318  -13.8758   26.9066 C   0  0  2  0  0  0  0  0  0  0  0  0
    8.2142  -15.2715   26.3873 C   0  0  0  0  0  0  0  0  0  0  0  0
    6.8034  -13.2480   26.0566 C   0  0  2  0  0  0  0  0  0  0  0  0
    7.2524  -13.3129   24.6370 N   0  0  0  0  0  0  0  0  0  0  0  0
    6.5810  -11.8403   26.3152 C   0  0  0  0  0  0  0  0  0  0  0  0
    5.8593  -11.4748   27.2781 O   0  0  0  0  0  0  0  0  0  0  0  0
    7.1341  -10.8453   25.5548 O   0  0  0  0  0  0  0  0  0  0  0  0
  2  1  1  0
  3  2  2  0
  4  3  1  0
  5  4  2  0
  5 11  1  0
  6  5  1  0
  7  9  1  0
  7  6  1  0
  7  8  1  1
  9 13  1  0
  9 10  2  0
 11 12  2  0
 12  2  1  0
 13 14  1  0
 14 15  1  0
 16 15  1  0
 17 13  1  0
 17 16  1  0
 17 18  1  1
 19 18  2  0
 20 21  1  0
 21 22  1  0
 22 24  1  0
 22 23  1  6
 24 25  1  6
 25 18  1  0
 26 24  1  0
 26 28  1  0
 27 26  2  0
M  END
$$$$
