YPI.pdb
     RDKit          3D

 28 29  0  0  1  0  0  0  0  0999 V2000
    8.0455  -13.2212   15.9698 O   0  0  0  0  0  0  0  0  0  0  0  0
    8.0306  -13.5407   17.3296 C   0  0  0  0  0  0  0  0  0  0  0  0
    7.1468  -12.9780   18.2121 C   0  0  0  0  0  0  0  0  0  0  0  0
    7.1660  -13.3261   19.5656 C   0  0  0  0  0  0  0  0  0  0  0  0
    8.0729  -14.2434   20.0476 C   0  0  0  0  0  0  0  0  0  0  0  0
    8.1144  -14.6334   21.4730 C   0  0  0  0  0  0  0  0  0  0  0  0
    7.3901  -15.9330   21.7597 C   0  0  2  0  0  0  0  0  0  0  0  0
    5.9907  -15.8984   21.4776 N   0  0  0  0  0  0  0  0  0  0  0  0
    7.7506  -16.4681   23.0942 C   0  0  0  0  0  0  0  0  0  0  0  0
    6.9056  -16.2463   24.0496 O   0  0  0  0  0  0  0  0  0  0  0  0
    8.9587  -14.7993   19.1301 C   0  0  0  0  0  0  0  0  0  0  0  0
    8.9389  -14.4557   17.7978 C   0  0  0  0  0  0  0  0  0  0  0  0
    8.9203  -17.1902   23.4163 N   0  0  0  0  0  0  0  0  0  0  0  0
   10.0780  -17.5088   22.6375 C   0  0  0  0  0  0  0  0  0  0  0  0
   10.4655  -18.9017   23.1228 C   0  0  0  0  0  0  0  0  0  0  0  0
    9.6979  -19.1242   24.3784 C   0  0  0  0  0  0  0  0  0  0  0  0
    9.1712  -17.7768   24.7369 C   0  0  1  0  0  0  0  0  0  0  0  0
   10.0983  -16.9184   25.4769 C   0  0  0  0  0  0  0  0  0  0  0  0
   11.1013  -16.4019   24.8837 O   0  0  0  0  0  0  0  0  0  0  0  0
    8.2302  -13.1613   29.0307 C   0  0  0  0  0  0  0  0  0  0  0  0
    8.8951  -14.4018   28.6111 C   0  0  0  0  0  0  0  0  0  0  0  0
   10.0839  -14.4113   27.7679 C   0  0  2  0  0  0  0  0  0  0  0  0
    9.8584  -13.6869   26.4307 C   0  0  0  0  0  0  0  0  0  0  0  0
   10.8097  -15.6807   27.5770 C   0  0  2  0  0  0  0  0  0  0  0  0
    9.9232  -16.6329   26.8500 N   0  0  0  0  0  0  0  0  0  0  0  0
   11.1677  -16.3637   28.8032 C   0  0  0  0  0  0  0  0  0  0  0  0
   12.0590  -15.8959   29.5570 O   0  0  0  0  0  0  0  0  0  0  0  0
   10.5690  -17.5246   29.2129 O   0  0  0  0  0  0  0  0  0  0  0  0
  2  1  1  0
  3  2  2  0
  4  3  1  0
  5  4  2  0
  5 11  1  0
  6  5  1  0
  7  9  1  0
  7  6  1  0
  7  8  1  1
  9 13  1  0
  9 10  2  0
 11 12  2  0
 12  2  1  0
 13 14  1  0
 14 15  1  0
 16 15  1  0
 17 13  1  0
 17 16  1  0
 17 18  1  6
 19 18  2  0
 20 21  1  0
 21 22  1  0
 22 24  1  0
 22 23  1  6
 24 25  1  6
 25 18  1  0
 26 24  1  0
 26 28  1  0
 27 26  2  0
M  END
$$$$
