YPI.pdb
     RDKit          3D

 28 29  0  0  1  0  0  0  0  0999 V2000
   11.9764  -20.3387   15.4225 O   0  0  0  0  0  0  0  0  0  0  0  0
   10.9173  -19.4351   15.5369 C   0  0  0  0  0  0  0  0  0  0  0  0
   10.0929  -19.3962   16.6302 C   0  0  0  0  0  0  0  0  0  0  0  0
    9.0440  -18.4754   16.7045 C   0  0  0  0  0  0  0  0  0  0  0  0
    8.8116  -17.5835   15.6814 C   0  0  0  0  0  0  0  0  0  0  0  0
    7.7123  -16.5963   15.7336 C   0  0  0  0  0  0  0  0  0  0  0  0
    8.1408  -15.2006   15.3285 C   0  0  2  0  0  0  0  0  0  0  0  0
    8.5930  -15.0955   13.9780 N   0  0  0  0  0  0  0  0  0  0  0  0
    9.0381  -14.5966   16.3419 C   0  0  0  0  0  0  0  0  0  0  0  0
   10.2367  -14.3061   15.9481 O   0  0  0  0  0  0  0  0  0  0  0  0
    9.6635  -17.6446   14.5831 C   0  0  0  0  0  0  0  0  0  0  0  0
   10.6958  -18.5517   14.5113 C   0  0  0  0  0  0  0  0  0  0  0  0
    8.7089  -14.3121   17.6852 N   0  0  0  0  0  0  0  0  0  0  0  0
    7.5012  -14.5166   18.4252 C   0  0  0  0  0  0  0  0  0  0  0  0
    7.4430  -13.3118   19.3584 C   0  0  0  0  0  0  0  0  0  0  0  0
    8.7964  -12.6940   19.3114 C   0  0  0  0  0  0  0  0  0  0  0  0
    9.6491  -13.7152   18.6396 C   0  0  1  0  0  0  0  0  0  0  0  0
   10.1776  -14.7636   19.5145 C   0  0  0  0  0  0  0  0  0  0  0  0
    9.5595  -15.8727   19.6269 O   0  0  0  0  0  0  0  0  0  0  0  0
   15.3348  -14.4716   18.7790 C   0  0  0  0  0  0  0  0  0  0  0  0
   14.0177  -15.0469   19.0813 C   0  0  0  0  0  0  0  0  0  0  0  0
   13.6193  -15.4368   20.4281 C   0  0  2  0  0  0  0  0  0  0  0  0
   14.5498  -16.5040   21.0273 C   0  0  0  0  0  0  0  0  0  0  0  0
   12.2021  -15.7511   20.6870 C   0  0  2  0  0  0  0  0  0  0  0  0
   11.3695  -14.5931   20.2548 N   0  0  0  0  0  0  0  0  0  0  0  0
   11.8714  -15.9499   22.0832 C   0  0  0  0  0  0  0  0  0  0  0  0
   11.4670  -14.9886   22.7861 O   0  0  0  0  0  0  0  0  0  0  0  0
   11.9664  -17.1648   22.7069 O   0  0  0  0  0  0  0  0  0  0  0  0
  2  1  1  0
  3  2  2  0
  4  3  1  0
  5  4  2  0
  5 11  1  0
  6  5  1  0
  7  9  1  0
  7  6  1  0
  7  8  1  6
  9 13  1  0
  9 10  2  0
 11 12  2  0
 12  2  1  0
 13 14  1  0
 14 15  1  0
 16 15  1  0
 17 13  1  0
 17 16  1  0
 17 18  1  1
 19 18  2  0
 20 21  1  0
 21 22  1  0
 22 24  1  0
 22 23  1  6
 24 25  1  1
 25 18  1  0
 26 24  1  0
 26 28  1  0
 27 26  2  0
M  END
$$$$
