YPI.pdb
     RDKit          3D

 28 29  0  0  1  0  0  0  0  0999 V2000
    8.9553  -12.3749   17.4423 O   0  0  0  0  0  0  0  0  0  0  0  0
    8.4478  -12.9658   18.6018 C   0  0  0  0  0  0  0  0  0  0  0  0
    9.0899  -12.8953   19.8099 C   0  0  0  0  0  0  0  0  0  0  0  0
    8.5470  -13.5012   20.9464 C   0  0  0  0  0  0  0  0  0  0  0  0
    7.3532  -14.1844   20.8822 C   0  0  0  0  0  0  0  0  0  0  0  0
    6.7533  -14.8321   22.0680 C   0  0  0  0  0  0  0  0  0  0  0  0
    6.7720  -16.3456   21.9976 C   0  0  2  0  0  0  0  0  0  0  0  0
    5.5014  -16.9348   21.7184 N   0  0  0  0  0  0  0  0  0  0  0  0
    7.4976  -16.9300   23.1504 C   0  0  0  0  0  0  0  0  0  0  0  0
    6.7755  -17.2806   24.1661 O   0  0  0  0  0  0  0  0  0  0  0  0
    6.7223  -14.2407   19.6434 C   0  0  0  0  0  0  0  0  0  0  0  0
    7.2580  -13.6438   18.5252 C   0  0  0  0  0  0  0  0  0  0  0  0
    8.8913  -17.1371   23.2419 N   0  0  0  0  0  0  0  0  0  0  0  0
    9.9512  -16.8474   22.3250 C   0  0  0  0  0  0  0  0  0  0  0  0
   10.9255  -18.0036   22.5248 C   0  0  0  0  0  0  0  0  0  0  0  0
   10.5037  -18.6795   23.7822 C   0  0  0  0  0  0  0  0  0  0  0  0
    9.5463  -17.7277   24.4137 C   0  0  1  0  0  0  0  0  0  0  0  0
   10.1566  -16.6627   25.2120 C   0  0  0  0  0  0  0  0  0  0  0  0
   10.9925  -15.8631   24.6767 O   0  0  0  0  0  0  0  0  0  0  0  0
    7.7294  -12.8234   26.3439 C   0  0  0  0  0  0  0  0  0  0  0  0
    8.7863  -13.8426   26.3084 C   0  0  0  0  0  0  0  0  0  0  0  0
    9.4941  -14.2846   27.5034 C   0  0  2  0  0  0  0  0  0  0  0  0
   10.0741  -13.1097   28.3078 C   0  0  0  0  0  0  0  0  0  0  0  0
   10.4645  -15.3887   27.3870 C   0  0  2  0  0  0  0  0  0  0  0  0
    9.8507  -16.4809   26.5799 N   0  0  0  0  0  0  0  0  0  0  0  0
   10.8276  -16.0106   28.6439 C   0  0  0  0  0  0  0  0  0  0  0  0
   10.0174  -16.7657   29.2395 O   0  0  0  0  0  0  0  0  0  0  0  0
   12.0453  -15.8284   29.2422 O   0  0  0  0  0  0  0  0  0  0  0  0
  2  1  1  0
  3  2  2  0
  4  3  1  0
  5  4  2  0
  5 11  1  0
  6  5  1  0
  7  9  1  0
  7  6  1  0
  7  8  1  1
  9 13  1  0
  9 10  2  0
 11 12  2  0
 12  2  1  0
 13 14  1  0
 14 15  1  0
 16 15  1  0
 17 13  1  0
 17 16  1  0
 17 18  1  6
 19 18  2  0
 20 21  1  0
 21 22  1  0
 22 24  1  0
 22 23  1  6
 24 25  1  6
 25 18  1  0
 26 24  1  0
 26 28  1  0
 27 26  2  0
M  END
$$$$
