YPI.pdb
     RDKit          3D

 28 29  0  0  1  0  0  0  0  0999 V2000
    9.1486  -19.5403   29.0588 O   0  0  0  0  0  0  0  0  0  0  0  0
    8.3457  -19.1798   27.9740 C   0  0  0  0  0  0  0  0  0  0  0  0
    8.0397  -17.8771   27.6809 C   0  0  0  0  0  0  0  0  0  0  0  0
    7.2321  -17.5598   26.5851 C   0  0  0  0  0  0  0  0  0  0  0  0
    6.7230  -18.5474   25.7717 C   0  0  0  0  0  0  0  0  0  0  0  0
    5.8691  -18.2418   24.6042 C   0  0  0  0  0  0  0  0  0  0  0  0
    6.5140  -18.5993   23.2805 C   0  0  2  0  0  0  0  0  0  0  0  0
    6.8349  -19.9837   23.1401 N   0  0  0  0  0  0  0  0  0  0  0  0
    7.6113  -17.6612   22.9445 C   0  0  0  0  0  0  0  0  0  0  0  0
    8.7900  -18.1796   22.8115 O   0  0  0  0  0  0  0  0  0  0  0  0
    7.0492  -19.8615   26.0921 C   0  0  0  0  0  0  0  0  0  0  0  0
    7.8444  -20.1725   27.1712 C   0  0  0  0  0  0  0  0  0  0  0  0
    7.4902  -16.2668   22.7586 N   0  0  0  0  0  0  0  0  0  0  0  0
    6.3478  -15.4054   22.7904 C   0  0  0  0  0  0  0  0  0  0  0  0
    6.6534  -14.3632   21.7199 C   0  0  0  0  0  0  0  0  0  0  0  0
    8.0987  -14.5191   21.3998 C   0  0  0  0  0  0  0  0  0  0  0  0
    8.6306  -15.3842   22.4906 C   0  0  1  0  0  0  0  0  0  0  0  0
    8.9974  -14.6839   23.7231 C   0  0  0  0  0  0  0  0  0  0  0  0
    8.8299  -13.4237   23.8150 O   0  0  0  0  0  0  0  0  0  0  0  0
    6.9239  -12.1046   26.0046 C   0  0  0  0  0  0  0  0  0  0  0  0
    8.0814  -12.9313   25.6388 C   0  0  0  0  0  0  0  0  0  0  0  0
    8.6731  -13.9041   26.5488 C   0  0  2  0  0  0  0  0  0  0  0  0
    8.8554  -13.3418   27.9680 C   0  0  0  0  0  0  0  0  0  0  0  0
    9.8637  -14.6552   26.1100 C   0  0  2  0  0  0  0  0  0  0  0  0
    9.5408  -15.3616   24.8381 N   0  0  0  0  0  0  0  0  0  0  0  0
   10.2908  -15.6983   27.0198 C   0  0  0  0  0  0  0  0  0  0  0  0
   10.8655  -15.4068   28.0998 O   0  0  0  0  0  0  0  0  0  0  0  0
   10.0935  -17.0303   26.7734 O   0  0  0  0  0  0  0  0  0  0  0  0
  2  1  1  0
  3  2  2  0
  4  3  1  0
  5  4  2  0
  5 11  1  0
  6  5  1  0
  7  9  1  0
  7  6  1  0
  7  8  1  1
  9 13  1  0
  9 10  2  0
 11 12  2  0
 12  2  1  0
 13 14  1  0
 14 15  1  0
 16 15  1  0
 17 13  1  0
 17 16  1  0
 17 18  1  1
 19 18  2  0
 20 21  1  0
 21 22  1  0
 22 24  1  0
 22 23  1  1
 24 25  1  6
 25 18  1  0
 26 24  1  0
 26 28  1  0
 27 26  2  0
M  END
$$$$
