YPI.pdb
     RDKit          3D

 28 29  0  0  1  0  0  0  0  0999 V2000
    6.8431  -12.4656   16.3650 O   0  0  0  0  0  0  0  0  0  0  0  0
    7.1990  -13.1451   17.5324 C   0  0  0  0  0  0  0  0  0  0  0  0
    8.3751  -12.9116   18.1948 C   0  0  0  0  0  0  0  0  0  0  0  0
    8.6926  -13.6142   19.3606 C   0  0  0  0  0  0  0  0  0  0  0  0
    7.8323  -14.5589   19.8740 C   0  0  0  0  0  0  0  0  0  0  0  0
    8.1398  -15.3149   21.1067 C   0  0  0  0  0  0  0  0  0  0  0  0
    9.4977  -14.9818   21.6906 C   0  0  2  0  0  0  0  0  0  0  0  0
   10.5859  -15.6699   21.0727 N   0  0  0  0  0  0  0  0  0  0  0  0
    9.4764  -15.0385   23.1717 C   0  0  0  0  0  0  0  0  0  0  0  0
   10.5414  -15.5005   23.7445 O   0  0  0  0  0  0  0  0  0  0  0  0
    6.6452  -14.7762   19.1817 C   0  0  0  0  0  0  0  0  0  0  0  0
    6.3339  -14.0838   18.0340 C   0  0  0  0  0  0  0  0  0  0  0  0
    8.4107  -14.6389   24.0073 N   0  0  0  0  0  0  0  0  0  0  0  0
    7.0284  -14.3986   23.7253 C   0  0  0  0  0  0  0  0  0  0  0  0
    6.6703  -13.2370   24.6463 C   0  0  0  0  0  0  0  0  0  0  0  0
    7.7882  -13.1317   25.6234 C   0  0  0  0  0  0  0  0  0  0  0  0
    8.5582  -14.3954   25.4461 C   0  0  1  0  0  0  0  0  0  0  0  0
    8.0449  -15.5507   26.1850 C   0  0  0  0  0  0  0  0  0  0  0  0
    7.2270  -16.3531   25.6268 O   0  0  0  0  0  0  0  0  0  0  0  0
   10.1366  -13.1181   30.1653 C   0  0  0  0  0  0  0  0  0  0  0  0
   10.2573  -13.9803   28.9825 C   0  0  0  0  0  0  0  0  0  0  0  0
   10.2358  -15.4355   29.0636 C   0  0  2  0  0  0  0  0  0  0  0  0
   11.5227  -16.0058   29.6820 C   0  0  0  0  0  0  0  0  0  0  0  0
    9.8201  -16.2073   27.8780 C   0  0  2  0  0  0  0  0  0  0  0  0
    8.4269  -15.8182   27.5193 N   0  0  0  0  0  0  0  0  0  0  0  0
    9.7692  -17.6413   28.0763 C   0  0  0  0  0  0  0  0  0  0  0  0
   10.7979  -18.3452   27.9094 O   0  0  0  0  0  0  0  0  0  0  0  0
    8.6323  -18.3022   28.4564 O   0  0  0  0  0  0  0  0  0  0  0  0
  2  1  1  0
  3  2  2  0
  4  3  1  0
  5  4  2  0
  5 11  1  0
  6  5  1  0
  7  9  1  0
  7  6  1  0
  7  8  1  6
  9 13  1  0
  9 10  2  0
 11 12  2  0
 12  2  1  0
 13 14  1  0
 14 15  1  0
 16 15  1  0
 17 13  1  0
 17 16  1  0
 17 18  1  1
 19 18  2  0
 20 21  1  0
 21 22  1  0
 22 24  1  0
 22 23  1  6
 24 25  1  1
 25 18  1  0
 26 24  1  0
 26 28  1  0
 27 26  2  0
M  END
$$$$
