YPI.pdb
     RDKit          3D

 28 29  0  0  1  0  0  0  0  0999 V2000
    9.4168  -12.4174   18.0601 O   0  0  0  0  0  0  0  0  0  0  0  0
    8.5904  -13.0914   18.9623 C   0  0  0  0  0  0  0  0  0  0  0  0
    7.3700  -13.6028   18.6076 C   0  0  0  0  0  0  0  0  0  0  0  0
    6.5739  -14.2709   19.5421 C   0  0  0  0  0  0  0  0  0  0  0  0
    6.9948  -14.4327   20.8432 C   0  0  0  0  0  0  0  0  0  0  0  0
    6.1760  -15.1375   21.8524 C   0  0  0  0  0  0  0  0  0  0  0  0
    6.4596  -16.6244   21.9217 C   0  0  2  0  0  0  0  0  0  0  0  0
    5.3218  -17.4501   21.6708 N   0  0  0  0  0  0  0  0  0  0  0  0
    7.2325  -16.9697   23.1384 C   0  0  0  0  0  0  0  0  0  0  0  0
    6.5439  -17.2064   24.2087 O   0  0  0  0  0  0  0  0  0  0  0  0
    8.2377  -13.9038   21.1765 C   0  0  0  0  0  0  0  0  0  0  0  0
    9.0205  -13.2462   20.2554 C   0  0  0  0  0  0  0  0  0  0  0  0
    8.6379  -17.0628   23.2364 N   0  0  0  0  0  0  0  0  0  0  0  0
    9.6736  -16.7311   22.3061 C   0  0  0  0  0  0  0  0  0  0  0  0
   10.7350  -17.7976   22.5543 C   0  0  0  0  0  0  0  0  0  0  0  0
   10.3653  -18.4492   23.8405 C   0  0  0  0  0  0  0  0  0  0  0  0
    9.3352  -17.5489   24.4317 C   0  0  1  0  0  0  0  0  0  0  0  0
    9.8587  -16.4057   25.1820 C   0  0  0  0  0  0  0  0  0  0  0  0
   10.5487  -15.5140   24.5874 O   0  0  0  0  0  0  0  0  0  0  0  0
    6.7632  -13.2602   27.1715 C   0  0  0  0  0  0  0  0  0  0  0  0
    8.0728  -13.8072   26.7937 C   0  0  0  0  0  0  0  0  0  0  0  0
    9.0574  -14.2423   27.7765 C   0  0  2  0  0  0  0  0  0  0  0  0
    9.5478  -13.0868   28.6642 C   0  0  0  0  0  0  0  0  0  0  0  0
   10.1770  -15.0928   27.3323 C   0  0  2  0  0  0  0  0  0  0  0  0
    9.6258  -16.2467   26.5670 N   0  0  0  0  0  0  0  0  0  0  0  0
   10.9475  -15.6883   28.4047 C   0  0  0  0  0  0  0  0  0  0  0  0
   11.9190  -15.0709   28.9111 O   0  0  0  0  0  0  0  0  0  0  0  0
   10.6694  -16.9228   28.9270 O   0  0  0  0  0  0  0  0  0  0  0  0
  2  1  1  0
  3  2  2  0
  4  3  1  0
  5  4  2  0
  5 11  1  0
  6  5  1  0
  7  9  1  0
  7  6  1  0
  7  8  1  1
  9 13  1  0
  9 10  2  0
 11 12  2  0
 12  2  1  0
 13 14  1  0
 14 15  1  0
 16 15  1  0
 17 13  1  0
 17 16  1  0
 17 18  1  6
 19 18  2  0
 20 21  1  0
 21 22  1  0
 22 24  1  0
 22 23  1  6
 24 25  1  6
 25 18  1  0
 26 24  1  0
 26 28  1  0
 27 26  2  0
M  END
$$$$
