YPI.pdb
     RDKit          3D

 28 29  0  0  1  0  0  0  0  0999 V2000
    0.1503  -20.5013   19.9434 O   0  0  0  0  0  0  0  0  0  0  0  0
    1.2762  -19.9147   20.5261 C   0  0  0  0  0  0  0  0  0  0  0  0
    1.7561  -20.2923   21.7523 C   0  0  0  0  0  0  0  0  0  0  0  0
    2.8866  -19.6788   22.2994 C   0  0  0  0  0  0  0  0  0  0  0  0
    3.5476  -18.6795   21.6207 C   0  0  0  0  0  0  0  0  0  0  0  0
    4.7474  -18.0150   22.1727 C   0  0  0  0  0  0  0  0  0  0  0  0
    5.9933  -18.2407   21.3404 C   0  0  2  0  0  0  0  0  0  0  0  0
    6.2621  -19.6125   21.0482 N   0  0  0  0  0  0  0  0  0  0  0  0
    7.1439  -17.4731   21.8732 C   0  0  0  0  0  0  0  0  0  0  0  0
    8.1111  -18.1667   22.3825 O   0  0  0  0  0  0  0  0  0  0  0  0
    3.0391  -18.3155   20.3778 C   0  0  0  0  0  0  0  0  0  0  0  0
    1.9260  -18.9202   19.8405 C   0  0  0  0  0  0  0  0  0  0  0  0
    7.2804  -16.0678   21.8769 N   0  0  0  0  0  0  0  0  0  0  0  0
    6.4378  -15.0357   21.3546 C   0  0  0  0  0  0  0  0  0  0  0  0
    7.4236  -13.9807   20.8637 C   0  0  0  0  0  0  0  0  0  0  0  0
    8.7401  -14.3470   21.4537 C   0  0  0  0  0  0  0  0  0  0  0  0
    8.4130  -15.3665   22.4905 C   0  0  1  0  0  0  0  0  0  0  0  0
    8.0007  -14.8296   23.7889 C   0  0  0  0  0  0  0  0  0  0  0  0
    7.3510  -13.7346   23.8494 O   0  0  0  0  0  0  0  0  0  0  0  0
    5.9943  -12.2820   26.5819 C   0  0  0  0  0  0  0  0  0  0  0  0
    7.1162  -13.0463   26.0214 C   0  0  0  0  0  0  0  0  0  0  0  0
    7.9284  -13.9539   26.8220 C   0  0  2  0  0  0  0  0  0  0  0  0
    8.5026  -13.2736   28.0755 C   0  0  0  0  0  0  0  0  0  0  0  0
    8.9436  -14.7828   26.1463 C   0  0  2  0  0  0  0  0  0  0  0  0
    8.2995  -15.4890   25.0028 N   0  0  0  0  0  0  0  0  0  0  0  0
    9.5093  -15.8349   26.9656 C   0  0  0  0  0  0  0  0  0  0  0  0
   10.3759  -15.5685   27.8370 O   0  0  0  0  0  0  0  0  0  0  0  0
    9.1404  -17.1484   26.8530 O   0  0  0  0  0  0  0  0  0  0  0  0
  2  1  1  0
  3  2  2  0
  4  3  1  0
  5  4  2  0
  5 11  1  0
  6  5  1  0
  7  9  1  0
  7  6  1  0
  7  8  1  1
  9 13  1  0
  9 10  2  0
 11 12  2  0
 12  2  1  0
 13 14  1  0
 14 15  1  0
 16 15  1  0
 17 13  1  0
 17 16  1  0
 17 18  1  1
 19 18  2  0
 20 21  1  0
 21 22  1  0
 22 24  1  0
 22 23  1  1
 24 25  1  6
 25 18  1  0
 26 24  1  0
 26 28  1  0
 27 26  2  0
M  END
$$$$
