YPI.pdb
     RDKit          3D

 28 29  0  0  1  0  0  0  0  0999 V2000
    7.7002  -20.5072   26.8006 O   0  0  0  0  0  0  0  0  0  0  0  0
    7.6529  -20.1081   25.4628 C   0  0  0  0  0  0  0  0  0  0  0  0
    6.5621  -19.4869   24.9142 C   0  0  0  0  0  0  0  0  0  0  0  0
    6.5563  -19.1037   23.5702 C   0  0  0  0  0  0  0  0  0  0  0  0
    7.6461  -19.3399   22.7622 C   0  0  0  0  0  0  0  0  0  0  0  0
    7.6699  -18.9428   21.3384 C   0  0  0  0  0  0  0  0  0  0  0  0
    8.9253  -18.1899   20.9474 C   0  0  2  0  0  0  0  0  0  0  0  0
   10.0939  -19.0058   20.8579 N   0  0  0  0  0  0  0  0  0  0  0  0
    9.0818  -16.9511   21.7461 C   0  0  0  0  0  0  0  0  0  0  0  0
   10.1392  -16.8762   22.4892 O   0  0  0  0  0  0  0  0  0  0  0  0
    8.7402  -19.9721   23.3446 C   0  0  0  0  0  0  0  0  0  0  0  0
    8.7445  -20.3489   24.6680 C   0  0  0  0  0  0  0  0  0  0  0  0
    8.1915  -15.8556   21.7711 N   0  0  0  0  0  0  0  0  0  0  0  0
    6.8942  -15.6796   21.1931 C   0  0  0  0  0  0  0  0  0  0  0  0
    6.8774  -14.2094   20.7881 C   0  0  0  0  0  0  0  0  0  0  0  0
    8.0402  -13.5839   21.4753 C   0  0  0  0  0  0  0  0  0  0  0  0
    8.4726  -14.6004   22.4758 C   0  0  1  0  0  0  0  0  0  0  0  0
    7.7381  -14.5845   23.7425 C   0  0  0  0  0  0  0  0  0  0  0  0
    6.6416  -15.2251   23.8524 O   0  0  0  0  0  0  0  0  0  0  0  0
   10.2731  -12.7913   28.6641 C   0  0  0  0  0  0  0  0  0  0  0  0
    9.2981  -12.8242   27.5663 C   0  0  0  0  0  0  0  0  0  0  0  0
    8.4978  -14.0030   27.2592 C   0  0  2  0  0  0  0  0  0  0  0  0
    9.3534  -15.2742   27.1337 C   0  0  0  0  0  0  0  0  0  0  0  0
    7.4950  -13.9202   26.1813 C   0  0  2  0  0  0  0  0  0  0  0  0
    8.2045  -13.8736   24.8716 N   0  0  0  0  0  0  0  0  0  0  0  0
    6.6763  -12.7255   26.2066 C   0  0  0  0  0  0  0  0  0  0  0  0
    6.9156  -11.7716   25.4228 O   0  0  0  0  0  0  0  0  0  0  0  0
    5.6139  -12.5667   27.0551 O   0  0  0  0  0  0  0  0  0  0  0  0
  2  1  1  0
  3  2  2  0
  4  3  1  0
  5  4  2  0
  5 11  1  0
  6  5  1  0
  7  9  1  0
  7  6  1  0
  7  8  1  1
  9 13  1  0
  9 10  2  0
 11 12  2  0
 12  2  1  0
 13 14  1  0
 14 15  1  0
 16 15  1  0
 17 13  1  0
 17 16  1  0
 17 18  1  1
 19 18  2  0
 20 21  1  0
 21 22  1  0
 22 24  1  0
 22 23  1  6
 24 25  1  6
 25 18  1  0
 26 24  1  0
 26 28  1  0
 27 26  2  0
M  END
$$$$
