YPI.pdb
     RDKit          3D

 28 29  0  0  1  0  0  0  0  0999 V2000
   14.0182  -19.6099   16.4744 O   0  0  0  0  0  0  0  0  0  0  0  0
   13.3582  -19.1640   17.6219 C   0  0  0  0  0  0  0  0  0  0  0  0
   12.1490  -19.6678   18.0227 C   0  0  0  0  0  0  0  0  0  0  0  0
   11.5224  -19.1932   19.1783 C   0  0  0  0  0  0  0  0  0  0  0  0
   12.1035  -18.2074   19.9443 C   0  0  0  0  0  0  0  0  0  0  0  0
   11.4660  -17.6883   21.1731 C   0  0  0  0  0  0  0  0  0  0  0  0
   10.1631  -16.9608   20.9105 C   0  0  2  0  0  0  0  0  0  0  0  0
   10.2588  -15.9209   19.9364 N   0  0  0  0  0  0  0  0  0  0  0  0
    9.4946  -16.5780   22.1768 C   0  0  0  0  0  0  0  0  0  0  0  0
    9.3681  -15.3089   22.3990 O   0  0  0  0  0  0  0  0  0  0  0  0
   13.3312  -17.7135   19.5147 C   0  0  0  0  0  0  0  0  0  0  0  0
   13.9470  -18.1817   18.3766 C   0  0  0  0  0  0  0  0  0  0  0  0
    8.9882  -17.4622   23.1542 N   0  0  0  0  0  0  0  0  0  0  0  0
    9.0443  -18.8885   23.2571 C   0  0  0  0  0  0  0  0  0  0  0  0
    7.7026  -19.2569   23.8816 C   0  0  0  0  0  0  0  0  0  0  0  0
    7.1289  -17.9833   24.3960 C   0  0  0  0  0  0  0  0  0  0  0  0
    8.2635  -17.0180   24.3494 C   0  0  1  0  0  0  0  0  0  0  0  0
    9.1661  -17.0561   25.5017 C   0  0  0  0  0  0  0  0  0  0  0  0
   10.2949  -17.6408   25.4091 O   0  0  0  0  0  0  0  0  0  0  0  0
    7.7913  -12.4045   27.6502 C   0  0  0  0  0  0  0  0  0  0  0  0
    8.5962  -13.5439   27.1908 C   0  0  0  0  0  0  0  0  0  0  0  0
    9.1888  -14.5097   28.1077 C   0  0  2  0  0  0  0  0  0  0  0  0
   10.0741  -13.8397   29.1711 C   0  0  0  0  0  0  0  0  0  0  0  0
    9.8323  -15.7146   27.5523 C   0  0  2  0  0  0  0  0  0  0  0  0
    8.8304  -16.4589   26.7380 N   0  0  0  0  0  0  0  0  0  0  0  0
   10.2918  -16.6665   28.5427 C   0  0  0  0  0  0  0  0  0  0  0  0
    9.5227  -17.5662   28.9677 O   0  0  0  0  0  0  0  0  0  0  0  0
   11.5600  -16.6537   29.0581 O   0  0  0  0  0  0  0  0  0  0  0  0
  2  1  1  0
  3  2  2  0
  4  3  1  0
  5  4  2  0
  5 11  1  0
  6  5  1  0
  7  9  1  0
  7  6  1  0
  7  8  1  6
  9 13  1  0
  9 10  2  0
 11 12  2  0
 12  2  1  0
 13 14  1  0
 14 15  1  0
 16 15  1  0
 17 13  1  0
 17 16  1  0
 17 18  1  1
 19 18  2  0
 20 21  1  0
 21 22  1  0
 22 24  1  0
 22 23  1  6
 24 25  1  6
 25 18  1  0
 26 24  1  0
 26 28  1  0
 27 26  2  0
M  END
$$$$
