ACC.pdb
     RDKit          3D

 18 17  0  0  1  0  0  0  0  0999 V2000
    9.3632  -17.7634   21.4862 C   0  0  0  0  0  0  0  0  0  0  0  0
    8.9656  -16.3453   21.2407 C   0  0  2  0  0  0  0  0  0  0  0  0
    9.7446  -15.8178   20.1366 N   0  0  0  0  0  0  0  0  0  0  0  0
    9.1395  -15.4867   22.4632 C   0  0  0  0  0  0  0  0  0  0  0  0
   10.2261  -14.8875   22.6484 O   0  0  0  0  0  0  0  0  0  0  0  0
    8.0685  -15.3733   23.3816 N   0  0  0  0  0  0  0  0  0  0  0  0
    8.1738  -14.5515   24.5620 C   0  0  1  0  0  0  0  0  0  0  0  0
    6.7852  -14.2549   25.0385 C   0  0  0  0  0  0  0  0  0  0  0  0
    6.7176  -13.2932   26.5660 S   0  0  0  0  0  0  0  0  0  0  0  0
    8.9984  -15.2637   25.5670 C   0  0  0  0  0  0  0  0  0  0  0  0
    9.0382  -16.5459   25.5506 O   0  0  0  0  0  0  0  0  0  0  0  0
    9.7708  -14.6549   26.5721 N   0  0  0  0  0  0  0  0  0  0  0  0
   10.7170  -15.4560   27.3399 C   0  0  1  0  0  0  0  0  0  0  0  0
   11.4308  -14.6037   28.3746 C   0  0  0  0  0  0  0  0  0  0  0  0
   10.3167  -13.5048   29.2552 S   0  0  0  0  0  0  0  0  0  0  0  0
   10.0346  -16.6042   27.9913 C   0  0  0  0  0  0  0  0  0  0  0  0
   10.6218  -17.4996   28.6151 O   0  0  0  0  0  0  0  0  0  0  0  0
    8.6510  -16.6547   27.8797 O   0  0  0  0  0  0  0  0  0  0  0  0
  2  1  1  1
  2  3  1  0
  4  5  2  0
  4  2  1  0
  6  4  1  0
  7  6  1  0
  7  8  1  1
  9  8  1  0
 10  7  1  0
 10 12  1  0
 11 10  2  0
 13 12  1  0
 13 16  1  0
 13 14  1  1
 14 15  1  0
 16 18  1  0
 17 16  2  0
M  END
$$$$
