ACC.pdb
     RDKit          3D

 18 17  0  0  1  0  0  0  0  0999 V2000
    8.4646  -12.5503   19.4818 C   0  0  0  0  0  0  0  0  0  0  0  0
    8.3797  -14.0376   19.5827 C   0  0  2  0  0  0  0  0  0  0  0  0
    7.8165  -14.5658   18.3547 N   0  0  0  0  0  0  0  0  0  0  0  0
    7.5657  -14.4813   20.7670 C   0  0  0  0  0  0  0  0  0  0  0  0
    6.3429  -14.7219   20.6214 O   0  0  0  0  0  0  0  0  0  0  0  0
    8.2000  -14.6181   22.0247 N   0  0  0  0  0  0  0  0  0  0  0  0
    7.5059  -15.1728   23.1607 C   0  0  1  0  0  0  0  0  0  0  0  0
    7.6734  -16.6606   23.1175 C   0  0  0  0  0  0  0  0  0  0  0  0
    7.0818  -17.5142   24.5952 S   0  0  0  0  0  0  0  0  0  0  0  0
    8.0462  -14.5581   24.3966 C   0  0  0  0  0  0  0  0  0  0  0  0
    9.3156  -14.4281   24.5291 O   0  0  0  0  0  0  0  0  0  0  0  0
    7.2811  -14.0843   25.4772 N   0  0  0  0  0  0  0  0  0  0  0  0
    7.9513  -13.5332   26.6492 C   0  0  1  0  0  0  0  0  0  0  0  0
    6.9839  -12.7203   27.4917 C   0  0  0  0  0  0  0  0  0  0  0  0
    5.6164  -12.0599   26.5336 S   0  0  0  0  0  0  0  0  0  0  0  0
    8.5717  -14.6114   27.4621 C   0  0  0  0  0  0  0  0  0  0  0  0
    8.4536  -15.8209   27.2196 O   0  0  0  0  0  0  0  0  0  0  0  0
    9.3267  -14.2129   28.5578 O   0  0  0  0  0  0  0  0  0  0  0  0
  2  1  1  6
  2  3  1  0
  4  5  2  0
  4  2  1  0
  6  4  1  0
  7  6  1  0
  7  8  1  1
  9  8  1  0
 10  7  1  0
 10 12  1  0
 11 10  2  0
 13 12  1  0
 13 16  1  0
 13 14  1  1
 14 15  1  0
 16 18  1  0
 17 16  2  0
M  END
$$$$
