ACC.pdb
     RDKit          3D

 18 17  0  0  1  0  0  0  0  0999 V2000
   10.1208  -18.4019   21.4105 C   0  0  0  0  0  0  0  0  0  0  0  0
    9.7019  -16.9992   21.1167 C   0  0  2  0  0  0  0  0  0  0  0  0
   10.5503  -16.4590   20.0714 N   0  0  0  0  0  0  0  0  0  0  0  0
    9.7520  -16.1235   22.3384 C   0  0  0  0  0  0  0  0  0  0  0  0
   10.7970  -15.4778   22.5937 O   0  0  0  0  0  0  0  0  0  0  0  0
    8.6141  -16.0472   23.1766 N   0  0  0  0  0  0  0  0  0  0  0  0
    8.5658  -15.1421   24.2984 C   0  0  1  0  0  0  0  0  0  0  0  0
    7.1268  -14.9399   24.6616 C   0  0  0  0  0  0  0  0  0  0  0  0
    6.8692  -13.8676   26.0920 S   0  0  0  0  0  0  0  0  0  0  0  0
    9.3749  -15.7086   25.4036 C   0  0  0  0  0  0  0  0  0  0  0  0
    9.5411  -16.9789   25.4718 O   0  0  0  0  0  0  0  0  0  0  0  0
   10.0031  -14.9685   26.4210 N   0  0  0  0  0  0  0  0  0  0  0  0
   10.8010  -15.6586   27.4278 C   0  0  1  0  0  0  0  0  0  0  0  0
   11.3994  -14.6697   28.4131 C   0  0  0  0  0  0  0  0  0  0  0  0
   10.3057  -13.2883   28.7590 S   0  0  0  0  0  0  0  0  0  0  0  0
    9.9893  -16.6787   28.1410 C   0  0  0  0  0  0  0  0  0  0  0  0
    8.7611  -16.7959   28.0249 O   0  0  0  0  0  0  0  0  0  0  0  0
   10.6735  -17.5439   28.9853 O   0  0  0  0  0  0  0  0  0  0  0  0
  2  1  1  1
  2  3  1  0
  4  5  2  0
  4  2  1  0
  6  4  1  0
  7  6  1  0
  7  8  1  1
  9  8  1  0
 10  7  1  0
 10 12  1  0
 11 10  2  0
 13 12  1  0
 13 16  1  0
 13 14  1  1
 14 15  1  0
 16 18  1  0
 17 16  2  0
M  END
$$$$
