ACC.pdb
     RDKit          3D

 18 17  0  0  1  0  0  0  0  0999 V2000
    8.3401  -12.4509   19.4263 C   0  0  0  0  0  0  0  0  0  0  0  0
    8.4336  -13.9409   19.4534 C   0  0  2  0  0  0  0  0  0  0  0  0
    8.0131  -14.4667   18.1685 N   0  0  0  0  0  0  0  0  0  0  0  0
    7.6121  -14.5416   20.5608 C   0  0  0  0  0  0  0  0  0  0  0  0
    6.5999  -15.2268   20.2778 O   0  0  0  0  0  0  0  0  0  0  0  0
    8.0010  -14.3196   21.9034 N   0  0  0  0  0  0  0  0  0  0  0  0
    7.3481  -14.9959   22.9971 C   0  0  1  0  0  0  0  0  0  0  0  0
    7.4494  -16.4696   22.7497 C   0  0  0  0  0  0  0  0  0  0  0  0
    6.8578  -17.4910   24.1169 S   0  0  0  0  0  0  0  0  0  0  0  0
    7.9819  -14.5702   24.2676 C   0  0  0  0  0  0  0  0  0  0  0  0
    9.2617  -14.5290   24.3470 O   0  0  0  0  0  0  0  0  0  0  0  0
    7.2983  -14.1916   25.4368 N   0  0  0  0  0  0  0  0  0  0  0  0
    8.0546  -13.7751   26.6120 C   0  0  1  0  0  0  0  0  0  0  0  0
    7.2430  -12.8142   27.4633 C   0  0  0  0  0  0  0  0  0  0  0  0
    5.9838  -11.9476   26.5212 S   0  0  0  0  0  0  0  0  0  0  0  0
    8.4793  -14.9514   27.4146 C   0  0  0  0  0  0  0  0  0  0  0  0
    8.1135  -16.1142   27.1917 O   0  0  0  0  0  0  0  0  0  0  0  0
    9.3408  -14.7061   28.4762 O   0  0  0  0  0  0  0  0  0  0  0  0
  2  1  1  6
  2  3  1  0
  4  5  2  0
  4  2  1  0
  6  4  1  0
  7  6  1  0
  7  8  1  6
  9  8  1  0
 10  7  1  0
 10 12  1  0
 11 10  2  0
 13 12  1  0
 13 16  1  0
 13 14  1  1
 14 15  1  0
 16 18  1  0
 17 16  2  0
M  END
$$$$
