ACC.pdb
     RDKit          3D

 18 17  0  0  1  0  0  0  0  0999 V2000
    6.6251  -16.5516   21.6496 C   0  0  0  0  0  0  0  0  0  0  0  0
    7.6642  -15.4798   21.6788 C   0  0  2  0  0  0  0  0  0  0  0  0
    8.6171  -15.7126   20.6102 N   0  0  0  0  0  0  0  0  0  0  0  0
    8.3698  -15.4085   23.0051 C   0  0  0  0  0  0  0  0  0  0  0  0
    9.4558  -16.0171   23.1610 O   0  0  0  0  0  0  0  0  0  0  0  0
    7.7904  -14.6530   24.0523 N   0  0  0  0  0  0  0  0  0  0  0  0
    8.4367  -14.5270   25.3354 C   0  0  1  0  0  0  0  0  0  0  0  0
    7.8769  -13.3140   26.0126 C   0  0  0  0  0  0  0  0  0  0  0  0
    8.5081  -13.0427   27.6831 S   0  0  0  0  0  0  0  0  0  0  0  0
    8.2224  -15.7773   26.1022 C   0  0  0  0  0  0  0  0  0  0  0  0
    7.0335  -16.2451   26.2194 O   0  0  0  0  0  0  0  0  0  0  0  0
    9.2261  -16.5311   26.7361 N   0  0  0  0  0  0  0  0  0  0  0  0
    8.8687  -17.7475   27.4566 C   0  0  1  0  0  0  0  0  0  0  0  0
    8.5860  -18.8841   26.4897 C   0  0  0  0  0  0  0  0  0  0  0  0
    6.8719  -19.4175   26.5294 S   0  0  0  0  0  0  0  0  0  0  0  0
    9.9384  -18.1314   28.4140 C   0  0  0  0  0  0  0  0  0  0  0  0
    9.8855  -19.1231   29.1551 O   0  0  0  0  0  0  0  0  0  0  0  0
   11.0582  -17.3110   28.4625 O   0  0  0  0  0  0  0  0  0  0  0  0
  2  1  1  1
  2  3  1  0
  4  5  2  0
  4  2  1  0
  6  4  1  0
  7  6  1  0
  7  8  1  1
  9  8  1  0
 10  7  1  0
 10 12  1  0
 11 10  2  0
 13 12  1  0
 13 16  1  0
 13 14  1  6
 14 15  1  0
 16 18  1  0
 17 16  2  0
M  END
$$$$
