ACC.pdb
     RDKit          3D

 18 17  0  0  1  0  0  0  0  0999 V2000
    6.6776  -15.2553   20.7808 C   0  0  0  0  0  0  0  0  0  0  0  0
    7.1280  -13.8607   21.0665 C   0  0  2  0  0  0  0  0  0  0  0  0
    8.0278  -13.4271   20.0146 N   0  0  0  0  0  0  0  0  0  0  0  0
    7.7949  -13.7428   22.4094 C   0  0  0  0  0  0  0  0  0  0  0  0
    9.0423  -13.8491   22.4916 O   0  0  0  0  0  0  0  0  0  0  0  0
    6.9967  -13.5136   23.5555 N   0  0  0  0  0  0  0  0  0  0  0  0
    7.5837  -13.3788   24.8660 C   0  0  1  0  0  0  0  0  0  0  0  0
    6.5990  -12.6608   25.7367 C   0  0  0  0  0  0  0  0  0  0  0  0
    7.0615  -12.6010   27.4817 S   0  0  0  0  0  0  0  0  0  0  0  0
    7.9382  -14.7267   25.3707 C   0  0  0  0  0  0  0  0  0  0  0  0
    7.0561  -15.6579   25.3453 O   0  0  0  0  0  0  0  0  0  0  0  0
    9.1890  -15.1027   25.8920 N   0  0  0  0  0  0  0  0  0  0  0  0
    9.3623  -16.4333   26.4630 C   0  0  1  0  0  0  0  0  0  0  0  0
   10.3620  -17.2415   25.6543 C   0  0  0  0  0  0  0  0  0  0  0  0
   10.1260  -17.0635   23.8832 S   0  0  0  0  0  0  0  0  0  0  0  0
    9.7876  -16.3499   27.8844 C   0  0  0  0  0  0  0  0  0  0  0  0
   10.0466  -17.3338   28.5919 O   0  0  0  0  0  0  0  0  0  0  0  0
    9.8941  -15.0777   28.4318 O   0  0  0  0  0  0  0  0  0  0  0  0
  2  1  1  6
  2  3  1  0
  4  5  2  0
  4  2  1  0
  6  4  1  0
  7  6  1  0
  7  8  1  1
  9  8  1  0
 10  7  1  0
 10 12  1  0
 11 10  2  0
 13 12  1  0
 13 16  1  0
 13 14  1  6
 14 15  1  0
 16 18  1  0
 17 16  2  0
M  END
$$$$
