ACC.pdb
     RDKit          3D

 18 17  0  0  1  0  0  0  0  0999 V2000
    6.7620  -18.3317   18.8880 C   0  0  0  0  0  0  0  0  0  0  0  0
    7.2100  -16.9384   18.5921 C   0  0  2  0  0  0  0  0  0  0  0  0
    8.0122  -16.9439   17.3835 N   0  0  0  0  0  0  0  0  0  0  0  0
    7.9833  -16.3358   19.7327 C   0  0  0  0  0  0  0  0  0  0  0  0
    9.2363  -16.3991   19.7318 O   0  0  0  0  0  0  0  0  0  0  0  0
    7.2769  -15.7080   20.7862 N   0  0  0  0  0  0  0  0  0  0  0  0
    7.9659  -15.1262   21.9117 C   0  0  1  0  0  0  0  0  0  0  0  0
    6.9829  -14.2827   22.6638 C   0  0  0  0  0  0  0  0  0  0  0  0
    7.6127  -13.6285   24.2252 S   0  0  0  0  0  0  0  0  0  0  0  0
    8.5488  -16.2163   22.7296 C   0  0  0  0  0  0  0  0  0  0  0  0
    7.8819  -17.2993   22.8980 O   0  0  0  0  0  0  0  0  0  0  0  0
    9.8047  -16.1838   23.3614 N   0  0  0  0  0  0  0  0  0  0  0  0
   10.2722  -17.3519   24.0986 C   0  0  1  0  0  0  0  0  0  0  0  0
   11.6433  -17.7853   23.6100 C   0  0  0  0  0  0  0  0  0  0  0  0
   12.8081  -16.4220   23.5154 S   0  0  0  0  0  0  0  0  0  0  0  0
   10.3007  -17.0815   25.5595 C   0  0  0  0  0  0  0  0  0  0  0  0
   10.5310  -17.9412   26.4217 O   0  0  0  0  0  0  0  0  0  0  0  0
   10.0505  -15.7748   25.9587 O   0  0  0  0  0  0  0  0  0  0  0  0
  2  1  1  1
  2  3  1  0
  4  5  2  0
  4  2  1  0
  6  4  1  0
  7  6  1  0
  7  8  1  1
  9  8  1  0
 10  7  1  0
 10 12  1  0
 11 10  2  0
 13 12  1  0
 13 16  1  0
 13 14  1  6
 14 15  1  0
 16 18  1  0
 17 16  2  0
M  END
$$$$
