ACC.pdb
     RDKit          3D

 18 17  0  0  1  0  0  0  0  0999 V2000
    0.0784  -26.4417   28.3558 C   0  0  0  0  0  0  0  0  0  0  0  0
   -1.0104  -27.4633   28.3436 C   0  0  2  0  0  0  0  0  0  0  0  0
   -0.5751  -28.6124   27.5727 N   0  0  0  0  0  0  0  0  0  0  0  0
   -2.2969  -26.9161   27.7891 C   0  0  0  0  0  0  0  0  0  0  0  0
   -2.4479  -26.8308   26.5466 O   0  0  0  0  0  0  0  0  0  0  0  0
   -3.3131  -26.5076   28.6856 N   0  0  0  0  0  0  0  0  0  0  0  0
   -4.5831  -26.0170   28.2098 C   0  0  1  0  0  0  0  0  0  0  0  0
   -5.5156  -27.1846   28.1076 C   0  0  0  0  0  0  0  0  0  0  0  0
   -7.2599  -26.7298   27.9942 S   0  0  0  0  0  0  0  0  0  0  0  0
   -5.0638  -24.9626   29.1341 C   0  0  0  0  0  0  0  0  0  0  0  0
   -4.9311  -25.1295   30.3992 O   0  0  0  0  0  0  0  0  0  0  0  0
   -5.6710  -23.7532   28.7515 N   0  0  0  0  0  0  0  0  0  0  0  0
   -6.0413  -22.7777   29.7702 C   0  0  1  0  0  0  0  0  0  0  0  0
   -5.0754  -21.6057   29.7717 C   0  0  0  0  0  0  0  0  0  0  0  0
   -4.8955  -20.8539   28.1510 S   0  0  0  0  0  0  0  0  0  0  0  0
   -7.4355  -22.3041   29.5699 C   0  0  0  0  0  0  0  0  0  0  0  0
   -8.1525  -22.6359   28.6152 O   0  0  0  0  0  0  0  0  0  0  0  0
   -7.9445  -21.4353   30.5268 O   0  0  0  0  0  0  0  0  0  0  0  0
  2  1  1  6
  2  3  1  0
  4  5  2  0
  4  2  1  0
  6  4  1  0
  7  6  1  0
  7  8  1  1
  9  8  1  0
 10  7  1  0
 10 12  1  0
 11 10  2  0
 13 12  1  0
 13 16  1  0
 13 14  1  6
 14 15  1  0
 16 18  1  0
 17 16  2  0
M  END
$$$$
