ACC.pdb
     RDKit          3D

 18 17  0  0  1  0  0  0  0  0999 V2000
    7.6751  -13.6944   19.8993 C   0  0  0  0  0  0  0  0  0  0  0  0
    8.2077  -14.7200   20.8448 C   0  0  2  0  0  0  0  0  0  0  0  0
    7.3256  -15.8715   20.8429 N   0  0  0  0  0  0  0  0  0  0  0  0
    8.3632  -14.1802   22.2400 C   0  0  0  0  0  0  0  0  0  0  0  0
    9.0558  -13.1517   22.4313 O   0  0  0  0  0  0  0  0  0  0  0  0
    7.7219  -14.8476   23.3107 N   0  0  0  0  0  0  0  0  0  0  0  0
    7.7259  -14.3034   24.6463 C   0  0  1  0  0  0  0  0  0  0  0  0
    6.3475  -14.4639   25.2099 C   0  0  0  0  0  0  0  0  0  0  0  0
    6.0777  -13.5850   26.7646 S   0  0  0  0  0  0  0  0  0  0  0  0
    8.7679  -14.9964   25.4406 C   0  0  0  0  0  0  0  0  0  0  0  0
    9.2619  -16.0966   25.0030 O   0  0  0  0  0  0  0  0  0  0  0  0
    9.2903  -14.5538   26.6690 N   0  0  0  0  0  0  0  0  0  0  0  0
   10.3382  -15.3252   27.3274 C   0  0  1  0  0  0  0  0  0  0  0  0
   10.8176  -14.6209   28.5848 C   0  0  0  0  0  0  0  0  0  0  0  0
   10.6625  -12.8351   28.4807 S   0  0  0  0  0  0  0  0  0  0  0  0
    9.8663  -16.6977   27.6464 C   0  0  0  0  0  0  0  0  0  0  0  0
    8.7044  -17.0918   27.4725 O   0  0  0  0  0  0  0  0  0  0  0  0
   10.8058  -17.5758   28.1716 O   0  0  0  0  0  0  0  0  0  0  0  0
  2  1  1  6
  2  3  1  0
  4  5  2  0
  4  2  1  0
  6  4  1  0
  7  6  1  0
  7  8  1  1
  9  8  1  0
 10  7  1  0
 10 12  1  0
 11 10  2  0
 13 12  1  0
 13 16  1  0
 13 14  1  1
 14 15  1  0
 16 18  1  0
 17 16  2  0
M  END
$$$$
