ACC.pdb
     RDKit          3D

 18 17  0  0  1  0  0  0  0  0999 V2000
    7.9750  -17.3732   15.4133 C   0  0  0  0  0  0  0  0  0  0  0  0
    8.2620  -15.9093   15.3498 C   0  0  2  0  0  0  0  0  0  0  0  0
    9.1622  -15.6493   14.2424 N   0  0  0  0  0  0  0  0  0  0  0  0
    8.8459  -15.3885   16.6343 C   0  0  0  0  0  0  0  0  0  0  0  0
   10.0773  -15.5033   16.8449 O   0  0  0  0  0  0  0  0  0  0  0  0
    7.9891  -14.7778   17.5809 N   0  0  0  0  0  0  0  0  0  0  0  0
    8.5029  -14.2047   18.8006 C   0  0  1  0  0  0  0  0  0  0  0  0
    7.4751  -13.2505   19.3263 C   0  0  0  0  0  0  0  0  0  0  0  0
    7.7736  -12.7028   21.0215 S   0  0  0  0  0  0  0  0  0  0  0  0
    8.8219  -15.3013   19.7455 C   0  0  0  0  0  0  0  0  0  0  0  0
    8.0802  -16.3480   19.7649 O   0  0  0  0  0  0  0  0  0  0  0  0
    9.8945  -15.3124   20.6548 N   0  0  0  0  0  0  0  0  0  0  0  0
   10.1113  -16.4800   21.5010 C   0  0  1  0  0  0  0  0  0  0  0  0
   11.5888  -16.8223   21.5803 C   0  0  0  0  0  0  0  0  0  0  0  0
   12.5611  -15.5222   22.3476 S   0  0  0  0  0  0  0  0  0  0  0  0
    9.5531  -16.2614   22.8608 C   0  0  0  0  0  0  0  0  0  0  0  0
    9.0669  -15.1898   23.2491 O   0  0  0  0  0  0  0  0  0  0  0  0
    9.5901  -17.3417   23.7332 O   0  0  0  0  0  0  0  0  0  0  0  0
  2  1  1  1
  2  3  1  0
  4  5  2  0
  4  2  1  0
  6  4  1  0
  7  6  1  0
  7  8  1  1
  9  8  1  0
 10  7  1  0
 10 12  1  0
 11 10  2  0
 13 12  1  0
 13 16  1  0
 13 14  1  1
 14 15  1  0
 16 18  1  0
 17 16  2  0
M  END
$$$$
