ACC.pdb
     RDKit          3D

 18 17  0  0  1  0  0  0  0  0999 V2000
    7.8315  -13.3995   19.7528 C   0  0  0  0  0  0  0  0  0  0  0  0
    7.5606  -14.5078   20.7160 C   0  0  2  0  0  0  0  0  0  0  0  0
    6.1275  -14.7072   20.8200 N   0  0  0  0  0  0  0  0  0  0  0  0
    8.1531  -14.2396   22.0721 C   0  0  0  0  0  0  0  0  0  0  0  0
    9.3967  -14.1251   22.1917 O   0  0  0  0  0  0  0  0  0  0  0  0
    7.2905  -14.1220   23.1880 N   0  0  0  0  0  0  0  0  0  0  0  0
    7.8045  -13.8797   24.5136 C   0  0  1  0  0  0  0  0  0  0  0  0
    7.0002  -12.7717   25.1208 C   0  0  0  0  0  0  0  0  0  0  0  0
    5.5611  -13.3311   26.0582 S   0  0  0  0  0  0  0  0  0  0  0  0
    7.7411  -15.1421   25.2879 C   0  0  0  0  0  0  0  0  0  0  0  0
    6.6368  -15.7935   25.3359 O   0  0  0  0  0  0  0  0  0  0  0  0
    8.8071  -15.7202   25.9998 N   0  0  0  0  0  0  0  0  0  0  0  0
    8.7089  -17.1043   26.4484 C   0  0  1  0  0  0  0  0  0  0  0  0
    8.5635  -18.0459   25.2657 C   0  0  0  0  0  0  0  0  0  0  0  0
    8.5099  -19.7722   25.7568 S   0  0  0  0  0  0  0  0  0  0  0  0
    9.8869  -17.4803   27.2724 C   0  0  0  0  0  0  0  0  0  0  0  0
   10.9676  -16.8740   27.2585 O   0  0  0  0  0  0  0  0  0  0  0  0
    9.7427  -18.5846   28.1026 O   0  0  0  0  0  0  0  0  0  0  0  0
  2  1  1  6
  2  3  1  0
  4  5  2  0
  4  2  1  0
  6  4  1  0
  7  6  1  0
  7  8  1  1
  9  8  1  0
 10  7  1  0
 10 12  1  0
 11 10  2  0
 13 12  1  0
 13 16  1  0
 13 14  1  6
 14 15  1  0
 16 18  1  0
 17 16  2  0
M  END
$$$$
