ACC.pdb
     RDKit          3D

 18 17  0  0  1  0  0  0  0  0999 V2000
    6.5361  -16.0683   21.1730 C   0  0  0  0  0  0  0  0  0  0  0  0
    7.1737  -14.7183   21.1937 C   0  0  2  0  0  0  0  0  0  0  0  0
    8.1247  -14.6252   20.1024 N   0  0  0  0  0  0  0  0  0  0  0  0
    7.8502  -14.4295   22.5056 C   0  0  0  0  0  0  0  0  0  0  0  0
    9.0552  -14.7420   22.6617 O   0  0  0  0  0  0  0  0  0  0  0  0
    7.1089  -13.8088   23.5393 N   0  0  0  0  0  0  0  0  0  0  0  0
    7.6726  -13.6056   24.8511 C   0  0  1  0  0  0  0  0  0  0  0  0
    6.7592  -12.6883   25.6045 C   0  0  0  0  0  0  0  0  0  0  0  0
    7.2300  -12.4290   27.3289 S   0  0  0  0  0  0  0  0  0  0  0  0
    7.8476  -14.9245   25.5046 C   0  0  0  0  0  0  0  0  0  0  0  0
    7.1355  -15.9175   25.1137 O   0  0  0  0  0  0  0  0  0  0  0  0
    8.7486  -15.2089   26.5461 N   0  0  0  0  0  0  0  0  0  0  0  0
    9.2083  -16.5779   26.7491 C   0  0  1  0  0  0  0  0  0  0  0  0
    9.9814  -17.0725   25.5391 C   0  0  0  0  0  0  0  0  0  0  0  0
   10.7382  -18.6783   25.8093 S   0  0  0  0  0  0  0  0  0  0  0  0
   10.0387  -16.6827   27.9769 C   0  0  0  0  0  0  0  0  0  0  0  0
   10.8050  -15.7945   28.3763 O   0  0  0  0  0  0  0  0  0  0  0  0
    9.9317  -17.8603   28.7058 O   0  0  0  0  0  0  0  0  0  0  0  0
  2  1  1  1
  2  3  1  0
  4  5  2  0
  4  2  1  0
  6  4  1  0
  7  6  1  0
  7  8  1  1
  9  8  1  0
 10  7  1  0
 10 12  1  0
 11 10  2  0
 13 12  1  0
 13 16  1  0
 13 14  1  6
 14 15  1  0
 16 18  1  0
 17 16  2  0
M  END
$$$$
