ACC.pdb
     RDKit          3D

 18 17  0  0  1  0  0  0  0  0999 V2000
    8.1846  -19.5534   18.4636 C   0  0  0  0  0  0  0  0  0  0  0  0
    8.2549  -18.1030   18.1159 C   0  0  2  0  0  0  0  0  0  0  0  0
    8.9514  -17.9505   16.8527 N   0  0  0  0  0  0  0  0  0  0  0  0
    8.9301  -17.2936   19.1888 C   0  0  0  0  0  0  0  0  0  0  0  0
   10.1481  -17.0139   19.0778 O   0  0  0  0  0  0  0  0  0  0  0  0
    8.1729  -16.8636   20.3046 N   0  0  0  0  0  0  0  0  0  0  0  0
    8.7352  -15.9869   21.3022 C   0  0  1  0  0  0  0  0  0  0  0  0
    7.6006  -15.3662   22.0576 C   0  0  0  0  0  0  0  0  0  0  0  0
    8.1088  -14.4266   23.5142 S   0  0  0  0  0  0  0  0  0  0  0  0
    9.6530  -16.7704   22.1629 C   0  0  0  0  0  0  0  0  0  0  0  0
    9.3400  -17.9729   22.4821 O   0  0  0  0  0  0  0  0  0  0  0  0
   10.8772  -16.3138   22.6829 N   0  0  0  0  0  0  0  0  0  0  0  0
   11.6659  -17.1868   23.5445 C   0  0  1  0  0  0  0  0  0  0  0  0
   13.1516  -16.9434   23.3446 C   0  0  0  0  0  0  0  0  0  0  0  0
   14.1704  -18.2053   24.1153 S   0  0  0  0  0  0  0  0  0  0  0  0
   11.2945  -17.0011   24.9714 C   0  0  0  0  0  0  0  0  0  0  0  0
   10.7583  -15.9794   25.4233 O   0  0  0  0  0  0  0  0  0  0  0  0
   11.5764  -18.0535   25.8331 O   0  0  0  0  0  0  0  0  0  0  0  0
  2  1  1  1
  2  3  1  0
  4  5  2  0
  4  2  1  0
  6  4  1  0
  7  6  1  0
  7  8  1  1
  9  8  1  0
 10  7  1  0
 10 12  1  0
 11 10  2  0
 13 12  1  0
 13 16  1  0
 13 14  1  1
 14 15  1  0
 16 18  1  0
 17 16  2  0
M  END
$$$$
