IYF.pdb
     RDKit          3D

 32 33  0  0  1  0  0  0  0  0999 V2000
   30.2389  -17.3246  -15.5301 C   0  0  0  0  0  0  0  0  0  0  0  0
   28.8725  -17.9066  -15.6276 C   0  0  0  0  0  0  0  0  0  0  0  0
   28.8143  -19.3669  -15.8759 C   0  0  2  0  0  0  0  0  0  0  0  0
   29.7414  -19.7503  -17.0090 C   0  0  0  0  0  0  0  0  0  0  0  0
   27.4535  -19.9423  -16.0607 C   0  0  2  0  0  0  0  0  0  0  0  0
   26.7402  -19.4850  -17.2023 N   0  0  0  0  0  0  0  0  0  0  0  0
   26.6098  -19.7908  -14.8486 C   0  0  0  0  0  0  0  0  0  0  0  0
   25.9064  -18.7662  -14.7243 O   0  0  0  0  0  0  0  0  0  0  0  0
   20.1731  -20.1280   -9.5829 O   0  0  0  0  0  0  0  0  0  0  0  0
   21.2139  -20.4560  -10.4111 C   0  0  0  0  0  0  0  0  0  0  0  0
   22.0897  -21.4649  -10.0631 C   0  0  0  0  0  0  0  0  0  0  0  0
   23.1402  -21.8099  -10.8793 C   0  0  0  0  0  0  0  0  0  0  0  0
   23.2976  -21.1087  -12.0752 C   0  0  0  0  0  0  0  0  0  0  0  0
   24.4451  -21.4893  -12.9245 C   0  0  0  0  0  0  0  0  0  0  0  0
   25.6501  -20.6233  -12.7267 C   0  0  2  0  0  0  0  0  0  0  0  0
   26.5925  -20.7807  -13.8438 N   0  0  0  0  0  0  0  0  0  0  0  0
   26.3173  -20.9531  -11.4560 C   0  0  0  0  0  0  0  0  0  0  0  0
   27.1441  -21.8845  -11.3352 O   0  0  0  0  0  0  0  0  0  0  0  0
   22.4324  -20.1047  -12.4290 C   0  0  0  0  0  0  0  0  0  0  0  0
   21.3802  -19.7632  -11.6058 C   0  0  0  0  0  0  0  0  0  0  0  0
   26.0067  -20.1720  -10.3014 N   0  0  0  0  0  0  0  0  0  0  0  0
   26.6252  -20.5458   -9.0450 C   0  0  1  0  0  0  0  0  0  0  0  0
   27.4584  -19.3788   -8.5744 C   0  0  0  0  0  0  0  0  0  0  0  0
   27.9840  -19.5470   -7.2080 C   0  0  0  0  0  0  0  0  0  0  0  0
   29.1162  -20.3089   -6.9340 C   0  0  0  0  0  0  0  0  0  0  0  0
   29.5939  -20.4461   -5.6489 C   0  0  0  0  0  0  0  0  0  0  0  0
   28.9105  -19.7993   -4.6279 C   0  0  0  0  0  0  0  0  0  0  0  0
   27.7865  -19.0389   -4.8747 C   0  0  0  0  0  0  0  0  0  0  0  0
   27.3208  -18.9113   -6.1677 C   0  0  0  0  0  0  0  0  0  0  0  0
   25.5610  -20.9275   -8.1116 C   0  0  0  0  0  0  0  0  0  0  0  0
   24.4461  -20.3542   -8.1862 O   0  0  0  0  0  0  0  0  0  0  0  0
   25.7157  -21.9027   -7.1327 O   0  0  0  0  0  0  0  0  0  0  0  0
  2  1  1  0
  3  2  1  0
  3  4  1  6
  5  6  1  6
  5  3  1  0
  7  5  1  0
  8  7  2  0
 10 11  2  0
 10  9  1  0
 12 11  1  0
 13 12  2  0
 14 13  1  0
 15 14  1  6
 15 16  1  0
 16  7  1  0
 17 21  1  0
 17 15  1  0
 18 17  2  0
 19 13  1  0
 19 20  2  0
 20 10  1  0
 22 23  1  1
 22 21  1  0
 23 24  1  0
 24 29  1  0
 25 24  2  0
 25 26  1  0
 26 27  2  0
 27 28  1  0
 29 28  2  0
 30 22  1  0
 30 32  1  0
 31 30  2  0
M  END
$$$$
