IYF.pdb
     RDKit          3D

 32 33  0  0  1  0  0  0  0  0999 V2000
   18.5096   -2.5491  -18.9534 C   0  0  0  0  0  0  0  0  0  0  0  0
   19.2871   -3.8041  -18.7638 C   0  0  0  0  0  0  0  0  0  0  0  0
   19.0474   -4.5197  -17.4878 C   0  0  2  0  0  0  0  0  0  0  0  0
   19.1880   -3.5743  -16.3143 C   0  0  0  0  0  0  0  0  0  0  0  0
   19.8320   -5.7686  -17.2842 C   0  0  2  0  0  0  0  0  0  0  0  0
   19.7974   -6.7007  -18.3573 N   0  0  0  0  0  0  0  0  0  0  0  0
   19.4800   -6.4528  -16.0145 C   0  0  0  0  0  0  0  0  0  0  0  0
   18.5671   -7.3052  -16.0185 O   0  0  0  0  0  0  0  0  0  0  0  0
   22.1947  -12.0661  -16.2716 O   0  0  0  0  0  0  0  0  0  0  0  0
   21.8926  -10.9854  -15.4858 C   0  0  0  0  0  0  0  0  0  0  0  0
   20.8124  -11.0289  -14.6272 C   0  0  0  0  0  0  0  0  0  0  0  0
   20.4918   -9.9561  -13.8301 C   0  0  0  0  0  0  0  0  0  0  0  0
   21.2923   -8.8165  -13.9134 C   0  0  0  0  0  0  0  0  0  0  0  0
   20.9142   -7.6727  -13.0579 C   0  0  0  0  0  0  0  0  0  0  0  0
   19.7654   -6.8770  -13.5948 C   0  0  2  0  0  0  0  0  0  0  0  0
   20.1576   -6.1550  -14.8137 N   0  0  0  0  0  0  0  0  0  0  0  0
   19.2807   -5.9254  -12.5808 C   0  0  0  0  0  0  0  0  0  0  0  0
   19.9255   -4.9146  -12.2229 O   0  0  0  0  0  0  0  0  0  0  0  0
   22.3674   -8.7642  -14.7639 C   0  0  0  0  0  0  0  0  0  0  0  0
   22.6841   -9.8439  -15.5610 C   0  0  0  0  0  0  0  0  0  0  0  0
   18.0106   -6.1660  -11.9737 N   0  0  0  0  0  0  0  0  0  0  0  0
   17.5760   -5.2576  -10.9312 C   0  0  1  0  0  0  0  0  0  0  0  0
   16.2058   -4.7470  -11.3045 C   0  0  0  0  0  0  0  0  0  0  0  0
   16.2095   -3.8704  -12.4890 C   0  0  0  0  0  0  0  0  0  0  0  0
   15.9577   -4.3499  -13.7713 C   0  0  0  0  0  0  0  0  0  0  0  0
   15.9592   -3.5101  -14.8635 C   0  0  0  0  0  0  0  0  0  0  0  0
   16.2204   -2.1634  -14.6489 C   0  0  0  0  0  0  0  0  0  0  0  0
   16.4726   -1.6648  -13.3878 C   0  0  0  0  0  0  0  0  0  0  0  0
   16.4674   -2.5193  -12.3039 C   0  0  0  0  0  0  0  0  0  0  0  0
   17.6108   -5.9806   -9.6563 C   0  0  0  0  0  0  0  0  0  0  0  0
   17.9312   -7.1949   -9.6493 O   0  0  0  0  0  0  0  0  0  0  0  0
   17.3051   -5.3917   -8.4344 O   0  0  0  0  0  0  0  0  0  0  0  0
  2  1  1  0
  3  2  1  0
  3  4  1  1
  5  6  1  6
  5  3  1  0
  7  5  1  0
  8  7  2  0
 10 11  2  0
 10  9  1  0
 12 11  1  0
 13 12  2  0
 14 13  1  0
 15 14  1  1
 15 16  1  0
 16  7  1  0
 17 21  1  0
 17 15  1  0
 18 17  2  0
 19 13  1  0
 19 20  2  0
 20 10  1  0
 22 23  1  6
 22 21  1  0
 23 24  1  0
 24 29  1  0
 25 24  2  0
 25 26  1  0
 26 27  2  0
 27 28  1  0
 29 28  2  0
 30 22  1  0
 30 32  1  0
 31 30  2  0
M  END
$$$$
