IYF.pdb
     RDKit          3D

 32 33  0  0  1  0  0  0  0  0999 V2000
   19.1211  -21.9624  -19.3609 C   0  0  0  0  0  0  0  0  0  0  0  0
   20.4684  -21.6805  -18.7947 C   0  0  0  0  0  0  0  0  0  0  0  0
   20.7902  -20.2481  -18.5892 C   0  0  2  0  0  0  0  0  0  0  0  0
   20.5357  -19.4596  -19.8557 C   0  0  0  0  0  0  0  0  0  0  0  0
   22.1360  -19.9577  -18.0223 C   0  0  2  0  0  0  0  0  0  0  0  0
   22.4514  -20.6267  -16.8081 N   0  0  0  0  0  0  0  0  0  0  0  0
   22.3794  -18.5012  -17.8700 C   0  0  0  0  0  0  0  0  0  0  0  0
   22.8016  -18.0685  -16.7770 O   0  0  0  0  0  0  0  0  0  0  0  0
   27.1599  -17.4849  -22.7949 O   0  0  0  0  0  0  0  0  0  0  0  0
   26.3707  -17.1123  -21.7390 C   0  0  0  0  0  0  0  0  0  0  0  0
   26.1437  -17.9880  -20.6961 C   0  0  0  0  0  0  0  0  0  0  0  0
   25.3555  -17.6345  -19.6272 C   0  0  0  0  0  0  0  0  0  0  0  0
   24.7884  -16.3597  -19.6254 C   0  0  0  0  0  0  0  0  0  0  0  0
   23.9321  -16.0131  -18.4724 C   0  0  0  0  0  0  0  0  0  0  0  0
   22.4693  -16.1873  -18.7387 C   0  0  2  0  0  0  0  0  0  0  0  0
   22.1420  -17.6069  -18.9348 N   0  0  0  0  0  0  0  0  0  0  0  0
   22.0661  -15.4103  -19.9230 C   0  0  0  0  0  0  0  0  0  0  0  0
   22.2761  -15.7882  -21.0971 O   0  0  0  0  0  0  0  0  0  0  0  0
   25.0083  -15.4831  -20.6575 C   0  0  0  0  0  0  0  0  0  0  0  0
   25.8003  -15.8437  -21.7272 C   0  0  0  0  0  0  0  0  0  0  0  0
   21.4017  -14.1619  -19.7239 N   0  0  0  0  0  0  0  0  0  0  0  0
   20.9917  -13.4187  -20.8989 C   0  0  1  0  0  0  0  0  0  0  0  0
   20.0491  -14.2905  -21.6919 C   0  0  0  0  0  0  0  0  0  0  0  0
   18.7257  -14.4466  -21.0630 C   0  0  0  0  0  0  0  0  0  0  0  0
   18.4166  -15.5222  -20.2352 C   0  0  0  0  0  0  0  0  0  0  0  0
   17.1743  -15.6437  -19.6519 C   0  0  0  0  0  0  0  0  0  0  0  0
   16.2327  -14.6574  -19.9140 C   0  0  0  0  0  0  0  0  0  0  0  0
   16.5156  -13.5825  -20.7307 C   0  0  0  0  0  0  0  0  0  0  0  0
   17.7649  -13.4753  -21.3074 C   0  0  0  0  0  0  0  0  0  0  0  0
   20.3950  -12.1564  -20.4516 C   0  0  0  0  0  0  0  0  0  0  0  0
   19.9286  -11.3628  -21.3059 O   0  0  0  0  0  0  0  0  0  0  0  0
   20.3137  -11.7799  -19.1156 O   0  0  0  0  0  0  0  0  0  0  0  0
  2  1  1  0
  3  2  1  0
  3  4  1  6
  5  6  1  1
  5  3  1  0
  7  5  1  0
  8  7  2  0
 10 11  2  0
 10  9  1  0
 12 11  1  0
 13 12  2  0
 14 13  1  0
 15 14  1  6
 15 16  1  0
 16  7  1  0
 17 21  1  0
 17 15  1  0
 18 17  2  0
 19 13  1  0
 19 20  2  0
 20 10  1  0
 22 23  1  1
 22 21  1  0
 23 24  1  0
 24 29  1  0
 25 24  2  0
 25 26  1  0
 26 27  2  0
 27 28  1  0
 29 28  2  0
 30 22  1  0
 30 32  1  0
 31 30  2  0
M  END
$$$$
