IYF.pdb
     RDKit          3D

 32 33  0  0  1  0  0  0  0  0999 V2000
   18.6835  -18.4066  -16.6569 C   0  0  0  0  0  0  0  0  0  0  0  0
   19.4457  -19.6542  -16.3781 C   0  0  0  0  0  0  0  0  0  0  0  0
   20.8570  -19.4643  -15.9660 C   0  0  2  0  0  0  0  0  0  0  0  0
   21.7958  -19.8997  -17.0704 C   0  0  0  0  0  0  0  0  0  0  0  0
   21.2381  -20.0580  -14.6549 C   0  0  2  0  0  0  0  0  0  0  0  0
   20.4991  -19.5976  -13.5310 N   0  0  0  0  0  0  0  0  0  0  0  0
   22.6924  -19.9341  -14.3834 C   0  0  0  0  0  0  0  0  0  0  0  0
   23.1419  -18.8421  -13.9763 O   0  0  0  0  0  0  0  0  0  0  0  0
   23.8521  -21.0117   -8.0673 O   0  0  0  0  0  0  0  0  0  0  0  0
   24.2651  -21.2131   -9.3579 C   0  0  0  0  0  0  0  0  0  0  0  0
   23.3751  -21.6656  -10.3114 C   0  0  0  0  0  0  0  0  0  0  0  0
   23.7685  -21.8741  -11.6116 C   0  0  0  0  0  0  0  0  0  0  0  0
   25.0987  -21.6144  -11.9427 C   0  0  0  0  0  0  0  0  0  0  0  0
   25.4975  -21.8637  -13.3433 C   0  0  0  0  0  0  0  0  0  0  0  0
   24.9966  -20.8289  -14.3022 C   0  0  2  0  0  0  0  0  0  0  0  0
   23.5660  -21.0245  -14.5776 N   0  0  0  0  0  0  0  0  0  0  0  0
   25.7620  -20.8795  -15.5593 C   0  0  0  0  0  0  0  0  0  0  0  0
   25.4280  -21.5816  -16.5396 O   0  0  0  0  0  0  0  0  0  0  0  0
   25.9900  -21.1648  -11.0018 C   0  0  0  0  0  0  0  0  0  0  0  0
   25.5892  -20.9574   -9.6988 C   0  0  0  0  0  0  0  0  0  0  0  0
   26.9459  -20.0881  -15.6675 N   0  0  0  0  0  0  0  0  0  0  0  0
   27.6149  -20.0435  -16.9526 C   0  0  1  0  0  0  0  0  0  0  0  0
   26.6752  -19.3974  -17.9410 C   0  0  0  0  0  0  0  0  0  0  0  0
   26.3755  -17.9885  -17.6302 C   0  0  0  0  0  0  0  0  0  0  0  0
   27.2776  -16.9605  -17.8890 C   0  0  0  0  0  0  0  0  0  0  0  0
   26.9728  -15.6490  -17.5966 C   0  0  0  0  0  0  0  0  0  0  0  0
   25.7329  -15.3789  -17.0330 C   0  0  0  0  0  0  0  0  0  0  0  0
   24.8225  -16.3805  -16.7675 C   0  0  0  0  0  0  0  0  0  0  0  0
   25.1431  -17.6893  -17.0664 C   0  0  0  0  0  0  0  0  0  0  0  0
   28.8797  -19.3225  -16.7805 C   0  0  0  0  0  0  0  0  0  0  0  0
   29.6644  -19.2208  -17.7558 O   0  0  0  0  0  0  0  0  0  0  0  0
   29.2683  -18.7349  -15.5817 O   0  0  0  0  0  0  0  0  0  0  0  0
  2  1  1  0
  3  2  1  0
  3  4  1  6
  5  6  1  1
  5  3  1  0
  7  5  1  0
  8  7  2  0
 10 11  2  0
 10  9  1  0
 12 11  1  0
 13 12  2  0
 14 13  1  0
 15 14  1  1
 15 16  1  0
 16  7  1  0
 17 21  1  0
 17 15  1  0
 18 17  2  0
 19 13  1  0
 19 20  2  0
 20 10  1  0
 22 23  1  6
 22 21  1  0
 23 24  1  0
 24 29  1  0
 25 24  2  0
 25 26  1  0
 26 27  2  0
 27 28  1  0
 29 28  2  0
 30 22  1  0
 30 32  1  0
 31 30  2  0
M  END
$$$$
