IYF.pdb
     RDKit          3D

 32 33  0  0  1  0  0  0  0  0999 V2000
   27.4410  -14.5172  -15.6334 C   0  0  0  0  0  0  0  0  0  0  0  0
   26.3291  -14.4773  -16.6220 C   0  0  0  0  0  0  0  0  0  0  0  0
   25.6411  -13.1715  -16.7600 C   0  0  2  0  0  0  0  0  0  0  0  0
   26.6413  -12.0366  -16.7127 C   0  0  0  0  0  0  0  0  0  0  0  0
   24.4989  -12.9361  -15.8343 C   0  0  2  0  0  0  0  0  0  0  0  0
   23.5437  -13.9861  -15.7536 N   0  0  0  0  0  0  0  0  0  0  0  0
   23.8088  -11.6506  -16.1086 C   0  0  0  0  0  0  0  0  0  0  0  0
   24.4858  -10.6037  -16.1845 O   0  0  0  0  0  0  0  0  0  0  0  0
   16.6762  -13.9392  -15.6695 O   0  0  0  0  0  0  0  0  0  0  0  0
   17.6613  -13.1140  -16.1442 C   0  0  0  0  0  0  0  0  0  0  0  0
   17.4592  -11.7494  -16.2012 C   0  0  0  0  0  0  0  0  0  0  0  0
   18.4340  -10.9037  -16.6737 C   0  0  0  0  0  0  0  0  0  0  0  0
   19.6392  -11.4652  -17.0963 C   0  0  0  0  0  0  0  0  0  0  0  0
   20.6623  -10.5342  -17.6153 C   0  0  0  0  0  0  0  0  0  0  0  0
   21.8056  -10.3150  -16.6742 C   0  0  2  0  0  0  0  0  0  0  0  0
   22.4101  -11.5966  -16.2831 N   0  0  0  0  0  0  0  0  0  0  0  0
   21.3536   -9.5863  -15.4770 C   0  0  0  0  0  0  0  0  0  0  0  0
   20.9313  -10.1543  -14.4452 O   0  0  0  0  0  0  0  0  0  0  0  0
   19.8487  -12.8199  -17.0436 C   0  0  0  0  0  0  0  0  0  0  0  0
   18.8668  -13.6634  -16.5683 C   0  0  0  0  0  0  0  0  0  0  0  0
   21.3985   -8.1589  -15.4917 N   0  0  0  0  0  0  0  0  0  0  0  0
   21.0846   -7.4593  -14.2617 C   0  0  1  0  0  0  0  0  0  0  0  0
   22.3868   -7.0635  -13.6096 C   0  0  0  0  0  0  0  0  0  0  0  0
   23.2153   -6.1767  -14.4455 C   0  0  0  0  0  0  0  0  0  0  0  0
   24.1769   -6.6664  -15.3249 C   0  0  0  0  0  0  0  0  0  0  0  0
   24.9351   -5.8183  -16.1022 C   0  0  0  0  0  0  0  0  0  0  0  0
   24.7125   -4.4530  -15.9838 C   0  0  0  0  0  0  0  0  0  0  0  0
   23.7655   -3.9442  -15.1196 C   0  0  0  0  0  0  0  0  0  0  0  0
   23.0140   -4.8070  -14.3478 C   0  0  0  0  0  0  0  0  0  0  0  0
   20.2202   -6.3229  -14.5944 C   0  0  0  0  0  0  0  0  0  0  0  0
   19.9819   -6.0670  -15.8006 O   0  0  0  0  0  0  0  0  0  0  0  0
   19.6390   -5.4982  -13.6377 O   0  0  0  0  0  0  0  0  0  0  0  0
  2  1  1  0
  3  2  1  0
  3  4  1  1
  5  6  1  6
  5  3  1  0
  7  5  1  0
  8  7  2  0
 10 11  2  0
 10  9  1  0
 12 11  1  0
 13 12  2  0
 14 13  1  0
 15 14  1  6
 15 16  1  0
 16  7  1  0
 17 21  1  0
 17 15  1  0
 18 17  2  0
 19 13  1  0
 19 20  2  0
 20 10  1  0
 22 23  1  6
 22 21  1  0
 23 24  1  0
 24 29  1  0
 25 24  2  0
 25 26  1  0
 26 27  2  0
 27 28  1  0
 29 28  2  0
 30 22  1  0
 30 32  1  0
 31 30  2  0
M  END
$$$$
