IYF.pdb
     RDKit          3D

 32 33  0  0  1  0  0  0  0  0999 V2000
   30.4969  -20.0190  -19.6302 C   0  0  0  0  0  0  0  0  0  0  0  0
   29.4133  -19.0035  -19.5310 C   0  0  0  0  0  0  0  0  0  0  0  0
   28.8389  -18.8096  -18.1783 C   0  0  2  0  0  0  0  0  0  0  0  0
   28.4445  -20.1396  -17.5732 C   0  0  0  0  0  0  0  0  0  0  0  0
   27.7392  -17.8112  -18.0747 C   0  0  2  0  0  0  0  0  0  0  0  0
   28.0707  -16.4854  -18.4667 N   0  0  0  0  0  0  0  0  0  0  0  0
   27.1199  -17.7950  -16.7255 C   0  0  0  0  0  0  0  0  0  0  0  0
   27.7725  -17.3350  -15.7649 O   0  0  0  0  0  0  0  0  0  0  0  0
   24.2415  -12.2701  -16.8585 O   0  0  0  0  0  0  0  0  0  0  0  0
   24.1644  -13.5721  -16.4393 C   0  0  0  0  0  0  0  0  0  0  0  0
   24.4151  -13.8952  -15.1207 C   0  0  0  0  0  0  0  0  0  0  0  0
   24.3432  -15.1947  -14.6792 C   0  0  0  0  0  0  0  0  0  0  0  0
   24.0082  -16.1830  -15.6052 C   0  0  0  0  0  0  0  0  0  0  0  0
   23.9551  -17.5727  -15.1065 C   0  0  0  0  0  0  0  0  0  0  0  0
   25.2764  -18.2753  -15.1484 C   0  0  2  0  0  0  0  0  0  0  0  0
   25.8151  -18.2883  -16.5160 N   0  0  0  0  0  0  0  0  0  0  0  0
   25.1419  -19.6537  -14.6480 C   0  0  0  0  0  0  0  0  0  0  0  0
   24.8188  -20.6201  -15.3740 O   0  0  0  0  0  0  0  0  0  0  0  0
   23.7578  -15.8712  -16.9174 C   0  0  0  0  0  0  0  0  0  0  0  0
   23.8314  -14.5654  -17.3543 C   0  0  0  0  0  0  0  0  0  0  0  0
   25.3924  -19.9028  -13.2642 N   0  0  0  0  0  0  0  0  0  0  0  0
   25.3283  -21.2748  -12.8012 C   0  0  1  0  0  0  0  0  0  0  0  0
   26.4894  -21.5014  -11.8641 C   0  0  0  0  0  0  0  0  0  0  0  0
   26.3088  -20.8718  -10.5440 C   0  0  0  0  0  0  0  0  0  0  0  0
   26.5450  -19.5173  -10.3263 C   0  0  0  0  0  0  0  0  0  0  0  0
   26.3624  -18.9487   -9.0846 C   0  0  0  0  0  0  0  0  0  0  0  0
   25.9337  -19.7689   -8.0496 C   0  0  0  0  0  0  0  0  0  0  0  0
   25.6931  -21.1135   -8.2410 C   0  0  0  0  0  0  0  0  0  0  0  0
   25.8806  -21.6679   -9.4910 C   0  0  0  0  0  0  0  0  0  0  0  0
   24.0170  -21.4827  -12.1794 C   0  0  0  0  0  0  0  0  0  0  0  0
   23.3236  -20.4843  -11.8636 O   0  0  0  0  0  0  0  0  0  0  0  0
   23.4869  -22.7405  -11.9144 O   0  0  0  0  0  0  0  0  0  0  0  0
  2  1  1  0
  3  2  1  0
  3  4  1  6
  5  6  1  1
  5  3  1  0
  7  5  1  0
  8  7  2  0
 10 11  2  0
 10  9  1  0
 12 11  1  0
 13 12  2  0
 14 13  1  0
 15 14  1  6
 15 16  1  0
 16  7  1  0
 17 21  1  0
 17 15  1  0
 18 17  2  0
 19 13  1  0
 19 20  2  0
 20 10  1  0
 22 23  1  1
 22 21  1  0
 23 24  1  0
 24 29  1  0
 25 24  2  0
 25 26  1  0
 26 27  2  0
 27 28  1  0
 29 28  2  0
 30 22  1  0
 30 32  1  0
 31 30  2  0
M  END
$$$$
