IYF.pdb
     RDKit          3D

 32 33  0  0  1  0  0  0  0  0999 V2000
   19.9611  -20.6410  -18.9336 C   0  0  0  0  0  0  0  0  0  0  0  0
   20.8099  -19.7692  -18.0765 C   0  0  0  0  0  0  0  0  0  0  0  0
   21.7719  -20.4760  -17.1976 C   0  0  2  0  0  0  0  0  0  0  0  0
   21.0444  -21.4202  -16.2650 C   0  0  0  0  0  0  0  0  0  0  0  0
   22.7377  -19.6135  -16.4626 C   0  0  2  0  0  0  0  0  0  0  0  0
   23.5068  -18.7265  -17.2645 N   0  0  0  0  0  0  0  0  0  0  0  0
   23.6372  -20.4008  -15.5821 C   0  0  0  0  0  0  0  0  0  0  0  0
   23.2196  -21.4705  -15.0905 O   0  0  0  0  0  0  0  0  0  0  0  0
   26.9065  -24.4165  -19.4945 O   0  0  0  0  0  0  0  0  0  0  0  0
   26.9506  -23.6031  -18.3930 C   0  0  0  0  0  0  0  0  0  0  0  0
   27.1045  -22.2391  -18.5402 C   0  0  0  0  0  0  0  0  0  0  0  0
   27.1511  -21.4051  -17.4488 C   0  0  0  0  0  0  0  0  0  0  0  0
   27.0380  -21.9783  -16.1818 C   0  0  0  0  0  0  0  0  0  0  0  0
   27.1086  -21.0601  -15.0265 C   0  0  0  0  0  0  0  0  0  0  0  0
   25.7774  -20.7793  -14.4020 C   0  0  2  0  0  0  0  0  0  0  0  0
   24.9462  -19.9601  -15.2958 N   0  0  0  0  0  0  0  0  0  0  0  0
   25.9499  -20.0957  -13.1091 C   0  0  0  0  0  0  0  0  0  0  0  0
   26.1744  -18.8692  -13.0047 O   0  0  0  0  0  0  0  0  0  0  0  0
   26.8851  -23.3326  -16.0261 C   0  0  0  0  0  0  0  0  0  0  0  0
   26.8390  -24.1642  -17.1251 C   0  0  0  0  0  0  0  0  0  0  0  0
   25.8567  -20.8694  -11.9124 N   0  0  0  0  0  0  0  0  0  0  0  0
   26.0815  -20.1933  -10.6502 C   0  0  1  0  0  0  0  0  0  0  0  0
   24.8648  -19.3513  -10.3535 C   0  0  0  0  0  0  0  0  0  0  0  0
   23.6365  -20.1427  -10.1629 C   0  0  0  0  0  0  0  0  0  0  0  0
   23.2863  -20.6895   -8.9316 C   0  0  0  0  0  0  0  0  0  0  0  0
   22.1286  -21.4202   -8.7753 C   0  0  0  0  0  0  0  0  0  0  0  0
   21.3155  -21.5973   -9.8867 C   0  0  0  0  0  0  0  0  0  0  0  0
   21.6413  -21.0652  -11.1168 C   0  0  0  0  0  0  0  0  0  0  0  0
   22.8045  -20.3356  -11.2569 C   0  0  0  0  0  0  0  0  0  0  0  0
   26.3583  -21.2122   -9.6330 C   0  0  0  0  0  0  0  0  0  0  0  0
   26.2408  -22.4258   -9.9338 O   0  0  0  0  0  0  0  0  0  0  0  0
   26.7495  -20.9093   -8.3336 O   0  0  0  0  0  0  0  0  0  0  0  0
  2  1  1  0
  3  2  1  0
  3  4  1  1
  5  6  1  6
  5  3  1  0
  7  5  1  0
  8  7  2  0
 10 11  2  0
 10  9  1  0
 12 11  1  0
 13 12  2  0
 14 13  1  0
 15 14  1  6
 15 16  1  0
 16  7  1  0
 17 21  1  0
 17 15  1  0
 18 17  2  0
 19 13  1  0
 19 20  2  0
 20 10  1  0
 22 23  1  1
 22 21  1  0
 23 24  1  0
 24 29  1  0
 25 24  2  0
 25 26  1  0
 26 27  2  0
 27 28  1  0
 29 28  2  0
 30 22  1  0
 30 32  1  0
 31 30  2  0
M  END
$$$$
