IYF.pdb
     RDKit          3D

 32 33  0  0  1  0  0  0  0  0999 V2000
   38.6620   -2.1134  -16.2673 C   0  0  0  0  0  0  0  0  0  0  0  0
   38.7415   -3.3187  -15.3976 C   0  0  0  0  0  0  0  0  0  0  0  0
   37.9514   -4.4886  -15.8502 C   0  0  2  0  0  0  0  0  0  0  0  0
   36.5374   -4.0733  -16.1945 C   0  0  0  0  0  0  0  0  0  0  0  0
   37.9721   -5.6755  -14.9515 C   0  0  2  0  0  0  0  0  0  0  0  0
   39.2588   -6.2032  -14.6560 N   0  0  0  0  0  0  0  0  0  0  0  0
   37.0836   -6.7621  -15.4350 C   0  0  0  0  0  0  0  0  0  0  0  0
   37.4566   -7.4670  -16.3964 O   0  0  0  0  0  0  0  0  0  0  0  0
   39.7012  -12.1480  -13.7393 O   0  0  0  0  0  0  0  0  0  0  0  0
   38.5399  -11.4361  -13.8855 C   0  0  0  0  0  0  0  0  0  0  0  0
   38.2764  -10.3573  -13.0652 C   0  0  0  0  0  0  0  0  0  0  0  0
   37.1178   -9.6296  -13.1949 C   0  0  0  0  0  0  0  0  0  0  0  0
   36.2110  -10.0133  -14.1833 C   0  0  0  0  0  0  0  0  0  0  0  0
   34.9666   -9.2238  -14.2885 C   0  0  0  0  0  0  0  0  0  0  0  0
   35.0315   -8.1373  -15.3163 C   0  0  2  0  0  0  0  0  0  0  0  0
   35.8341   -7.0068  -14.8279 N   0  0  0  0  0  0  0  0  0  0  0  0
   33.6765   -7.6781  -15.6653 C   0  0  0  0  0  0  0  0  0  0  0  0
   33.0116   -6.8938  -14.9524 O   0  0  0  0  0  0  0  0  0  0  0  0
   36.4643  -11.0840  -15.0026 C   0  0  0  0  0  0  0  0  0  0  0  0
   37.6287  -11.8102  -14.8677 C   0  0  0  0  0  0  0  0  0  0  0  0
   33.0893   -8.1504  -16.8785 N   0  0  0  0  0  0  0  0  0  0  0  0
   31.7575   -7.6853  -17.2116 C   0  0  1  0  0  0  0  0  0  0  0  0
   31.8955   -6.5721  -18.2211 C   0  0  0  0  0  0  0  0  0  0  0  0
   32.5693   -6.9879  -19.4639 C   0  0  0  0  0  0  0  0  0  0  0  0
   31.8978   -7.6436  -20.4918 C   0  0  0  0  0  0  0  0  0  0  0  0
   32.5470   -8.0166  -21.6484 C   0  0  0  0  0  0  0  0  0  0  0  0
   33.8984   -7.7185  -21.7615 C   0  0  0  0  0  0  0  0  0  0  0  0
   34.5852   -7.0696  -20.7567 C   0  0  0  0  0  0  0  0  0  0  0  0
   33.9203   -6.7025  -19.6042 C   0  0  0  0  0  0  0  0  0  0  0  0
   30.9850   -8.8325  -17.6978 C   0  0  0  0  0  0  0  0  0  0  0  0
   29.7601   -8.6897  -17.9355 O   0  0  0  0  0  0  0  0  0  0  0  0
   31.5373  -10.0899  -17.9150 O   0  0  0  0  0  0  0  0  0  0  0  0
  2  1  1  0
  3  2  1  0
  3  4  1  1
  5  6  1  6
  5  3  1  0
  7  5  1  0
  8  7  2  0
 10 11  2  0
 10  9  1  0
 12 11  1  0
 13 12  2  0
 14 13  1  0
 15 14  1  1
 15 16  1  0
 16  7  1  0
 17 21  1  0
 17 15  1  0
 18 17  2  0
 19 13  1  0
 19 20  2  0
 20 10  1  0
 22 23  1  6
 22 21  1  0
 23 24  1  0
 24 29  1  0
 25 24  2  0
 25 26  1  0
 26 27  2  0
 27 28  1  0
 29 28  2  0
 30 22  1  0
 30 32  1  0
 31 30  2  0
M  END
$$$$
