IYF.pdb
     RDKit          3D

 32 33  0  0  1  0  0  0  0  0999 V2000
   29.0000  -19.5684  -16.9429 C   0  0  0  0  0  0  0  0  0  0  0  0
   28.4280  -18.3193  -16.3704 C   0  0  0  0  0  0  0  0  0  0  0  0
   27.7155  -18.4737  -15.0796 C   0  0  2  0  0  0  0  0  0  0  0  0
   28.7017  -18.6783  -13.9499 C   0  0  0  0  0  0  0  0  0  0  0  0
   26.6301  -19.4926  -15.0527 C   0  0  2  0  0  0  0  0  0  0  0  0
   25.6669  -19.3955  -16.0938 N   0  0  0  0  0  0  0  0  0  0  0  0
   25.9432  -19.5474  -13.7377 C   0  0  0  0  0  0  0  0  0  0  0  0
   25.4062  -18.5118  -13.2911 O   0  0  0  0  0  0  0  0  0  0  0  0
   19.6427  -20.1277  -14.7414 O   0  0  0  0  0  0  0  0  0  0  0  0
   20.7222  -20.5071  -13.9881 C   0  0  0  0  0  0  0  0  0  0  0  0
   21.7342  -21.2592  -14.5504 C   0  0  0  0  0  0  0  0  0  0  0  0
   22.8258  -21.6503  -13.8127 C   0  0  0  0  0  0  0  0  0  0  0  0
   22.8831  -21.2641  -12.4733 C   0  0  0  0  0  0  0  0  0  0  0  0
   24.0594  -21.7130  -11.7002 C   0  0  0  0  0  0  0  0  0  0  0  0
   25.1877  -20.7292  -11.7008 C   0  0  2  0  0  0  0  0  0  0  0  0
   25.8896  -20.7438  -12.9923 N   0  0  0  0  0  0  0  0  0  0  0  0
   26.1326  -21.0298  -10.6119 C   0  0  0  0  0  0  0  0  0  0  0  0
   26.9424  -21.9829  -10.6481 O   0  0  0  0  0  0  0  0  0  0  0  0
   21.8821  -20.5170  -11.9061 C   0  0  0  0  0  0  0  0  0  0  0  0
   20.7893  -20.1276  -12.6515 C   0  0  0  0  0  0  0  0  0  0  0  0
   26.1262  -20.1926   -9.4548 N   0  0  0  0  0  0  0  0  0  0  0  0
   26.8833  -20.6301   -8.2989 C   0  0  1  0  0  0  0  0  0  0  0  0
   27.8779  -19.5468   -7.9604 C   0  0  0  0  0  0  0  0  0  0  0  0
   28.3049  -19.5628   -6.5501 C   0  0  0  0  0  0  0  0  0  0  0  0
   27.7150  -18.7527   -5.5840 C   0  0  0  0  0  0  0  0  0  0  0  0
   28.1260  -18.7899   -4.2694 C   0  0  0  0  0  0  0  0  0  0  0  0
   29.1513  -19.6634   -3.9323 C   0  0  0  0  0  0  0  0  0  0  0  0
   29.7510  -20.4759   -4.8718 C   0  0  0  0  0  0  0  0  0  0  0  0
   29.3278  -20.4268   -6.1846 C   0  0  0  0  0  0  0  0  0  0  0  0
   25.9349  -20.9209   -7.2193 C   0  0  0  0  0  0  0  0  0  0  0  0
   26.3340  -21.5450   -6.2051 O   0  0  0  0  0  0  0  0  0  0  0  0
   24.5980  -20.5404   -7.2525 O   0  0  0  0  0  0  0  0  0  0  0  0
  2  1  1  0
  3  2  1  0
  3  4  1  1
  5  6  1  6
  5  3  1  0
  7  5  1  0
  8  7  2  0
 10 11  2  0
 10  9  1  0
 12 11  1  0
 13 12  2  0
 14 13  1  0
 15 14  1  6
 15 16  1  0
 16  7  1  0
 17 21  1  0
 17 15  1  0
 18 17  2  0
 19 13  1  0
 19 20  2  0
 20 10  1  0
 22 23  1  1
 22 21  1  0
 23 24  1  0
 24 29  1  0
 25 24  2  0
 25 26  1  0
 26 27  2  0
 27 28  1  0
 29 28  2  0
 30 22  1  0
 30 32  1  0
 31 30  2  0
M  END
$$$$
