IYF.pdb
     RDKit          3D

 32 33  0  0  1  0  0  0  0  0999 V2000
   15.5287  -11.1702  -16.5616 C   0  0  0  0  0  0  0  0  0  0  0  0
   16.9473  -11.5312  -16.8309 C   0  0  0  0  0  0  0  0  0  0  0  0
   17.9623  -10.6861  -16.1578 C   0  0  2  0  0  0  0  0  0  0  0  0
   17.7562   -9.2282  -16.5078 C   0  0  0  0  0  0  0  0  0  0  0  0
   19.3806  -11.1002  -16.3423 C   0  0  2  0  0  0  0  0  0  0  0  0
   19.6857  -12.4384  -15.9717 N   0  0  0  0  0  0  0  0  0  0  0  0
   20.3287  -10.1684  -15.6814 C   0  0  0  0  0  0  0  0  0  0  0  0
   20.5332  -10.2816  -14.4544 O   0  0  0  0  0  0  0  0  0  0  0  0
   25.7290  -13.4039  -16.2720 O   0  0  0  0  0  0  0  0  0  0  0  0
   25.1319  -12.1719  -16.3198 C   0  0  0  0  0  0  0  0  0  0  0  0
   25.4218  -11.2199  -15.3629 C   0  0  0  0  0  0  0  0  0  0  0  0
   24.8342   -9.9779  -15.3922 C   0  0  0  0  0  0  0  0  0  0  0  0
   23.9323   -9.7046  -16.4209 C   0  0  0  0  0  0  0  0  0  0  0  0
   23.3030   -8.3678  -16.4177 C   0  0  0  0  0  0  0  0  0  0  0  0
   21.9818   -8.3292  -15.7149 C   0  0  2  0  0  0  0  0  0  0  0  0
   20.9959   -9.1651  -16.4149 N   0  0  0  0  0  0  0  0  0  0  0  0
   21.4900   -6.9443  -15.6205 C   0  0  0  0  0  0  0  0  0  0  0  0
   20.7425   -6.4205  -16.4763 O   0  0  0  0  0  0  0  0  0  0  0  0
   23.6380  -10.6445  -17.3758 C   0  0  0  0  0  0  0  0  0  0  0  0
   24.2309  -11.8890  -17.3411 C   0  0  0  0  0  0  0  0  0  0  0  0
   21.8846   -6.1571  -14.4961 N   0  0  0  0  0  0  0  0  0  0  0  0
   21.3072   -4.8347  -14.3598 C   0  0  1  0  0  0  0  0  0  0  0  0
   19.8208   -4.9978  -14.1566 C   0  0  0  0  0  0  0  0  0  0  0  0
   19.4661   -5.5415  -12.8337 C   0  0  0  0  0  0  0  0  0  0  0  0
   19.3908   -6.9093  -12.5864 C   0  0  0  0  0  0  0  0  0  0  0  0
   19.0642   -7.3950  -11.3391 C   0  0  0  0  0  0  0  0  0  0  0  0
   18.8107   -6.4769  -10.3288 C   0  0  0  0  0  0  0  0  0  0  0  0
   18.8792   -5.1171  -10.5496 C   0  0  0  0  0  0  0  0  0  0  0  0
   19.2077   -4.6466  -11.8048 C   0  0  0  0  0  0  0  0  0  0  0  0
   21.9850   -4.1561  -13.2510 C   0  0  0  0  0  0  0  0  0  0  0  0
   22.8240   -4.7911  -12.5653 O   0  0  0  0  0  0  0  0  0  0  0  0
   21.7500   -2.8293  -12.9081 O   0  0  0  0  0  0  0  0  0  0  0  0
  2  1  1  0
  3  2  1  0
  3  4  1  6
  5  6  1  1
  5  3  1  0
  7  5  1  0
  8  7  2  0
 10 11  2  0
 10  9  1  0
 12 11  1  0
 13 12  2  0
 14 13  1  0
 15 14  1  6
 15 16  1  0
 16  7  1  0
 17 21  1  0
 17 15  1  0
 18 17  2  0
 19 13  1  0
 19 20  2  0
 20 10  1  0
 22 23  1  1
 22 21  1  0
 23 24  1  0
 24 29  1  0
 25 24  2  0
 25 26  1  0
 26 27  2  0
 27 28  1  0
 29 28  2  0
 30 22  1  0
 30 32  1  0
 31 30  2  0
M  END
$$$$
