IYF.pdb
     RDKit          3D

 32 33  0  0  1  0  0  0  0  0999 V2000
   28.0782  -35.1287   -5.1790 C   0  0  0  0  0  0  0  0  0  0  0  0
   28.4201  -35.2689   -6.6207 C   0  0  0  0  0  0  0  0  0  0  0  0
   27.5024  -34.5892   -7.5659 C   0  0  2  0  0  0  0  0  0  0  0  0
   26.0636  -34.9391   -7.2534 C   0  0  0  0  0  0  0  0  0  0  0  0
   27.8091  -34.7658   -9.0121 C   0  0  2  0  0  0  0  0  0  0  0  0
   29.1398  -34.4531   -9.4033 N   0  0  0  0  0  0  0  0  0  0  0  0
   26.8479  -34.0433   -9.8828 C   0  0  0  0  0  0  0  0  0  0  0  0
   27.1334  -32.8927  -10.2763 O   0  0  0  0  0  0  0  0  0  0  0  0
   20.8251  -31.9980  -15.7852 O   0  0  0  0  0  0  0  0  0  0  0  0
   21.6928  -32.6426  -14.9437 C   0  0  0  0  0  0  0  0  0  0  0  0
   23.0481  -32.3885  -15.0128 C   0  0  0  0  0  0  0  0  0  0  0  0
   23.9359  -33.0240  -14.1781 C   0  0  0  0  0  0  0  0  0  0  0  0
   23.4269  -33.9375  -13.2546 C   0  0  0  0  0  0  0  0  0  0  0  0
   24.4058  -34.6183  -12.3820 C   0  0  0  0  0  0  0  0  0  0  0  0
   24.7193  -33.8617  -11.1289 C   0  0  2  0  0  0  0  0  0  0  0  0
   25.6265  -34.6344  -10.2683 N   0  0  0  0  0  0  0  0  0  0  0  0
   23.4817  -33.5434  -10.3971 C   0  0  0  0  0  0  0  0  0  0  0  0
   22.5862  -32.7976  -10.8526 O   0  0  0  0  0  0  0  0  0  0  0  0
   22.0819  -34.1965  -13.1791 C   0  0  0  0  0  0  0  0  0  0  0  0
   21.1961  -33.5555  -14.0192 C   0  0  0  0  0  0  0  0  0  0  0  0
   23.2913  -34.1136   -9.1016 N   0  0  0  0  0  0  0  0  0  0  0  0
   22.0573  -33.8113   -8.4039 C   0  0  1  0  0  0  0  0  0  0  0  0
   21.2291  -35.0722   -8.3616 C   0  0  0  0  0  0  0  0  0  0  0  0
   20.5348  -35.3603   -9.6290 C   0  0  0  0  0  0  0  0  0  0  0  0
   19.4587  -34.6002  -10.0783 C   0  0  0  0  0  0  0  0  0  0  0  0
   18.8293  -34.8838  -11.2707 C   0  0  0  0  0  0  0  0  0  0  0  0
   19.3007  -35.9556  -12.0169 C   0  0  0  0  0  0  0  0  0  0  0  0
   20.3653  -36.7231  -11.5926 C   0  0  0  0  0  0  0  0  0  0  0  0
   20.9851  -36.4259  -10.3957 C   0  0  0  0  0  0  0  0  0  0  0  0
   22.4024  -33.2854   -7.0796 C   0  0  0  0  0  0  0  0  0  0  0  0
   23.6089  -33.2401   -6.7339 O   0  0  0  0  0  0  0  0  0  0  0  0
   21.4574  -32.8263   -6.1689 O   0  0  0  0  0  0  0  0  0  0  0  0
  2  1  1  0
  3  2  1  0
  3  4  1  6
  5  6  1  1
  5  3  1  0
  7  5  1  0
  8  7  2  0
 10 11  2  0
 10  9  1  0
 12 11  1  0
 13 12  2  0
 14 13  1  0
 15 14  1  6
 15 16  1  0
 16  7  1  0
 17 21  1  0
 17 15  1  0
 18 17  2  0
 19 13  1  0
 19 20  2  0
 20 10  1  0
 22 23  1  1
 22 21  1  0
 23 24  1  0
 24 29  1  0
 25 24  2  0
 25 26  1  0
 26 27  2  0
 27 28  1  0
 29 28  2  0
 30 22  1  0
 30 32  1  0
 31 30  2  0
M  END
$$$$
