IYF.pdb
     RDKit          3D

 32 33  0  0  1  0  0  0  0  0999 V2000
   28.3187  -18.5135  -18.4386 C   0  0  0  0  0  0  0  0  0  0  0  0
   29.0694  -18.4407  -17.1555 C   0  0  0  0  0  0  0  0  0  0  0  0
   28.2387  -18.4088  -15.9281 C   0  0  2  0  0  0  0  0  0  0  0  0
   28.5239  -17.1573  -15.1263 C   0  0  0  0  0  0  0  0  0  0  0  0
   28.2872  -19.6295  -15.0770 C   0  0  2  0  0  0  0  0  0  0  0  0
   28.1420  -20.8662  -15.7632 N   0  0  0  0  0  0  0  0  0  0  0  0
   27.3247  -19.5664  -13.9485 C   0  0  0  0  0  0  0  0  0  0  0  0
   27.0156  -18.4517  -13.4774 O   0  0  0  0  0  0  0  0  0  0  0  0
   20.0768  -20.1417   -9.5743 O   0  0  0  0  0  0  0  0  0  0  0  0
   21.1735  -20.4667  -10.3283 C   0  0  0  0  0  0  0  0  0  0  0  0
   22.0812  -21.4010   -9.8708 C   0  0  0  0  0  0  0  0  0  0  0  0
   23.1878  -21.7416  -10.6112 C   0  0  0  0  0  0  0  0  0  0  0  0
   23.3691  -21.1139  -11.8439 C   0  0  0  0  0  0  0  0  0  0  0  0
   24.5760  -21.4869  -12.6103 C   0  0  0  0  0  0  0  0  0  0  0  0
   25.7527  -20.6007  -12.3435 C   0  0  2  0  0  0  0  0  0  0  0  0
   26.7593  -20.7394  -13.4058 N   0  0  0  0  0  0  0  0  0  0  0  0
   26.3527  -20.9220  -11.0376 C   0  0  0  0  0  0  0  0  0  0  0  0
   27.1532  -21.8675  -10.8628 O   0  0  0  0  0  0  0  0  0  0  0  0
   22.4726  -20.1843  -12.3063 C   0  0  0  0  0  0  0  0  0  0  0  0
   21.3641  -19.8468  -11.5588 C   0  0  0  0  0  0  0  0  0  0  0  0
   26.0048  -20.1148   -9.9118 N   0  0  0  0  0  0  0  0  0  0  0  0
   26.4877  -20.5268   -8.6088 C   0  0  1  0  0  0  0  0  0  0  0  0
   27.6629  -19.6496   -8.2526 C   0  0  0  0  0  0  0  0  0  0  0  0
   28.0953  -19.7895   -6.8508 C   0  0  0  0  0  0  0  0  0  0  0  0
   27.7038  -18.8960   -5.8578 C   0  0  0  0  0  0  0  0  0  0  0  0
   28.1147  -19.0510   -4.5519 C   0  0  0  0  0  0  0  0  0  0  0  0
   28.9355  -20.1298   -4.2513 C   0  0  0  0  0  0  0  0  0  0  0  0
   29.3365  -21.0283   -5.2179 C   0  0  0  0  0  0  0  0  0  0  0  0
   28.9161  -20.8592   -6.5216 C   0  0  0  0  0  0  0  0  0  0  0  0
   25.3722  -20.4346   -7.6619 C   0  0  0  0  0  0  0  0  0  0  0  0
   25.3282  -21.2267   -6.6883 O   0  0  0  0  0  0  0  0  0  0  0  0
   24.3434  -19.5069   -7.7800 O   0  0  0  0  0  0  0  0  0  0  0  0
  2  1  1  0
  3  2  1  0
  3  4  1  1
  5  6  1  6
  5  3  1  0
  7  5  1  0
  8  7  2  0
 10 11  2  0
 10  9  1  0
 12 11  1  0
 13 12  2  0
 14 13  1  0
 15 14  1  6
 15 16  1  0
 16  7  1  0
 17 21  1  0
 17 15  1  0
 18 17  2  0
 19 13  1  0
 19 20  2  0
 20 10  1  0
 22 23  1  1
 22 21  1  0
 23 24  1  0
 24 29  1  0
 25 24  2  0
 25 26  1  0
 26 27  2  0
 27 28  1  0
 29 28  2  0
 30 22  1  0
 30 32  1  0
 31 30  2  0
M  END
$$$$
