IYF.pdb
     RDKit          3D

 32 33  0  0  1  0  0  0  0  0999 V2000
   20.5208  -15.0600  -16.7582 C   0  0  0  0  0  0  0  0  0  0  0  0
   20.7752  -13.8559  -17.5951 C   0  0  0  0  0  0  0  0  0  0  0  0
   21.1537  -12.6290  -16.8542 C   0  0  2  0  0  0  0  0  0  0  0  0
   20.1550  -12.3440  -15.7533 C   0  0  0  0  0  0  0  0  0  0  0  0
   21.4153  -11.4212  -17.6847 C   0  0  2  0  0  0  0  0  0  0  0  0
   22.3329  -11.5965  -18.7565 N   0  0  0  0  0  0  0  0  0  0  0  0
   21.8201  -10.2519  -16.8644 C   0  0  0  0  0  0  0  0  0  0  0  0
   21.3427  -10.1221  -15.7175 O   0  0  0  0  0  0  0  0  0  0  0  0
   27.7855  -12.2067  -15.8311 O   0  0  0  0  0  0  0  0  0  0  0  0
   26.9762  -11.1188  -16.0264 C   0  0  0  0  0  0  0  0  0  0  0  0
   26.5461  -10.3686  -14.9502 C   0  0  0  0  0  0  0  0  0  0  0  0
   25.7341   -9.2735  -15.1238 C   0  0  0  0  0  0  0  0  0  0  0  0
   25.3547   -8.9394  -16.4241 C   0  0  0  0  0  0  0  0  0  0  0  0
   24.4678   -7.7680  -16.5793 C   0  0  0  0  0  0  0  0  0  0  0  0
   23.0109   -8.1095  -16.5351 C   0  0  2  0  0  0  0  0  0  0  0  0
   22.7292   -9.2935  -17.3593 N   0  0  0  0  0  0  0  0  0  0  0  0
   22.2015   -6.9700  -16.9989 C   0  0  0  0  0  0  0  0  0  0  0  0
   21.9538   -6.7486  -18.2052 O   0  0  0  0  0  0  0  0  0  0  0  0
   25.7770   -9.6793  -17.4994 C   0  0  0  0  0  0  0  0  0  0  0  0
   26.5918  -10.7770  -17.3188 C   0  0  0  0  0  0  0  0  0  0  0  0
   21.6711   -6.0705  -16.0246 N   0  0  0  0  0  0  0  0  0  0  0  0
   20.8254   -4.9897  -16.4908 C   0  0  1  0  0  0  0  0  0  0  0  0
   19.6801   -5.5985  -17.2622 C   0  0  0  0  0  0  0  0  0  0  0  0
   18.6630   -4.6152  -17.6750 C   0  0  0  0  0  0  0  0  0  0  0  0
   17.4501   -4.4731  -17.0071 C   0  0  0  0  0  0  0  0  0  0  0  0
   16.5168   -3.5416  -17.4067 C   0  0  0  0  0  0  0  0  0  0  0  0
   16.8213   -2.7431  -18.5011 C   0  0  0  0  0  0  0  0  0  0  0  0
   18.0164   -2.8653  -19.1788 C   0  0  0  0  0  0  0  0  0  0  0  0
   18.9408   -3.8033  -18.7659 C   0  0  0  0  0  0  0  0  0  0  0  0
   20.4039   -4.2082  -15.3242 C   0  0  0  0  0  0  0  0  0  0  0  0
   20.2457   -4.7896  -14.2222 O   0  0  0  0  0  0  0  0  0  0  0  0
   20.1649   -2.8392  -15.3663 O   0  0  0  0  0  0  0  0  0  0  0  0
  2  1  1  0
  3  2  1  0
  3  4  1  1
  5  6  1  6
  5  3  1  0
  7  5  1  0
  8  7  2  0
 10 11  2  0
 10  9  1  0
 12 11  1  0
 13 12  2  0
 14 13  1  0
 15 14  1  6
 15 16  1  0
 16  7  1  0
 17 21  1  0
 17 15  1  0
 18 17  2  0
 19 13  1  0
 19 20  2  0
 20 10  1  0
 22 23  1  1
 22 21  1  0
 23 24  1  0
 24 29  1  0
 25 24  2  0
 25 26  1  0
 26 27  2  0
 27 28  1  0
 29 28  2  0
 30 22  1  0
 30 32  1  0
 31 30  2  0
M  END
$$$$
