IYF.pdb
     RDKit          3D

 32 33  0  0  1  0  0  0  0  0999 V2000
   29.8006  -19.0120  -17.6655 C   0  0  0  0  0  0  0  0  0  0  0  0
   28.8986  -17.8884  -17.2924 C   0  0  0  0  0  0  0  0  0  0  0  0
   28.1239  -18.0766  -16.0426 C   0  0  2  0  0  0  0  0  0  0  0  0
   29.0079  -17.8634  -14.8328 C   0  0  0  0  0  0  0  0  0  0  0  0
   27.3497  -19.3443  -15.9409 C   0  0  2  0  0  0  0  0  0  0  0  0
   26.5702  -19.6843  -17.0802 N   0  0  0  0  0  0  0  0  0  0  0  0
   26.5027  -19.3894  -14.7224 C   0  0  0  0  0  0  0  0  0  0  0  0
   25.7596  -18.4190  -14.4649 O   0  0  0  0  0  0  0  0  0  0  0  0
   19.9008  -20.7863   -9.8985 O   0  0  0  0  0  0  0  0  0  0  0  0
   21.0269  -20.9757  -10.6553 C   0  0  0  0  0  0  0  0  0  0  0  0
   21.2718  -20.1739  -11.7521 C   0  0  0  0  0  0  0  0  0  0  0  0
   22.3953  -20.3467  -12.5247 C   0  0  0  0  0  0  0  0  0  0  0  0
   23.2855  -21.3600  -12.1680 C   0  0  0  0  0  0  0  0  0  0  0  0
   24.4755  -21.5340  -13.0262 C   0  0  0  0  0  0  0  0  0  0  0  0
   25.5648  -20.5457  -12.7476 C   0  0  2  0  0  0  0  0  0  0  0  0
   26.5261  -20.5046  -13.8589 N   0  0  0  0  0  0  0  0  0  0  0  0
   26.2595  -20.8857  -11.4944 C   0  0  0  0  0  0  0  0  0  0  0  0
   27.0230  -21.8699  -11.3770 O   0  0  0  0  0  0  0  0  0  0  0  0
   23.0501  -22.1616  -11.0800 C   0  0  0  0  0  0  0  0  0  0  0  0
   21.9211  -21.9832  -10.3086 C   0  0  0  0  0  0  0  0  0  0  0  0
   26.0529  -20.0514  -10.3538 N   0  0  0  0  0  0  0  0  0  0  0  0
   26.6108  -20.4850   -9.0883 C   0  0  1  0  0  0  0  0  0  0  0  0
   27.4287  -19.3466   -8.5292 C   0  0  0  0  0  0  0  0  0  0  0  0
   27.9552  -19.6111   -7.1785 C   0  0  0  0  0  0  0  0  0  0  0  0
   29.0259  -20.4712   -6.9517 C   0  0  0  0  0  0  0  0  0  0  0  0
   29.5062  -20.6977   -5.6803 C   0  0  0  0  0  0  0  0  0  0  0  0
   28.8889  -20.0404   -4.6245 C   0  0  0  0  0  0  0  0  0  0  0  0
   27.8266  -19.1835   -4.8243 C   0  0  0  0  0  0  0  0  0  0  0  0
   27.3574  -18.9672   -6.1041 C   0  0  0  0  0  0  0  0  0  0  0  0
   25.5027  -20.8986   -8.2221 C   0  0  0  0  0  0  0  0  0  0  0  0
   24.3680  -20.3883   -8.3934 O   0  0  0  0  0  0  0  0  0  0  0  0
   25.6359  -21.8378   -7.2055 O   0  0  0  0  0  0  0  0  0  0  0  0
  2  1  1  0
  3  2  1  0
  3  4  1  1
  5  6  1  6
  5  3  1  0
  7  5  1  0
  8  7  2  0
 10 11  2  0
 10  9  1  0
 12 11  1  0
 13 12  2  0
 14 13  1  0
 15 14  1  6
 15 16  1  0
 16  7  1  0
 17 21  1  0
 17 15  1  0
 18 17  2  0
 19 13  1  0
 19 20  2  0
 20 10  1  0
 22 23  1  1
 22 21  1  0
 23 24  1  0
 24 29  1  0
 25 24  2  0
 25 26  1  0
 26 27  2  0
 27 28  1  0
 29 28  2  0
 30 22  1  0
 30 32  1  0
 31 30  2  0
M  END
$$$$
