IYF.pdb
     RDKit          3D

 32 33  0  0  1  0  0  0  0  0999 V2000
   21.9962  -17.8436  -16.8674 C   0  0  0  0  0  0  0  0  0  0  0  0
   23.0136  -17.5757  -15.8146 C   0  0  0  0  0  0  0  0  0  0  0  0
   23.3085  -18.7090  -14.9055 C   0  0  2  0  0  0  0  0  0  0  0  0
   22.0274  -19.2848  -14.3418 C   0  0  0  0  0  0  0  0  0  0  0  0
   24.3085  -18.4420  -13.8352 C   0  0  2  0  0  0  0  0  0  0  0  0
   25.5684  -17.9527  -14.2762 N   0  0  0  0  0  0  0  0  0  0  0  0
   24.5091  -19.6155  -12.9482 C   0  0  0  0  0  0  0  0  0  0  0  0
   23.5099  -20.1805  -12.4557 O   0  0  0  0  0  0  0  0  0  0  0  0
   23.8994  -24.4857  -16.9210 O   0  0  0  0  0  0  0  0  0  0  0  0
   24.5677  -23.9742  -15.8400 C   0  0  0  0  0  0  0  0  0  0  0  0
   25.4718  -22.9438  -16.0039 C   0  0  0  0  0  0  0  0  0  0  0  0
   26.1528  -22.4161  -14.9331 C   0  0  0  0  0  0  0  0  0  0  0  0
   25.9037  -22.9533  -13.6698 C   0  0  0  0  0  0  0  0  0  0  0  0
   26.6623  -22.3783  -12.5399 C   0  0  0  0  0  0  0  0  0  0  0  0
   25.9272  -21.2947  -11.8142 C   0  0  2  0  0  0  0  0  0  0  0  0
   25.8027  -20.0966  -12.6568 N   0  0  0  0  0  0  0  0  0  0  0  0
   26.6181  -20.9566  -10.5585 C   0  0  0  0  0  0  0  0  0  0  0  0
   27.7660  -20.4603  -10.5176 O   0  0  0  0  0  0  0  0  0  0  0  0
   25.0072  -23.9773  -13.4976 C   0  0  0  0  0  0  0  0  0  0  0  0
   24.3269  -24.5025  -14.5760 C   0  0  0  0  0  0  0  0  0  0  0  0
   25.9462  -21.2068   -9.3233 N   0  0  0  0  0  0  0  0  0  0  0  0
   26.7326  -21.1725   -8.1062 C   0  0  1  0  0  0  0  0  0  0  0  0
   27.3863  -19.8153   -8.0160 C   0  0  0  0  0  0  0  0  0  0  0  0
   28.0227  -19.5567   -6.7123 C   0  0  0  0  0  0  0  0  0  0  0  0
   27.4766  -18.6820   -5.7773 C   0  0  0  0  0  0  0  0  0  0  0  0
   28.0857  -18.4611   -4.5614 C   0  0  0  0  0  0  0  0  0  0  0  0
   29.2670  -19.1394   -4.2922 C   0  0  0  0  0  0  0  0  0  0  0  0
   29.8272  -20.0110   -5.2027 C   0  0  0  0  0  0  0  0  0  0  0  0
   29.2046  -20.2214   -6.4164 C   0  0  0  0  0  0  0  0  0  0  0  0
   25.8417  -21.4760   -6.9821 C   0  0  0  0  0  0  0  0  0  0  0  0
   24.6040  -21.3135   -7.1203 O   0  0  0  0  0  0  0  0  0  0  0  0
   26.2934  -21.9406   -5.7520 O   0  0  0  0  0  0  0  0  0  0  0  0
  2  1  1  0
  3  2  1  0
  3  4  1  1
  5  6  1  6
  5  3  1  0
  7  5  1  0
  8  7  2  0
 10 11  2  0
 10  9  1  0
 12 11  1  0
 13 12  2  0
 14 13  1  0
 15 14  1  6
 15 16  1  0
 16  7  1  0
 17 21  1  0
 17 15  1  0
 18 17  2  0
 19 13  1  0
 19 20  2  0
 20 10  1  0
 22 23  1  1
 22 21  1  0
 23 24  1  0
 24 29  1  0
 25 24  2  0
 25 26  1  0
 26 27  2  0
 27 28  1  0
 29 28  2  0
 30 22  1  0
 30 32  1  0
 31 30  2  0
M  END
$$$$
