IYF.pdb
     RDKit          3D

 32 33  0  0  1  0  0  0  0  0999 V2000
   29.0549  -17.3978  -18.7334 C   0  0  0  0  0  0  0  0  0  0  0  0
   29.0169  -17.8778  -17.3251 C   0  0  0  0  0  0  0  0  0  0  0  0
   27.7272  -17.6897  -16.6187 C   0  0  2  0  0  0  0  0  0  0  0  0
   27.2382  -16.2661  -16.7762 C   0  0  0  0  0  0  0  0  0  0  0  0
   27.6939  -18.1278  -15.1961 C   0  0  2  0  0  0  0  0  0  0  0  0
   27.9702  -19.5036  -14.9677 N   0  0  0  0  0  0  0  0  0  0  0  0
   26.4255  -17.7527  -14.5220 C   0  0  0  0  0  0  0  0  0  0  0  0
   25.8598  -16.6870  -14.8452 O   0  0  0  0  0  0  0  0  0  0  0  0
   21.7943  -24.1377  -17.1064 O   0  0  0  0  0  0  0  0  0  0  0  0
   22.6945  -23.2405  -16.5953 C   0  0  0  0  0  0  0  0  0  0  0  0
   23.5582  -23.6183  -15.5866 C   0  0  0  0  0  0  0  0  0  0  0  0
   24.4690  -22.7342  -15.0598 C   0  0  0  0  0  0  0  0  0  0  0  0
   24.4966  -21.4380  -15.5752 C   0  0  0  0  0  0  0  0  0  0  0  0
   25.4738  -20.5044  -14.9783 C   0  0  0  0  0  0  0  0  0  0  0  0
   24.8817  -19.5969  -13.9454 C   0  0  2  0  0  0  0  0  0  0  0  0
   25.8555  -18.5773  -13.5295 N   0  0  0  0  0  0  0  0  0  0  0  0
   24.4348  -20.3718  -12.7756 C   0  0  0  0  0  0  0  0  0  0  0  0
   23.5397  -21.2443  -12.8302 O   0  0  0  0  0  0  0  0  0  0  0  0
   23.6421  -21.0538  -16.5771 C   0  0  0  0  0  0  0  0  0  0  0  0
   22.7305  -21.9455  -17.1018 C   0  0  0  0  0  0  0  0  0  0  0  0
   25.0527  -20.1163  -11.5135 N   0  0  0  0  0  0  0  0  0  0  0  0
   24.5242  -20.8010  -10.3504 C   0  0  1  0  0  0  0  0  0  0  0  0
   25.3350  -20.3708   -9.1525 C   0  0  0  0  0  0  0  0  0  0  0  0
   26.7766  -20.6421   -9.2922 C   0  0  0  0  0  0  0  0  0  0  0  0
   27.7016  -20.2739   -8.3193 C   0  0  0  0  0  0  0  0  0  0  0  0
   29.0443  -20.5445   -8.4682 C   0  0  0  0  0  0  0  0  0  0  0  0
   29.4524  -21.1989   -9.6228 C   0  0  0  0  0  0  0  0  0  0  0  0
   28.5548  -21.5737  -10.6007 C   0  0  0  0  0  0  0  0  0  0  0  0
   27.2129  -21.2953  -10.4364 C   0  0  0  0  0  0  0  0  0  0  0  0
   23.0974  -20.4807  -10.2451 C   0  0  0  0  0  0  0  0  0  0  0  0
   22.5929  -19.6598  -11.0505 O   0  0  0  0  0  0  0  0  0  0  0  0
   22.2561  -21.0413   -9.2906 O   0  0  0  0  0  0  0  0  0  0  0  0
  2  1  1  0
  3  2  1  0
  3  4  1  1
  5  6  1  6
  5  3  1  0
  7  5  1  0
  8  7  2  0
 10 11  2  0
 10  9  1  0
 12 11  1  0
 13 12  2  0
 14 13  1  0
 15 14  1  6
 15 16  1  0
 16  7  1  0
 17 21  1  0
 17 15  1  0
 18 17  2  0
 19 13  1  0
 19 20  2  0
 20 10  1  0
 22 23  1  1
 22 21  1  0
 23 24  1  0
 24 29  1  0
 25 24  2  0
 25 26  1  0
 26 27  2  0
 27 28  1  0
 29 28  2  0
 30 22  1  0
 30 32  1  0
 31 30  2  0
M  END
$$$$
