TWY.pdb
     RDKit          3D

 34 36  0  0  1  0  0  0  0  0999 V2000
   19.2364  -23.4180  -23.4630 C   0  0  0  0  0  0  0  0  0  0  0  0
   19.8237  -24.6148  -22.7486 C   0  0  1  0  0  0  0  0  0  0  0  0
   20.1183  -25.6173  -23.6440 O   0  0  0  0  0  0  0  0  0  0  0  0
   21.0320  -24.1407  -21.9772 C   0  0  2  0  0  0  0  0  0  0  0  0
   21.6207  -25.2888  -21.3218 N   0  0  0  0  0  0  0  0  0  0  0  0
   20.7350  -23.0430  -21.0555 C   0  0  0  0  0  0  0  0  0  0  0  0
   20.0926  -23.2907  -19.9836 O   0  0  0  0  0  0  0  0  0  0  0  0
   21.1048  -21.6929  -21.2483 N   0  0  0  0  0  0  0  0  0  0  0  0
   20.6724  -20.6278  -20.3020 C   0  0  1  0  0  0  0  0  0  0  0  0
   21.4907  -19.4108  -20.5101 C   0  0  0  0  0  0  0  0  0  0  0  0
   21.1714  -18.2276  -19.7339 C   0  0  0  0  0  0  0  0  0  0  0  0
   21.5292  -17.9068  -18.4428 C   0  0  0  0  0  0  0  0  0  0  0  0
   20.9946  -16.7259  -18.1066 N   0  0  0  0  0  0  0  0  0  0  0  0
   20.2847  -16.2706  -19.1786 C   0  0  0  0  0  0  0  0  0  0  0  0
   19.5485  -15.1187  -19.3621 C   0  0  0  0  0  0  0  0  0  0  0  0
   18.9065  -14.8709  -20.5546 C   0  0  0  0  0  0  0  0  0  0  0  0
   18.9877  -15.7758  -21.5957 C   0  0  0  0  0  0  0  0  0  0  0  0
   19.7258  -16.9204  -21.3973 C   0  0  0  0  0  0  0  0  0  0  0  0
   20.3762  -17.1910  -20.2160 C   0  0  0  0  0  0  0  0  0  0  0  0
   19.2280  -20.4430  -20.4940 C   0  0  0  0  0  0  0  0  0  0  0  0
   18.7131  -20.4636  -21.6746 O   0  0  0  0  0  0  0  0  0  0  0  0
   15.1645  -23.5632  -14.6808 O   0  0  0  0  0  0  0  0  0  0  0  0
   15.4188  -23.0078  -15.9443 C   0  0  0  0  0  0  0  0  0  0  0  0
   16.5181  -23.3963  -16.6913 C   0  0  0  0  0  0  0  0  0  0  0  0
   16.7583  -22.8413  -17.9371 C   0  0  0  0  0  0  0  0  0  0  0  0
   15.9264  -21.8867  -18.4894 C   0  0  0  0  0  0  0  0  0  0  0  0
   16.2226  -21.3210  -19.8167 C   0  0  0  0  0  0  0  0  0  0  0  0
   16.8801  -19.9491  -19.7558 C   0  0  2  0  0  0  0  0  0  0  0  0
   18.2876  -20.2372  -19.4396 N   0  0  0  0  0  0  0  0  0  0  0  0
   16.3085  -19.1400  -18.6841 C   0  0  0  0  0  0  0  0  0  0  0  0
   15.1029  -18.7668  -18.7241 O   0  0  0  0  0  0  0  0  0  0  0  0
   14.8322  -21.5003  -17.7449 C   0  0  0  0  0  0  0  0  0  0  0  0
   14.5862  -22.0565  -16.4899 C   0  0  0  0  0  0  0  0  0  0  0  0
   17.0613  -18.7599  -17.5994 O   0  0  0  0  0  0  0  0  0  0  0  0
  2  3  1  0
  2  1  1  6
  4  6  1  0
  4  2  1  0
  4  5  1  1
  6  7  2  0
  8  9  1  0
  8  6  1  0
  9 10  1  6
 11 12  2  0
 11 10  1  0
 13 12  1  0
 14 19  2  0
 14 13  1  0
 15 14  1  0
 16 17  1  0
 16 15  2  0
 17 18  2  0
 18 19  1  0
 19 11  1  0
 20  9  1  0
 21 20  2  0
 22 23  1  0
 23 33  2  0
 23 24  1  0
 24 25  2  0
 25 26  1  0
 26 27  1  0
 28 27  1  1
 28 29  1  0
 29 20  1  0
 30 28  1  0
 30 34  1  0
 31 30  2  0
 32 26  2  0
 33 32  1  0
M  END
$$$$
