TWY.pdb
     RDKit          3D

 34 36  0  0  1  0  0  0  0  0999 V2000
   27.6276  -22.3916  -15.8441 C   0  0  0  0  0  0  0  0  0  0  0  0
   28.2962  -21.2061  -15.1842 C   0  0  1  0  0  0  0  0  0  0  0  0
   29.1429  -20.5743  -16.0660 O   0  0  0  0  0  0  0  0  0  0  0  0
   27.2084  -20.2994  -14.6605 C   0  0  2  0  0  0  0  0  0  0  0  0
   27.8187  -19.0418  -14.2858 N   0  0  0  0  0  0  0  0  0  0  0  0
   26.4242  -20.9013  -13.5810 C   0  0  0  0  0  0  0  0  0  0  0  0
   25.9343  -22.0658  -13.7461 O   0  0  0  0  0  0  0  0  0  0  0  0
   26.1508  -20.2943  -12.3347 N   0  0  0  0  0  0  0  0  0  0  0  0
   25.3062  -20.9704  -11.3115 C   0  0  1  0  0  0  0  0  0  0  0  0
   25.7203  -20.5392   -9.9563 C   0  0  0  0  0  0  0  0  0  0  0  0
   27.0984  -20.7554   -9.5581 C   0  0  0  0  0  0  0  0  0  0  0  0
   28.0975  -21.4462  -10.2080 C   0  0  0  0  0  0  0  0  0  0  0  0
   29.2157  -21.4217   -9.4716 N   0  0  0  0  0  0  0  0  0  0  0  0
   28.9504  -20.7138   -8.3363 C   0  0  0  0  0  0  0  0  0  0  0  0
   29.7447  -20.3926   -7.2553 C   0  0  0  0  0  0  0  0  0  0  0  0
   29.2472  -19.6533   -6.2058 C   0  0  0  0  0  0  0  0  0  0  0  0
   27.9363  -19.2167   -6.2150 C   0  0  0  0  0  0  0  0  0  0  0  0
   27.1564  -19.5451   -7.3004 C   0  0  0  0  0  0  0  0  0  0  0  0
   27.6295  -20.2821   -8.3609 C   0  0  0  0  0  0  0  0  0  0  0  0
   23.9065  -20.6834  -11.6519 C   0  0  0  0  0  0  0  0  0  0  0  0
   23.4297  -19.4932  -11.5274 O   0  0  0  0  0  0  0  0  0  0  0  0
   16.2811  -20.5772  -16.0859 O   0  0  0  0  0  0  0  0  0  0  0  0
   17.5455  -20.8706  -15.5524 C   0  0  0  0  0  0  0  0  0  0  0  0
   18.5075  -19.8860  -15.4023 C   0  0  0  0  0  0  0  0  0  0  0  0
   19.7517  -20.1876  -14.8743 C   0  0  0  0  0  0  0  0  0  0  0  0
   20.0912  -21.4663  -14.4766 C   0  0  0  0  0  0  0  0  0  0  0  0
   21.4280  -21.7422  -13.9233 C   0  0  0  0  0  0  0  0  0  0  0  0
   21.6089  -21.2355  -12.4991 C   0  0  2  0  0  0  0  0  0  0  0  0
   22.9744  -21.6485  -12.1399 N   0  0  0  0  0  0  0  0  0  0  0  0
   20.6642  -21.8763  -11.5897 C   0  0  0  0  0  0  0  0  0  0  0  0
   20.8400  -23.0651  -11.2022 O   0  0  0  0  0  0  0  0  0  0  0  0
   19.1328  -22.4461  -14.6266 C   0  0  0  0  0  0  0  0  0  0  0  0
   17.8785  -22.1470  -15.1578 C   0  0  0  0  0  0  0  0  0  0  0  0
   19.5566  -21.2083  -11.1263 O   0  0  0  0  0  0  0  0  0  0  0  0
  2  3  1  0
  2  1  1  6
  4  6  1  0
  4  2  1  0
  4  5  1  1
  6  7  2  0
  8  9  1  0
  8  6  1  0
  9 10  1  1
 11 12  2  0
 11 10  1  0
 13 12  1  0
 14 19  2  0
 14 13  1  0
 15 14  1  0
 16 17  1  0
 16 15  2  0
 17 18  2  0
 18 19  1  0
 19 11  1  0
 20  9  1  0
 21 20  2  0
 22 23  1  0
 23 33  2  0
 23 24  1  0
 24 25  2  0
 25 26  1  0
 26 27  1  0
 28 27  1  6
 28 29  1  0
 29 20  1  0
 30 28  1  0
 30 34  1  0
 31 30  2  0
 32 26  2  0
 33 32  1  0
M  END
$$$$
