TWY.pdb
     RDKit          3D

 34 36  0  0  1  0  0  0  0  0999 V2000
   28.8782  -25.4994  -17.6504 C   0  0  0  0  0  0  0  0  0  0  0  0
   28.1684  -24.5425  -16.7185 C   0  0  1  0  0  0  0  0  0  0  0  0
   29.0304  -24.0791  -15.7512 O   0  0  0  0  0  0  0  0  0  0  0  0
   27.5783  -23.4365  -17.5599 C   0  0  2  0  0  0  0  0  0  0  0  0
   28.6502  -22.8409  -18.3284 N   0  0  0  0  0  0  0  0  0  0  0  0
   26.8196  -22.4582  -16.7787 C   0  0  0  0  0  0  0  0  0  0  0  0
   27.3261  -21.3088  -16.5654 O   0  0  0  0  0  0  0  0  0  0  0  0
   25.5392  -22.6749  -16.2217 N   0  0  0  0  0  0  0  0  0  0  0  0
   24.8638  -21.6318  -15.4015 C   0  0  1  0  0  0  0  0  0  0  0  0
   23.3998  -21.6948  -15.6183 C   0  0  0  0  0  0  0  0  0  0  0  0
   22.5560  -20.7760  -14.8779 C   0  0  0  0  0  0  0  0  0  0  0  0
   22.8181  -19.4879  -14.4657 C   0  0  0  0  0  0  0  0  0  0  0  0
   21.7698  -19.0104  -13.7827 N   0  0  0  0  0  0  0  0  0  0  0  0
   20.8179  -19.9866  -13.7464 C   0  0  0  0  0  0  0  0  0  0  0  0
   19.5620  -20.0150  -13.1766 C   0  0  0  0  0  0  0  0  0  0  0  0
   18.7663  -21.1345  -13.2717 C   0  0  0  0  0  0  0  0  0  0  0  0
   19.2125  -22.2568  -13.9430 C   0  0  0  0  0  0  0  0  0  0  0  0
   20.4675  -22.2131  -14.5061 C   0  0  0  0  0  0  0  0  0  0  0  0
   21.2814  -21.1074  -14.4251 C   0  0  0  0  0  0  0  0  0  0  0  0
   25.2931  -21.8334  -14.0114 C   0  0  0  0  0  0  0  0  0  0  0  0
   25.3145  -23.0129  -13.4938 O   0  0  0  0  0  0  0  0  0  0  0  0
   28.6499  -20.2074   -5.8835 O   0  0  0  0  0  0  0  0  0  0  0  0
   28.2865  -20.1940   -7.2389 C   0  0  0  0  0  0  0  0  0  0  0  0
   28.9662  -20.9586   -8.1721 C   0  0  0  0  0  0  0  0  0  0  0  0
   28.5981  -20.9373   -9.5069 C   0  0  0  0  0  0  0  0  0  0  0  0
   27.5504  -20.1641   -9.9683 C   0  0  0  0  0  0  0  0  0  0  0  0
   27.1960  -20.1697  -11.3979 C   0  0  0  0  0  0  0  0  0  0  0  0
   26.0352  -21.0974  -11.7291 C   0  0  2  0  0  0  0  0  0  0  0  0
   25.7178  -20.7915  -13.1326 N   0  0  0  0  0  0  0  0  0  0  0  0
   24.8705  -20.7970  -10.9025 C   0  0  0  0  0  0  0  0  0  0  0  0
   24.0505  -19.8974  -11.2379 O   0  0  0  0  0  0  0  0  0  0  0  0
   26.8743  -19.4028   -9.0385 C   0  0  0  0  0  0  0  0  0  0  0  0
   27.2415  -19.4212   -7.6933 C   0  0  0  0  0  0  0  0  0  0  0  0
   24.6287  -21.4821   -9.7364 O   0  0  0  0  0  0  0  0  0  0  0  0
  2  3  1  0
  2  1  1  6
  4  6  1  0
  4  2  1  0
  4  5  1  1
  6  7  2  0
  8  9  1  0
  8  6  1  0
  9 10  1  1
 11 12  2  0
 11 10  1  0
 13 12  1  0
 14 19  2  0
 14 13  1  0
 15 14  1  0
 16 17  1  0
 16 15  2  0
 17 18  2  0
 18 19  1  0
 19 11  1  0
 20  9  1  0
 21 20  2  0
 22 23  1  0
 23 33  2  0
 23 24  1  0
 24 25  2  0
 25 26  1  0
 26 27  1  0
 28 27  1  1
 28 29  1  0
 29 20  1  0
 30 28  1  0
 30 34  1  0
 31 30  2  0
 32 26  2  0
 33 32  1  0
M  END
$$$$
