TWY.pdb
     RDKit          3D

 34 36  0  0  1  0  0  0  0  0999 V2000
   28.7735  -18.0435  -15.3724 C   0  0  0  0  0  0  0  0  0  0  0  0
   27.5949  -18.6719  -14.6626 C   0  0  1  0  0  0  0  0  0  0  0  0
   26.4965  -18.7134  -15.4904 O   0  0  0  0  0  0  0  0  0  0  0  0
   28.0234  -20.0383  -14.1841 C   0  0  2  0  0  0  0  0  0  0  0  0
   28.3183  -20.8457  -15.3483 N   0  0  0  0  0  0  0  0  0  0  0  0
   27.0557  -20.6641  -13.2814 C   0  0  0  0  0  0  0  0  0  0  0  0
   26.3943  -21.6748  -13.6865 O   0  0  0  0  0  0  0  0  0  0  0  0
   26.7775  -20.2401  -11.9625 N   0  0  0  0  0  0  0  0  0  0  0  0
   25.7512  -20.9244  -11.1284 C   0  0  1  0  0  0  0  0  0  0  0  0
   26.0452  -20.7051   -9.6933 C   0  0  0  0  0  0  0  0  0  0  0  0
   27.4026  -20.9219   -9.2296 C   0  0  0  0  0  0  0  0  0  0  0  0
   28.3946  -21.7111   -9.7690 C   0  0  0  0  0  0  0  0  0  0  0  0
   29.4912  -21.6437   -9.0035 N   0  0  0  0  0  0  0  0  0  0  0  0
   29.2189  -20.8088   -7.9597 C   0  0  0  0  0  0  0  0  0  0  0  0
   29.9927  -20.3987   -6.8941 C   0  0  0  0  0  0  0  0  0  0  0  0
   29.4921  -19.5345   -5.9464 C   0  0  0  0  0  0  0  0  0  0  0  0
   28.1985  -19.0589   -6.0450 C   0  0  0  0  0  0  0  0  0  0  0  0
   27.4389  -19.4771   -7.1138 C   0  0  0  0  0  0  0  0  0  0  0  0
   27.9156  -20.3396   -8.0733 C   0  0  0  0  0  0  0  0  0  0  0  0
   24.4398  -20.4351  -11.5735 C   0  0  0  0  0  0  0  0  0  0  0  0
   24.1925  -19.1721  -11.6281 O   0  0  0  0  0  0  0  0  0  0  0  0
   17.5126  -18.8002  -16.5924 O   0  0  0  0  0  0  0  0  0  0  0  0
   18.6690  -19.2595  -15.9432 C   0  0  0  0  0  0  0  0  0  0  0  0
   19.6336  -18.3778  -15.4855 C   0  0  0  0  0  0  0  0  0  0  0  0
   20.7704  -18.8431  -14.8461 C   0  0  0  0  0  0  0  0  0  0  0  0
   20.9965  -20.1896  -14.6355 C   0  0  0  0  0  0  0  0  0  0  0  0
   22.2220  -20.6397  -13.9537 C   0  0  0  0  0  0  0  0  0  0  0  0
   22.0941  -20.6674  -12.4368 C   0  0  2  0  0  0  0  0  0  0  0  0
   23.3555  -21.2706  -11.9794 N   0  0  0  0  0  0  0  0  0  0  0  0
   20.9828  -21.5162  -12.0190 C   0  0  0  0  0  0  0  0  0  0  0  0
   21.1206  -22.7679  -11.9260 O   0  0  0  0  0  0  0  0  0  0  0  0
   20.0356  -21.0668  -15.0919 C   0  0  0  0  0  0  0  0  0  0  0  0
   18.8892  -20.6028  -15.7363 C   0  0  0  0  0  0  0  0  0  0  0  0
   19.7544  -20.9823  -11.7132 O   0  0  0  0  0  0  0  0  0  0  0  0
  2  3  1  0
  2  1  1  6
  4  6  1  0
  4  2  1  0
  4  5  1  6
  6  7  2  0
  8  9  1  0
  8  6  1  0
  9 10  1  1
 11 12  2  0
 11 10  1  0
 13 12  1  0
 14 19  2  0
 14 13  1  0
 15 14  1  0
 16 17  1  0
 16 15  2  0
 17 18  2  0
 18 19  1  0
 19 11  1  0
 20  9  1  0
 21 20  2  0
 22 23  1  0
 23 33  2  0
 23 24  1  0
 24 25  2  0
 25 26  1  0
 26 27  1  0
 28 27  1  6
 28 29  1  0
 29 20  1  0
 30 28  1  0
 30 34  1  0
 31 30  2  0
 32 26  2  0
 33 32  1  0
M  END
$$$$
