TWY.pdb
     RDKit          3D

 34 36  0  0  1  0  0  0  0  0999 V2000
   18.5486  -13.0789  -26.1437 C   0  0  0  0  0  0  0  0  0  0  0  0
   18.1954  -13.8544  -27.3933 C   0  0  1  0  0  0  0  0  0  0  0  0
   18.1171  -13.0135  -28.4797 O   0  0  0  0  0  0  0  0  0  0  0  0
   19.2280  -14.9426  -27.5645 C   0  0  2  0  0  0  0  0  0  0  0  0
   18.8564  -15.7317  -28.7194 N   0  0  0  0  0  0  0  0  0  0  0  0
   19.4244  -15.7479  -26.3580 C   0  0  0  0  0  0  0  0  0  0  0  0
   18.8521  -16.8828  -26.2707 O   0  0  0  0  0  0  0  0  0  0  0  0
   20.2130  -15.3739  -25.2468 N   0  0  0  0  0  0  0  0  0  0  0  0
   20.5107  -16.3345  -24.1487 C   0  0  1  0  0  0  0  0  0  0  0  0
   21.9668  -16.3492  -23.8775 C   0  0  0  0  0  0  0  0  0  0  0  0
   22.5101  -17.4497  -23.1042 C   0  0  0  0  0  0  0  0  0  0  0  0
   21.9454  -18.1444  -22.0571 C   0  0  0  0  0  0  0  0  0  0  0  0
   22.8066  -19.0682  -21.6118 N   0  0  0  0  0  0  0  0  0  0  0  0
   23.9386  -18.9799  -22.3676 C   0  0  0  0  0  0  0  0  0  0  0  0
   25.1194  -19.6918  -22.3281 C   0  0  0  0  0  0  0  0  0  0  0  0
   26.1410  -19.4184  -23.2095 C   0  0  0  0  0  0  0  0  0  0  0  0
   26.0027  -18.4207  -24.1555 C   0  0  0  0  0  0  0  0  0  0  0  0
   24.8188  -17.7193  -24.1824 C   0  0  0  0  0  0  0  0  0  0  0  0
   23.7836  -17.9732  -23.3132 C   0  0  0  0  0  0  0  0  0  0  0  0
   19.6717  -15.9533  -23.0050 C   0  0  0  0  0  0  0  0  0  0  0  0
   19.5547  -14.7184  -22.6574 O   0  0  0  0  0  0  0  0  0  0  0  0
   13.5592  -13.5838  -24.5923 O   0  0  0  0  0  0  0  0  0  0  0  0
   14.3500  -14.4079  -23.7768 C   0  0  0  0  0  0  0  0  0  0  0  0
   14.3201  -14.2939  -22.3971 C   0  0  0  0  0  0  0  0  0  0  0  0
   15.1048  -15.1131  -21.6029 C   0  0  0  0  0  0  0  0  0  0  0  0
   15.9444  -16.0708  -22.1382 C   0  0  0  0  0  0  0  0  0  0  0  0
   16.7639  -16.9180  -21.2551 C   0  0  0  0  0  0  0  0  0  0  0  0
   18.1717  -16.3806  -21.0380 C   0  0  2  0  0  0  0  0  0  0  0  0
   18.9279  -16.8695  -22.2013 N   0  0  0  0  0  0  0  0  0  0  0  0
   18.7623  -16.9310  -19.8222 C   0  0  0  0  0  0  0  0  0  0  0  0
   18.2373  -16.7225  -18.6930 O   0  0  0  0  0  0  0  0  0  0  0  0
   15.9736  -16.1835  -23.5120 C   0  0  0  0  0  0  0  0  0  0  0  0
   15.1851  -15.3607  -24.3158 C   0  0  0  0  0  0  0  0  0  0  0  0
   19.9050  -17.6925  -19.8669 O   0  0  0  0  0  0  0  0  0  0  0  0
  2  3  1  0
  2  1  1  1
  4  6  1  0
  4  2  1  0
  4  5  1  6
  6  7  2  0
  8  9  1  0
  8  6  1  0
  9 10  1  1
 11 12  2  0
 11 10  1  0
 13 12  1  0
 14 19  2  0
 14 13  1  0
 15 14  1  0
 16 17  1  0
 16 15  2  0
 17 18  2  0
 18 19  1  0
 19 11  1  0
 20  9  1  0
 21 20  2  0
 22 23  1  0
 23 33  2  0
 23 24  1  0
 24 25  2  0
 25 26  1  0
 26 27  1  0
 28 27  1  6
 28 29  1  0
 29 20  1  0
 30 28  1  0
 30 34  1  0
 31 30  2  0
 32 26  2  0
 33 32  1  0
M  END
$$$$
