TWY.pdb
     RDKit          3D

 34 36  0  0  1  0  0  0  0  0999 V2000
   28.5019  -22.5926  -18.4868 C   0  0  0  0  0  0  0  0  0  0  0  0
   28.0199  -22.9064  -17.0878 C   0  0  1  0  0  0  0  0  0  0  0  0
   29.0415  -23.4307  -16.3295 O   0  0  0  0  0  0  0  0  0  0  0  0
   27.4460  -21.6372  -16.5053 C   0  0  2  0  0  0  0  0  0  0  0  0
   28.4867  -20.6316  -16.5162 N   0  0  0  0  0  0  0  0  0  0  0  0
   26.8454  -21.8277  -15.1840 C   0  0  0  0  0  0  0  0  0  0  0  0
   25.9027  -22.6739  -15.0482 O   0  0  0  0  0  0  0  0  0  0  0  0
   27.2241  -21.1407  -14.0088 N   0  0  0  0  0  0  0  0  0  0  0  0
   26.5254  -21.3744  -12.7148 C   0  0  1  0  0  0  0  0  0  0  0  0
   27.3564  -20.8669  -11.5985 C   0  0  0  0  0  0  0  0  0  0  0  0
   26.7303  -20.6896  -10.3020 C   0  0  0  0  0  0  0  0  0  0  0  0
   25.4028  -20.4898   -9.9928 C   0  0  0  0  0  0  0  0  0  0  0  0
   25.2645  -20.3459   -8.6686 N   0  0  0  0  0  0  0  0  0  0  0  0
   26.5032  -20.4515   -8.1074 C   0  0  0  0  0  0  0  0  0  0  0  0
   26.9185  -20.3797   -6.7941 C   0  0  0  0  0  0  0  0  0  0  0  0
   28.2476  -20.5186   -6.4629 C   0  0  0  0  0  0  0  0  0  0  0  0
   29.1959  -20.7338   -7.4446 C   0  0  0  0  0  0  0  0  0  0  0  0
   28.7661  -20.8030   -8.7502 C   0  0  0  0  0  0  0  0  0  0  0  0
   27.4446  -20.6675   -9.1068 C   0  0  0  0  0  0  0  0  0  0  0  0
   25.1965  -20.7590  -12.8269 C   0  0  0  0  0  0  0  0  0  0  0  0
   25.0670  -19.5399  -13.2223 O   0  0  0  0  0  0  0  0  0  0  0  0
   17.9172  -19.2164  -16.9966 O   0  0  0  0  0  0  0  0  0  0  0  0
   19.1126  -19.6125  -16.3774 C   0  0  0  0  0  0  0  0  0  0  0  0
   19.9564  -18.6868  -15.7869 C   0  0  0  0  0  0  0  0  0  0  0  0
   21.1333  -19.0898  -15.1786 C   0  0  0  0  0  0  0  0  0  0  0  0
   21.5196  -20.4153  -15.1306 C   0  0  0  0  0  0  0  0  0  0  0  0
   22.7821  -20.7982  -14.4758 C   0  0  0  0  0  0  0  0  0  0  0  0
   22.6905  -20.8267  -12.9564 C   0  0  2  0  0  0  0  0  0  0  0  0
   23.9667  -21.4205  -12.5289 N   0  0  0  0  0  0  0  0  0  0  0  0
   21.5957  -21.6837  -12.5123 C   0  0  0  0  0  0  0  0  0  0  0  0
   21.6751  -22.9403  -12.6065 O   0  0  0  0  0  0  0  0  0  0  0  0
   20.6791  -21.3364  -15.7190 C   0  0  0  0  0  0  0  0  0  0  0  0
   19.4928  -20.9351  -16.3327 C   0  0  0  0  0  0  0  0  0  0  0  0
   20.4468  -21.1524  -11.9780 O   0  0  0  0  0  0  0  0  0  0  0  0
  2  3  1  0
  2  1  1  6
  4  6  1  0
  4  2  1  0
  4  5  1  1
  6  7  2  0
  8  9  1  0
  8  6  1  0
  9 10  1  1
 11 12  2  0
 11 10  1  0
 13 12  1  0
 14 19  2  0
 14 13  1  0
 15 14  1  0
 16 17  1  0
 16 15  2  0
 17 18  2  0
 18 19  1  0
 19 11  1  0
 20  9  1  0
 21 20  2  0
 22 23  1  0
 23 33  2  0
 23 24  1  0
 24 25  2  0
 25 26  1  0
 26 27  1  0
 28 27  1  6
 28 29  1  0
 29 20  1  0
 30 28  1  0
 30 34  1  0
 31 30  2  0
 32 26  2  0
 33 32  1  0
M  END
$$$$
