TWY.pdb
     RDKit          3D

 34 36  0  0  1  0  0  0  0  0999 V2000
   28.3853  -22.2259  -18.6165 C   0  0  0  0  0  0  0  0  0  0  0  0
   27.5028  -22.0408  -17.4022 C   0  0  1  0  0  0  0  0  0  0  0  0
   26.2673  -22.6102  -17.6096 O   0  0  0  0  0  0  0  0  0  0  0  0
   28.2287  -22.6258  -16.2145 C   0  0  2  0  0  0  0  0  0  0  0  0
   28.4496  -24.0320  -16.4759 N   0  0  0  0  0  0  0  0  0  0  0  0
   27.5485  -22.3782  -14.9422 C   0  0  0  0  0  0  0  0  0  0  0  0
   26.9056  -23.3284  -14.3882 O   0  0  0  0  0  0  0  0  0  0  0  0
   27.5374  -21.1469  -14.2490 N   0  0  0  0  0  0  0  0  0  0  0  0
   26.8449  -21.0009  -12.9389 C   0  0  1  0  0  0  0  0  0  0  0  0
   27.5357  -19.9791  -12.1188 C   0  0  0  0  0  0  0  0  0  0  0  0
   28.2808  -20.4213  -10.9552 C   0  0  0  0  0  0  0  0  0  0  0  0
   29.5321  -20.9931  -10.8845 C   0  0  0  0  0  0  0  0  0  0  0  0
   29.8281  -21.2750   -9.6093 N   0  0  0  0  0  0  0  0  0  0  0  0
   28.7693  -20.8877   -8.8414 C   0  0  0  0  0  0  0  0  0  0  0  0
   28.5585  -20.9517   -7.4798 C   0  0  0  0  0  0  0  0  0  0  0  0
   27.3878  -20.4897   -6.9219 C   0  0  0  0  0  0  0  0  0  0  0  0
   26.3963  -19.9503   -7.7190 C   0  0  0  0  0  0  0  0  0  0  0  0
   26.6214  -19.8934   -9.0756 C   0  0  0  0  0  0  0  0  0  0  0  0
   27.7819  -20.3480   -9.6571 C   0  0  0  0  0  0  0  0  0  0  0  0
   25.4341  -20.7124  -13.2284 C   0  0  0  0  0  0  0  0  0  0  0  0
   25.1099  -19.8675  -14.1451 O   0  0  0  0  0  0  0  0  0  0  0  0
   23.7106  -24.6110  -18.1670 O   0  0  0  0  0  0  0  0  0  0  0  0
   23.3475  -24.0218  -16.9461 C   0  0  0  0  0  0  0  0  0  0  0  0
   23.7269  -24.5816  -15.7378 C   0  0  0  0  0  0  0  0  0  0  0  0
   23.3628  -23.9908  -14.5395 C   0  0  0  0  0  0  0  0  0  0  0  0
   22.6141  -22.8308  -14.4893 C   0  0  0  0  0  0  0  0  0  0  0  0
   22.2467  -22.2390  -13.1915 C   0  0  0  0  0  0  0  0  0  0  0  0
   22.9533  -20.9210  -12.9066 C   0  0  2  0  0  0  0  0  0  0  0  0
   24.3270  -21.3160  -12.5587 N   0  0  0  0  0  0  0  0  0  0  0  0
   22.3519  -20.2387  -11.7652 C   0  0  0  0  0  0  0  0  0  0  0  0
   21.1703  -19.7970  -11.8212 O   0  0  0  0  0  0  0  0  0  0  0  0
   22.2366  -22.2742  -15.6929 C   0  0  0  0  0  0  0  0  0  0  0  0
   22.6010  -22.8657  -16.9021 C   0  0  0  0  0  0  0  0  0  0  0  0
   23.0495  -20.0562  -10.5957 O   0  0  0  0  0  0  0  0  0  0  0  0
  2  3  1  0
  2  1  1  6
  4  6  1  0
  4  2  1  0
  4  5  1  6
  6  7  2  0
  8  9  1  0
  8  6  1  0
  9 10  1  6
 11 12  2  0
 11 10  1  0
 13 12  1  0
 14 19  2  0
 14 13  1  0
 15 14  1  0
 16 17  1  0
 16 15  2  0
 17 18  2  0
 18 19  1  0
 19 11  1  0
 20  9  1  0
 21 20  2  0
 22 23  1  0
 23 33  2  0
 23 24  1  0
 24 25  2  0
 25 26  1  0
 26 27  1  0
 28 27  1  1
 28 29  1  0
 29 20  1  0
 30 28  1  0
 30 34  1  0
 31 30  2  0
 32 26  2  0
 33 32  1  0
M  END
$$$$
