TWY.pdb
     RDKit          3D

 34 36  0  0  1  0  0  0  0  0999 V2000
   29.7765  -25.4865  -19.4915 C   0  0  0  0  0  0  0  0  0  0  0  0
   28.9846  -24.5742  -18.5813 C   0  0  1  0  0  0  0  0  0  0  0  0
   27.8072  -25.1746  -18.1983 O   0  0  0  0  0  0  0  0  0  0  0  0
   29.8690  -24.2134  -17.4119 C   0  0  2  0  0  0  0  0  0  0  0  0
   30.2020  -25.4353  -16.7116 N   0  0  0  0  0  0  0  0  0  0  0  0
   29.2860  -23.1924  -16.5398 C   0  0  0  0  0  0  0  0  0  0  0  0
   28.9897  -23.4988  -15.3392 O   0  0  0  0  0  0  0  0  0  0  0  0
   29.0123  -21.8580  -16.9155 N   0  0  0  0  0  0  0  0  0  0  0  0
   28.3847  -20.8983  -15.9656 C   0  0  1  0  0  0  0  0  0  0  0  0
   28.6303  -19.5104  -16.4209 C   0  0  0  0  0  0  0  0  0  0  0  0
   27.9642  -18.4295  -15.7191 C   0  0  0  0  0  0  0  0  0  0  0  0
   27.8679  -18.1956  -14.3649 C   0  0  0  0  0  0  0  0  0  0  0  0
   27.1354  -17.0957  -14.1479 N   0  0  0  0  0  0  0  0  0  0  0  0
   26.7502  -16.6067  -15.3616 C   0  0  0  0  0  0  0  0  0  0  0  0
   25.9917  -15.5062  -15.7023 C   0  0  0  0  0  0  0  0  0  0  0  0
   25.7298  -15.2071  -17.0204 C   0  0  0  0  0  0  0  0  0  0  0  0
   26.2240  -16.0076  -18.0325 C   0  0  0  0  0  0  0  0  0  0  0  0
   26.9790  -17.1019  -17.6767 C   0  0  0  0  0  0  0  0  0  0  0  0
   27.2547  -17.4220  -16.3678 C   0  0  0  0  0  0  0  0  0  0  0  0
   26.9686  -21.2710  -15.8511 C   0  0  0  0  0  0  0  0  0  0  0  0
   26.3250  -21.7311  -16.8677 O   0  0  0  0  0  0  0  0  0  0  0  0
   18.8848  -22.9646  -12.4538 O   0  0  0  0  0  0  0  0  0  0  0  0
   20.2534  -22.7421  -12.6710 C   0  0  0  0  0  0  0  0  0  0  0  0
   20.8698  -21.5806  -12.2368 C   0  0  0  0  0  0  0  0  0  0  0  0
   22.2211  -21.3726  -12.4567 C   0  0  0  0  0  0  0  0  0  0  0  0
   23.0107  -22.2988  -13.1103 C   0  0  0  0  0  0  0  0  0  0  0  0
   24.4436  -22.0339  -13.3253 C   0  0  0  0  0  0  0  0  0  0  0  0
   24.7488  -21.4324  -14.6902 C   0  0  2  0  0  0  0  0  0  0  0  0
   26.1963  -21.1724  -14.6544 N   0  0  0  0  0  0  0  0  0  0  0  0
   24.0436  -20.1682  -14.8764 C   0  0  0  0  0  0  0  0  0  0  0  0
   24.4301  -19.1168  -14.2939 O   0  0  0  0  0  0  0  0  0  0  0  0
   22.3962  -23.4549  -13.5424 C   0  0  0  0  0  0  0  0  0  0  0  0
   21.0356  -23.6687  -13.3231 C   0  0  0  0  0  0  0  0  0  0  0  0
   22.9400  -20.0813  -15.6902 O   0  0  0  0  0  0  0  0  0  0  0  0
  2  3  1  0
  2  1  1  6
  4  6  1  0
  4  2  1  0
  4  5  1  1
  6  7  2  0
  8  9  1  0
  8  6  1  0
  9 10  1  6
 11 12  2  0
 11 10  1  0
 13 12  1  0
 14 19  2  0
 14 13  1  0
 15 14  1  0
 16 17  1  0
 16 15  2  0
 17 18  2  0
 18 19  1  0
 19 11  1  0
 20  9  1  0
 21 20  2  0
 22 23  1  0
 23 33  2  0
 23 24  1  0
 24 25  2  0
 25 26  1  0
 26 27  1  0
 28 27  1  1
 28 29  1  0
 29 20  1  0
 30 28  1  0
 30 34  1  0
 31 30  2  0
 32 26  2  0
 33 32  1  0
M  END
$$$$
