TWY.pdb
     RDKit          3D

 34 36  0  0  1  0  0  0  0  0999 V2000
   27.7932  -19.8260  -16.0376 C   0  0  0  0  0  0  0  0  0  0  0  0
   27.0316  -19.9613  -14.7378 C   0  0  1  0  0  0  0  0  0  0  0  0
   25.6773  -19.8517  -14.9559 O   0  0  0  0  0  0  0  0  0  0  0  0
   27.4224  -21.2789  -14.1126 C   0  0  2  0  0  0  0  0  0  0  0  0
   26.9492  -22.3395  -14.9761 N   0  0  0  0  0  0  0  0  0  0  0  0
   26.9674  -21.4193  -12.7284 C   0  0  0  0  0  0  0  0  0  0  0  0
   25.9221  -22.1063  -12.4866 O   0  0  0  0  0  0  0  0  0  0  0  0
   27.5974  -20.8473  -11.6004 N   0  0  0  0  0  0  0  0  0  0  0  0
   26.9565  -20.8760  -10.2566 C   0  0  1  0  0  0  0  0  0  0  0  0
   27.8764  -20.2961   -9.2509 C   0  0  0  0  0  0  0  0  0  0  0  0
   27.7904  -20.7758   -7.8845 C   0  0  0  0  0  0  0  0  0  0  0  0
   27.6989  -22.0682   -7.4163 C   0  0  0  0  0  0  0  0  0  0  0  0
   27.6115  -22.0590   -6.0801 N   0  0  0  0  0  0  0  0  0  0  0  0
   27.6456  -20.7585   -5.6702 C   0  0  0  0  0  0  0  0  0  0  0  0
   27.5892  -20.1973   -4.4114 C   0  0  0  0  0  0  0  0  0  0  0  0
   27.6419  -18.8320   -4.2417 C   0  0  0  0  0  0  0  0  0  0  0  0
   27.7531  -17.9935   -5.3343 C   0  0  0  0  0  0  0  0  0  0  0  0
   27.8083  -18.5684   -6.5836 C   0  0  0  0  0  0  0  0  0  0  0  0
   27.7575  -19.9288   -6.7795 C   0  0  0  0  0  0  0  0  0  0  0  0
   25.6641  -20.1894  -10.3823 C   0  0  0  0  0  0  0  0  0  0  0  0
   25.5942  -19.0050  -10.8839 O   0  0  0  0  0  0  0  0  0  0  0  0
   18.2117  -18.4064  -14.1674 O   0  0  0  0  0  0  0  0  0  0  0  0
   19.4209  -18.8525  -13.6122 C   0  0  0  0  0  0  0  0  0  0  0  0
   19.4543  -19.9125  -12.7217 C   0  0  0  0  0  0  0  0  0  0  0  0
   20.6538  -20.3439  -12.1807 C   0  0  0  0  0  0  0  0  0  0  0  0
   21.8595  -19.7480  -12.4967 C   0  0  0  0  0  0  0  0  0  0  0  0
   23.1111  -20.2379  -11.8944 C   0  0  0  0  0  0  0  0  0  0  0  0
   23.1563  -20.0783  -10.3810 C   0  0  2  0  0  0  0  0  0  0  0  0
   24.4086  -20.7414   -9.9855 N   0  0  0  0  0  0  0  0  0  0  0  0
   22.0349  -20.7643   -9.7469 C   0  0  0  0  0  0  0  0  0  0  0  0
   22.1192  -21.9806   -9.4186 O   0  0  0  0  0  0  0  0  0  0  0  0
   21.8253  -18.6925  -13.3832 C   0  0  0  0  0  0  0  0  0  0  0  0
   20.6197  -18.2547  -13.9306 C   0  0  0  0  0  0  0  0  0  0  0  0
   20.8550  -20.1104   -9.4865 O   0  0  0  0  0  0  0  0  0  0  0  0
  2  3  1  0
  2  1  1  6
  4  6  1  0
  4  2  1  0
  4  5  1  6
  6  7  2  0
  8  9  1  0
  8  6  1  0
  9 10  1  1
 11 12  2  0
 11 10  1  0
 13 12  1  0
 14 19  2  0
 14 13  1  0
 15 14  1  0
 16 17  1  0
 16 15  2  0
 17 18  2  0
 18 19  1  0
 19 11  1  0
 20  9  1  0
 21 20  2  0
 22 23  1  0
 23 33  2  0
 23 24  1  0
 24 25  2  0
 25 26  1  0
 26 27  1  0
 28 27  1  6
 28 29  1  0
 29 20  1  0
 30 28  1  0
 30 34  1  0
 31 30  2  0
 32 26  2  0
 33 32  1  0
M  END
$$$$
