TWY.pdb
     RDKit          3D

 34 36  0  0  1  0  0  0  0  0999 V2000
   28.6098  -21.0296  -18.9117 C   0  0  0  0  0  0  0  0  0  0  0  0
   27.6957  -21.1661  -17.7144 C   0  0  1  0  0  0  0  0  0  0  0  0
   26.4671  -21.6547  -18.0958 O   0  0  0  0  0  0  0  0  0  0  0  0
   28.3917  -22.0465  -16.7044 C   0  0  2  0  0  0  0  0  0  0  0  0
   28.5868  -23.3477  -17.3071 N   0  0  0  0  0  0  0  0  0  0  0  0
   27.6983  -22.1083  -15.4166 C   0  0  0  0  0  0  0  0  0  0  0  0
   27.0212  -23.1478  -15.1269 O   0  0  0  0  0  0  0  0  0  0  0  0
   27.7094  -21.0926  -14.4344 N   0  0  0  0  0  0  0  0  0  0  0  0
   27.0191  -21.2706  -13.1271 C   0  0  1  0  0  0  0  0  0  0  0  0
   27.6380  -20.3893  -12.1101 C   0  0  0  0  0  0  0  0  0  0  0  0
   26.9651  -20.2349  -10.8343 C   0  0  0  0  0  0  0  0  0  0  0  0
   25.6687  -19.8501  -10.5712 C   0  0  0  0  0  0  0  0  0  0  0  0
   25.4693  -19.8112   -9.2476 N   0  0  0  0  0  0  0  0  0  0  0  0
   26.6366  -20.1711   -8.6406 C   0  0  0  0  0  0  0  0  0  0  0  0
   26.9718  -20.2928   -7.3081 C   0  0  0  0  0  0  0  0  0  0  0  0
   28.2378  -20.6785   -6.9287 C   0  0  0  0  0  0  0  0  0  0  0  0
   29.2018  -20.9527   -7.8800 C   0  0  0  0  0  0  0  0  0  0  0  0
   28.8521  -20.8269   -9.2052 C   0  0  0  0  0  0  0  0  0  0  0  0
   27.5948  -20.4433   -9.6098 C   0  0  0  0  0  0  0  0  0  0  0  0
   25.5882  -21.0362  -13.3613 C   0  0  0  0  0  0  0  0  0  0  0  0
   25.1952  -20.0784  -14.1278 O   0  0  0  0  0  0  0  0  0  0  0  0
   16.6996  -21.6644  -12.4183 O   0  0  0  0  0  0  0  0  0  0  0  0
   18.0845  -21.8913  -12.4286 C   0  0  0  0  0  0  0  0  0  0  0  0
   18.8246  -21.8683  -11.2585 C   0  0  0  0  0  0  0  0  0  0  0  0
   20.1907  -22.0939  -11.2814 C   0  0  0  0  0  0  0  0  0  0  0  0
   20.8741  -22.3494  -12.4544 C   0  0  0  0  0  0  0  0  0  0  0  0
   22.3286  -22.5803  -12.4320 C   0  0  0  0  0  0  0  0  0  0  0  0
   23.1321  -21.4314  -13.0255 C   0  0  2  0  0  0  0  0  0  0  0  0
   24.5336  -21.8142  -12.7947 N   0  0  0  0  0  0  0  0  0  0  0  0
   22.8592  -20.1816  -12.3229 C   0  0  0  0  0  0  0  0  0  0  0  0
   23.3539  -19.9557  -11.1834 O   0  0  0  0  0  0  0  0  0  0  0  0
   20.1365  -22.3718  -13.6191 C   0  0  0  0  0  0  0  0  0  0  0  0
   18.7606  -22.1452  -13.6009 C   0  0  0  0  0  0  0  0  0  0  0  0
   22.0582  -19.2128  -12.8774 O   0  0  0  0  0  0  0  0  0  0  0  0
  2  3  1  0
  2  1  1  6
  4  6  1  0
  4  2  1  0
  4  5  1  6
  6  7  2  0
  8  9  1  0
  8  6  1  0
  9 10  1  1
 11 12  2  0
 11 10  1  0
 13 12  1  0
 14 19  2  0
 14 13  1  0
 15 14  1  0
 16 17  1  0
 16 15  2  0
 17 18  2  0
 18 19  1  0
 19 11  1  0
 20  9  1  0
 21 20  2  0
 22 23  1  0
 23 33  2  0
 23 24  1  0
 24 25  2  0
 25 26  1  0
 26 27  1  0
 28 27  1  1
 28 29  1  0
 29 20  1  0
 30 28  1  0
 30 34  1  0
 31 30  2  0
 32 26  2  0
 33 32  1  0
M  END
$$$$
