TWY.pdb
     RDKit          3D

 34 36  0  0  1  0  0  0  0  0999 V2000
   24.8634  -15.2384  -18.8584 C   0  0  0  0  0  0  0  0  0  0  0  0
   25.1094  -16.6193  -19.4247 C   0  0  1  0  0  0  0  0  0  0  0  0
   25.3584  -16.5515  -20.7764 O   0  0  0  0  0  0  0  0  0  0  0  0
   26.2463  -17.2377  -18.6470 C   0  0  2  0  0  0  0  0  0  0  0  0
   27.4490  -17.1145  -19.4424 N   0  0  0  0  0  0  0  0  0  0  0  0
   25.9762  -18.6127  -18.2236 C   0  0  0  0  0  0  0  0  0  0  0  0
   24.8316  -19.1200  -18.4595 O   0  0  0  0  0  0  0  0  0  0  0  0
   26.8932  -19.4564  -17.5574 N   0  0  0  0  0  0  0  0  0  0  0  0
   26.5132  -20.8316  -17.1314 C   0  0  1  0  0  0  0  0  0  0  0  0
   27.7300  -21.6622  -16.9779 C   0  0  0  0  0  0  0  0  0  0  0  0
   27.5732  -23.0339  -16.5325 C   0  0  0  0  0  0  0  0  0  0  0  0
   26.4251  -23.7187  -16.1996 C   0  0  0  0  0  0  0  0  0  0  0  0
   26.7374  -24.9618  -15.8119 N   0  0  0  0  0  0  0  0  0  0  0  0
   28.0928  -25.0935  -15.8902 C   0  0  0  0  0  0  0  0  0  0  0  0
   28.9234  -26.1582  -15.6088 C   0  0  0  0  0  0  0  0  0  0  0  0
   30.2871  -26.0537  -15.7668 C   0  0  0  0  0  0  0  0  0  0  0  0
   30.8528  -24.8745  -16.2125 C   0  0  0  0  0  0  0  0  0  0  0  0
   30.0112  -23.8212  -16.4890 C   0  0  0  0  0  0  0  0  0  0  0  0
   28.6462  -23.9004  -16.3394 C   0  0  0  0  0  0  0  0  0  0  0  0
   25.6990  -20.6955  -15.9165 C   0  0  0  0  0  0  0  0  0  0  0  0
   26.1235  -20.0074  -14.9137 O   0  0  0  0  0  0  0  0  0  0  0  0
   18.9563  -17.9164  -17.4986 O   0  0  0  0  0  0  0  0  0  0  0  0
   20.0541  -18.3313  -16.7290 C   0  0  0  0  0  0  0  0  0  0  0  0
   21.3519  -18.1707  -17.1842 C   0  0  0  0  0  0  0  0  0  0  0  0
   22.4271  -18.5838  -16.4155 C   0  0  0  0  0  0  0  0  0  0  0  0
   22.2622  -19.1683  -15.1746 C   0  0  0  0  0  0  0  0  0  0  0  0
   23.4350  -19.5958  -14.3928 C   0  0  0  0  0  0  0  0  0  0  0  0
   23.6931  -21.0946  -14.4611 C   0  0  2  0  0  0  0  0  0  0  0  0
   24.4094  -21.2798  -15.7326 N   0  0  0  0  0  0  0  0  0  0  0  0
   22.4402  -21.8416  -14.5087 C   0  0  0  0  0  0  0  0  0  0  0  0
   22.0834  -22.4456  -15.5585 O   0  0  0  0  0  0  0  0  0  0  0  0
   20.9696  -19.3281  -14.7222 C   0  0  0  0  0  0  0  0  0  0  0  0
   19.8838  -18.9134  -15.4928 C   0  0  0  0  0  0  0  0  0  0  0  0
   21.6110  -21.9124  -13.4155 O   0  0  0  0  0  0  0  0  0  0  0  0
  2  3  1  0
  2  1  1  1
  4  6  1  0
  4  2  1  0
  4  5  1  6
  6  7  2  0
  8  9  1  0
  8  6  1  0
  9 10  1  1
 11 12  2  0
 11 10  1  0
 13 12  1  0
 14 19  2  0
 14 13  1  0
 15 14  1  0
 16 17  1  0
 16 15  2  0
 17 18  2  0
 18 19  1  0
 19 11  1  0
 20  9  1  0
 21 20  2  0
 22 23  1  0
 23 33  2  0
 23 24  1  0
 24 25  2  0
 25 26  1  0
 26 27  1  0
 28 27  1  6
 28 29  1  0
 29 20  1  0
 30 28  1  0
 30 34  1  0
 31 30  2  0
 32 26  2  0
 33 32  1  0
M  END
$$$$
