TWY.pdb
     RDKit          3D

 34 36  0  0  1  0  0  0  0  0999 V2000
   24.8839   -5.0921  -22.5198 C   0  0  0  0  0  0  0  0  0  0  0  0
   26.1971   -5.8425  -22.5082 C   0  0  1  0  0  0  0  0  0  0  0  0
   27.0522   -5.3379  -23.4610 O   0  0  0  0  0  0  0  0  0  0  0  0
   26.7598   -5.7602  -21.1095 C   0  0  2  0  0  0  0  0  0  0  0  0
   28.1888   -5.9738  -21.1909 N   0  0  0  0  0  0  0  0  0  0  0  0
   26.0971   -6.6621  -20.1660 C   0  0  0  0  0  0  0  0  0  0  0  0
   25.0408   -7.2735  -20.5312 O   0  0  0  0  0  0  0  0  0  0  0  0
   26.5319   -6.9269  -18.8479 N   0  0  0  0  0  0  0  0  0  0  0  0
   25.8130   -7.8949  -17.9741 C   0  0  1  0  0  0  0  0  0  0  0  0
   26.7253   -8.3874  -16.9162 C   0  0  0  0  0  0  0  0  0  0  0  0
   27.6573   -9.4473  -17.2520 C   0  0  0  0  0  0  0  0  0  0  0  0
   28.5738   -9.5121  -18.2784 C   0  0  0  0  0  0  0  0  0  0  0  0
   29.2131  -10.6881  -18.2390 N   0  0  0  0  0  0  0  0  0  0  0  0
   28.7156  -11.3966  -17.1849 C   0  0  0  0  0  0  0  0  0  0  0  0
   29.0224  -12.6525  -16.7041 C   0  0  0  0  0  0  0  0  0  0  0  0
   28.3744  -13.1675  -15.6040 C   0  0  0  0  0  0  0  0  0  0  0  0
   27.3994  -12.4326  -14.9570 C   0  0  0  0  0  0  0  0  0  0  0  0
   27.1045  -11.1814  -15.4485 C   0  0  0  0  0  0  0  0  0  0  0  0
   27.7372  -10.6447  -16.5454 C   0  0  0  0  0  0  0  0  0  0  0  0
   24.6056   -7.2170  -17.4842 C   0  0  0  0  0  0  0  0  0  0  0  0
   24.6782   -6.0453  -16.9540 O   0  0  0  0  0  0  0  0  0  0  0  0
   15.9865   -5.2173  -16.2070 O   0  0  0  0  0  0  0  0  0  0  0  0
   17.2030   -5.8153  -16.5704 C   0  0  0  0  0  0  0  0  0  0  0  0
   17.9985   -5.2762  -17.5674 C   0  0  0  0  0  0  0  0  0  0  0  0
   19.1971   -5.8752  -17.9169 C   0  0  0  0  0  0  0  0  0  0  0  0
   19.6531   -7.0233  -17.2985 C   0  0  0  0  0  0  0  0  0  0  0  0
   20.9329   -7.6283  -17.7052 C   0  0  0  0  0  0  0  0  0  0  0  0
   22.1443   -6.9740  -17.0552 C   0  0  2  0  0  0  0  0  0  0  0  0
   23.2864   -7.7592  -17.5482 N   0  0  0  0  0  0  0  0  0  0  0  0
   22.0840   -7.0848  -15.6012 C   0  0  0  0  0  0  0  0  0  0  0  0
   22.5420   -8.1008  -15.0076 O   0  0  0  0  0  0  0  0  0  0  0  0
   18.8603   -7.5595  -16.3060 C   0  0  0  0  0  0  0  0  0  0  0  0
   17.6525   -6.9596  -15.9506 C   0  0  0  0  0  0  0  0  0  0  0  0
   21.5293   -6.0897  -14.8333 O   0  0  0  0  0  0  0  0  0  0  0  0
  2  3  1  0
  2  1  1  1
  4  6  1  0
  4  2  1  0
  4  5  1  6
  6  7  2  0
  8  9  1  0
  8  6  1  0
  9 10  1  1
 11 12  2  0
 11 10  1  0
 13 12  1  0
 14 19  2  0
 14 13  1  0
 15 14  1  0
 16 17  1  0
 16 15  2  0
 17 18  2  0
 18 19  1  0
 19 11  1  0
 20  9  1  0
 21 20  2  0
 22 23  1  0
 23 33  2  0
 23 24  1  0
 24 25  2  0
 25 26  1  0
 26 27  1  0
 28 27  1  6
 28 29  1  0
 29 20  1  0
 30 28  1  0
 30 34  1  0
 31 30  2  0
 32 26  2  0
 33 32  1  0
M  END
$$$$
