TWY.pdb
     RDKit          3D

 34 36  0  0  1  0  0  0  0  0999 V2000
   12.3308  -15.2267  -19.2709 C   0  0  0  0  0  0  0  0  0  0  0  0
   11.2777  -14.7255  -18.3078 C   0  0  1  0  0  0  0  0  0  0  0  0
   10.3029  -14.0228  -18.9782 O   0  0  0  0  0  0  0  0  0  0  0  0
   10.7342  -15.9198  -17.5609 C   0  0  2  0  0  0  0  0  0  0  0  0
    9.3520  -15.6470  -17.2301 N   0  0  0  0  0  0  0  0  0  0  0  0
   11.5410  -16.2897  -16.3969 C   0  0  0  0  0  0  0  0  0  0  0  0
   12.7794  -16.5428  -16.5566 O   0  0  0  0  0  0  0  0  0  0  0  0
   11.0614  -16.3958  -15.0720 N   0  0  0  0  0  0  0  0  0  0  0  0
   11.9838  -16.6524  -13.9317 C   0  0  1  0  0  0  0  0  0  0  0  0
   11.4976  -15.9438  -12.7253 C   0  0  0  0  0  0  0  0  0  0  0  0
   11.4719  -14.4935  -12.7446 C   0  0  0  0  0  0  0  0  0  0  0  0
   12.1431  -13.6186  -13.5703 C   0  0  0  0  0  0  0  0  0  0  0  0
   11.8528  -12.3581  -13.2238 N   0  0  0  0  0  0  0  0  0  0  0  0
   10.9895  -12.4054  -12.1687 C   0  0  0  0  0  0  0  0  0  0  0  0
   10.3865  -11.4027  -11.4382 C   0  0  0  0  0  0  0  0  0  0  0  0
    9.5360  -11.6987  -10.3968 C   0  0  0  0  0  0  0  0  0  0  0  0
    9.2686  -13.0123  -10.0617 C   0  0  0  0  0  0  0  0  0  0  0  0
    9.8778  -14.0014  -10.7998 C   0  0  0  0  0  0  0  0  0  0  0  0
   10.7310  -13.7318  -11.8443 C   0  0  0  0  0  0  0  0  0  0  0  0
   12.0969  -18.1100  -13.7901 C   0  0  0  0  0  0  0  0  0  0  0  0
   11.1603  -18.7910  -13.2258 O   0  0  0  0  0  0  0  0  0  0  0  0
   18.7653  -19.4672  -17.2249 O   0  0  0  0  0  0  0  0  0  0  0  0
   17.4876  -19.8306  -16.7722 C   0  0  0  0  0  0  0  0  0  0  0  0
   16.3650  -19.1040  -17.1317 C   0  0  0  0  0  0  0  0  0  0  0  0
   15.1093  -19.4726  -16.6789 C   0  0  0  0  0  0  0  0  0  0  0  0
   14.9156  -20.5669  -15.8583 C   0  0  0  0  0  0  0  0  0  0  0  0
   13.5619  -20.9202  -15.3977 C   0  0  0  0  0  0  0  0  0  0  0  0
   13.2185  -20.3427  -14.0315 C   0  0  2  0  0  0  0  0  0  0  0  0
   13.2031  -18.8878  -14.2483 N   0  0  0  0  0  0  0  0  0  0  0  0
   14.2498  -20.6658  -13.0506 C   0  0  0  0  0  0  0  0  0  0  0  0
   15.0182  -19.7721  -12.5976 O   0  0  0  0  0  0  0  0  0  0  0  0
   16.0339  -21.2897  -15.5007 C   0  0  0  0  0  0  0  0  0  0  0  0
   17.3005  -20.9223  -15.9543 C   0  0  0  0  0  0  0  0  0  0  0  0
   14.4168  -21.9489  -12.5888 O   0  0  0  0  0  0  0  0  0  0  0  0
  2  3  1  0
  2  1  1  6
  4  6  1  0
  4  2  1  0
  4  5  1  1
  6  7  2  0
  8  9  1  0
  8  6  1  0
  9 10  1  1
 11 12  2  0
 11 10  1  0
 13 12  1  0
 14 19  2  0
 14 13  1  0
 15 14  1  0
 16 17  1  0
 16 15  2  0
 17 18  2  0
 18 19  1  0
 19 11  1  0
 20  9  1  0
 21 20  2  0
 22 23  1  0
 23 33  2  0
 23 24  1  0
 24 25  2  0
 25 26  1  0
 26 27  1  0
 28 27  1  6
 28 29  1  0
 29 20  1  0
 30 28  1  0
 30 34  1  0
 31 30  2  0
 32 26  2  0
 33 32  1  0
M  END
$$$$
