IPT.pdb
     RDKit          3D

 23 23  0  0  1  0  0  0  0  0999 V2000
    6.3189  -11.6064   27.4534 C   0  0  0  0  0  0  0  0  0  0  0  0
    5.7719  -12.8655   26.8148 C   0  0  0  0  0  0  0  0  0  0  0  0
    6.8579  -13.5138   26.0044 C   0  0  2  0  0  0  0  0  0  0  0  0
    7.3766  -12.5522   24.9585 C   0  0  0  0  0  0  0  0  0  0  0  0
    6.4114  -14.8146   25.3748 C   0  0  2  0  0  0  0  0  0  0  0  0
    5.7579  -15.6901   26.2790 N   0  0  0  0  0  0  0  0  0  0  0  0
    7.4923  -15.4463   24.5867 C   0  0  0  0  0  0  0  0  0  0  0  0
    8.2945  -16.1669   25.2462 O   0  0  0  0  0  0  0  0  0  0  0  0
    7.6661  -15.2860   23.1712 N   0  0  0  0  0  0  0  0  0  0  0  0
    6.7131  -14.4873   22.4154 C   0  0  0  0  0  0  0  0  0  0  0  0
    7.1107  -14.6603   20.9587 C   0  0  0  0  0  0  0  0  0  0  0  0
    8.6027  -14.8043   21.1135 C   0  0  0  0  0  0  0  0  0  0  0  0
    8.6504  -15.7874   22.2936 C   0  0  1  0  0  0  0  0  0  0  0  0
   10.0296  -15.8793   22.8140 C   0  0  0  0  0  0  0  0  0  0  0  0
   10.4898  -14.9511   23.5073 O   0  0  0  0  0  0  0  0  0  0  0  0
   12.0950  -19.5757   23.0094 C   0  0  0  0  0  0  0  0  0  0  0  0
   12.2714  -18.4215   23.9861 C   0  0  1  0  0  0  0  0  0  0  0  0
   13.5317  -18.5575   24.5655 O   0  0  0  0  0  0  0  0  0  0  0  0
   12.1791  -17.1432   23.1847 C   0  0  2  0  0  0  0  0  0  0  0  0
   10.8768  -16.9917   22.5618 N   0  0  0  0  0  0  0  0  0  0  0  0
   13.2740  -17.0640   22.1989 C   0  0  0  0  0  0  0  0  0  0  0  0
   14.4579  -16.7988   22.5169 O   0  0  0  0  0  0  0  0  0  0  0  0
   13.0046  -17.2892   20.8557 O   0  0  0  0  0  0  0  0  0  0  0  0
  2  1  1  0
  3  4  1  6
  3  2  1  0
  5  6  1  1
  5  3  1  0
  7  8  2  0
  7  5  1  0
  9  7  1  0
 10  9  1  0
 10 11  1  0
 12 13  1  0
 12 11  1  0
 13  9  1  0
 13 14  1  1
 15 14  2  0
 17 16  1  6
 18 17  1  0
 19 17  1  0
 19 20  1  6
 20 14  1  0
 21 23  1  0
 21 19  1  0
 22 21  2  0
M  END
$$$$
