IPT.pdb
     RDKit          3D

 23 23  0  0  1  0  0  0  0  0999 V2000
    6.8963  -11.2658   27.2661 C   0  0  0  0  0  0  0  0  0  0  0  0
    6.1107  -12.3698   26.5905 C   0  0  0  0  0  0  0  0  0  0  0  0
    7.0703  -13.3212   25.9343 C   0  0  2  0  0  0  0  0  0  0  0  0
    7.9732  -12.5770   24.9758 C   0  0  0  0  0  0  0  0  0  0  0  0
    6.3662  -14.4666   25.2416 C   0  0  2  0  0  0  0  0  0  0  0  0
    5.4525  -15.1609   26.0749 N   0  0  0  0  0  0  0  0  0  0  0  0
    7.3144  -15.3393   24.5151 C   0  0  0  0  0  0  0  0  0  0  0  0
    7.8778  -16.2289   25.2143 O   0  0  0  0  0  0  0  0  0  0  0  0
    7.6124  -15.2280   23.1157 N   0  0  0  0  0  0  0  0  0  0  0  0
    6.8348  -14.3214   22.2846 C   0  0  0  0  0  0  0  0  0  0  0  0
    7.3118  -14.5711   20.8633 C   0  0  0  0  0  0  0  0  0  0  0  0
    8.7551  -14.9119   21.1313 C   0  0  0  0  0  0  0  0  0  0  0  0
    8.5818  -15.8722   22.3184 C   0  0  1  0  0  0  0  0  0  0  0  0
    9.8936  -16.1400   22.9421 C   0  0  0  0  0  0  0  0  0  0  0  0
   10.4467  -15.2516   23.6195 O   0  0  0  0  0  0  0  0  0  0  0  0
   13.2777  -19.3033   24.5575 C   0  0  0  0  0  0  0  0  0  0  0  0
   12.0102  -19.1423   23.7299 C   0  0  1  0  0  0  0  0  0  0  0  0
   10.9549  -19.6515   24.4845 O   0  0  0  0  0  0  0  0  0  0  0  0
   11.8301  -17.6632   23.4762 C   0  0  2  0  0  0  0  0  0  0  0  0
   10.5723  -17.3811   22.8087 N   0  0  0  0  0  0  0  0  0  0  0  0
   12.9822  -17.1158   22.7346 C   0  0  0  0  0  0  0  0  0  0  0  0
   13.1274  -17.2634   21.4976 O   0  0  0  0  0  0  0  0  0  0  0  0
   13.9598  -16.4033   23.4158 O   0  0  0  0  0  0  0  0  0  0  0  0
  2  1  1  0
  3  4  1  6
  3  2  1  0
  5  6  1  1
  5  3  1  0
  7  8  2  0
  7  5  1  0
  9  7  1  0
 10  9  1  0
 10 11  1  0
 12 13  1  0
 12 11  1  0
 13  9  1  0
 13 14  1  1
 15 14  2  0
 17 16  1  1
 18 17  1  0
 19 17  1  0
 19 20  1  6
 20 14  1  0
 21 23  1  0
 21 19  1  0
 22 21  2  0
M  END
$$$$
