IPT.pdb
     RDKit          3D

 23 23  0  0  1  0  0  0  0  0999 V2000
    6.5951  -11.5317   27.4473 C   0  0  0  0  0  0  0  0  0  0  0  0
    5.9118  -12.6670   26.7148 C   0  0  0  0  0  0  0  0  0  0  0  0
    6.9463  -13.4578   25.9657 C   0  0  2  0  0  0  0  0  0  0  0  0
    7.6962  -12.5623   25.0047 C   0  0  0  0  0  0  0  0  0  0  0  0
    6.3548  -14.6514   25.2492 C   0  0  2  0  0  0  0  0  0  0  0  0
    5.5040  -15.4406   26.0644 N   0  0  0  0  0  0  0  0  0  0  0  0
    7.3835  -15.4209   24.5158 C   0  0  0  0  0  0  0  0  0  0  0  0
    8.0442  -16.2438   25.2115 O   0  0  0  0  0  0  0  0  0  0  0  0
    7.6557  -15.2826   23.1136 N   0  0  0  0  0  0  0  0  0  0  0  0
    6.7721  -14.4759   22.2855 C   0  0  0  0  0  0  0  0  0  0  0  0
    7.2636  -14.6756   20.8612 C   0  0  0  0  0  0  0  0  0  0  0  0
    8.7386  -14.8460   21.1185 C   0  0  0  0  0  0  0  0  0  0  0  0
    8.6869  -15.8142   22.3107 C   0  0  1  0  0  0  0  0  0  0  0  0
   10.0257  -15.9256   22.9246 C   0  0  0  0  0  0  0  0  0  0  0  0
   10.5806  -14.9073   23.3817 O   0  0  0  0  0  0  0  0  0  0  0  0
   11.2450  -17.3717   25.9155 C   0  0  0  0  0  0  0  0  0  0  0  0
   12.0433  -18.1200   24.8571 C   0  0  1  0  0  0  0  0  0  0  0  0
   11.3905  -19.3289   24.6230 O   0  0  0  0  0  0  0  0  0  0  0  0
   12.0506  -17.2591   23.6148 C   0  0  2  0  0  0  0  0  0  0  0  0
   10.7288  -17.1563   23.0238 N   0  0  0  0  0  0  0  0  0  0  0  0
   13.0508  -17.7474   22.6462 C   0  0  0  0  0  0  0  0  0  0  0  0
   14.2860  -17.6903   22.8565 O   0  0  0  0  0  0  0  0  0  0  0  0
   12.6286  -18.2976   21.4436 O   0  0  0  0  0  0  0  0  0  0  0  0
  2  1  1  0
  3  4  1  6
  3  2  1  0
  5  6  1  1
  5  3  1  0
  7  8  2  0
  7  5  1  0
  9  7  1  0
 10  9  1  0
 10 11  1  0
 12 13  1  0
 12 11  1  0
 13  9  1  0
 13 14  1  1
 15 14  2  0
 17 16  1  1
 18 17  1  0
 19 17  1  0
 19 20  1  6
 20 14  1  0
 21 23  1  0
 21 19  1  0
 22 21  2  0
M  END
$$$$
