IPT.pdb
     RDKit          3D

 23 23  0  0  1  0  0  0  0  0999 V2000
    6.7680  -11.4464   27.4699 C   0  0  0  0  0  0  0  0  0  0  0  0
    6.0099  -12.4937   26.6820 C   0  0  0  0  0  0  0  0  0  0  0  0
    6.9947  -13.3844   25.9795 C   0  0  2  0  0  0  0  0  0  0  0  0
    7.9032  -12.5634   25.0914 C   0  0  0  0  0  0  0  0  0  0  0  0
    6.3197  -14.4884   25.1963 C   0  0  2  0  0  0  0  0  0  0  0  0
    5.3442  -15.1998   25.9403 N   0  0  0  0  0  0  0  0  0  0  0  0
    7.2996  -15.3473   24.4959 C   0  0  0  0  0  0  0  0  0  0  0  0
    7.8382  -16.2449   25.2044 O   0  0  0  0  0  0  0  0  0  0  0  0
    7.6528  -15.2148   23.1113 N   0  0  0  0  0  0  0  0  0  0  0  0
    6.9182  -14.2845   22.2675 C   0  0  0  0  0  0  0  0  0  0  0  0
    7.4471  -14.5146   20.8613 C   0  0  0  0  0  0  0  0  0  0  0  0
    8.8749  -14.8772   21.1785 C   0  0  0  0  0  0  0  0  0  0  0  0
    8.6451  -15.8562   22.3404 C   0  0  1  0  0  0  0  0  0  0  0  0
    9.9287  -16.1505   23.0093 C   0  0  0  0  0  0  0  0  0  0  0  0
   10.4990  -15.2589   23.6679 O   0  0  0  0  0  0  0  0  0  0  0  0
   13.1600  -19.2206   24.9631 C   0  0  0  0  0  0  0  0  0  0  0  0
   11.8323  -19.0738   24.2329 C   0  0  1  0  0  0  0  0  0  0  0  0
   10.8208  -19.1848   25.1852 O   0  0  0  0  0  0  0  0  0  0  0  0
   11.8260  -17.7043   23.5935 C   0  0  2  0  0  0  0  0  0  0  0  0
   10.5608  -17.4212   22.9407 N   0  0  0  0  0  0  0  0  0  0  0  0
   12.9678  -17.5525   22.6714 C   0  0  0  0  0  0  0  0  0  0  0  0
   12.9861  -18.0555   21.5226 O   0  0  0  0  0  0  0  0  0  0  0  0
   14.0805  -16.8255   23.0723 O   0  0  0  0  0  0  0  0  0  0  0  0
  2  1  1  0
  3  4  1  6
  3  2  1  0
  5  6  1  1
  5  3  1  0
  7  8  2  0
  7  5  1  0
  9  7  1  0
 10  9  1  0
 10 11  1  0
 12 13  1  0
 12 11  1  0
 13  9  1  0
 13 14  1  1
 15 14  2  0
 17 16  1  1
 18 17  1  0
 19 17  1  0
 19 20  1  6
 20 14  1  0
 21 23  1  0
 21 19  1  0
 22 21  2  0
M  END
$$$$
