IPT.pdb
     RDKit          3D

 23 23  0  0  1  0  0  0  0  0999 V2000
   10.3215  -14.0752   29.3930 C   0  0  0  0  0  0  0  0  0  0  0  0
    9.0599  -14.6941   28.8292 C   0  0  0  0  0  0  0  0  0  0  0  0
    9.3403  -15.1969   27.4417 C   0  0  2  0  0  0  0  0  0  0  0  0
    9.8993  -14.0837   26.5837 C   0  0  0  0  0  0  0  0  0  0  0  0
    8.1240  -15.8234   26.7968 C   0  0  2  0  0  0  0  0  0  0  0  0
    7.4403  -16.7373   27.6386 N   0  0  0  0  0  0  0  0  0  0  0  0
    8.4224  -16.3444   25.4448 C   0  0  0  0  0  0  0  0  0  0  0  0
    8.8687  -17.5263   25.4052 O   0  0  0  0  0  0  0  0  0  0  0  0
    8.2382  -15.6036   24.2296 N   0  0  0  0  0  0  0  0  0  0  0  0
    7.4554  -14.3772   24.2464 C   0  0  0  0  0  0  0  0  0  0  0  0
    7.3428  -13.9530   22.7913 C   0  0  0  0  0  0  0  0  0  0  0  0
    8.6690  -14.4479   22.2745 C   0  0  0  0  0  0  0  0  0  0  0  0
    8.6966  -15.8436   22.9170 C   0  0  1  0  0  0  0  0  0  0  0  0
   10.0425  -16.4349   22.7737 C   0  0  0  0  0  0  0  0  0  0  0  0
   10.9612  -16.0666   23.5316 O   0  0  0  0  0  0  0  0  0  0  0  0
   13.0979  -19.7908   20.8371 C   0  0  0  0  0  0  0  0  0  0  0  0
   11.6707  -19.2613   20.8543 C   0  0  1  0  0  0  0  0  0  0  0  0
   10.8826  -20.2145   21.4967 O   0  0  0  0  0  0  0  0  0  0  0  0
   11.6878  -17.9627   21.6275 C   0  0  2  0  0  0  0  0  0  0  0  0
   10.3522  -17.4208   21.7986 N   0  0  0  0  0  0  0  0  0  0  0  0
   12.6003  -16.9902   20.9961 C   0  0  0  0  0  0  0  0  0  0  0  0
   13.7094  -16.6773   21.4910 O   0  0  0  0  0  0  0  0  0  0  0  0
   12.2353  -16.3833   19.8020 O   0  0  0  0  0  0  0  0  0  0  0  0
  2  1  1  0
  3  4  1  6
  3  2  1  0
  5  6  1  1
  5  3  1  0
  7  8  2  0
  7  5  1  0
  9  7  1  0
 10  9  1  0
 10 11  1  0
 12 13  1  0
 12 11  1  0
 13  9  1  0
 13 14  1  1
 15 14  2  0
 17 16  1  1
 18 17  1  0
 19 17  1  0
 19 20  1  6
 20 14  1  0
 21 23  1  0
 21 19  1  0
 22 21  2  0
M  END
$$$$
