IPT.pdb
     RDKit          3D

 23 23  0  0  1  0  0  0  0  0999 V2000
    6.6223  -11.5661   27.5195 C   0  0  0  0  0  0  0  0  0  0  0  0
    6.0243  -12.8012   26.8798 C   0  0  0  0  0  0  0  0  0  0  0  0
    7.0853  -13.4975   26.0759 C   0  0  2  0  0  0  0  0  0  0  0  0
    7.6711  -12.5521   25.0509 C   0  0  0  0  0  0  0  0  0  0  0  0
    6.5779  -14.7635   25.4222 C   0  0  2  0  0  0  0  0  0  0  0  0
    5.8763  -15.6202   26.3082 N   0  0  0  0  0  0  0  0  0  0  0  0
    7.6303  -15.4353   24.6287 C   0  0  0  0  0  0  0  0  0  0  0  0
    8.3816  -16.2185   25.2768 O   0  0  0  0  0  0  0  0  0  0  0  0
    7.8305  -15.2475   23.2201 N   0  0  0  0  0  0  0  0  0  0  0  0
    6.8885  -14.4387   22.4613 C   0  0  0  0  0  0  0  0  0  0  0  0
    7.3147  -14.5824   21.0096 C   0  0  0  0  0  0  0  0  0  0  0  0
    8.8041  -14.7230   21.1903 C   0  0  0  0  0  0  0  0  0  0  0  0
    8.8337  -15.7281   22.3523 C   0  0  1  0  0  0  0  0  0  0  0  0
   10.2031  -15.8240   22.8974 C   0  0  0  0  0  0  0  0  0  0  0  0
   10.7160  -14.8329   23.4529 O   0  0  0  0  0  0  0  0  0  0  0  0
   11.7882  -18.1598   25.4608 C   0  0  0  0  0  0  0  0  0  0  0  0
   12.5492  -18.3448   24.1554 C   0  0  1  0  0  0  0  0  0  0  0  0
   12.0086  -19.4581   23.5145 O   0  0  0  0  0  0  0  0  0  0  0  0
   12.3370  -17.0924   23.3361 C   0  0  2  0  0  0  0  0  0  0  0  0
   10.9825  -17.0096   22.8210 N   0  0  0  0  0  0  0  0  0  0  0  0
   13.3425  -16.9947   22.2607 C   0  0  0  0  0  0  0  0  0  0  0  0
   13.0602  -17.1533   21.0489 O   0  0  0  0  0  0  0  0  0  0  0  0
   14.6641  -16.7160   22.5813 O   0  0  0  0  0  0  0  0  0  0  0  0
  2  1  1  0
  3  4  1  6
  3  2  1  0
  5  6  1  1
  5  3  1  0
  7  8  2  0
  7  5  1  0
  9  7  1  0
 10  9  1  0
 10 11  1  0
 12 13  1  0
 12 11  1  0
 13  9  1  0
 13 14  1  1
 15 14  2  0
 17 16  1  1
 18 17  1  0
 19 17  1  0
 19 20  1  6
 20 14  1  0
 21 23  1  0
 21 19  1  0
 22 21  2  0
M  END
$$$$
