IPT.pdb
     RDKit          3D

 23 23  0  0  1  0  0  0  0  0999 V2000
    7.1079  -11.5574   27.4522 C   0  0  0  0  0  0  0  0  0  0  0  0
    6.2940  -12.6360   26.7690 C   0  0  0  0  0  0  0  0  0  0  0  0
    7.2243  -13.5573   26.0324 C   0  0  2  0  0  0  0  0  0  0  0  0
    8.0648  -12.7756   25.0474 C   0  0  0  0  0  0  0  0  0  0  0  0
    6.4934  -14.6899   25.3465 C   0  0  2  0  0  0  0  0  0  0  0  0
    5.6321  -15.4161   26.2079 N   0  0  0  0  0  0  0  0  0  0  0  0
    7.4080  -15.5326   24.5454 C   0  0  0  0  0  0  0  0  0  0  0  0
    8.0479  -16.4080   25.1950 O   0  0  0  0  0  0  0  0  0  0  0  0
    7.5958  -15.4080   23.1282 N   0  0  0  0  0  0  0  0  0  0  0  0
    6.6602  -14.6146   22.3457 C   0  0  0  0  0  0  0  0  0  0  0  0
    7.0674  -14.8271   20.8969 C   0  0  0  0  0  0  0  0  0  0  0  0
    8.5560  -14.9877   21.0679 C   0  0  0  0  0  0  0  0  0  0  0  0
    8.5803  -15.9432   22.2710 C   0  0  1  0  0  0  0  0  0  0  0  0
    9.9538  -16.0416   22.8054 C   0  0  0  0  0  0  0  0  0  0  0  0
   10.4854  -15.0415   23.3262 O   0  0  0  0  0  0  0  0  0  0  0  0
   11.5002  -18.4169   25.3731 C   0  0  0  0  0  0  0  0  0  0  0  0
   12.2857  -18.5829   24.0797 C   0  0  1  0  0  0  0  0  0  0  0  0
   11.7695  -19.6975   23.4213 O   0  0  0  0  0  0  0  0  0  0  0  0
   12.0730  -17.3269   23.2663 C   0  0  2  0  0  0  0  0  0  0  0  0
   10.7167  -17.2393   22.7566 N   0  0  0  0  0  0  0  0  0  0  0  0
   13.0745  -17.2267   22.1875 C   0  0  0  0  0  0  0  0  0  0  0  0
   12.7966  -17.4249   20.9805 O   0  0  0  0  0  0  0  0  0  0  0  0
   14.3874  -16.9003   22.4993 O   0  0  0  0  0  0  0  0  0  0  0  0
  2  1  1  0
  3  4  1  6
  3  2  1  0
  5  6  1  1
  5  3  1  0
  7  8  2  0
  7  5  1  0
  9  7  1  0
 10  9  1  0
 10 11  1  0
 12 13  1  0
 12 11  1  0
 13  9  1  0
 13 14  1  1
 15 14  2  0
 17 16  1  1
 18 17  1  0
 19 17  1  0
 19 20  1  6
 20 14  1  0
 21 23  1  0
 21 19  1  0
 22 21  2  0
M  END
$$$$
