IPT.pdb
     RDKit          3D

 23 23  0  0  1  0  0  0  0  0999 V2000
    6.7718  -11.8998   27.6287 C   0  0  0  0  0  0  0  0  0  0  0  0
    6.0773  -13.0013   26.8561 C   0  0  0  0  0  0  0  0  0  0  0  0
    7.0967  -13.7418   26.0380 C   0  0  2  0  0  0  0  0  0  0  0  0
    7.7713  -12.8011   25.0645 C   0  0  0  0  0  0  0  0  0  0  0  0
    6.5065  -14.9360   25.3216 C   0  0  2  0  0  0  0  0  0  0  0  0
    5.7718  -15.8030   26.1699 N   0  0  0  0  0  0  0  0  0  0  0  0
    7.5051  -15.6176   24.4691 C   0  0  0  0  0  0  0  0  0  0  0  0
    8.1926  -16.5082   25.0451 O   0  0  0  0  0  0  0  0  0  0  0  0
    7.7213  -15.3275   23.0804 N   0  0  0  0  0  0  0  0  0  0  0  0
    6.8357  -14.4000   22.3929 C   0  0  0  0  0  0  0  0  0  0  0  0
    7.2563  -14.4506   20.9333 C   0  0  0  0  0  0  0  0  0  0  0  0
    8.7331  -14.7011   21.0986 C   0  0  0  0  0  0  0  0  0  0  0  0
    8.6943  -15.7983   22.1738 C   0  0  1  0  0  0  0  0  0  0  0  0
   10.0530  -16.0268   22.7061 C   0  0  0  0  0  0  0  0  0  0  0  0
   10.5945  -15.1514   23.4093 O   0  0  0  0  0  0  0  0  0  0  0  0
   11.6936  -18.9212   24.7281 C   0  0  0  0  0  0  0  0  0  0  0  0
   12.4170  -18.7923   23.3949 C   0  0  1  0  0  0  0  0  0  0  0  0
   11.8709  -19.7419   22.5333 O   0  0  0  0  0  0  0  0  0  0  0  0
   12.1650  -17.3913   22.8864 C   0  0  2  0  0  0  0  0  0  0  0  0
   10.7905  -17.2149   22.4545 N   0  0  0  0  0  0  0  0  0  0  0  0
   13.1260  -17.0404   21.8232 C   0  0  0  0  0  0  0  0  0  0  0  0
   12.8218  -17.0333   20.6064 O   0  0  0  0  0  0  0  0  0  0  0  0
   14.4286  -16.7001   22.1618 O   0  0  0  0  0  0  0  0  0  0  0  0
  2  1  1  0
  3  4  1  6
  3  2  1  0
  5  6  1  1
  5  3  1  0
  7  8  2  0
  7  5  1  0
  9  7  1  0
 10  9  1  0
 10 11  1  0
 12 13  1  0
 12 11  1  0
 13  9  1  0
 13 14  1  1
 15 14  2  0
 17 16  1  1
 18 17  1  0
 19 17  1  0
 19 20  1  6
 20 14  1  0
 21 23  1  0
 21 19  1  0
 22 21  2  0
M  END
$$$$
