IPT.pdb
     RDKit          3D

 23 23  0  0  1  0  0  0  0  0999 V2000
    6.8126  -14.0604   18.5312 C   0  0  0  0  0  0  0  0  0  0  0  0
    7.8576  -13.4870   19.4648 C   0  0  0  0  0  0  0  0  0  0  0  0
    7.7612  -14.1831   20.7926 C   0  0  2  0  0  0  0  0  0  0  0  0
    6.3621  -14.0531   21.3522 C   0  0  0  0  0  0  0  0  0  0  0  0
    8.7920  -13.6867   21.7819 C   0  0  2  0  0  0  0  0  0  0  0  0
   10.1058  -13.6231   21.2517 N   0  0  0  0  0  0  0  0  0  0  0  0
    8.6913  -14.3856   23.0818 C   0  0  0  0  0  0  0  0  0  0  0  0
    9.3588  -15.4549   23.1760 O   0  0  0  0  0  0  0  0  0  0  0  0
    7.9054  -13.9277   24.1918 N   0  0  0  0  0  0  0  0  0  0  0  0
    7.1164  -12.7121   24.0617 C   0  0  0  0  0  0  0  0  0  0  0  0
    6.5494  -12.4513   25.4475 C   0  0  0  0  0  0  0  0  0  0  0  0
    6.3814  -13.8694   25.9289 C   0  0  0  0  0  0  0  0  0  0  0  0
    7.7305  -14.4579   25.4875 C   0  0  1  0  0  0  0  0  0  0  0  0
    7.7004  -15.9294   25.6121 C   0  0  0  0  0  0  0  0  0  0  0  0
    6.8077  -16.5787   25.0329 O   0  0  0  0  0  0  0  0  0  0  0  0
    8.9568  -18.2343   24.0336 C   0  0  0  0  0  0  0  0  0  0  0  0
    9.4997  -18.7304   25.3665 C   0  0  1  0  0  0  0  0  0  0  0  0
   10.8226  -18.3022   25.4606 O   0  0  0  0  0  0  0  0  0  0  0  0
    8.6507  -18.1083   26.4514 C   0  0  2  0  0  0  0  0  0  0  0  0
    8.6538  -16.6589   26.3721 N   0  0  0  0  0  0  0  0  0  0  0  0
    9.0691  -18.5882   27.7824 C   0  0  0  0  0  0  0  0  0  0  0  0
    9.5418  -17.8290   28.6617 O   0  0  0  0  0  0  0  0  0  0  0  0
    8.9427  -19.9347   28.0963 O   0  0  0  0  0  0  0  0  0  0  0  0
  2  1  1  0
  3  4  1  1
  3  2  1  0
  5  6  1  6
  5  3  1  0
  7  8  2  0
  7  5  1  0
  9  7  1  0
 10  9  1  0
 10 11  1  0
 12 13  1  0
 12 11  1  0
 13  9  1  0
 13 14  1  6
 15 14  2  0
 17 16  1  6
 18 17  1  0
 19 17  1  0
 19 20  1  1
 20 14  1  0
 21 23  1  0
 21 19  1  0
 22 21  2  0
M  END
$$$$
