IPT.pdb
     RDKit          3D

 23 23  0  0  1  0  0  0  0  0999 V2000
    8.3988  -12.2633   27.3215 C   0  0  0  0  0  0  0  0  0  0  0  0
    7.8408  -13.6321   26.9937 C   0  0  0  0  0  0  0  0  0  0  0  0
    6.8822  -13.5064   25.8438 C   0  0  2  0  0  0  0  0  0  0  0  0
    5.7394  -12.5867   26.2123 C   0  0  0  0  0  0  0  0  0  0  0  0
    6.3704  -14.8480   25.3684 C   0  0  2  0  0  0  0  0  0  0  0  0
    5.8297  -15.6509   26.4048 N   0  0  0  0  0  0  0  0  0  0  0  0
    7.3546  -15.5416   24.5090 C   0  0  0  0  0  0  0  0  0  0  0  0
    7.9569  -16.5129   25.0489 O   0  0  0  0  0  0  0  0  0  0  0  0
    7.6459  -15.1791   23.1514 N   0  0  0  0  0  0  0  0  0  0  0  0
    6.7670  -14.2566   22.4488 C   0  0  0  0  0  0  0  0  0  0  0  0
    7.2810  -14.2228   21.0189 C   0  0  0  0  0  0  0  0  0  0  0  0
    8.7537  -14.4220   21.2691 C   0  0  0  0  0  0  0  0  0  0  0  0
    8.6935  -15.5686   22.2904 C   0  0  1  0  0  0  0  0  0  0  0  0
   10.0242  -15.7675   22.8997 C   0  0  0  0  0  0  0  0  0  0  0  0
   10.1855  -15.5411   24.1149 O   0  0  0  0  0  0  0  0  0  0  0  0
   11.4052  -16.8496   24.9742 C   0  0  0  0  0  0  0  0  0  0  0  0
   12.2725  -17.5124   23.9131 C   0  0  1  0  0  0  0  0  0  0  0  0
   11.6022  -18.6568   23.4850 O   0  0  0  0  0  0  0  0  0  0  0  0
   12.4271  -16.5208   22.7827 C   0  0  2  0  0  0  0  0  0  0  0  0
   11.1528  -16.2121   22.1599 N   0  0  0  0  0  0  0  0  0  0  0  0
   13.4192  -16.9983   21.8005 C   0  0  0  0  0  0  0  0  0  0  0  0
   13.0967  -17.5305   20.7115 O   0  0  0  0  0  0  0  0  0  0  0  0
   14.7737  -16.8625   22.0730 O   0  0  0  0  0  0  0  0  0  0  0  0
  2  1  1  0
  3  4  1  1
  3  2  1  0
  5  6  1  1
  5  3  1  0
  7  8  2  0
  7  5  1  0
  9  7  1  0
 10  9  1  0
 10 11  1  0
 12 13  1  0
 12 11  1  0
 13  9  1  0
 13 14  1  1
 15 14  2  0
 17 16  1  1
 18 17  1  0
 19 17  1  0
 19 20  1  6
 20 14  1  0
 21 23  1  0
 21 19  1  0
 22 21  2  0
M  END
$$$$
