QIW.pdb
     RDKit          3D

 32 33  0  0  1  0  0  0  0  0999 V2000
    9.0260  -22.2262   22.4476 N   0  0  0  0  0  0  0  0  0  0  0  0
    8.1811  -22.2432   21.3126 C   0  0  0  0  0  0  0  0  0  0  0  0
    8.2128  -23.2478   20.5812 O   0  0  0  0  0  0  0  0  0  0  0  0
    7.2789  -21.1222   20.9761 C   0  0  0  0  0  0  0  0  0  0  0  0
    7.8355  -19.7679   21.1896 C   0  0  0  0  0  0  0  0  0  0  0  0
    7.3764  -18.6939   20.2666 C   0  0  2  0  0  0  0  0  0  0  0  0
    7.4087  -19.1325   18.8711 N   0  0  0  0  0  0  0  0  0  0  0  0
    8.1669  -17.4612   20.4387 C   0  0  0  0  0  0  0  0  0  0  0  0
    9.3050  -17.4003   19.9134 O   0  0  0  0  0  0  0  0  0  0  0  0
    6.9047  -12.6173   19.0545 C   0  0  0  0  0  0  0  0  0  0  0  0
    7.6107  -13.8502   19.5108 C   0  0  0  0  0  0  0  0  0  0  0  0
    7.8835  -13.9173   20.9795 C   0  0  2  0  0  0  0  0  0  0  0  0
    8.8307  -12.7912   21.3564 C   0  0  0  0  0  0  0  0  0  0  0  0
    8.5388  -15.2195   21.4164 C   0  0  2  0  0  0  0  0  0  0  0  0
    7.6720  -16.3422   21.1838 N   0  0  0  0  0  0  0  0  0  0  0  0
    8.7498  -15.0884   22.8798 C   0  0  0  0  0  0  0  0  0  0  0  0
    8.0605  -14.2995   23.5866 O   0  0  0  0  0  0  0  0  0  0  0  0
    9.7565  -15.8782   23.4867 N   0  0  0  0  0  0  0  0  0  0  0  0
   10.0947  -15.7222   24.9096 C   0  0  1  0  0  0  0  0  0  0  0  0
    8.9688  -16.3958   25.6400 C   0  0  0  0  0  0  0  0  0  0  0  0
    7.7776  -15.5500   25.7263 C   0  0  0  0  0  0  0  0  0  0  0  0
    6.4820  -15.8634   25.2723 C   0  0  0  0  0  0  0  0  0  0  0  0
    5.6557  -14.8430   25.4841 N   0  0  0  0  0  0  0  0  0  0  0  0
    6.3620  -13.8733   26.0609 C   0  0  0  0  0  0  0  0  0  0  0  0
    5.9776  -12.6305   26.4963 C   0  0  0  0  0  0  0  0  0  0  0  0
    6.8609  -11.7824   27.0896 C   0  0  0  0  0  0  0  0  0  0  0  0
    8.1884  -12.1616   27.2697 C   0  0  0  0  0  0  0  0  0  0  0  0
    8.5752  -13.4065   26.8332 C   0  0  0  0  0  0  0  0  0  0  0  0
    7.6888  -14.2787   26.2277 C   0  0  0  0  0  0  0  0  0  0  0  0
   11.4092  -16.2965   25.1646 C   0  0  0  0  0  0  0  0  0  0  0  0
   12.0704  -16.0464   26.3480 O   0  0  0  0  0  0  0  0  0  0  0  0
   11.9599  -17.0225   24.3078 O   0  0  0  0  0  0  0  0  0  0  0  0
  1  2  1  0
  2  3  2  0
  2  4  1  0
  4  5  1  0
  6  5  1  0
  6  7  1  6
  8  9  2  0
  8  6  1  0
 10 11  1  0
 11 12  1  0
 12 14  1  0
 12 13  1  6
 14 15  1  1
 15  8  1  0
 16 18  1  0
 16 14  1  0
 17 16  2  0
 19 30  1  0
 19 18  1  0
 20 21  1  0
 19 20  1  1
 21 22  2  0
 21 29  1  0
 22 23  1  0
 23 24  1  0
 24 25  2  0
 25 26  1  0
 27 26  2  0
 28 27  1  0
 29 28  2  0
 29 24  1  0
 30 31  1  0
 32 30  2  0
M  END
$$$$
