QIW.pdb
     RDKit          3D

 32 33  0  0  1  0  0  0  0  0999 V2000
    8.3170  -19.8364   15.7389 N   0  0  0  0  0  0  0  0  0  0  0  0
    9.5572  -19.8180   16.4200 C   0  0  0  0  0  0  0  0  0  0  0  0
   10.5938  -19.7698   15.7358 O   0  0  0  0  0  0  0  0  0  0  0  0
    9.6553  -19.8544   17.8941 C   0  0  0  0  0  0  0  0  0  0  0  0
    9.8743  -18.5475   18.5523 C   0  0  0  0  0  0  0  0  0  0  0  0
    9.9637  -18.5443   20.0383 C   0  0  2  0  0  0  0  0  0  0  0  0
    8.8015  -19.1898   20.6494 N   0  0  0  0  0  0  0  0  0  0  0  0
   10.1313  -17.1773   20.5651 C   0  0  0  0  0  0  0  0  0  0  0  0
   11.0802  -16.4797   20.1317 O   0  0  0  0  0  0  0  0  0  0  0  0
    6.1959  -13.7011   20.4059 C   0  0  0  0  0  0  0  0  0  0  0  0
    7.5101  -14.4015   20.5003 C   0  0  0  0  0  0  0  0  0  0  0  0
    8.0684  -14.5174   21.8826 C   0  0  2  0  0  0  0  0  0  0  0  0
    8.3076  -13.1230   22.4357 C   0  0  0  0  0  0  0  0  0  0  0  0
    9.3974  -15.2566   21.9406 C   0  0  2  0  0  0  0  0  0  0  0  0
    9.2458  -16.6316   21.5502 N   0  0  0  0  0  0  0  0  0  0  0  0
    9.8128  -15.2193   23.3651 C   0  0  0  0  0  0  0  0  0  0  0  0
   10.3077  -14.1818   23.8902 O   0  0  0  0  0  0  0  0  0  0  0  0
    9.6421  -16.3888   24.1454 N   0  0  0  0  0  0  0  0  0  0  0  0
   10.0852  -16.4425   25.5468 C   0  0  1  0  0  0  0  0  0  0  0  0
    8.8571  -16.8388   26.3148 C   0  0  0  0  0  0  0  0  0  0  0  0
    7.7602  -15.8862   26.1389 C   0  0  0  0  0  0  0  0  0  0  0  0
    6.4769  -16.1578   25.6267 C   0  0  0  0  0  0  0  0  0  0  0  0
    5.7508  -15.0446   25.5775 N   0  0  0  0  0  0  0  0  0  0  0  0
    6.5108  -14.0541   26.0394 C   0  0  0  0  0  0  0  0  0  0  0  0
    6.2296  -12.7225   26.2120 C   0  0  0  0  0  0  0  0  0  0  0  0
    7.1508  -11.8643   26.7280 C   0  0  0  0  0  0  0  0  0  0  0  0
    8.4124  -12.3239   27.0961 C   0  0  0  0  0  0  0  0  0  0  0  0
    8.6959  -13.6578   26.9230 C   0  0  0  0  0  0  0  0  0  0  0  0
    7.7700  -14.5417   26.3989 C   0  0  0  0  0  0  0  0  0  0  0  0
   11.2008  -17.3715   25.6708 C   0  0  0  0  0  0  0  0  0  0  0  0
   11.8346  -17.5548   26.8810 O   0  0  0  0  0  0  0  0  0  0  0  0
   11.6036  -18.0134   24.6757 O   0  0  0  0  0  0  0  0  0  0  0  0
  1  2  1  0
  2  3  2  0
  2  4  1  0
  4  5  1  0
  6  5  1  0
  6  7  1  1
  8  9  2  0
  8  6  1  0
 10 11  1  0
 11 12  1  0
 12 14  1  0
 12 13  1  6
 14 15  1  1
 15  8  1  0
 16 18  1  0
 16 14  1  0
 17 16  2  0
 19 30  1  0
 19 18  1  0
 20 21  1  0
 19 20  1  1
 21 22  2  0
 21 29  1  0
 22 23  1  0
 23 24  1  0
 24 25  2  0
 25 26  1  0
 27 26  2  0
 28 27  1  0
 29 28  2  0
 29 24  1  0
 30 31  1  0
 32 30  2  0
M  END
$$$$
