QIW.pdb
     RDKit          3D

 32 33  0  0  1  0  0  0  0  0999 V2000
    6.4947  -20.5785   16.9647 N   0  0  0  0  0  0  0  0  0  0  0  0
    6.6010  -20.6964   18.3708 C   0  0  0  0  0  0  0  0  0  0  0  0
    6.6936  -21.8390   18.8514 O   0  0  0  0  0  0  0  0  0  0  0  0
    6.6046  -19.5230   19.2691 C   0  0  0  0  0  0  0  0  0  0  0  0
    7.9191  -18.8727   19.4655 C   0  0  0  0  0  0  0  0  0  0  0  0
    8.5258  -18.9679   20.8216 C   0  0  2  0  0  0  0  0  0  0  0  0
    7.5626  -19.4536   21.8100 N   0  0  0  0  0  0  0  0  0  0  0  0
    9.0969  -17.6771   21.2482 C   0  0  0  0  0  0  0  0  0  0  0  0
    9.8390  -17.6547   22.2600 O   0  0  0  0  0  0  0  0  0  0  0  0
    6.0556  -13.0896   20.2695 C   0  0  0  0  0  0  0  0  0  0  0  0
    7.2512  -13.9661   20.0996 C   0  0  0  0  0  0  0  0  0  0  0  0
    7.9526  -14.3339   21.3680 C   0  0  2  0  0  0  0  0  0  0  0  0
    8.4219  -13.0642   22.0572 C   0  0  0  0  0  0  0  0  0  0  0  0
    9.1804  -15.2066   21.1517 C   0  0  2  0  0  0  0  0  0  0  0  0
    8.8276  -16.4599   20.5426 N   0  0  0  0  0  0  0  0  0  0  0  0
    9.7179  -15.4820   22.5076 C   0  0  0  0  0  0  0  0  0  0  0  0
   10.6803  -14.8216   22.9920 O   0  0  0  0  0  0  0  0  0  0  0  0
    9.1231  -16.5179   23.2683 N   0  0  0  0  0  0  0  0  0  0  0  0
    9.4661  -16.7183   24.6845 C   0  0  1  0  0  0  0  0  0  0  0  0
    8.1523  -17.0048   25.3529 C   0  0  0  0  0  0  0  0  0  0  0  0
    7.3616  -15.7921   25.5669 C   0  0  0  0  0  0  0  0  0  0  0  0
    6.0347  -15.5628   25.1549 C   0  0  0  0  0  0  0  0  0  0  0  0
    5.6496  -14.3346   25.4895 N   0  0  0  0  0  0  0  0  0  0  0  0
    6.6749  -13.7513   26.1063 C   0  0  0  0  0  0  0  0  0  0  0  0
    6.7864  -12.5008   26.6592 C   0  0  0  0  0  0  0  0  0  0  0  0
    7.9312  -12.0966   27.2738 C   0  0  0  0  0  0  0  0  0  0  0  0
    9.0261  -12.9528   27.3557 C   0  0  0  0  0  0  0  0  0  0  0  0
    8.9161  -14.2059   26.8014 C   0  0  0  0  0  0  0  0  0  0  0  0
    7.7592  -14.6302   26.1729 C   0  0  0  0  0  0  0  0  0  0  0  0
   10.4493  -17.7871   24.8021 C   0  0  0  0  0  0  0  0  0  0  0  0
   11.0516  -18.0612   26.0113 O   0  0  0  0  0  0  0  0  0  0  0  0
   10.7654  -18.4692   23.8024 O   0  0  0  0  0  0  0  0  0  0  0  0
  1  2  1  0
  2  3  2  0
  2  4  1  0
  4  5  1  0
  6  5  1  0
  6  7  1  1
  8  9  2  0
  8  6  1  0
 10 11  1  0
 11 12  1  0
 12 14  1  0
 12 13  1  6
 14 15  1  1
 15  8  1  0
 16 18  1  0
 16 14  1  0
 17 16  2  0
 19 30  1  0
 19 18  1  0
 20 21  1  0
 19 20  1  1
 21 22  2  0
 21 29  1  0
 22 23  1  0
 23 24  1  0
 24 25  2  0
 25 26  1  0
 27 26  2  0
 28 27  1  0
 29 28  2  0
 29 24  1  0
 30 31  1  0
 32 30  2  0
M  END
$$$$
