QIW.pdb
     RDKit          3D

 32 33  0  0  1  0  0  0  0  0999 V2000
    8.3894  -21.7984   22.3895 N   0  0  0  0  0  0  0  0  0  0  0  0
    7.3877  -21.8030   21.3900 C   0  0  0  0  0  0  0  0  0  0  0  0
    6.6463  -22.7980   21.3169 O   0  0  0  0  0  0  0  0  0  0  0  0
    7.2004  -20.6809   20.4469 C   0  0  0  0  0  0  0  0  0  0  0  0
    8.0724  -19.5065   20.6698 C   0  0  0  0  0  0  0  0  0  0  0  0
    7.9507  -18.3798   19.7044 C   0  0  2  0  0  0  0  0  0  0  0  0
    8.4817  -18.7377   18.3888 N   0  0  0  0  0  0  0  0  0  0  0  0
    8.6081  -17.1616   20.2124 C   0  0  0  0  0  0  0  0  0  0  0  0
    9.8253  -16.9877   19.9614 O   0  0  0  0  0  0  0  0  0  0  0  0
    7.1158  -12.2649   19.1687 C   0  0  0  0  0  0  0  0  0  0  0  0
    7.8266  -13.5078   19.5888 C   0  0  0  0  0  0  0  0  0  0  0  0
    7.8779  -13.7402   21.0650 C   0  0  2  0  0  0  0  0  0  0  0  0
    8.6235  -12.5896   21.7190 C   0  0  0  0  0  0  0  0  0  0  0  0
    8.6016  -15.0214   21.4532 C   0  0  2  0  0  0  0  0  0  0  0  0
    7.8977  -16.1812   20.9783 N   0  0  0  0  0  0  0  0  0  0  0  0
    8.5970  -15.0482   22.9372 C   0  0  0  0  0  0  0  0  0  0  0  0
    7.9731  -14.1866   23.6194 O   0  0  0  0  0  0  0  0  0  0  0  0
    9.3170  -16.0765   23.5927 N   0  0  0  0  0  0  0  0  0  0  0  0
   10.0590  -15.8157   24.8356 C   0  0  1  0  0  0  0  0  0  0  0  0
    9.1572  -16.3203   25.9252 C   0  0  0  0  0  0  0  0  0  0  0  0
    7.9016  -15.5721   25.9983 C   0  0  0  0  0  0  0  0  0  0  0  0
    6.6158  -16.0415   25.6674 C   0  0  0  0  0  0  0  0  0  0  0  0
    5.7144  -15.0759   25.8220 N   0  0  0  0  0  0  0  0  0  0  0  0
    6.3621  -13.9918   26.2427 C   0  0  0  0  0  0  0  0  0  0  0  0
    5.8927  -12.7439   26.5659 C   0  0  0  0  0  0  0  0  0  0  0  0
    6.7283  -11.7635   27.0044 C   0  0  0  0  0  0  0  0  0  0  0  0
    8.0925  -12.0083   27.1362 C   0  0  0  0  0  0  0  0  0  0  0  0
    8.5645  -13.2581   26.8120 C   0  0  0  0  0  0  0  0  0  0  0  0
    7.7273  -14.2640   26.3642 C   0  0  0  0  0  0  0  0  0  0  0  0
   11.3585  -16.4718   24.7750 C   0  0  0  0  0  0  0  0  0  0  0  0
   12.2892  -16.2866   25.7748 O   0  0  0  0  0  0  0  0  0  0  0  0
   11.6504  -17.2103   23.8086 O   0  0  0  0  0  0  0  0  0  0  0  0
  1  2  1  0
  2  3  2  0
  2  4  1  0
  4  5  1  0
  6  5  1  0
  6  7  1  6
  8  9  2  0
  8  6  1  0
 10 11  1  0
 11 12  1  0
 12 14  1  0
 12 13  1  1
 14 15  1  6
 15  8  1  0
 16 18  1  0
 16 14  1  0
 17 16  2  0
 19 30  1  0
 19 18  1  0
 20 21  1  0
 19 20  1  1
 21 22  2  0
 21 29  1  0
 22 23  1  0
 23 24  1  0
 24 25  2  0
 25 26  1  0
 27 26  2  0
 28 27  1  0
 29 28  2  0
 29 24  1  0
 30 31  1  0
 32 30  2  0
M  END
$$$$
