QIW.pdb
     RDKit          3D

 32 33  0  0  1  0  0  0  0  0999 V2000
    6.6975  -21.1427   23.9931 N   0  0  0  0  0  0  0  0  0  0  0  0
    6.1502  -21.5750   22.7618 C   0  0  0  0  0  0  0  0  0  0  0  0
    5.6915  -22.7289   22.7046 O   0  0  0  0  0  0  0  0  0  0  0  0
    6.1091  -20.7118   21.5632 C   0  0  0  0  0  0  0  0  0  0  0  0
    6.7047  -19.3668   21.7237 C   0  0  0  0  0  0  0  0  0  0  0  0
    6.7912  -18.5148   20.5060 C   0  0  2  0  0  0  0  0  0  0  0  0
    6.7753  -19.3188   19.2836 N   0  0  0  0  0  0  0  0  0  0  0  0
    7.9836  -17.6481   20.5383 C   0  0  0  0  0  0  0  0  0  0  0  0
    8.9935  -17.9924   19.8776 O   0  0  0  0  0  0  0  0  0  0  0  0
    7.3057  -12.1781   21.6765 C   0  0  0  0  0  0  0  0  0  0  0  0
    7.7982  -13.5629   21.9345 C   0  0  0  0  0  0  0  0  0  0  0  0
    8.6920  -14.1251   20.8758 C   0  0  2  0  0  0  0  0  0  0  0  0
    7.9403  -14.1442   19.5559 C   0  0  0  0  0  0  0  0  0  0  0  0
    9.1423  -15.5515   21.1559 C   0  0  2  0  0  0  0  0  0  0  0  0
    8.0169  -16.4342   21.2983 N   0  0  0  0  0  0  0  0  0  0  0  0
    9.8588  -15.4958   22.4546 C   0  0  0  0  0  0  0  0  0  0  0  0
   10.7943  -14.6733   22.6673 O   0  0  0  0  0  0  0  0  0  0  0  0
    9.4700  -16.3972   23.4753 N   0  0  0  0  0  0  0  0  0  0  0  0
   10.0618  -16.3286   24.8201 C   0  0  1  0  0  0  0  0  0  0  0  0
    8.9729  -16.8096   25.7354 C   0  0  0  0  0  0  0  0  0  0  0  0
    7.7810  -15.9627   25.6741 C   0  0  0  0  0  0  0  0  0  0  0  0
    6.5357  -16.2936   25.1059 C   0  0  0  0  0  0  0  0  0  0  0  0
    5.6948  -15.2674   25.1991 N   0  0  0  0  0  0  0  0  0  0  0  0
    6.3430  -14.2771   25.8081 C   0  0  0  0  0  0  0  0  0  0  0  0
    5.9204  -13.0201   26.1594 C   0  0  0  0  0  0  0  0  0  0  0  0
    6.7429  -12.1504   26.8066 C   0  0  0  0  0  0  0  0  0  0  0  0
    8.0453  -12.5215   27.1299 C   0  0  0  0  0  0  0  0  0  0  0  0
    8.4704  -13.7805   26.7778 C   0  0  0  0  0  0  0  0  0  0  0  0
    7.6460  -14.6747   26.1190 C   0  0  0  0  0  0  0  0  0  0  0  0
   11.2798  -17.1273   24.8587 C   0  0  0  0  0  0  0  0  0  0  0  0
   12.1158  -17.0859   25.9539 O   0  0  0  0  0  0  0  0  0  0  0  0
   11.5873  -17.8598   23.8926 O   0  0  0  0  0  0  0  0  0  0  0  0
  1  2  1  0
  2  3  2  0
  2  4  1  0
  4  5  1  0
  6  5  1  0
  6  7  1  6
  8  9  2  0
  8  6  1  0
 10 11  1  0
 11 12  1  0
 12 14  1  0
 12 13  1  6
 14 15  1  1
 15  8  1  0
 16 18  1  0
 16 14  1  0
 17 16  2  0
 19 30  1  0
 19 18  1  0
 20 21  1  0
 19 20  1  1
 21 22  2  0
 21 29  1  0
 22 23  1  0
 23 24  1  0
 24 25  2  0
 25 26  1  0
 27 26  2  0
 28 27  1  0
 29 28  2  0
 29 24  1  0
 30 31  1  0
 32 30  2  0
M  END
$$$$
