QIW.pdb
     RDKit          3D

 32 33  0  0  1  0  0  0  0  0999 V2000
   10.2279  -22.0128   20.1740 N   0  0  0  0  0  0  0  0  0  0  0  0
   10.7251  -21.6112   18.9115 C   0  0  0  0  0  0  0  0  0  0  0  0
   10.3831  -22.2731   17.9165 O   0  0  0  0  0  0  0  0  0  0  0  0
   11.6232  -20.4498   18.7435 C   0  0  0  0  0  0  0  0  0  0  0  0
   11.3781  -19.3147   19.6605 C   0  0  0  0  0  0  0  0  0  0  0  0
   10.9200  -18.0370   19.0491 C   0  0  2  0  0  0  0  0  0  0  0  0
   11.8630  -17.5539   18.0401 N   0  0  0  0  0  0  0  0  0  0  0  0
   10.6857  -17.0029   20.0738 C   0  0  0  0  0  0  0  0  0  0  0  0
   11.6786  -16.4696   20.6258 O   0  0  0  0  0  0  0  0  0  0  0  0
    6.3563  -13.5235   19.9984 C   0  0  0  0  0  0  0  0  0  0  0  0
    7.7016  -14.1422   20.1830 C   0  0  0  0  0  0  0  0  0  0  0  0
    7.8658  -14.9392   21.4375 C   0  0  2  0  0  0  0  0  0  0  0  0
    7.7794  -14.0029   22.6306 C   0  0  0  0  0  0  0  0  0  0  0  0
    9.2034  -15.6592   21.5287 C   0  0  2  0  0  0  0  0  0  0  0  0
    9.3648  -16.5962   20.4507 N   0  0  0  0  0  0  0  0  0  0  0  0
    9.1619  -16.4178   22.8038 C   0  0  0  0  0  0  0  0  0  0  0  0
    8.8212  -17.6340   22.8474 O   0  0  0  0  0  0  0  0  0  0  0  0
    9.5181  -15.7447   23.9978 N   0  0  0  0  0  0  0  0  0  0  0  0
    9.6298  -16.4646   25.2755 C   0  0  1  0  0  0  0  0  0  0  0  0
    9.4172  -15.4089   26.3221 C   0  0  0  0  0  0  0  0  0  0  0  0
    8.0855  -14.8073   26.2420 C   0  0  0  0  0  0  0  0  0  0  0  0
    6.8796  -15.4598   25.9208 C   0  0  0  0  0  0  0  0  0  0  0  0
    5.8711  -14.5930   25.9082 N   0  0  0  0  0  0  0  0  0  0  0  0
    6.3716  -13.3971   26.2101 C   0  0  0  0  0  0  0  0  0  0  0  0
    5.7514  -12.1809   26.3458 C   0  0  0  0  0  0  0  0  0  0  0  0
    6.4486  -11.0634   26.6871 C   0  0  0  0  0  0  0  0  0  0  0  0
    7.8216  -11.1306   26.9084 C   0  0  0  0  0  0  0  0  0  0  0  0
    8.4446  -12.3484   26.7721 C   0  0  0  0  0  0  0  0  0  0  0  0
    7.7491  -13.4925   26.4249 C   0  0  0  0  0  0  0  0  0  0  0  0
    8.6608  -17.5521   25.3093 C   0  0  0  0  0  0  0  0  0  0  0  0
    8.8897  -18.6770   26.0724 O   0  0  0  0  0  0  0  0  0  0  0  0
    7.6068  -17.4819   24.6395 O   0  0  0  0  0  0  0  0  0  0  0  0
  1  2  1  0
  2  3  2  0
  2  4  1  0
  4  5  1  0
  6  5  1  0
  6  7  1  6
  8  9  2  0
  8  6  1  0
 10 11  1  0
 11 12  1  0
 12 14  1  0
 12 13  1  1
 14 15  1  6
 15  8  1  0
 16 18  1  0
 16 14  1  0
 17 16  2  0
 19 30  1  0
 19 18  1  0
 20 21  1  0
 19 20  1  1
 21 22  2  0
 21 29  1  0
 22 23  1  0
 23 24  1  0
 24 25  2  0
 25 26  1  0
 27 26  2  0
 28 27  1  0
 29 28  2  0
 29 24  1  0
 30 31  1  0
 32 30  2  0
M  END
$$$$
