QIW.pdb
     RDKit          3D

 32 33  0  0  1  0  0  0  0  0999 V2000
    7.3596  -12.7526   16.5347 N   0  0  0  0  0  0  0  0  0  0  0  0
    8.2282  -13.7739   16.0821 C   0  0  0  0  0  0  0  0  0  0  0  0
    8.1037  -14.1627   14.9080 O   0  0  0  0  0  0  0  0  0  0  0  0
    9.2599  -14.3818   16.9479 C   0  0  0  0  0  0  0  0  0  0  0  0
    8.9257  -14.4514   18.3876 C   0  0  0  0  0  0  0  0  0  0  0  0
    9.0394  -15.7820   19.0456 C   0  0  2  0  0  0  0  0  0  0  0  0
    8.5972  -16.8601   18.1608 N   0  0  0  0  0  0  0  0  0  0  0  0
    8.2944  -15.8196   20.3175 C   0  0  0  0  0  0  0  0  0  0  0  0
    8.0505  -14.7362   20.9020 O   0  0  0  0  0  0  0  0  0  0  0  0
    4.3273  -18.8173   20.2090 C   0  0  0  0  0  0  0  0  0  0  0  0
    4.8879  -17.6504   20.9511 C   0  0  0  0  0  0  0  0  0  0  0  0
    5.8870  -17.9933   22.0095 C   0  0  2  0  0  0  0  0  0  0  0  0
    5.1954  -17.9810   23.3619 C   0  0  0  0  0  0  0  0  0  0  0  0
    7.0470  -17.0115   22.0903 C   0  0  2  0  0  0  0  0  0  0  0  0
    7.8466  -17.0510   20.8965 N   0  0  0  0  0  0  0  0  0  0  0  0
    7.8824  -17.4738   23.2267 C   0  0  0  0  0  0  0  0  0  0  0  0
    7.6894  -18.5896   23.7878 O   0  0  0  0  0  0  0  0  0  0  0  0
    8.9227  -16.6283   23.6832 N   0  0  0  0  0  0  0  0  0  0  0  0
    9.5825  -16.8605   24.9770 C   0  0  1  0  0  0  0  0  0  0  0  0
    8.4566  -16.9169   25.9690 C   0  0  0  0  0  0  0  0  0  0  0  0
    7.9392  -15.5882   26.2985 C   0  0  0  0  0  0  0  0  0  0  0  0
    6.6627  -15.0773   25.9944 C   0  0  0  0  0  0  0  0  0  0  0  0
    6.5524  -13.8207   26.4157 N   0  0  0  0  0  0  0  0  0  0  0  0
    7.7091  -13.4900   26.9854 C   0  0  0  0  0  0  0  0  0  0  0  0
    8.1021  -12.3228   27.5897 C   0  0  0  0  0  0  0  0  0  0  0  0
    9.3397  -12.1908   28.1398 C   0  0  0  0  0  0  0  0  0  0  0  0
   10.2438  -13.2489   28.1008 C   0  0  0  0  0  0  0  0  0  0  0  0
    9.8516  -14.4189   27.4949 C   0  0  0  0  0  0  0  0  0  0  0  0
    8.5974  -14.5673   26.9308 C   0  0  0  0  0  0  0  0  0  0  0  0
   10.3850  -18.0744   24.9048 C   0  0  0  0  0  0  0  0  0  0  0  0
   11.5788  -18.1722   25.5869 O   0  0  0  0  0  0  0  0  0  0  0  0
   10.0028  -19.0459   24.2157 O   0  0  0  0  0  0  0  0  0  0  0  0
  1  2  1  0
  2  3  2  0
  2  4  1  0
  4  5  1  0
  6  5  1  0
  6  7  1  6
  8  9  2  0
  8  6  1  0
 10 11  1  0
 11 12  1  0
 12 14  1  0
 12 13  1  1
 14 15  1  6
 15  8  1  0
 16 18  1  0
 16 14  1  0
 17 16  2  0
 19 30  1  0
 19 18  1  0
 20 21  1  0
 19 20  1  1
 21 22  2  0
 21 29  1  0
 22 23  1  0
 23 24  1  0
 24 25  2  0
 25 26  1  0
 27 26  2  0
 28 27  1  0
 29 28  2  0
 29 24  1  0
 30 31  1  0
 32 30  2  0
M  END
$$$$
