QIW.pdb
     RDKit          3D

 32 33  0  0  1  0  0  0  0  0999 V2000
    8.3812  -21.4570   25.1429 N   0  0  0  0  0  0  0  0  0  0  0  0
    7.9000  -22.1510   24.0074 C   0  0  0  0  0  0  0  0  0  0  0  0
    7.7965  -23.3873   24.0844 O   0  0  0  0  0  0  0  0  0  0  0  0
    7.5243  -21.4625   22.7550 C   0  0  0  0  0  0  0  0  0  0  0  0
    7.6915  -19.9923   22.7591 C   0  0  0  0  0  0  0  0  0  0  0  0
    7.4201  -19.2764   21.4824 C   0  0  2  0  0  0  0  0  0  0  0  0
    7.5402  -20.1680   20.3285 N   0  0  0  0  0  0  0  0  0  0  0  0
    8.3015  -18.1050   21.3236 C   0  0  0  0  0  0  0  0  0  0  0  0
    9.3770  -18.2449   20.6922 O   0  0  0  0  0  0  0  0  0  0  0  0
    6.5803  -13.0055   20.1011 C   0  0  0  0  0  0  0  0  0  0  0  0
    7.3582  -14.2701   20.2507 C   0  0  0  0  0  0  0  0  0  0  0  0
    8.1030  -14.4070   21.5401 C   0  0  2  0  0  0  0  0  0  0  0  0
    9.1255  -13.2879   21.6393 C   0  0  0  0  0  0  0  0  0  0  0  0
    8.8619  -15.7200   21.6664 C   0  0  2  0  0  0  0  0  0  0  0  0
    7.9631  -16.8236   21.8673 N   0  0  0  0  0  0  0  0  0  0  0  0
    9.7050  -15.5783   22.8798 C   0  0  0  0  0  0  0  0  0  0  0  0
   10.7536  -14.8730   22.8866 O   0  0  0  0  0  0  0  0  0  0  0  0
    9.3085  -16.2593   24.0565 N   0  0  0  0  0  0  0  0  0  0  0  0
   10.0556  -16.1080   25.3143 C   0  0  1  0  0  0  0  0  0  0  0  0
    9.0267  -16.3082   26.3896 C   0  0  0  0  0  0  0  0  0  0  0  0
    7.8467  -15.4652   26.1935 C   0  0  0  0  0  0  0  0  0  0  0  0
    6.5722  -15.8799   25.7613 C   0  0  0  0  0  0  0  0  0  0  0  0
    5.7526  -14.8372   25.6629 N   0  0  0  0  0  0  0  0  0  0  0  0
    6.4428  -13.7550   26.0155 C   0  0  0  0  0  0  0  0  0  0  0  0
    6.0561  -12.4416   26.1018 C   0  0  0  0  0  0  0  0  0  0  0  0
    6.9202  -11.4733   26.5108 C   0  0  0  0  0  0  0  0  0  0  0  0
    8.2298  -11.7980   26.8545 C   0  0  0  0  0  0  0  0  0  0  0  0
    8.6189  -13.1136   26.7678 C   0  0  0  0  0  0  0  0  0  0  0  0
    7.7520  -14.1083   26.3528 C   0  0  0  0  0  0  0  0  0  0  0  0
   11.1560  -17.0623   25.3462 C   0  0  0  0  0  0  0  0  0  0  0  0
   11.2670  -18.0431   24.3840 O   0  0  0  0  0  0  0  0  0  0  0  0
   12.0151  -17.0079   26.2538 O   0  0  0  0  0  0  0  0  0  0  0  0
  1  2  1  0
  2  3  2  0
  2  4  1  0
  4  5  1  0
  6  5  1  0
  6  7  1  6
  8  9  2  0
  8  6  1  0
 10 11  1  0
 11 12  1  0
 12 14  1  0
 12 13  1  6
 14 15  1  1
 15  8  1  0
 16 18  1  0
 16 14  1  0
 17 16  2  0
 19 30  1  0
 19 18  1  0
 20 21  1  0
 19 20  1  1
 21 22  2  0
 21 29  1  0
 22 23  1  0
 23 24  1  0
 24 25  2  0
 25 26  1  0
 27 26  2  0
 28 27  1  0
 29 28  2  0
 29 24  1  0
 30 31  1  0
 32 30  2  0
M  END
$$$$
