QIW.pdb
     RDKit          3D

 32 33  0  0  1  0  0  0  0  0999 V2000
   11.8470  -17.3900   15.2883 N   0  0  0  0  0  0  0  0  0  0  0  0
   10.5010  -17.7577   15.5237 C   0  0  0  0  0  0  0  0  0  0  0  0
    9.7497  -17.8682   14.5396 O   0  0  0  0  0  0  0  0  0  0  0  0
    9.9709  -18.0091   16.8800 C   0  0  0  0  0  0  0  0  0  0  0  0
   10.9551  -17.9052   17.9800 C   0  0  0  0  0  0  0  0  0  0  0  0
   10.4451  -18.0982   19.3653 C   0  0  2  0  0  0  0  0  0  0  0  0
    9.1605  -18.7985   19.3739 N   0  0  0  0  0  0  0  0  0  0  0  0
   10.3384  -16.8150   20.0837 C   0  0  0  0  0  0  0  0  0  0  0  0
   11.3302  -16.0461   20.0889 O   0  0  0  0  0  0  0  0  0  0  0  0
    7.1538  -12.7796   19.2459 C   0  0  0  0  0  0  0  0  0  0  0  0
    8.2214  -13.7123   19.7117 C   0  0  0  0  0  0  0  0  0  0  0  0
    8.0110  -14.2850   21.0769 C   0  0  2  0  0  0  0  0  0  0  0  0
    7.9352  -13.1481   22.0815 C   0  0  0  0  0  0  0  0  0  0  0  0
    9.1342  -15.2076   21.5280 C   0  0  2  0  0  0  0  0  0  0  0  0
    9.1414  -16.4285   20.7694 N   0  0  0  0  0  0  0  0  0  0  0  0
    8.8336  -15.5395   22.9431 C   0  0  0  0  0  0  0  0  0  0  0  0
    7.6709  -15.8574   23.3228 O   0  0  0  0  0  0  0  0  0  0  0  0
    9.8920  -15.4948   23.8829 N   0  0  0  0  0  0  0  0  0  0  0  0
    9.6999  -15.9430   25.2706 C   0  0  1  0  0  0  0  0  0  0  0  0
    8.2749  -16.4141   25.3200 C   0  0  0  0  0  0  0  0  0  0  0  0
    7.3417  -15.3300   25.6292 C   0  0  0  0  0  0  0  0  0  0  0  0
    5.9489  -15.3269   25.4218 C   0  0  0  0  0  0  0  0  0  0  0  0
    5.4270  -14.1595   25.7874 N   0  0  0  0  0  0  0  0  0  0  0  0
    6.4264  -13.3983   26.2276 C   0  0  0  0  0  0  0  0  0  0  0  0
    6.4181  -12.1226   26.7321 C   0  0  0  0  0  0  0  0  0  0  0  0
    7.5624  -11.5199   27.1552 C   0  0  0  0  0  0  0  0  0  0  0  0
    8.7796  -12.1921   27.0845 C   0  0  0  0  0  0  0  0  0  0  0  0
    8.7895  -13.4702   26.5785 C   0  0  0  0  0  0  0  0  0  0  0  0
    7.6347  -14.0952   26.1439 C   0  0  0  0  0  0  0  0  0  0  0  0
   10.6856  -16.9660   25.5940 C   0  0  0  0  0  0  0  0  0  0  0  0
   10.7948  -17.4597   26.8763 O   0  0  0  0  0  0  0  0  0  0  0  0
   11.4528  -17.4077   24.7103 O   0  0  0  0  0  0  0  0  0  0  0  0
  1  2  1  0
  2  3  2  0
  2  4  1  0
  4  5  1  0
  6  5  1  0
  6  7  1  6
  8  9  2  0
  8  6  1  0
 10 11  1  0
 11 12  1  0
 12 14  1  0
 12 13  1  1
 14 15  1  6
 15  8  1  0
 16 18  1  0
 16 14  1  0
 17 16  2  0
 19 30  1  0
 19 18  1  0
 20 21  1  0
 19 20  1  6
 21 22  2  0
 21 29  1  0
 22 23  1  0
 23 24  1  0
 24 25  2  0
 25 26  1  0
 27 26  2  0
 28 27  1  0
 29 28  2  0
 29 24  1  0
 30 31  1  0
 32 30  2  0
M  END
$$$$
