QIW.pdb
     RDKit          3D

 32 33  0  0  1  0  0  0  0  0999 V2000
    6.5618  -12.6773   18.1101 N   0  0  0  0  0  0  0  0  0  0  0  0
    7.8267  -13.2047   17.7576 C   0  0  0  0  0  0  0  0  0  0  0  0
    7.9686  -13.6501   16.6058 O   0  0  0  0  0  0  0  0  0  0  0  0
    8.9636  -13.2417   18.7009 C   0  0  0  0  0  0  0  0  0  0  0  0
    8.9003  -14.2964   19.7367 C   0  0  0  0  0  0  0  0  0  0  0  0
    9.4662  -15.6273   19.3834 C   0  0  2  0  0  0  0  0  0  0  0  0
    8.6990  -16.2735   18.3181 N   0  0  0  0  0  0  0  0  0  0  0  0
    9.5525  -16.5067   20.5638 C   0  0  0  0  0  0  0  0  0  0  0  0
    8.5958  -17.2821   20.8053 O   0  0  0  0  0  0  0  0  0  0  0  0
   13.9449  -19.3105   21.2101 C   0  0  0  0  0  0  0  0  0  0  0  0
   12.5195  -18.8778   21.2985 C   0  0  0  0  0  0  0  0  0  0  0  0
   12.1669  -18.1058   22.5295 C   0  0  2  0  0  0  0  0  0  0  0  0
   12.1900  -19.0449   23.7233 C   0  0  0  0  0  0  0  0  0  0  0  0
   10.7803  -17.4807   22.4778 C   0  0  2  0  0  0  0  0  0  0  0  0
   10.6910  -16.4975   21.4332 N   0  0  0  0  0  0  0  0  0  0  0  0
   10.6036  -16.7935   23.7815 C   0  0  0  0  0  0  0  0  0  0  0  0
   11.2842  -15.7771   24.0990 O   0  0  0  0  0  0  0  0  0  0  0  0
    9.6395  -17.3038   24.6846 N   0  0  0  0  0  0  0  0  0  0  0  0
    9.4016  -16.6653   25.9881 C   0  0  1  0  0  0  0  0  0  0  0  0
    7.9123  -16.4834   26.0518 C   0  0  0  0  0  0  0  0  0  0  0  0
    7.4642  -15.3049   25.3088 C   0  0  0  0  0  0  0  0  0  0  0  0
    7.0354  -15.2617   23.9682 C   0  0  0  0  0  0  0  0  0  0  0  0
    6.7361  -14.0147   23.6158 N   0  0  0  0  0  0  0  0  0  0  0  0
    6.9521  -13.2398   24.6763 C   0  0  0  0  0  0  0  0  0  0  0  0
    6.7798  -11.8888   24.8414 C   0  0  0  0  0  0  0  0  0  0  0  0
    7.0404  -11.2807   26.0304 C   0  0  0  0  0  0  0  0  0  0  0  0
    7.4925  -12.0245   27.1172 C   0  0  0  0  0  0  0  0  0  0  0  0
    7.6664  -13.3782   26.9530 C   0  0  0  0  0  0  0  0  0  0  0  0
    7.4064  -14.0098   25.7502 C   0  0  0  0  0  0  0  0  0  0  0  0
    9.9540  -17.4987   27.0478 C   0  0  0  0  0  0  0  0  0  0  0  0
   10.4958  -18.7339   26.7635 O   0  0  0  0  0  0  0  0  0  0  0  0
    9.9389  -17.1056   28.2352 O   0  0  0  0  0  0  0  0  0  0  0  0
  1  2  1  0
  2  3  2  0
  2  4  1  0
  4  5  1  0
  6  5  1  0
  6  7  1  6
  8  9  2  0
  8  6  1  0
 10 11  1  0
 11 12  1  0
 12 14  1  0
 12 13  1  1
 14 15  1  6
 15  8  1  0
 16 18  1  0
 16 14  1  0
 17 16  2  0
 19 30  1  0
 19 18  1  0
 20 21  1  0
 19 20  1  1
 21 22  2  0
 21 29  1  0
 22 23  1  0
 23 24  1  0
 24 25  2  0
 25 26  1  0
 27 26  2  0
 28 27  1  0
 29 28  2  0
 29 24  1  0
 30 31  1  0
 32 30  2  0
M  END
$$$$
