DHT.pdb
     RDKit          3D

 26 26  0  0  1  0  0  0  0  0999 V2000
   10.4962  -18.1927   20.5649 N   0  0  0  0  0  0  0  0  0  0  0  0
   11.7046  -17.5803   21.0162 C   0  0  1  0  0  0  0  0  0  0  0  0
   12.4649  -16.8777   19.9181 C   0  0  0  0  0  0  0  0  0  0  0  0
   13.2638  -17.8159   19.1003 C   0  0  0  0  0  0  0  0  0  0  0  0
   13.1439  -19.0386   19.3303 O   0  0  0  0  0  0  0  0  0  0  0  0
   11.3543  -16.5122   22.0257 C   0  0  0  0  0  0  0  0  0  0  0  0
   12.2475  -15.7881   22.5237 O   0  0  0  0  0  0  0  0  0  0  0  0
   14.1189  -17.3657   18.1107 O   0  0  0  0  0  0  0  0  0  0  0  0
   10.0124  -16.3167   22.4211 N   0  0  0  0  0  0  0  0  0  0  0  0
    9.5555  -15.4514   23.4539 C   0  0  1  0  0  0  0  0  0  0  0  0
    8.1129  -14.9845   23.3309 C   0  0  0  0  0  0  0  0  0  0  0  0
    7.8156  -14.3930   22.0152 C   0  0  0  0  0  0  0  0  0  0  0  0
    7.9499  -13.1469   21.4783 C   0  0  0  0  0  0  0  0  0  0  0  0
    7.5224  -13.1598   20.1960 N   0  0  0  0  0  0  0  0  0  0  0  0
    7.1178  -14.3938   19.9061 C   0  0  0  0  0  0  0  0  0  0  0  0
    7.2928  -15.1415   21.0006 N   0  0  0  0  0  0  0  0  0  0  0  0
    9.8721  -15.8629   24.8260 C   0  0  0  0  0  0  0  0  0  0  0  0
   10.1345  -17.0721   25.0384 O   0  0  0  0  0  0  0  0  0  0  0  0
   10.9596  -13.0437   27.7234 C   0  0  0  0  0  0  0  0  0  0  0  0
   10.1594  -14.2175   28.2451 C   0  0  1  0  0  0  0  0  0  0  0  0
    8.8158  -13.8062   28.3041 O   0  0  0  0  0  0  0  0  0  0  0  0
   10.3281  -15.3530   27.2630 C   0  0  2  0  0  0  0  0  0  0  0  0
    9.8999  -14.9771   25.9291 N   0  0  0  0  0  0  0  0  0  0  0  0
    9.5435  -16.5097   27.7725 C   0  0  0  0  0  0  0  0  0  0  0  0
    8.5775  -16.9797   27.1255 O   0  0  0  0  0  0  0  0  0  0  0  0
    9.8409  -17.1271   28.9892 O   0  0  0  0  0  0  0  0  0  0  0  0
  2  3  1  0
  2  1  1  6
  3  4  1  0
  4  5  2  0
  4  8  1  0
  6  7  2  0
  6  2  1  0
  9  6  1  0
 10  9  1  0
 10 11  1  1
 12 11  1  0
 12 13  2  0
 14 13  1  0
 15 16  2  0
 15 14  1  0
 16 12  1  0
 17 10  1  0
 17 23  1  0
 18 17  2  0
 20 19  1  6
 21 20  1  0
 22 20  1  0
 22 23  1  6
 24 22  1  0
 25 24  2  0
 26 24  1  0
M  END
$$$$
