DHT.pdb
     RDKit          3D

 26 26  0  0  1  0  0  0  0  0999 V2000
   10.8077  -18.7167   21.0325 N   0  0  0  0  0  0  0  0  0  0  0  0
   11.9018  -17.8740   21.3956 C   0  0  1  0  0  0  0  0  0  0  0  0
   12.5563  -17.2017   20.2135 C   0  0  0  0  0  0  0  0  0  0  0  0
   11.8179  -17.4382   18.9542 C   0  0  0  0  0  0  0  0  0  0  0  0
   10.7228  -18.0368   19.0232 O   0  0  0  0  0  0  0  0  0  0  0  0
   11.3792  -16.7578   22.2694 C   0  0  0  0  0  0  0  0  0  0  0  0
   12.1371  -15.8324   22.6428 O   0  0  0  0  0  0  0  0  0  0  0  0
   12.3139  -17.0151   17.7343 O   0  0  0  0  0  0  0  0  0  0  0  0
   10.0268  -16.7440   22.6769 N   0  0  0  0  0  0  0  0  0  0  0  0
    9.4666  -15.9455   23.7125 C   0  0  1  0  0  0  0  0  0  0  0  0
    7.9481  -15.9573   23.8041 C   0  0  0  0  0  0  0  0  0  0  0  0
    7.4156  -14.8293   24.5872 C   0  0  0  0  0  0  0  0  0  0  0  0
    7.9149  -13.6236   24.9823 C   0  0  0  0  0  0  0  0  0  0  0  0
    6.9761  -12.9566   25.6900 N   0  0  0  0  0  0  0  0  0  0  0  0
    5.8860  -13.7171   25.7527 C   0  0  0  0  0  0  0  0  0  0  0  0
    6.1463  -14.8480   25.0888 N   0  0  0  0  0  0  0  0  0  0  0  0
   10.0858  -16.0794   25.0357 C   0  0  0  0  0  0  0  0  0  0  0  0
   10.6900  -17.1467   25.3039 O   0  0  0  0  0  0  0  0  0  0  0  0
   11.1039  -14.1943   29.5145 C   0  0  0  0  0  0  0  0  0  0  0  0
   10.3272  -14.0220   28.2271 C   0  0  1  0  0  0  0  0  0  0  0  0
   10.7807  -12.8328   27.6287 O   0  0  0  0  0  0  0  0  0  0  0  0
   10.6348  -15.2128   27.3497 C   0  0  2  0  0  0  0  0  0  0  0  0
   10.0437  -15.0758   26.0322 N   0  0  0  0  0  0  0  0  0  0  0  0
   10.1255  -16.4267   28.0427 C   0  0  0  0  0  0  0  0  0  0  0  0
    9.1271  -17.0531   27.6142 O   0  0  0  0  0  0  0  0  0  0  0  0
   10.7292  -16.9272   29.1981 O   0  0  0  0  0  0  0  0  0  0  0  0
  2  3  1  0
  2  1  1  6
  3  4  1  0
  4  5  2  0
  4  8  1  0
  6  7  2  0
  6  2  1  0
  9  6  1  0
 10  9  1  0
 10 11  1  1
 12 11  1  0
 12 13  2  0
 14 13  1  0
 15 16  2  0
 15 14  1  0
 16 12  1  0
 17 10  1  0
 17 23  1  0
 18 17  2  0
 20 19  1  1
 21 20  1  0
 22 20  1  0
 22 23  1  6
 24 22  1  0
 25 24  2  0
 26 24  1  0
M  END
$$$$
