DHT.pdb
     RDKit          3D

 26 26  0  0  1  0  0  0  0  0999 V2000
   11.8921  -16.8359   18.8065 N   0  0  0  0  0  0  0  0  0  0  0  0
   12.0062  -15.9224   19.8980 C   0  0  1  0  0  0  0  0  0  0  0  0
   12.3889  -14.5262   19.4715 C   0  0  0  0  0  0  0  0  0  0  0  0
   13.8141  -14.4276   19.0892 C   0  0  0  0  0  0  0  0  0  0  0  0
   14.6106  -15.2519   19.5876 O   0  0  0  0  0  0  0  0  0  0  0  0
   10.6552  -15.7964   20.5625 C   0  0  0  0  0  0  0  0  0  0  0  0
    9.6055  -15.7991   19.8782 O   0  0  0  0  0  0  0  0  0  0  0  0
   14.2618  -13.4586   18.2095 O   0  0  0  0  0  0  0  0  0  0  0  0
   10.5591  -15.6737   21.9664 N   0  0  0  0  0  0  0  0  0  0  0  0
    9.3585  -15.5862   22.7246 C   0  0  1  0  0  0  0  0  0  0  0  0
    8.4956  -16.8390   22.7373 C   0  0  0  0  0  0  0  0  0  0  0  0
    9.1783  -17.9951   23.3426 C   0  0  0  0  0  0  0  0  0  0  0  0
   10.3968  -18.1851   23.9241 C   0  0  0  0  0  0  0  0  0  0  0  0
   10.5086  -19.4702   24.3278 N   0  0  0  0  0  0  0  0  0  0  0  0
    9.3811  -20.1032   24.0135 C   0  0  0  0  0  0  0  0  0  0  0  0
    8.5754  -19.2173   23.4190 N   0  0  0  0  0  0  0  0  0  0  0  0
    9.4848  -15.0071   24.0667 C   0  0  0  0  0  0  0  0  0  0  0  0
   10.5862  -15.1152   24.6594 O   0  0  0  0  0  0  0  0  0  0  0  0
    7.5268  -11.6294   25.5660 C   0  0  0  0  0  0  0  0  0  0  0  0
    7.3850  -12.8793   26.4073 C   0  0  1  0  0  0  0  0  0  0  0  0
    6.1671  -13.4827   26.0461 O   0  0  0  0  0  0  0  0  0  0  0  0
    8.5487  -13.7835   26.0749 C   0  0  2  0  0  0  0  0  0  0  0  0
    8.4375  -14.3316   24.7367 N   0  0  0  0  0  0  0  0  0  0  0  0
    8.5854  -14.8646   27.0962 C   0  0  0  0  0  0  0  0  0  0  0  0
    8.4095  -16.0660   26.7826 O   0  0  0  0  0  0  0  0  0  0  0  0
    8.8163  -14.5984   28.4475 O   0  0  0  0  0  0  0  0  0  0  0  0
  2  3  1  0
  2  1  1  6
  3  4  1  0
  4  5  2  0
  4  8  1  0
  6  7  2  0
  6  2  1  0
  9  6  1  0
 10  9  1  0
 10 11  1  1
 12 11  1  0
 12 13  2  0
 14 13  1  0
 15 16  2  0
 15 14  1  0
 16 12  1  0
 17 10  1  0
 17 23  1  0
 18 17  2  0
 20 19  1  6
 21 20  1  0
 22 20  1  0
 22 23  1  6
 24 22  1  0
 25 24  2  0
 26 24  1  0
M  END
$$$$
