DHT.pdb
     RDKit          3D

 26 26  0  0  1  0  0  0  0  0999 V2000
    9.9624  -18.4695   19.6080 N   0  0  0  0  0  0  0  0  0  0  0  0
   11.0982  -17.6728   19.9459 C   0  0  1  0  0  0  0  0  0  0  0  0
   11.7121  -16.9730   18.7580 C   0  0  0  0  0  0  0  0  0  0  0  0
   12.4121  -17.9114   17.8545 C   0  0  0  0  0  0  0  0  0  0  0  0
   11.7964  -18.9342   17.4843 O   0  0  0  0  0  0  0  0  0  0  0  0
   10.6542  -16.5777   20.8873 C   0  0  0  0  0  0  0  0  0  0  0  0
   11.4938  -15.8129   21.4168 O   0  0  0  0  0  0  0  0  0  0  0  0
   13.7061  -17.6747   17.4268 O   0  0  0  0  0  0  0  0  0  0  0  0
    9.2840  -16.4026   21.1826 N   0  0  0  0  0  0  0  0  0  0  0  0
    8.7350  -15.4899   22.1257 C   0  0  1  0  0  0  0  0  0  0  0  0
    7.5274  -14.6974   21.6482 C   0  0  0  0  0  0  0  0  0  0  0  0
    7.7232  -14.1104   20.3117 C   0  0  0  0  0  0  0  0  0  0  0  0
    8.1338  -12.8925   19.8567 C   0  0  0  0  0  0  0  0  0  0  0  0
    8.1423  -12.8953   18.5051 N   0  0  0  0  0  0  0  0  0  0  0  0
    7.7439  -14.0953   18.0903 C   0  0  0  0  0  0  0  0  0  0  0  0
    7.4899  -14.8319   19.1768 N   0  0  0  0  0  0  0  0  0  0  0  0
    8.5346  -16.0090   23.4832 C   0  0  0  0  0  0  0  0  0  0  0  0
    7.4782  -16.6419   23.7276 O   0  0  0  0  0  0  0  0  0  0  0  0
    8.6032  -18.5586   24.5362 C   0  0  0  0  0  0  0  0  0  0  0  0
    9.7012  -18.0945   25.4685 C   0  0  1  0  0  0  0  0  0  0  0  0
   10.9206  -18.2784   24.7924 O   0  0  0  0  0  0  0  0  0  0  0  0
    9.4641  -16.6301   25.7541 C   0  0  2  0  0  0  0  0  0  0  0  0
    9.4623  -15.8394   24.5380 N   0  0  0  0  0  0  0  0  0  0  0  0
   10.5286  -16.1750   26.6884 C   0  0  0  0  0  0  0  0  0  0  0  0
   11.4433  -15.4044   26.3112 O   0  0  0  0  0  0  0  0  0  0  0  0
   10.5633  -16.5800   28.0243 O   0  0  0  0  0  0  0  0  0  0  0  0
  2  3  1  0
  2  1  1  6
  3  4  1  0
  4  5  2  0
  4  8  1  0
  6  7  2  0
  6  2  1  0
  9  6  1  0
 10  9  1  0
 10 11  1  6
 12 11  1  0
 12 13  2  0
 14 13  1  0
 15 16  2  0
 15 14  1  0
 16 12  1  0
 17 10  1  0
 17 23  1  0
 18 17  2  0
 20 19  1  6
 21 20  1  0
 22 20  1  0
 22 23  1  6
 24 22  1  0
 25 24  2  0
 26 24  1  0
M  END
$$$$
