DHT.pdb
     RDKit          3D

 26 26  0  0  1  0  0  0  0  0999 V2000
    9.4489  -17.4710   16.1302 N   0  0  0  0  0  0  0  0  0  0  0  0
   10.8140  -17.0777   16.2749 C   0  0  1  0  0  0  0  0  0  0  0  0
   11.2120  -15.9504   15.3538 C   0  0  0  0  0  0  0  0  0  0  0  0
   11.1354  -16.3373   13.9284 C   0  0  0  0  0  0  0  0  0  0  0  0
   10.2895  -17.1974   13.6016 O   0  0  0  0  0  0  0  0  0  0  0  0
   11.0180  -16.5570   17.6783 C   0  0  0  0  0  0  0  0  0  0  0  0
   12.1276  -16.0943   18.0317 O   0  0  0  0  0  0  0  0  0  0  0  0
   11.9680  -15.7719   12.9796 O   0  0  0  0  0  0  0  0  0  0  0  0
    9.9577  -16.5857   18.6113 N   0  0  0  0  0  0  0  0  0  0  0  0
   10.0088  -16.1343   19.9595 C   0  0  1  0  0  0  0  0  0  0  0  0
    8.7214  -15.5309   20.5005 C   0  0  0  0  0  0  0  0  0  0  0  0
    8.2182  -14.4233   19.6703 C   0  0  0  0  0  0  0  0  0  0  0  0
    8.3859  -13.0703   19.6833 C   0  0  0  0  0  0  0  0  0  0  0  0
    7.6886  -12.5195   18.6647 N   0  0  0  0  0  0  0  0  0  0  0  0
    7.0790  -13.4992   18.0019 C   0  0  0  0  0  0  0  0  0  0  0  0
    7.3956  -14.6497   18.6049 N   0  0  0  0  0  0  0  0  0  0  0  0
   10.6175  -17.0562   20.9249 C   0  0  0  0  0  0  0  0  0  0  0  0
    9.9318  -18.0243   21.3359 O   0  0  0  0  0  0  0  0  0  0  0  0
   13.2707  -19.3180   20.5221 C   0  0  0  0  0  0  0  0  0  0  0  0
   13.7594  -18.5308   21.7186 C   0  0  1  0  0  0  0  0  0  0  0  0
   14.6724  -17.5753   21.2377 O   0  0  0  0  0  0  0  0  0  0  0  0
   12.5579  -17.8571   22.3391 C   0  0  2  0  0  0  0  0  0  0  0  0
   11.9349  -16.9209   21.4231 N   0  0  0  0  0  0  0  0  0  0  0  0
   13.0151  -17.1722   23.5780 C   0  0  0  0  0  0  0  0  0  0  0  0
   13.4332  -17.8205   24.5667 O   0  0  0  0  0  0  0  0  0  0  0  0
   13.0020  -15.7813   23.7023 O   0  0  0  0  0  0  0  0  0  0  0  0
  2  3  1  0
  2  1  1  1
  3  4  1  0
  4  5  2  0
  4  8  1  0
  6  7  2  0
  6  2  1  0
  9  6  1  0
 10  9  1  0
 10 11  1  1
 12 11  1  0
 12 13  2  0
 14 13  1  0
 15 16  2  0
 15 14  1  0
 16 12  1  0
 17 10  1  0
 17 23  1  0
 18 17  2  0
 20 19  1  6
 21 20  1  0
 22 20  1  0
 22 23  1  6
 24 22  1  0
 25 24  2  0
 26 24  1  0
M  END
$$$$
