DHT.pdb
     RDKit          3D

 26 26  0  0  1  0  0  0  0  0999 V2000
    9.8546  -17.9476   16.6895 N   0  0  0  0  0  0  0  0  0  0  0  0
   11.1096  -17.2705   16.7633 C   0  0  1  0  0  0  0  0  0  0  0  0
   11.3030  -16.2494   15.6690 C   0  0  0  0  0  0  0  0  0  0  0  0
   11.3648  -16.8696   14.3279 C   0  0  0  0  0  0  0  0  0  0  0  0
   10.8023  -17.9744   14.1691 O   0  0  0  0  0  0  0  0  0  0  0  0
   11.1647  -16.5006   18.0621 C   0  0  0  0  0  0  0  0  0  0  0  0
   12.1490  -15.7732   18.3307 O   0  0  0  0  0  0  0  0  0  0  0  0
   12.0212  -16.2557   13.2764 O   0  0  0  0  0  0  0  0  0  0  0  0
   10.1047  -16.5920   18.9913 N   0  0  0  0  0  0  0  0  0  0  0  0
   10.0414  -15.9569   20.2628 C   0  0  1  0  0  0  0  0  0  0  0  0
    8.6938  -15.3546   20.6309 C   0  0  0  0  0  0  0  0  0  0  0  0
    8.2139  -14.3807   19.6357 C   0  0  0  0  0  0  0  0  0  0  0  0
    8.2903  -13.0247   19.5155 C   0  0  0  0  0  0  0  0  0  0  0  0
    7.6750  -12.6374   18.3760 N   0  0  0  0  0  0  0  0  0  0  0  0
    7.2075  -13.7243   17.7672 C   0  0  0  0  0  0  0  0  0  0  0  0
    7.5302  -14.7786   18.5234 N   0  0  0  0  0  0  0  0  0  0  0  0
   10.6213  -16.7028   21.3851 C   0  0  0  0  0  0  0  0  0  0  0  0
   10.0633  -17.7695   21.7414 O   0  0  0  0  0  0  0  0  0  0  0  0
   14.3162  -17.3786   24.6189 C   0  0  0  0  0  0  0  0  0  0  0  0
   13.6693  -16.4184   23.6444 C   0  0  1  0  0  0  0  0  0  0  0  0
   14.5688  -16.2467   22.5770 O   0  0  0  0  0  0  0  0  0  0  0  0
   12.3863  -17.0558   23.1647 C   0  0  2  0  0  0  0  0  0  0  0  0
   11.7753  -16.2922   22.0935 N   0  0  0  0  0  0  0  0  0  0  0  0
   11.4730  -17.1655   24.3340 C   0  0  0  0  0  0  0  0  0  0  0  0
   11.5311  -18.1417   25.1190 O   0  0  0  0  0  0  0  0  0  0  0  0
   10.5108  -16.1933   24.6151 O   0  0  0  0  0  0  0  0  0  0  0  0
  2  3  1  0
  2  1  1  6
  3  4  1  0
  4  5  2  0
  4  8  1  0
  6  7  2  0
  6  2  1  0
  9  6  1  0
 10  9  1  0
 10 11  1  1
 12 11  1  0
 12 13  2  0
 14 13  1  0
 15 16  2  0
 15 14  1  0
 16 12  1  0
 17 10  1  0
 17 23  1  0
 18 17  2  0
 20 19  1  1
 21 20  1  0
 22 20  1  0
 22 23  1  6
 24 22  1  0
 25 24  2  0
 26 24  1  0
M  END
$$$$
