DHT.pdb
     RDKit          3D

 26 26  0  0  1  0  0  0  0  0999 V2000
    9.3506  -18.5496   16.8523 N   0  0  0  0  0  0  0  0  0  0  0  0
   10.4011  -17.5840   16.7964 C   0  0  1  0  0  0  0  0  0  0  0  0
   10.2286  -16.5768   15.6858 C   0  0  0  0  0  0  0  0  0  0  0  0
   10.5744  -17.1374   14.3617 C   0  0  0  0  0  0  0  0  0  0  0  0
   10.6176  -18.3813   14.2476 O   0  0  0  0  0  0  0  0  0  0  0  0
   10.3920  -16.7891   18.0811 C   0  0  0  0  0  0  0  0  0  0  0  0
   11.2619  -15.9127   18.2946 O   0  0  0  0  0  0  0  0  0  0  0  0
   10.8430  -16.3208   13.2780 O   0  0  0  0  0  0  0  0  0  0  0  0
    9.4006  -17.0248   19.0592 N   0  0  0  0  0  0  0  0  0  0  0  0
    9.2878  -16.3737   20.3190 C   0  0  1  0  0  0  0  0  0  0  0  0
    7.9981  -15.5997   20.5465 C   0  0  0  0  0  0  0  0  0  0  0  0
    7.8103  -14.5075   19.5763 C   0  0  0  0  0  0  0  0  0  0  0  0
    8.1470  -13.1865   19.5515 C   0  0  0  0  0  0  0  0  0  0  0  0
    7.7336  -12.6374   18.3876 N   0  0  0  0  0  0  0  0  0  0  0  0
    7.1388  -13.5866   17.6694 C   0  0  0  0  0  0  0  0  0  0  0  0
    7.1826  -14.7167   18.3824 N   0  0  0  0  0  0  0  0  0  0  0  0
    9.6472  -17.1761   21.4935 C   0  0  0  0  0  0  0  0  0  0  0  0
    9.1010  -18.2974   21.6370 O   0  0  0  0  0  0  0  0  0  0  0  0
   13.2446  -19.0064   23.8513 C   0  0  0  0  0  0  0  0  0  0  0  0
   12.6012  -18.0972   22.8266 C   0  0  1  0  0  0  0  0  0  0  0  0
   12.4356  -18.8528   21.6522 O   0  0  0  0  0  0  0  0  0  0  0  0
   11.2624  -17.6678   23.3792 C   0  0  2  0  0  0  0  0  0  0  0  0
   10.5752  -16.7624   22.4782 N   0  0  0  0  0  0  0  0  0  0  0  0
   11.5042  -17.0288   24.7007 C   0  0  0  0  0  0  0  0  0  0  0  0
   11.3874  -17.6741   25.7696 O   0  0  0  0  0  0  0  0  0  0  0  0
   11.8713  -15.6865   24.8174 O   0  0  0  0  0  0  0  0  0  0  0  0
  2  3  1  0
  2  1  1  1
  3  4  1  0
  4  5  2  0
  4  8  1  0
  6  7  2  0
  6  2  1  0
  9  6  1  0
 10  9  1  0
 10 11  1  1
 12 11  1  0
 12 13  2  0
 14 13  1  0
 15 16  2  0
 15 14  1  0
 16 12  1  0
 17 10  1  0
 17 23  1  0
 18 17  2  0
 20 19  1  1
 21 20  1  0
 22 20  1  0
 22 23  1  6
 24 22  1  0
 25 24  2  0
 26 24  1  0
M  END
$$$$
