DHT.pdb
     RDKit          3D

 26 26  0  0  1  0  0  0  0  0999 V2000
    9.5827  -12.9713   19.0692 N   0  0  0  0  0  0  0  0  0  0  0  0
    8.1781  -13.0475   19.3146 C   0  0  1  0  0  0  0  0  0  0  0  0
    7.4201  -13.7716   18.2290 C   0  0  0  0  0  0  0  0  0  0  0  0
    8.3110  -14.5721   17.3614 C   0  0  0  0  0  0  0  0  0  0  0  0
    8.8267  -15.6022   17.8463 O   0  0  0  0  0  0  0  0  0  0  0  0
    7.9535  -13.8445   20.5783 C   0  0  0  0  0  0  0  0  0  0  0  0
    6.7960  -14.0157   21.0269 O   0  0  0  0  0  0  0  0  0  0  0  0
    8.5717  -14.2020   16.0544 O   0  0  0  0  0  0  0  0  0  0  0  0
    9.0483  -14.4077   21.2709 N   0  0  0  0  0  0  0  0  0  0  0  0
    8.9790  -15.2402   22.4224 C   0  0  1  0  0  0  0  0  0  0  0  0
    9.9068  -16.4458   22.4193 C   0  0  0  0  0  0  0  0  0  0  0  0
    9.4975  -17.4774   21.4510 C   0  0  0  0  0  0  0  0  0  0  0  0
    8.4721  -17.5949   20.5601 C   0  0  0  0  0  0  0  0  0  0  0  0
    8.5806  -18.7692   19.8997 N   0  0  0  0  0  0  0  0  0  0  0  0
    9.6586  -19.4028   20.3546 C   0  0  0  0  0  0  0  0  0  0  0  0
   10.2152  -18.6273   21.2907 N   0  0  0  0  0  0  0  0  0  0  0  0
    8.9974  -14.5513   23.7175 C   0  0  0  0  0  0  0  0  0  0  0  0
    9.2595  -13.3236   23.7341 O   0  0  0  0  0  0  0  0  0  0  0  0
    7.6034  -12.5913   25.0052 C   0  0  0  0  0  0  0  0  0  0  0  0
    7.3774  -13.5431   26.1599 C   0  0  1  0  0  0  0  0  0  0  0  0
    6.1914  -14.2477   25.8866 O   0  0  0  0  0  0  0  0  0  0  0  0
    8.5585  -14.4837   26.2094 C   0  0  2  0  0  0  0  0  0  0  0  0
    8.7369  -15.1879   24.9540 N   0  0  0  0  0  0  0  0  0  0  0  0
    8.3306  -15.4347   27.3305 C   0  0  0  0  0  0  0  0  0  0  0  0
    8.1141  -16.6520   27.1208 O   0  0  0  0  0  0  0  0  0  0  0  0
    8.3461  -15.0230   28.6648 O   0  0  0  0  0  0  0  0  0  0  0  0
  2  3  1  0
  2  1  1  6
  3  4  1  0
  4  5  2  0
  4  8  1  0
  6  7  2  0
  6  2  1  0
  9  6  1  0
 10  9  1  0
 10 11  1  1
 12 11  1  0
 12 13  2  0
 14 13  1  0
 15 16  2  0
 15 14  1  0
 16 12  1  0
 17 10  1  0
 17 23  1  0
 18 17  2  0
 20 19  1  6
 21 20  1  0
 22 20  1  0
 22 23  1  6
 24 22  1  0
 25 24  2  0
 26 24  1  0
M  END
$$$$
