DHT.pdb
     RDKit          3D

 26 26  0  0  1  0  0  0  0  0999 V2000
   13.7115  -13.9250   18.1586 N   0  0  0  0  0  0  0  0  0  0  0  0
   13.1165  -15.1962   18.4212 C   0  0  1  0  0  0  0  0  0  0  0  0
   14.1271  -16.2889   18.6710 C   0  0  0  0  0  0  0  0  0  0  0  0
   14.9044  -16.6218   17.4577 C   0  0  0  0  0  0  0  0  0  0  0  0
   16.0144  -16.0678   17.3053 O   0  0  0  0  0  0  0  0  0  0  0  0
   12.2986  -15.0917   19.6871 C   0  0  0  0  0  0  0  0  0  0  0  0
   12.7155  -14.4243   20.6623 O   0  0  0  0  0  0  0  0  0  0  0  0
   14.4279  -17.5158   16.5159 O   0  0  0  0  0  0  0  0  0  0  0  0
   11.0510  -15.7467   19.7868 N   0  0  0  0  0  0  0  0  0  0  0  0
   10.1412  -15.6656   20.8775 C   0  0  1  0  0  0  0  0  0  0  0  0
    8.6881  -15.4133   20.5048 C   0  0  0  0  0  0  0  0  0  0  0  0
    8.5294  -14.3050   19.5478 C   0  0  0  0  0  0  0  0  0  0  0  0
    8.3624  -12.9573   19.6696 C   0  0  0  0  0  0  0  0  0  0  0  0
    8.2790  -12.4002   18.4409 N   0  0  0  0  0  0  0  0  0  0  0  0
    8.3903  -13.3705   17.5372 C   0  0  0  0  0  0  0  0  0  0  0  0
    8.5416  -14.5216   18.2002 N   0  0  0  0  0  0  0  0  0  0  0  0
   10.2604  -16.7155   21.8953 C   0  0  0  0  0  0  0  0  0  0  0  0
    9.9779  -17.8944   21.5691 O   0  0  0  0  0  0  0  0  0  0  0  0
   12.9245  -18.2802   23.2234 C   0  0  0  0  0  0  0  0  0  0  0  0
   12.2920  -17.8013   24.5122 C   0  0  1  0  0  0  0  0  0  0  0  0
   12.9615  -16.6223   24.8860 O   0  0  0  0  0  0  0  0  0  0  0  0
   10.8356  -17.5207   24.2250 C   0  0  2  0  0  0  0  0  0  0  0  0
   10.6759  -16.4802   23.2273 N   0  0  0  0  0  0  0  0  0  0  0  0
   10.1890  -17.1370   25.5087 C   0  0  0  0  0  0  0  0  0  0  0  0
    9.7275  -15.9850   25.6891 O   0  0  0  0  0  0  0  0  0  0  0  0
   10.0638  -18.0343   26.5714 O   0  0  0  0  0  0  0  0  0  0  0  0
  2  3  1  0
  2  1  1  1
  3  4  1  0
  4  5  2  0
  4  8  1  0
  6  7  2  0
  6  2  1  0
  9  6  1  0
 10  9  1  0
 10 11  1  6
 12 11  1  0
 12 13  2  0
 14 13  1  0
 15 16  2  0
 15 14  1  0
 16 12  1  0
 17 10  1  0
 17 23  1  0
 18 17  2  0
 20 19  1  6
 21 20  1  0
 22 20  1  0
 22 23  1  6
 24 22  1  0
 25 24  2  0
 26 24  1  0
M  END
$$$$
