DHT.pdb
     RDKit          3D

 26 26  0  0  1  0  0  0  0  0999 V2000
    9.6787  -18.3777   17.7300 N   0  0  0  0  0  0  0  0  0  0  0  0
   10.9351  -17.7443   17.9735 C   0  0  1  0  0  0  0  0  0  0  0  0
   11.3520  -16.8004   16.8722 C   0  0  0  0  0  0  0  0  0  0  0  0
   11.5290  -17.4927   15.5774 C   0  0  0  0  0  0  0  0  0  0  0  0
   11.0631  -18.6469   15.4640 O   0  0  0  0  0  0  0  0  0  0  0  0
   10.8135  -16.8985   19.2195 C   0  0  0  0  0  0  0  0  0  0  0  0
   11.8008  -16.2637   19.6580 O   0  0  0  0  0  0  0  0  0  0  0  0
   12.1873  -16.8916   14.5197 O   0  0  0  0  0  0  0  0  0  0  0  0
    9.5823  -16.8132   19.9066 N   0  0  0  0  0  0  0  0  0  0  0  0
    9.3326  -16.0817   21.1010 C   0  0  1  0  0  0  0  0  0  0  0  0
    8.0499  -15.2638   21.1155 C   0  0  0  0  0  0  0  0  0  0  0  0
    7.9267  -14.3763   19.9466 C   0  0  0  0  0  0  0  0  0  0  0  0
    8.2596  -13.0779   19.6965 C   0  0  0  0  0  0  0  0  0  0  0  0
    7.9269  -12.7639   18.4246 N   0  0  0  0  0  0  0  0  0  0  0  0
    7.3873  -13.8408   17.8591 C   0  0  0  0  0  0  0  0  0  0  0  0
    7.3851  -14.8162   18.7735 N   0  0  0  0  0  0  0  0  0  0  0  0
    9.5151  -16.8173   22.3571 C   0  0  0  0  0  0  0  0  0  0  0  0
    8.6037  -17.5975   22.7268 O   0  0  0  0  0  0  0  0  0  0  0  0
   13.3462  -17.0947   24.0724 C   0  0  0  0  0  0  0  0  0  0  0  0
   12.3386  -18.2232   24.1147 C   0  0  1  0  0  0  0  0  0  0  0  0
   12.6571  -19.0179   25.2304 O   0  0  0  0  0  0  0  0  0  0  0  0
   10.9703  -17.6030   24.2733 C   0  0  2  0  0  0  0  0  0  0  0  0
   10.6597  -16.7010   23.1808 N   0  0  0  0  0  0  0  0  0  0  0  0
   10.9466  -16.8917   25.5797 C   0  0  0  0  0  0  0  0  0  0  0  0
   10.8806  -15.6409   25.6414 O   0  0  0  0  0  0  0  0  0  0  0  0
   10.9963  -17.5761   26.7959 O   0  0  0  0  0  0  0  0  0  0  0  0
  2  3  1  0
  2  1  1  6
  3  4  1  0
  4  5  2  0
  4  8  1  0
  6  7  2  0
  6  2  1  0
  9  6  1  0
 10  9  1  0
 10 11  1  6
 12 11  1  0
 12 13  2  0
 14 13  1  0
 15 16  2  0
 15 14  1  0
 16 12  1  0
 17 10  1  0
 17 23  1  0
 18 17  2  0
 20 19  1  1
 21 20  1  0
 22 20  1  0
 22 23  1  6
 24 22  1  0
 25 24  2  0
 26 24  1  0
M  END
$$$$
