DHT.pdb
     RDKit          3D

 26 26  0  0  1  0  0  0  0  0999 V2000
   12.3071  -15.2227   16.1530 N   0  0  0  0  0  0  0  0  0  0  0  0
   13.3875  -15.4623   17.0554 C   0  0  1  0  0  0  0  0  0  0  0  0
   14.5926  -14.5937   16.7890 C   0  0  0  0  0  0  0  0  0  0  0  0
   15.1378  -14.7930   15.4288 C   0  0  0  0  0  0  0  0  0  0  0  0
   14.3294  -15.0237   14.5039 O   0  0  0  0  0  0  0  0  0  0  0  0
   12.9308  -15.1187   18.4540 C   0  0  0  0  0  0  0  0  0  0  0  0
   13.4616  -14.1746   19.0841 O   0  0  0  0  0  0  0  0  0  0  0  0
   16.4964  -14.7284   15.1773 O   0  0  0  0  0  0  0  0  0  0  0  0
   11.8975  -15.8596   19.0694 N   0  0  0  0  0  0  0  0  0  0  0  0
   11.3842  -15.6609   20.3813 C   0  0  1  0  0  0  0  0  0  0  0  0
    9.8703  -15.5543   20.4863 C   0  0  0  0  0  0  0  0  0  0  0  0
    9.3173  -14.4655   19.6630 C   0  0  0  0  0  0  0  0  0  0  0  0
    9.6913  -13.1795   19.4076 C   0  0  0  0  0  0  0  0  0  0  0  0
    8.8107  -12.6150   18.5516 N   0  0  0  0  0  0  0  0  0  0  0  0
    7.8809  -13.5201   18.2564 C   0  0  0  0  0  0  0  0  0  0  0  0
    8.1824  -14.6382   18.9246 N   0  0  0  0  0  0  0  0  0  0  0  0
   11.9356  -16.5295   21.4272 C   0  0  0  0  0  0  0  0  0  0  0  0
   11.9074  -17.7712   21.2446 O   0  0  0  0  0  0  0  0  0  0  0  0
   15.0630  -17.2659   25.0828 C   0  0  0  0  0  0  0  0  0  0  0  0
   14.4361  -16.2823   24.1185 C   0  0  1  0  0  0  0  0  0  0  0  0
   15.3470  -16.1043   23.0619 O   0  0  0  0  0  0  0  0  0  0  0  0
   13.1499  -16.8962   23.6176 C   0  0  2  0  0  0  0  0  0  0  0  0
   12.4994  -16.0518   22.6339 N   0  0  0  0  0  0  0  0  0  0  0  0
   12.2702  -17.1231   24.7957 C   0  0  0  0  0  0  0  0  0  0  0  0
   12.5476  -17.9869   25.6615 O   0  0  0  0  0  0  0  0  0  0  0  0
   11.0983  -16.3906   24.9961 O   0  0  0  0  0  0  0  0  0  0  0  0
  2  3  1  0
  2  1  1  6
  3  4  1  0
  4  5  2  0
  4  8  1  0
  6  7  2  0
  6  2  1  0
  9  6  1  0
 10  9  1  0
 10 11  1  6
 12 11  1  0
 12 13  2  0
 14 13  1  0
 15 16  2  0
 15 14  1  0
 16 12  1  0
 17 10  1  0
 17 23  1  0
 18 17  2  0
 20 19  1  1
 21 20  1  0
 22 20  1  0
 22 23  1  6
 24 22  1  0
 25 24  2  0
 26 24  1  0
M  END
$$$$
