DHT.pdb
     RDKit          3D

 26 26  0  0  1  0  0  0  0  0999 V2000
   11.7511  -16.6350   19.0521 N   0  0  0  0  0  0  0  0  0  0  0  0
   12.5172  -15.7497   19.8696 C   0  0  1  0  0  0  0  0  0  0  0  0
   13.0044  -14.5265   19.1322 C   0  0  0  0  0  0  0  0  0  0  0  0
   13.9847  -14.8613   18.0768 C   0  0  0  0  0  0  0  0  0  0  0  0
   13.5790  -14.9037   16.8953 O   0  0  0  0  0  0  0  0  0  0  0  0
   11.6333  -15.2373   20.9825 C   0  0  0  0  0  0  0  0  0  0  0  0
   12.0836  -14.4413   21.8392 O   0  0  0  0  0  0  0  0  0  0  0  0
   15.3100  -15.1210   18.3763 O   0  0  0  0  0  0  0  0  0  0  0  0
   10.2854  -15.6505   21.0710 N   0  0  0  0  0  0  0  0  0  0  0  0
    9.3683  -15.3187   22.1067 C   0  0  1  0  0  0  0  0  0  0  0  0
    8.0166  -14.7947   21.6457 C   0  0  0  0  0  0  0  0  0  0  0  0
    8.1183  -13.9094   20.4731 C   0  0  0  0  0  0  0  0  0  0  0  0
    7.9828  -14.0895   19.1284 C   0  0  0  0  0  0  0  0  0  0  0  0
    8.1738  -12.9114   18.4939 N   0  0  0  0  0  0  0  0  0  0  0  0
    8.4287  -11.9825   19.4120 C   0  0  0  0  0  0  0  0  0  0  0  0
    8.3963  -12.5798   20.6076 N   0  0  0  0  0  0  0  0  0  0  0  0
    9.2235  -16.3080   23.1803 C   0  0  0  0  0  0  0  0  0  0  0  0
    8.0843  -16.7904   23.3943 O   0  0  0  0  0  0  0  0  0  0  0  0
   10.1476  -19.6187   23.4259 C   0  0  0  0  0  0  0  0  0  0  0  0
   10.8715  -19.0494   24.6268 C   0  0  1  0  0  0  0  0  0  0  0  0
   12.1926  -18.7846   24.2237 O   0  0  0  0  0  0  0  0  0  0  0  0
   10.1658  -17.7720   25.0175 C   0  0  2  0  0  0  0  0  0  0  0  0
   10.2929  -16.7535   23.9927 N   0  0  0  0  0  0  0  0  0  0  0  0
   10.7481  -17.3117   26.3067 C   0  0  0  0  0  0  0  0  0  0  0  0
   11.4055  -16.2465   26.3834 O   0  0  0  0  0  0  0  0  0  0  0  0
   10.5933  -18.0375   27.4896 O   0  0  0  0  0  0  0  0  0  0  0  0
  2  3  1  0
  2  1  1  6
  3  4  1  0
  4  5  2  0
  4  8  1  0
  6  7  2  0
  6  2  1  0
  9  6  1  0
 10  9  1  0
 10 11  1  6
 12 11  1  0
 12 13  2  0
 14 13  1  0
 15 16  2  0
 15 14  1  0
 16 12  1  0
 17 10  1  0
 17 23  1  0
 18 17  2  0
 20 19  1  6
 21 20  1  0
 22 20  1  0
 22 23  1  6
 24 22  1  0
 25 24  2  0
 26 24  1  0
M  END
$$$$
