HWI.pdb
     RDKit          3D

 33 35  0  0  1  0  0  0  0  0999 V2000
   26.9821  -21.0260  -14.5680 N   0  0  0  0  0  0  0  0  0  0  0  0
   26.8407  -19.9726  -13.5983 C   0  0  1  0  0  0  0  0  0  0  0  0
   25.8468  -18.9274  -14.0237 C   0  0  0  0  0  0  0  0  0  0  0  0
   26.4422  -18.0805  -15.0585 C   0  0  0  0  0  0  0  0  0  0  0  0
   27.3332  -17.0662  -14.8751 C   0  0  0  0  0  0  0  0  0  0  0  0
   27.5948  -16.5740  -16.1147 N   0  0  0  0  0  0  0  0  0  0  0  0
   26.9111  -17.2339  -17.0409 C   0  0  0  0  0  0  0  0  0  0  0  0
   26.2025  -18.1604  -16.3907 N   0  0  0  0  0  0  0  0  0  0  0  0
   26.3843  -20.5259  -12.3213 C   0  0  0  0  0  0  0  0  0  0  0  0
   25.5603  -21.4940  -12.2631 O   0  0  0  0  0  0  0  0  0  0  0  0
   26.8696  -19.9727  -11.0943 N   0  0  0  0  0  0  0  0  0  0  0  0
   26.3867  -20.4792   -9.8346 C   0  0  1  0  0  0  0  0  0  0  0  0
   27.2445  -20.2249   -8.6642 C   0  0  0  0  0  0  0  0  0  0  0  0
   26.7393  -20.5665   -7.3457 C   0  0  0  0  0  0  0  0  0  0  0  0
   25.6482  -21.2804   -6.9036 C   0  0  0  0  0  0  0  0  0  0  0  0
   25.6357  -21.3134   -5.5401 N   0  0  0  0  0  0  0  0  0  0  0  0
   26.6966  -20.6351   -5.1211 C   0  0  0  0  0  0  0  0  0  0  0  0
   27.1367  -20.3749   -3.8197 C   0  0  0  0  0  0  0  0  0  0  0  0
   28.2858  -19.6368   -3.5916 C   0  0  0  0  0  0  0  0  0  0  0  0
   28.9940  -19.1594   -4.6582 C   0  0  0  0  0  0  0  0  0  0  0  0
   28.5468  -19.4246   -5.9290 C   0  0  0  0  0  0  0  0  0  0  0  0
   27.4066  -20.1564   -6.1889 C   0  0  0  0  0  0  0  0  0  0  0  0
   24.9491  -20.1133   -9.6268 C   0  0  0  0  0  0  0  0  0  0  0  0
   24.5616  -18.9298   -9.6690 O   0  0  0  0  0  0  0  0  0  0  0  0
   21.6336  -21.2763  -13.0469 C   0  0  0  0  0  0  0  0  0  0  0  0
   22.2879  -20.7332  -11.7907 C   0  0  0  0  0  0  0  0  0  0  0  0
   21.8843  -21.5107  -10.5629 C   0  0  2  0  0  0  0  0  0  0  0  0
   20.4001  -21.1637  -10.3377 C   0  0  0  0  0  0  0  0  0  0  0  0
   22.6159  -21.0363   -9.3070 C   0  0  2  0  0  0  0  0  0  0  0  0
   24.0401  -21.1579   -9.3779 N   0  0  0  0  0  0  0  0  0  0  0  0
   22.0296  -21.5947   -8.1013 C   0  0  0  0  0  0  0  0  0  0  0  0
   21.1062  -20.9517   -7.2953 O   0  0  0  0  0  0  0  0  0  0  0  0
   22.3505  -22.7763   -7.6927 O   0  0  0  0  0  0  0  0  0  0  0  0
  2  1  1  6
  2  3  1  0
  3  4  1  0
  4  8  1  0
  4  5  2  0
  5  6  1  0
  7  6  1  0
  8  7  2  0
  9  2  1  0
 10  9  2  0
 11  9  1  0
 12 13  1  1
 12 11  1  0
 13 14  1  0
 14 22  1  0
 14 15  2  0
 15 16  1  0
 17 16  1  0
 17 18  2  0
 19 18  1  0
 20 19  2  0
 21 22  2  0
 21 20  1  0
 22 17  1  0
 23 12  1  0
 24 23  2  0
 26 25  1  0
 27 26  1  0
 27 29  1  0
 27 28  1  1
 29 30  1  6
 30 23  1  0
 31 32  1  0
 31 29  1  0
 33 31  2  0
M  END
$$$$
