HWI.pdb
     RDKit          3D

 33 35  0  0  1  0  0  0  0  0999 V2000
   27.9867  -21.6436  -15.0775 N   0  0  0  0  0  0  0  0  0  0  0  0
   27.8601  -20.5069  -14.2047 C   0  0  1  0  0  0  0  0  0  0  0  0
   27.1423  -19.3572  -14.8561 C   0  0  0  0  0  0  0  0  0  0  0  0
   27.9978  -18.7702  -15.8887 C   0  0  0  0  0  0  0  0  0  0  0  0
   27.8994  -18.9520  -17.2354 C   0  0  0  0  0  0  0  0  0  0  0  0
   28.9026  -18.2165  -17.7830 N   0  0  0  0  0  0  0  0  0  0  0  0
   29.6050  -17.5980  -16.8422 C   0  0  0  0  0  0  0  0  0  0  0  0
   29.0479  -17.9390  -15.6774 N   0  0  0  0  0  0  0  0  0  0  0  0
   27.1064  -20.8787  -13.0050 C   0  0  0  0  0  0  0  0  0  0  0  0
   26.0363  -21.5644  -13.0679 O   0  0  0  0  0  0  0  0  0  0  0  0
   27.5739  -20.4661  -11.7172 N   0  0  0  0  0  0  0  0  0  0  0  0
   26.8030  -20.7721  -10.5388 C   0  0  1  0  0  0  0  0  0  0  0  0
   27.5105  -20.6455   -9.2528 C   0  0  0  0  0  0  0  0  0  0  0  0
   26.7471  -20.7794   -8.0242 C   0  0  0  0  0  0  0  0  0  0  0  0
   25.5133  -21.3134   -7.7274 C   0  0  0  0  0  0  0  0  0  0  0  0
   25.2634  -21.1924   -6.3921 N   0  0  0  0  0  0  0  0  0  0  0  0
   26.3157  -20.5940   -5.8482 C   0  0  0  0  0  0  0  0  0  0  0  0
   26.5563  -20.2408   -4.5169 C   0  0  0  0  0  0  0  0  0  0  0  0
   27.7352  -19.6144   -4.1491 C   0  0  0  0  0  0  0  0  0  0  0  0
   28.6714  -19.3409   -5.1061 C   0  0  0  0  0  0  0  0  0  0  0  0
   28.4178  -19.6949   -6.4084 C   0  0  0  0  0  0  0  0  0  0  0  0
   27.2539  -20.3196   -6.8062 C   0  0  0  0  0  0  0  0  0  0  0  0
   25.4751  -20.0796  -10.5737 C   0  0  0  0  0  0  0  0  0  0  0  0
   25.3787  -18.8419  -10.4668 O   0  0  0  0  0  0  0  0  0  0  0  0
   22.9756  -20.3487  -14.8619 C   0  0  0  0  0  0  0  0  0  0  0  0
   23.3177  -19.9167  -13.4487 C   0  0  0  0  0  0  0  0  0  0  0  0
   22.5148  -20.6704  -12.4181 C   0  0  2  0  0  0  0  0  0  0  0  0
   21.0985  -20.0683  -12.4933 C   0  0  0  0  0  0  0  0  0  0  0  0
   23.0022  -20.4063  -10.9933 C   0  0  2  0  0  0  0  0  0  0  0  0
   24.3276  -20.8783  -10.7309 N   0  0  0  0  0  0  0  0  0  0  0  0
   22.0185  -20.8133  -10.0055 C   0  0  0  0  0  0  0  0  0  0  0  0
   22.1898  -21.8352   -9.0876 O   0  0  0  0  0  0  0  0  0  0  0  0
   20.8755  -20.2193   -9.9226 O   0  0  0  0  0  0  0  0  0  0  0  0
  2  1  1  6
  2  3  1  0
  3  4  1  0
  4  8  1  0
  4  5  2  0
  5  6  1  0
  7  6  1  0
  8  7  2  0
  9  2  1  0
 10  9  2  0
 11  9  1  0
 12 13  1  1
 12 11  1  0
 13 14  1  0
 14 22  1  0
 14 15  2  0
 15 16  1  0
 17 16  1  0
 17 18  2  0
 19 18  1  0
 20 19  2  0
 21 22  2  0
 21 20  1  0
 22 17  1  0
 23 12  1  0
 24 23  2  0
 26 25  1  0
 27 26  1  0
 27 29  1  0
 27 28  1  1
 29 30  1  1
 30 23  1  0
 31 32  1  0
 31 29  1  0
 33 31  2  0
M  END
$$$$
