HWI.pdb
     RDKit          3D

 33 35  0  0  1  0  0  0  0  0999 V2000
-17053184.0000-3606821.250013297567.0000 N   0  0  0  0  0  0  0  0  0  0  0  0
-17053184.0000-3606819.750013297567.0000 C   0  0  2  0  0  0  0  0  0  0  0  0
-17053184.0000-3606818.750013297568.0000 C   0  0  0  0  0  0  0  0  0  0  0  0
-17053182.0000-3606818.250013297567.0000 C   0  0  0  0  0  0  0  0  0  0  0  0
-17053182.0000-3606817.250013297565.0000 C   0  0  0  0  0  0  0  0  0  0  0  0
-17053180.0000-3606816.750013297564.0000 N   0  0  0  0  0  0  0  0  0  0  0  0
-17053180.0000-3606818.250013297566.0000 C   0  0  0  0  0  0  0  0  0  0  0  0
-17053182.0000-3606818.750013297567.0000 N   0  0  0  0  0  0  0  0  0  0  0  0
-17053186.0000-3606819.250013297565.0000 C   0  0  0  0  0  0  0  0  0  0  0  0
-17053186.0000-3606820.250013297565.0000 O   0  0  0  0  0  0  0  0  0  0  0  0
-17053186.0000-3606818.250013297564.0000 N   0  0  0  0  0  0  0  0  0  0  0  0
-17053186.0000-3606816.750013297566.0000 C   0  0  1  0  0  0  0  0  0  0  0  0
-17053188.0000-3606816.750013297564.0000 C   0  0  0  0  0  0  0  0  0  0  0  0
-17053188.0000-3606815.750013297565.0000 C   0  0  0  0  0  0  0  0  0  0  0  0
-17053188.0000-3606815.250013297564.0000 C   0  0  0  0  0  0  0  0  0  0  0  0
-17053188.0000-3606813.750013297563.0000 N   0  0  0  0  0  0  0  0  0  0  0  0
-17053188.0000-3606813.250013297564.0000 C   0  0  0  0  0  0  0  0  0  0  0  0
-17053188.0000-3606812.250013297564.0000 C   0  0  0  0  0  0  0  0  0  0  0  0
-17053186.0000-3606812.250013297563.0000 C   0  0  0  0  0  0  0  0  0  0  0  0
-17053186.0000-3606813.250013297564.0000 C   0  0  0  0  0  0  0  0  0  0  0  0
-17053186.0000-3606813.750013297564.0000 C   0  0  0  0  0  0  0  0  0  0  0  0
-17053188.0000-3606814.250013297564.0000 C   0  0  0  0  0  0  0  0  0  0  0  0
-17053186.0000-3606817.250013297567.0000 C   0  0  0  0  0  0  0  0  0  0  0  0
-17053184.0000-3606817.750013297568.0000 O   0  0  0  0  0  0  0  0  0  0  0  0
-17053190.0000-3606815.250013297569.0000 C   0  0  0  0  0  0  0  0  0  0  0  0
-17053188.0000-3606814.750013297568.0000 C   0  0  0  0  0  0  0  0  0  0  0  0
-17053188.0000-3606815.250013297570.0000 C   0  0  2  0  0  0  0  0  0  0  0  0
-17053186.0000-3606815.250013297570.0000 C   0  0  0  0  0  0  0  0  0  0  0  0
-17053188.0000-3606816.750013297569.0000 C   0  0  0  0  0  0  0  0  0  0  0  0
-17053188.0000-3606817.250013297567.0000 N   0  0  0  0  0  0  0  0  0  0  0  0
-17053188.0000-3606817.250013297569.0000 C   0  0  0  0  0  0  0  0  0  0  0  0
-17053190.0000-3606816.750013297570.0000 O   0  0  0  0  0  0  0  0  0  0  0  0
-17053190.0000-3606817.750013297568.0000 O   0  0  0  0  0  0  0  0  0  0  0  0
  2  1  1  6
  2  3  1  0
  3  4  1  0
  4  8  1  0
  4  5  2  0
  5  6  1  0
  7  6  1  0
  8  7  2  0
  9  2  1  0
 10  9  2  0
 11  9  1  0
 12 13  1  6
 12 11  1  0
 13 14  1  0
 14 22  1  0
 14 15  2  0
 15 16  1  0
 17 16  1  0
 17 18  2  0
 19 18  1  0
 20 19  2  0
 21 22  2  0
 21 20  1  0
 22 17  1  0
 23 12  1  0
 24 23  2  0
 26 25  1  0
 27 26  1  0
 27 29  1  0
 27 28  1  1
 29 30  1  1
 30 23  1  0
 31 32  1  0
 31 29  1  0
 33 31  2  0
M  END
$$$$
