HWI.pdb
     RDKit          3D

 33 35  0  0  1  0  0  0  0  0999 V2000
   27.7636  -19.7163  -17.7699 N   0  0  0  0  0  0  0  0  0  0  0  0
   26.5963  -19.7273  -16.9289 C   0  0  1  0  0  0  0  0  0  0  0  0
   25.4569  -20.4994  -17.5346 C   0  0  0  0  0  0  0  0  0  0  0  0
   25.0478  -19.8627  -18.7875 C   0  0  0  0  0  0  0  0  0  0  0  0
   24.4312  -20.4584  -19.8465 C   0  0  0  0  0  0  0  0  0  0  0  0
   24.2548  -19.4787  -20.7718 N   0  0  0  0  0  0  0  0  0  0  0  0
   24.7307  -18.3204  -20.3326 C   0  0  0  0  0  0  0  0  0  0  0  0
   25.2183  -18.5573  -19.1122 N   0  0  0  0  0  0  0  0  0  0  0  0
   26.9147  -20.3439  -15.6390 C   0  0  0  0  0  0  0  0  0  0  0  0
   26.3739  -21.4322  -15.2613 O   0  0  0  0  0  0  0  0  0  0  0  0
   27.8593  -19.7165  -14.7665 N   0  0  0  0  0  0  0  0  0  0  0  0
   28.0615  -20.2292  -13.4351 C   0  0  1  0  0  0  0  0  0  0  0  0
   29.4110  -20.0507  -12.8717 C   0  0  0  0  0  0  0  0  0  0  0  0
   29.9968  -21.1423  -12.1132 C   0  0  0  0  0  0  0  0  0  0  0  0
   30.2490  -22.4660  -12.3961 C   0  0  0  0  0  0  0  0  0  0  0  0
   30.8327  -23.0681  -11.3205 N   0  0  0  0  0  0  0  0  0  0  0  0
   30.9508  -22.1481  -10.3714 C   0  0  0  0  0  0  0  0  0  0  0  0
   31.4824  -22.2540   -9.0825 C   0  0  0  0  0  0  0  0  0  0  0  0
   31.5143  -21.1601   -8.2342 C   0  0  0  0  0  0  0  0  0  0  0  0
   31.0174  -19.9641   -8.6698 C   0  0  0  0  0  0  0  0  0  0  0  0
   30.4991  -19.8789   -9.9385 C   0  0  0  0  0  0  0  0  0  0  0  0
   30.4531  -20.9497  -10.8069 C   0  0  0  0  0  0  0  0  0  0  0  0
   26.9577  -19.7933  -12.5209 C   0  0  0  0  0  0  0  0  0  0  0  0
   26.5737  -18.6087  -12.4758 O   0  0  0  0  0  0  0  0  0  0  0  0
   22.2183  -21.1166  -12.9825 C   0  0  0  0  0  0  0  0  0  0  0  0
   23.5079  -20.4868  -12.4912 C   0  0  0  0  0  0  0  0  0  0  0  0
   23.9532  -21.0680  -11.1725 C   0  0  2  0  0  0  0  0  0  0  0  0
   22.9563  -20.5184  -10.1342 C   0  0  0  0  0  0  0  0  0  0  0  0
   25.3263  -20.5511  -10.7427 C   0  0  2  0  0  0  0  0  0  0  0  0
   26.3628  -20.7725  -11.7045 N   0  0  0  0  0  0  0  0  0  0  0  0
   25.6627  -20.9777   -9.3957 C   0  0  0  0  0  0  0  0  0  0  0  0
   25.3952  -20.2578   -8.2441 O   0  0  0  0  0  0  0  0  0  0  0  0
   26.2578  -22.1034   -9.1849 O   0  0  0  0  0  0  0  0  0  0  0  0
  2  1  1  6
  2  3  1  0
  3  4  1  0
  4  8  1  0
  4  5  2  0
  5  6  1  0
  7  6  1  0
  8  7  2  0
  9  2  1  0
 10  9  2  0
 11  9  1  0
 12 13  1  1
 12 11  1  0
 13 14  1  0
 14 22  1  0
 14 15  2  0
 15 16  1  0
 17 16  1  0
 17 18  2  0
 19 18  1  0
 20 19  2  0
 21 22  2  0
 21 20  1  0
 22 17  1  0
 23 12  1  0
 24 23  2  0
 26 25  1  0
 27 26  1  0
 27 29  1  0
 27 28  1  1
 29 30  1  6
 30 23  1  0
 31 32  1  0
 31 29  1  0
 33 31  2  0
M  END
$$$$
