HWI.pdb
     RDKit          3D

 33 35  0  0  1  0  0  0  0  0999 V2000
   28.4052  -21.3395  -14.8960 N   0  0  0  0  0  0  0  0  0  0  0  0
   28.1615  -20.4938  -13.7579 C   0  0  1  0  0  0  0  0  0  0  0  0
   27.4567  -19.2182  -14.1282 C   0  0  0  0  0  0  0  0  0  0  0  0
   28.2897  -18.4525  -15.0570 C   0  0  0  0  0  0  0  0  0  0  0  0
   28.2346  -18.4768  -16.4182 C   0  0  0  0  0  0  0  0  0  0  0  0
   29.1933  -17.6124  -16.8434 N   0  0  0  0  0  0  0  0  0  0  0  0
   29.8278  -17.0645  -15.8147 C   0  0  0  0  0  0  0  0  0  0  0  0
   29.2715  -17.5817  -14.7163 N   0  0  0  0  0  0  0  0  0  0  0  0
   27.3249  -21.1965  -12.7823 C   0  0  0  0  0  0  0  0  0  0  0  0
   26.6269  -22.2116  -13.1013 O   0  0  0  0  0  0  0  0  0  0  0  0
   27.2801  -20.7404  -11.4270 N   0  0  0  0  0  0  0  0  0  0  0  0
   26.3591  -21.3400  -10.4950 C   0  0  1  0  0  0  0  0  0  0  0  0
   26.8858  -21.6033   -9.1445 C   0  0  0  0  0  0  0  0  0  0  0  0
   26.9780  -20.4973   -8.2073 C   0  0  0  0  0  0  0  0  0  0  0  0
   26.5544  -19.1876   -8.2408 C   0  0  0  0  0  0  0  0  0  0  0  0
   26.8904  -18.5605   -7.0772 N   0  0  0  0  0  0  0  0  0  0  0  0
   27.5150  -19.4512   -6.3171 C   0  0  0  0  0  0  0  0  0  0  0  0
   28.0564  -19.3124   -5.0355 C   0  0  0  0  0  0  0  0  0  0  0  0
   28.6756  -20.3787   -4.4056 C   0  0  0  0  0  0  0  0  0  0  0  0
   28.7548  -21.5800   -5.0517 C   0  0  0  0  0  0  0  0  0  0  0  0
   28.2176  -21.6978   -6.3099 C   0  0  0  0  0  0  0  0  0  0  0  0
   27.5948  -20.6549   -6.9638 C   0  0  0  0  0  0  0  0  0  0  0  0
   25.0440  -20.6229  -10.5063 C   0  0  0  0  0  0  0  0  0  0  0  0
   24.9495  -19.4227  -10.1849 O   0  0  0  0  0  0  0  0  0  0  0  0
   23.2277  -20.7373  -15.1766 C   0  0  0  0  0  0  0  0  0  0  0  0
   23.4191  -20.3755  -13.7160 C   0  0  0  0  0  0  0  0  0  0  0  0
   22.3862  -21.0293  -12.8324 C   0  0  2  0  0  0  0  0  0  0  0  0
   21.0724  -20.2809  -13.1289 C   0  0  0  0  0  0  0  0  0  0  0  0
   22.6650  -20.8041  -11.3462 C   0  0  2  0  0  0  0  0  0  0  0  0
   23.9062  -21.3543  -10.8933 N   0  0  0  0  0  0  0  0  0  0  0  0
   21.5209  -21.1603  -10.5256 C   0  0  0  0  0  0  0  0  0  0  0  0
   20.5728  -20.2689  -10.0540 O   0  0  0  0  0  0  0  0  0  0  0  0
   21.3125  -22.3841  -10.1722 O   0  0  0  0  0  0  0  0  0  0  0  0
  2  1  1  6
  2  3  1  0
  3  4  1  0
  4  8  1  0
  4  5  2  0
  5  6  1  0
  7  6  1  0
  8  7  2  0
  9  2  1  0
 10  9  2  0
 11  9  1  0
 12 13  1  1
 12 11  1  0
 13 14  1  0
 14 22  1  0
 14 15  2  0
 15 16  1  0
 17 16  1  0
 17 18  2  0
 19 18  1  0
 20 19  2  0
 21 22  2  0
 21 20  1  0
 22 17  1  0
 23 12  1  0
 24 23  2  0
 26 25  1  0
 27 26  1  0
 27 29  1  0
 27 28  1  6
 29 30  1  1
 30 23  1  0
 31 32  1  0
 31 29  1  0
 33 31  2  0
M  END
$$$$
