HWI.pdb
     RDKit          3D

 33 35  0  0  1  0  0  0  0  0999 V2000
   27.7331  -20.4836  -17.3808 N   0  0  0  0  0  0  0  0  0  0  0  0
   27.6620  -19.5945  -16.2519 C   0  0  1  0  0  0  0  0  0  0  0  0
   27.1102  -18.2439  -16.6161 C   0  0  0  0  0  0  0  0  0  0  0  0
   28.0479  -17.5576  -17.5061 C   0  0  0  0  0  0  0  0  0  0  0  0
   29.3119  -17.1470  -17.2058 C   0  0  0  0  0  0  0  0  0  0  0  0
   29.7896  -16.5613  -18.3353 N   0  0  0  0  0  0  0  0  0  0  0  0
   28.8846  -16.5936  -19.3053 C   0  0  0  0  0  0  0  0  0  0  0  0
   27.8137  -17.2065  -18.7947 N   0  0  0  0  0  0  0  0  0  0  0  0
   26.7942  -20.1653  -15.2192 C   0  0  0  0  0  0  0  0  0  0  0  0
   25.6659  -20.6831  -15.4988 O   0  0  0  0  0  0  0  0  0  0  0  0
   27.2129  -20.1475  -13.8512 N   0  0  0  0  0  0  0  0  0  0  0  0
   26.3634  -20.7065  -12.8303 C   0  0  1  0  0  0  0  0  0  0  0  0
   26.9847  -20.9039  -11.5091 C   0  0  0  0  0  0  0  0  0  0  0  0
   26.1217  -21.1323  -10.3632 C   0  0  0  0  0  0  0  0  0  0  0  0
   25.0291  -21.9410  -10.1446 C   0  0  0  0  0  0  0  0  0  0  0  0
   24.5823  -21.7830   -8.8657 N   0  0  0  0  0  0  0  0  0  0  0  0
   25.3732  -20.8925   -8.2804 C   0  0  0  0  0  0  0  0  0  0  0  0
   25.3409  -20.3850   -6.9780 C   0  0  0  0  0  0  0  0  0  0  0  0
   26.2698  -19.4489   -6.5561 C   0  0  0  0  0  0  0  0  0  0  0  0
   27.2283  -19.0201   -7.4304 C   0  0  0  0  0  0  0  0  0  0  0  0
   27.2446  -19.5294   -8.7055 C   0  0  0  0  0  0  0  0  0  0  0  0
   26.3336  -20.4624   -9.1557 C   0  0  0  0  0  0  0  0  0  0  0  0
   25.0454  -19.9961  -12.7832 C   0  0  0  0  0  0  0  0  0  0  0  0
   24.9728  -18.7544  -12.7087 O   0  0  0  0  0  0  0  0  0  0  0  0
   22.0623  -19.6872  -16.6495 C   0  0  0  0  0  0  0  0  0  0  0  0
   22.6393  -19.5280  -15.2557 C   0  0  0  0  0  0  0  0  0  0  0  0
   21.8820  -20.3404  -14.2352 C   0  0  2  0  0  0  0  0  0  0  0  0
   20.5251  -19.6270  -14.0805 C   0  0  0  0  0  0  0  0  0  0  0  0
   22.5346  -20.2936  -12.8534 C   0  0  2  0  0  0  0  0  0  0  0  0
   23.8795  -20.7823  -12.8241 N   0  0  0  0  0  0  0  0  0  0  0  0
   21.6718  -20.8625  -11.8330 C   0  0  0  0  0  0  0  0  0  0  0  0
   21.0019  -20.1363  -10.8635 O   0  0  0  0  0  0  0  0  0  0  0  0
   21.4709  -22.1359  -11.7676 O   0  0  0  0  0  0  0  0  0  0  0  0
  2  1  1  6
  2  3  1  0
  3  4  1  0
  4  8  1  0
  4  5  2  0
  5  6  1  0
  7  6  1  0
  8  7  2  0
  9  2  1  0
 10  9  2  0
 11  9  1  0
 12 13  1  1
 12 11  1  0
 13 14  1  0
 14 22  1  0
 14 15  2  0
 15 16  1  0
 17 16  1  0
 17 18  2  0
 19 18  1  0
 20 19  2  0
 21 22  2  0
 21 20  1  0
 22 17  1  0
 23 12  1  0
 24 23  2  0
 26 25  1  0
 27 26  1  0
 27 29  1  0
 27 28  1  1
 29 30  1  6
 30 23  1  0
 31 32  1  0
 31 29  1  0
 33 31  2  0
M  END
$$$$
