HWI.pdb
     RDKit          3D

 33 35  0  0  1  0  0  0  0  0999 V2000
   23.7580  -17.4159  -17.6513 N   0  0  0  0  0  0  0  0  0  0  0  0
   24.0031  -17.2197  -16.2473 C   0  0  1  0  0  0  0  0  0  0  0  0
   22.7351  -17.0257  -15.4626 C   0  0  0  0  0  0  0  0  0  0  0  0
   22.1237  -15.7480  -15.8316 C   0  0  0  0  0  0  0  0  0  0  0  0
   22.6191  -14.8230  -16.7008 C   0  0  0  0  0  0  0  0  0  0  0  0
   21.7138  -13.8094  -16.7190 N   0  0  0  0  0  0  0  0  0  0  0  0
   20.6956  -14.0683  -15.9083 C   0  0  0  0  0  0  0  0  0  0  0  0
   20.9484  -15.2608  -15.3628 N   0  0  0  0  0  0  0  0  0  0  0  0
   24.6950  -18.3853  -15.6924 C   0  0  0  0  0  0  0  0  0  0  0  0
   24.2273  -19.5633  -15.8067 O   0  0  0  0  0  0  0  0  0  0  0  0
   25.9340  -18.2111  -14.9983 N   0  0  0  0  0  0  0  0  0  0  0  0
   26.6092  -19.3512  -14.4321 C   0  0  1  0  0  0  0  0  0  0  0  0
   28.0497  -19.4589  -14.7219 C   0  0  0  0  0  0  0  0  0  0  0  0
   28.7553  -20.6564  -14.2997 C   0  0  0  0  0  0  0  0  0  0  0  0
   28.8151  -21.9432  -14.7855 C   0  0  0  0  0  0  0  0  0  0  0  0
   29.6490  -22.6944  -14.0105 N   0  0  0  0  0  0  0  0  0  0  0  0
   30.1118  -21.9034  -13.0506 C   0  0  0  0  0  0  0  0  0  0  0  0
   30.9958  -22.1868  -12.0050 C   0  0  0  0  0  0  0  0  0  0  0  0
   31.3589  -21.2079  -11.0956 C   0  0  0  0  0  0  0  0  0  0  0  0
   30.8421  -19.9500  -11.2283 C   0  0  0  0  0  0  0  0  0  0  0  0
   29.9753  -19.6901  -12.2611 C   0  0  0  0  0  0  0  0  0  0  0  0
   29.5944  -20.6432  -13.1828 C   0  0  0  0  0  0  0  0  0  0  0  0
   26.2665  -19.5102  -12.9825 C   0  0  0  0  0  0  0  0  0  0  0  0
   26.7648  -18.7766  -12.1072 O   0  0  0  0  0  0  0  0  0  0  0  0
   26.0118  -20.8455   -7.6974 C   0  0  0  0  0  0  0  0  0  0  0  0
   25.8332  -21.5877   -9.0082 C   0  0  0  0  0  0  0  0  0  0  0  0
   25.6565  -20.6441  -10.1716 C   0  0  2  0  0  0  0  0  0  0  0  0
   24.3343  -19.9043   -9.8914 C   0  0  0  0  0  0  0  0  0  0  0  0
   25.4459  -21.3829  -11.4934 C   0  0  2  0  0  0  0  0  0  0  0  0
   25.3562  -20.5253  -12.6357 N   0  0  0  0  0  0  0  0  0  0  0  0
   24.3763  -22.3606  -11.3972 C   0  0  0  0  0  0  0  0  0  0  0  0
   24.4603  -23.5667  -10.7231 O   0  0  0  0  0  0  0  0  0  0  0  0
   23.2337  -22.1524  -11.9603 O   0  0  0  0  0  0  0  0  0  0  0  0
  2  1  1  6
  2  3  1  0
  3  4  1  0
  4  8  1  0
  4  5  2  0
  5  6  1  0
  7  6  1  0
  8  7  2  0
  9  2  1  0
 10  9  2  0
 11  9  1  0
 12 13  1  1
 12 11  1  0
 13 14  1  0
 14 22  1  0
 14 15  2  0
 15 16  1  0
 17 16  1  0
 17 18  2  0
 19 18  1  0
 20 19  2  0
 21 22  2  0
 21 20  1  0
 22 17  1  0
 23 12  1  0
 24 23  2  0
 26 25  1  0
 27 26  1  0
 27 29  1  0
 27 28  1  1
 29 30  1  6
 30 23  1  0
 31 32  1  0
 31 29  1  0
 33 31  2  0
M  END
$$$$
