HWI.pdb
     RDKit          3D

 33 35  0  0  1  0  0  0  0  0999 V2000
   29.0360  -23.5752  -16.9355 N   0  0  0  0  0  0  0  0  0  0  0  0
   28.5053  -22.2512  -16.7473 C   0  0  1  0  0  0  0  0  0  0  0  0
   27.6787  -21.7903  -17.9158 C   0  0  0  0  0  0  0  0  0  0  0  0
   28.5342  -21.0821  -18.8694 C   0  0  0  0  0  0  0  0  0  0  0  0
   29.5664  -21.6042  -19.5893 C   0  0  0  0  0  0  0  0  0  0  0  0
   30.0601  -20.5760  -20.3285 N   0  0  0  0  0  0  0  0  0  0  0  0
   29.3841  -19.4579  -20.0967 C   0  0  0  0  0  0  0  0  0  0  0  0
   28.4457  -19.7698  -19.1992 N   0  0  0  0  0  0  0  0  0  0  0  0
   27.6506  -22.2190  -15.5583 C   0  0  0  0  0  0  0  0  0  0  0  0
   26.8126  -23.1430  -15.3064 O   0  0  0  0  0  0  0  0  0  0  0  0
   27.7484  -21.1231  -14.6436 N   0  0  0  0  0  0  0  0  0  0  0  0
   26.9372  -21.1039  -13.4528 C   0  0  1  0  0  0  0  0  0  0  0  0
   27.5323  -20.4473  -12.2759 C   0  0  0  0  0  0  0  0  0  0  0  0
   26.7731  -20.4205  -11.0377 C   0  0  0  0  0  0  0  0  0  0  0  0
   25.4590  -20.1410  -10.7366 C   0  0  0  0  0  0  0  0  0  0  0  0
   25.2520  -20.2705   -9.3947 N   0  0  0  0  0  0  0  0  0  0  0  0
   26.4094  -20.6253   -8.8511 C   0  0  0  0  0  0  0  0  0  0  0  0
   26.7297  -20.8830   -7.5147 C   0  0  0  0  0  0  0  0  0  0  0  0
   28.0148  -21.2458   -7.1485 C   0  0  0  0  0  0  0  0  0  0  0  0
   28.9779  -21.3512   -8.1120 C   0  0  0  0  0  0  0  0  0  0  0  0
   28.6451  -21.0942   -9.4192 C   0  0  0  0  0  0  0  0  0  0  0  0
   27.3747  -20.7310   -9.8157 C   0  0  0  0  0  0  0  0  0  0  0  0
   25.5433  -20.6510  -13.7626 C   0  0  0  0  0  0  0  0  0  0  0  0
   25.3206  -19.5933  -14.3825 O   0  0  0  0  0  0  0  0  0  0  0  0
   22.4725  -23.1344  -16.8005 C   0  0  0  0  0  0  0  0  0  0  0  0
   23.0015  -22.0489  -15.8824 C   0  0  0  0  0  0  0  0  0  0  0  0
   22.3974  -22.1326  -14.5029 C   0  0  2  0  0  0  0  0  0  0  0  0
   20.9634  -21.5909  -14.6588 C   0  0  0  0  0  0  0  0  0  0  0  0
   23.0871  -21.1990  -13.5079 C   0  0  2  0  0  0  0  0  0  0  0  0
   24.4817  -21.4643  -13.3258 N   0  0  0  0  0  0  0  0  0  0  0  0
   22.3360  -21.0845  -12.2701 C   0  0  0  0  0  0  0  0  0  0  0  0
   22.3361  -22.0212  -11.2510 O   0  0  0  0  0  0  0  0  0  0  0  0
   21.5908  -20.0564  -12.0383 O   0  0  0  0  0  0  0  0  0  0  0  0
  2  1  1  6
  2  3  1  0
  3  4  1  0
  4  8  1  0
  4  5  2  0
  5  6  1  0
  7  6  1  0
  8  7  2  0
  9  2  1  0
 10  9  2  0
 11  9  1  0
 12 13  1  1
 12 11  1  0
 13 14  1  0
 14 22  1  0
 14 15  2  0
 15 16  1  0
 17 16  1  0
 17 18  2  0
 19 18  1  0
 20 19  2  0
 21 22  2  0
 21 20  1  0
 22 17  1  0
 23 12  1  0
 24 23  2  0
 26 25  1  0
 27 26  1  0
 27 29  1  0
 27 28  1  6
 29 30  1  1
 30 23  1  0
 31 32  1  0
 31 29  1  0
 33 31  2  0
M  END
$$$$
