FSS.pdb
     RDKit          3D

 24 24  0  0  1  0  0  0  0  0999 V2000
    6.6001  -16.6699   25.8288 N   0  0  0  0  0  0  0  0  0  0  0  0
    7.0060  -15.6842   24.8760 C   0  0  1  0  0  0  0  0  0  0  0  0
    8.0843  -14.8055   25.4577 C   0  0  0  0  0  0  0  0  0  0  0  0
    7.3934  -13.6682   26.1546 C   0  0  0  0  0  0  0  0  0  0  0  0
    6.1531  -13.2273   25.6996 C   0  0  0  0  0  0  0  0  0  0  0  0
    5.5202  -12.1849   26.3307 C   0  0  0  0  0  0  0  0  0  0  0  0
    6.0676  -11.5429   27.4151 C   0  0  0  0  0  0  0  0  0  0  0  0
    7.3069  -11.9728   27.8811 C   0  0  0  0  0  0  0  0  0  0  0  0
    7.9348  -13.0210   27.2403 C   0  0  0  0  0  0  0  0  0  0  0  0
    7.3848  -16.2380   23.5595 C   0  0  0  0  0  0  0  0  0  0  0  0
    7.7617  -17.4486   23.4350 O   0  0  0  0  0  0  0  0  0  0  0  0
    8.2795  -14.0197   19.9329 O   0  0  0  0  0  0  0  0  0  0  0  0
    7.4652  -15.1333   19.9164 C   0  0  0  0  0  0  0  0  0  0  0  0
    7.7688  -16.0729   21.0776 C   0  0  2  0  0  0  0  0  0  0  0  0
    7.3639  -15.4894   22.3381 N   0  0  0  0  0  0  0  0  0  0  0  0
    9.2168  -16.3562   21.0300 C   0  0  0  0  0  0  0  0  0  0  0  0
    9.9928  -15.9319   21.9560 O   0  0  0  0  0  0  0  0  0  0  0  0
   10.6511  -19.5532   21.0785 O   0  0  0  0  0  0  0  0  0  0  0  0
   11.4602  -18.4240   21.3035 C   0  0  0  0  0  0  0  0  0  0  0  0
   11.2338  -17.5332   20.0809 C   0  0  2  0  0  0  0  0  0  0  0  0
    9.8632  -17.0934   20.0011 N   0  0  0  0  0  0  0  0  0  0  0  0
   11.6904  -18.2377   18.8829 C   0  0  0  0  0  0  0  0  0  0  0  0
   10.9047  -18.4374   17.9338 O   0  0  0  0  0  0  0  0  0  0  0  0
   12.9885  -18.6948   18.7729 O   0  0  0  0  0  0  0  0  0  0  0  0
  2  1  1  1
  2  3  1  0
  4  3  1  0
  5  4  2  0
  6  5  1  0
  7  6  2  0
  7  8  1  0
  8  9  2  0
  9  4  1  0
 10  2  1  0
 10 11  2  0
 12 13  1  0
 14 13  1  6
 14 15  1  0
 15 10  1  0
 16 14  1  0
 17 16  2  0
 18 19  1  0
 20 19  1  1
 20 21  1  0
 20 22  1  0
 21 16  1  0
 22 23  2  0
 22 24  1  0
M  END
$$$$
