FSS.pdb
     RDKit          3D

 24 24  0  0  1  0  0  0  0  0999 V2000
    8.5901  -13.4808   24.0226 N   0  0  0  0  0  0  0  0  0  0  0  0
    7.9610  -14.7648   24.0192 C   0  0  1  0  0  0  0  0  0  0  0  0
    6.7027  -14.7343   24.8493 C   0  0  0  0  0  0  0  0  0  0  0  0
    6.9007  -13.6846   25.9056 C   0  0  0  0  0  0  0  0  0  0  0  0
    8.0845  -13.6537   26.6388 C   0  0  0  0  0  0  0  0  0  0  0  0
    8.2677  -12.6989   27.6084 C   0  0  0  0  0  0  0  0  0  0  0  0
    7.3146  -11.7516   27.8944 C   0  0  0  0  0  0  0  0  0  0  0  0
    6.1262  -11.7702   27.1697 C   0  0  0  0  0  0  0  0  0  0  0  0
    5.9516  -12.7334   26.1973 C   0  0  0  0  0  0  0  0  0  0  0  0
    7.7276  -15.3184   22.6693 C   0  0  0  0  0  0  0  0  0  0  0  0
    7.2112  -16.4719   22.5078 O   0  0  0  0  0  0  0  0  0  0  0  0
    8.8003  -13.3460   19.0191 O   0  0  0  0  0  0  0  0  0  0  0  0
    7.7035  -14.1812   19.0706 C   0  0  0  0  0  0  0  0  0  0  0  0
    7.8502  -15.2407   20.1566 C   0  0  2  0  0  0  0  0  0  0  0  0
    8.0494  -14.6317   21.4537 N   0  0  0  0  0  0  0  0  0  0  0  0
    8.9818  -16.1025   19.7617 C   0  0  0  0  0  0  0  0  0  0  0  0
   10.1770  -15.8081   20.1147 O   0  0  0  0  0  0  0  0  0  0  0  0
    9.0414  -19.9536   19.6658 O   0  0  0  0  0  0  0  0  0  0  0  0
    9.5743  -19.5673   18.4220 C   0  0  0  0  0  0  0  0  0  0  0  0
    9.9892  -18.1075   18.6128 C   0  0  2  0  0  0  0  0  0  0  0  0
    8.8634  -17.2888   18.9880 N   0  0  0  0  0  0  0  0  0  0  0  0
   10.6723  -17.6414   17.4061 C   0  0  0  0  0  0  0  0  0  0  0  0
   11.7270  -18.1920   17.0289 O   0  0  0  0  0  0  0  0  0  0  0  0
   10.1727  -16.5916   16.6615 O   0  0  0  0  0  0  0  0  0  0  0  0
  2  1  1  6
  2  3  1  0
  4  3  1  0
  5  4  2  0
  6  5  1  0
  7  6  2  0
  7  8  1  0
  8  9  2  0
  9  4  1  0
 10  2  1  0
 10 11  2  0
 12 13  1  0
 14 13  1  6
 14 15  1  0
 15 10  1  0
 16 14  1  0
 17 16  2  0
 18 19  1  0
 20 19  1  6
 20 21  1  0
 20 22  1  0
 21 16  1  0
 22 23  2  0
 22 24  1  0
M  END
$$$$
