FSS.pdb
     RDKit          3D

 24 24  0  0  1  0  0  0  0  0999 V2000
    6.4610  -17.8794   20.4058 N   0  0  0  0  0  0  0  0  0  0  0  0
    7.4875  -17.0638   20.9762 C   0  0  1  0  0  0  0  0  0  0  0  0
    6.8932  -16.0773   21.9494 C   0  0  0  0  0  0  0  0  0  0  0  0
    7.3476  -14.7113   21.5202 C   0  0  0  0  0  0  0  0  0  0  0  0
    6.9225  -14.1910   20.3003 C   0  0  0  0  0  0  0  0  0  0  0  0
    7.3392  -12.9447   19.9019 C   0  0  0  0  0  0  0  0  0  0  0  0
    8.1754  -12.1708   20.6696 C   0  0  0  0  0  0  0  0  0  0  0  0
    8.6084  -12.6779   21.8915 C   0  0  0  0  0  0  0  0  0  0  0  0
    8.1841  -13.9309   22.2831 C   0  0  0  0  0  0  0  0  0  0  0  0
    8.6064  -17.8274   21.5663 C   0  0  0  0  0  0  0  0  0  0  0  0
    8.4054  -18.7040   22.4687 O   0  0  0  0  0  0  0  0  0  0  0  0
   12.1786  -18.7234   19.6284 O   0  0  0  0  0  0  0  0  0  0  0  0
   12.3218  -18.3308   20.9432 C   0  0  0  0  0  0  0  0  0  0  0  0
   11.0262  -18.5003   21.7281 C   0  0  2  0  0  0  0  0  0  0  0  0
    9.9787  -17.6595   21.1906 N   0  0  0  0  0  0  0  0  0  0  0  0
   11.3353  -18.1806   23.1358 C   0  0  0  0  0  0  0  0  0  0  0  0
   11.3339  -16.9661   23.5418 O   0  0  0  0  0  0  0  0  0  0  0  0
   10.6108  -20.4096   26.1781 O   0  0  0  0  0  0  0  0  0  0  0  0
   11.0770  -19.1263   26.5187 C   0  0  0  0  0  0  0  0  0  0  0  0
   12.1210  -18.7953   25.4508 C   0  0  2  0  0  0  0  0  0  0  0  0
   11.6496  -19.1428   24.1335 N   0  0  0  0  0  0  0  0  0  0  0  0
   13.3880  -19.4356   25.8041 C   0  0  0  0  0  0  0  0  0  0  0  0
   13.9620  -20.1853   24.9877 O   0  0  0  0  0  0  0  0  0  0  0  0
   13.9748  -19.2289   27.0365 O   0  0  0  0  0  0  0  0  0  0  0  0
  2  1  1  1
  2  3  1  0
  4  3  1  0
  5  4  2  0
  6  5  1  0
  7  6  2  0
  7  8  1  0
  8  9  2  0
  9  4  1  0
 10  2  1  0
 10 11  2  0
 12 13  1  0
 14 13  1  6
 14 15  1  0
 15 10  1  0
 16 14  1  0
 17 16  2  0
 18 19  1  0
 20 19  1  1
 20 21  1  0
 20 22  1  0
 21 16  1  0
 22 23  2  0
 22 24  1  0
M  END
$$$$
