FSS.pdb
     RDKit          3D

 24 24  0  0  1  0  0  0  0  0999 V2000
    6.1930  -17.7050   19.2720 N   0  0  0  0  0  0  0  0  0  0  0  0
    7.1453  -16.9040   19.9761 C   0  0  1  0  0  0  0  0  0  0  0  0
    6.4401  -15.9124   20.8666 C   0  0  0  0  0  0  0  0  0  0  0  0
    7.0691  -14.5720   20.6130 C   0  0  0  0  0  0  0  0  0  0  0  0
    7.7683  -13.9305   21.6325 C   0  0  0  0  0  0  0  0  0  0  0  0
    8.3407  -12.7030   21.4065 C   0  0  0  0  0  0  0  0  0  0  0  0
    8.2528  -12.0649   20.1930 C   0  0  0  0  0  0  0  0  0  0  0  0
    7.5571  -12.6942   19.1645 C   0  0  0  0  0  0  0  0  0  0  0  0
    6.9855  -13.9274   19.4013 C   0  0  0  0  0  0  0  0  0  0  0  0
    8.1671  -17.6833   20.7054 C   0  0  0  0  0  0  0  0  0  0  0  0
    7.8586  -18.7376   21.3508 O   0  0  0  0  0  0  0  0  0  0  0  0
   12.3155  -17.2771   20.0937 O   0  0  0  0  0  0  0  0  0  0  0  0
   11.7323  -18.4442   20.5421 C   0  0  0  0  0  0  0  0  0  0  0  0
   10.5271  -18.1677   21.4335 C   0  0  2  0  0  0  0  0  0  0  0  0
    9.5567  -17.3378   20.7533 N   0  0  0  0  0  0  0  0  0  0  0  0
   11.0425  -17.5349   22.6636 C   0  0  0  0  0  0  0  0  0  0  0  0
   11.3793  -16.2994   22.6668 O   0  0  0  0  0  0  0  0  0  0  0  0
   10.2457  -18.6401   26.2978 O   0  0  0  0  0  0  0  0  0  0  0  0
   10.9867  -17.4456   26.2309 C   0  0  0  0  0  0  0  0  0  0  0  0
   11.9129  -17.6290   25.0275 C   0  0  2  0  0  0  0  0  0  0  0  0
   11.2080  -18.2015   23.9078 N   0  0  0  0  0  0  0  0  0  0  0  0
   13.0837  -18.4044   25.4373 C   0  0  0  0  0  0  0  0  0  0  0  0
   13.7736  -18.0341   26.4093 O   0  0  0  0  0  0  0  0  0  0  0  0
   13.4514  -19.5535   24.7662 O   0  0  0  0  0  0  0  0  0  0  0  0
  2  1  1  1
  2  3  1  0
  4  3  1  0
  5  4  2  0
  6  5  1  0
  7  6  2  0
  7  8  1  0
  8  9  2  0
  9  4  1  0
 10  2  1  0
 10 11  2  0
 12 13  1  0
 14 13  1  6
 14 15  1  0
 15 10  1  0
 16 14  1  0
 17 16  2  0
 18 19  1  0
 20 19  1  1
 20 21  1  0
 20 22  1  0
 21 16  1  0
 22 23  2  0
 22 24  1  0
M  END
$$$$
