FSS.pdb
     RDKit          3D

 24 24  0  0  1  0  0  0  0  0999 V2000
    6.0641  -16.9713   25.6420 N   0  0  0  0  0  0  0  0  0  0  0  0
    6.8361  -15.9733   24.9694 C   0  0  1  0  0  0  0  0  0  0  0  0
    7.7456  -15.2689   25.9441 C   0  0  0  0  0  0  0  0  0  0  0  0
    7.1823  -13.8919   26.1515 C   0  0  0  0  0  0  0  0  0  0  0  0
    7.5669  -12.8515   25.3091 C   0  0  0  0  0  0  0  0  0  0  0  0
    7.0581  -11.5902   25.4980 C   0  0  0  0  0  0  0  0  0  0  0  0
    6.1669  -11.3018   26.5031 C   0  0  0  0  0  0  0  0  0  0  0  0
    5.7735  -12.3317   27.3530 C   0  0  0  0  0  0  0  0  0  0  0  0
    6.2901  -13.5956   27.1549 C   0  0  0  0  0  0  0  0  0  0  0  0
    7.5642  -16.4713   23.7840 C   0  0  0  0  0  0  0  0  0  0  0  0
    8.0769  -17.6374   23.7645 O   0  0  0  0  0  0  0  0  0  0  0  0
    7.1134  -15.3338   19.6866 O   0  0  0  0  0  0  0  0  0  0  0  0
    8.3743  -15.3174   20.2461 C   0  0  0  0  0  0  0  0  0  0  0  0
    8.4722  -16.2510   21.4470 C   0  0  2  0  0  0  0  0  0  0  0  0
    7.7554  -15.7137   22.5831 N   0  0  0  0  0  0  0  0  0  0  0  0
    9.9096  -16.4365   21.7272 C   0  0  0  0  0  0  0  0  0  0  0  0
   10.5713  -15.5362   22.3528 O   0  0  0  0  0  0  0  0  0  0  0  0
   11.5786  -20.0124   21.4177 O   0  0  0  0  0  0  0  0  0  0  0  0
   12.3314  -19.1479   22.2339 C   0  0  0  0  0  0  0  0  0  0  0  0
   12.0604  -17.7503   21.6746 C   0  0  2  0  0  0  0  0  0  0  0  0
   10.6665  -17.5786   21.3493 N   0  0  0  0  0  0  0  0  0  0  0  0
   12.9570  -17.5035   20.5453 C   0  0  0  0  0  0  0  0  0  0  0  0
   12.4925  -17.1716   19.4353 O   0  0  0  0  0  0  0  0  0  0  0  0
   14.3254  -17.6299   20.6774 O   0  0  0  0  0  0  0  0  0  0  0  0
  2  1  1  1
  2  3  1  0
  4  3  1  0
  5  4  2  0
  6  5  1  0
  7  6  2  0
  7  8  1  0
  8  9  2  0
  9  4  1  0
 10  2  1  0
 10 11  2  0
 12 13  1  0
 14 13  1  6
 14 15  1  0
 15 10  1  0
 16 14  1  0
 17 16  2  0
 18 19  1  0
 20 19  1  6
 20 21  1  0
 20 22  1  0
 21 16  1  0
 22 23  2  0
 22 24  1  0
M  END
$$$$
