FSS.pdb
     RDKit          3D

 24 24  0  0  1  0  0  0  0  0999 V2000
    9.3082  -15.5636   25.9034 N   0  0  0  0  0  0  0  0  0  0  0  0
    8.6423  -15.1995   24.6917 C   0  0  1  0  0  0  0  0  0  0  0  0
    8.5962  -13.6992   24.5492 C   0  0  0  0  0  0  0  0  0  0  0  0
    7.7288  -13.1805   25.6606 C   0  0  0  0  0  0  0  0  0  0  0  0
    8.2633  -12.3120   26.6092 C   0  0  0  0  0  0  0  0  0  0  0  0
    7.4752  -11.8392   27.6294 C   0  0  0  0  0  0  0  0  0  0  0  0
    6.1539  -12.1923   27.7597 C   0  0  0  0  0  0  0  0  0  0  0  0
    5.6060  -13.0598   26.8188 C   0  0  0  0  0  0  0  0  0  0  0  0
    6.4058  -13.5292   25.7973 C   0  0  0  0  0  0  0  0  0  0  0  0
    9.1818  -15.8600   23.4850 C   0  0  0  0  0  0  0  0  0  0  0  0
   10.4370  -15.9718   23.2976 O   0  0  0  0  0  0  0  0  0  0  0  0
    7.6612  -18.7313   21.0429 O   0  0  0  0  0  0  0  0  0  0  0  0
    8.8899  -18.1545   20.7961 C   0  0  0  0  0  0  0  0  0  0  0  0
    8.8900  -16.6646   21.1182 C   0  0  2  0  0  0  0  0  0  0  0  0
    8.3697  -16.4197   22.4457 N   0  0  0  0  0  0  0  0  0  0  0  0
    8.0888  -16.0016   20.0705 C   0  0  0  0  0  0  0  0  0  0  0  0
    6.8173  -16.1498   20.0332 O   0  0  0  0  0  0  0  0  0  0  0  0
    9.2524  -12.7977   18.0984 O   0  0  0  0  0  0  0  0  0  0  0  0
    7.8892  -13.1091   17.9409 C   0  0  0  0  0  0  0  0  0  0  0  0
    7.8336  -14.6375   17.9661 C   0  0  2  0  0  0  0  0  0  0  0  0
    8.6228  -15.1716   19.0479 N   0  0  0  0  0  0  0  0  0  0  0  0
    8.2202  -15.1532   16.6528 C   0  0  0  0  0  0  0  0  0  0  0  0
    9.2061  -15.9104   16.5407 O   0  0  0  0  0  0  0  0  0  0  0  0
    7.5117  -14.8188   15.5160 O   0  0  0  0  0  0  0  0  0  0  0  0
  2  1  1  1
  2  3  1  0
  4  3  1  0
  5  4  2  0
  6  5  1  0
  7  6  2  0
  7  8  1  0
  8  9  2  0
  9  4  1  0
 10  2  1  0
 10 11  2  0
 12 13  1  0
 14 13  1  6
 14 15  1  0
 15 10  1  0
 16 14  1  0
 17 16  2  0
 18 19  1  0
 20 19  1  6
 20 21  1  0
 20 22  1  0
 21 16  1  0
 22 23  2  0
 22 24  1  0
M  END
$$$$
