FSS.pdb
     RDKit          3D

 24 24  0  0  1  0  0  0  0  0999 V2000
    8.5020  -17.1131   19.2471 N   0  0  0  0  0  0  0  0  0  0  0  0
    8.7395  -16.8359   20.6295 C   0  0  1  0  0  0  0  0  0  0  0  0
    7.5048  -16.2498   21.2663 C   0  0  0  0  0  0  0  0  0  0  0  0
    7.5202  -14.7761   20.9758 C   0  0  0  0  0  0  0  0  0  0  0  0
    7.9937  -13.8852   21.9360 C   0  0  0  0  0  0  0  0  0  0  0  0
    8.0050  -12.5369   21.6765 C   0  0  0  0  0  0  0  0  0  0  0  0
    7.5605  -12.0154   20.4857 C   0  0  0  0  0  0  0  0  0  0  0  0
    7.0844  -12.8938   19.5165 C   0  0  0  0  0  0  0  0  0  0  0  0
    7.0771  -14.2468   19.7866 C   0  0  0  0  0  0  0  0  0  0  0  0
    9.2713  -17.9843   21.3922 C   0  0  0  0  0  0  0  0  0  0  0  0
    9.0641  -19.1829   21.0132 O   0  0  0  0  0  0  0  0  0  0  0  0
   12.6556  -18.7876   21.9869 O   0  0  0  0  0  0  0  0  0  0  0  0
   11.6747  -19.6782   22.3715 C   0  0  0  0  0  0  0  0  0  0  0  0
   10.6211  -19.0139   23.2503 C   0  0  2  0  0  0  0  0  0  0  0  0
   10.0457  -17.8616   22.5913 N   0  0  0  0  0  0  0  0  0  0  0  0
   11.2858  -18.6602   24.5200 C   0  0  0  0  0  0  0  0  0  0  0  0
   12.0273  -17.6190   24.5974 O   0  0  0  0  0  0  0  0  0  0  0  0
   10.5532  -20.7571   27.8403 O   0  0  0  0  0  0  0  0  0  0  0  0
   11.0430  -19.4808   28.1742 C   0  0  0  0  0  0  0  0  0  0  0  0
   11.8446  -19.0386   26.9488 C   0  0  2  0  0  0  0  0  0  0  0  0
   11.1741  -19.4040   25.7259 N   0  0  0  0  0  0  0  0  0  0  0  0
   13.2045  -19.5685   27.0485 C   0  0  0  0  0  0  0  0  0  0  0  0
   13.6416  -20.3453   26.1747 O   0  0  0  0  0  0  0  0  0  0  0  0
   14.0302  -19.2263   28.1007 O   0  0  0  0  0  0  0  0  0  0  0  0
  2  1  1  6
  2  3  1  0
  4  3  1  0
  5  4  2  0
  6  5  1  0
  7  6  2  0
  7  8  1  0
  8  9  2  0
  9  4  1  0
 10  2  1  0
 10 11  2  0
 12 13  1  0
 14 13  1  6
 14 15  1  0
 15 10  1  0
 16 14  1  0
 17 16  2  0
 18 19  1  0
 20 19  1  1
 20 21  1  0
 20 22  1  0
 21 16  1  0
 22 23  2  0
 22 24  1  0
M  END
$$$$
