FSS.pdb
     RDKit          3D

 24 24  0  0  1  0  0  0  0  0999 V2000
    6.1706  -16.8316   25.7371 N   0  0  0  0  0  0  0  0  0  0  0  0
    7.0864  -15.9010   25.1543 C   0  0  1  0  0  0  0  0  0  0  0  0
    7.7845  -15.1085   26.2304 C   0  0  0  0  0  0  0  0  0  0  0  0
    7.0310  -13.8179   26.3819 C   0  0  0  0  0  0  0  0  0  0  0  0
    7.3412  -12.7340   25.5641 C   0  0  0  0  0  0  0  0  0  0  0  0
    6.6581  -11.5509   25.7024 C   0  0  0  0  0  0  0  0  0  0  0  0
    5.6603  -11.3844   26.6319 C   0  0  0  0  0  0  0  0  0  0  0  0
    5.3393  -12.4591   27.4564 C   0  0  0  0  0  0  0  0  0  0  0  0
    6.0312  -13.6438   27.3097 C   0  0  0  0  0  0  0  0  0  0  0  0
    8.0374  -16.5079   24.2001 C   0  0  0  0  0  0  0  0  0  0  0  0
    8.6203  -17.6110   24.4585 O   0  0  0  0  0  0  0  0  0  0  0  0
    9.8883  -14.5227   20.8803 O   0  0  0  0  0  0  0  0  0  0  0  0
    9.4207  -15.8106   20.7190 C   0  0  0  0  0  0  0  0  0  0  0  0
    9.3409  -16.5536   22.0476 C   0  0  2  0  0  0  0  0  0  0  0  0
    8.3821  -15.9316   22.9345 N   0  0  0  0  0  0  0  0  0  0  0  0
   10.7043  -16.5635   22.6134 C   0  0  0  0  0  0  0  0  0  0  0  0
   11.1045  -15.6043   23.3615 O   0  0  0  0  0  0  0  0  0  0  0  0
   13.1161  -19.7261   22.1273 O   0  0  0  0  0  0  0  0  0  0  0  0
   13.5585  -18.9251   23.1965 C   0  0  0  0  0  0  0  0  0  0  0  0
   13.0171  -17.5285   22.8866 C   0  0  2  0  0  0  0  0  0  0  0  0
   11.6630  -17.5899   22.3955 N   0  0  0  0  0  0  0  0  0  0  0  0
   13.9374  -16.8488   21.9749 C   0  0  0  0  0  0  0  0  0  0  0  0
   13.5434  -16.4674   20.8537 O   0  0  0  0  0  0  0  0  0  0  0  0
   15.2513  -16.6145   22.3281 O   0  0  0  0  0  0  0  0  0  0  0  0
  2  1  1  1
  2  3  1  0
  4  3  1  0
  5  4  2  0
  6  5  1  0
  7  6  2  0
  7  8  1  0
  8  9  2  0
  9  4  1  0
 10  2  1  0
 10 11  2  0
 12 13  1  0
 14 13  1  6
 14 15  1  0
 15 10  1  0
 16 14  1  0
 17 16  2  0
 18 19  1  0
 20 19  1  6
 20 21  1  0
 20 22  1  0
 21 16  1  0
 22 23  2  0
 22 24  1  0
M  END
$$$$
