FSS.pdb
     RDKit          3D

 24 24  0  0  1  0  0  0  0  0999 V2000
    5.8856  -17.8978   25.3491 N   0  0  0  0  0  0  0  0  0  0  0  0
    6.6005  -16.6672   25.2121 C   0  0  1  0  0  0  0  0  0  0  0  0
    6.9215  -16.0934   26.5690 C   0  0  0  0  0  0  0  0  0  0  0  0
    6.9348  -14.5987   26.4200 C   0  0  0  0  0  0  0  0  0  0  0  0
    5.7698  -13.8693   26.6448 C   0  0  0  0  0  0  0  0  0  0  0  0
    5.7763  -12.5033   26.5051 C   0  0  0  0  0  0  0  0  0  0  0  0
    6.9055  -11.8082   26.1454 C   0  0  0  0  0  0  0  0  0  0  0  0
    8.0774  -12.5240   25.9174 C   0  0  0  0  0  0  0  0  0  0  0  0
    8.0608  -13.8961   26.0605 C   0  0  0  0  0  0  0  0  0  0  0  0
    7.7940  -16.7563   24.3455 C   0  0  0  0  0  0  0  0  0  0  0  0
    8.7136  -17.6084   24.5721 O   0  0  0  0  0  0  0  0  0  0  0  0
    8.6802  -13.9363   21.3865 O   0  0  0  0  0  0  0  0  0  0  0  0
    9.0725  -15.2282   21.1027 C   0  0  0  0  0  0  0  0  0  0  0  0
    9.1898  -16.0738   22.3655 C   0  0  2  0  0  0  0  0  0  0  0  0
    8.0216  -15.9197   23.2049 N   0  0  0  0  0  0  0  0  0  0  0  0
   10.4297  -15.6529   23.0471 C   0  0  0  0  0  0  0  0  0  0  0  0
   10.4838  -14.5323   23.6645 O   0  0  0  0  0  0  0  0  0  0  0  0
   13.0408  -18.1919   24.4024 O   0  0  0  0  0  0  0  0  0  0  0  0
   13.1944  -16.8897   24.9132 C   0  0  0  0  0  0  0  0  0  0  0  0
   12.8307  -15.9688   23.7474 C   0  0  2  0  0  0  0  0  0  0  0  0
   11.6298  -16.4134   23.0851 N   0  0  0  0  0  0  0  0  0  0  0  0
   13.9812  -15.8519   22.8515 C   0  0  0  0  0  0  0  0  0  0  0  0
   15.0514  -15.3598   23.2644 O   0  0  0  0  0  0  0  0  0  0  0  0
   13.9131  -16.2785   21.5403 O   0  0  0  0  0  0  0  0  0  0  0  0
  2  1  1  1
  2  3  1  0
  4  3  1  0
  5  4  2  0
  6  5  1  0
  7  6  2  0
  7  8  1  0
  8  9  2  0
  9  4  1  0
 10  2  1  0
 10 11  2  0
 12 13  1  0
 14 13  1  6
 14 15  1  0
 15 10  1  0
 16 14  1  0
 17 16  2  0
 18 19  1  0
 20 19  1  1
 20 21  1  0
 20 22  1  0
 21 16  1  0
 22 23  2  0
 22 24  1  0
M  END
$$$$
