FSS.pdb
     RDKit          3D

 24 24  0  0  1  0  0  0  0  0999 V2000
    6.4472  -16.5142   25.6583 N   0  0  0  0  0  0  0  0  0  0  0  0
    7.3777  -15.6990   24.9413 C   0  0  1  0  0  0  0  0  0  0  0  0
    8.1174  -14.7897   25.8897 C   0  0  0  0  0  0  0  0  0  0  0  0
    7.3007  -13.5356   26.0198 C   0  0  0  0  0  0  0  0  0  0  0  0
    7.0948  -12.7239   24.9069 C   0  0  0  0  0  0  0  0  0  0  0  0
    6.3529  -11.5743   25.0225 C   0  0  0  0  0  0  0  0  0  0  0  0
    5.7922  -11.1797   26.2130 C   0  0  0  0  0  0  0  0  0  0  0  0
    5.9896  -11.9811   27.3340 C   0  0  0  0  0  0  0  0  0  0  0  0
    6.7364  -13.1343   27.2078 C   0  0  0  0  0  0  0  0  0  0  0  0
    8.2937  -16.4578   24.0646 C   0  0  0  0  0  0  0  0  0  0  0  0
    8.6891  -17.6282   24.3762 O   0  0  0  0  0  0  0  0  0  0  0  0
   10.4195  -14.7463   20.7968 O   0  0  0  0  0  0  0  0  0  0  0  0
   10.0108  -16.0596   20.6898 C   0  0  0  0  0  0  0  0  0  0  0  0
    9.7928  -16.6971   22.0572 C   0  0  2  0  0  0  0  0  0  0  0  0
    8.8065  -15.9645   22.8211 N   0  0  0  0  0  0  0  0  0  0  0  0
   11.1082  -16.7318   22.7263 C   0  0  0  0  0  0  0  0  0  0  0  0
   11.4680  -15.7788   23.5023 O   0  0  0  0  0  0  0  0  0  0  0  0
   12.7923  -19.9437   23.8304 O   0  0  0  0  0  0  0  0  0  0  0  0
   13.4169  -18.7969   24.3548 C   0  0  0  0  0  0  0  0  0  0  0  0
   13.3516  -17.7673   23.2256 C   0  0  2  0  0  0  0  0  0  0  0  0
   12.0608  -17.7768   22.5835 N   0  0  0  0  0  0  0  0  0  0  0  0
   14.4633  -17.9965   22.3027 C   0  0  0  0  0  0  0  0  0  0  0  0
   14.2476  -18.1304   21.0806 O   0  0  0  0  0  0  0  0  0  0  0  0
   15.7654  -18.0698   22.7554 O   0  0  0  0  0  0  0  0  0  0  0  0
  2  1  1  1
  2  3  1  0
  4  3  1  0
  5  4  2  0
  6  5  1  0
  7  6  2  0
  7  8  1  0
  8  9  2  0
  9  4  1  0
 10  2  1  0
 10 11  2  0
 12 13  1  0
 14 13  1  6
 14 15  1  0
 15 10  1  0
 16 14  1  0
 17 16  2  0
 18 19  1  0
 20 19  1  1
 20 21  1  0
 20 22  1  0
 21 16  1  0
 22 23  2  0
 22 24  1  0
M  END
$$$$
