FSS.pdb
     RDKit          3D

 24 24  0  0  1  0  0  0  0  0999 V2000
    7.7508  -17.2033   21.0072 N   0  0  0  0  0  0  0  0  0  0  0  0
    9.1122  -16.7939   20.8543 C   0  0  1  0  0  0  0  0  0  0  0  0
    9.3629  -15.5140   21.6109 C   0  0  0  0  0  0  0  0  0  0  0  0
    8.5805  -14.4353   20.9174 C   0  0  0  0  0  0  0  0  0  0  0  0
    7.3596  -14.0183   21.4420 C   0  0  0  0  0  0  0  0  0  0  0  0
    6.6389  -13.0359   20.8087 C   0  0  0  0  0  0  0  0  0  0  0  0
    7.0778  -12.4324   19.6552 C   0  0  0  0  0  0  0  0  0  0  0  0
    8.2965  -12.8390   19.1192 C   0  0  0  0  0  0  0  0  0  0  0  0
    9.0132  -13.8266   19.7629 C   0  0  0  0  0  0  0  0  0  0  0  0
   10.0984  -17.8428   21.1865 C   0  0  0  0  0  0  0  0  0  0  0  0
    9.9161  -18.6350   22.1675 O   0  0  0  0  0  0  0  0  0  0  0  0
   14.0218  -18.0784   19.5651 O   0  0  0  0  0  0  0  0  0  0  0  0
   13.3382  -19.2582   19.7748 C   0  0  0  0  0  0  0  0  0  0  0  0
   12.2488  -19.1007   20.8293 C   0  0  2  0  0  0  0  0  0  0  0  0
   11.3134  -18.0609   20.4593 N   0  0  0  0  0  0  0  0  0  0  0  0
   12.9302  -18.8137   22.1070 C   0  0  0  0  0  0  0  0  0  0  0  0
   13.1246  -17.6051   22.4827 O   0  0  0  0  0  0  0  0  0  0  0  0
   12.5879  -20.9732   25.2789 O   0  0  0  0  0  0  0  0  0  0  0  0
   13.1054  -19.6740   25.4352 C   0  0  0  0  0  0  0  0  0  0  0  0
   14.0616  -19.4913   24.2554 C   0  0  2  0  0  0  0  0  0  0  0  0
   13.4147  -19.8029   23.0052 N   0  0  0  0  0  0  0  0  0  0  0  0
   15.2741  -20.2739   24.4951 C   0  0  0  0  0  0  0  0  0  0  0  0
   15.9840  -20.0419   25.4951 O   0  0  0  0  0  0  0  0  0  0  0  0
   15.6597  -21.2786   23.6303 O   0  0  0  0  0  0  0  0  0  0  0  0
  2  1  1  1
  2  3  1  0
  4  3  1  0
  5  4  2  0
  6  5  1  0
  7  6  2  0
  7  8  1  0
  8  9  2  0
  9  4  1  0
 10  2  1  0
 10 11  2  0
 12 13  1  0
 14 13  1  6
 14 15  1  0
 15 10  1  0
 16 14  1  0
 17 16  2  0
 18 19  1  0
 20 19  1  1
 20 21  1  0
 20 22  1  0
 21 16  1  0
 22 23  2  0
 22 24  1  0
M  END
$$$$
