FSS.pdb
     RDKit          3D

 24 24  0  0  1  0  0  0  0  0999 V2000
    6.8124  -16.7137   26.1383 N   0  0  0  0  0  0  0  0  0  0  0  0
    7.0986  -15.7004   25.1711 C   0  0  1  0  0  0  0  0  0  0  0  0
    8.1282  -14.7387   25.7083 C   0  0  0  0  0  0  0  0  0  0  0  0
    7.3772  -13.5953   26.3289 C   0  0  0  0  0  0  0  0  0  0  0  0
    8.0760  -12.5616   26.9477 C   0  0  0  0  0  0  0  0  0  0  0  0
    7.3934  -11.5168   27.5204 C   0  0  0  0  0  0  0  0  0  0  0  0
    6.0215  -11.4436   27.5103 C   0  0  0  0  0  0  0  0  0  0  0  0
    5.3097  -12.4697   26.8953 C   0  0  0  0  0  0  0  0  0  0  0  0
    6.0045  -13.5150   26.3226 C   0  0  0  0  0  0  0  0  0  0  0  0
    7.4636  -16.2244   23.8386 C   0  0  0  0  0  0  0  0  0  0  0  0
    7.7604  -17.4517   23.6692 O   0  0  0  0  0  0  0  0  0  0  0  0
    8.6032  -14.0153   20.1568 O   0  0  0  0  0  0  0  0  0  0  0  0
    7.6463  -15.0058   20.2397 C   0  0  0  0  0  0  0  0  0  0  0  0
    7.9349  -15.9767   21.3788 C   0  0  2  0  0  0  0  0  0  0  0  0
    7.5158  -15.4268   22.6496 N   0  0  0  0  0  0  0  0  0  0  0  0
    9.3830  -16.2608   21.3406 C   0  0  0  0  0  0  0  0  0  0  0  0
   10.2253  -15.4040   21.7835 O   0  0  0  0  0  0  0  0  0  0  0  0
   10.7219  -19.9524   20.9117 O   0  0  0  0  0  0  0  0  0  0  0  0
   11.6835  -19.0847   21.4618 C   0  0  0  0  0  0  0  0  0  0  0  0
   11.3768  -17.7205   20.8418 C   0  0  2  0  0  0  0  0  0  0  0  0
    9.9595  -17.4568   20.8335 N   0  0  0  0  0  0  0  0  0  0  0  0
   11.9910  -17.6472   19.5161 C   0  0  0  0  0  0  0  0  0  0  0  0
   11.2977  -17.3648   18.5173 O   0  0  0  0  0  0  0  0  0  0  0  0
   13.3390  -17.8859   19.3380 O   0  0  0  0  0  0  0  0  0  0  0  0
  2  1  1  1
  2  3  1  0
  4  3  1  0
  5  4  2  0
  6  5  1  0
  7  6  2  0
  7  8  1  0
  8  9  2  0
  9  4  1  0
 10  2  1  0
 10 11  2  0
 12 13  1  0
 14 13  1  6
 14 15  1  0
 15 10  1  0
 16 14  1  0
 17 16  2  0
 18 19  1  0
 20 19  1  6
 20 21  1  0
 20 22  1  0
 21 16  1  0
 22 23  2  0
 22 24  1  0
M  END
$$$$
