FSS.pdb
     RDKit          3D

 24 24  0  0  1  0  0  0  0  0999 V2000
    6.1591  -17.4263   26.1171 N   0  0  0  0  0  0  0  0  0  0  0  0
    6.7732  -16.3501   25.4036 C   0  0  1  0  0  0  0  0  0  0  0  0
    7.7708  -15.6397   26.2832 C   0  0  0  0  0  0  0  0  0  0  0  0
    7.3598  -14.1957   26.3333 C   0  0  0  0  0  0  0  0  0  0  0  0
    6.2625  -13.8137   27.1013 C   0  0  0  0  0  0  0  0  0  0  0  0
    5.8804  -12.4956   27.1463 C   0  0  0  0  0  0  0  0  0  0  0  0
    6.5466  -11.5147   26.4522 C   0  0  0  0  0  0  0  0  0  0  0  0
    7.6454  -11.8818   25.6803 C   0  0  0  0  0  0  0  0  0  0  0  0
    8.0215  -13.2086   25.6417 C   0  0  0  0  0  0  0  0  0  0  0  0
    7.3536  -16.7424   24.1027 C   0  0  0  0  0  0  0  0  0  0  0  0
    7.9220  -17.8718   23.9458 O   0  0  0  0  0  0  0  0  0  0  0  0
    8.1403  -14.1750   20.7025 O   0  0  0  0  0  0  0  0  0  0  0  0
    7.5259  -15.4003   20.5454 C   0  0  0  0  0  0  0  0  0  0  0  0
    7.8855  -16.3617   21.6723 C   0  0  2  0  0  0  0  0  0  0  0  0
    7.3319  -15.9160   22.9325 N   0  0  0  0  0  0  0  0  0  0  0  0
    9.3588  -16.4477   21.7060 C   0  0  0  0  0  0  0  0  0  0  0  0
   10.0620  -15.4293   22.0350 O   0  0  0  0  0  0  0  0  0  0  0  0
   11.2388  -19.9229   20.9700 O   0  0  0  0  0  0  0  0  0  0  0  0
   12.0616  -19.0611   21.7187 C   0  0  0  0  0  0  0  0  0  0  0  0
   11.5492  -17.6564   21.3966 C   0  0  2  0  0  0  0  0  0  0  0  0
   10.1082  -17.6138   21.3921 N   0  0  0  0  0  0  0  0  0  0  0  0
   12.1495  -17.2029   20.1420 C   0  0  0  0  0  0  0  0  0  0  0  0
   11.4236  -16.8547   19.1881 O   0  0  0  0  0  0  0  0  0  0  0  0
   13.5198  -17.1490   19.9829 O   0  0  0  0  0  0  0  0  0  0  0  0
  2  1  1  1
  2  3  1  0
  4  3  1  0
  5  4  2  0
  6  5  1  0
  7  6  2  0
  7  8  1  0
  8  9  2  0
  9  4  1  0
 10  2  1  0
 10 11  2  0
 12 13  1  0
 14 13  1  6
 14 15  1  0
 15 10  1  0
 16 14  1  0
 17 16  2  0
 18 19  1  0
 20 19  1  6
 20 21  1  0
 20 22  1  0
 21 16  1  0
 22 23  2  0
 22 24  1  0
M  END
$$$$
