SMM.pdb
     RDKit          3D

 23 22  0  0  1  0  0  0  0  0999 V2000
   16.6285  -11.2082  -19.0058 O   0  0  0  0  0  0  0  0  0  0  0  0
   17.0086  -10.9982  -17.6929 C   0  0  0  0  0  0  0  0  0  0  0  0
   18.0939  -11.9696  -17.2740 C   0  0  2  0  0  0  0  0  0  0  0  0
   17.5460  -13.1475  -16.6592 N   0  0  0  0  0  0  0  0  0  0  0  0
   19.1214  -11.3027  -16.4338 C   0  0  0  0  0  0  0  0  0  0  0  0
   18.8780  -11.2357  -15.2007 O   0  0  0  0  0  0  0  0  0  0  0  0
   26.5806  -10.4257  -14.6534 C   0  0  0  0  0  0  0  0  0  0  0  0
   25.3557  -11.0581  -15.8331 S   0  0  0  0  0  0  0  0  0  0  0  0
   23.7756  -10.2505  -15.5035 C   0  0  0  0  0  0  0  0  0  0  0  0
   22.6778  -10.7295  -16.3837 C   0  0  0  0  0  0  0  0  0  0  0  0
   21.3270  -10.1378  -16.0934 C   0  0  2  0  0  0  0  0  0  0  0  0
   20.3303  -10.7537  -16.9414 N   0  0  0  0  0  0  0  0  0  0  0  0
   21.2982   -8.6563  -16.1956 C   0  0  0  0  0  0  0  0  0  0  0  0
   21.4233   -8.1152  -17.3226 O   0  0  0  0  0  0  0  0  0  0  0  0
   17.7639   -2.0935  -15.9870 C   0  0  0  0  0  0  0  0  0  0  0  0
   17.8864   -3.8833  -15.7324 S   0  0  0  0  0  0  0  0  0  0  0  0
   19.5793   -4.4081  -15.4967 C   0  0  0  0  0  0  0  0  0  0  0  0
   19.8235   -5.8668  -15.4276 C   0  0  0  0  0  0  0  0  0  0  0  0
   21.1914   -6.3785  -15.1939 C   0  0  2  0  0  0  0  0  0  0  0  0
   21.1346   -7.8531  -15.0661 N   0  0  0  0  0  0  0  0  0  0  0  0
   21.8829   -5.8012  -14.0542 C   0  0  0  0  0  0  0  0  0  0  0  0
   22.0919   -6.4440  -13.0145 O   0  0  0  0  0  0  0  0  0  0  0  0
   22.3577   -4.4703  -14.0659 O   0  0  0  0  0  0  0  0  0  0  0  0
  2  1  1  0
  3  4  1  1
  3  2  1  0
  5  6  2  0
  5  3  1  0
  7  8  1  0
  9  8  1  0
  9 10  1  0
 11 10  1  6
 11 13  1  0
 11 12  1  0
 12  5  1  0
 13 20  1  0
 14 13  2  0
 16 15  1  0
 17 16  1  0
 19 18  1  1
 18 17  1  0
 19 21  1  0
 20 19  1  0
 21 22  2  0
 21 23  1  0
M  END
$$$$
