SMM.pdb
     RDKit          3D

 23 22  0  0  1  0  0  0  0  0999 V2000
   16.6428  -11.6400  -18.2387 O   0  0  0  0  0  0  0  0  0  0  0  0
   17.3827  -11.1949  -17.1585 C   0  0  0  0  0  0  0  0  0  0  0  0
   18.4357  -12.2093  -16.7597 C   0  0  2  0  0  0  0  0  0  0  0  0
   17.8685  -13.3021  -16.0182 N   0  0  0  0  0  0  0  0  0  0  0  0
   19.5721  -11.5608  -16.0565 C   0  0  0  0  0  0  0  0  0  0  0  0
   19.3510  -11.1660  -14.8819 O   0  0  0  0  0  0  0  0  0  0  0  0
   27.3160  -10.3746  -15.3018 C   0  0  0  0  0  0  0  0  0  0  0  0
   25.9997  -11.1930  -16.2448 S   0  0  0  0  0  0  0  0  0  0  0  0
   24.4132  -10.5089  -15.7226 C   0  0  0  0  0  0  0  0  0  0  0  0
   23.2478  -11.1921  -16.3425 C   0  0  0  0  0  0  0  0  0  0  0  0
   21.9069  -10.6233  -15.9715 C   0  0  2  0  0  0  0  0  0  0  0  0
   20.8588  -11.3711  -16.6302 N   0  0  0  0  0  0  0  0  0  0  0  0
   21.7922   -9.1658  -16.2333 C   0  0  0  0  0  0  0  0  0  0  0  0
   21.5539   -8.7678  -17.4010 O   0  0  0  0  0  0  0  0  0  0  0  0
   17.1076   -4.8763  -15.4843 C   0  0  0  0  0  0  0  0  0  0  0  0
   18.2513   -5.0259  -16.8817 S   0  0  0  0  0  0  0  0  0  0  0  0
   19.9465   -5.1964  -16.3397 C   0  0  0  0  0  0  0  0  0  0  0  0
   20.4299   -6.5713  -16.0789 C   0  0  0  0  0  0  0  0  0  0  0  0
   21.7726   -6.7866  -15.4971 C   0  0  2  0  0  0  0  0  0  0  0  0
   21.9431   -8.2296  -15.2095 N   0  0  0  0  0  0  0  0  0  0  0  0
   22.0683   -5.9993  -14.3126 C   0  0  0  0  0  0  0  0  0  0  0  0
   22.1740   -6.5127  -13.1887 O   0  0  0  0  0  0  0  0  0  0  0  0
   22.2526   -4.5996  -14.3744 O   0  0  0  0  0  0  0  0  0  0  0  0
  2  1  1  0
  3  4  1  1
  3  2  1  0
  5  6  2  0
  5  3  1  0
  7  8  1  0
  9  8  1  0
  9 10  1  0
 11 10  1  6
 11 13  1  0
 11 12  1  0
 12  5  1  0
 13 20  1  0
 14 13  2  0
 16 15  1  0
 17 16  1  0
 19 18  1  1
 18 17  1  0
 19 21  1  0
 20 19  1  0
 21 22  2  0
 21 23  1  0
M  END
$$$$
