SMM.pdb
     RDKit          3D

 23 22  0  0  1  0  0  0  0  0999 V2000
   15.8166  -11.4111  -17.4702 O   0  0  0  0  0  0  0  0  0  0  0  0
   16.8319  -10.8316  -16.7315 C   0  0  0  0  0  0  0  0  0  0  0  0
   18.1107  -11.6394  -16.8287 C   0  0  2  0  0  0  0  0  0  0  0  0
   17.9612  -12.9450  -16.2468 N   0  0  0  0  0  0  0  0  0  0  0  0
   19.2675  -10.8886  -16.2769 C   0  0  0  0  0  0  0  0  0  0  0  0
   19.3307  -10.8012  -15.0228 O   0  0  0  0  0  0  0  0  0  0  0  0
   26.1358   -9.9372  -15.2106 C   0  0  0  0  0  0  0  0  0  0  0  0
   24.6289  -10.5890  -15.9827 S   0  0  0  0  0  0  0  0  0  0  0  0
   23.8998   -9.2883  -16.9996 C   0  0  0  0  0  0  0  0  0  0  0  0
   22.5577   -9.6428  -17.5309 C   0  0  0  0  0  0  0  0  0  0  0  0
   21.4559   -9.6660  -16.5088 C   0  0  2  0  0  0  0  0  0  0  0  0
   20.2764  -10.2829  -17.0744 N   0  0  0  0  0  0  0  0  0  0  0  0
   21.1570   -8.3294  -15.9340 C   0  0  0  0  0  0  0  0  0  0  0  0
   20.4803   -7.5095  -16.6037 O   0  0  0  0  0  0  0  0  0  0  0  0
   18.6661   -4.8323   -9.4789 C   0  0  0  0  0  0  0  0  0  0  0  0
   19.3225   -6.2852  -10.3399 S   0  0  0  0  0  0  0  0  0  0  0  0
   20.0856   -5.8484  -11.8967 C   0  0  0  0  0  0  0  0  0  0  0  0
   20.5633   -6.9649  -12.7436 C   0  0  0  0  0  0  0  0  0  0  0  0
   21.1722   -6.6864  -14.0624 C   0  0  2  0  0  0  0  0  0  0  0  0
   21.6116   -7.9658  -14.6658 N   0  0  0  0  0  0  0  0  0  0  0  0
   22.2687   -5.7334  -14.0500 C   0  0  0  0  0  0  0  0  0  0  0  0
   23.4482   -6.0828  -14.2063 O   0  0  0  0  0  0  0  0  0  0  0  0
   22.0522   -4.3501  -13.8584 O   0  0  0  0  0  0  0  0  0  0  0  0
  2  1  1  0
  3  4  1  1
  3  2  1  0
  5  6  2  0
  5  3  1  0
  7  8  1  0
  9  8  1  0
  9 10  1  0
 11 10  1  6
 11 13  1  0
 11 12  1  0
 12  5  1  0
 13 20  1  0
 14 13  2  0
 16 15  1  0
 17 16  1  0
 19 18  1  1
 18 17  1  0
 19 21  1  0
 20 19  1  0
 21 22  2  0
 21 23  1  0
M  END
$$$$
