SMM.pdb
     RDKit          3D

 23 22  0  0  1  0  0  0  0  0999 V2000
   29.5479  -22.5722  -16.9950 O   0  0  0  0  0  0  0  0  0  0  0  0
   29.2816  -21.5812  -16.0680 C   0  0  0  0  0  0  0  0  0  0  0  0
   28.2173  -20.6283  -16.5742 C   0  0  2  0  0  0  0  0  0  0  0  0
   28.7757  -19.6033  -17.4128 N   0  0  0  0  0  0  0  0  0  0  0  0
   27.4044  -20.0831  -15.4569 C   0  0  0  0  0  0  0  0  0  0  0  0
   27.8555  -19.0557  -14.8865 O   0  0  0  0  0  0  0  0  0  0  0  0
   21.0318  -20.9871  -14.7930 C   0  0  0  0  0  0  0  0  0  0  0  0
   21.3008  -19.4912  -13.8021 S   0  0  0  0  0  0  0  0  0  0  0  0
   23.0398  -19.4287  -13.3230 C   0  0  0  0  0  0  0  0  0  0  0  0
   23.9505  -20.0069  -14.3455 C   0  0  0  0  0  0  0  0  0  0  0  0
   25.3957  -20.0813  -13.9395 C   0  0  2  0  0  0  0  0  0  0  0  0
   26.1778  -20.6495  -15.0152 N   0  0  0  0  0  0  0  0  0  0  0  0
   25.6118  -20.8037  -12.6598 C   0  0  0  0  0  0  0  0  0  0  0  0
   25.6577  -22.0593  -12.6627 O   0  0  0  0  0  0  0  0  0  0  0  0
   29.0506  -18.7005   -7.6838 C   0  0  0  0  0  0  0  0  0  0  0  0
   27.8637  -19.6982   -6.7462 S   0  0  0  0  0  0  0  0  0  0  0  0
   26.7694  -20.6165   -7.8213 C   0  0  0  0  0  0  0  0  0  0  0  0
   26.6793  -20.1636   -9.2280 C   0  0  0  0  0  0  0  0  0  0  0  0
   25.7861  -20.8643  -10.1761 C   0  0  2  0  0  0  0  0  0  0  0  0
   25.7654  -20.1169  -11.4547 N   0  0  0  0  0  0  0  0  0  0  0  0
   24.4311  -21.0869   -9.7018 C   0  0  0  0  0  0  0  0  0  0  0  0
   23.4629  -20.4551  -10.1503 O   0  0  0  0  0  0  0  0  0  0  0  0
   24.1390  -22.0390   -8.6992 O   0  0  0  0  0  0  0  0  0  0  0  0
  2  1  1  0
  3  4  1  1
  3  2  1  0
  5  6  2  0
  5  3  1  0
  7  8  1  0
  9  8  1  0
  9 10  1  0
 11 10  1  6
 11 13  1  0
 11 12  1  0
 12  5  1  0
 13 20  1  0
 14 13  2  0
 16 15  1  0
 17 16  1  0
 19 18  1  1
 18 17  1  0
 19 21  1  0
 20 19  1  0
 21 22  2  0
 21 23  1  0
M  END
$$$$
