SMM.pdb
     RDKit          3D

 23 22  0  0  1  0  0  0  0  0999 V2000
   26.7614  -18.4316  -15.4851 O   0  0  0  0  0  0  0  0  0  0  0  0
   27.7301  -18.6250  -14.5173 C   0  0  0  0  0  0  0  0  0  0  0  0
   28.0011  -20.1002  -14.2997 C   0  0  2  0  0  0  0  0  0  0  0  0
   28.3000  -20.7743  -15.5333 N   0  0  0  0  0  0  0  0  0  0  0  0
   26.9002  -20.7456  -13.5393 C   0  0  0  0  0  0  0  0  0  0  0  0
   26.2664  -21.6547  -14.1361 O   0  0  0  0  0  0  0  0  0  0  0  0
   26.9461  -19.0783   -7.3775 C   0  0  0  0  0  0  0  0  0  0  0  0
   26.3925  -20.7992   -7.5320 S   0  0  0  0  0  0  0  0  0  0  0  0
   26.4333  -21.2575   -9.2773 C   0  0  0  0  0  0  0  0  0  0  0  0
   25.3998  -20.5638  -10.0896 C   0  0  0  0  0  0  0  0  0  0  0  0
   25.3771  -20.9406  -11.5445 C   0  0  2  0  0  0  0  0  0  0  0  0
   26.5401  -20.3958  -12.2095 N   0  0  0  0  0  0  0  0  0  0  0  0
   24.1182  -20.5568  -12.2331 C   0  0  0  0  0  0  0  0  0  0  0  0
   23.9474  -19.3616  -12.5810 O   0  0  0  0  0  0  0  0  0  0  0  0
   21.4500  -24.2121  -16.6941 C   0  0  0  0  0  0  0  0  0  0  0  0
   19.9361  -23.4142  -16.0987 S   0  0  0  0  0  0  0  0  0  0  0  0
   20.2897  -22.0684  -14.9760 C   0  0  0  0  0  0  0  0  0  0  0  0
   21.5389  -22.1665  -14.1873 C   0  0  0  0  0  0  0  0  0  0  0  0
   21.9041  -21.0899  -13.2412 C   0  0  2  0  0  0  0  0  0  0  0  0
   23.1217  -21.4960  -12.5019 N   0  0  0  0  0  0  0  0  0  0  0  0
   20.8578  -20.7004  -12.3117 C   0  0  0  0  0  0  0  0  0  0  0  0
   20.8384  -21.0961  -11.1366 O   0  0  0  0  0  0  0  0  0  0  0  0
   19.7996  -19.8459  -12.6954 O   0  0  0  0  0  0  0  0  0  0  0  0
  2  1  1  0
  3  4  1  6
  3  2  1  0
  5  6  2  0
  5  3  1  0
  7  8  1  0
  9  8  1  0
  9 10  1  0
 11 10  1  1
 11 13  1  0
 11 12  1  0
 12  5  1  0
 13 20  1  0
 14 13  2  0
 16 15  1  0
 17 16  1  0
 19 18  1  1
 18 17  1  0
 19 21  1  0
 20 19  1  0
 21 22  2  0
 21 23  1  0
M  END
$$$$
