SMM.pdb
     RDKit          3D

 23 22  0  0  1  0  0  0  0  0999 V2000
   26.3051  -19.2090  -16.2196 O   0  0  0  0  0  0  0  0  0  0  0  0
   27.4864  -19.1743  -15.5013 C   0  0  0  0  0  0  0  0  0  0  0  0
   27.8674  -20.5548  -15.0053 C   0  0  2  0  0  0  0  0  0  0  0  0
   28.0824  -21.4704  -16.0919 N   0  0  0  0  0  0  0  0  0  0  0  0
   26.8894  -21.0597  -14.0077 C   0  0  0  0  0  0  0  0  0  0  0  0
   26.1777  -22.0341  -14.3659 O   0  0  0  0  0  0  0  0  0  0  0  0
   26.2357  -19.3501   -7.1423 C   0  0  0  0  0  0  0  0  0  0  0  0
   25.7544  -21.0021   -7.7177 S   0  0  0  0  0  0  0  0  0  0  0  0
   25.0240  -20.8441   -9.3606 C   0  0  0  0  0  0  0  0  0  0  0  0
   26.0072  -20.4512  -10.4037 C   0  0  0  0  0  0  0  0  0  0  0  0
   25.7194  -20.9823  -11.7801 C   0  0  2  0  0  0  0  0  0  0  0  0
   26.7248  -20.5111  -12.7067 N   0  0  0  0  0  0  0  0  0  0  0  0
   24.3457  -20.6760  -12.2546 C   0  0  0  0  0  0  0  0  0  0  0  0
   24.1146  -19.5642  -12.7924 O   0  0  0  0  0  0  0  0  0  0  0  0
   19.9692  -24.8470  -15.0667 C   0  0  0  0  0  0  0  0  0  0  0  0
   19.0277  -23.9818  -13.7829 S   0  0  0  0  0  0  0  0  0  0  0  0
   19.7972  -22.4356  -13.3205 C   0  0  0  0  0  0  0  0  0  0  0  0
   21.2241  -22.4898  -12.9291 C   0  0  0  0  0  0  0  0  0  0  0  0
   21.9425  -21.2466  -12.5740 C   0  0  2  0  0  0  0  0  0  0  0  0
   23.3068  -21.5973  -12.1158 N   0  0  0  0  0  0  0  0  0  0  0  0
   21.2811  -20.4084  -11.5889 C   0  0  0  0  0  0  0  0  0  0  0  0
   21.4771  -20.5409  -10.3716 O   0  0  0  0  0  0  0  0  0  0  0  0
   20.3741  -19.3915  -11.9635 O   0  0  0  0  0  0  0  0  0  0  0  0
  2  1  1  0
  3  4  1  6
  3  2  1  0
  5  6  2  0
  5  3  1  0
  7  8  1  0
  9  8  1  0
  9 10  1  0
 11 10  1  1
 11 13  1  0
 11 12  1  0
 12  5  1  0
 13 20  1  0
 14 13  2  0
 16 15  1  0
 17 16  1  0
 19 18  1  1
 18 17  1  0
 19 21  1  0
 20 19  1  0
 21 22  2  0
 21 23  1  0
M  END
$$$$
