SMM.pdb
     RDKit          3D

 23 22  0  0  1  0  0  0  0  0999 V2000
   17.7410  -13.6002  -20.9521 O   0  0  0  0  0  0  0  0  0  0  0  0
   18.3281  -13.1900  -19.7691 C   0  0  0  0  0  0  0  0  0  0  0  0
   19.0246  -11.8543  -19.9368 C   0  0  2  0  0  0  0  0  0  0  0  0
   19.9768  -11.8817  -21.0130 N   0  0  0  0  0  0  0  0  0  0  0  0
   19.6125  -11.3867  -18.6554 C   0  0  0  0  0  0  0  0  0  0  0  0
   18.8063  -11.1902  -17.7089 O   0  0  0  0  0  0  0  0  0  0  0  0
   23.4882  -11.2381  -12.7467 C   0  0  0  0  0  0  0  0  0  0  0  0
   22.5730  -11.5819  -14.2751 S   0  0  0  0  0  0  0  0  0  0  0  0
   23.5251  -10.9397  -15.6674 C   0  0  0  0  0  0  0  0  0  0  0  0
   22.9148  -11.2490  -16.9870 C   0  0  0  0  0  0  0  0  0  0  0  0
   21.5411  -10.6778  -17.2010 C   0  0  2  0  0  0  0  0  0  0  0  0
   21.0009  -11.1580  -18.4536 N   0  0  0  0  0  0  0  0  0  0  0  0
   21.4992   -9.1956  -17.1148 C   0  0  0  0  0  0  0  0  0  0  0  0
   21.9885   -8.5114  -18.0482 O   0  0  0  0  0  0  0  0  0  0  0  0
   17.8354   -2.8240  -17.7629 C   0  0  0  0  0  0  0  0  0  0  0  0
   18.0856   -4.6179  -17.8103 S   0  0  0  0  0  0  0  0  0  0  0  0
   19.4599   -5.1261  -16.7857 C   0  0  0  0  0  0  0  0  0  0  0  0
   19.8133   -6.5637  -16.8062 C   0  0  0  0  0  0  0  0  0  0  0  0
   20.9167   -7.0673  -15.9597 C   0  0  2  0  0  0  0  0  0  0  0  0
   20.9274   -8.5473  -16.0192 N   0  0  0  0  0  0  0  0  0  0  0  0
   20.8918   -6.6197  -14.5779 C   0  0  0  0  0  0  0  0  0  0  0  0
   21.0372   -5.4279  -14.2677 O   0  0  0  0  0  0  0  0  0  0  0  0
   20.7000   -7.5202  -13.5058 O   0  0  0  0  0  0  0  0  0  0  0  0
  2  1  1  0
  3  4  1  6
  3  2  1  0
  5  6  2  0
  5  3  1  0
  7  8  1  0
  9  8  1  0
  9 10  1  0
 11 10  1  6
 11 13  1  0
 11 12  1  0
 12  5  1  0
 13 20  1  0
 14 13  2  0
 16 15  1  0
 17 16  1  0
 19 18  1  6
 18 17  1  0
 19 21  1  0
 20 19  1  0
 21 22  2  0
 21 23  1  0
M  END
$$$$
