SMM.pdb
     RDKit          3D

 23 22  0  0  1  0  0  0  0  0999 V2000
   29.4695  -19.5497  -21.0905 O   0  0  0  0  0  0  0  0  0  0  0  0
   30.8165  -19.5422  -20.7775 C   0  0  0  0  0  0  0  0  0  0  0  0
   31.0502  -19.0235  -19.3727 C   0  0  2  0  0  0  0  0  0  0  0  0
   30.2691  -19.7415  -18.4032 N   0  0  0  0  0  0  0  0  0  0  0  0
   30.8539  -17.5529  -19.2998 C   0  0  0  0  0  0  0  0  0  0  0  0
   29.8770  -17.1524  -18.6146 O   0  0  0  0  0  0  0  0  0  0  0  0
   36.6299  -13.7711  -18.7049 C   0  0  0  0  0  0  0  0  0  0  0  0
   35.3129  -13.6044  -19.9417 S   0  0  0  0  0  0  0  0  0  0  0  0
   33.8734  -14.5318  -19.3714 C   0  0  0  0  0  0  0  0  0  0  0  0
   32.7172  -14.4497  -20.3019 C   0  0  0  0  0  0  0  0  0  0  0  0
   31.4833  -15.1778  -19.8474 C   0  0  2  0  0  0  0  0  0  0  0  0
   31.6924  -16.6053  -19.9476 N   0  0  0  0  0  0  0  0  0  0  0  0
   30.2512  -14.7500  -20.5582 C   0  0  0  0  0  0  0  0  0  0  0  0
   29.9681  -15.2710  -21.6659 O   0  0  0  0  0  0  0  0  0  0  0  0
   23.8727  -16.1004  -20.2103 C   0  0  0  0  0  0  0  0  0  0  0  0
   24.2921  -14.4599  -19.5652 S   0  0  0  0  0  0  0  0  0  0  0  0
   25.6258  -13.7035  -20.4848 C   0  0  0  0  0  0  0  0  0  0  0  0
   27.0027  -13.9840  -20.0183 C   0  0  0  0  0  0  0  0  0  0  0  0
   28.1600  -13.4092  -20.7379 C   0  0  2  0  0  0  0  0  0  0  0  0
   29.4015  -13.7820  -20.0211 N   0  0  0  0  0  0  0  0  0  0  0  0
   28.1104  -11.9720  -20.9436 C   0  0  0  0  0  0  0  0  0  0  0  0
   28.9530  -11.2058  -20.4531 O   0  0  0  0  0  0  0  0  0  0  0  0
   27.0957  -11.3640  -21.7168 O   0  0  0  0  0  0  0  0  0  0  0  0
  2  1  1  0
  3  4  1  1
  3  2  1  0
  5  6  2  0
  5  3  1  0
  7  8  1  0
  9  8  1  0
  9 10  1  0
 11 10  1  6
 11 13  1  0
 11 12  1  0
 12  5  1  0
 13 20  1  0
 14 13  2  0
 16 15  1  0
 17 16  1  0
 19 18  1  1
 18 17  1  0
 19 21  1  0
 20 19  1  0
 21 22  2  0
 21 23  1  0
M  END
$$$$
