SMM.pdb
     RDKit          3D

 23 22  0  0  1  0  0  0  0  0999 V2000
   21.8223   -8.6301  -14.4754 O   0  0  0  0  0  0  0  0  0  0  0  0
   21.0093   -9.7470  -14.5395 C   0  0  0  0  0  0  0  0  0  0  0  0
   20.5884  -10.0378  -15.9661 C   0  0  2  0  0  0  0  0  0  0  0  0
   21.7216  -10.1511  -16.8429 N   0  0  0  0  0  0  0  0  0  0  0  0
   19.5826   -9.0548  -16.4440 C   0  0  0  0  0  0  0  0  0  0  0  0
   19.9926   -8.1854  -17.2567 O   0  0  0  0  0  0  0  0  0  0  0  0
   13.1141   -9.4425  -15.2177 C   0  0  0  0  0  0  0  0  0  0  0  0
   13.1437   -8.4934  -16.7637 S   0  0  0  0  0  0  0  0  0  0  0  0
   14.7938   -7.7925  -16.9719 C   0  0  0  0  0  0  0  0  0  0  0  0
   15.8686   -8.6433  -16.3973 C   0  0  0  0  0  0  0  0  0  0  0  0
   17.2592   -8.0901  -16.5363 C   0  0  2  0  0  0  0  0  0  0  0  0
   18.2199   -9.0501  -16.0394 N   0  0  0  0  0  0  0  0  0  0  0  0
   17.4303   -6.7591  -15.8997 C   0  0  0  0  0  0  0  0  0  0  0  0
   17.7702   -6.6943  -14.6918 O   0  0  0  0  0  0  0  0  0  0  0  0
   18.2230    1.0494  -17.3074 C   0  0  0  0  0  0  0  0  0  0  0  0
   17.9677   -0.6319  -17.9329 S   0  0  0  0  0  0  0  0  0  0  0  0
   17.7907   -1.8166  -16.6056 C   0  0  0  0  0  0  0  0  0  0  0  0
   17.6119   -3.2341  -16.9942 C   0  0  0  0  0  0  0  0  0  0  0  0
   17.4239   -4.2691  -15.9544 C   0  0  2  0  0  0  0  0  0  0  0  0
   17.2219   -5.5793  -16.6153 N   0  0  0  0  0  0  0  0  0  0  0  0
   16.3504   -4.0113  -15.0102 C   0  0  0  0  0  0  0  0  0  0  0  0
   15.2037   -4.4527  -15.1783 O   0  0  0  0  0  0  0  0  0  0  0  0
   16.5528   -3.2405  -13.8433 O   0  0  0  0  0  0  0  0  0  0  0  0
  2  1  1  0
  3  4  1  6
  3  2  1  0
  5  6  2  0
  5  3  1  0
  7  8  1  0
  9  8  1  0
  9 10  1  0
 11 10  1  1
 11 13  1  0
 11 12  1  0
 12  5  1  0
 13 20  1  0
 14 13  2  0
 16 15  1  0
 17 16  1  0
 19 18  1  6
 18 17  1  0
 19 21  1  0
 20 19  1  0
 21 22  2  0
 21 23  1  0
M  END
$$$$
