SMM.pdb
     RDKit          3D

 23 22  0  0  1  0  0  0  0  0999 V2000
   17.5549  -10.4613  -19.8903 O   0  0  0  0  0  0  0  0  0  0  0  0
   18.0215  -10.0101  -18.6692 C   0  0  0  0  0  0  0  0  0  0  0  0
   18.6391  -11.1381  -17.8672 C   0  0  2  0  0  0  0  0  0  0  0  0
   17.6409  -11.9143  -17.1841 N   0  0  0  0  0  0  0  0  0  0  0  0
   19.7034  -10.6368  -16.9602 C   0  0  0  0  0  0  0  0  0  0  0  0
   19.3865  -10.4963  -15.7502 O   0  0  0  0  0  0  0  0  0  0  0  0
   27.1822  -10.6528  -14.8489 C   0  0  0  0  0  0  0  0  0  0  0  0
   25.9308  -11.1851  -16.0500 S   0  0  0  0  0  0  0  0  0  0  0  0
   24.4366  -10.2069  -15.7890 C   0  0  0  0  0  0  0  0  0  0  0  0
   23.3087  -10.6145  -16.6672 C   0  0  0  0  0  0  0  0  0  0  0  0
   22.0391   -9.8335  -16.4739 C   0  0  2  0  0  0  0  0  0  0  0  0
   21.0231  -10.3184  -17.3817 N   0  0  0  0  0  0  0  0  0  0  0  0
   22.2271   -8.3647  -16.5908 C   0  0  0  0  0  0  0  0  0  0  0  0
   22.5779   -7.8756  -17.6937 O   0  0  0  0  0  0  0  0  0  0  0  0
   19.1871   -1.8082  -17.6831 C   0  0  0  0  0  0  0  0  0  0  0  0
   19.2360   -3.6005  -17.4218 S   0  0  0  0  0  0  0  0  0  0  0  0
   20.6840   -4.0999  -16.4996 C   0  0  0  0  0  0  0  0  0  0  0  0
   20.8985   -5.5547  -16.3281 C   0  0  0  0  0  0  0  0  0  0  0  0
   22.1304   -6.0501  -15.6764 C   0  0  2  0  0  0  0  0  0  0  0  0
   22.0217   -7.5170  -15.5015 N   0  0  0  0  0  0  0  0  0  0  0  0
   22.4605   -5.4160  -14.4118 C   0  0  0  0  0  0  0  0  0  0  0  0
   22.3501   -6.0084  -13.3280 O   0  0  0  0  0  0  0  0  0  0  0  0
   22.9274   -4.0839  -14.3451 O   0  0  0  0  0  0  0  0  0  0  0  0
  2  1  1  0
  3  4  1  1
  3  2  1  0
  5  6  2  0
  5  3  1  0
  7  8  1  0
  9  8  1  0
  9 10  1  0
 11 10  1  6
 11 13  1  0
 11 12  1  0
 12  5  1  0
 13 20  1  0
 14 13  2  0
 16 15  1  0
 17 16  1  0
 19 18  1  1
 18 17  1  0
 19 21  1  0
 20 19  1  0
 21 22  2  0
 21 23  1  0
M  END
$$$$
