SMM.pdb
     RDKit          3D

 23 22  0  0  1  0  0  0  0  0999 V2000
   26.7318  -18.7939  -16.1130 O   0  0  0  0  0  0  0  0  0  0  0  0
   27.8689  -18.8365  -15.3271 C   0  0  0  0  0  0  0  0  0  0  0  0
   28.1927  -20.2564  -14.9074 C   0  0  2  0  0  0  0  0  0  0  0  0
   28.4838  -21.0929  -16.0392 N   0  0  0  0  0  0  0  0  0  0  0  0
   27.1318  -20.8163  -14.0313 C   0  0  0  0  0  0  0  0  0  0  0  0
   26.3850  -21.6894  -14.5455 O   0  0  0  0  0  0  0  0  0  0  0  0
   26.9601  -19.7948   -7.6764 C   0  0  0  0  0  0  0  0  0  0  0  0
   25.3184  -20.5601   -7.7824 S   0  0  0  0  0  0  0  0  0  0  0  0
   25.0423  -21.0855   -9.4868 C   0  0  0  0  0  0  0  0  0  0  0  0
   26.0311  -20.5202  -10.4418 C   0  0  0  0  0  0  0  0  0  0  0  0
   25.8403  -20.9354  -11.8737 C   0  0  2  0  0  0  0  0  0  0  0  0
   26.9266  -20.4247  -12.6803 N   0  0  0  0  0  0  0  0  0  0  0  0
   24.5160  -20.5527  -12.4268 C   0  0  0  0  0  0  0  0  0  0  0  0
   24.3858  -19.4407  -12.9970 O   0  0  0  0  0  0  0  0  0  0  0  0
   20.0790  -20.6515  -17.7533 C   0  0  0  0  0  0  0  0  0  0  0  0
   21.4382  -20.7478  -16.5590 S   0  0  0  0  0  0  0  0  0  0  0  0
   21.1482  -22.0036  -15.3198 C   0  0  0  0  0  0  0  0  0  0  0  0
   22.1628  -22.1334  -14.2494 C   0  0  0  0  0  0  0  0  0  0  0  0
   22.2074  -21.1477  -13.1475 C   0  0  2  0  0  0  0  0  0  0  0  0
   23.4138  -21.4027  -12.3267 N   0  0  0  0  0  0  0  0  0  0  0  0
   21.0250  -21.1065  -12.3045 C   0  0  0  0  0  0  0  0  0  0  0  0
   20.9155  -21.8068  -11.2870 O   0  0  0  0  0  0  0  0  0  0  0  0
   19.9294  -20.2634  -12.5975 O   0  0  0  0  0  0  0  0  0  0  0  0
  2  1  1  0
  3  4  1  6
  3  2  1  0
  5  6  2  0
  5  3  1  0
  7  8  1  0
  9  8  1  0
  9 10  1  0
 11 10  1  1
 11 13  1  0
 11 12  1  0
 12  5  1  0
 13 20  1  0
 14 13  2  0
 16 15  1  0
 17 16  1  0
 19 18  1  6
 18 17  1  0
 19 21  1  0
 20 19  1  0
 21 22  2  0
 21 23  1  0
M  END
$$$$
