SMM.pdb
     RDKit          3D

 23 22  0  0  1  0  0  0  0  0999 V2000
   29.5980  -19.1444  -17.1723 O   0  0  0  0  0  0  0  0  0  0  0  0
   28.8118  -19.1899  -16.0355 C   0  0  0  0  0  0  0  0  0  0  0  0
   27.4970  -18.4668  -16.2486 C   0  0  2  0  0  0  0  0  0  0  0  0
   27.6960  -17.0709  -16.5268 N   0  0  0  0  0  0  0  0  0  0  0  0
   26.5604  -18.7045  -15.1204 C   0  0  0  0  0  0  0  0  0  0  0  0
   26.5181  -17.8141  -14.2317 O   0  0  0  0  0  0  0  0  0  0  0  0
   20.0592  -22.3689  -12.5611 C   0  0  0  0  0  0  0  0  0  0  0  0
   21.2555  -22.1691  -13.9105 S   0  0  0  0  0  0  0  0  0  0  0  0
   22.6012  -21.1161  -13.3294 C   0  0  0  0  0  0  0  0  0  0  0  0
   23.6297  -20.8521  -14.3694 C   0  0  0  0  0  0  0  0  0  0  0  0
   24.8093  -20.0442  -13.9056 C   0  0  2  0  0  0  0  0  0  0  0  0
   25.7343  -19.8551  -15.0011 N   0  0  0  0  0  0  0  0  0  0  0  0
   25.4806  -20.6146  -12.7096 C   0  0  0  0  0  0  0  0  0  0  0  0
   26.1752  -21.6544  -12.8318 O   0  0  0  0  0  0  0  0  0  0  0  0
   29.8084  -19.5316   -7.6421 C   0  0  0  0  0  0  0  0  0  0  0  0
   28.0866  -19.3117   -7.1223 S   0  0  0  0  0  0  0  0  0  0  0  0
   26.9743  -20.3719   -8.0363 C   0  0  0  0  0  0  0  0  0  0  0  0
   26.6384  -19.9564   -9.4172 C   0  0  0  0  0  0  0  0  0  0  0  0
   25.7227  -20.7797  -10.2364 C   0  0  2  0  0  0  0  0  0  0  0  0
   25.3561  -20.0194  -11.4536 N   0  0  0  0  0  0  0  0  0  0  0  0
   24.5269  -21.2427   -9.5535 C   0  0  0  0  0  0  0  0  0  0  0  0
   23.3977  -20.8167   -9.8384 O   0  0  0  0  0  0  0  0  0  0  0  0
   24.5834  -22.2076   -8.5226 O   0  0  0  0  0  0  0  0  0  0  0  0
  2  1  1  0
  3  4  1  1
  3  2  1  0
  5  6  2  0
  5  3  1  0
  7  8  1  0
  9  8  1  0
  9 10  1  0
 11 10  1  6
 11 13  1  0
 11 12  1  0
 12  5  1  0
 13 20  1  0
 14 13  2  0
 16 15  1  0
 17 16  1  0
 19 18  1  1
 18 17  1  0
 19 21  1  0
 20 19  1  0
 21 22  2  0
 21 23  1  0
M  END
$$$$
