SMM.pdb
     RDKit          3D

 23 22  0  0  1  0  0  0  0  0999 V2000
   28.2060  -18.0070  -15.4760 O   0  0  0  0  0  0  0  0  0  0  0  0
   27.5148  -18.6825  -14.4870 C   0  0  0  0  0  0  0  0  0  0  0  0
   28.0728  -20.0767  -14.2823 C   0  0  2  0  0  0  0  0  0  0  0  0
   28.3989  -20.7083  -15.5315 N   0  0  0  0  0  0  0  0  0  0  0  0
   27.1727  -20.9002  -13.4349 C   0  0  0  0  0  0  0  0  0  0  0  0
   26.5378  -21.8164  -14.0194 O   0  0  0  0  0  0  0  0  0  0  0  0
   28.1161  -20.3621   -7.3416 C   0  0  0  0  0  0  0  0  0  0  0  0
   26.4882  -19.5916   -7.5613 S   0  0  0  0  0  0  0  0  0  0  0  0
   26.0271  -19.7178   -9.3017 C   0  0  0  0  0  0  0  0  0  0  0  0
   26.1081  -21.1046   -9.8304 C   0  0  0  0  0  0  0  0  0  0  0  0
   25.8680  -21.2360  -11.3083 C   0  0  2  0  0  0  0  0  0  0  0  0
   27.0003  -20.7083  -12.0370 N   0  0  0  0  0  0  0  0  0  0  0  0
   24.5910  -20.6228  -11.7547 C   0  0  0  0  0  0  0  0  0  0  0  0
   24.5384  -19.3821  -11.9459 O   0  0  0  0  0  0  0  0  0  0  0  0
   22.2276  -21.2521  -17.3215 C   0  0  0  0  0  0  0  0  0  0  0  0
   20.7306  -21.5999  -16.3618 S   0  0  0  0  0  0  0  0  0  0  0  0
   20.8416  -20.9556  -14.6977 C   0  0  0  0  0  0  0  0  0  0  0  0
   22.0690  -21.2798  -13.9358 C   0  0  0  0  0  0  0  0  0  0  0  0
   22.2375  -20.7786  -12.5545 C   0  0  2  0  0  0  0  0  0  0  0  0
   23.4487  -21.3960  -11.9664 N   0  0  0  0  0  0  0  0  0  0  0  0
   21.0955  -20.9784  -11.6790 C   0  0  0  0  0  0  0  0  0  0  0  0
   21.0930  -21.8362  -10.7834 O   0  0  0  0  0  0  0  0  0  0  0  0
   19.9194  -20.2043  -11.7990 O   0  0  0  0  0  0  0  0  0  0  0  0
  2  1  1  0
  3  4  1  6
  3  2  1  0
  5  6  2  0
  5  3  1  0
  7  8  1  0
  9  8  1  0
  9 10  1  0
 11 10  1  1
 11 13  1  0
 11 12  1  0
 12  5  1  0
 13 20  1  0
 14 13  2  0
 16 15  1  0
 17 16  1  0
 19 18  1  6
 18 17  1  0
 19 21  1  0
 20 19  1  0
 21 22  2  0
 21 23  1  0
M  END
$$$$
