SMM.pdb
     RDKit          3D

 23 22  0  0  1  0  0  0  0  0999 V2000
   30.8016   -7.9951  -19.6920 O   0  0  0  0  0  0  0  0  0  0  0  0
   31.6100   -9.0910  -19.9329 C   0  0  0  0  0  0  0  0  0  0  0  0
   31.4793  -10.1220  -18.8297 C   0  0  2  0  0  0  0  0  0  0  0  0
   30.1252  -10.5826  -18.6891 N   0  0  0  0  0  0  0  0  0  0  0  0
   32.0572   -9.6254  -17.5546 C   0  0  0  0  0  0  0  0  0  0  0  0
   31.2366   -9.2404  -16.6812 O   0  0  0  0  0  0  0  0  0  0  0  0
   37.7169  -10.3419  -12.2145 C   0  0  0  0  0  0  0  0  0  0  0  0
   37.0353  -10.8730  -13.8100 S   0  0  0  0  0  0  0  0  0  0  0  0
   35.7066   -9.7409  -14.2685 C   0  0  0  0  0  0  0  0  0  0  0  0
   35.0859  -10.0661  -15.5794 C   0  0  0  0  0  0  0  0  0  0  0  0
   33.9822   -9.1397  -16.0068 C   0  0  2  0  0  0  0  0  0  0  0  0
   33.4511   -9.5667  -17.2824 N   0  0  0  0  0  0  0  0  0  0  0  0
   34.3874   -7.7109  -16.0289 C   0  0  0  0  0  0  0  0  0  0  0  0
   35.0663   -7.2792  -16.9939 O   0  0  0  0  0  0  0  0  0  0  0  0
   32.1063   -0.3843  -14.7748 C   0  0  0  0  0  0  0  0  0  0  0  0
   31.8221   -2.1705  -14.6659 S   0  0  0  0  0  0  0  0  0  0  0  0
   33.3368   -3.0993  -14.8654 C   0  0  0  0  0  0  0  0  0  0  0  0
   33.2161   -4.5743  -14.9057 C   0  0  0  0  0  0  0  0  0  0  0  0
   34.4238   -5.4121  -15.0711 C   0  0  2  0  0  0  0  0  0  0  0  0
   34.0295   -6.8382  -15.0004 N   0  0  0  0  0  0  0  0  0  0  0  0
   35.4995   -5.1407  -14.1333 C   0  0  0  0  0  0  0  0  0  0  0  0
   36.2446   -4.1564  -14.2508 O   0  0  0  0  0  0  0  0  0  0  0  0
   35.7586   -5.9859  -13.0307 O   0  0  0  0  0  0  0  0  0  0  0  0
  2  1  1  0
  3  4  1  1
  3  2  1  0
  5  6  2  0
  5  3  1  0
  7  8  1  0
  9  8  1  0
  9 10  1  0
 11 10  1  6
 11 13  1  0
 11 12  1  0
 12  5  1  0
 13 20  1  0
 14 13  2  0
 16 15  1  0
 17 16  1  0
 19 18  1  1
 18 17  1  0
 19 21  1  0
 20 19  1  0
 21 22  2  0
 21 23  1  0
M  END
$$$$
