SMM.pdb
     RDKit          3D

 23 22  0  0  1  0  0  0  0  0999 V2000
   16.0861  -12.8938  -10.9457 O   0  0  0  0  0  0  0  0  0  0  0  0
   16.0327  -11.5697  -11.3413 C   0  0  0  0  0  0  0  0  0  0  0  0
   15.2398  -10.7345  -10.3560 C   0  0  2  0  0  0  0  0  0  0  0  0
   13.8531  -11.1114  -10.3335 N   0  0  0  0  0  0  0  0  0  0  0  0
   15.4412   -9.2821  -10.5937 C   0  0  0  0  0  0  0  0  0  0  0  0
   14.7786   -8.7723  -11.5347 O   0  0  0  0  0  0  0  0  0  0  0  0
   12.2522   -5.0307   -7.6113 C   0  0  0  0  0  0  0  0  0  0  0  0
   14.0608   -4.9344   -7.7189 S   0  0  0  0  0  0  0  0  0  0  0  0
   14.6173   -6.0700   -9.0066 C   0  0  0  0  0  0  0  0  0  0  0  0
   16.0972   -6.1794   -9.0919 C   0  0  0  0  0  0  0  0  0  0  0  0
   16.6055   -7.0898  -10.1745 C   0  0  2  0  0  0  0  0  0  0  0  0
   16.3200   -8.4654   -9.8312 N   0  0  0  0  0  0  0  0  0  0  0  0
   18.0430   -6.8870  -10.4884 C   0  0  0  0  0  0  0  0  0  0  0  0
   18.9062   -7.5764   -9.8899 O   0  0  0  0  0  0  0  0  0  0  0  0
   23.2746   -9.3519  -14.3264 C   0  0  0  0  0  0  0  0  0  0  0  0
   21.9286   -9.0281  -13.1575 S   0  0  0  0  0  0  0  0  0  0  0  0
   20.7635   -7.8326  -13.7978 C   0  0  0  0  0  0  0  0  0  0  0  0
   19.6567   -7.4306  -12.9003 C   0  0  0  0  0  0  0  0  0  0  0  0
   19.7249   -6.1465  -12.1694 C   0  0  2  0  0  0  0  0  0  0  0  0
   18.4545   -5.9471  -11.4343 N   0  0  0  0  0  0  0  0  0  0  0  0
   20.0207   -4.9829  -12.9872 C   0  0  0  0  0  0  0  0  0  0  0  0
   19.1373   -4.3663  -13.6014 O   0  0  0  0  0  0  0  0  0  0  0  0
   21.3361   -4.4864  -13.1295 O   0  0  0  0  0  0  0  0  0  0  0  0
  2  1  1  0
  3  4  1  6
  3  2  1  0
  5  6  2  0
  5  3  1  0
  7  8  1  0
  9  8  1  0
  9 10  1  0
 11 10  1  1
 11 13  1  0
 11 12  1  0
 12  5  1  0
 13 20  1  0
 14 13  2  0
 16 15  1  0
 17 16  1  0
 19 18  1  6
 18 17  1  0
 19 21  1  0
 20 19  1  0
 21 22  2  0
 21 23  1  0
M  END
$$$$
