DLK.pdb
     RDKit          3D

 26 25  0  0  1  0  0  0  0  0999 V2000
   10.1855  -18.7411   18.2164 N   0  0  0  0  0  0  0  0  0  0  0  0
    9.2328  -18.0870   19.1126 C   0  0  1  0  0  0  0  0  0  0  0  0
    8.7454  -19.1701   20.0642 C   0  0  0  0  0  0  0  0  0  0  0  0
    7.9526  -20.1800   19.2826 C   0  0  0  0  0  0  0  0  0  0  0  0
    6.9400  -19.8605   18.6224 O   0  0  0  0  0  0  0  0  0  0  0  0
    9.9871  -17.0874   19.9080 C   0  0  0  0  0  0  0  0  0  0  0  0
   10.9554  -17.4224   20.6700 O   0  0  0  0  0  0  0  0  0  0  0  0
    8.3569  -21.5014   19.2956 O   0  0  0  0  0  0  0  0  0  0  0  0
    8.1043  -12.6347   19.7379 C   0  0  0  0  0  0  0  0  0  0  0  0
    7.3391  -13.9460   19.9229 C   0  0  2  0  0  0  0  0  0  0  0  0
    5.8874  -13.6238   20.0007 C   0  0  0  0  0  0  0  0  0  0  0  0
    7.9104  -14.6029   21.1568 C   0  0  0  0  0  0  0  0  0  0  0  0
    9.3850  -14.9045   21.0504 C   0  0  2  0  0  0  0  0  0  0  0  0
    9.6872  -15.6976   19.8779 N   0  0  0  0  0  0  0  0  0  0  0  0
   10.0189  -15.3802   22.2740 C   0  0  0  0  0  0  0  0  0  0  0  0
    9.8313  -14.7302   23.3536 O   0  0  0  0  0  0  0  0  0  0  0  0
   10.8339  -16.5252   22.3482 N   0  0  0  0  0  0  0  0  0  0  0  0
   11.5169  -16.9208   23.6379 C   0  0  1  0  0  0  0  0  0  0  0  0
   11.0046  -18.2815   23.9674 C   0  0  0  0  0  0  0  0  0  0  0  0
   11.4491  -19.0297   25.1235 C   0  0  0  0  0  0  0  0  0  0  0  0
   10.9587  -20.3680   25.4685 C   0  0  0  0  0  0  0  0  0  0  0  0
   11.5265  -20.8647   26.7911 C   0  0  0  0  0  0  0  0  0  0  0  0
   10.9159  -22.1711   27.0445 N   0  0  0  0  0  0  0  0  0  0  0  0
   12.9385  -16.7148   23.4607 C   0  0  0  0  0  0  0  0  0  0  0  0
   13.8336  -16.5032   24.4684 O   0  0  0  0  0  0  0  0  0  0  0  0
   13.4548  -16.7131   22.2788 O   0  0  0  0  0  0  0  0  0  0  0  0
  2  1  1  6
  2  3  1  0
  3  4  1  0
  4  8  1  0
  5  4  2  0
  6  7  2  0
  6  2  1  0
 10 11  1  1
 10  9  1  0
 10 12  1  0
 13 12  1  1
 13 14  1  0
 14  6  1  0
 15 13  1  0
 16 15  2  0
 17 15  1  0
 18 17  1  0
 19 20  1  0
 18 19  1  6
 20 21  1  0
 21 22  1  0
 23 22  1  0
 24 18  1  0
 24 25  1  0
 26 24  2  0
M  END
$$$$
