DLK.pdb
     RDKit          3D

 26 25  0  0  1  0  0  0  0  0999 V2000
    8.9777  -17.0132   22.0264 N   0  0  0  0  0  0  0  0  0  0  0  0
   10.2672  -16.7999   22.6825 C   0  0  1  0  0  0  0  0  0  0  0  0
   11.1781  -16.1958   21.6236 C   0  0  0  0  0  0  0  0  0  0  0  0
   11.4859  -17.2464   20.5935 C   0  0  0  0  0  0  0  0  0  0  0  0
   10.9763  -18.3873   20.6377 O   0  0  0  0  0  0  0  0  0  0  0  0
   10.0624  -15.7819   23.7420 C   0  0  0  0  0  0  0  0  0  0  0  0
   11.0423  -15.2362   24.3523 O   0  0  0  0  0  0  0  0  0  0  0  0
   12.3590  -16.9397   19.5671 O   0  0  0  0  0  0  0  0  0  0  0  0
    5.3719  -12.4313   26.0771 C   0  0  0  0  0  0  0  0  0  0  0  0
    6.8722  -12.7224   26.1402 C   0  0  2  0  0  0  0  0  0  0  0  0
    7.5984  -11.4405   25.9240 C   0  0  0  0  0  0  0  0  0  0  0  0
    7.1438  -13.7881   25.1053 C   0  0  0  0  0  0  0  0  0  0  0  0
    8.5325  -14.3719   25.1924 C   0  0  2  0  0  0  0  0  0  0  0  0
    8.7713  -15.3460   24.1488 N   0  0  0  0  0  0  0  0  0  0  0  0
    8.9503  -14.8036   26.5207 C   0  0  0  0  0  0  0  0  0  0  0  0
    8.7516  -14.0243   27.5087 O   0  0  0  0  0  0  0  0  0  0  0  0
    9.5650  -16.0401   26.7928 N   0  0  0  0  0  0  0  0  0  0  0  0
    9.9234  -16.4450   28.2048 C   0  0  1  0  0  0  0  0  0  0  0  0
   10.3392  -17.8744   28.1236 C   0  0  0  0  0  0  0  0  0  0  0  0
   10.7460  -18.6413   29.2815 C   0  0  0  0  0  0  0  0  0  0  0  0
   11.2061  -20.0323   29.2196 C   0  0  0  0  0  0  0  0  0  0  0  0
   11.5778  -20.5762   30.5923 C   0  0  0  0  0  0  0  0  0  0  0  0
   11.8640  -22.0010   30.4145 N   0  0  0  0  0  0  0  0  0  0  0  0
   10.8485  -15.4588   28.7210 C   0  0  0  0  0  0  0  0  0  0  0  0
   10.9213  -15.0545   30.0220 O   0  0  0  0  0  0  0  0  0  0  0  0
   11.6883  -14.8774   27.9335 O   0  0  0  0  0  0  0  0  0  0  0  0
  2  1  1  6
  2  3  1  0
  3  4  1  0
  4  8  1  0
  5  4  2  0
  6  7  2  0
  6  2  1  0
 10 11  1  6
 10  9  1  0
 10 12  1  0
 13 12  1  1
 13 14  1  0
 14  6  1  0
 15 13  1  0
 16 15  2  0
 17 15  1  0
 18 17  1  0
 19 20  1  0
 18 19  1  6
 20 21  1  0
 21 22  1  0
 23 22  1  0
 24 18  1  0
 24 25  1  0
 26 24  2  0
M  END
$$$$
