DLK.pdb
     RDKit          3D

 26 25  0  0  1  0  0  0  0  0999 V2000
    8.5184  -16.4610   21.2509 N   0  0  0  0  0  0  0  0  0  0  0  0
    9.8025  -16.5605   21.9437 C   0  0  1  0  0  0  0  0  0  0  0  0
   10.8195  -15.8866   21.0341 C   0  0  0  0  0  0  0  0  0  0  0  0
   10.9397  -16.6858   19.7666 C   0  0  0  0  0  0  0  0  0  0  0  0
   10.2418  -17.7013   19.5548 O   0  0  0  0  0  0  0  0  0  0  0  0
    9.6991  -15.7565   23.1861 C   0  0  0  0  0  0  0  0  0  0  0  0
   10.7265  -15.4518   23.8805 O   0  0  0  0  0  0  0  0  0  0  0  0
   11.8499  -16.2839   18.8075 O   0  0  0  0  0  0  0  0  0  0  0  0
    5.3865  -12.6856   26.4158 C   0  0  0  0  0  0  0  0  0  0  0  0
    6.8636  -13.0774   26.3502 C   0  0  2  0  0  0  0  0  0  0  0  0
    7.6751  -11.8430   26.5365 C   0  0  0  0  0  0  0  0  0  0  0  0
    7.0618  -13.7732   25.0246 C   0  0  0  0  0  0  0  0  0  0  0  0
    8.2929  -14.6446   24.9802 C   0  0  2  0  0  0  0  0  0  0  0  0
    8.4591  -15.2728   23.6869 N   0  0  0  0  0  0  0  0  0  0  0  0
    8.4638  -15.5488   26.1109 C   0  0  0  0  0  0  0  0  0  0  0  0
    8.4865  -15.0607   27.2874 O   0  0  0  0  0  0  0  0  0  0  0  0
    8.6053  -16.9440   25.9926 N   0  0  0  0  0  0  0  0  0  0  0  0
    8.8031  -17.8193   27.2096 C   0  0  1  0  0  0  0  0  0  0  0  0
    7.9550  -19.0246   26.9844 C   0  0  0  0  0  0  0  0  0  0  0  0
    7.8987  -20.1308   27.9157 C   0  0  0  0  0  0  0  0  0  0  0  0
    7.1204  -21.3525   27.6871 C   0  0  0  0  0  0  0  0  0  0  0  0
    7.1995  -22.3131   28.8657 C   0  0  0  0  0  0  0  0  0  0  0  0
    6.2410  -23.3865   28.5958 N   0  0  0  0  0  0  0  0  0  0  0  0
   10.2281  -17.9742   27.4098 C   0  0  0  0  0  0  0  0  0  0  0  0
   10.8344  -18.1838   28.6139 O   0  0  0  0  0  0  0  0  0  0  0  0
   11.0381  -17.9103   26.4082 O   0  0  0  0  0  0  0  0  0  0  0  0
  2  1  1  6
  2  3  1  0
  3  4  1  0
  4  8  1  0
  5  4  2  0
  6  7  2  0
  6  2  1  0
 10 11  1  6
 10  9  1  0
 10 12  1  0
 13 12  1  6
 13 14  1  0
 14  6  1  0
 15 13  1  0
 16 15  2  0
 17 15  1  0
 18 17  1  0
 19 20  1  0
 18 19  1  6
 20 21  1  0
 21 22  1  0
 23 22  1  0
 24 18  1  0
 24 25  1  0
 26 24  2  0
M  END
$$$$
