DLK.pdb
     RDKit          3D

 26 25  0  0  1  0  0  0  0  0999 V2000
    8.4852  -16.5009   21.0829 N   0  0  0  0  0  0  0  0  0  0  0  0
    9.8263  -16.5055   21.6661 C   0  0  1  0  0  0  0  0  0  0  0  0
   10.7098  -15.7495   20.6843 C   0  0  0  0  0  0  0  0  0  0  0  0
   12.1401  -16.1525   20.9108 C   0  0  0  0  0  0  0  0  0  0  0  0
   13.0964  -15.4770   20.4721 O   0  0  0  0  0  0  0  0  0  0  0  0
    9.7657  -15.7197   22.9230 C   0  0  0  0  0  0  0  0  0  0  0  0
   10.8128  -15.4532   23.6037 O   0  0  0  0  0  0  0  0  0  0  0  0
   12.4039  -17.3052   21.6261 O   0  0  0  0  0  0  0  0  0  0  0  0
    5.6137  -12.5257   26.2573 C   0  0  0  0  0  0  0  0  0  0  0  0
    7.0609  -13.0140   26.1760 C   0  0  2  0  0  0  0  0  0  0  0  0
    7.9540  -11.8357   26.3528 C   0  0  0  0  0  0  0  0  0  0  0  0
    7.1986  -13.7212   24.8488 C   0  0  0  0  0  0  0  0  0  0  0  0
    8.4205  -14.6019   24.7597 C   0  0  2  0  0  0  0  0  0  0  0  0
    8.5477  -15.2124   23.4535 N   0  0  0  0  0  0  0  0  0  0  0  0
    8.6129  -15.5240   25.8723 C   0  0  0  0  0  0  0  0  0  0  0  0
    8.5856  -15.0646   27.0603 O   0  0  0  0  0  0  0  0  0  0  0  0
    8.8276  -16.9071   25.7244 N   0  0  0  0  0  0  0  0  0  0  0  0
    8.9190  -17.8206   26.9258 C   0  0  1  0  0  0  0  0  0  0  0  0
    8.6764  -19.1973   26.4079 C   0  0  0  0  0  0  0  0  0  0  0  0
    7.4069  -19.6158   25.8534 C   0  0  0  0  0  0  0  0  0  0  0  0
    7.1471  -20.9615   25.3318 C   0  0  0  0  0  0  0  0  0  0  0  0
    5.7006  -21.1370   24.8899 C   0  0  0  0  0  0  0  0  0  0  0  0
    5.5883  -22.4953   24.3550 N   0  0  0  0  0  0  0  0  0  0  0  0
   10.1592  -17.5212   27.6092 C   0  0  0  0  0  0  0  0  0  0  0  0
   10.3561  -17.6122   28.9562 O   0  0  0  0  0  0  0  0  0  0  0  0
   11.1910  -17.1253   26.9444 O   0  0  0  0  0  0  0  0  0  0  0  0
  2  1  1  6
  2  3  1  0
  3  4  1  0
  4  8  1  0
  5  4  2  0
  6  7  2  0
  6  2  1  0
 10 11  1  6
 10  9  1  0
 10 12  1  0
 13 12  1  1
 13 14  1  0
 14  6  1  0
 15 13  1  0
 16 15  2  0
 17 15  1  0
 18 17  1  0
 19 20  1  0
 18 19  1  6
 20 21  1  0
 21 22  1  0
 23 22  1  0
 24 18  1  0
 24 25  1  0
 26 24  2  0
M  END
$$$$
