DLK.pdb
     RDKit          3D

 26 25  0  0  1  0  0  0  0  0999 V2000
    7.9213  -16.7611   21.1919 N   0  0  0  0  0  0  0  0  0  0  0  0
    9.3564  -16.6246   21.4385 C   0  0  1  0  0  0  0  0  0  0  0  0
    9.9437  -16.0368   20.1635 C   0  0  0  0  0  0  0  0  0  0  0  0
    9.9075  -17.0844   19.0861 C   0  0  0  0  0  0  0  0  0  0  0  0
    8.9855  -17.9255   19.0104 O   0  0  0  0  0  0  0  0  0  0  0  0
    9.5268  -15.6253   22.5216 C   0  0  0  0  0  0  0  0  0  0  0  0
   10.6643  -15.1133   22.7949 O   0  0  0  0  0  0  0  0  0  0  0  0
   10.9254  -17.1171   18.1520 O   0  0  0  0  0  0  0  0  0  0  0  0
    5.9670  -12.6543   26.6724 C   0  0  0  0  0  0  0  0  0  0  0  0
    7.3986  -12.9159   26.2019 C   0  0  2  0  0  0  0  0  0  0  0  0
    8.0721  -11.5996   26.0258 C   0  0  0  0  0  0  0  0  0  0  0  0
    7.2896  -13.7462   24.9452 C   0  0  0  0  0  0  0  0  0  0  0  0
    8.5980  -14.3629   24.5156 C   0  0  2  0  0  0  0  0  0  0  0  0
    8.4447  -15.1713   23.3249 N   0  0  0  0  0  0  0  0  0  0  0  0
    9.3706  -14.9994   25.5755 C   0  0  0  0  0  0  0  0  0  0  0  0
    9.8232  -14.2768   26.5220 O   0  0  0  0  0  0  0  0  0  0  0  0
    9.6539  -16.3769   25.6286 N   0  0  0  0  0  0  0  0  0  0  0  0
   10.5771  -16.9488   26.6807 C   0  0  1  0  0  0  0  0  0  0  0  0
    9.8029  -18.0297   27.3554 C   0  0  0  0  0  0  0  0  0  0  0  0
   10.1090  -18.5000   28.6893 C   0  0  0  0  0  0  0  0  0  0  0  0
   10.7614  -19.7821   28.9738 C   0  0  0  0  0  0  0  0  0  0  0  0
   10.9731  -20.0005   30.4657 C   0  0  0  0  0  0  0  0  0  0  0  0
   11.6356  -21.2983   30.6089 N   0  0  0  0  0  0  0  0  0  0  0  0
   11.8334  -17.2645   26.0351 C   0  0  0  0  0  0  0  0  0  0  0  0
   13.0667  -17.1107   26.5978 O   0  0  0  0  0  0  0  0  0  0  0  0
   11.8499  -17.7232   24.8298 O   0  0  0  0  0  0  0  0  0  0  0  0
  2  1  1  6
  2  3  1  0
  3  4  1  0
  4  8  1  0
  5  4  2  0
  6  7  2  0
  6  2  1  0
 10 11  1  6
 10  9  1  0
 10 12  1  0
 13 12  1  1
 13 14  1  0
 14  6  1  0
 15 13  1  0
 16 15  2  0
 17 15  1  0
 18 17  1  0
 19 20  1  0
 18 19  1  6
 20 21  1  0
 21 22  1  0
 23 22  1  0
 24 18  1  0
 24 25  1  0
 26 24  2  0
M  END
$$$$
