DLK.pdb
     RDKit          3D

 26 25  0  0  1  0  0  0  0  0999 V2000
    9.2582  -15.0929   20.5122 N   0  0  0  0  0  0  0  0  0  0  0  0
    8.1894  -15.5863   21.3799 C   0  0  1  0  0  0  0  0  0  0  0  0
    8.1433  -17.0927   21.1682 C   0  0  0  0  0  0  0  0  0  0  0  0
    7.5548  -17.3732   19.8137 C   0  0  0  0  0  0  0  0  0  0  0  0
    7.2688  -16.4568   19.0127 O   0  0  0  0  0  0  0  0  0  0  0  0
    8.6054  -15.3357   22.7817 C   0  0  0  0  0  0  0  0  0  0  0  0
    9.8085  -15.5133   23.1709 O   0  0  0  0  0  0  0  0  0  0  0  0
    7.3237  -18.6848   19.4447 O   0  0  0  0  0  0  0  0  0  0  0  0
    8.0783  -11.8907   25.7997 C   0  0  0  0  0  0  0  0  0  0  0  0
    6.7893  -12.6422   25.4632 C   0  0  2  0  0  0  0  0  0  0  0  0
    5.6525  -11.9026   26.0780 C   0  0  0  0  0  0  0  0  0  0  0  0
    6.9746  -14.0537   25.9668 C   0  0  0  0  0  0  0  0  0  0  0  0
    8.0081  -14.8373   25.1957 C   0  0  2  0  0  0  0  0  0  0  0  0
    7.7011  -14.8839   23.7820 N   0  0  0  0  0  0  0  0  0  0  0  0
    8.3778  -16.1251   25.7704 C   0  0  0  0  0  0  0  0  0  0  0  0
    7.4969  -17.0433   25.8333 O   0  0  0  0  0  0  0  0  0  0  0  0
    9.6591  -16.4307   26.2660 N   0  0  0  0  0  0  0  0  0  0  0  0
    9.9482  -17.7576   26.9307 C   0  0  1  0  0  0  0  0  0  0  0  0
   10.8908  -18.4699   26.0213 C   0  0  0  0  0  0  0  0  0  0  0  0
   11.4978  -19.7399   26.3573 C   0  0  0  0  0  0  0  0  0  0  0  0
   12.4239  -20.4607   25.4780 C   0  0  0  0  0  0  0  0  0  0  0  0
   12.9978  -21.7041   26.1435 C   0  0  0  0  0  0  0  0  0  0  0  0
   13.9960  -22.2494   25.2216 N   0  0  0  0  0  0  0  0  0  0  0  0
   10.3399  -17.4858   28.2972 C   0  0  0  0  0  0  0  0  0  0  0  0
   10.7375  -16.2709   28.7740 O   0  0  0  0  0  0  0  0  0  0  0  0
   10.3400  -18.4302   29.1756 O   0  0  0  0  0  0  0  0  0  0  0  0
  2  1  1  6
  2  3  1  0
  3  4  1  0
  4  8  1  0
  5  4  2  0
  6  7  2  0
  6  2  1  0
 10 11  1  1
 10  9  1  0
 10 12  1  0
 13 12  1  1
 13 14  1  0
 14  6  1  0
 15 13  1  0
 16 15  2  0
 17 15  1  0
 18 17  1  0
 19 20  1  0
 18 19  1  6
 20 21  1  0
 21 22  1  0
 23 22  1  0
 24 18  1  0
 24 25  1  0
 26 24  2  0
M  END
$$$$
