DLK.pdb
     RDKit          3D

 26 25  0  0  1  0  0  0  0  0999 V2000
    9.3487  -18.3913   18.4190 N   0  0  0  0  0  0  0  0  0  0  0  0
   10.7003  -17.9846   18.8014 C   0  0  1  0  0  0  0  0  0  0  0  0
   11.2883  -17.2931   17.5798 C   0  0  0  0  0  0  0  0  0  0  0  0
   12.1790  -18.2639   16.8561 C   0  0  0  0  0  0  0  0  0  0  0  0
   12.2897  -19.4563   17.2155 O   0  0  0  0  0  0  0  0  0  0  0  0
   10.5706  -16.9733   19.8790 C   0  0  0  0  0  0  0  0  0  0  0  0
   11.5641  -16.6258   20.6020 O   0  0  0  0  0  0  0  0  0  0  0  0
   12.8964  -17.8228   15.7604 O   0  0  0  0  0  0  0  0  0  0  0  0
    8.8755  -12.9643   19.6021 C   0  0  0  0  0  0  0  0  0  0  0  0
    7.7810  -14.0218   19.7545 C   0  0  2  0  0  0  0  0  0  0  0  0
    6.4717  -13.3721   19.4702 C   0  0  0  0  0  0  0  0  0  0  0  0
    7.9213  -14.5830   21.1494 C   0  0  0  0  0  0  0  0  0  0  0  0
    9.1336  -15.4642   21.3248 C   0  0  2  0  0  0  0  0  0  0  0  0
    9.3410  -16.3253   20.1800 N   0  0  0  0  0  0  0  0  0  0  0  0
    9.2359  -16.1434   22.6106 C   0  0  0  0  0  0  0  0  0  0  0  0
    8.3454  -16.9987   22.9241 O   0  0  0  0  0  0  0  0  0  0  0  0
   10.2659  -15.9189   23.5431 N   0  0  0  0  0  0  0  0  0  0  0  0
   10.4706  -16.8406   24.7242 C   0  0  1  0  0  0  0  0  0  0  0  0
   11.4483  -17.8705   24.2703 C   0  0  0  0  0  0  0  0  0  0  0  0
   11.8959  -18.9558   25.1164 C   0  0  0  0  0  0  0  0  0  0  0  0
   12.8389  -19.9926   24.6849 C   0  0  0  0  0  0  0  0  0  0  0  0
   13.1965  -20.9498   25.8138 C   0  0  0  0  0  0  0  0  0  0  0  0
   14.2376  -21.8388   25.2947 N   0  0  0  0  0  0  0  0  0  0  0  0
   10.7805  -16.0167   25.8731 C   0  0  0  0  0  0  0  0  0  0  0  0
   11.3841  -14.7941   25.8236 O   0  0  0  0  0  0  0  0  0  0  0  0
   10.4933  -16.4225   27.0631 O   0  0  0  0  0  0  0  0  0  0  0  0
  2  1  1  6
  2  3  1  0
  3  4  1  0
  4  8  1  0
  5  4  2  0
  6  7  2  0
  6  2  1  0
 10 11  1  1
 10  9  1  0
 10 12  1  0
 13 12  1  6
 13 14  1  0
 14  6  1  0
 15 13  1  0
 16 15  2  0
 17 15  1  0
 18 17  1  0
 19 20  1  0
 18 19  1  6
 20 21  1  0
 21 22  1  0
 23 22  1  0
 24 18  1  0
 24 25  1  0
 26 24  2  0
M  END
$$$$
