DLK.pdb
     RDKit          3D

 26 25  0  0  1  0  0  0  0  0999 V2000
    7.6595  -16.3346   22.0657 N   0  0  0  0  0  0  0  0  0  0  0  0
    9.1192  -16.2468   22.0813 C   0  0  1  0  0  0  0  0  0  0  0  0
    9.4927  -15.3196   20.9338 C   0  0  0  0  0  0  0  0  0  0  0  0
    9.4973  -16.1098   19.6550 C   0  0  0  0  0  0  0  0  0  0  0  0
    9.1842  -17.3198   19.6226 O   0  0  0  0  0  0  0  0  0  0  0  0
    9.5096  -15.5828   23.3492 C   0  0  0  0  0  0  0  0  0  0  0  0
   10.7137  -15.2271   23.5820 O   0  0  0  0  0  0  0  0  0  0  0  0
    9.8589  -15.4775   18.4806 O   0  0  0  0  0  0  0  0  0  0  0  0
    8.0584  -12.0208   25.0843 C   0  0  0  0  0  0  0  0  0  0  0  0
    7.1223  -13.1838   25.4170 C   0  0  2  0  0  0  0  0  0  0  0  0
    5.8526  -12.6145   25.9470 C   0  0  0  0  0  0  0  0  0  0  0  0
    7.8714  -14.0716   26.3821 C   0  0  0  0  0  0  0  0  0  0  0  0
    8.9494  -14.8990   25.7264 C   0  0  2  0  0  0  0  0  0  0  0  0
    8.5783  -15.2983   24.3856 N   0  0  0  0  0  0  0  0  0  0  0  0
    9.4975  -15.9765   26.5413 C   0  0  0  0  0  0  0  0  0  0  0  0
    9.7481  -15.7488   27.7695 O   0  0  0  0  0  0  0  0  0  0  0  0
    9.7712  -17.2704   26.0602 N   0  0  0  0  0  0  0  0  0  0  0  0
   10.4367  -18.3090   26.9347 C   0  0  1  0  0  0  0  0  0  0  0  0
   10.0811  -19.6287   26.3392 C   0  0  0  0  0  0  0  0  0  0  0  0
   10.5186  -20.8881   26.9019 C   0  0  0  0  0  0  0  0  0  0  0  0
   10.2354  -22.1946   26.2991 C   0  0  0  0  0  0  0  0  0  0  0  0
   10.8070  -23.3423   27.1203 C   0  0  0  0  0  0  0  0  0  0  0  0
   10.2367  -24.5741   26.5717 N   0  0  0  0  0  0  0  0  0  0  0  0
   11.8288  -17.9377   27.0722 C   0  0  0  0  0  0  0  0  0  0  0  0
   12.5931  -18.1507   28.1821 O   0  0  0  0  0  0  0  0  0  0  0  0
   12.4453  -17.3491   26.1043 O   0  0  0  0  0  0  0  0  0  0  0  0
  2  1  1  1
  2  3  1  0
  3  4  1  0
  4  8  1  0
  5  4  2  0
  6  7  2  0
  6  2  1  0
 10 11  1  1
 10  9  1  0
 10 12  1  0
 13 12  1  1
 13 14  1  0
 14  6  1  0
 15 13  1  0
 16 15  2  0
 17 15  1  0
 18 17  1  0
 19 20  1  0
 18 19  1  6
 20 21  1  0
 21 22  1  0
 23 22  1  0
 24 18  1  0
 24 25  1  0
 26 24  2  0
M  END
$$$$
