DLK.pdb
     RDKit          3D

 26 25  0  0  1  0  0  0  0  0999 V2000
    8.0741  -15.8679   20.4088 N   0  0  0  0  0  0  0  0  0  0  0  0
    9.2012  -16.5048   21.0890 C   0  0  1  0  0  0  0  0  0  0  0  0
   10.4194  -16.2355   20.2175 C   0  0  0  0  0  0  0  0  0  0  0  0
   10.1813  -16.8280   18.8566 C   0  0  0  0  0  0  0  0  0  0  0  0
   10.1051  -16.1193   17.8294 O   0  0  0  0  0  0  0  0  0  0  0  0
    9.3979  -15.7975   22.3781 C   0  0  0  0  0  0  0  0  0  0  0  0
   10.5510  -15.6784   22.9138 O   0  0  0  0  0  0  0  0  0  0  0  0
   10.0428  -18.1980   18.7396 O   0  0  0  0  0  0  0  0  0  0  0  0
    6.0892  -12.4962   26.4716 C   0  0  0  0  0  0  0  0  0  0  0  0
    7.4178  -13.2052   26.2044 C   0  0  2  0  0  0  0  0  0  0  0  0
    8.5162  -12.2293   26.4465 C   0  0  0  0  0  0  0  0  0  0  0  0
    7.3412  -13.7373   24.7933 C   0  0  0  0  0  0  0  0  0  0  0  0
    8.4273  -14.7320   24.4650 C   0  0  2  0  0  0  0  0  0  0  0  0
    8.3253  -15.2074   23.1017 N   0  0  0  0  0  0  0  0  0  0  0  0
    8.6341  -15.7850   25.4519 C   0  0  0  0  0  0  0  0  0  0  0  0
    7.6293  -16.4631   25.8436 O   0  0  0  0  0  0  0  0  0  0  0  0
    9.8846  -16.1114   26.0090 N   0  0  0  0  0  0  0  0  0  0  0  0
   10.0480  -17.2992   26.9303 C   0  0  1  0  0  0  0  0  0  0  0  0
   11.1115  -18.1449   26.3170 C   0  0  0  0  0  0  0  0  0  0  0  0
   11.6580  -19.3155   26.9692 C   0  0  0  0  0  0  0  0  0  0  0  0
   12.6817  -20.1797   26.3729 C   0  0  0  0  0  0  0  0  0  0  0  0
   12.9609  -21.4111   27.2238 C   0  0  0  0  0  0  0  0  0  0  0  0
   14.0890  -22.1045   26.5992 N   0  0  0  0  0  0  0  0  0  0  0  0
   10.2245  -16.7895   28.2734 C   0  0  0  0  0  0  0  0  0  0  0  0
   10.7475  -15.5694   28.5886 O   0  0  0  0  0  0  0  0  0  0  0  0
    9.8856  -17.5044   29.2919 O   0  0  0  0  0  0  0  0  0  0  0  0
  2  1  1  6
  2  3  1  0
  3  4  1  0
  4  8  1  0
  5  4  2  0
  6  7  2  0
  6  2  1  0
 10 11  1  6
 10  9  1  0
 10 12  1  0
 13 12  1  1
 13 14  1  0
 14  6  1  0
 15 13  1  0
 16 15  2  0
 17 15  1  0
 18 17  1  0
 19 20  1  0
 18 19  1  6
 20 21  1  0
 21 22  1  0
 23 22  1  0
 24 18  1  0
 24 25  1  0
 26 24  2  0
M  END
$$$$
