DLK.pdb
     RDKit          3D

 26 25  0  0  1  0  0  0  0  0999 V2000
   11.2080  -17.5535   17.8741 N   0  0  0  0  0  0  0  0  0  0  0  0
   10.2447  -17.8326   18.9384 C   0  0  1  0  0  0  0  0  0  0  0  0
   10.7780  -19.0542   19.6727 C   0  0  0  0  0  0  0  0  0  0  0  0
   10.7816  -20.2235   18.7280 C   0  0  0  0  0  0  0  0  0  0  0  0
   11.7305  -21.0364   18.6832 O   0  0  0  0  0  0  0  0  0  0  0  0
   10.2780  -16.6854   19.8784 C   0  0  0  0  0  0  0  0  0  0  0  0
   11.3624  -16.2936   20.4272 O   0  0  0  0  0  0  0  0  0  0  0  0
    9.7021  -20.4035   17.8842 O   0  0  0  0  0  0  0  0  0  0  0  0
    8.7971  -12.5867   19.1385 C   0  0  0  0  0  0  0  0  0  0  0  0
    7.6734  -13.5573   19.5056 C   0  0  2  0  0  0  0  0  0  0  0  0
    6.3750  -12.8795   19.2374 C   0  0  0  0  0  0  0  0  0  0  0  0
    7.9002  -13.9468   20.9469 C   0  0  0  0  0  0  0  0  0  0  0  0
    9.1075  -14.8289   21.1495 C   0  0  2  0  0  0  0  0  0  0  0  0
    9.1145  -15.9477   20.2313 N   0  0  0  0  0  0  0  0  0  0  0  0
    9.3984  -15.1879   22.5322 C   0  0  0  0  0  0  0  0  0  0  0  0
    9.5074  -14.2582   23.3964 O   0  0  0  0  0  0  0  0  0  0  0  0
    9.5678  -16.5090   22.9868 N   0  0  0  0  0  0  0  0  0  0  0  0
    9.8688  -16.8077   24.4381 C   0  0  1  0  0  0  0  0  0  0  0  0
    9.1195  -18.0559   24.7592 C   0  0  0  0  0  0  0  0  0  0  0  0
    9.1105  -18.6493   26.0790 C   0  0  0  0  0  0  0  0  0  0  0  0
    8.4072  -19.8926   26.4109 C   0  0  0  0  0  0  0  0  0  0  0  0
    8.5288  -20.2450   27.8872 C   0  0  0  0  0  0  0  0  0  0  0  0
    7.6812  -21.4181   28.1087 N   0  0  0  0  0  0  0  0  0  0  0  0
   11.3064  -16.7736   24.6024 C   0  0  0  0  0  0  0  0  0  0  0  0
   11.9581  -16.4586   25.7589 O   0  0  0  0  0  0  0  0  0  0  0  0
   12.0828  -17.0460   23.6092 O   0  0  0  0  0  0  0  0  0  0  0  0
  2  1  1  6
  2  3  1  0
  3  4  1  0
  4  8  1  0
  5  4  2  0
  6  7  2  0
  6  2  1  0
 10 11  1  1
 10  9  1  0
 10 12  1  0
 13 12  1  1
 13 14  1  0
 14  6  1  0
 15 13  1  0
 16 15  2  0
 17 15  1  0
 18 17  1  0
 19 20  1  0
 18 19  1  6
 20 21  1  0
 21 22  1  0
 23 22  1  0
 24 18  1  0
 24 25  1  0
 26 24  2  0
M  END
$$$$
