DLK.pdb
     RDKit          3D

 26 25  0  0  1  0  0  0  0  0999 V2000
    9.4569  -17.7911   18.7801 N   0  0  0  0  0  0  0  0  0  0  0  0
   10.7382  -17.4426   19.3928 C   0  0  1  0  0  0  0  0  0  0  0  0
   11.5922  -16.8664   18.2726 C   0  0  0  0  0  0  0  0  0  0  0  0
   11.9835  -17.9792   17.3409 C   0  0  0  0  0  0  0  0  0  0  0  0
   11.8014  -19.1816   17.6314 O   0  0  0  0  0  0  0  0  0  0  0  0
   10.4807  -16.3592   20.3729 C   0  0  0  0  0  0  0  0  0  0  0  0
   11.4179  -15.8419   21.0692 O   0  0  0  0  0  0  0  0  0  0  0  0
   12.5620  -17.6613   16.1268 O   0  0  0  0  0  0  0  0  0  0  0  0
    8.9991  -12.5356   19.5795 C   0  0  0  0  0  0  0  0  0  0  0  0
    7.8197  -13.5039   19.6842 C   0  0  2  0  0  0  0  0  0  0  0  0
    6.6088  -12.8110   19.1636 C   0  0  0  0  0  0  0  0  0  0  0  0
    7.7381  -13.9218   21.1330 C   0  0  0  0  0  0  0  0  0  0  0  0
    8.8889  -14.7923   21.5743 C   0  0  2  0  0  0  0  0  0  0  0  0
    9.1831  -15.8251   20.6039 N   0  0  0  0  0  0  0  0  0  0  0  0
    8.8262  -15.2659   22.9517 C   0  0  0  0  0  0  0  0  0  0  0  0
    8.6963  -14.4117   23.8878 O   0  0  0  0  0  0  0  0  0  0  0  0
    8.8980  -16.6209   23.3255 N   0  0  0  0  0  0  0  0  0  0  0  0
    8.8116  -17.0413   24.7753 C   0  0  1  0  0  0  0  0  0  0  0  0
    8.0721  -18.3358   24.7788 C   0  0  0  0  0  0  0  0  0  0  0  0
    7.8135  -19.0896   25.9868 C   0  0  0  0  0  0  0  0  0  0  0  0
    7.1511  -20.3977   26.0074 C   0  0  0  0  0  0  0  0  0  0  0  0
    6.9484  -20.9169   27.4243 C   0  0  0  0  0  0  0  0  0  0  0  0
    6.2566  -22.2016   27.3044 N   0  0  0  0  0  0  0  0  0  0  0  0
   10.1473  -16.9785   25.3290 C   0  0  0  0  0  0  0  0  0  0  0  0
   11.3007  -16.9731   24.6002 O   0  0  0  0  0  0  0  0  0  0  0  0
   10.3223  -16.9301   26.6059 O   0  0  0  0  0  0  0  0  0  0  0  0
  2  1  1  6
  2  3  1  0
  3  4  1  0
  4  8  1  0
  5  4  2  0
  6  7  2  0
  6  2  1  0
 10 11  1  1
 10  9  1  0
 10 12  1  0
 13 12  1  6
 13 14  1  0
 14  6  1  0
 15 13  1  0
 16 15  2  0
 17 15  1  0
 18 17  1  0
 19 20  1  0
 18 19  1  6
 20 21  1  0
 21 22  1  0
 23 22  1  0
 24 18  1  0
 24 25  1  0
 26 24  2  0
M  END
$$$$
