DLK.pdb
     RDKit          3D

 26 25  0  0  1  0  0  0  0  0999 V2000
    9.1487  -15.5121   21.4599 N   0  0  0  0  0  0  0  0  0  0  0  0
    8.2829  -15.8405   22.5918 C   0  0  1  0  0  0  0  0  0  0  0  0
    8.4525  -17.3346   22.8258 C   0  0  0  0  0  0  0  0  0  0  0  0
    7.9123  -18.0754   21.6346 C   0  0  0  0  0  0  0  0  0  0  0  0
    7.1418  -17.5348   20.8116 O   0  0  0  0  0  0  0  0  0  0  0  0
    8.8172  -15.1298   23.7793 C   0  0  0  0  0  0  0  0  0  0  0  0
   10.0702  -14.9579   23.9561 O   0  0  0  0  0  0  0  0  0  0  0  0
    8.2797  -19.3941   21.4453 O   0  0  0  0  0  0  0  0  0  0  0  0
    7.1549  -11.4034   24.7052 C   0  0  0  0  0  0  0  0  0  0  0  0
    6.4327  -12.4774   25.5204 C   0  0  2  0  0  0  0  0  0  0  0  0
    5.1978  -11.8698   26.0888 C   0  0  0  0  0  0  0  0  0  0  0  0
    7.4248  -12.9745   26.5447 C   0  0  0  0  0  0  0  0  0  0  0  0
    8.4643  -13.9070   25.9731 C   0  0  2  0  0  0  0  0  0  0  0  0
    7.9787  -14.5944   24.7955 N   0  0  0  0  0  0  0  0  0  0  0  0
    9.1311  -14.7721   26.9385 C   0  0  0  0  0  0  0  0  0  0  0  0
    9.5487  -14.2645   28.0298 O   0  0  0  0  0  0  0  0  0  0  0  0
    9.3475  -16.1496   26.7479 N   0  0  0  0  0  0  0  0  0  0  0  0
   10.1141  -16.9715   27.7594 C   0  0  1  0  0  0  0  0  0  0  0  0
   10.6376  -18.1501   27.0113 C   0  0  0  0  0  0  0  0  0  0  0  0
   11.2780  -19.2727   27.6623 C   0  0  0  0  0  0  0  0  0  0  0  0
   11.8305  -20.4264   26.9452 C   0  0  0  0  0  0  0  0  0  0  0  0
   12.3364  -21.5043   27.8942 C   0  0  0  0  0  0  0  0  0  0  0  0
   12.8191  -22.6051   27.0582 N   0  0  0  0  0  0  0  0  0  0  0  0
   11.0375  -16.0843   28.4340 C   0  0  0  0  0  0  0  0  0  0  0  0
   11.8448  -15.1736   27.8173 O   0  0  0  0  0  0  0  0  0  0  0  0
   11.1544  -16.1184   29.7179 O   0  0  0  0  0  0  0  0  0  0  0  0
  2  1  1  6
  2  3  1  0
  3  4  1  0
  4  8  1  0
  5  4  2  0
  6  7  2  0
  6  2  1  0
 10 11  1  1
 10  9  1  0
 10 12  1  0
 13 12  1  1
 13 14  1  0
 14  6  1  0
 15 13  1  0
 16 15  2  0
 17 15  1  0
 18 17  1  0
 19 20  1  0
 18 19  1  6
 20 21  1  0
 21 22  1  0
 23 22  1  0
 24 18  1  0
 24 25  1  0
 26 24  2  0
M  END
$$$$
