DLK.pdb
     RDKit          3D

 26 25  0  0  1  0  0  0  0  0999 V2000
    8.9134  -16.4809   21.3161 N   0  0  0  0  0  0  0  0  0  0  0  0
   10.0995  -16.7050   22.1418 C   0  0  1  0  0  0  0  0  0  0  0  0
   11.2707  -16.1429   21.3492 C   0  0  0  0  0  0  0  0  0  0  0  0
   11.3829  -16.8947   20.0524 C   0  0  0  0  0  0  0  0  0  0  0  0
   11.3911  -18.1442   20.0094 O   0  0  0  0  0  0  0  0  0  0  0  0
    9.9456  -15.8869   23.3697 C   0  0  0  0  0  0  0  0  0  0  0  0
   10.9174  -15.6862   24.1734 O   0  0  0  0  0  0  0  0  0  0  0  0
   11.4797  -16.1810   18.8730 O   0  0  0  0  0  0  0  0  0  0  0  0
    5.6057  -12.4498   26.1649 C   0  0  0  0  0  0  0  0  0  0  0  0
    7.0572  -12.9281   26.2261 C   0  0  2  0  0  0  0  0  0  0  0  0
    7.9225  -11.7406   26.4675 C   0  0  0  0  0  0  0  0  0  0  0  0
    7.3225  -13.6534   24.9283 C   0  0  0  0  0  0  0  0  0  0  0  0
    8.4759  -14.6232   25.0054 C   0  0  2  0  0  0  0  0  0  0  0  0
    8.7155  -15.2738   23.7349 N   0  0  0  0  0  0  0  0  0  0  0  0
    8.4600  -15.5288   26.1477 C   0  0  0  0  0  0  0  0  0  0  0  0
    8.3908  -15.0348   27.3200 O   0  0  0  0  0  0  0  0  0  0  0  0
    8.5144  -16.9314   26.0450 N   0  0  0  0  0  0  0  0  0  0  0  0
    8.5240  -17.8092   27.2762 C   0  0  1  0  0  0  0  0  0  0  0  0
    7.6150  -18.9499   26.9680 C   0  0  0  0  0  0  0  0  0  0  0  0
    7.3564  -20.0233   27.9035 C   0  0  0  0  0  0  0  0  0  0  0  0
    7.6491  -21.4339   27.6296 C   0  0  0  0  0  0  0  0  0  0  0  0
    7.1655  -22.3485   28.7467 C   0  0  0  0  0  0  0  0  0  0  0  0
    7.5961  -23.7029   28.3948 N   0  0  0  0  0  0  0  0  0  0  0  0
    9.9065  -18.0678   27.6178 C   0  0  0  0  0  0  0  0  0  0  0  0
   10.3725  -18.3122   28.8766 O   0  0  0  0  0  0  0  0  0  0  0  0
   10.8147  -18.0724   26.7021 O   0  0  0  0  0  0  0  0  0  0  0  0
  2  1  1  6
  2  3  1  0
  3  4  1  0
  4  8  1  0
  5  4  2  0
  6  7  2  0
  6  2  1  0
 10 11  1  6
 10  9  1  0
 10 12  1  0
 13 12  1  6
 13 14  1  0
 14  6  1  0
 15 13  1  0
 16 15  2  0
 17 15  1  0
 18 17  1  0
 19 20  1  0
 18 19  1  6
 20 21  1  0
 21 22  1  0
 23 22  1  0
 24 18  1  0
 24 25  1  0
 26 24  2  0
M  END
$$$$
