DLK.pdb
     RDKit          3D

 26 25  0  0  1  0  0  0  0  0999 V2000
    7.7324  -15.7754   22.0953 N   0  0  0  0  0  0  0  0  0  0  0  0
    9.0981  -16.1476   22.4627 C   0  0  1  0  0  0  0  0  0  0  0  0
   10.0006  -15.4957   21.4251 C   0  0  0  0  0  0  0  0  0  0  0  0
    9.7703  -16.1609   20.0969 C   0  0  0  0  0  0  0  0  0  0  0  0
    8.8328  -16.9676   19.9135 O   0  0  0  0  0  0  0  0  0  0  0  0
    9.3893  -15.5233   23.7765 C   0  0  0  0  0  0  0  0  0  0  0  0
   10.5819  -15.4006   24.2162 O   0  0  0  0  0  0  0  0  0  0  0  0
   10.6219  -15.8705   19.0480 O   0  0  0  0  0  0  0  0  0  0  0  0
    7.7810  -11.9536   24.6387 C   0  0  0  0  0  0  0  0  0  0  0  0
    6.8641  -12.9581   25.3386 C   0  0  2  0  0  0  0  0  0  0  0  0
    5.6334  -12.2367   25.7656 C   0  0  0  0  0  0  0  0  0  0  0  0
    7.6706  -13.5591   26.4650 C   0  0  0  0  0  0  0  0  0  0  0  0
    8.5666  -14.6912   26.0267 C   0  0  2  0  0  0  0  0  0  0  0  0
    8.3694  -15.0220   24.6315 N   0  0  0  0  0  0  0  0  0  0  0  0
    8.6010  -15.8457   26.9162 C   0  0  0  0  0  0  0  0  0  0  0  0
    8.8457  -15.6593   28.1525 O   0  0  0  0  0  0  0  0  0  0  0  0
    8.3775  -17.1713   26.4995 N   0  0  0  0  0  0  0  0  0  0  0  0
    8.5246  -18.3313   27.4582 C   0  0  1  0  0  0  0  0  0  0  0  0
    7.7795  -19.4651   26.8403 C   0  0  0  0  0  0  0  0  0  0  0  0
    7.7279  -20.7857   27.4299 C   0  0  0  0  0  0  0  0  0  0  0  0
    7.0276  -21.9235   26.8255 C   0  0  0  0  0  0  0  0  0  0  0  0
    7.1680  -23.1917   27.6563 C   0  0  0  0  0  0  0  0  0  0  0  0
    6.4736  -24.2516   26.9227 N   0  0  0  0  0  0  0  0  0  0  0  0
    9.9337  -18.4777   27.7544 C   0  0  0  0  0  0  0  0  0  0  0  0
   10.9458  -18.3333   26.8509 O   0  0  0  0  0  0  0  0  0  0  0  0
   10.3218  -18.7751   28.9478 O   0  0  0  0  0  0  0  0  0  0  0  0
  2  1  1  6
  2  3  1  0
  3  4  1  0
  4  8  1  0
  5  4  2  0
  6  7  2  0
  6  2  1  0
 10 11  1  1
 10  9  1  0
 10 12  1  0
 13 12  1  1
 13 14  1  0
 14  6  1  0
 15 13  1  0
 16 15  2  0
 17 15  1  0
 18 17  1  0
 19 20  1  0
 18 19  1  6
 20 21  1  0
 21 22  1  0
 23 22  1  0
 24 18  1  0
 24 25  1  0
 26 24  2  0
M  END
$$$$
