DLK.pdb
     RDKit          3D

 26 25  0  0  1  0  0  0  0  0999 V2000
    8.4327  -14.9435   20.6977 N   0  0  0  0  0  0  0  0  0  0  0  0
    8.0593  -15.9990   21.6385 C   0  0  1  0  0  0  0  0  0  0  0  0
    8.8402  -17.2333   21.2108 C   0  0  0  0  0  0  0  0  0  0  0  0
    8.2996  -17.7157   19.8938 C   0  0  0  0  0  0  0  0  0  0  0  0
    7.0819  -17.9394   19.7192 O   0  0  0  0  0  0  0  0  0  0  0  0
    8.5487  -15.5919   22.9785 C   0  0  0  0  0  0  0  0  0  0  0  0
    9.7947  -15.5123   23.2467 O   0  0  0  0  0  0  0  0  0  0  0  0
    9.1770  -17.9174   18.8453 O   0  0  0  0  0  0  0  0  0  0  0  0
    7.8651  -11.9376   25.7244 C   0  0  0  0  0  0  0  0  0  0  0  0
    6.6733  -12.8753   25.5252 C   0  0  2  0  0  0  0  0  0  0  0  0
    5.4713  -12.2217   26.1128 C   0  0  0  0  0  0  0  0  0  0  0  0
    7.0548  -14.1910   26.1606 C   0  0  0  0  0  0  0  0  0  0  0  0
    8.1101  -14.9473   25.3919 C   0  0  2  0  0  0  0  0  0  0  0  0
    7.6721  -15.2643   24.0493 N   0  0  0  0  0  0  0  0  0  0  0  0
    8.7240  -16.0640   26.1001 C   0  0  0  0  0  0  0  0  0  0  0  0
    8.0105  -17.0839   26.3713 O   0  0  0  0  0  0  0  0  0  0  0  0
   10.0702  -16.0959   26.5096 N   0  0  0  0  0  0  0  0  0  0  0  0
   10.6121  -17.2386   27.3384 C   0  0  1  0  0  0  0  0  0  0  0  0
   11.7744  -17.7772   26.5759 C   0  0  0  0  0  0  0  0  0  0  0  0
   11.8502  -19.1502   26.1250 C   0  0  0  0  0  0  0  0  0  0  0  0
   12.9562  -19.6879   25.3262 C   0  0  0  0  0  0  0  0  0  0  0  0
   12.6887  -21.1125   24.8601 C   0  0  0  0  0  0  0  0  0  0  0  0
   13.8552  -21.5223   24.0758 N   0  0  0  0  0  0  0  0  0  0  0  0
   10.8057  -16.7476   28.6861 C   0  0  0  0  0  0  0  0  0  0  0  0
   10.5380  -15.4774   29.1058 O   0  0  0  0  0  0  0  0  0  0  0  0
   11.2728  -17.5255   29.6027 O   0  0  0  0  0  0  0  0  0  0  0  0
  2  1  1  6
  2  3  1  0
  3  4  1  0
  4  8  1  0
  5  4  2  0
  6  7  2  0
  6  2  1  0
 10 11  1  1
 10  9  1  0
 10 12  1  0
 13 12  1  1
 13 14  1  0
 14  6  1  0
 15 13  1  0
 16 15  2  0
 17 15  1  0
 18 17  1  0
 19 20  1  0
 18 19  1  6
 20 21  1  0
 21 22  1  0
 23 22  1  0
 24 18  1  0
 24 25  1  0
 26 24  2  0
M  END
$$$$
