CEC.pdb
     RDKit          3D

 22 21  0  0  1  0  0  0  0  0999 V2000
   18.2330  -13.1519  -16.2251 N   0  0  0  0  0  0  0  0  0  0  0  0
   18.0436  -11.8898  -16.9102 C   0  0  1  0  0  0  0  0  0  0  0  0
   16.6886  -11.8345  -17.4816 C   0  0  0  0  0  0  0  0  0  0  0  0
   16.4779  -12.9936  -18.8411 S   0  0  0  0  0  0  0  0  0  0  0  0
   18.4389  -10.7474  -16.0662 C   0  0  0  0  0  0  0  0  0  0  0  0
   18.0091  -10.7292  -14.8916 O   0  0  0  0  0  0  0  0  0  0  0  0
   19.2656   -9.6961  -16.5223 N   0  0  0  0  0  0  0  0  0  0  0  0
   19.6812   -8.5318  -15.8215 C   0  0  1  0  0  0  0  0  0  0  0  0
   21.1611   -8.2641  -15.7853 C   0  0  0  0  0  0  0  0  0  0  0  0
   21.9962   -9.3159  -15.1474 C   0  0  0  0  0  0  0  0  0  0  0  0
   23.4454   -9.0523  -15.2271 C   0  0  0  0  0  0  0  0  0  0  0  0
   23.8547   -8.0487  -15.8402 O   0  0  0  0  0  0  0  0  0  0  0  0
   18.9320   -7.3243  -16.0955 C   0  0  0  0  0  0  0  0  0  0  0  0
   18.7250   -6.9401  -17.3029 O   0  0  0  0  0  0  0  0  0  0  0  0
   24.3462   -9.9030  -14.6321 O   0  0  0  0  0  0  0  0  0  0  0  0
   18.3650   -6.4654  -15.1164 N   0  0  0  0  0  0  0  0  0  0  0  0
   17.6421   -5.2487  -15.4722 C   0  0  1  0  0  0  0  0  0  0  0  0
   16.2247   -5.2417  -14.9801 C   0  0  0  0  0  0  0  0  0  0  0  0
   15.4401   -3.6238  -15.1810 S   0  0  0  0  0  0  0  0  0  0  0  0
   18.3982   -4.0575  -14.9873 C   0  0  0  0  0  0  0  0  0  0  0  0
   18.9386   -3.9926  -13.8653 O   0  0  0  0  0  0  0  0  0  0  0  0
   18.5015   -2.9606  -15.8420 O   0  0  0  0  0  0  0  0  0  0  0  0
  2  1  1  1
  2  5  1  0
  2  3  1  0
  3  4  1  0
  5  7  1  0
  6  5  2  0
  7  8  1  0
  8 13  1  0
  9 10  1  0
  8  9  1  6
 10 11  1  0
 11 15  1  0
 11 12  2  0
 13 14  2  0
 13 16  1  0
 16 17  1  0
 17 18  1  1
 17 20  1  0
 19 18  1  0
 20 22  1  0
 21 20  2  0
M  END
$$$$
