CEC.pdb
     RDKit          3D

 22 21  0  0  1  0  0  0  0  0999 V2000
   14.0210  -10.6335  -10.6067 N   0  0  0  0  0  0  0  0  0  0  0  0
   15.2835  -10.2199  -10.0295 C   0  0  1  0  0  0  0  0  0  0  0  0
   16.3151  -11.2286  -10.3195 C   0  0  0  0  0  0  0  0  0  0  0  0
   16.0033  -12.7821   -9.4676 S   0  0  0  0  0  0  0  0  0  0  0  0
   15.6169   -8.8293  -10.3887 C   0  0  0  0  0  0  0  0  0  0  0  0
   15.5121   -8.5096  -11.5934 O   0  0  0  0  0  0  0  0  0  0  0  0
   16.0403   -7.8655   -9.4459 N   0  0  0  0  0  0  0  0  0  0  0  0
   16.4572   -6.5270   -9.6779 C   0  0  1  0  0  0  0  0  0  0  0  0
   15.9964   -5.4994   -8.6805 C   0  0  0  0  0  0  0  0  0  0  0  0
   14.5480   -5.1655   -8.7137 C   0  0  0  0  0  0  0  0  0  0  0  0
   14.1514   -4.1456   -7.7245 C   0  0  0  0  0  0  0  0  0  0  0  0
   13.6759   -4.5027   -6.6304 O   0  0  0  0  0  0  0  0  0  0  0  0
   17.8523   -6.3460  -10.0173 C   0  0  0  0  0  0  0  0  0  0  0  0
   18.7701   -6.5219   -9.1370 O   0  0  0  0  0  0  0  0  0  0  0  0
   14.3015   -2.8072   -7.9991 O   0  0  0  0  0  0  0  0  0  0  0  0
   18.3487   -5.9736  -11.2951 N   0  0  0  0  0  0  0  0  0  0  0  0
   19.7746   -5.9690  -11.6058 C   0  0  1  0  0  0  0  0  0  0  0  0
   20.3117   -7.3336  -11.9229 C   0  0  0  0  0  0  0  0  0  0  0  0
   22.0452   -7.2824  -12.4386 S   0  0  0  0  0  0  0  0  0  0  0  0
   20.0430   -5.0024  -12.7101 C   0  0  0  0  0  0  0  0  0  0  0  0
   19.1766   -4.6269  -13.5246 O   0  0  0  0  0  0  0  0  0  0  0  0
   21.3366   -4.4961  -12.8311 O   0  0  0  0  0  0  0  0  0  0  0  0
  2  1  1  6
  2  5  1  0
  2  3  1  0
  3  4  1  0
  5  7  1  0
  6  5  2  0
  7  8  1  0
  8 13  1  0
  9 10  1  0
  8  9  1  1
 10 11  1  0
 11 15  1  0
 11 12  2  0
 13 14  2  0
 13 16  1  0
 16 17  1  0
 17 18  1  6
 17 20  1  0
 19 18  1  0
 20 22  1  0
 21 20  2  0
M  END
$$$$
