CEC.pdb
     RDKit          3D

 22 21  0  0  1  0  0  0  0  0999 V2000
   26.0457  -22.0881  -11.5360 N   0  0  0  0  0  0  0  0  0  0  0  0
   24.9107  -21.1901  -11.4757 C   0  0  1  0  0  0  0  0  0  0  0  0
   25.2644  -19.9964  -10.6911 C   0  0  0  0  0  0  0  0  0  0  0  0
   25.4790  -20.3716   -8.9448 S   0  0  0  0  0  0  0  0  0  0  0  0
   24.3409  -20.9422  -12.8128 C   0  0  0  0  0  0  0  0  0  0  0  0
   25.1464  -20.7649  -13.7532 O   0  0  0  0  0  0  0  0  0  0  0  0
   22.9515  -20.8982  -13.0672 N   0  0  0  0  0  0  0  0  0  0  0  0
   22.2865  -20.6333  -14.2948 C   0  0  1  0  0  0  0  0  0  0  0  0
   21.4061  -21.7295  -14.8300 C   0  0  0  0  0  0  0  0  0  0  0  0
   21.6760  -23.0942  -14.3052 C   0  0  0  0  0  0  0  0  0  0  0  0
   20.7738  -24.1275  -14.8476 C   0  0  0  0  0  0  0  0  0  0  0  0
   21.0995  -24.7493  -15.8762 O   0  0  0  0  0  0  0  0  0  0  0  0
   21.6463  -19.3401  -14.4042 C   0  0  0  0  0  0  0  0  0  0  0  0
   21.5228  -18.5800  -13.3769 O   0  0  0  0  0  0  0  0  0  0  0  0
   19.5792  -24.4095  -14.2292 O   0  0  0  0  0  0  0  0  0  0  0  0
   21.1076  -18.7845  -15.5953 N   0  0  0  0  0  0  0  0  0  0  0  0
   21.0347  -17.3443  -15.8196 C   0  0  1  0  0  0  0  0  0  0  0  0
   22.3728  -16.6695  -15.7469 C   0  0  0  0  0  0  0  0  0  0  0  0
   22.2425  -14.8737  -15.9244 S   0  0  0  0  0  0  0  0  0  0  0  0
   20.3527  -17.0741  -17.1187 C   0  0  0  0  0  0  0  0  0  0  0  0
   20.3968  -17.8479  -18.0956 O   0  0  0  0  0  0  0  0  0  0  0  0
   19.6283  -15.8886  -17.2387 O   0  0  0  0  0  0  0  0  0  0  0  0
  2  1  1  6
  2  5  1  0
  2  3  1  0
  3  4  1  0
  5  7  1  0
  6  5  2  0
  7  8  1  0
  8 13  1  0
  9 10  1  0
  8  9  1  1
 10 11  1  0
 11 15  1  0
 11 12  2  0
 13 14  2  0
 13 16  1  0
 16 17  1  0
 17 18  1  6
 17 20  1  0
 19 18  1  0
 20 22  1  0
 21 20  2  0
M  END
$$$$
