CEC.pdb
     RDKit          3D

 22 21  0  0  1  0  0  0  0  0999 V2000
   17.7275  -12.8046  -15.3042 N   0  0  0  0  0  0  0  0  0  0  0  0
   16.6983  -11.7965  -15.4546 C   0  0  1  0  0  0  0  0  0  0  0  0
   15.4423  -12.2776  -14.8575 C   0  0  0  0  0  0  0  0  0  0  0  0
   14.8635  -13.7969  -15.6276 S   0  0  0  0  0  0  0  0  0  0  0  0
   17.1642  -10.4716  -15.0057 C   0  0  0  0  0  0  0  0  0  0  0  0
   17.8618  -10.4326  -13.9682 O   0  0  0  0  0  0  0  0  0  0  0  0
   16.8602   -9.2714  -15.6868 N   0  0  0  0  0  0  0  0  0  0  0  0
   17.3283   -7.9578  -15.4133 C   0  0  1  0  0  0  0  0  0  0  0  0
   18.4529   -7.4541  -16.2761 C   0  0  0  0  0  0  0  0  0  0  0  0
   18.9377   -6.0811  -15.9754 C   0  0  0  0  0  0  0  0  0  0  0  0
   20.0173   -5.6238  -16.8706 C   0  0  0  0  0  0  0  0  0  0  0  0
   19.8581   -4.5909  -17.5477 O   0  0  0  0  0  0  0  0  0  0  0  0
   16.3099   -6.9464  -15.2283 C   0  0  0  0  0  0  0  0  0  0  0  0
   15.3969   -6.7649  -16.1125 O   0  0  0  0  0  0  0  0  0  0  0  0
   21.1950   -6.3262  -16.9640 O   0  0  0  0  0  0  0  0  0  0  0  0
   16.2017   -6.0801  -14.1077 N   0  0  0  0  0  0  0  0  0  0  0  0
   15.1519   -5.0720  -14.0009 C   0  0  1  0  0  0  0  0  0  0  0  0
   14.5736   -4.9694  -12.6203 C   0  0  0  0  0  0  0  0  0  0  0  0
   13.1180   -3.8960  -12.5677 S   0  0  0  0  0  0  0  0  0  0  0  0
   15.6704   -3.7572  -14.4788 C   0  0  0  0  0  0  0  0  0  0  0  0
   16.8371   -3.3628  -14.2830 O   0  0  0  0  0  0  0  0  0  0  0  0
   14.7955   -2.9299  -15.1821 O   0  0  0  0  0  0  0  0  0  0  0  0
  2  1  1  1
  2  5  1  0
  2  3  1  0
  3  4  1  0
  5  7  1  0
  6  5  2  0
  7  8  1  0
  8 13  1  0
  9 10  1  0
  8  9  1  6
 10 11  1  0
 11 15  1  0
 11 12  2  0
 13 14  2  0
 13 16  1  0
 16 17  1  0
 17 18  1  1
 17 20  1  0
 19 18  1  0
 20 22  1  0
 21 20  2  0
M  END
$$$$
