CEC.pdb
     RDKit          3D

 22 21  0  0  1  0  0  0  0  0999 V2000
   18.6959  -12.9072  -16.6735 N   0  0  0  0  0  0  0  0  0  0  0  0
   17.9867  -12.1256  -15.6814 C   0  0  1  0  0  0  0  0  0  0  0  0
   18.2051  -12.7041  -14.3460 C   0  0  0  0  0  0  0  0  0  0  0  0
   17.3214  -14.2556  -14.1261 S   0  0  0  0  0  0  0  0  0  0  0  0
   18.2700  -10.6852  -15.8186 C   0  0  0  0  0  0  0  0  0  0  0  0
   19.3854  -10.3642  -16.2852 O   0  0  0  0  0  0  0  0  0  0  0  0
   17.3513   -9.6761  -15.4519 N   0  0  0  0  0  0  0  0  0  0  0  0
   17.4693   -8.2702  -15.6217 C   0  0  1  0  0  0  0  0  0  0  0  0
   16.1878   -7.4826  -15.5989 C   0  0  0  0  0  0  0  0  0  0  0  0
   16.3130   -6.0297  -15.8883 C   0  0  0  0  0  0  0  0  0  0  0  0
   15.0328   -5.2995  -15.8239 C   0  0  0  0  0  0  0  0  0  0  0  0
   13.9885   -5.9141  -15.5369 O   0  0  0  0  0  0  0  0  0  0  0  0
   18.5028   -7.6212  -14.8438 C   0  0  0  0  0  0  0  0  0  0  0  0
   18.5994   -7.8262  -13.5802 O   0  0  0  0  0  0  0  0  0  0  0  0
   14.9825   -3.9496  -16.0775 O   0  0  0  0  0  0  0  0  0  0  0  0
   19.4824   -6.7287  -15.3555 N   0  0  0  0  0  0  0  0  0  0  0  0
   20.5397   -6.1700  -14.5191 C   0  0  1  0  0  0  0  0  0  0  0  0
   21.9160   -6.5541  -14.9766 C   0  0  0  0  0  0  0  0  0  0  0  0
   23.2095   -5.7229  -14.0228 S   0  0  0  0  0  0  0  0  0  0  0  0
   20.3816   -4.6887  -14.4357 C   0  0  0  0  0  0  0  0  0  0  0  0
   20.7298   -4.0119  -13.4479 O   0  0  0  0  0  0  0  0  0  0  0  0
   19.8124   -4.0330  -15.5267 O   0  0  0  0  0  0  0  0  0  0  0  0
  2  1  1  6
  2  5  1  0
  2  3  1  0
  3  4  1  0
  5  7  1  0
  6  5  2  0
  7  8  1  0
  8 13  1  0
  9 10  1  0
  8  9  1  1
 10 11  1  0
 11 15  1  0
 11 12  2  0
 13 14  2  0
 13 16  1  0
 16 17  1  0
 17 18  1  6
 17 20  1  0
 19 18  1  0
 20 22  1  0
 21 20  2  0
M  END
$$$$
