CEC.pdb
     RDKit          3D

 22 21  0  0  1  0  0  0  0  0999 V2000
   17.2335  -11.1090  -14.3467 N   0  0  0  0  0  0  0  0  0  0  0  0
   16.9765  -11.4344  -12.9587 C   0  0  1  0  0  0  0  0  0  0  0  0
   17.5694  -12.7426  -12.6384 C   0  0  0  0  0  0  0  0  0  0  0  0
   16.7423  -14.0905  -13.4959 S   0  0  0  0  0  0  0  0  0  0  0  0
   17.3384  -10.3211  -12.0624 C   0  0  0  0  0  0  0  0  0  0  0  0
   17.0604  -10.4504  -10.8497 O   0  0  0  0  0  0  0  0  0  0  0  0
   17.9729   -9.1404  -12.5101 N   0  0  0  0  0  0  0  0  0  0  0  0
   18.3657   -8.0061  -11.7495 C   0  0  1  0  0  0  0  0  0  0  0  0
   19.4692   -7.1620  -12.3265 C   0  0  0  0  0  0  0  0  0  0  0  0
   19.9883   -6.0816  -11.4468 C   0  0  0  0  0  0  0  0  0  0  0  0
   21.0954   -5.3110  -12.0440 C   0  0  0  0  0  0  0  0  0  0  0  0
   20.8944   -4.1438  -12.4285 O   0  0  0  0  0  0  0  0  0  0  0  0
   17.2917   -7.1882  -11.2282 C   0  0  0  0  0  0  0  0  0  0  0  0
   16.3900   -6.7133  -12.0091 O   0  0  0  0  0  0  0  0  0  0  0  0
   22.3443   -5.8687  -12.1797 O   0  0  0  0  0  0  0  0  0  0  0  0
   17.1135   -6.8318   -9.8648 N   0  0  0  0  0  0  0  0  0  0  0  0
   15.9099   -6.1596   -9.3862 C   0  0  1  0  0  0  0  0  0  0  0  0
   15.3862   -6.7344   -8.1030 C   0  0  0  0  0  0  0  0  0  0  0  0
   15.0084   -8.4978   -8.2486 S   0  0  0  0  0  0  0  0  0  0  0  0
   16.1683   -4.6950   -9.2673 C   0  0  0  0  0  0  0  0  0  0  0  0
   17.2835   -4.1727   -9.4637 O   0  0  0  0  0  0  0  0  0  0  0  0
   15.0985   -3.8722   -8.9169 O   0  0  0  0  0  0  0  0  0  0  0  0
  2  1  1  6
  2  5  1  0
  2  3  1  0
  3  4  1  0
  5  7  1  0
  6  5  2  0
  7  8  1  0
  8 13  1  0
  9 10  1  0
  8  9  1  6
 10 11  1  0
 11 15  1  0
 11 12  2  0
 13 14  2  0
 13 16  1  0
 16 17  1  0
 17 18  1  1
 17 20  1  0
 19 18  1  0
 20 22  1  0
 21 20  2  0
M  END
$$$$
