CEC.pdb
     RDKit          3D

 22 21  0  0  1  0  0  0  0  0999 V2000
   25.8364  -11.5846  -17.8785 N   0  0  0  0  0  0  0  0  0  0  0  0
   25.2325  -11.3497  -16.5830 C   0  0  1  0  0  0  0  0  0  0  0  0
   26.2778  -11.0170  -15.6020 C   0  0  0  0  0  0  0  0  0  0  0  0
   27.4665  -12.3518  -15.3983 S   0  0  0  0  0  0  0  0  0  0  0  0
   24.1024  -10.4069  -16.6719 C   0  0  0  0  0  0  0  0  0  0  0  0
   24.2859   -9.3550  -17.3235 O   0  0  0  0  0  0  0  0  0  0  0  0
   22.8486  -10.6402  -16.0633 N   0  0  0  0  0  0  0  0  0  0  0  0
   21.6971   -9.8075  -16.0660 C   0  0  1  0  0  0  0  0  0  0  0  0
   20.3693  -10.4999  -15.9220 C   0  0  0  0  0  0  0  0  0  0  0  0
   20.0335  -11.4878  -16.9812 C   0  0  0  0  0  0  0  0  0  0  0  0
   18.7724  -12.2132  -16.7375 C   0  0  0  0  0  0  0  0  0  0  0  0
   17.9022  -12.2492  -17.6276 O   0  0  0  0  0  0  0  0  0  0  0  0
   21.7681   -8.6228  -15.2380 C   0  0  0  0  0  0  0  0  0  0  0  0
   22.1198   -8.7033  -14.0058 O   0  0  0  0  0  0  0  0  0  0  0  0
   18.5495  -12.8483  -15.5391 O   0  0  0  0  0  0  0  0  0  0  0  0
   21.4749   -7.2998  -15.6642 N   0  0  0  0  0  0  0  0  0  0  0  0
   21.5843   -6.1513  -14.7706 C   0  0  1  0  0  0  0  0  0  0  0  0
   22.6580   -5.1871  -15.1811 C   0  0  0  0  0  0  0  0  0  0  0  0
   22.7406   -3.7498  -14.0852 S   0  0  0  0  0  0  0  0  0  0  0  0
   20.2572   -5.4794  -14.6545 C   0  0  0  0  0  0  0  0  0  0  0  0
   19.3368   -5.6214  -15.4838 O   0  0  0  0  0  0  0  0  0  0  0  0
   20.0428   -4.6486  -13.5553 O   0  0  0  0  0  0  0  0  0  0  0  0
  2  1  1  6
  2  5  1  0
  2  3  1  0
  3  4  1  0
  5  7  1  0
  6  5  2  0
  7  8  1  0
  8 13  1  0
  9 10  1  0
  8  9  1  1
 10 11  1  0
 11 15  1  0
 11 12  2  0
 13 14  2  0
 13 16  1  0
 16 17  1  0
 17 18  1  6
 17 20  1  0
 19 18  1  0
 20 22  1  0
 21 20  2  0
M  END
$$$$
