CEC.pdb
     RDKit          3D

 22 21  0  0  1  0  0  0  0  0999 V2000
   17.1070  -10.9727  -16.2679 N   0  0  0  0  0  0  0  0  0  0  0  0
   18.4772  -11.0712  -15.8085 C   0  0  1  0  0  0  0  0  0  0  0  0
   19.1002  -12.2832  -16.3640 C   0  0  0  0  0  0  0  0  0  0  0  0
   18.3450  -13.7867  -15.7274 S   0  0  0  0  0  0  0  0  0  0  0  0
   19.2129   -9.8103  -16.0157 C   0  0  0  0  0  0  0  0  0  0  0  0
   20.3793   -9.7493  -15.5679 O   0  0  0  0  0  0  0  0  0  0  0  0
   18.6640   -8.6936  -16.6853 N   0  0  0  0  0  0  0  0  0  0  0  0
   19.2645   -7.4299  -16.9337 C   0  0  1  0  0  0  0  0  0  0  0  0
   18.5862   -6.5542  -17.9517 C   0  0  0  0  0  0  0  0  0  0  0  0
   19.2640   -5.2663  -18.2557 C   0  0  0  0  0  0  0  0  0  0  0  0
   19.6128   -5.1011  -19.6794 C   0  0  0  0  0  0  0  0  0  0  0  0
   20.1439   -6.0440  -20.2955 O   0  0  0  0  0  0  0  0  0  0  0  0
   19.6592   -6.6735  -15.7648 C   0  0  0  0  0  0  0  0  0  0  0  0
   18.8335   -6.4752  -14.8018 O   0  0  0  0  0  0  0  0  0  0  0  0
   19.3576   -3.9180  -20.3308 O   0  0  0  0  0  0  0  0  0  0  0  0
   20.9375   -6.0918  -15.5516 N   0  0  0  0  0  0  0  0  0  0  0  0
   21.2608   -5.3437  -14.3411 C   0  0  1  0  0  0  0  0  0  0  0  0
   22.1994   -6.0779  -13.4293 C   0  0  0  0  0  0  0  0  0  0  0  0
   22.7720   -5.0420  -12.0608 S   0  0  0  0  0  0  0  0  0  0  0  0
   21.7925   -3.9996  -14.7105 C   0  0  0  0  0  0  0  0  0  0  0  0
   22.5513   -3.7999  -15.6797 O   0  0  0  0  0  0  0  0  0  0  0  0
   21.4152   -2.9122  -13.9233 O   0  0  0  0  0  0  0  0  0  0  0  0
  2  1  1  6
  2  5  1  0
  2  3  1  0
  3  4  1  0
  5  7  1  0
  6  5  2  0
  7  8  1  0
  8 13  1  0
  9 10  1  0
  8  9  1  1
 10 11  1  0
 11 15  1  0
 11 12  2  0
 13 14  2  0
 13 16  1  0
 16 17  1  0
 17 18  1  6
 17 20  1  0
 19 18  1  0
 20 22  1  0
 21 20  2  0
M  END
$$$$
