SGD.pdb
     RDKit          3D

 19 18  0  0  1  0  0  0  0  0999 V2000
    1.4350  -22.0193   21.0526 O   0  0  0  0  0  0  0  0  0  0  0  0
    0.5116  -21.3474   21.8490 C   0  0  0  0  0  0  0  0  0  0  0  0
    0.5004  -19.9011   21.4681 C   0  0  2  0  0  0  0  0  0  0  0  0
   -0.1902  -19.6745   20.2082 N   0  0  0  0  0  0  0  0  0  0  0  0
    1.8916  -19.3872   21.3912 C   0  0  0  0  0  0  0  0  0  0  0  0
    2.3456  -19.0870   20.2629 O   0  0  0  0  0  0  0  0  0  0  0  0
    2.6791  -19.2411   22.5590 N   0  0  0  0  0  0  0  0  0  0  0  0
    3.9884  -18.6161   22.4678 C   0  0  0  0  0  0  0  0  0  0  0  0
    5.0001  -19.5124   23.0398 C   0  0  0  0  0  0  0  0  0  0  0  0
    4.6917  -20.6279   23.5606 O   0  0  0  0  0  0  0  0  0  0  0  0
    6.3498  -19.1355   23.0156 N   0  0  0  0  0  0  0  0  0  0  0  0
    7.4222  -19.9867   23.5926 C   0  0  1  0  0  0  0  0  0  0  0  0
    8.6971  -19.5793   22.9179 C   0  0  0  0  0  0  0  0  0  0  0  0
    8.6921  -19.9633   21.5052 C   0  0  0  0  0  0  0  0  0  0  0  0
    8.3698  -21.1071   21.1479 O   0  0  0  0  0  0  0  0  0  0  0  0
    7.5123  -19.6618   25.0405 C   0  0  0  0  0  0  0  0  0  0  0  0
    7.0571  -18.6240   25.5426 O   0  0  0  0  0  0  0  0  0  0  0  0
    9.0546  -19.0386   20.5225 O   0  0  0  0  0  0  0  0  0  0  0  0
    8.1468  -20.5653   25.9234 O   0  0  0  0  0  0  0  0  0  0  0  0
  2  1  1  0
  3  2  1  0
  3  4  1  6
  5  3  1  0
  6  5  2  0
  7  5  1  0
  8  7  1  0
  9  8  1  0
  9 10  2  0
 11  9  1  0
 12 11  1  0
 12 13  1  6
 14 13  1  0
 15 14  2  0
 16 12  1  0
 17 16  2  0
 18 14  1  0
 19 16  1  0
M  END
$$$$
