SGD.pdb
     RDKit          3D

 19 18  0  0  1  0  0  0  0  0999 V2000
    6.0224  -13.2249   17.8464 O   0  0  0  0  0  0  0  0  0  0  0  0
    7.3022  -12.7183   17.6371 C   0  0  0  0  0  0  0  0  0  0  0  0
    8.2969  -13.8230   17.8025 C   0  0  2  0  0  0  0  0  0  0  0  0
    7.8206  -15.0749   17.2355 N   0  0  0  0  0  0  0  0  0  0  0  0
    8.6211  -14.0007   19.2409 C   0  0  0  0  0  0  0  0  0  0  0  0
    9.1787  -13.0517   19.8392 O   0  0  0  0  0  0  0  0  0  0  0  0
    8.3081  -15.2066   19.9140 N   0  0  0  0  0  0  0  0  0  0  0  0
    8.6433  -15.3506   21.3212 C   0  0  0  0  0  0  0  0  0  0  0  0
    9.7953  -16.2492   21.4610 C   0  0  0  0  0  0  0  0  0  0  0  0
   10.2475  -16.9188   20.4823 O   0  0  0  0  0  0  0  0  0  0  0  0
   10.4224  -16.3796   22.7076 N   0  0  0  0  0  0  0  0  0  0  0  0
   11.5034  -17.3689   22.9529 C   0  0  1  0  0  0  0  0  0  0  0  0
   12.5632  -16.6547   23.7359 C   0  0  0  0  0  0  0  0  0  0  0  0
   13.5197  -15.9928   22.8469 C   0  0  0  0  0  0  0  0  0  0  0  0
   14.2356  -15.0615   23.2469 O   0  0  0  0  0  0  0  0  0  0  0  0
   10.9270  -18.4535   23.7905 C   0  0  0  0  0  0  0  0  0  0  0  0
    9.9577  -18.2975   24.5470 O   0  0  0  0  0  0  0  0  0  0  0  0
   13.6449  -16.4020   21.5169 O   0  0  0  0  0  0  0  0  0  0  0  0
   11.4920  -19.7486   23.7464 O   0  0  0  0  0  0  0  0  0  0  0  0
  2  1  1  0
  3  2  1  0
  3  4  1  1
  5  3  1  0
  6  5  2  0
  7  5  1  0
  8  7  1  0
  9  8  1  0
  9 10  2  0
 11  9  1  0
 12 11  1  0
 12 13  1  1
 14 13  1  0
 15 14  2  0
 16 12  1  0
 17 16  2  0
 18 14  1  0
 19 16  1  0
M  END
$$$$
