SGD.pdb
     RDKit          3D

 19 18  0  0  1  0  0  0  0  0999 V2000
    7.1416  -14.8289   19.5877 O   0  0  0  0  0  0  0  0  0  0  0  0
    7.7883  -13.7842   20.2425 C   0  0  0  0  0  0  0  0  0  0  0  0
    8.5888  -13.0061   19.2471 C   0  0  2  0  0  0  0  0  0  0  0  0
    7.7727  -12.5370   18.1383 N   0  0  0  0  0  0  0  0  0  0  0  0
    9.7132  -13.8350   18.7430 C   0  0  0  0  0  0  0  0  0  0  0  0
    9.9202  -13.8558   17.5076 O   0  0  0  0  0  0  0  0  0  0  0  0
   10.5260  -14.5780   19.6332 N   0  0  0  0  0  0  0  0  0  0  0  0
   11.7212  -15.2372   19.1331 C   0  0  0  0  0  0  0  0  0  0  0  0
   12.8418  -14.9777   20.0448 C   0  0  0  0  0  0  0  0  0  0  0  0
   13.3920  -13.8369   20.1250 O   0  0  0  0  0  0  0  0  0  0  0  0
   13.3268  -16.0130   20.8553 N   0  0  0  0  0  0  0  0  0  0  0  0
   14.4585  -15.8193   21.7984 C   0  0  1  0  0  0  0  0  0  0  0  0
   14.3833  -16.9419   22.7886 C   0  0  0  0  0  0  0  0  0  0  0  0
   13.3757  -16.6724   23.8158 C   0  0  0  0  0  0  0  0  0  0  0  0
   12.7817  -15.5841   23.8683 O   0  0  0  0  0  0  0  0  0  0  0  0
   15.7141  -15.9463   21.0127 C   0  0  0  0  0  0  0  0  0  0  0  0
   16.8415  -15.7209   21.4758 O   0  0  0  0  0  0  0  0  0  0  0  0
   13.0611  -17.6465   24.7668 O   0  0  0  0  0  0  0  0  0  0  0  0
   15.6557  -16.3443   19.6575 O   0  0  0  0  0  0  0  0  0  0  0  0
  2  1  1  0
  3  2  1  0
  3  4  1  6
  5  3  1  0
  6  5  2  0
  7  5  1  0
  8  7  1  0
  9  8  1  0
  9 10  2  0
 11  9  1  0
 12 11  1  0
 12 13  1  1
 14 13  1  0
 15 14  2  0
 16 12  1  0
 17 16  2  0
 18 14  1  0
 19 16  1  0
M  END
$$$$
