SGD.pdb
     RDKit          3D

 19 18  0  0  1  0  0  0  0  0999 V2000
    5.4187  -19.6140   19.5250 O   0  0  0  0  0  0  0  0  0  0  0  0
    6.6242  -19.0136   19.8777 C   0  0  0  0  0  0  0  0  0  0  0  0
    6.6391  -17.6099   19.3617 C   0  0  2  0  0  0  0  0  0  0  0  0
    6.8029  -17.5616   17.9173 N   0  0  0  0  0  0  0  0  0  0  0  0
    7.7189  -16.8374   20.0274 C   0  0  0  0  0  0  0  0  0  0  0  0
    8.7372  -16.5524   19.3559 O   0  0  0  0  0  0  0  0  0  0  0  0
    7.5987  -16.4356   21.3799 N   0  0  0  0  0  0  0  0  0  0  0  0
    8.6348  -15.6097   21.9777 C   0  0  0  0  0  0  0  0  0  0  0  0
    9.7981  -16.4429   22.3041 C   0  0  0  0  0  0  0  0  0  0  0  0
    9.7822  -17.7040   22.1617 O   0  0  0  0  0  0  0  0  0  0  0  0
   10.9665  -15.8390   22.7883 N   0  0  0  0  0  0  0  0  0  0  0  0
   12.1871  -16.6203   23.1155 C   0  0  1  0  0  0  0  0  0  0  0  0
   13.3105  -15.6327   23.2117 C   0  0  0  0  0  0  0  0  0  0  0  0
   14.6037  -16.3125   23.3049 C   0  0  0  0  0  0  0  0  0  0  0  0
   14.7290  -17.5076   22.9951 O   0  0  0  0  0  0  0  0  0  0  0  0
   11.9693  -17.2412   24.4486 C   0  0  0  0  0  0  0  0  0  0  0  0
   11.3760  -16.6796   25.3807 O   0  0  0  0  0  0  0  0  0  0  0  0
   15.7329  -15.6204   23.7497 O   0  0  0  0  0  0  0  0  0  0  0  0
   12.4533  -18.5450   24.7021 O   0  0  0  0  0  0  0  0  0  0  0  0
  2  1  1  0
  3  2  1  0
  3  4  1  6
  5  3  1  0
  6  5  2  0
  7  5  1  0
  8  7  1  0
  9  8  1  0
  9 10  2  0
 11  9  1  0
 12 11  1  0
 12 13  1  1
 14 13  1  0
 15 14  2  0
 16 12  1  0
 17 16  2  0
 18 14  1  0
 19 16  1  0
M  END
$$$$
