SGD.pdb
     RDKit          3D

 19 18  0  0  1  0  0  0  0  0999 V2000
    6.5553  -14.0725   17.1912 O   0  0  0  0  0  0  0  0  0  0  0  0
    7.4950  -13.0738   17.4317 C   0  0  0  0  0  0  0  0  0  0  0  0
    8.7353  -13.6957   17.9903 C   0  0  2  0  0  0  0  0  0  0  0  0
    8.9656  -15.0283   17.4549 N   0  0  0  0  0  0  0  0  0  0  0  0
    8.6536  -13.7442   19.4724 C   0  0  0  0  0  0  0  0  0  0  0  0
    8.6372  -12.6578   20.0959 O   0  0  0  0  0  0  0  0  0  0  0  0
    8.5954  -14.9819   20.1580 N   0  0  0  0  0  0  0  0  0  0  0  0
    8.6773  -15.0027   21.6091 C   0  0  0  0  0  0  0  0  0  0  0  0
    9.7399  -15.9251   22.0267 C   0  0  0  0  0  0  0  0  0  0  0  0
    9.5828  -17.1843   22.0056 O   0  0  0  0  0  0  0  0  0  0  0  0
   10.9684  -15.4113   22.4637 N   0  0  0  0  0  0  0  0  0  0  0  0
   12.0495  -16.2816   22.9941 C   0  0  1  0  0  0  0  0  0  0  0  0
   13.2488  -15.4025   23.1821 C   0  0  0  0  0  0  0  0  0  0  0  0
   14.4898  -16.1596   23.0094 C   0  0  0  0  0  0  0  0  0  0  0  0
   14.4773  -17.3857   22.8188 O   0  0  0  0  0  0  0  0  0  0  0  0
   11.6012  -16.7836   24.3197 C   0  0  0  0  0  0  0  0  0  0  0  0
   11.9021  -17.8979   24.7713 O   0  0  0  0  0  0  0  0  0  0  0  0
   15.7249  -15.5081   23.0568 O   0  0  0  0  0  0  0  0  0  0  0  0
   10.7841  -15.9700   25.1375 O   0  0  0  0  0  0  0  0  0  0  0  0
  2  1  1  0
  3  2  1  0
  3  4  1  6
  5  3  1  0
  6  5  2  0
  7  5  1  0
  8  7  1  0
  9  8  1  0
  9 10  2  0
 11  9  1  0
 12 11  1  0
 12 13  1  1
 14 13  1  0
 15 14  2  0
 16 12  1  0
 17 16  2  0
 18 14  1  0
 19 16  1  0
M  END
$$$$
