SGD.pdb
     RDKit          3D

 19 18  0  0  1  0  0  0  0  0999 V2000
    6.3977  -14.6409   18.3241 O   0  0  0  0  0  0  0  0  0  0  0  0
    6.3553  -13.5390   19.1740 C   0  0  0  0  0  0  0  0  0  0  0  0
    7.7276  -12.9542   19.2828 C   0  0  2  0  0  0  0  0  0  0  0  0
    8.2607  -12.5694   17.9854 N   0  0  0  0  0  0  0  0  0  0  0  0
    8.6386  -13.9212   19.9466 C   0  0  0  0  0  0  0  0  0  0  0  0
    9.6470  -14.3088   19.3124 O   0  0  0  0  0  0  0  0  0  0  0  0
    8.3741  -14.3889   21.2567 N   0  0  0  0  0  0  0  0  0  0  0  0
    9.3357  -15.2568   21.9164 C   0  0  0  0  0  0  0  0  0  0  0  0
    8.8543  -15.5874   23.2629 C   0  0  0  0  0  0  0  0  0  0  0  0
    8.1712  -14.7691   23.9517 O   0  0  0  0  0  0  0  0  0  0  0  0
    9.1519  -16.8409   23.8145 N   0  0  0  0  0  0  0  0  0  0  0  0
    8.6268  -17.2717   25.1360 C   0  0  1  0  0  0  0  0  0  0  0  0
    8.2076  -18.7023   24.9806 C   0  0  0  0  0  0  0  0  0  0  0  0
    6.8159  -18.7988   24.5369 C   0  0  0  0  0  0  0  0  0  0  0  0
    6.1651  -17.7885   24.2274 O   0  0  0  0  0  0  0  0  0  0  0  0
    9.7528  -17.1967   26.1038 C   0  0  0  0  0  0  0  0  0  0  0  0
   10.9447  -17.1349   25.7695 O   0  0  0  0  0  0  0  0  0  0  0  0
    6.1879  -20.0440   24.4532 O   0  0  0  0  0  0  0  0  0  0  0  0
    9.4849  -17.1938   27.4918 O   0  0  0  0  0  0  0  0  0  0  0  0
  2  1  1  0
  3  2  1  0
  3  4  1  6
  5  3  1  0
  6  5  2  0
  7  5  1  0
  8  7  1  0
  9  8  1  0
  9 10  2  0
 11  9  1  0
 12 11  1  0
 12 13  1  6
 14 13  1  0
 15 14  2  0
 16 12  1  0
 17 16  2  0
 18 14  1  0
 19 16  1  0
M  END
$$$$
