SGD.pdb
     RDKit          3D

 19 18  0  0  1  0  0  0  0  0999 V2000
    8.6648  -15.6386   17.8378 O   0  0  0  0  0  0  0  0  0  0  0  0
    8.4061  -16.9183   18.3213 C   0  0  0  0  0  0  0  0  0  0  0  0
    7.3943  -16.8294   19.4192 C   0  0  2  0  0  0  0  0  0  0  0  0
    6.1884  -16.1359   18.9943 N   0  0  0  0  0  0  0  0  0  0  0  0
    7.9874  -16.1522   20.6004 C   0  0  0  0  0  0  0  0  0  0  0  0
    9.0714  -16.5930   21.0476 O   0  0  0  0  0  0  0  0  0  0  0  0
    7.3461  -15.0417   21.2010 N   0  0  0  0  0  0  0  0  0  0  0  0
    8.0316  -14.2941   22.2423 C   0  0  0  0  0  0  0  0  0  0  0  0
    8.1219  -15.1146   23.4559 C   0  0  0  0  0  0  0  0  0  0  0  0
    7.0904  -15.5819   24.0289 O   0  0  0  0  0  0  0  0  0  0  0  0
    9.3792  -15.3966   24.0072 N   0  0  0  0  0  0  0  0  0  0  0  0
    9.5422  -16.2235   25.2307 C   0  0  1  0  0  0  0  0  0  0  0  0
   10.9149  -16.8210   25.1598 C   0  0  0  0  0  0  0  0  0  0  0  0
   11.0380  -17.7251   24.0149 C   0  0  0  0  0  0  0  0  0  0  0  0
   10.3702  -18.7684   23.9410 O   0  0  0  0  0  0  0  0  0  0  0  0
    9.4709  -15.3044   26.3970 C   0  0  0  0  0  0  0  0  0  0  0  0
    9.4800  -14.0687   26.3011 O   0  0  0  0  0  0  0  0  0  0  0  0
   11.9198  -17.4265   22.9732 O   0  0  0  0  0  0  0  0  0  0  0  0
    9.3875  -15.8360   27.7043 O   0  0  0  0  0  0  0  0  0  0  0  0
  2  1  1  0
  3  2  1  0
  3  4  1  6
  5  3  1  0
  6  5  2  0
  7  5  1  0
  8  7  1  0
  9  8  1  0
  9 10  2  0
 11  9  1  0
 12 11  1  0
 12 13  1  6
 14 13  1  0
 15 14  2  0
 16 12  1  0
 17 16  2  0
 18 14  1  0
 19 16  1  0
M  END
$$$$
