SGD.pdb
     RDKit          3D

 19 18  0  0  1  0  0  0  0  0999 V2000
    8.5644  -19.6914   18.9135 O   0  0  0  0  0  0  0  0  0  0  0  0
    9.8072  -19.0771   19.0410 C   0  0  0  0  0  0  0  0  0  0  0  0
    9.6681  -17.6236   18.7171 C   0  0  2  0  0  0  0  0  0  0  0  0
   10.1754  -17.3095   17.3907 N   0  0  0  0  0  0  0  0  0  0  0  0
   10.3682  -16.8076   19.7416 C   0  0  0  0  0  0  0  0  0  0  0  0
   11.5910  -16.5869   19.5821 O   0  0  0  0  0  0  0  0  0  0  0  0
    9.6728  -16.2948   20.8635 N   0  0  0  0  0  0  0  0  0  0  0  0
   10.3931  -15.5228   21.8627 C   0  0  0  0  0  0  0  0  0  0  0  0
   10.8546  -16.4153   22.9325 C   0  0  0  0  0  0  0  0  0  0  0  0
   10.3438  -17.5623   23.1174 O   0  0  0  0  0  0  0  0  0  0  0  0
   11.8894  -15.9990   23.7811 N   0  0  0  0  0  0  0  0  0  0  0  0
   12.4288  -16.8664   24.8602 C   0  0  1  0  0  0  0  0  0  0  0  0
   13.7926  -16.3383   25.1879 C   0  0  0  0  0  0  0  0  0  0  0  0
   14.6660  -16.3682   24.0133 C   0  0  0  0  0  0  0  0  0  0  0  0
   14.7626  -17.3832   23.3060 O   0  0  0  0  0  0  0  0  0  0  0  0
   11.5447  -16.6994   26.0436 C   0  0  0  0  0  0  0  0  0  0  0  0
   10.5954  -15.9037   26.0867 O   0  0  0  0  0  0  0  0  0  0  0  0
   15.4151  -15.2419   23.6636 O   0  0  0  0  0  0  0  0  0  0  0  0
   11.7712  -17.4760   27.2029 O   0  0  0  0  0  0  0  0  0  0  0  0
  2  1  1  0
  3  2  1  0
  3  4  1  6
  5  3  1  0
  6  5  2  0
  7  5  1  0
  8  7  1  0
  9  8  1  0
  9 10  2  0
 11  9  1  0
 12 11  1  0
 12 13  1  1
 14 13  1  0
 15 14  2  0
 16 12  1  0
 17 16  2  0
 18 14  1  0
 19 16  1  0
M  END
$$$$
