SGD.pdb
     RDKit          3D

 19 18  0  0  1  0  0  0  0  0999 V2000
    8.3245  -14.8894   17.7495 O   0  0  0  0  0  0  0  0  0  0  0  0
    7.4002  -14.7505   18.7812 C   0  0  0  0  0  0  0  0  0  0  0  0
    7.7993  -13.5934   19.6408 C   0  0  2  0  0  0  0  0  0  0  0  0
    7.8776  -12.3537   18.8843 N   0  0  0  0  0  0  0  0  0  0  0  0
    9.1002  -13.8770   20.2989 C   0  0  0  0  0  0  0  0  0  0  0  0
   10.0777  -13.1504   20.0058 O   0  0  0  0  0  0  0  0  0  0  0  0
    9.2294  -14.9363   21.2297 N   0  0  0  0  0  0  0  0  0  0  0  0
   10.4792  -15.1083   21.9519 C   0  0  0  0  0  0  0  0  0  0  0  0
   10.3364  -16.1968   22.9260 C   0  0  0  0  0  0  0  0  0  0  0  0
    9.2324  -16.7964   23.1061 O   0  0  0  0  0  0  0  0  0  0  0  0
   11.4453  -16.5942   23.6853 N   0  0  0  0  0  0  0  0  0  0  0  0
   11.4097  -17.7772   24.5836 C   0  0  1  0  0  0  0  0  0  0  0  0
   12.8313  -18.2163   24.7643 C   0  0  0  0  0  0  0  0  0  0  0  0
   13.4093  -18.6663   23.4968 C   0  0  0  0  0  0  0  0  0  0  0  0
   14.4550  -18.1687   23.0509 O   0  0  0  0  0  0  0  0  0  0  0  0
   10.8708  -17.3214   25.8920 C   0  0  0  0  0  0  0  0  0  0  0  0
   10.4390  -18.0896   26.7637 O   0  0  0  0  0  0  0  0  0  0  0  0
   12.7870  -19.6755   22.7577 O   0  0  0  0  0  0  0  0  0  0  0  0
   10.8335  -15.9405   26.1920 O   0  0  0  0  0  0  0  0  0  0  0  0
  2  1  1  0
  3  2  1  0
  3  4  1  6
  5  3  1  0
  6  5  2  0
  7  5  1  0
  8  7  1  0
  9  8  1  0
  9 10  2  0
 11  9  1  0
 12 11  1  0
 12 13  1  1
 14 13  1  0
 15 14  2  0
 16 12  1  0
 17 16  2  0
 18 14  1  0
 19 16  1  0
M  END
$$$$
