SGD.pdb
     RDKit          3D

 19 18  0  0  1  0  0  0  0  0999 V2000
    9.8343  -15.1276   18.7014 O   0  0  0  0  0  0  0  0  0  0  0  0
    8.9579  -14.9126   17.6413 C   0  0  0  0  0  0  0  0  0  0  0  0
    8.0252  -13.7992   17.9980 C   0  0  2  0  0  0  0  0  0  0  0  0
    8.7327  -12.5516   18.2400 N   0  0  0  0  0  0  0  0  0  0  0  0
    7.2220  -14.1740   19.1897 C   0  0  0  0  0  0  0  0  0  0  0  0
    6.4299  -15.1388   19.0846 O   0  0  0  0  0  0  0  0  0  0  0  0
    7.3496  -13.4618   20.4068 N   0  0  0  0  0  0  0  0  0  0  0  0
    6.6208  -13.9118   21.5813 C   0  0  0  0  0  0  0  0  0  0  0  0
    7.3640  -14.9965   22.2334 C   0  0  0  0  0  0  0  0  0  0  0  0
    6.8272  -15.7519   23.1004 O   0  0  0  0  0  0  0  0  0  0  0  0
    8.7070  -15.2136   21.8964 N   0  0  0  0  0  0  0  0  0  0  0  0
    9.4993  -16.3311   22.4718 C   0  0  1  0  0  0  0  0  0  0  0  0
   10.7140  -16.4802   21.6064 C   0  0  0  0  0  0  0  0  0  0  0  0
   11.6209  -17.4973   22.1414 C   0  0  0  0  0  0  0  0  0  0  0  0
   11.2663  -18.6805   22.2605 O   0  0  0  0  0  0  0  0  0  0  0  0
    9.9211  -15.9162   23.8356 C   0  0  0  0  0  0  0  0  0  0  0  0
   10.2677  -16.7118   24.7206 O   0  0  0  0  0  0  0  0  0  0  0  0
   12.9166  -17.1504   22.5322 O   0  0  0  0  0  0  0  0  0  0  0  0
    9.9393  -14.5445   24.1768 O   0  0  0  0  0  0  0  0  0  0  0  0
  2  1  1  0
  3  2  1  0
  3  4  1  1
  5  3  1  0
  6  5  2  0
  7  5  1  0
  8  7  1  0
  9  8  1  0
  9 10  2  0
 11  9  1  0
 12 11  1  0
 12 13  1  6
 14 13  1  0
 15 14  2  0
 16 12  1  0
 17 16  2  0
 18 14  1  0
 19 16  1  0
M  END
$$$$
