SGD.pdb
     RDKit          3D

 19 18  0  0  1  0  0  0  0  0999 V2000
   10.2442  -20.5752   15.2490 O   0  0  0  0  0  0  0  0  0  0  0  0
    9.2294  -19.6641   15.5287 C   0  0  0  0  0  0  0  0  0  0  0  0
    9.8237  -18.4587   16.1852 C   0  0  2  0  0  0  0  0  0  0  0  0
   11.0113  -17.9888   15.4894 N   0  0  0  0  0  0  0  0  0  0  0  0
   10.1450  -18.7615   17.6032 C   0  0  0  0  0  0  0  0  0  0  0  0
    9.1959  -19.0242   18.3776 O   0  0  0  0  0  0  0  0  0  0  0  0
   11.4839  -18.7538   18.0639 N   0  0  0  0  0  0  0  0  0  0  0  0
   11.7654  -19.0623   19.4563 C   0  0  0  0  0  0  0  0  0  0  0  0
   12.7327  -18.0942   19.9867 C   0  0  0  0  0  0  0  0  0  0  0  0
   13.4054  -17.3318   19.2270 O   0  0  0  0  0  0  0  0  0  0  0  0
   12.9276  -18.0003   21.3714 N   0  0  0  0  0  0  0  0  0  0  0  0
   13.8502  -17.0059   21.9777 C   0  0  1  0  0  0  0  0  0  0  0  0
   13.5332  -16.9699   23.4421 C   0  0  0  0  0  0  0  0  0  0  0  0
   14.2756  -15.9034   24.1163 C   0  0  0  0  0  0  0  0  0  0  0  0
   15.0078  -15.1265   23.4837 O   0  0  0  0  0  0  0  0  0  0  0  0
   15.2338  -17.5170   21.7914 C   0  0  0  0  0  0  0  0  0  0  0  0
   16.2454  -16.8038   21.8560 O   0  0  0  0  0  0  0  0  0  0  0  0
   14.1724  -15.7394   25.5000 O   0  0  0  0  0  0  0  0  0  0  0  0
   15.4440  -18.8890   21.5237 O   0  0  0  0  0  0  0  0  0  0  0  0
  2  1  1  0
  3  2  1  0
  3  4  1  6
  5  3  1  0
  6  5  2  0
  7  5  1  0
  8  7  1  0
  9  8  1  0
  9 10  2  0
 11  9  1  0
 12 11  1  0
 12 13  1  1
 14 13  1  0
 15 14  2  0
 16 12  1  0
 17 16  2  0
 18 14  1  0
 19 16  1  0
M  END
$$$$
