TWY.pdb
     RDKit          3D

 34 36  0  0  1  0  0  0  0  0999 V2000
   11.5078  -18.8845   18.1753 C   0  0  0  0  0  0  0  0  0  0  0  0
   11.2204  -18.0933   19.4320 C   0  0  1  0  0  0  0  0  0  0  0  0
   12.3927  -17.7170   20.0465 O   0  0  0  0  0  0  0  0  0  0  0  0
   10.3546  -16.9182   19.0459 C   0  0  2  0  0  0  0  0  0  0  0  0
   11.0711  -16.1433   18.0557 N   0  0  0  0  0  0  0  0  0  0  0  0
    9.9175  -16.1207   20.1930 C   0  0  0  0  0  0  0  0  0  0  0  0
   10.5285  -15.0355   20.4619 O   0  0  0  0  0  0  0  0  0  0  0  0
    8.8492  -16.4510   21.0568 N   0  0  0  0  0  0  0  0  0  0  0  0
    8.5693  -15.6546   22.2834 C   0  0  1  0  0  0  0  0  0  0  0  0
    7.1324  -15.7553   22.6286 C   0  0  0  0  0  0  0  0  0  0  0  0
    6.6949  -15.2286   23.9075 C   0  0  0  0  0  0  0  0  0  0  0  0
    6.1201  -15.8863   24.9728 C   0  0  0  0  0  0  0  0  0  0  0  0
    5.8449  -15.0111   25.9482 N   0  0  0  0  0  0  0  0  0  0  0  0
    6.2396  -13.7767   25.5228 C   0  0  0  0  0  0  0  0  0  0  0  0
    6.1842  -12.5409   26.1330 C   0  0  0  0  0  0  0  0  0  0  0  0
    6.6526  -11.4144   25.4951 C   0  0  0  0  0  0  0  0  0  0  0  0
    7.1901  -11.5003   24.2250 C   0  0  0  0  0  0  0  0  0  0  0  0
    7.2385  -12.7401   23.6294 C   0  0  0  0  0  0  0  0  0  0  0  0
    6.7772  -13.8800   24.2453 C   0  0  0  0  0  0  0  0  0  0  0  0
    9.4908  -16.1298   23.3238 C   0  0  0  0  0  0  0  0  0  0  0  0
    9.8094  -17.3755   23.4017 O   0  0  0  0  0  0  0  0  0  0  0  0
   11.7699  -17.1425   31.6746 O   0  0  0  0  0  0  0  0  0  0  0  0
   11.5140  -16.5804   30.4145 C   0  0  0  0  0  0  0  0  0  0  0  0
   12.0252  -17.1462   29.2586 C   0  0  0  0  0  0  0  0  0  0  0  0
   11.7655  -16.5824   28.0207 C   0  0  0  0  0  0  0  0  0  0  0  0
   10.9952  -15.4445   27.8781 C   0  0  0  0  0  0  0  0  0  0  0  0
   10.7478  -14.8773   26.5415 C   0  0  0  0  0  0  0  0  0  0  0  0
   10.8514  -15.9029   25.4212 C   0  0  2  0  0  0  0  0  0  0  0  0
   10.1055  -15.2970   24.3073 N   0  0  0  0  0  0  0  0  0  0  0  0
   10.2078  -17.1578   25.7968 C   0  0  0  0  0  0  0  0  0  0  0  0
   10.8930  -18.1760   26.0931 O   0  0  0  0  0  0  0  0  0  0  0  0
   10.4869  -14.8816   29.0295 C   0  0  0  0  0  0  0  0  0  0  0  0
   10.7457  -15.4459   30.2783 C   0  0  0  0  0  0  0  0  0  0  0  0
    8.8393  -17.2712   25.8408 O   0  0  0  0  0  0  0  0  0  0  0  0
  2  3  1  0
  2  1  1  6
  4  6  1  0
  4  2  1  0
  4  5  1  6
  6  7  2  0
  8  9  1  0
  8  6  1  0
  9 10  1  1
 11 12  2  0
 11 10  1  0
 13 12  1  0
 14 19  2  0
 14 13  1  0
 15 14  1  0
 16 17  1  0
 16 15  2  0
 17 18  2  0
 18 19  1  0
 19 11  1  0
 20  9  1  0
 21 20  2  0
 22 23  1  0
 23 33  2  0
 23 24  1  0
 24 25  2  0
 25 26  1  0
 26 27  1  0
 28 27  1  1
 28 29  1  0
 29 20  1  0
 30 28  1  0
 30 34  1  0
 31 30  2  0
 32 26  2  0
 33 32  1  0
M  END
$$$$
