TWY.pdb
     RDKit          3D

 34 36  0  0  1  0  0  0  0  0999 V2000
    6.7369  -17.4981   18.6119 C   0  0  0  0  0  0  0  0  0  0  0  0
    7.7293  -17.2438   19.7248 C   0  0  1  0  0  0  0  0  0  0  0  0
    8.9898  -17.0382   19.2125 O   0  0  0  0  0  0  0  0  0  0  0  0
    7.2232  -16.0720   20.5312 C   0  0  2  0  0  0  0  0  0  0  0  0
    7.0218  -14.9616   19.6253 N   0  0  0  0  0  0  0  0  0  0  0  0
    8.0838  -15.7376   21.6672 C   0  0  0  0  0  0  0  0  0  0  0  0
    8.8429  -14.7173   21.5900 O   0  0  0  0  0  0  0  0  0  0  0  0
    8.1544  -16.4617   22.8785 N   0  0  0  0  0  0  0  0  0  0  0  0
    9.0637  -16.0425   23.9806 C   0  0  1  0  0  0  0  0  0  0  0  0
    8.3728  -16.1893   25.2826 C   0  0  0  0  0  0  0  0  0  0  0  0
    7.3268  -15.2410   25.6156 C   0  0  0  0  0  0  0  0  0  0  0  0
    5.9610  -15.4199   25.6409 C   0  0  0  0  0  0  0  0  0  0  0  0
    5.3615  -14.2704   25.9762 N   0  0  0  0  0  0  0  0  0  0  0  0
    6.3351  -13.3352   26.1714 C   0  0  0  0  0  0  0  0  0  0  0  0
    6.2631  -12.0043   26.5264 C   0  0  0  0  0  0  0  0  0  0  0  0
    7.4037  -11.2459   26.6659 C   0  0  0  0  0  0  0  0  0  0  0  0
    8.6486  -11.8060   26.4519 C   0  0  0  0  0  0  0  0  0  0  0  0
    8.7040  -13.1349   26.0983 C   0  0  0  0  0  0  0  0  0  0  0  0
    7.5797  -13.9136   25.9525 C   0  0  0  0  0  0  0  0  0  0  0  0
   10.2972  -16.8277   23.8421 C   0  0  0  0  0  0  0  0  0  0  0  0
   10.2680  -18.0173   23.3486 O   0  0  0  0  0  0  0  0  0  0  0  0
   12.8505  -14.6323   18.2016 O   0  0  0  0  0  0  0  0  0  0  0  0
   13.0962  -15.0572   19.5163 C   0  0  0  0  0  0  0  0  0  0  0  0
   13.7264  -16.2627   19.7753 C   0  0  0  0  0  0  0  0  0  0  0  0
   13.9636  -16.6711   21.0771 C   0  0  0  0  0  0  0  0  0  0  0  0
   13.5894  -15.9087   22.1667 C   0  0  0  0  0  0  0  0  0  0  0  0
   13.8588  -16.3843   23.5343 C   0  0  0  0  0  0  0  0  0  0  0  0
   12.7551  -17.2711   24.0941 C   0  0  2  0  0  0  0  0  0  0  0  0
   11.5972  -16.3720   24.2170 N   0  0  0  0  0  0  0  0  0  0  0  0
   13.1073  -17.7756   25.4176 C   0  0  0  0  0  0  0  0  0  0  0  0
   12.5103  -17.3619   26.4504 O   0  0  0  0  0  0  0  0  0  0  0  0
   12.9617  -14.7087   21.9078 C   0  0  0  0  0  0  0  0  0  0  0  0
   12.7208  -14.2932   20.5985 C   0  0  0  0  0  0  0  0  0  0  0  0
   14.0963  -18.7149   25.5819 O   0  0  0  0  0  0  0  0  0  0  0  0
  2  3  1  0
  2  1  1  6
  4  6  1  0
  4  2  1  0
  4  5  1  6
  6  7  2  0
  8  9  1  0
  8  6  1  0
  9 10  1  1
 11 12  2  0
 11 10  1  0
 13 12  1  0
 14 19  2  0
 14 13  1  0
 15 14  1  0
 16 17  1  0
 16 15  2  0
 17 18  2  0
 18 19  1  0
 19 11  1  0
 20  9  1  0
 21 20  2  0
 22 23  1  0
 23 33  2  0
 23 24  1  0
 24 25  2  0
 25 26  1  0
 26 27  1  0
 28 27  1  1
 28 29  1  0
 29 20  1  0
 30 28  1  0
 30 34  1  0
 31 30  2  0
 32 26  2  0
 33 32  1  0
M  END
$$$$
