TWY.pdb
     RDKit          3D

 34 36  0  0  1  0  0  0  0  0999 V2000
    8.9514  -16.2679   17.9108 C   0  0  0  0  0  0  0  0  0  0  0  0
    9.0791  -14.8093   17.5314 C   0  0  1  0  0  0  0  0  0  0  0  0
    8.9007  -14.6434   16.1771 O   0  0  0  0  0  0  0  0  0  0  0  0
    8.0814  -14.0322   18.3562 C   0  0  2  0  0  0  0  0  0  0  0  0
    8.0267  -12.6833   17.8347 N   0  0  0  0  0  0  0  0  0  0  0  0
    8.3562  -14.0816   19.7931 C   0  0  0  0  0  0  0  0  0  0  0  0
    9.2621  -13.3275   20.2768 O   0  0  0  0  0  0  0  0  0  0  0  0
    7.6913  -14.9121   20.7230 N   0  0  0  0  0  0  0  0  0  0  0  0
    7.9907  -14.8399   22.1798 C   0  0  1  0  0  0  0  0  0  0  0  0
    6.7447  -15.0333   22.9570 C   0  0  0  0  0  0  0  0  0  0  0  0
    6.8276  -15.0064   24.4051 C   0  0  0  0  0  0  0  0  0  0  0  0
    6.7367  -16.0457   25.3049 C   0  0  0  0  0  0  0  0  0  0  0  0
    6.8391  -15.5720   26.5532 N   0  0  0  0  0  0  0  0  0  0  0  0
    6.9975  -14.2196   26.4731 C   0  0  0  0  0  0  0  0  0  0  0  0
    7.1479  -13.2594   27.4518 C   0  0  0  0  0  0  0  0  0  0  0  0
    7.2942  -11.9304   27.1236 C   0  0  0  0  0  0  0  0  0  0  0  0
    7.2932  -11.5307   25.8009 C   0  0  0  0  0  0  0  0  0  0  0  0
    7.1422  -12.5003   24.8359 C   0  0  0  0  0  0  0  0  0  0  0  0
    6.9943  -13.8339   25.1378 C   0  0  0  0  0  0  0  0  0  0  0  0
    9.0481  -15.8227   22.4504 C   0  0  0  0  0  0  0  0  0  0  0  0
    9.0321  -16.9794   21.8837 O   0  0  0  0  0  0  0  0  0  0  0  0
   13.2390  -14.3808   17.7899 O   0  0  0  0  0  0  0  0  0  0  0  0
   13.0584  -14.7655   19.1274 C   0  0  0  0  0  0  0  0  0  0  0  0
   12.4714  -13.9125   20.0469 C   0  0  0  0  0  0  0  0  0  0  0  0
   12.2983  -14.3036   21.3640 C   0  0  0  0  0  0  0  0  0  0  0  0
   12.6963  -15.5453   21.8206 C   0  0  0  0  0  0  0  0  0  0  0  0
   12.4955  -15.9176   23.2314 C   0  0  0  0  0  0  0  0  0  0  0  0
   11.1827  -16.6463   23.4832 C   0  0  2  0  0  0  0  0  0  0  0  0
   10.1558  -15.6049   23.3245 N   0  0  0  0  0  0  0  0  0  0  0  0
   11.1242  -17.1674   24.8453 C   0  0  0  0  0  0  0  0  0  0  0  0
   11.9189  -18.0698   25.2303 O   0  0  0  0  0  0  0  0  0  0  0  0
   13.2808  -16.3938   20.9045 C   0  0  0  0  0  0  0  0  0  0  0  0
   13.4571  -16.0043   19.5771 C   0  0  0  0  0  0  0  0  0  0  0  0
   10.2056  -16.6934   25.7504 O   0  0  0  0  0  0  0  0  0  0  0  0
  2  3  1  0
  2  1  1  6
  4  6  1  0
  4  2  1  0
  4  5  1  6
  6  7  2  0
  8  9  1  0
  8  6  1  0
  9 10  1  1
 11 12  2  0
 11 10  1  0
 13 12  1  0
 14 19  2  0
 14 13  1  0
 15 14  1  0
 16 17  1  0
 16 15  2  0
 17 18  2  0
 18 19  1  0
 19 11  1  0
 20  9  1  0
 21 20  2  0
 22 23  1  0
 23 33  2  0
 23 24  1  0
 24 25  2  0
 25 26  1  0
 26 27  1  0
 28 27  1  1
 28 29  1  0
 29 20  1  0
 30 28  1  0
 30 34  1  0
 31 30  2  0
 32 26  2  0
 33 32  1  0
M  END
$$$$
