TWY.pdb
     RDKit          3D

 34 36  0  0  1  0  0  0  0  0999 V2000
    6.7293  -16.3061   17.7420 C   0  0  0  0  0  0  0  0  0  0  0  0
    7.6801  -16.1598   18.9093 C   0  0  1  0  0  0  0  0  0  0  0  0
    8.9177  -15.7418   18.4768 O   0  0  0  0  0  0  0  0  0  0  0  0
    7.0495  -15.2082   19.8975 C   0  0  2  0  0  0  0  0  0  0  0  0
    6.8179  -13.9508   19.2195 N   0  0  0  0  0  0  0  0  0  0  0  0
    7.8224  -15.0611   21.1319 C   0  0  0  0  0  0  0  0  0  0  0  0
    8.6223  -14.0764   21.2484 O   0  0  0  0  0  0  0  0  0  0  0  0
    7.7633  -15.9350   22.2407 N   0  0  0  0  0  0  0  0  0  0  0  0
    8.6273  -15.7306   23.4361 C   0  0  1  0  0  0  0  0  0  0  0  0
    7.9176  -16.1921   24.6515 C   0  0  0  0  0  0  0  0  0  0  0  0
    6.9843  -15.2826   25.2887 C   0  0  0  0  0  0  0  0  0  0  0  0
    5.6276  -15.4191   25.4856 C   0  0  0  0  0  0  0  0  0  0  0  0
    5.1474  -14.3263   26.0924 N   0  0  0  0  0  0  0  0  0  0  0  0
    6.1904  -13.4707   26.2943 C   0  0  0  0  0  0  0  0  0  0  0  0
    6.2449  -12.2196   26.8725 C   0  0  0  0  0  0  0  0  0  0  0  0
    7.4350  -11.5338   26.9659 C   0  0  0  0  0  0  0  0  0  0  0  0
    8.6036  -12.0882   26.4800 C   0  0  0  0  0  0  0  0  0  0  0  0
    8.5332  -13.3370   25.9059 C   0  0  0  0  0  0  0  0  0  0  0  0
    7.3571  -14.0423   25.8006 C   0  0  0  0  0  0  0  0  0  0  0  0
    9.9011  -16.4106   23.1669 C   0  0  0  0  0  0  0  0  0  0  0  0
    9.9252  -17.5461   22.5590 O   0  0  0  0  0  0  0  0  0  0  0  0
   11.6683  -14.2307   17.3545 O   0  0  0  0  0  0  0  0  0  0  0  0
   12.0843  -14.6098   18.6401 C   0  0  0  0  0  0  0  0  0  0  0  0
   11.7421  -13.8629   19.7548 C   0  0  0  0  0  0  0  0  0  0  0  0
   12.1583  -14.2473   21.0184 C   0  0  0  0  0  0  0  0  0  0  0  0
   12.9242  -15.3778   21.2280 C   0  0  0  0  0  0  0  0  0  0  0  0
   13.3475  -15.7467   22.5896 C   0  0  0  0  0  0  0  0  0  0  0  0
   12.3909  -16.7092   23.2799 C   0  0  2  0  0  0  0  0  0  0  0  0
   11.1856  -15.9035   23.5290 N   0  0  0  0  0  0  0  0  0  0  0  0
   12.9322  -17.1616   24.5575 C   0  0  0  0  0  0  0  0  0  0  0  0
   12.4005  -16.8129   25.6483 O   0  0  0  0  0  0  0  0  0  0  0  0
   13.2647  -16.1207   20.1175 C   0  0  0  0  0  0  0  0  0  0  0  0
   12.8477  -15.7375   18.8431 C   0  0  0  0  0  0  0  0  0  0  0  0
   14.0343  -17.9801   24.6146 O   0  0  0  0  0  0  0  0  0  0  0  0
  2  3  1  0
  2  1  1  6
  4  6  1  0
  4  2  1  0
  4  5  1  6
  6  7  2  0
  8  9  1  0
  8  6  1  0
  9 10  1  1
 11 12  2  0
 11 10  1  0
 13 12  1  0
 14 19  2  0
 14 13  1  0
 15 14  1  0
 16 17  1  0
 16 15  2  0
 17 18  2  0
 18 19  1  0
 19 11  1  0
 20  9  1  0
 21 20  2  0
 22 23  1  0
 23 33  2  0
 23 24  1  0
 24 25  2  0
 25 26  1  0
 26 27  1  0
 28 27  1  1
 28 29  1  0
 29 20  1  0
 30 28  1  0
 30 34  1  0
 31 30  2  0
 32 26  2  0
 33 32  1  0
M  END
$$$$
