TWY.pdb
     RDKit          3D

 34 36  0  0  1  0  0  0  0  0999 V2000
    8.6884  -17.4453   19.4661 C   0  0  0  0  0  0  0  0  0  0  0  0
    8.1673  -16.0749   19.0942 C   0  0  1  0  0  0  0  0  0  0  0  0
    7.4322  -16.1348   17.9324 O   0  0  0  0  0  0  0  0  0  0  0  0
    7.3730  -15.5527   20.2672 C   0  0  2  0  0  0  0  0  0  0  0  0
    6.5884  -14.4267   19.8080 N   0  0  0  0  0  0  0  0  0  0  0  0
    8.2016  -15.2383   21.4322 C   0  0  0  0  0  0  0  0  0  0  0  0
    8.9613  -14.2163   21.3944 O   0  0  0  0  0  0  0  0  0  0  0  0
    8.2398  -15.9843   22.6316 N   0  0  0  0  0  0  0  0  0  0  0  0
    9.2531  -15.7052   23.6865 C   0  0  1  0  0  0  0  0  0  0  0  0
    8.6748  -15.9820   25.0217 C   0  0  0  0  0  0  0  0  0  0  0  0
    7.5035  -15.2308   25.4318 C   0  0  0  0  0  0  0  0  0  0  0  0
    6.2197  -15.6727   25.6652 C   0  0  0  0  0  0  0  0  0  0  0  0
    5.4396  -14.6368   25.9991 N   0  0  0  0  0  0  0  0  0  0  0  0
    6.2123  -13.5128   25.9850 C   0  0  0  0  0  0  0  0  0  0  0  0
    5.9083  -12.1937   26.2497 C   0  0  0  0  0  0  0  0  0  0  0  0
    6.8730  -11.2147   26.1694 C   0  0  0  0  0  0  0  0  0  0  0  0
    8.1707  -11.5362   25.8203 C   0  0  0  0  0  0  0  0  0  0  0  0
    8.4585  -12.8565   25.5592 C   0  0  0  0  0  0  0  0  0  0  0  0
    7.5130  -13.8527   25.6325 C   0  0  0  0  0  0  0  0  0  0  0  0
   10.4477  -16.4923   23.3538 C   0  0  0  0  0  0  0  0  0  0  0  0
   10.3417  -17.7131   22.9566 O   0  0  0  0  0  0  0  0  0  0  0  0
   10.9398  -16.8985   30.9295 O   0  0  0  0  0  0  0  0  0  0  0  0
   11.1557  -16.4543   29.6159 C   0  0  0  0  0  0  0  0  0  0  0  0
   10.6322  -15.2527   29.1691 C   0  0  0  0  0  0  0  0  0  0  0  0
   10.8524  -14.8248   27.8706 C   0  0  0  0  0  0  0  0  0  0  0  0
   11.5939  -15.5633   26.9689 C   0  0  0  0  0  0  0  0  0  0  0  0
   11.7996  -15.0708   25.5961 C   0  0  0  0  0  0  0  0  0  0  0  0
   12.5235  -16.0656   24.6993 C   0  0  2  0  0  0  0  0  0  0  0  0
   11.7880  -16.0057   23.4266 N   0  0  0  0  0  0  0  0  0  0  0  0
   12.4332  -17.4195   25.2367 C   0  0  0  0  0  0  0  0  0  0  0  0
   11.4130  -18.1340   25.0295 O   0  0  0  0  0  0  0  0  0  0  0  0
   12.1145  -16.7597   27.4144 C   0  0  0  0  0  0  0  0  0  0  0  0
   11.8955  -17.1947   28.7212 C   0  0  0  0  0  0  0  0  0  0  0  0
   13.4529  -17.9593   25.9827 O   0  0  0  0  0  0  0  0  0  0  0  0
  2  3  1  0
  2  1  1  1
  4  6  1  0
  4  2  1  0
  4  5  1  6
  6  7  2  0
  8  9  1  0
  8  6  1  0
  9 10  1  1
 11 12  2  0
 11 10  1  0
 13 12  1  0
 14 19  2  0
 14 13  1  0
 15 14  1  0
 16 17  1  0
 16 15  2  0
 17 18  2  0
 18 19  1  0
 19 11  1  0
 20  9  1  0
 21 20  2  0
 22 23  1  0
 23 33  2  0
 23 24  1  0
 24 25  2  0
 25 26  1  0
 26 27  1  0
 28 27  1  1
 28 29  1  0
 29 20  1  0
 30 28  1  0
 30 34  1  0
 31 30  2  0
 32 26  2  0
 33 32  1  0
M  END
$$$$
