TWY.pdb
     RDKit          3D

 34 36  0  0  1  0  0  0  0  0999 V2000
    6.9307  -17.2677   17.9116 C   0  0  0  0  0  0  0  0  0  0  0  0
    7.9094  -16.9117   19.0085 C   0  0  1  0  0  0  0  0  0  0  0  0
    9.1729  -16.7358   18.4924 O   0  0  0  0  0  0  0  0  0  0  0  0
    7.3839  -15.6826   19.7105 C   0  0  2  0  0  0  0  0  0  0  0  0
    7.2370  -14.6345   18.7235 N   0  0  0  0  0  0  0  0  0  0  0  0
    8.1981  -15.2803   20.8586 C   0  0  0  0  0  0  0  0  0  0  0  0
    9.1039  -14.3990   20.6972 O   0  0  0  0  0  0  0  0  0  0  0  0
    8.0703  -15.7927   22.1692 N   0  0  0  0  0  0  0  0  0  0  0  0
    9.0339  -15.4245   23.2430 C   0  0  1  0  0  0  0  0  0  0  0  0
    8.4867  -15.8164   24.5625 C   0  0  0  0  0  0  0  0  0  0  0  0
    7.3268  -15.1039   25.0638 C   0  0  0  0  0  0  0  0  0  0  0  0
    6.0932  -15.5933   25.4334 C   0  0  0  0  0  0  0  0  0  0  0  0
    5.3017  -14.5820   25.8128 N   0  0  0  0  0  0  0  0  0  0  0  0
    6.0167  -13.4267   25.6922 C   0  0  0  0  0  0  0  0  0  0  0  0
    5.6788  -12.1141   25.9486 C   0  0  0  0  0  0  0  0  0  0  0  0
    6.5850  -11.0974   25.7474 C   0  0  0  0  0  0  0  0  0  0  0  0
    7.8567  -11.3733   25.2826 C   0  0  0  0  0  0  0  0  0  0  0  0
    8.1787  -12.6876   25.0314 C   0  0  0  0  0  0  0  0  0  0  0  0
    7.2918  -13.7210   25.2242 C   0  0  0  0  0  0  0  0  0  0  0  0
   10.3200  -16.0442   22.8972 C   0  0  0  0  0  0  0  0  0  0  0  0
   10.3698  -17.0579   22.1039 O   0  0  0  0  0  0  0  0  0  0  0  0
   11.1534  -16.3101   31.1687 O   0  0  0  0  0  0  0  0  0  0  0  0
   11.0470  -16.0699   29.7901 C   0  0  0  0  0  0  0  0  0  0  0  0
   10.9278  -17.1125   28.8867 C   0  0  0  0  0  0  0  0  0  0  0  0
   10.8232  -16.8629   27.5286 C   0  0  0  0  0  0  0  0  0  0  0  0
   10.8323  -15.5809   27.0139 C   0  0  0  0  0  0  0  0  0  0  0  0
   10.7220  -15.3624   25.5615 C   0  0  0  0  0  0  0  0  0  0  0  0
   11.9546  -15.8095   24.7878 C   0  0  2  0  0  0  0  0  0  0  0  0
   11.5900  -15.6030   23.3776 N   0  0  0  0  0  0  0  0  0  0  0  0
   12.2258  -17.2269   25.0056 C   0  0  0  0  0  0  0  0  0  0  0  0
   13.2257  -17.6010   25.6798 O   0  0  0  0  0  0  0  0  0  0  0  0
   10.9513  -14.5433   27.9141 C   0  0  0  0  0  0  0  0  0  0  0  0
   11.0568  -14.7900   29.2826 C   0  0  0  0  0  0  0  0  0  0  0  0
   11.4036  -18.1975   24.4862 O   0  0  0  0  0  0  0  0  0  0  0  0
  2  3  1  0
  2  1  1  6
  4  6  1  0
  4  2  1  0
  4  5  1  6
  6  7  2  0
  8  9  1  0
  8  6  1  0
  9 10  1  1
 11 12  2  0
 11 10  1  0
 13 12  1  0
 14 19  2  0
 14 13  1  0
 15 14  1  0
 16 17  1  0
 16 15  2  0
 17 18  2  0
 18 19  1  0
 19 11  1  0
 20  9  1  0
 21 20  2  0
 22 23  1  0
 23 33  2  0
 23 24  1  0
 24 25  2  0
 25 26  1  0
 26 27  1  0
 28 27  1  1
 28 29  1  0
 29 20  1  0
 30 28  1  0
 30 34  1  0
 31 30  2  0
 32 26  2  0
 33 32  1  0
M  END
$$$$
