TWY.pdb
     RDKit          3D

 34 36  0  0  1  0  0  0  0  0999 V2000
    7.7811  -20.6831   23.5587 C   0  0  0  0  0  0  0  0  0  0  0  0
    8.4536  -20.7220   22.2044 C   0  0  1  0  0  0  0  0  0  0  0  0
    8.1305  -21.8807   21.5360 O   0  0  0  0  0  0  0  0  0  0  0  0
    8.0461  -19.4766   21.4544 C   0  0  2  0  0  0  0  0  0  0  0  0
    8.5295  -19.5966   20.0956 N   0  0  0  0  0  0  0  0  0  0  0  0
    8.4765  -18.2405   22.1099 C   0  0  0  0  0  0  0  0  0  0  0  0
    9.6809  -17.8505   21.9672 O   0  0  0  0  0  0  0  0  0  0  0  0
    7.6570  -17.4135   22.9107 N   0  0  0  0  0  0  0  0  0  0  0  0
    8.1958  -16.1903   23.5670 C   0  0  1  0  0  0  0  0  0  0  0  0
    7.2047  -15.0937   23.4725 C   0  0  0  0  0  0  0  0  0  0  0  0
    7.5172  -13.8288   24.1104 C   0  0  0  0  0  0  0  0  0  0  0  0
    8.4468  -12.8767   23.7539 C   0  0  0  0  0  0  0  0  0  0  0  0
    8.4251  -11.8714   24.6383 N   0  0  0  0  0  0  0  0  0  0  0  0
    7.4797  -12.1639   25.5771 C   0  0  0  0  0  0  0  0  0  0  0  0
    7.0596  -11.4729   26.6944 C   0  0  0  0  0  0  0  0  0  0  0  0
    6.0702  -11.9769   27.5084 C   0  0  0  0  0  0  0  0  0  0  0  0
    5.4760  -13.1907   27.2204 C   0  0  0  0  0  0  0  0  0  0  0  0
    5.9059  -13.8682   26.1022 C   0  0  0  0  0  0  0  0  0  0  0  0
    6.8921  -13.3863   25.2735 C   0  0  0  0  0  0  0  0  0  0  0  0
    8.5731  -16.5678   24.9355 C   0  0  0  0  0  0  0  0  0  0  0  0
    7.9571  -17.5180   25.5494 O   0  0  0  0  0  0  0  0  0  0  0  0
    6.0785  -21.5135   28.0294 O   0  0  0  0  0  0  0  0  0  0  0  0
    7.1215  -20.6217   27.7358 C   0  0  0  0  0  0  0  0  0  0  0  0
    7.7102  -19.8541   28.7267 C   0  0  0  0  0  0  0  0  0  0  0  0
    8.7389  -18.9777   28.4248 C   0  0  0  0  0  0  0  0  0  0  0  0
    9.2229  -18.8268   27.1397 C   0  0  0  0  0  0  0  0  0  0  0  0
   10.3167  -17.8798   26.8638 C   0  0  0  0  0  0  0  0  0  0  0  0
    9.9163  -16.4229   27.0511 C   0  0  2  0  0  0  0  0  0  0  0  0
    9.6179  -15.9528   25.6895 N   0  0  0  0  0  0  0  0  0  0  0  0
   11.0226  -15.6397   27.5922 C   0  0  0  0  0  0  0  0  0  0  0  0
   11.4257  -15.8160   28.7757 O   0  0  0  0  0  0  0  0  0  0  0  0
    8.6360  -19.5912   26.1536 C   0  0  0  0  0  0  0  0  0  0  0  0
    7.5998  -20.4752   26.4530 C   0  0  0  0  0  0  0  0  0  0  0  0
   11.6602  -14.6884   26.8330 O   0  0  0  0  0  0  0  0  0  0  0  0
  2  3  1  0
  2  1  1  1
  4  6  1  0
  4  2  1  0
  4  5  1  6
  6  7  2  0
  8  9  1  0
  8  6  1  0
  9 10  1  1
 11 12  2  0
 11 10  1  0
 13 12  1  0
 14 19  2  0
 14 13  1  0
 15 14  1  0
 16 17  1  0
 16 15  2  0
 17 18  2  0
 18 19  1  0
 19 11  1  0
 20  9  1  0
 21 20  2  0
 22 23  1  0
 23 33  2  0
 23 24  1  0
 24 25  2  0
 25 26  1  0
 26 27  1  0
 28 27  1  6
 28 29  1  0
 29 20  1  0
 30 28  1  0
 30 34  1  0
 31 30  2  0
 32 26  2  0
 33 32  1  0
M  END
$$$$
