TWY.pdb
     RDKit          3D

 34 36  0  0  1  0  0  0  0  0999 V2000
    8.7112  -20.1329   19.3677 C   0  0  0  0  0  0  0  0  0  0  0  0
    9.2434  -19.2097   20.4411 C   0  0  1  0  0  0  0  0  0  0  0  0
   10.6147  -19.2954   20.5178 O   0  0  0  0  0  0  0  0  0  0  0  0
    8.7575  -17.8148   20.1282 C   0  0  2  0  0  0  0  0  0  0  0  0
    9.2567  -17.4523   18.8191 N   0  0  0  0  0  0  0  0  0  0  0  0
    9.0988  -16.8381   21.1637 C   0  0  0  0  0  0  0  0  0  0  0  0
   10.1353  -16.1127   21.0136 O   0  0  0  0  0  0  0  0  0  0  0  0
    8.3647  -16.6170   22.3506 N   0  0  0  0  0  0  0  0  0  0  0  0
    8.8451  -15.6700   23.3945 C   0  0  1  0  0  0  0  0  0  0  0  0
    7.7093  -15.2433   24.2442 C   0  0  0  0  0  0  0  0  0  0  0  0
    7.9083  -14.1236   25.1447 C   0  0  0  0  0  0  0  0  0  0  0  0
    7.7285  -12.7768   24.9173 C   0  0  0  0  0  0  0  0  0  0  0  0
    8.0561  -12.0858   26.0166 N   0  0  0  0  0  0  0  0  0  0  0  0
    8.4518  -12.9803   26.9673 C   0  0  0  0  0  0  0  0  0  0  0  0
    8.8862  -12.8005   28.2641 C   0  0  0  0  0  0  0  0  0  0  0  0
    9.2382  -13.8757   29.0485 C   0  0  0  0  0  0  0  0  0  0  0  0
    9.1628  -15.1620   28.5497 C   0  0  0  0  0  0  0  0  0  0  0  0
    8.7275  -15.3252   27.2543 C   0  0  0  0  0  0  0  0  0  0  0  0
    8.3702  -14.2679   26.4506 C   0  0  0  0  0  0  0  0  0  0  0  0
    9.9378  -16.3397   24.1120 C   0  0  0  0  0  0  0  0  0  0  0  0
    9.9724  -17.6239   24.2078 O   0  0  0  0  0  0  0  0  0  0  0  0
   14.2257  -16.6423   19.3281 O   0  0  0  0  0  0  0  0  0  0  0  0
   14.0180  -16.4535   20.7031 C   0  0  0  0  0  0  0  0  0  0  0  0
   13.6401  -15.2214   21.2097 C   0  0  0  0  0  0  0  0  0  0  0  0
   13.4378  -15.0476   22.5686 C   0  0  0  0  0  0  0  0  0  0  0  0
   13.6001  -16.0784   23.4739 C   0  0  0  0  0  0  0  0  0  0  0  0
   13.3775  -15.8470   24.9113 C   0  0  0  0  0  0  0  0  0  0  0  0
   12.0748  -16.4444   25.4250 C   0  0  2  0  0  0  0  0  0  0  0  0
   11.0280  -15.6676   24.7430 N   0  0  0  0  0  0  0  0  0  0  0  0
   11.9429  -16.2560   26.8662 C   0  0  0  0  0  0  0  0  0  0  0  0
   11.0418  -15.5119   27.3444 O   0  0  0  0  0  0  0  0  0  0  0  0
   13.9766  -17.3048   22.9686 C   0  0  0  0  0  0  0  0  0  0  0  0
   14.1814  -17.4846   21.6009 C   0  0  0  0  0  0  0  0  0  0  0  0
   12.7921  -16.8812   27.7470 O   0  0  0  0  0  0  0  0  0  0  0  0
  2  3  1  0
  2  1  1  6
  4  6  1  0
  4  2  1  0
  4  5  1  6
  6  7  2  0
  8  9  1  0
  8  6  1  0
  9 10  1  1
 11 12  2  0
 11 10  1  0
 13 12  1  0
 14 19  2  0
 14 13  1  0
 15 14  1  0
 16 17  1  0
 16 15  2  0
 17 18  2  0
 18 19  1  0
 19 11  1  0
 20  9  1  0
 21 20  2  0
 22 23  1  0
 23 33  2  0
 23 24  1  0
 24 25  2  0
 25 26  1  0
 26 27  1  0
 28 27  1  6
 28 29  1  0
 29 20  1  0
 30 28  1  0
 30 34  1  0
 31 30  2  0
 32 26  2  0
 33 32  1  0
M  END
$$$$
