TWY.pdb
     RDKit          3D

 34 36  0  0  1  0  0  0  0  0999 V2000
    8.2642  -16.9610   19.2054 C   0  0  0  0  0  0  0  0  0  0  0  0
    8.3877  -15.5221   18.7558 C   0  0  1  0  0  0  0  0  0  0  0  0
    7.8168  -15.3512   17.5154 O   0  0  0  0  0  0  0  0  0  0  0  0
    7.7576  -14.6542   19.8185 C   0  0  2  0  0  0  0  0  0  0  0  0
    7.5794  -13.3294   19.2638 N   0  0  0  0  0  0  0  0  0  0  0  0
    8.5007  -14.6535   21.0796 C   0  0  0  0  0  0  0  0  0  0  0  0
    9.5163  -13.8937   21.1998 O   0  0  0  0  0  0  0  0  0  0  0  0
    8.1885  -15.4401   22.2111 N   0  0  0  0  0  0  0  0  0  0  0  0
    9.0629  -15.4463   23.4164 C   0  0  1  0  0  0  0  0  0  0  0  0
    8.2867  -15.8947   24.5956 C   0  0  0  0  0  0  0  0  0  0  0  0
    7.2685  -15.0074   25.1252 C   0  0  0  0  0  0  0  0  0  0  0  0
    5.9098  -15.2053   25.2378 C   0  0  0  0  0  0  0  0  0  0  0  0
    5.3363  -14.1130   25.7585 N   0  0  0  0  0  0  0  0  0  0  0  0
    6.3199  -13.1963   25.9882 C   0  0  0  0  0  0  0  0  0  0  0  0
    6.2734  -11.9197   26.5083 C   0  0  0  0  0  0  0  0  0  0  0  0
    7.4194  -11.1696   26.6478 C   0  0  0  0  0  0  0  0  0  0  0  0
    8.6444  -11.6836   26.2676 C   0  0  0  0  0  0  0  0  0  0  0  0
    8.6746  -12.9587   25.7504 C   0  0  0  0  0  0  0  0  0  0  0  0
    7.5443  -13.7280   25.6009 C   0  0  0  0  0  0  0  0  0  0  0  0
   10.2329  -16.2737   23.0942 C   0  0  0  0  0  0  0  0  0  0  0  0
   10.4954  -16.5957   21.8748 O   0  0  0  0  0  0  0  0  0  0  0  0
   13.1943  -14.2988   17.8088 O   0  0  0  0  0  0  0  0  0  0  0  0
   13.1598  -14.6080   19.1773 C   0  0  0  0  0  0  0  0  0  0  0  0
   12.7640  -13.6697   20.1156 C   0  0  0  0  0  0  0  0  0  0  0  0
   12.7337  -13.9867   21.4633 C   0  0  0  0  0  0  0  0  0  0  0  0
   13.0913  -15.2357   21.9330 C   0  0  0  0  0  0  0  0  0  0  0  0
   13.0473  -15.5277   23.3759 C   0  0  0  0  0  0  0  0  0  0  0  0
   12.5777  -16.9409   23.6925 C   0  0  2  0  0  0  0  0  0  0  0  0
   11.1612  -16.7779   24.0546 N   0  0  0  0  0  0  0  0  0  0  0  0
   13.2999  -17.4905   24.8356 C   0  0  0  0  0  0  0  0  0  0  0  0
   14.5243  -17.7862   24.7492 O   0  0  0  0  0  0  0  0  0  0  0  0
   13.4855  -16.1693   20.9980 C   0  0  0  0  0  0  0  0  0  0  0  0
   13.5174  -15.8545   19.6398 C   0  0  0  0  0  0  0  0  0  0  0  0
   12.6727  -17.7024   26.0395 O   0  0  0  0  0  0  0  0  0  0  0  0
  2  3  1  0
  2  1  1  1
  4  6  1  0
  4  2  1  0
  4  5  1  6
  6  7  2  0
  8  9  1  0
  8  6  1  0
  9 10  1  1
 11 12  2  0
 11 10  1  0
 13 12  1  0
 14 19  2  0
 14 13  1  0
 15 14  1  0
 16 17  1  0
 16 15  2  0
 17 18  2  0
 18 19  1  0
 19 11  1  0
 20  9  1  0
 21 20  2  0
 22 23  1  0
 23 33  2  0
 23 24  1  0
 24 25  2  0
 25 26  1  0
 26 27  1  0
 28 27  1  1
 28 29  1  0
 29 20  1  0
 30 28  1  0
 30 34  1  0
 31 30  2  0
 32 26  2  0
 33 32  1  0
M  END
$$$$
