TWY.pdb
     RDKit          3D

 34 36  0  0  1  0  0  0  0  0999 V2000
   10.3105  -20.8480   22.1249 C   0  0  0  0  0  0  0  0  0  0  0  0
   10.4023  -20.7220   20.6204 C   0  0  1  0  0  0  0  0  0  0  0  0
   10.1696  -21.9367   20.0172 O   0  0  0  0  0  0  0  0  0  0  0  0
    9.4257  -19.6541   20.1895 C   0  0  2  0  0  0  0  0  0  0  0  0
    9.2988  -19.7213   18.7495 N   0  0  0  0  0  0  0  0  0  0  0  0
    9.7794  -18.3185   20.6731 C   0  0  0  0  0  0  0  0  0  0  0  0
   10.5159  -17.5725   19.9491 O   0  0  0  0  0  0  0  0  0  0  0  0
    9.3685  -17.7613   21.9049 N   0  0  0  0  0  0  0  0  0  0  0  0
    9.9058  -16.4579   22.3840 C   0  0  1  0  0  0  0  0  0  0  0  0
    8.8039  -15.6328   22.9307 C   0  0  0  0  0  0  0  0  0  0  0  0
    7.7746  -15.1705   22.0189 C   0  0  0  0  0  0  0  0  0  0  0  0
    6.4887  -15.6333   21.8458 C   0  0  0  0  0  0  0  0  0  0  0  0
    5.8855  -14.9370   20.8738 N   0  0  0  0  0  0  0  0  0  0  0  0
    6.7768  -14.0156   20.4080 C   0  0  0  0  0  0  0  0  0  0  0  0
    6.6670  -13.0584   19.4209 C   0  0  0  0  0  0  0  0  0  0  0  0
    7.7218  -12.2261   19.1210 C   0  0  0  0  0  0  0  0  0  0  0  0
    8.9168  -12.3340   19.8064 C   0  0  0  0  0  0  0  0  0  0  0  0
    9.0109  -13.2937   20.7883 C   0  0  0  0  0  0  0  0  0  0  0  0
    7.9721  -14.1370   21.1066 C   0  0  0  0  0  0  0  0  0  0  0  0
   10.9832  -16.7608   23.3352 C   0  0  0  0  0  0  0  0  0  0  0  0
   10.7265  -17.3358   24.4590 O   0  0  0  0  0  0  0  0  0  0  0  0
   11.1082  -22.0154   27.4797 O   0  0  0  0  0  0  0  0  0  0  0  0
   11.6407  -21.1889   26.4783 C   0  0  0  0  0  0  0  0  0  0  0  0
   11.4828  -19.8139   26.5231 C   0  0  0  0  0  0  0  0  0  0  0  0
   12.0131  -19.0086   25.5291 C   0  0  0  0  0  0  0  0  0  0  0  0
   12.7158  -19.5278   24.4590 C   0  0  0  0  0  0  0  0  0  0  0  0
   13.2594  -18.6335   23.4227 C   0  0  0  0  0  0  0  0  0  0  0  0
   13.3955  -17.1885   23.8822 C   0  0  2  0  0  0  0  0  0  0  0  0
   12.3640  -16.4686   23.1194 N   0  0  0  0  0  0  0  0  0  0  0  0
   14.7063  -16.6483   23.5352 C   0  0  0  0  0  0  0  0  0  0  0  0
   15.5419  -16.3449   24.4318 O   0  0  0  0  0  0  0  0  0  0  0  0
   12.8723  -20.8970   24.4151 C   0  0  0  0  0  0  0  0  0  0  0  0
   12.3401  -21.7119   25.4138 C   0  0  0  0  0  0  0  0  0  0  0  0
   15.0726  -16.4540   22.2254 O   0  0  0  0  0  0  0  0  0  0  0  0
  2  3  1  0
  2  1  1  1
  4  6  1  0
  4  2  1  0
  4  5  1  6
  6  7  2  0
  8  9  1  0
  8  6  1  0
  9 10  1  1
 11 12  2  0
 11 10  1  0
 13 12  1  0
 14 19  2  0
 14 13  1  0
 15 14  1  0
 16 17  1  0
 16 15  2  0
 17 18  2  0
 18 19  1  0
 19 11  1  0
 20  9  1  0
 21 20  2  0
 22 23  1  0
 23 33  2  0
 23 24  1  0
 24 25  2  0
 25 26  1  0
 26 27  1  0
 28 27  1  6
 28 29  1  0
 29 20  1  0
 30 28  1  0
 30 34  1  0
 31 30  2  0
 32 26  2  0
 33 32  1  0
M  END
$$$$
