TWY.pdb
     RDKit          3D

 34 36  0  0  1  0  0  0  0  0999 V2000
   11.1951  -20.4489   18.7993 C   0  0  0  0  0  0  0  0  0  0  0  0
   11.1876  -19.4607   19.9443 C   0  0  1  0  0  0  0  0  0  0  0  0
   12.4661  -19.2409   20.4033 O   0  0  0  0  0  0  0  0  0  0  0  0
   10.5121  -18.2010   19.4581 C   0  0  2  0  0  0  0  0  0  0  0  0
   11.2663  -17.6979   18.3301 N   0  0  0  0  0  0  0  0  0  0  0  0
   10.3217  -17.2035   20.5124 C   0  0  0  0  0  0  0  0  0  0  0  0
   11.2337  -16.3381   20.7185 O   0  0  0  0  0  0  0  0  0  0  0  0
    9.1870  -17.1067   21.3489 N   0  0  0  0  0  0  0  0  0  0  0  0
    9.0625  -16.0251   22.3647 C   0  0  1  0  0  0  0  0  0  0  0  0
    7.6543  -15.5725   22.4439 C   0  0  0  0  0  0  0  0  0  0  0  0
    7.3966  -14.1887   22.7949 C   0  0  0  0  0  0  0  0  0  0  0  0
    7.4393  -13.0636   22.0011 C   0  0  0  0  0  0  0  0  0  0  0  0
    7.1600  -11.9807   22.7379 N   0  0  0  0  0  0  0  0  0  0  0  0
    6.9336  -12.3956   24.0174 C   0  0  0  0  0  0  0  0  0  0  0  0
    6.6107  -11.6936   25.1600 C   0  0  0  0  0  0  0  0  0  0  0  0
    6.4274  -12.3412   26.3610 C   0  0  0  0  0  0  0  0  0  0  0  0
    6.5640  -13.7136   26.4455 C   0  0  0  0  0  0  0  0  0  0  0  0
    6.8864  -14.4000   25.2969 C   0  0  0  0  0  0  0  0  0  0  0  0
    7.0746  -13.7765   24.0855 C   0  0  0  0  0  0  0  0  0  0  0  0
    9.6161  -16.5490   23.6202 C   0  0  0  0  0  0  0  0  0  0  0  0
    9.4534  -17.7845   23.9462 O   0  0  0  0  0  0  0  0  0  0  0  0
   11.9838  -16.6067   32.1639 O   0  0  0  0  0  0  0  0  0  0  0  0
   11.7896  -16.2566   30.8188 C   0  0  0  0  0  0  0  0  0  0  0  0
   12.4047  -16.9610   29.7976 C   0  0  0  0  0  0  0  0  0  0  0  0
   12.2052  -16.6062   28.4740 C   0  0  0  0  0  0  0  0  0  0  0  0
   11.3950  -15.5479   28.1106 C   0  0  0  0  0  0  0  0  0  0  0  0
   11.2143  -15.2039   26.6899 C   0  0  0  0  0  0  0  0  0  0  0  0
   10.7968  -16.3886   25.8297 C   0  0  2  0  0  0  0  0  0  0  0  0
   10.3631  -15.7795   24.5628 N   0  0  0  0  0  0  0  0  0  0  0  0
    9.6696  -17.0989   26.4255 C   0  0  0  0  0  0  0  0  0  0  0  0
    9.8377  -18.1969   27.0259 O   0  0  0  0  0  0  0  0  0  0  0  0
   10.7832  -14.8469   29.1281 C   0  0  0  0  0  0  0  0  0  0  0  0
   10.9811  -15.2007   30.4625 C   0  0  0  0  0  0  0  0  0  0  0  0
    8.3928  -16.5968   26.3535 O   0  0  0  0  0  0  0  0  0  0  0  0
  2  3  1  0
  2  1  1  6
  4  6  1  0
  4  2  1  0
  4  5  1  6
  6  7  2  0
  8  9  1  0
  8  6  1  0
  9 10  1  1
 11 12  2  0
 11 10  1  0
 13 12  1  0
 14 19  2  0
 14 13  1  0
 15 14  1  0
 16 17  1  0
 16 15  2  0
 17 18  2  0
 18 19  1  0
 19 11  1  0
 20  9  1  0
 21 20  2  0
 22 23  1  0
 23 33  2  0
 23 24  1  0
 24 25  2  0
 25 26  1  0
 26 27  1  0
 28 27  1  1
 28 29  1  0
 29 20  1  0
 30 28  1  0
 30 34  1  0
 31 30  2  0
 32 26  2  0
 33 32  1  0
M  END
$$$$
