TWY.pdb
     RDKit          3D

 34 36  0  0  1  0  0  0  0  0999 V2000
   10.0903  -21.6241   22.2961 C   0  0  0  0  0  0  0  0  0  0  0  0
   10.1363  -20.1412   22.5908 C   0  0  1  0  0  0  0  0  0  0  0  0
   11.4070  -19.7586   22.9549 O   0  0  0  0  0  0  0  0  0  0  0  0
    9.6307  -19.4149   21.3674 C   0  0  2  0  0  0  0  0  0  0  0  0
   10.4573  -19.8040   20.2450 N   0  0  0  0  0  0  0  0  0  0  0  0
    9.5528  -17.9643   21.5476 C   0  0  0  0  0  0  0  0  0  0  0  0
   10.5444  -17.2430   21.2018 O   0  0  0  0  0  0  0  0  0  0  0  0
    8.4478  -17.2671   22.0854 N   0  0  0  0  0  0  0  0  0  0  0  0
    8.4938  -15.7957   22.3097 C   0  0  1  0  0  0  0  0  0  0  0  0
    7.1207  -15.2412   22.2771 C   0  0  0  0  0  0  0  0  0  0  0  0
    6.9496  -13.8178   22.4984 C   0  0  0  0  0  0  0  0  0  0  0  0
    7.0821  -12.7733   21.6100 C   0  0  0  0  0  0  0  0  0  0  0  0
    6.8623  -11.6131   22.2416 N   0  0  0  0  0  0  0  0  0  0  0  0
    6.5851  -11.8962   23.5468 C   0  0  0  0  0  0  0  0  0  0  0  0
    6.2889  -11.0754   24.6150 C   0  0  0  0  0  0  0  0  0  0  0  0
    6.0407  -11.5997   25.8635 C   0  0  0  0  0  0  0  0  0  0  0  0
    6.0836  -12.9650   26.0718 C   0  0  0  0  0  0  0  0  0  0  0  0
    6.3805  -13.7708   24.9963 C   0  0  0  0  0  0  0  0  0  0  0  0
    6.6323  -13.2718   23.7396 C   0  0  0  0  0  0  0  0  0  0  0  0
    9.2210  -15.5752   23.5667 C   0  0  0  0  0  0  0  0  0  0  0  0
    8.7561  -14.7770   24.4645 O   0  0  0  0  0  0  0  0  0  0  0  0
   11.9145  -16.5112   31.6078 O   0  0  0  0  0  0  0  0  0  0  0  0
   11.4534  -16.4973   30.2824 C   0  0  0  0  0  0  0  0  0  0  0  0
   11.3905  -17.6593   29.5319 C   0  0  0  0  0  0  0  0  0  0  0  0
   10.9334  -17.6329   28.2250 C   0  0  0  0  0  0  0  0  0  0  0  0
   10.5232  -16.4643   27.6129 C   0  0  0  0  0  0  0  0  0  0  0  0
   10.0474  -16.4827   26.2191 C   0  0  0  0  0  0  0  0  0  0  0  0
   11.0685  -15.9475   25.2248 C   0  0  2  0  0  0  0  0  0  0  0  0
   10.4583  -16.1993   23.9102 N   0  0  0  0  0  0  0  0  0  0  0  0
   12.3250  -16.6846   25.3143 C   0  0  0  0  0  0  0  0  0  0  0  0
   13.3915  -16.1096   25.6693 O   0  0  0  0  0  0  0  0  0  0  0  0
   10.5864  -15.3078   28.3608 C   0  0  0  0  0  0  0  0  0  0  0  0
   11.0460  -15.3295   29.6773 C   0  0  0  0  0  0  0  0  0  0  0  0
   12.3876  -18.0244   25.0167 O   0  0  0  0  0  0  0  0  0  0  0  0
  2  3  1  0
  2  1  1  6
  4  6  1  0
  4  2  1  0
  4  5  1  6
  6  7  2  0
  8  9  1  0
  8  6  1  0
  9 10  1  1
 11 12  2  0
 11 10  1  0
 13 12  1  0
 14 19  2  0
 14 13  1  0
 15 14  1  0
 16 17  1  0
 16 15  2  0
 17 18  2  0
 18 19  1  0
 19 11  1  0
 20  9  1  0
 21 20  2  0
 22 23  1  0
 23 33  2  0
 23 24  1  0
 24 25  2  0
 25 26  1  0
 26 27  1  0
 28 27  1  1
 28 29  1  0
 29 20  1  0
 30 28  1  0
 30 34  1  0
 31 30  2  0
 32 26  2  0
 33 32  1  0
M  END
$$$$
