TWY.pdb
     RDKit          3D

 34 36  0  0  1  0  0  0  0  0999 V2000
    6.9327  -18.0827   18.1091 C   0  0  0  0  0  0  0  0  0  0  0  0
    7.4719  -17.8876   19.5088 C   0  0  1  0  0  0  0  0  0  0  0  0
    7.9816  -19.0674   20.0006 O   0  0  0  0  0  0  0  0  0  0  0  0
    8.4971  -16.7805   19.4548 C   0  0  2  0  0  0  0  0  0  0  0  0
    9.5513  -17.1931   18.5532 N   0  0  0  0  0  0  0  0  0  0  0  0
    8.9921  -16.3864   20.7749 C   0  0  0  0  0  0  0  0  0  0  0  0
   10.0647  -16.9130   21.2169 O   0  0  0  0  0  0  0  0  0  0  0  0
    8.3736  -15.4483   21.6316 N   0  0  0  0  0  0  0  0  0  0  0  0
    8.9321  -15.1411   22.9772 C   0  0  1  0  0  0  0  0  0  0  0  0
    8.3887  -13.8513   23.4622 C   0  0  0  0  0  0  0  0  0  0  0  0
    8.6222  -13.4848   24.8463 C   0  0  0  0  0  0  0  0  0  0  0  0
    9.7788  -13.5706   25.5896 C   0  0  0  0  0  0  0  0  0  0  0  0
    9.5446  -13.1497   26.8391 N   0  0  0  0  0  0  0  0  0  0  0  0
    8.2319  -12.7870   26.9164 C   0  0  0  0  0  0  0  0  0  0  0  0
    7.4829  -12.2912   27.9631 C   0  0  0  0  0  0  0  0  0  0  0  0
    6.1489  -11.9923   27.8002 C   0  0  0  0  0  0  0  0  0  0  0  0
    5.5315  -12.1842   26.5789 C   0  0  0  0  0  0  0  0  0  0  0  0
    6.2920  -12.6795   25.5443 C   0  0  0  0  0  0  0  0  0  0  0  0
    7.6258  -12.9857   25.6815 C   0  0  0  0  0  0  0  0  0  0  0  0
    8.6435  -16.2969   23.8364 C   0  0  0  0  0  0  0  0  0  0  0  0
    7.6907  -17.1128   23.5435 O   0  0  0  0  0  0  0  0  0  0  0  0
   12.0156  -24.0006   24.6430 O   0  0  0  0  0  0  0  0  0  0  0  0
   11.6232  -22.6584   24.5249 C   0  0  0  0  0  0  0  0  0  0  0  0
   10.4729  -22.3041   23.8403 C   0  0  0  0  0  0  0  0  0  0  0  0
   10.0959  -20.9761   23.7308 C   0  0  0  0  0  0  0  0  0  0  0  0
   10.8367  -19.9530   24.2902 C   0  0  0  0  0  0  0  0  0  0  0  0
   10.3995  -18.5540   24.1457 C   0  0  0  0  0  0  0  0  0  0  0  0
    9.6369  -18.0311   25.3552 C   0  0  2  0  0  0  0  0  0  0  0  0
    9.3605  -16.6240   25.0269 N   0  0  0  0  0  0  0  0  0  0  0  0
   10.4607  -18.0849   26.5588 C   0  0  0  0  0  0  0  0  0  0  0  0
   11.3691  -17.2321   26.7630 O   0  0  0  0  0  0  0  0  0  0  0  0
   11.9820  -20.3066   24.9715 C   0  0  0  0  0  0  0  0  0  0  0  0
   12.3656  -21.6427   25.0845 C   0  0  0  0  0  0  0  0  0  0  0  0
   10.2743  -19.0620   27.5066 O   0  0  0  0  0  0  0  0  0  0  0  0
  2  3  1  0
  2  1  1  6
  4  6  1  0
  4  2  1  0
  4  5  1  6
  6  7  2  0
  8  9  1  0
  8  6  1  0
  9 10  1  1
 11 12  2  0
 11 10  1  0
 13 12  1  0
 14 19  2  0
 14 13  1  0
 15 14  1  0
 16 17  1  0
 16 15  2  0
 17 18  2  0
 18 19  1  0
 19 11  1  0
 20  9  1  0
 21 20  2  0
 22 23  1  0
 23 33  2  0
 23 24  1  0
 24 25  2  0
 25 26  1  0
 26 27  1  0
 28 27  1  6
 28 29  1  0
 29 20  1  0
 30 28  1  0
 30 34  1  0
 31 30  2  0
 32 26  2  0
 33 32  1  0
M  END
$$$$
