TWY.pdb
     RDKit          3D

 34 36  0  0  1  0  0  0  0  0999 V2000
    7.6635  -16.1212   17.5062 C   0  0  0  0  0  0  0  0  0  0  0  0
    8.3913  -15.9610   18.8224 C   0  0  1  0  0  0  0  0  0  0  0  0
    9.6991  -15.5889   18.6109 O   0  0  0  0  0  0  0  0  0  0  0  0
    7.6220  -14.9620   19.6529 C   0  0  2  0  0  0  0  0  0  0  0  0
    7.5046  -13.7408   18.8852 N   0  0  0  0  0  0  0  0  0  0  0  0
    8.1967  -14.7514   20.9826 C   0  0  0  0  0  0  0  0  0  0  0  0
    8.8987  -13.7098   21.1962 O   0  0  0  0  0  0  0  0  0  0  0  0
    8.0418  -15.6208   22.0856 N   0  0  0  0  0  0  0  0  0  0  0  0
    8.6016  -15.2833   23.4235 C   0  0  1  0  0  0  0  0  0  0  0  0
    7.7172  -15.8170   24.4852 C   0  0  0  0  0  0  0  0  0  0  0  0
    6.6858  -14.9485   25.0205 C   0  0  0  0  0  0  0  0  0  0  0  0
    5.3794  -15.2409   25.3456 C   0  0  0  0  0  0  0  0  0  0  0  0
    4.7646  -14.1343   25.7823 N   0  0  0  0  0  0  0  0  0  0  0  0
    5.6686  -13.1136   25.7438 C   0  0  0  0  0  0  0  0  0  0  0  0
    5.5547  -11.7812   26.0815 C   0  0  0  0  0  0  0  0  0  0  0  0
    6.6251  -10.9245   25.9555 C   0  0  0  0  0  0  0  0  0  0  0  0
    7.8402  -11.3853   25.4860 C   0  0  0  0  0  0  0  0  0  0  0  0
    7.9383  -12.7171   25.1532 C   0  0  0  0  0  0  0  0  0  0  0  0
    6.8842  -13.5928   25.2699 C   0  0  0  0  0  0  0  0  0  0  0  0
    9.9798  -15.7902   23.4530 C   0  0  0  0  0  0  0  0  0  0  0  0
   10.4964  -16.3527   22.4156 O   0  0  0  0  0  0  0  0  0  0  0  0
   10.2460  -16.4477   30.6387 O   0  0  0  0  0  0  0  0  0  0  0  0
   10.9050  -16.2378   29.4175 C   0  0  0  0  0  0  0  0  0  0  0  0
   11.8221  -17.1536   28.9299 C   0  0  0  0  0  0  0  0  0  0  0  0
   12.4658  -16.9355   27.7233 C   0  0  0  0  0  0  0  0  0  0  0  0
   12.2296  -15.8108   26.9567 C   0  0  0  0  0  0  0  0  0  0  0  0
   12.9401  -15.6184   25.6809 C   0  0  0  0  0  0  0  0  0  0  0  0
   12.2217  -16.2374   24.4899 C   0  0  2  0  0  0  0  0  0  0  0  0
   10.8515  -15.7098   24.5808 N   0  0  0  0  0  0  0  0  0  0  0  0
   12.1788  -17.6921   24.6005 C   0  0  0  0  0  0  0  0  0  0  0  0
   11.0860  -18.2978   24.7824 O   0  0  0  0  0  0  0  0  0  0  0  0
   11.3166  -14.8994   27.4431 C   0  0  0  0  0  0  0  0  0  0  0  0
   10.6658  -15.1148   28.6576 C   0  0  0  0  0  0  0  0  0  0  0  0
   13.3228  -18.4475   24.5098 O   0  0  0  0  0  0  0  0  0  0  0  0
  2  3  1  0
  2  1  1  6
  4  6  1  0
  4  2  1  0
  4  5  1  6
  6  7  2  0
  8  9  1  0
  8  6  1  0
  9 10  1  1
 11 12  2  0
 11 10  1  0
 13 12  1  0
 14 19  2  0
 14 13  1  0
 15 14  1  0
 16 17  1  0
 16 15  2  0
 17 18  2  0
 18 19  1  0
 19 11  1  0
 20  9  1  0
 21 20  2  0
 22 23  1  0
 23 33  2  0
 23 24  1  0
 24 25  2  0
 25 26  1  0
 26 27  1  0
 28 27  1  1
 28 29  1  0
 29 20  1  0
 30 28  1  0
 30 34  1  0
 31 30  2  0
 32 26  2  0
 33 32  1  0
M  END
$$$$
