TWY.pdb
     RDKit          3D

 34 36  0  0  1  0  0  0  0  0999 V2000
    9.7703  -18.5774   17.0948 C   0  0  0  0  0  0  0  0  0  0  0  0
    9.8924  -18.0545   18.5088 C   0  0  1  0  0  0  0  0  0  0  0  0
   11.2128  -17.9971   18.8920 O   0  0  0  0  0  0  0  0  0  0  0  0
    9.2052  -16.7111   18.5616 C   0  0  2  0  0  0  0  0  0  0  0  0
    9.8271  -15.8535   17.5757 N   0  0  0  0  0  0  0  0  0  0  0  0
    9.1856  -16.1243   19.9026 C   0  0  0  0  0  0  0  0  0  0  0  0
    9.9659  -15.1519   20.1647 O   0  0  0  0  0  0  0  0  0  0  0  0
    8.3576  -16.5476   20.9664 N   0  0  0  0  0  0  0  0  0  0  0  0
    8.4404  -15.9156   22.3122 C   0  0  1  0  0  0  0  0  0  0  0  0
    7.0862  -15.8206   22.9047 C   0  0  0  0  0  0  0  0  0  0  0  0
    6.9720  -15.4325   24.2978 C   0  0  0  0  0  0  0  0  0  0  0  0
    6.7423  -16.2163   25.4071 C   0  0  0  0  0  0  0  0  0  0  0  0
    6.6821  -15.4450   26.5002 N   0  0  0  0  0  0  0  0  0  0  0  0
    6.8727  -14.1526   26.1079 C   0  0  0  0  0  0  0  0  0  0  0  0
    6.9049  -12.9764   26.8277 C   0  0  0  0  0  0  0  0  0  0  0  0
    7.1168  -11.7686   26.2018 C   0  0  0  0  0  0  0  0  0  0  0  0
    7.3022  -11.7110   24.8337 C   0  0  0  0  0  0  0  0  0  0  0  0
    7.2674  -12.8929   24.1294 C   0  0  0  0  0  0  0  0  0  0  0  0
    7.0575  -14.1117   24.7310 C   0  0  0  0  0  0  0  0  0  0  0  0
    9.4056  -16.6980   23.0956 C   0  0  0  0  0  0  0  0  0  0  0  0
    9.0907  -17.8580   23.5589 O   0  0  0  0  0  0  0  0  0  0  0  0
   10.7485  -15.1513   31.1641 O   0  0  0  0  0  0  0  0  0  0  0  0
   10.5522  -15.2614   29.7789 C   0  0  0  0  0  0  0  0  0  0  0  0
   10.3281  -16.4901   29.1809 C   0  0  0  0  0  0  0  0  0  0  0  0
   10.1355  -16.5860   27.8129 C   0  0  0  0  0  0  0  0  0  0  0  0
   10.1567  -15.4781   26.9879 C   0  0  0  0  0  0  0  0  0  0  0  0
    9.9503  -15.6276   25.5373 C   0  0  0  0  0  0  0  0  0  0  0  0
   11.1669  -16.1802   24.8076 C   0  0  2  0  0  0  0  0  0  0  0  0
   10.7339  -16.2756   23.4049 N   0  0  0  0  0  0  0  0  0  0  0  0
   11.5081  -17.5143   25.2911 C   0  0  0  0  0  0  0  0  0  0  0  0
   12.6166  -17.7379   25.8527 O   0  0  0  0  0  0  0  0  0  0  0  0
   10.3801  -14.2551   27.5841 C   0  0  0  0  0  0  0  0  0  0  0  0
   10.5745  -14.1537   28.9614 C   0  0  0  0  0  0  0  0  0  0  0  0
   10.6362  -18.5670   25.1520 O   0  0  0  0  0  0  0  0  0  0  0  0
  2  3  1  0
  2  1  1  6
  4  6  1  0
  4  2  1  0
  4  5  1  6
  6  7  2  0
  8  9  1  0
  8  6  1  0
  9 10  1  1
 11 12  2  0
 11 10  1  0
 13 12  1  0
 14 19  2  0
 14 13  1  0
 15 14  1  0
 16 17  1  0
 16 15  2  0
 17 18  2  0
 18 19  1  0
 19 11  1  0
 20  9  1  0
 21 20  2  0
 22 23  1  0
 23 33  2  0
 23 24  1  0
 24 25  2  0
 25 26  1  0
 26 27  1  0
 28 27  1  1
 28 29  1  0
 29 20  1  0
 30 28  1  0
 30 34  1  0
 31 30  2  0
 32 26  2  0
 33 32  1  0
M  END
$$$$
