DCC.pdb
     RDKit          3D

 21 20  0  0  1  0  0  0  0  0999 V2000
   24.9696  -34.5032  -12.1036 N   0  0  0  0  0  0  0  0  0  0  0  0
   26.3554  -34.3460  -11.7031 C   0  0  1  0  0  0  0  0  0  0  0  0
   27.0067  -33.3990  -12.6810 C   0  0  0  0  0  0  0  0  0  0  0  0
   27.2098  -34.0261  -13.9879 C   0  0  0  0  0  0  0  0  0  0  0  0
   26.9154  -35.2128  -14.2661 O   0  0  0  0  0  0  0  0  0  0  0  0
   26.4250  -33.8259  -10.3131 C   0  0  0  0  0  0  0  0  0  0  0  0
   27.5927  -33.6941   -9.8102 O   0  0  0  0  0  0  0  0  0  0  0  0
   27.7734  -33.2821  -15.0383 O   0  0  0  0  0  0  0  0  0  0  0  0
   25.2801  -33.4783   -9.5395 N   0  0  0  0  0  0  0  0  0  0  0  0
   25.4628  -33.0076   -8.2046 C   0  0  1  0  0  0  0  0  0  0  0  0
   24.1271  -32.4590   -7.6752 C   0  0  0  0  0  0  0  0  0  0  0  0
   24.4824  -31.8429   -5.9956 S   0  0  0  0  0  0  0  0  0  0  0  0
   25.8493  -34.0817   -7.2567 C   0  0  0  0  0  0  0  0  0  0  0  0
   25.1818  -35.1358   -7.2877 O   0  0  0  0  0  0  0  0  0  0  0  0
   26.9183  -33.9631   -6.3412 N   0  0  0  0  0  0  0  0  0  0  0  0
   27.3023  -35.0047   -5.4534 C   0  0  1  0  0  0  0  0  0  0  0  0
   28.4024  -35.8751   -6.0183 C   0  0  0  0  0  0  0  0  0  0  0  0
   28.6978  -37.3623   -5.0661 S   0  0  0  0  0  0  0  0  0  0  0  0
   27.5553  -34.5913   -4.0533 C   0  0  0  0  0  0  0  0  0  0  0  0
   27.5760  -35.5100   -3.0202 O   0  0  0  0  0  0  0  0  0  0  0  0
   27.7557  -33.3951   -3.7818 O   0  0  0  0  0  0  0  0  0  0  0  0
  2  3  1  0
  2  1  1  6
  3  4  1  0
  4  8  1  0
  4  5  2  0
  6  2  1  0
  7  6  2  0
  9  6  1  0
 10  9  1  0
 10 11  1  1
 12 11  1  0
 13 10  1  0
 13 15  1  0
 14 13  2  0
 16 15  1  0
 16 19  1  0
 16 17  1  6
 18 17  1  0
 19 21  2  0
 19 20  1  0
M  END
$$$$
