DCC.pdb
     RDKit          3D

 21 20  0  0  1  0  0  0  0  0999 V2000
   28.4802  -21.4332  -17.1072 N   0  0  0  0  0  0  0  0  0  0  0  0
   28.6584  -20.3719  -16.1339 C   0  0  1  0  0  0  0  0  0  0  0  0
   27.8335  -19.1933  -16.5902 C   0  0  0  0  0  0  0  0  0  0  0  0
   28.5340  -18.4024  -17.6032 C   0  0  0  0  0  0  0  0  0  0  0  0
   29.3513  -18.8654  -18.4340 O   0  0  0  0  0  0  0  0  0  0  0  0
   28.2379  -20.8423  -14.7889 C   0  0  0  0  0  0  0  0  0  0  0  0
   27.2344  -21.6329  -14.7480 O   0  0  0  0  0  0  0  0  0  0  0  0
   28.3055  -17.0185  -17.6884 O   0  0  0  0  0  0  0  0  0  0  0  0
   28.8857  -20.4610  -13.5785 N   0  0  0  0  0  0  0  0  0  0  0  0
   28.3931  -20.9694  -12.3392 C   0  0  1  0  0  0  0  0  0  0  0  0
   29.4334  -20.7083  -11.2369 C   0  0  0  0  0  0  0  0  0  0  0  0
   30.8557  -21.7752  -11.6435 S   0  0  0  0  0  0  0  0  0  0  0  0
   27.1567  -20.2888  -11.8813 C   0  0  0  0  0  0  0  0  0  0  0  0
   26.8727  -19.2000  -12.4213 O   0  0  0  0  0  0  0  0  0  0  0  0
   26.3064  -20.8111  -10.8817 N   0  0  0  0  0  0  0  0  0  0  0  0
   24.9609  -20.3881  -10.7052 C   0  0  1  0  0  0  0  0  0  0  0  0
   24.1417  -20.5092  -11.9706 C   0  0  0  0  0  0  0  0  0  0  0  0
   23.7204  -22.1978  -12.3911 S   0  0  0  0  0  0  0  0  0  0  0  0
   24.2688  -20.9361   -9.5153 C   0  0  0  0  0  0  0  0  0  0  0  0
   23.0145  -20.4919   -9.1394 O   0  0  0  0  0  0  0  0  0  0  0  0
   24.8126  -21.8162   -8.8267 O   0  0  0  0  0  0  0  0  0  0  0  0
  2  3  1  0
  2  1  1  6
  3  4  1  0
  4  8  1  0
  4  5  2  0
  6  2  1  0
  7  6  2  0
  9  6  1  0
 10  9  1  0
 10 11  1  1
 12 11  1  0
 13 10  1  0
 13 15  1  0
 14 13  2  0
 16 15  1  0
 16 19  1  0
 16 17  1  6
 18 17  1  0
 19 21  2  0
 19 20  1  0
M  END
$$$$
