DCC.pdb
     RDKit          3D

 21 20  0  0  1  0  0  0  0  0999 V2000
   19.6741  -12.8431  -17.0892 N   0  0  0  0  0  0  0  0  0  0  0  0
   19.9988  -11.5485  -17.6585 C   0  0  1  0  0  0  0  0  0  0  0  0
   18.7114  -10.9307  -18.1468 C   0  0  0  0  0  0  0  0  0  0  0  0
   18.1059  -11.7197  -19.2206 C   0  0  0  0  0  0  0  0  0  0  0  0
   18.7220  -12.1613  -20.2195 O   0  0  0  0  0  0  0  0  0  0  0  0
   20.6578  -10.6962  -16.6355 C   0  0  0  0  0  0  0  0  0  0  0  0
   20.0858  -10.6276  -15.4944 O   0  0  0  0  0  0  0  0  0  0  0  0
   16.7362  -12.0297  -19.1710 O   0  0  0  0  0  0  0  0  0  0  0  0
   21.8639   -9.9731  -16.8648 N   0  0  0  0  0  0  0  0  0  0  0  0
   22.4425   -9.2325  -15.7908 C   0  0  1  0  0  0  0  0  0  0  0  0
   23.9747   -9.2685  -15.9202 C   0  0  0  0  0  0  0  0  0  0  0  0
   24.4728  -10.9366  -15.3762 S   0  0  0  0  0  0  0  0  0  0  0  0
   22.0803   -7.7938  -15.8145 C   0  0  0  0  0  0  0  0  0  0  0  0
   21.9863   -7.2487  -16.9333 O   0  0  0  0  0  0  0  0  0  0  0  0
   21.8423   -7.0327  -14.6488 N   0  0  0  0  0  0  0  0  0  0  0  0
   21.4923   -5.6553  -14.6762 C   0  0  1  0  0  0  0  0  0  0  0  0
   19.9964   -5.4342  -14.6542 C   0  0  0  0  0  0  0  0  0  0  0  0
   19.5299   -3.7089  -14.5484 S   0  0  0  0  0  0  0  0  0  0  0  0
   22.2173   -4.7915  -13.7152 C   0  0  0  0  0  0  0  0  0  0  0  0
   22.7066   -3.5518  -14.0832 O   0  0  0  0  0  0  0  0  0  0  0  0
   22.3996   -5.1734  -12.5467 O   0  0  0  0  0  0  0  0  0  0  0  0
  2  3  1  0
  2  1  1  1
  3  4  1  0
  4  8  1  0
  4  5  2  0
  6  2  1  0
  7  6  2  0
  9  6  1  0
 10  9  1  0
 10 11  1  6
 12 11  1  0
 13 10  1  0
 13 15  1  0
 14 13  2  0
 16 15  1  0
 16 19  1  0
 16 17  1  1
 18 17  1  0
 19 21  2  0
 19 20  1  0
M  END
$$$$
