DCC.pdb
     RDKit          3D

 21 20  0  0  1  0  0  0  0  0999 V2000
   23.8445  -15.1708  -16.1069 N   0  0  0  0  0  0  0  0  0  0  0  0
   24.0248  -14.0797  -17.0463 C   0  0  1  0  0  0  0  0  0  0  0  0
   22.9449  -14.1985  -18.0938 C   0  0  0  0  0  0  0  0  0  0  0  0
   23.0726  -15.4363  -18.8645 C   0  0  0  0  0  0  0  0  0  0  0  0
   24.1438  -16.0650  -19.0369 O   0  0  0  0  0  0  0  0  0  0  0  0
   23.9496  -12.7790  -16.3323 C   0  0  0  0  0  0  0  0  0  0  0  0
   23.0044  -12.6477  -15.4820 O   0  0  0  0  0  0  0  0  0  0  0  0
   21.9382  -15.9984  -19.4742 O   0  0  0  0  0  0  0  0  0  0  0  0
   24.8587  -11.7034  -16.5486 N   0  0  0  0  0  0  0  0  0  0  0  0
   24.7402  -10.5253  -15.7517 C   0  0  1  0  0  0  0  0  0  0  0  0
   26.1201   -9.8572  -15.6296 C   0  0  0  0  0  0  0  0  0  0  0  0
   27.0362  -10.8467  -14.4015 S   0  0  0  0  0  0  0  0  0  0  0  0
   23.8590   -9.4979  -16.3595 C   0  0  0  0  0  0  0  0  0  0  0  0
   24.0801   -9.1894  -17.5485 O   0  0  0  0  0  0  0  0  0  0  0  0
   22.8033   -8.8687  -15.6634 N   0  0  0  0  0  0  0  0  0  0  0  0
   21.9399   -7.9098  -16.2597 C   0  0  1  0  0  0  0  0  0  0  0  0
   20.5098   -8.3925  -16.3531 C   0  0  0  0  0  0  0  0  0  0  0  0
   19.3723   -7.1470  -16.9535 S   0  0  0  0  0  0  0  0  0  0  0  0
   22.0500   -6.5314  -15.7277 C   0  0  0  0  0  0  0  0  0  0  0  0
   22.0888   -5.4330  -16.5667 O   0  0  0  0  0  0  0  0  0  0  0  0
   22.1100   -6.3382  -14.5014 O   0  0  0  0  0  0  0  0  0  0  0  0
  2  3  1  0
  2  1  1  1
  3  4  1  0
  4  8  1  0
  4  5  2  0
  6  2  1  0
  7  6  2  0
  9  6  1  0
 10  9  1  0
 10 11  1  6
 12 11  1  0
 13 10  1  0
 13 15  1  0
 14 13  2  0
 16 15  1  0
 16 19  1  0
 16 17  1  1
 18 17  1  0
 19 21  2  0
 19 20  1  0
M  END
$$$$
