DCC.pdb
     RDKit          3D

 21 20  0  0  1  0  0  0  0  0999 V2000
   17.4300  -12.5314  -14.8722 N   0  0  0  0  0  0  0  0  0  0  0  0
   16.2900  -11.8016  -14.3493 C   0  0  1  0  0  0  0  0  0  0  0  0
   15.5275  -12.7376  -13.4438 C   0  0  0  0  0  0  0  0  0  0  0  0
   14.6828  -13.6588  -14.2057 C   0  0  0  0  0  0  0  0  0  0  0  0
   14.6108  -13.6955  -15.4571 O   0  0  0  0  0  0  0  0  0  0  0  0
   16.7536  -10.5943  -13.6179 C   0  0  0  0  0  0  0  0  0  0  0  0
   17.8533  -10.7027  -12.9755 O   0  0  0  0  0  0  0  0  0  0  0  0
   13.8760  -14.5881  -13.5274 O   0  0  0  0  0  0  0  0  0  0  0  0
   16.0459   -9.3578  -13.6021 N   0  0  0  0  0  0  0  0  0  0  0  0
   16.6104   -8.2454  -12.9087 C   0  0  1  0  0  0  0  0  0  0  0  0
   16.7332   -7.0564  -13.8764 C   0  0  0  0  0  0  0  0  0  0  0  0
   17.5163   -5.7201  -12.9132 S   0  0  0  0  0  0  0  0  0  0  0  0
   15.7573   -7.7595  -11.7961 C   0  0  0  0  0  0  0  0  0  0  0  0
   14.5321   -7.6691  -12.0157 O   0  0  0  0  0  0  0  0  0  0  0  0
   16.2636   -7.4033  -10.5266 N   0  0  0  0  0  0  0  0  0  0  0  0
   15.4764   -6.7777   -9.5219 C   0  0  1  0  0  0  0  0  0  0  0  0
   15.0602   -7.7354   -8.4280 C   0  0  0  0  0  0  0  0  0  0  0  0
   14.1487   -6.9526   -7.1006 S   0  0  0  0  0  0  0  0  0  0  0  0
   16.0076   -5.4981   -8.9970 C   0  0  0  0  0  0  0  0  0  0  0  0
   17.3026   -5.0904   -9.2594 O   0  0  0  0  0  0  0  0  0  0  0  0
   15.2873   -4.7607   -8.3028 O   0  0  0  0  0  0  0  0  0  0  0  0
  2  3  1  0
  2  1  1  1
  3  4  1  0
  4  8  1  0
  4  5  2  0
  6  2  1  0
  7  6  2  0
  9  6  1  0
 10  9  1  0
 10 11  1  6
 12 11  1  0
 13 10  1  0
 13 15  1  0
 14 13  2  0
 16 15  1  0
 16 19  1  0
 16 17  1  1
 18 17  1  0
 19 21  2  0
 19 20  1  0
M  END
$$$$
