DCC.pdb
     RDKit          3D

 21 20  0  0  1  0  0  0  0  0999 V2000
   18.0663  -14.4568  -16.9115 N   0  0  0  0  0  0  0  0  0  0  0  0
   17.4319  -13.1570  -16.7959 C   0  0  1  0  0  0  0  0  0  0  0  0
   16.6187  -13.1595  -15.5245 C   0  0  0  0  0  0  0  0  0  0  0  0
   15.4997  -14.1000  -15.5999 C   0  0  0  0  0  0  0  0  0  0  0  0
   14.6259  -14.1025  -16.4993 O   0  0  0  0  0  0  0  0  0  0  0  0
   18.4645  -12.0890  -16.7793 C   0  0  0  0  0  0  0  0  0  0  0  0
   19.5639  -12.3663  -16.1892 O   0  0  0  0  0  0  0  0  0  0  0  0
   15.3533  -15.0902  -14.6136 O   0  0  0  0  0  0  0  0  0  0  0  0
   18.2872  -10.8068  -17.3749 N   0  0  0  0  0  0  0  0  0  0  0  0
   19.3713   -9.8788  -17.3571 C   0  0  1  0  0  0  0  0  0  0  0  0
   19.2326   -8.9171  -18.5493 C   0  0  0  0  0  0  0  0  0  0  0  0
   20.7130   -7.8531  -18.4946 S   0  0  0  0  0  0  0  0  0  0  0  0
   19.3759   -9.0125  -16.1524 C   0  0  0  0  0  0  0  0  0  0  0  0
   18.3025   -8.4520  -15.8501 O   0  0  0  0  0  0  0  0  0  0  0  0
   20.5197   -8.8010  -15.3512 N   0  0  0  0  0  0  0  0  0  0  0  0
   20.5114   -7.9968  -14.1792 C   0  0  1  0  0  0  0  0  0  0  0  0
   21.0297   -8.7331  -12.9642 C   0  0  0  0  0  0  0  0  0  0  0  0
   21.1273   -7.7120  -11.4967 S   0  0  0  0  0  0  0  0  0  0  0  0
   21.0973   -6.6440  -14.3273 C   0  0  0  0  0  0  0  0  0  0  0  0
   22.2833   -6.4397  -15.0082 O   0  0  0  0  0  0  0  0  0  0  0  0
   20.5236   -5.6576  -13.8347 O   0  0  0  0  0  0  0  0  0  0  0  0
  2  3  1  0
  2  1  1  1
  3  4  1  0
  4  8  1  0
  4  5  2  0
  6  2  1  0
  7  6  2  0
  9  6  1  0
 10  9  1  0
 10 11  1  6
 12 11  1  0
 13 10  1  0
 13 15  1  0
 14 13  2  0
 16 15  1  0
 16 19  1  0
 16 17  1  1
 18 17  1  0
 19 21  2  0
 19 20  1  0
M  END
$$$$
