DCC.pdb
     RDKit          3D

 21 20  0  0  1  0  0  0  0  0999 V2000
   29.7604  -34.4808    2.8449 N   0  0  0  0  0  0  0  0  0  0  0  0
   28.7573  -33.5694    2.3267 C   0  0  1  0  0  0  0  0  0  0  0  0
   27.9406  -34.3244    1.3066 C   0  0  0  0  0  0  0  0  0  0  0  0
   28.7256  -34.6418    0.1127 C   0  0  0  0  0  0  0  0  0  0  0  0
   29.6857  -33.9582   -0.3156 O   0  0  0  0  0  0  0  0  0  0  0  0
   27.9093  -33.0648    3.4373 C   0  0  0  0  0  0  0  0  0  0  0  0
   28.3167  -33.3096    4.6239 O   0  0  0  0  0  0  0  0  0  0  0  0
   28.4168  -35.7870   -0.6408 O   0  0  0  0  0  0  0  0  0  0  0  0
   26.6972  -32.3416    3.2425 N   0  0  0  0  0  0  0  0  0  0  0  0
   25.9845  -31.8641    4.3830 C   0  0  1  0  0  0  0  0  0  0  0  0
   26.8253  -30.7875    5.0898 C   0  0  0  0  0  0  0  0  0  0  0  0
   25.7817  -30.1667    6.4508 S   0  0  0  0  0  0  0  0  0  0  0  0
   24.7063  -31.1968    4.0330 C   0  0  0  0  0  0  0  0  0  0  0  0
   24.7786  -30.1292    3.3906 O   0  0  0  0  0  0  0  0  0  0  0  0
   23.4389  -31.7089    4.3887 N   0  0  0  0  0  0  0  0  0  0  0  0
   22.2156  -31.1350    3.9478 C   0  0  1  0  0  0  0  0  0  0  0  0
   21.3260  -32.1327    3.2404 C   0  0  0  0  0  0  0  0  0  0  0  0
   22.0528  -32.8080    1.7499 S   0  0  0  0  0  0  0  0  0  0  0  0
   21.4889  -30.3262    4.9542 C   0  0  0  0  0  0  0  0  0  0  0  0
   21.9975  -30.1237    6.2239 O   0  0  0  0  0  0  0  0  0  0  0  0
   20.3951  -29.8098    4.6687 O   0  0  0  0  0  0  0  0  0  0  0  0
  2  3  1  0
  2  1  1  1
  3  4  1  0
  4  8  1  0
  4  5  2  0
  6  2  1  0
  7  6  2  0
  9  6  1  0
 10  9  1  0
 10 11  1  6
 12 11  1  0
 13 10  1  0
 13 15  1  0
 14 13  2  0
 16 15  1  0
 16 19  1  0
 16 17  1  1
 18 17  1  0
 19 21  2  0
 19 20  1  0
M  END
$$$$
