DCC.pdb
     RDKit          3D

 21 20  0  0  1  0  0  0  0  0999 V2000
   18.7212  -12.8311  -17.1575 N   0  0  0  0  0  0  0  0  0  0  0  0
   18.3340  -11.4600  -16.8827 C   0  0  1  0  0  0  0  0  0  0  0  0
   17.3101  -11.4900  -15.7744 C   0  0  0  0  0  0  0  0  0  0  0  0
   16.0494  -12.0862  -16.2187 C   0  0  0  0  0  0  0  0  0  0  0  0
   15.5799  -13.1683  -15.7931 O   0  0  0  0  0  0  0  0  0  0  0  0
   19.5281  -10.6636  -16.4990 C   0  0  0  0  0  0  0  0  0  0  0  0
   20.4526  -11.2857  -15.8728 O   0  0  0  0  0  0  0  0  0  0  0  0
   15.2742  -11.4337  -17.1923 O   0  0  0  0  0  0  0  0  0  0  0  0
   19.6824   -9.2774  -16.7901 N   0  0  0  0  0  0  0  0  0  0  0  0
   20.8978   -8.6241  -16.4258 C   0  0  1  0  0  0  0  0  0  0  0  0
   21.5934   -8.1065  -17.6961 C   0  0  0  0  0  0  0  0  0  0  0  0
   23.1444   -7.3350  -17.1250 S   0  0  0  0  0  0  0  0  0  0  0  0
   20.6826   -7.4244  -15.5796 C   0  0  0  0  0  0  0  0  0  0  0  0
   19.8549   -6.5828  -15.9849 O   0  0  0  0  0  0  0  0  0  0  0  0
   21.3606   -7.2008  -14.3609 N   0  0  0  0  0  0  0  0  0  0  0  0
   21.1337   -6.0618  -13.5413 C   0  0  1  0  0  0  0  0  0  0  0  0
   21.1167   -6.3994  -12.0673 C   0  0  0  0  0  0  0  0  0  0  0  0
   20.0361   -7.7673  -11.6592 S   0  0  0  0  0  0  0  0  0  0  0  0
   21.9639   -4.8746  -13.8517 C   0  0  0  0  0  0  0  0  0  0  0  0
   21.7467   -3.6577  -13.2320 O   0  0  0  0  0  0  0  0  0  0  0  0
   22.8816   -4.9550  -14.6859 O   0  0  0  0  0  0  0  0  0  0  0  0
  2  3  1  0
  2  1  1  1
  3  4  1  0
  4  8  1  0
  4  5  2  0
  6  2  1  0
  7  6  2  0
  9  6  1  0
 10  9  1  0
 10 11  1  6
 12 11  1  0
 13 10  1  0
 13 15  1  0
 14 13  2  0
 16 15  1  0
 16 19  1  0
 16 17  1  1
 18 17  1  0
 19 21  2  0
 19 20  1  0
M  END
$$$$
