DCC.pdb
     RDKit          3D

 21 20  0  0  1  0  0  0  0  0999 V2000
   18.9085  -11.4158  -17.2162 N   0  0  0  0  0  0  0  0  0  0  0  0
   18.4829  -11.0152  -15.8880 C   0  0  1  0  0  0  0  0  0  0  0  0
   18.3053  -12.2706  -15.0696 C   0  0  0  0  0  0  0  0  0  0  0  0
   16.9889  -12.8738  -15.2830 C   0  0  0  0  0  0  0  0  0  0  0  0
   16.1901  -12.5462  -16.1924 O   0  0  0  0  0  0  0  0  0  0  0  0
   19.4942  -10.1101  -15.2837 C   0  0  0  0  0  0  0  0  0  0  0  0
   19.2715   -9.7231  -14.0860 O   0  0  0  0  0  0  0  0  0  0  0  0
   16.5451  -13.8991  -14.4306 O   0  0  0  0  0  0  0  0  0  0  0  0
   20.6667   -9.6676  -15.9617 N   0  0  0  0  0  0  0  0  0  0  0  0
   21.5676   -8.7901  -15.2871 C   0  0  1  0  0  0  0  0  0  0  0  0
   22.9779   -8.9642  -15.8753 C   0  0  0  0  0  0  0  0  0  0  0  0
   23.6437  -10.4801  -15.1099 S   0  0  0  0  0  0  0  0  0  0  0  0
   21.2366   -7.3564  -15.4789 C   0  0  0  0  0  0  0  0  0  0  0  0
   20.7239   -7.0314  -16.5694 O   0  0  0  0  0  0  0  0  0  0  0  0
   21.4723   -6.3663  -14.4997 N   0  0  0  0  0  0  0  0  0  0  0  0
   21.1546   -4.9937  -14.6881 C   0  0  1  0  0  0  0  0  0  0  0  0
   20.7752   -4.3015  -13.3982 C   0  0  0  0  0  0  0  0  0  0  0  0
   20.3475   -2.5760  -13.6114 S   0  0  0  0  0  0  0  0  0  0  0  0
   22.1244   -4.2175  -15.4957 C   0  0  0  0  0  0  0  0  0  0  0  0
   21.7180   -3.4421  -16.5660 O   0  0  0  0  0  0  0  0  0  0  0  0
   23.3358   -4.2517  -15.2197 O   0  0  0  0  0  0  0  0  0  0  0  0
  2  3  1  0
  2  1  1  6
  3  4  1  0
  4  8  1  0
  4  5  2  0
  6  2  1  0
  7  6  2  0
  9  6  1  0
 10  9  1  0
 10 11  1  6
 12 11  1  0
 13 10  1  0
 13 15  1  0
 14 13  2  0
 16 15  1  0
 16 19  1  0
 16 17  1  1
 18 17  1  0
 19 21  2  0
 19 20  1  0
M  END
$$$$
