DCC.pdb
     RDKit          3D

 21 20  0  0  1  0  0  0  0  0999 V2000
   20.5381  -12.4076  -16.5614 N   0  0  0  0  0  0  0  0  0  0  0  0
   19.4742  -11.4712  -16.2507 C   0  0  1  0  0  0  0  0  0  0  0  0
   18.4459  -12.2080  -15.4277 C   0  0  0  0  0  0  0  0  0  0  0  0
   17.9078  -13.3654  -16.1441 C   0  0  0  0  0  0  0  0  0  0  0  0
   17.6602  -14.4785  -15.6225 O   0  0  0  0  0  0  0  0  0  0  0  0
   20.0255  -10.3041  -15.5150 C   0  0  0  0  0  0  0  0  0  0  0  0
   19.3245   -9.8579  -14.5438 O   0  0  0  0  0  0  0  0  0  0  0  0
   17.6331  -13.2687  -17.5188 O   0  0  0  0  0  0  0  0  0  0  0  0
   21.2651   -9.6792  -15.8363 N   0  0  0  0  0  0  0  0  0  0  0  0
   21.6955   -8.5576  -15.0659 C   0  0  1  0  0  0  0  0  0  0  0  0
   23.1965   -8.3248  -15.3077 C   0  0  0  0  0  0  0  0  0  0  0  0
   23.4095   -8.3460  -17.1190 S   0  0  0  0  0  0  0  0  0  0  0  0
   21.0330   -7.2905  -15.4625 C   0  0  0  0  0  0  0  0  0  0  0  0
   20.6392   -7.1993  -16.6433 O   0  0  0  0  0  0  0  0  0  0  0  0
   20.8337   -6.2074  -14.5782 N   0  0  0  0  0  0  0  0  0  0  0  0
   20.2688   -4.9669  -14.9812 C   0  0  1  0  0  0  0  0  0  0  0  0
   18.8555   -4.7795  -14.4767 C   0  0  0  0  0  0  0  0  0  0  0  0
   18.2326   -3.1153  -14.6958 S   0  0  0  0  0  0  0  0  0  0  0  0
   21.1215   -3.7749  -14.7645 C   0  0  0  0  0  0  0  0  0  0  0  0
   21.2550   -2.7953  -15.7312 O   0  0  0  0  0  0  0  0  0  0  0  0
   21.7390   -3.6349  -13.6950 O   0  0  0  0  0  0  0  0  0  0  0  0
  2  3  1  0
  2  1  1  1
  3  4  1  0
  4  8  1  0
  4  5  2  0
  6  2  1  0
  7  6  2  0
  9  6  1  0
 10  9  1  0
 10 11  1  6
 12 11  1  0
 13 10  1  0
 13 15  1  0
 14 13  2  0
 16 15  1  0
 16 19  1  0
 16 17  1  1
 18 17  1  0
 19 21  2  0
 19 20  1  0
M  END
$$$$
