DCC.pdb
     RDKit          3D

 21 20  0  0  1  0  0  0  0  0999 V2000
   22.1576  -12.9293  -15.8818 N   0  0  0  0  0  0  0  0  0  0  0  0
   21.6037  -11.6552  -16.3005 C   0  0  1  0  0  0  0  0  0  0  0  0
   20.1962  -11.5723  -15.7621 C   0  0  0  0  0  0  0  0  0  0  0  0
   19.3349  -12.6058  -16.3385 C   0  0  0  0  0  0  0  0  0  0  0  0
   19.5199  -13.1535  -17.4513 O   0  0  0  0  0  0  0  0  0  0  0  0
   22.4477  -10.5439  -15.7906 C   0  0  0  0  0  0  0  0  0  0  0  0
   22.1527  -10.0866  -14.6340 O   0  0  0  0  0  0  0  0  0  0  0  0
   18.2058  -13.0483  -15.6286 O   0  0  0  0  0  0  0  0  0  0  0  0
   23.5392   -9.9824  -16.5141 N   0  0  0  0  0  0  0  0  0  0  0  0
   24.3046   -8.9384  -15.9133 C   0  0  1  0  0  0  0  0  0  0  0  0
   25.7075   -8.9139  -16.5431 C   0  0  0  0  0  0  0  0  0  0  0  0
   26.5889  -10.3430  -15.8306 S   0  0  0  0  0  0  0  0  0  0  0  0
   23.7406   -7.5881  -16.1588 C   0  0  0  0  0  0  0  0  0  0  0  0
   23.4043   -7.3158  -17.3295 O   0  0  0  0  0  0  0  0  0  0  0  0
   23.5719   -6.6197  -15.1445 N   0  0  0  0  0  0  0  0  0  0  0  0
   22.9874   -5.3447  -15.3749 C   0  0  1  0  0  0  0  0  0  0  0  0
   22.1152   -4.8881  -14.2269 C   0  0  0  0  0  0  0  0  0  0  0  0
   21.0555   -6.1768  -13.5773 S   0  0  0  0  0  0  0  0  0  0  0  0
   23.9155   -4.2915  -15.8486 C   0  0  0  0  0  0  0  0  0  0  0  0
   25.2795   -4.5071  -15.9184 O   0  0  0  0  0  0  0  0  0  0  0  0
   23.4761   -3.1819  -16.1957 O   0  0  0  0  0  0  0  0  0  0  0  0
  2  3  1  0
  2  1  1  1
  3  4  1  0
  4  8  1  0
  4  5  2  0
  6  2  1  0
  7  6  2  0
  9  6  1  0
 10  9  1  0
 10 11  1  6
 12 11  1  0
 13 10  1  0
 13 15  1  0
 14 13  2  0
 16 15  1  0
 16 19  1  0
 16 17  1  1
 18 17  1  0
 19 21  2  0
 19 20  1  0
M  END
$$$$
