DCC.pdb
     RDKit          3D

 21 20  0  0  1  0  0  0  0  0999 V2000
   27.5879  -21.9192  -16.7747 N   0  0  0  0  0  0  0  0  0  0  0  0
   26.2492  -21.3871  -16.6014 C   0  0  1  0  0  0  0  0  0  0  0  0
   25.5704  -21.4162  -17.9490 C   0  0  0  0  0  0  0  0  0  0  0  0
   25.5220  -20.0866  -18.5591 C   0  0  0  0  0  0  0  0  0  0  0  0
   25.0601  -19.0609  -18.0049 O   0  0  0  0  0  0  0  0  0  0  0  0
   25.5076  -22.1974  -15.6010 C   0  0  0  0  0  0  0  0  0  0  0  0
   26.1383  -23.1801  -15.0810 O   0  0  0  0  0  0  0  0  0  0  0  0
   26.0181  -19.8979  -19.8602 O   0  0  0  0  0  0  0  0  0  0  0  0
   24.1635  -21.9342  -15.2082 N   0  0  0  0  0  0  0  0  0  0  0  0
   23.5595  -22.7572  -14.2108 C   0  0  1  0  0  0  0  0  0  0  0  0
   23.4978  -21.9806  -12.8847 C   0  0  0  0  0  0  0  0  0  0  0  0
   22.4131  -20.5498  -13.2053 S   0  0  0  0  0  0  0  0  0  0  0  0
   22.1532  -23.1127  -14.5232 C   0  0  0  0  0  0  0  0  0  0  0  0
   21.4699  -22.2584  -15.1240 O   0  0  0  0  0  0  0  0  0  0  0  0
   21.5690  -24.3511  -14.1767 N   0  0  0  0  0  0  0  0  0  0  0  0
   20.2097  -24.6719  -14.4412 C   0  0  1  0  0  0  0  0  0  0  0  0
   20.0029  -26.1433  -14.7224 C   0  0  0  0  0  0  0  0  0  0  0  0
   21.4857  -27.1258  -14.5183 S   0  0  0  0  0  0  0  0  0  0  0  0
   19.2243  -24.1241  -13.4800 C   0  0  0  0  0  0  0  0  0  0  0  0
   17.8642  -24.1959  -13.7182 O   0  0  0  0  0  0  0  0  0  0  0  0
   19.6104  -23.5838  -12.4294 O   0  0  0  0  0  0  0  0  0  0  0  0
  2  3  1  0
  2  1  1  6
  3  4  1  0
  4  8  1  0
  4  5  2  0
  6  2  1  0
  7  6  2  0
  9  6  1  0
 10  9  1  0
 10 11  1  1
 12 11  1  0
 13 10  1  0
 13 15  1  0
 14 13  2  0
 16 15  1  0
 16 19  1  0
 16 17  1  1
 18 17  1  0
 19 21  2  0
 19 20  1  0
M  END
$$$$
