RSM.pdb
     RDKit          3D

 26 25  0  0  1  0  0  0  0  0999 V2000
   31.2222  -24.6112  -17.9438 N   0  0  0  0  0  0  0  0  0  0  0  0
   31.4410  -24.3288  -16.5506 C   0  0  0  0  0  0  0  0  0  0  0  0
   32.1314  -25.1330  -15.8141 N   0  0  0  0  0  0  0  0  0  0  0  0
   30.8975  -23.1523  -15.9608 N   0  0  0  0  0  0  0  0  0  0  0  0
   29.8773  -22.4247  -16.6451 C   0  0  0  0  0  0  0  0  0  0  0  0
   28.7975  -23.3716  -17.1165 C   0  0  0  0  0  0  0  0  0  0  0  0
   27.4206  -22.9190  -16.7679 C   0  0  0  0  0  0  0  0  0  0  0  0
   27.4041  -21.8094  -15.7414 C   0  0  2  0  0  0  0  0  0  0  0  0
   28.4604  -21.9225  -14.7843 N   0  0  0  0  0  0  0  0  0  0  0  0
   26.0832  -21.8132  -15.0156 C   0  0  0  0  0  0  0  0  0  0  0  0
   24.9976  -21.8899  -15.6134 O   0  0  0  0  0  0  0  0  0  0  0  0
   32.3354  -24.9798  -14.8176 O   0  0  0  0  0  0  0  0  0  0  0  0
   25.7409  -20.4923  -11.0188 C   0  0  0  0  0  0  0  0  0  0  0  0
   25.2246  -21.7251  -11.3727 C   0  0  1  0  0  0  0  0  0  0  0  0
   24.8341  -21.7571  -12.8556 N   0  0  0  0  0  0  0  0  0  0  0  0
   26.0645  -21.7264  -13.5982 C   0  0  0  0  0  0  0  0  0  0  0  0
   24.0437  -20.5606  -13.1930 O   0  0  0  0  0  0  0  0  0  0  0  0
   24.6017  -19.4668  -13.4737 C   0  0  0  0  0  0  0  0  0  0  0  0
   20.8469  -16.6272  -18.1065 S   0  0  0  0  0  0  0  0  0  0  0  0
   21.7839  -18.0584  -17.4751 C   0  0  0  0  0  0  0  0  0  0  0  0
   21.3632  -18.2281  -15.7055 C   0  0  0  0  0  0  0  0  0  0  0  0
   22.1960  -19.3231  -15.0963 C   0  0  1  0  0  0  0  0  0  0  0  0
   21.8408  -19.5366  -13.6307 N   0  0  0  0  0  0  0  0  0  0  0  0
   22.6400  -20.6630  -13.1954 C   0  0  0  0  0  0  0  0  0  0  0  0
   20.4295  -19.8753  -13.4120 O   0  0  0  0  0  0  0  0  0  0  0  0
   19.4560  -18.9234  -13.1692 O   0  0  0  0  0  0  0  0  0  0  0  0
  2  1  1  0
  3  2  2  0
  4  2  1  0
  5  4  1  0
  6  5  1  0
  6  7  1  0
  8  7  1  0
  8  9  1  1
 10  8  1  0
 11 10  2  0
 12 13  1  0
 14 13  1  1
 14 15  1  0
 15 10  1  0
 16 14  1  0
 16 23  1  0
 17 16  2  0
 19 18  1  0
 20 19  1  0
 22 21  1  1
 21 20  1  0
 22 23  1  0
 22 24  1  0
 24 25  1  0
 26 24  2  0
M  END
$$$$
