RSM.pdb
     RDKit          3D

 26 25  0  0  1  0  0  0  0  0999 V2000
   22.8490  -28.8935  -17.5602 N   0  0  0  0  0  0  0  0  0  0  0  0
   22.4151  -27.8041  -18.3931 C   0  0  0  0  0  0  0  0  0  0  0  0
   21.1674  -27.6541  -18.6876 N   0  0  0  0  0  0  0  0  0  0  0  0
   23.3595  -26.8705  -18.9066 N   0  0  0  0  0  0  0  0  0  0  0  0
   24.7359  -26.9852  -18.5446 C   0  0  0  0  0  0  0  0  0  0  0  0
   25.5359  -25.8872  -19.2075 C   0  0  0  0  0  0  0  0  0  0  0  0
   26.9946  -25.9546  -18.9072 C   0  0  0  0  0  0  0  0  0  0  0  0
   27.2868  -26.2745  -17.4589 C   0  0  2  0  0  0  0  0  0  0  0  0
   27.8268  -25.1612  -16.7421 N   0  0  0  0  0  0  0  0  0  0  0  0
   28.2585  -27.4241  -17.3823 C   0  0  0  0  0  0  0  0  0  0  0  0
   29.4882  -27.2579  -17.4278 O   0  0  0  0  0  0  0  0  0  0  0  0
   20.7900  -26.8754  -19.2437 O   0  0  0  0  0  0  0  0  0  0  0  0
   28.5384  -32.1311  -16.2422 C   0  0  0  0  0  0  0  0  0  0  0  0
   27.7964  -30.9789  -16.4253 C   0  0  1  0  0  0  0  0  0  0  0  0
   28.6450  -29.8681  -17.0566 N   0  0  0  0  0  0  0  0  0  0  0  0
   27.7643  -28.7493  -17.2537 C   0  0  0  0  0  0  0  0  0  0  0  0
   29.1561  -30.3090  -18.3660 O   0  0  0  0  0  0  0  0  0  0  0  0
   28.4652  -30.1859  -19.4121 C   0  0  0  0  0  0  0  0  0  0  0  0
   35.2765  -31.4104  -18.9108 S   0  0  0  0  0  0  0  0  0  0  0  0
   34.8826  -32.3245  -20.4385 C   0  0  0  0  0  0  0  0  0  0  0  0
   33.0909  -32.1204  -20.7309 C   0  0  0  0  0  0  0  0  0  0  0  0
   32.4416  -31.5680  -19.4910 C   0  0  1  0  0  0  0  0  0  0  0  0
   30.9430  -31.3814  -19.6888 N   0  0  0  0  0  0  0  0  0  0  0  0
   30.4427  -30.8761  -18.4273 C   0  0  0  0  0  0  0  0  0  0  0  0
   30.2305  -32.6292  -19.9878 O   0  0  0  0  0  0  0  0  0  0  0  0
   30.0631  -33.1107  -21.2735 O   0  0  0  0  0  0  0  0  0  0  0  0
  2  1  1  0
  3  2  2  0
  4  2  1  0
  5  4  1  0
  6  5  1  0
  6  7  1  0
  8  7  1  0
  8  9  1  6
 10  8  1  0
 11 10  2  0
 12 13  1  0
 14 13  1  1
 14 15  1  0
 15 10  1  0
 16 14  1  0
 16 23  1  0
 17 16  2  0
 19 18  1  0
 20 19  1  0
 22 21  1  6
 21 20  1  0
 22 23  1  0
 22 24  1  0
 24 25  1  0
 26 24  2  0
M  END
$$$$
