RSM.pdb
     RDKit          3D

 26 25  0  0  1  0  0  0  0  0999 V2000
   27.1656  -28.7891  -18.6902 N   0  0  0  0  0  0  0  0  0  0  0  0
   27.6134  -28.9730  -17.3359 C   0  0  0  0  0  0  0  0  0  0  0  0
   28.1346  -30.0919  -16.9586 N   0  0  0  0  0  0  0  0  0  0  0  0
   27.4885  -27.9186  -16.3872 N   0  0  0  0  0  0  0  0  0  0  0  0
   26.9565  -26.6585  -16.7964 C   0  0  0  0  0  0  0  0  0  0  0  0
   27.9843  -25.5711  -16.5812 C   0  0  0  0  0  0  0  0  0  0  0  0
   27.4762  -24.2059  -16.8982 C   0  0  0  0  0  0  0  0  0  0  0  0
   28.5614  -23.1535  -16.8900 C   0  0  2  0  0  0  0  0  0  0  0  0
   29.8775  -23.7126  -16.9007 N   0  0  0  0  0  0  0  0  0  0  0  0
   28.4096  -22.2819  -15.6698 C   0  0  0  0  0  0  0  0  0  0  0  0
   29.1195  -22.4229  -14.6609 O   0  0  0  0  0  0  0  0  0  0  0  0
   28.3873  -30.3185  -15.9876 O   0  0  0  0  0  0  0  0  0  0  0  0
   25.3025  -19.4479  -15.5864 C   0  0  0  0  0  0  0  0  0  0  0  0
   26.5400  -19.1357  -15.0546 C   0  0  1  0  0  0  0  0  0  0  0  0
   27.2491  -20.3899  -14.5286 N   0  0  0  0  0  0  0  0  0  0  0  0
   27.4239  -21.2595  -15.6597 C   0  0  0  0  0  0  0  0  0  0  0  0
   26.4001  -21.0669  -13.5332 O   0  0  0  0  0  0  0  0  0  0  0  0
   25.6611  -22.0348  -13.8552 C   0  0  0  0  0  0  0  0  0  0  0  0
   26.5305  -19.1567   -7.2045 S   0  0  0  0  0  0  0  0  0  0  0  0
   26.1299  -20.9343   -7.1373 C   0  0  0  0  0  0  0  0  0  0  0  0
   25.3327  -21.3580   -8.7255 C   0  0  0  0  0  0  0  0  0  0  0  0
   26.1721  -20.8378   -9.8608 C   0  0  1  0  0  0  0  0  0  0  0  0
   25.5878  -21.2395  -11.2087 N   0  0  0  0  0  0  0  0  0  0  0  0
   26.4299  -20.6078  -12.2031 C   0  0  0  0  0  0  0  0  0  0  0  0
   24.2139  -20.7671  -11.4173 O   0  0  0  0  0  0  0  0  0  0  0  0
   23.1022  -21.4826  -11.0109 O   0  0  0  0  0  0  0  0  0  0  0  0
  2  1  1  0
  3  2  2  0
  4  2  1  0
  5  4  1  0
  6  5  1  0
  6  7  1  0
  8  7  1  0
  8  9  1  1
 10  8  1  0
 11 10  2  0
 12 13  1  0
 14 13  1  6
 14 15  1  0
 15 10  1  0
 16 14  1  0
 16 23  1  0
 17 16  2  0
 19 18  1  0
 20 19  1  0
 22 21  1  6
 21 20  1  0
 22 23  1  0
 22 24  1  0
 24 25  1  0
 26 24  2  0
M  END
$$$$
