RSM.pdb
     RDKit          3D

 26 25  0  0  1  0  0  0  0  0999 V2000
   32.3863  -25.3603  -15.6495 N   0  0  0  0  0  0  0  0  0  0  0  0
   32.6011  -24.6939  -16.9058 C   0  0  0  0  0  0  0  0  0  0  0  0
   33.6581  -24.9314  -17.6074 N   0  0  0  0  0  0  0  0  0  0  0  0
   31.6462  -23.7587  -17.3968 N   0  0  0  0  0  0  0  0  0  0  0  0
   30.2613  -23.9410  -17.1014 C   0  0  0  0  0  0  0  0  0  0  0  0
   29.4624  -22.7758  -17.6391 C   0  0  0  0  0  0  0  0  0  0  0  0
   28.8369  -21.9447  -16.5711 C   0  0  0  0  0  0  0  0  0  0  0  0
   27.5603  -22.5434  -16.0263 C   0  0  2  0  0  0  0  0  0  0  0  0
   26.9815  -23.5116  -16.9052 N   0  0  0  0  0  0  0  0  0  0  0  0
   26.5562  -21.4477  -15.7753 C   0  0  0  0  0  0  0  0  0  0  0  0
   26.8210  -20.4501  -15.0851 O   0  0  0  0  0  0  0  0  0  0  0  0
   33.8191  -24.5721  -18.5576 O   0  0  0  0  0  0  0  0  0  0  0  0
   23.2138  -21.1647  -18.1272 C   0  0  0  0  0  0  0  0  0  0  0  0
   23.6428  -20.1129  -17.3390 C   0  0  1  0  0  0  0  0  0  0  0  0
   24.2147  -20.6159  -16.0076 N   0  0  0  0  0  0  0  0  0  0  0  0
   25.2576  -21.5468  -16.3417 C   0  0  0  0  0  0  0  0  0  0  0  0
   23.1698  -21.3231  -15.2472 O   0  0  0  0  0  0  0  0  0  0  0  0
   23.0349  -22.5728  -15.3292 C   0  0  0  0  0  0  0  0  0  0  0  0
   21.4654  -19.1400   -9.8542 S   0  0  0  0  0  0  0  0  0  0  0  0
   20.0384  -20.2748   -9.8836 C   0  0  0  0  0  0  0  0  0  0  0  0
   20.0179  -21.0573  -11.5342 C   0  0  0  0  0  0  0  0  0  0  0  0
   21.1891  -20.5607  -12.3377 C   0  0  1  0  0  0  0  0  0  0  0  0
   21.2454  -21.2310  -13.7042 N   0  0  0  0  0  0  0  0  0  0  0  0
   22.3165  -20.5694  -14.4198 C   0  0  0  0  0  0  0  0  0  0  0  0
   20.0148  -21.0705  -14.4879 O   0  0  0  0  0  0  0  0  0  0  0  0
   19.8850  -20.1402  -15.5030 O   0  0  0  0  0  0  0  0  0  0  0  0
  2  1  1  0
  3  2  2  0
  4  2  1  0
  5  4  1  0
  6  5  1  0
  6  7  1  0
  8  7  1  0
  8  9  1  6
 10  8  1  0
 11 10  2  0
 12 13  1  0
 14 13  1  6
 14 15  1  0
 15 10  1  0
 16 14  1  0
 16 23  1  0
 17 16  2  0
 19 18  1  0
 20 19  1  0
 22 21  1  1
 21 20  1  0
 22 23  1  0
 22 24  1  0
 24 25  1  0
 26 24  2  0
M  END
$$$$
