RSM.pdb
     RDKit          3D

 26 25  0  0  1  0  0  0  0  0999 V2000
   26.8219  -23.2607  -16.1170 N   0  0  0  0  0  0  0  0  0  0  0  0
   26.5991  -22.4428  -17.2788 C   0  0  0  0  0  0  0  0  0  0  0  0
   27.5701  -22.1508  -18.0773 N   0  0  0  0  0  0  0  0  0  0  0  0
   25.2979  -21.9414  -17.5671 N   0  0  0  0  0  0  0  0  0  0  0  0
   24.2020  -22.2907  -16.7213 C   0  0  0  0  0  0  0  0  0  0  0  0
   23.4179  -21.0511  -16.3559 C   0  0  0  0  0  0  0  0  0  0  0  0
   23.5547  -20.6660  -14.9223 C   0  0  0  0  0  0  0  0  0  0  0  0
   23.1461  -21.7680  -13.9715 C   0  0  2  0  0  0  0  0  0  0  0  0
   22.4424  -22.8297  -14.6215 N   0  0  0  0  0  0  0  0  0  0  0  0
   22.2743  -21.1973  -12.8825 C   0  0  0  0  0  0  0  0  0  0  0  0
   22.4703  -20.0713  -12.3972 O   0  0  0  0  0  0  0  0  0  0  0  0
   27.4687  -21.6013  -18.9410 O   0  0  0  0  0  0  0  0  0  0  0  0
   18.5361  -20.8317  -12.9534 C   0  0  0  0  0  0  0  0  0  0  0  0
   19.4952  -20.3154  -12.1017 C   0  0  1  0  0  0  0  0  0  0  0  0
   20.2774  -21.4354  -11.4046 N   0  0  0  0  0  0  0  0  0  0  0  0
   21.1871  -21.9633  -12.3843 C   0  0  0  0  0  0  0  0  0  0  0  0
   19.3561  -22.5052  -10.9841 O   0  0  0  0  0  0  0  0  0  0  0  0
   19.2446  -23.5697  -11.6482 C   0  0  0  0  0  0  0  0  0  0  0  0
   14.8882  -27.6042  -11.1797 S   0  0  0  0  0  0  0  0  0  0  0  0
   16.1239  -26.3542  -11.6647 C   0  0  0  0  0  0  0  0  0  0  0  0
   16.4917  -25.3663  -10.1726 C   0  0  0  0  0  0  0  0  0  0  0  0
   17.3655  -24.2003  -10.5478 C   0  0  1  0  0  0  0  0  0  0  0  0
   17.7609  -23.3892   -9.3208 N   0  0  0  0  0  0  0  0  0  0  0  0
   18.5951  -22.3140   -9.8157 C   0  0  0  0  0  0  0  0  0  0  0  0
   18.5439  -24.1512   -8.3408 O   0  0  0  0  0  0  0  0  0  0  0  0
   17.9667  -24.9909   -7.4055 O   0  0  0  0  0  0  0  0  0  0  0  0
  2  1  1  0
  3  2  2  0
  4  2  1  0
  5  4  1  0
  6  5  1  0
  6  7  1  0
  8  7  1  0
  8  9  1  6
 10  8  1  0
 11 10  2  0
 12 13  1  0
 14 13  1  1
 14 15  1  0
 15 10  1  0
 16 14  1  0
 16 23  1  0
 17 16  2  0
 19 18  1  0
 20 19  1  0
 22 21  1  6
 21 20  1  0
 22 23  1  0
 22 24  1  0
 24 25  1  0
 26 24  2  0
M  END
$$$$
