RSM.pdb
     RDKit          3D

 26 25  0  0  1  0  0  0  0  0999 V2000
   22.9138  -30.4079   -9.5125 N   0  0  0  0  0  0  0  0  0  0  0  0
   22.1452  -30.9041  -10.6222 C   0  0  0  0  0  0  0  0  0  0  0  0
   22.3002  -32.1138  -11.0448 N   0  0  0  0  0  0  0  0  0  0  0  0
   21.1970  -30.0649  -11.2734 N   0  0  0  0  0  0  0  0  0  0  0  0
   20.9021  -28.7775  -10.7311 C   0  0  0  0  0  0  0  0  0  0  0  0
   19.4068  -28.6096  -10.5869 C   0  0  0  0  0  0  0  0  0  0  0  0
   19.0135  -27.8213   -9.3842 C   0  0  0  0  0  0  0  0  0  0  0  0
   18.7358  -26.3679   -9.6937 C   0  0  2  0  0  0  0  0  0  0  0  0
   19.8164  -25.7296  -10.3790 N   0  0  0  0  0  0  0  0  0  0  0  0
   18.4602  -25.6231   -8.4127 C   0  0  0  0  0  0  0  0  0  0  0  0
   19.3570  -25.3465   -7.5997 O   0  0  0  0  0  0  0  0  0  0  0  0
   21.7973  -32.5200  -11.8449 O   0  0  0  0  0  0  0  0  0  0  0  0
   15.0042  -23.3327   -5.8810 C   0  0  0  0  0  0  0  0  0  0  0  0
   15.4144  -23.9742   -7.0351 C   0  0  2  0  0  0  0  0  0  0  0  0
   16.7931  -24.6203   -6.8494 N   0  0  0  0  0  0  0  0  0  0  0  0
   17.1328  -25.2175   -8.1120 C   0  0  0  0  0  0  0  0  0  0  0  0
   16.7187  -25.6777   -5.8264 O   0  0  0  0  0  0  0  0  0  0  0  0
   17.0491  -26.8647   -6.0886 C   0  0  0  0  0  0  0  0  0  0  0  0
   20.2686  -28.7794   -0.5818 S   0  0  0  0  0  0  0  0  0  0  0  0
   20.0074  -27.5977   -1.9457 C   0  0  0  0  0  0  0  0  0  0  0  0
   18.2080  -27.3004   -2.0517 C   0  0  0  0  0  0  0  0  0  0  0  0
   17.9049  -26.5050   -3.2924 C   0  0  1  0  0  0  0  0  0  0  0  0
   16.4067  -26.2836   -3.4540 N   0  0  0  0  0  0  0  0  0  0  0  0
   16.2671  -25.3342   -4.5385 C   0  0  0  0  0  0  0  0  0  0  0  0
   15.7670  -25.7063   -2.2658 O   0  0  0  0  0  0  0  0  0  0  0  0
   15.2874  -26.4750   -1.2209 O   0  0  0  0  0  0  0  0  0  0  0  0
  2  1  1  0
  3  2  2  0
  4  2  1  0
  5  4  1  0
  6  5  1  0
  6  7  1  0
  8  7  1  0
  8  9  1  1
 10  8  1  0
 11 10  2  0
 12 13  1  0
 14 13  1  6
 14 15  1  0
 15 10  1  0
 16 14  1  0
 16 23  1  0
 17 16  2  0
 19 18  1  0
 20 19  1  0
 22 21  1  6
 21 20  1  0
 22 23  1  0
 22 24  1  0
 24 25  1  0
 26 24  2  0
M  END
$$$$
