RSM.pdb
     RDKit          3D

 26 25  0  0  1  0  0  0  0  0999 V2000
   17.3510  -25.5322   -3.7691 N   0  0  0  0  0  0  0  0  0  0  0  0
   16.2220  -25.7750   -4.6264 C   0  0  0  0  0  0  0  0  0  0  0  0
   16.3042  -26.6113   -5.6061 N   0  0  0  0  0  0  0  0  0  0  0  0
   14.9911  -25.0940   -4.4057 N   0  0  0  0  0  0  0  0  0  0  0  0
   14.9410  -24.0047   -3.4841 C   0  0  0  0  0  0  0  0  0  0  0  0
   14.3108  -24.4565   -2.1865 C   0  0  0  0  0  0  0  0  0  0  0  0
   14.2742  -23.3912   -1.1444 C   0  0  0  0  0  0  0  0  0  0  0  0
   12.9656  -22.6348   -1.1164 C   0  0  2  0  0  0  0  0  0  0  0  0
   12.6811  -21.9713   -2.3508 N   0  0  0  0  0  0  0  0  0  0  0  0
   12.9963  -21.6143   -0.0077 C   0  0  0  0  0  0  0  0  0  0  0  0
   13.2149  -20.4106   -0.2195 O   0  0  0  0  0  0  0  0  0  0  0  0
   15.5501  -26.7927   -6.2817 O   0  0  0  0  0  0  0  0  0  0  0  0
   11.4215  -20.8699    4.4773 C   0  0  0  0  0  0  0  0  0  0  0  0
   11.6636  -21.7204    3.4145 C   0  0  2  0  0  0  0  0  0  0  0  0
   12.6229  -21.0824    2.4019 N   0  0  0  0  0  0  0  0  0  0  0  0
   12.7690  -22.0301    1.3311 C   0  0  0  0  0  0  0  0  0  0  0  0
   13.9388  -20.8621    3.0264 O   0  0  0  0  0  0  0  0  0  0  0  0
   14.7881  -21.7890    3.1051 C   0  0  0  0  0  0  0  0  0  0  0  0
   19.2264  -19.9639    0.3320 S   0  0  0  0  0  0  0  0  0  0  0  0
   18.3246  -18.7140    1.3062 C   0  0  0  0  0  0  0  0  0  0  0  0
   17.2429  -19.6238    2.4637 C   0  0  0  0  0  0  0  0  0  0  0  0
   16.3823  -18.6463    3.2172 C   0  0  2  0  0  0  0  0  0  0  0  0
   15.4884  -19.3591    4.2234 N   0  0  0  0  0  0  0  0  0  0  0  0
   14.2324  -19.5845    3.5388 C   0  0  0  0  0  0  0  0  0  0  0  0
   15.2089  -18.5653    5.4259 O   0  0  0  0  0  0  0  0  0  0  0  0
   16.1070  -18.4395    6.4702 O   0  0  0  0  0  0  0  0  0  0  0  0
  2  1  1  0
  3  2  2  0
  4  2  1  0
  5  4  1  0
  6  5  1  0
  6  7  1  0
  8  7  1  0
  8  9  1  6
 10  8  1  0
 11 10  2  0
 12 13  1  0
 14 13  1  6
 14 15  1  0
 15 10  1  0
 16 14  1  0
 16 23  1  0
 17 16  2  0
 19 18  1  0
 20 19  1  0
 22 21  1  6
 21 20  1  0
 22 23  1  0
 22 24  1  0
 24 25  1  0
 26 24  2  0
M  END
$$$$
