RSM.pdb
     RDKit          3D

 26 25  0  0  1  0  0  0  0  0999 V2000
   19.1594  -25.2801   -8.1992 N   0  0  0  0  0  0  0  0  0  0  0  0
   18.3282  -24.1437   -7.9056 C   0  0  0  0  0  0  0  0  0  0  0  0
   17.2018  -24.2899   -7.2924 N   0  0  0  0  0  0  0  0  0  0  0  0
   18.7377  -22.8346   -8.2879 N   0  0  0  0  0  0  0  0  0  0  0  0
   18.8605  -22.5082   -9.6723 C   0  0  0  0  0  0  0  0  0  0  0  0
   19.8039  -23.4769  -10.3481 C   0  0  0  0  0  0  0  0  0  0  0  0
   20.5996  -22.8584  -11.4466 C   0  0  0  0  0  0  0  0  0  0  0  0
   20.5108  -21.3495  -11.4650 C   0  0  2  0  0  0  0  0  0  0  0  0
   19.5230  -20.8623  -12.3771 N   0  0  0  0  0  0  0  0  0  0  0  0
   21.8509  -20.7697  -11.8389 C   0  0  0  0  0  0  0  0  0  0  0  0
   22.0443  -20.1873  -12.9183 O   0  0  0  0  0  0  0  0  0  0  0  0
   16.5576  -23.5204   -7.0666 O   0  0  0  0  0  0  0  0  0  0  0  0
   24.9039  -21.7304   -9.3177 C   0  0  0  0  0  0  0  0  0  0  0  0
   25.1186  -20.5682  -10.0353 C   0  0  1  0  0  0  0  0  0  0  0  0
   24.2822  -20.5485  -11.3208 N   0  0  0  0  0  0  0  0  0  0  0  0
   22.9396  -20.8865  -10.9344 C   0  0  0  0  0  0  0  0  0  0  0  0
   24.7795  -21.5691  -12.2595 O   0  0  0  0  0  0  0  0  0  0  0  0
   24.4012  -22.7681  -12.1815 C   0  0  0  0  0  0  0  0  0  0  0  0
   24.9723  -26.0976  -17.0479 S   0  0  0  0  0  0  0  0  0  0  0  0
   24.7381  -25.0335  -15.5858 C   0  0  0  0  0  0  0  0  0  0  0  0
   24.7937  -23.3050  -16.1743 C   0  0  0  0  0  0  0  0  0  0  0  0
   24.6383  -22.3728  -15.0035 C   0  0  2  0  0  0  0  0  0  0  0  0
   25.9831  -22.0718  -14.3550 N   0  0  0  0  0  0  0  0  0  0  0  0
   25.6941  -21.1762  -13.2544 C   0  0  0  0  0  0  0  0  0  0  0  0
   26.9279  -21.3936  -15.2504 O   0  0  0  0  0  0  0  0  0  0  0  0
   27.9911  -22.0414  -15.8528 O   0  0  0  0  0  0  0  0  0  0  0  0
  2  1  1  0
  3  2  2  0
  4  2  1  0
  5  4  1  0
  6  5  1  0
  6  7  1  0
  8  7  1  0
  8  9  1  6
 10  8  1  0
 11 10  2  0
 12 13  1  0
 14 13  1  1
 14 15  1  0
 15 10  1  0
 16 14  1  0
 16 23  1  0
 17 16  2  0
 19 18  1  0
 20 19  1  0
 22 21  1  1
 21 20  1  0
 22 23  1  0
 22 24  1  0
 24 25  1  0
 26 24  2  0
M  END
$$$$
