RSM.pdb
     RDKit          3D

 26 25  0  0  1  0  0  0  0  0999 V2000
   19.9244  -22.8064   -8.1492 N   0  0  0  0  0  0  0  0  0  0  0  0
   19.5373  -22.4797   -9.4953 C   0  0  0  0  0  0  0  0  0  0  0  0
   18.4863  -23.0075  -10.0271 N   0  0  0  0  0  0  0  0  0  0  0  0
   20.3108  -21.5645  -10.2645 N   0  0  0  0  0  0  0  0  0  0  0  0
   21.5820  -21.9673  -10.7746 C   0  0  0  0  0  0  0  0  0  0  0  0
   22.6869  -21.3736   -9.9310 C   0  0  0  0  0  0  0  0  0  0  0  0
   23.6619  -20.5652  -10.7173 C   0  0  0  0  0  0  0  0  0  0  0  0
   25.0708  -21.1091  -10.6522 C   0  0  2  0  0  0  0  0  0  0  0  0
   25.5967  -21.1315   -9.3226 N   0  0  0  0  0  0  0  0  0  0  0  0
   25.9748  -20.2739  -11.5222 C   0  0  0  0  0  0  0  0  0  0  0  0
   26.4080  -19.1680  -11.1603 O   0  0  0  0  0  0  0  0  0  0  0  0
   18.1818  -22.8484  -10.9967 O   0  0  0  0  0  0  0  0  0  0  0  0
   27.0351  -21.7593  -15.3071 C   0  0  0  0  0  0  0  0  0  0  0  0
   27.9046  -20.9539  -14.5950 C   0  0  1  0  0  0  0  0  0  0  0  0
   27.1409  -19.9637  -13.7069 N   0  0  0  0  0  0  0  0  0  0  0  0
   26.3523  -20.7563  -12.8035 C   0  0  0  0  0  0  0  0  0  0  0  0
   26.2388  -19.1415  -14.5317 O   0  0  0  0  0  0  0  0  0  0  0  0
   25.0343  -19.4666  -14.7053 C   0  0  0  0  0  0  0  0  0  0  0  0
   25.3400  -12.5479  -15.1565 S   0  0  0  0  0  0  0  0  0  0  0  0
   26.2598  -13.1370  -16.6165 C   0  0  0  0  0  0  0  0  0  0  0  0
   25.7452  -14.8661  -16.9045 C   0  0  0  0  0  0  0  0  0  0  0  0
   26.4118  -15.7609  -15.8951 C   0  0  1  0  0  0  0  0  0  0  0  0
   25.9141  -17.1954  -16.0149 N   0  0  0  0  0  0  0  0  0  0  0  0
   26.7526  -17.9749  -15.1282 C   0  0  0  0  0  0  0  0  0  0  0  0
   26.0485  -17.7524  -17.3661 O   0  0  0  0  0  0  0  0  0  0  0  0
   27.2321  -18.2818  -17.8475 O   0  0  0  0  0  0  0  0  0  0  0  0
  2  1  1  0
  3  2  2  0
  4  2  1  0
  5  4  1  0
  6  5  1  0
  6  7  1  0
  8  7  1  0
  8  9  1  1
 10  8  1  0
 11 10  2  0
 12 13  1  0
 14 13  1  1
 14 15  1  0
 15 10  1  0
 16 14  1  0
 16 23  1  0
 17 16  2  0
 19 18  1  0
 20 19  1  0
 22 21  1  1
 21 20  1  0
 22 23  1  0
 22 24  1  0
 24 25  1  0
 26 24  2  0
M  END
$$$$
