RSM.pdb
     RDKit          3D

 26 25  0  0  1  0  0  0  0  0999 V2000
   11.0277   -7.9101   -6.3871 N   0  0  0  0  0  0  0  0  0  0  0  0
   12.2628   -7.1831   -6.2665 C   0  0  0  0  0  0  0  0  0  0  0  0
   12.3085   -6.0584   -5.6350 N   0  0  0  0  0  0  0  0  0  0  0  0
   13.4590   -7.6961   -6.8440 N   0  0  0  0  0  0  0  0  0  0  0  0
   13.3822   -8.7101   -7.8462 C   0  0  0  0  0  0  0  0  0  0  0  0
   13.7758   -8.1380   -9.1888 C   0  0  0  0  0  0  0  0  0  0  0  0
   15.0663   -8.6764   -9.7057 C   0  0  0  0  0  0  0  0  0  0  0  0
   16.0733   -7.5952  -10.0256 C   0  0  2  0  0  0  0  0  0  0  0  0
   15.4672   -6.3183  -10.2423 N   0  0  0  0  0  0  0  0  0  0  0  0
   16.8547   -7.9814  -11.2552 C   0  0  0  0  0  0  0  0  0  0  0  0
   17.5755   -8.9917  -11.2934 O   0  0  0  0  0  0  0  0  0  0  0  0
   13.1473   -5.4683   -5.5567 O   0  0  0  0  0  0  0  0  0  0  0  0
   17.0838   -5.2099  -14.2583 C   0  0  0  0  0  0  0  0  0  0  0  0
   17.0056   -6.5196  -14.6943 C   0  0  1  0  0  0  0  0  0  0  0  0
   17.4991   -7.4926  -13.6162 N   0  0  0  0  0  0  0  0  0  0  0  0
   16.7731   -7.1704  -12.4182 C   0  0  0  0  0  0  0  0  0  0  0  0
   18.9371   -7.2853  -13.3726 O   0  0  0  0  0  0  0  0  0  0  0  0
   19.3497   -6.7608  -12.3043 C   0  0  0  0  0  0  0  0  0  0  0  0
   25.8306  -10.4317  -14.8291 S   0  0  0  0  0  0  0  0  0  0  0  0
   24.0116  -10.5507  -14.8728 C   0  0  0  0  0  0  0  0  0  0  0  0
   23.3620   -8.9121  -14.3926 C   0  0  0  0  0  0  0  0  0  0  0  0
   21.8580   -8.9407  -14.4271 C   0  0  1  0  0  0  0  0  0  0  0  0
   21.2724   -7.5687  -14.1201 N   0  0  0  0  0  0  0  0  0  0  0  0
   19.8502   -7.6875  -14.3652 C   0  0  0  0  0  0  0  0  0  0  0  0
   21.7904   -6.5023  -14.9854 O   0  0  0  0  0  0  0  0  0  0  0  0
   22.8817   -5.7226  -14.6478 O   0  0  0  0  0  0  0  0  0  0  0  0
  2  1  1  0
  3  2  2  0
  4  2  1  0
  5  4  1  0
  6  5  1  0
  6  7  1  0
  8  7  1  0
  8  9  1  6
 10  8  1  0
 11 10  2  0
 12 13  1  0
 14 13  1  6
 14 15  1  0
 15 10  1  0
 16 14  1  0
 16 23  1  0
 17 16  2  0
 19 18  1  0
 20 19  1  0
 22 21  1  1
 21 20  1  0
 22 23  1  0
 22 24  1  0
 24 25  1  0
 26 24  2  0
M  END
$$$$
