RSM.pdb
     RDKit          3D

 26 25  0  0  1  0  0  0  0  0999 V2000
   18.0395  -21.2289  -13.3514 N   0  0  0  0  0  0  0  0  0  0  0  0
   18.7088  -21.4663  -12.1007 C   0  0  0  0  0  0  0  0  0  0  0  0
   18.0431  -21.8121  -11.0504 N   0  0  0  0  0  0  0  0  0  0  0  0
   20.1222  -21.3236  -12.0025 N   0  0  0  0  0  0  0  0  0  0  0  0
   20.8688  -20.8815  -13.1363 C   0  0  0  0  0  0  0  0  0  0  0  0
   21.9031  -21.9192  -13.5082 C   0  0  0  0  0  0  0  0  0  0  0  0
   21.4796  -22.7989  -14.6348 C   0  0  0  0  0  0  0  0  0  0  0  0
   22.5117  -23.8450  -14.9895 C   0  0  2  0  0  0  0  0  0  0  0  0
   22.9226  -24.6242  -13.8630 N   0  0  0  0  0  0  0  0  0  0  0  0
   23.7216  -23.1766  -15.5902 C   0  0  0  0  0  0  0  0  0  0  0  0
   24.7921  -23.0618  -14.9716 O   0  0  0  0  0  0  0  0  0  0  0  0
   18.4622  -21.9911  -10.1282 O   0  0  0  0  0  0  0  0  0  0  0  0
   23.5463  -20.4210  -18.7004 C   0  0  0  0  0  0  0  0  0  0  0  0
   24.3127  -21.5526  -18.9097 C   0  0  1  0  0  0  0  0  0  0  0  0
   24.8094  -22.1385  -17.5821 N   0  0  0  0  0  0  0  0  0  0  0  0
   23.6491  -22.6550  -16.9091 C   0  0  0  0  0  0  0  0  0  0  0  0
   25.4062  -21.0751  -16.7556 O   0  0  0  0  0  0  0  0  0  0  0  0
   24.7253  -20.4572  -15.8947 C   0  0  0  0  0  0  0  0  0  0  0  0
   30.3068  -20.2268  -11.4031 S   0  0  0  0  0  0  0  0  0  0  0  0
   29.4323  -21.2288  -12.6505 C   0  0  0  0  0  0  0  0  0  0  0  0
   28.8202  -20.0719  -13.9250 C   0  0  0  0  0  0  0  0  0  0  0  0
   27.9414  -20.8150  -14.8942 C   0  0  1  0  0  0  0  0  0  0  0  0
   27.4392  -19.8964  -16.0004 N   0  0  0  0  0  0  0  0  0  0  0  0
   26.7641  -20.7589  -16.9477 C   0  0  0  0  0  0  0  0  0  0  0  0
   28.5133  -19.1970  -16.7155 O   0  0  0  0  0  0  0  0  0  0  0  0
   28.9957  -17.9606  -16.3261 O   0  0  0  0  0  0  0  0  0  0  0  0
  2  1  1  0
  3  2  2  0
  4  2  1  0
  5  4  1  0
  6  5  1  0
  6  7  1  0
  8  7  1  0
  8  9  1  1
 10  8  1  0
 11 10  2  0
 12 13  1  0
 14 13  1  6
 14 15  1  0
 15 10  1  0
 16 14  1  0
 16 23  1  0
 17 16  2  0
 19 18  1  0
 20 19  1  0
 22 21  1  1
 21 20  1  0
 22 23  1  0
 22 24  1  0
 24 25  1  0
 26 24  2  0
M  END
$$$$
