RSM.pdb
     RDKit          3D

 26 25  0  0  1  0  0  0  0  0999 V2000
   31.8325  -29.2886  -17.2543 N   0  0  0  0  0  0  0  0  0  0  0  0
   31.5479  -30.0613  -18.4335 C   0  0  0  0  0  0  0  0  0  0  0  0
   32.4987  -30.4442  -19.2178 N   0  0  0  0  0  0  0  0  0  0  0  0
   30.2071  -30.4177  -18.7541 N   0  0  0  0  0  0  0  0  0  0  0  0
   29.1464  -30.0437  -17.8745 C   0  0  0  0  0  0  0  0  0  0  0  0
   28.2795  -28.9935  -18.5307 C   0  0  0  0  0  0  0  0  0  0  0  0
   27.1952  -28.4833  -17.6438 C   0  0  0  0  0  0  0  0  0  0  0  0
   27.0811  -26.9759  -17.6551 C   0  0  2  0  0  0  0  0  0  0  0  0
   28.0472  -26.3395  -16.8145 N   0  0  0  0  0  0  0  0  0  0  0  0
   25.7000  -26.5712  -17.2073 C   0  0  0  0  0  0  0  0  0  0  0  0
   25.4739  -26.1311  -16.0685 O   0  0  0  0  0  0  0  0  0  0  0  0
   32.3571  -30.9658  -20.0930 O   0  0  0  0  0  0  0  0  0  0  0  0
   22.3958  -27.3554  -19.6955 C   0  0  0  0  0  0  0  0  0  0  0  0
   22.5214  -26.1175  -19.0925 C   0  0  1  0  0  0  0  0  0  0  0  0
   23.2944  -26.2207  -17.7718 N   0  0  0  0  0  0  0  0  0  0  0  0
   24.6096  -26.6922  -18.1091 C   0  0  0  0  0  0  0  0  0  0  0  0
   22.6475  -27.2046  -16.8866 O   0  0  0  0  0  0  0  0  0  0  0  0
   23.2522  -28.2448  -16.5137 C   0  0  0  0  0  0  0  0  0  0  0  0
   21.2321  -29.2222  -10.2590 S   0  0  0  0  0  0  0  0  0  0  0  0
   21.9500  -28.1678  -11.5619 C   0  0  0  0  0  0  0  0  0  0  0  0
   20.9065  -28.3763  -13.0469 C   0  0  0  0  0  0  0  0  0  0  0  0
   21.5258  -27.6359  -14.2011 C   0  0  1  0  0  0  0  0  0  0  0  0
   20.7193  -27.8304  -15.4784 N   0  0  0  0  0  0  0  0  0  0  0  0
   21.3286  -26.9589  -16.4614 C   0  0  0  0  0  0  0  0  0  0  0  0
   19.3095  -27.4437  -15.3471 O   0  0  0  0  0  0  0  0  0  0  0  0
   18.3653  -28.2409  -14.7259 O   0  0  0  0  0  0  0  0  0  0  0  0
  2  1  1  0
  3  2  2  0
  4  2  1  0
  5  4  1  0
  6  5  1  0
  6  7  1  0
  8  7  1  0
  8  9  1  1
 10  8  1  0
 11 10  2  0
 12 13  1  0
 14 13  1  6
 14 15  1  0
 15 10  1  0
 16 14  1  0
 16 23  1  0
 17 16  2  0
 19 18  1  0
 20 19  1  0
 22 21  1  6
 21 20  1  0
 22 23  1  0
 22 24  1  0
 24 25  1  0
 26 24  2  0
M  END
$$$$
