RSM.pdb
     RDKit          3D

 26 25  0  0  1  0  0  0  0  0999 V2000
   26.2359  -25.5529  -15.6173 N   0  0  0  0  0  0  0  0  0  0  0  0
   25.3777  -24.3991  -15.6421 C   0  0  0  0  0  0  0  0  0  0  0  0
   25.6518  -23.3565  -14.9323 N   0  0  0  0  0  0  0  0  0  0  0  0
   24.2081  -24.3894  -16.4542 N   0  0  0  0  0  0  0  0  0  0  0  0
   23.8505  -25.5577  -17.1929 C   0  0  0  0  0  0  0  0  0  0  0  0
   23.1959  -26.5660  -16.2766 C   0  0  0  0  0  0  0  0  0  0  0  0
   21.8044  -26.1971  -15.8893 C   0  0  0  0  0  0  0  0  0  0  0  0
   21.1850  -27.1682  -14.9102 C   0  0  2  0  0  0  0  0  0  0  0  0
   20.9977  -28.4728  -15.4650 N   0  0  0  0  0  0  0  0  0  0  0  0
   19.8527  -26.6370  -14.4472 C   0  0  0  0  0  0  0  0  0  0  0  0
   18.8674  -26.5692  -15.1997 O   0  0  0  0  0  0  0  0  0  0  0  0
   25.0858  -22.4977  -14.9163 O   0  0  0  0  0  0  0  0  0  0  0  0
   19.6618  -24.7489  -10.7351 C   0  0  0  0  0  0  0  0  0  0  0  0
   18.5999  -25.5565  -11.0982 C   0  0  1  0  0  0  0  0  0  0  0  0
   18.4675  -25.6445  -12.6238 N   0  0  0  0  0  0  0  0  0  0  0  0
   19.7048  -26.1949  -13.1057 C   0  0  0  0  0  0  0  0  0  0  0  0
   18.2920  -24.2966  -13.1915 O   0  0  0  0  0  0  0  0  0  0  0  0
   19.1644  -23.7855  -13.9427 C   0  0  0  0  0  0  0  0  0  0  0  0
   18.0154  -21.6845  -17.9934 S   0  0  0  0  0  0  0  0  0  0  0  0
   16.3026  -21.4506  -17.4134 C   0  0  0  0  0  0  0  0  0  0  0  0
   16.3872  -21.1747  -15.6095 C   0  0  0  0  0  0  0  0  0  0  0  0
   16.8282  -22.4426  -14.9298 C   0  0  1  0  0  0  0  0  0  0  0  0
   16.9213  -22.2566  -13.4210 N   0  0  0  0  0  0  0  0  0  0  0  0
   17.1205  -23.5833  -12.8757 C   0  0  0  0  0  0  0  0  0  0  0  0
   15.7016  -21.7025  -12.8214 O   0  0  0  0  0  0  0  0  0  0  0  0
   14.7328  -22.4883  -12.2240 O   0  0  0  0  0  0  0  0  0  0  0  0
  2  1  1  0
  3  2  2  0
  4  2  1  0
  5  4  1  0
  6  5  1  0
  6  7  1  0
  8  7  1  0
  8  9  1  6
 10  8  1  0
 11 10  2  0
 12 13  1  0
 14 13  1  1
 14 15  1  0
 15 10  1  0
 16 14  1  0
 16 23  1  0
 17 16  2  0
 19 18  1  0
 20 19  1  0
 22 21  1  6
 21 20  1  0
 22 23  1  0
 22 24  1  0
 24 25  1  0
 26 24  2  0
M  END
$$$$
