IKI.pdb
     RDKit          3D

 26 25  0  0  1  0  0  0  0  0999 V2000
   23.1470  -28.2944  -17.2903 C   0  0  0  0  0  0  0  0  0  0  0  0
   24.3987  -27.5353  -17.6055 C   0  0  0  0  0  0  0  0  0  0  0  0
   24.7134  -26.5066  -16.5114 C   0  0  2  0  0  0  0  0  0  0  0  0
   23.5048  -25.6566  -16.3255 C   0  0  0  0  0  0  0  0  0  0  0  0
   25.9619  -25.7623  -16.9198 C   0  0  2  0  0  0  0  0  0  0  0  0
   27.0528  -26.7417  -16.7766 N   0  0  0  0  0  0  0  0  0  0  0  0
   26.2618  -24.5946  -16.0471 C   0  0  0  0  0  0  0  0  0  0  0  0
   26.6817  -24.8057  -14.8797 O   0  0  0  0  0  0  0  0  0  0  0  0
   26.0986  -23.2632  -16.4668 N   0  0  0  0  0  0  0  0  0  0  0  0
   26.2756  -22.0537  -15.7259 C   0  0  1  0  0  0  0  0  0  0  0  0
   26.1988  -20.7804  -16.5835 C   0  0  0  0  0  0  0  0  0  0  0  0
   26.4140  -19.5480  -15.7698 C   0  0  0  0  0  0  0  0  0  0  0  0
   26.4778  -18.3540  -16.6999 C   0  0  0  0  0  0  0  0  0  0  0  0
   26.7504  -17.0640  -15.9419 C   0  0  0  0  0  0  0  0  0  0  0  0
   26.7844  -15.9303  -16.8316 N   0  0  0  0  0  0  0  0  0  0  0  0
   25.4568  -21.8927  -14.5356 C   0  0  0  0  0  0  0  0  0  0  0  0
   24.2136  -22.0727  -14.6088 O   0  0  0  0  0  0  0  0  0  0  0  0
   25.8346  -20.5930   -8.3825 C   0  0  0  0  0  0  0  0  0  0  0  0
   25.1115  -21.0498   -9.5997 C   0  0  0  0  0  0  0  0  0  0  0  0
   25.8982  -21.1438  -10.8530 C   0  0  2  0  0  0  0  0  0  0  0  0
   27.0432  -20.1903  -10.9423 C   0  0  0  0  0  0  0  0  0  0  0  0
   25.0938  -21.3613  -12.0769 C   0  0  2  0  0  0  0  0  0  0  0  0
   25.9626  -21.5371  -13.2504 N   0  0  0  0  0  0  0  0  0  0  0  0
   24.0862  -20.3721  -12.4396 C   0  0  0  0  0  0  0  0  0  0  0  0
   22.7507  -20.3691  -12.0610 O   0  0  0  0  0  0  0  0  0  0  0  0
   24.3723  -19.3658  -13.1868 O   0  0  0  0  0  0  0  0  0  0  0  0
  2  1  1  0
  2  3  1  0
  3  4  1  6
  5  3  1  0
  5  6  1  1
  7  8  2  0
  7  5  1  0
  9  7  1  0
 10  9  1  0
 10 11  1  6
 12 13  1  0
 12 11  1  0
 13 14  1  0
 14 15  1  0
 16 23  1  0
 16 10  1  0
 17 16  2  0
 19 18  1  0
 19 20  1  0
 20 21  1  6
 20 22  1  0
 22 23  1  6
 22 24  1  0
 24 25  1  0
 26 24  2  0
M  END
$$$$
