IKI.pdb
     RDKit          3D

 26 25  0  0  1  0  0  0  0  0999 V2000
   34.2778  -22.1905  -10.7826 C   0  0  0  0  0  0  0  0  0  0  0  0
   33.0018  -22.8267  -11.2402 C   0  0  0  0  0  0  0  0  0  0  0  0
   31.8568  -21.8060  -11.2805 C   0  0  2  0  0  0  0  0  0  0  0  0
   31.6980  -21.2468   -9.9095 C   0  0  0  0  0  0  0  0  0  0  0  0
   30.6356  -22.5004  -11.8332 C   0  0  2  0  0  0  0  0  0  0  0  0
   30.9700  -22.7992  -13.2364 N   0  0  0  0  0  0  0  0  0  0  0  0
   29.4154  -21.6484  -11.8127 C   0  0  0  0  0  0  0  0  0  0  0  0
   28.9627  -21.2692  -10.7015 O   0  0  0  0  0  0  0  0  0  0  0  0
   28.7435  -21.2452  -12.9795 N   0  0  0  0  0  0  0  0  0  0  0  0
   27.5013  -20.5507  -13.1131 C   0  0  1  0  0  0  0  0  0  0  0  0
   26.9734  -20.4894  -14.5553 C   0  0  0  0  0  0  0  0  0  0  0  0
   25.6554  -19.7939  -14.6360 C   0  0  0  0  0  0  0  0  0  0  0  0
   25.7479  -18.6914  -15.6710 C   0  0  0  0  0  0  0  0  0  0  0  0
   24.4354  -17.9352  -15.8065 C   0  0  0  0  0  0  0  0  0  0  0  0
   24.5692  -16.8078  -16.6948 N   0  0  0  0  0  0  0  0  0  0  0  0
   26.4303  -20.9522  -12.2160 C   0  0  0  0  0  0  0  0  0  0  0  0
   26.0006  -22.1343  -12.2528 O   0  0  0  0  0  0  0  0  0  0  0  0
   27.0264  -19.6998   -7.2355 C   0  0  0  0  0  0  0  0  0  0  0  0
   26.5937  -20.2903   -8.5306 C   0  0  0  0  0  0  0  0  0  0  0  0
   25.1767  -20.0920   -8.9194 C   0  0  2  0  0  0  0  0  0  0  0  0
   24.1903  -20.3462   -7.8284 C   0  0  0  0  0  0  0  0  0  0  0  0
   24.8318  -20.5718  -10.2771 C   0  0  2  0  0  0  0  0  0  0  0  0
   25.8070  -20.0895  -11.2666 N   0  0  0  0  0  0  0  0  0  0  0  0
   23.5068  -20.2781  -10.8096 C   0  0  0  0  0  0  0  0  0  0  0  0
   22.3664  -21.0584  -10.6770 O   0  0  0  0  0  0  0  0  0  0  0  0
   23.2778  -19.2104  -11.4881 O   0  0  0  0  0  0  0  0  0  0  0  0
  2  1  1  0
  2  3  1  0
  3  4  1  1
  5  3  1  0
  5  6  1  6
  7  8  2  0
  7  5  1  0
  9  7  1  0
 10  9  1  0
 10 11  1  6
 12 13  1  0
 12 11  1  0
 13 14  1  0
 14 15  1  0
 16 23  1  0
 16 10  1  0
 17 16  2  0
 19 18  1  0
 19 20  1  0
 20 21  1  1
 20 22  1  0
 22 23  1  6
 22 24  1  0
 24 25  1  0
 26 24  2  0
M  END
$$$$
