IKI.pdb
     RDKit          3D

 26 25  0  0  1  0  0  0  0  0999 V2000
   22.6941  -13.0434  -21.8326 C   0  0  0  0  0  0  0  0  0  0  0  0
   22.7759  -12.9140  -20.3430 C   0  0  0  0  0  0  0  0  0  0  0  0
   21.9769  -11.7015  -19.8472 C   0  0  2  0  0  0  0  0  0  0  0  0
   22.5247  -10.4907  -20.5193 C   0  0  0  0  0  0  0  0  0  0  0  0
   22.0490  -11.6835  -18.3393 C   0  0  2  0  0  0  0  0  0  0  0  0
   21.5716  -13.0124  -17.9196 N   0  0  0  0  0  0  0  0  0  0  0  0
   21.1711  -10.6527  -17.7213 C   0  0  0  0  0  0  0  0  0  0  0  0
   21.4590   -9.4386  -17.8842 O   0  0  0  0  0  0  0  0  0  0  0  0
   20.0316  -10.9723  -16.9631 N   0  0  0  0  0  0  0  0  0  0  0  0
   19.0638  -10.1005  -16.3743 C   0  0  1  0  0  0  0  0  0  0  0  0
   17.8085  -10.8212  -15.8573 C   0  0  0  0  0  0  0  0  0  0  0  0
   16.7368   -9.8593  -15.4656 C   0  0  0  0  0  0  0  0  0  0  0  0
   15.5024  -10.6407  -15.0645 C   0  0  0  0  0  0  0  0  0  0  0  0
   14.3298   -9.7220  -14.7581 C   0  0  0  0  0  0  0  0  0  0  0  0
   13.2350  -10.4492  -14.1658 N   0  0  0  0  0  0  0  0  0  0  0  0
   19.5492   -9.1758  -15.3632 C   0  0  0  0  0  0  0  0  0  0  0  0
   20.0814   -9.6255  -14.3155 O   0  0  0  0  0  0  0  0  0  0  0  0
   22.9387   -4.3209  -14.5756 C   0  0  0  0  0  0  0  0  0  0  0  0
   21.8068   -5.1361  -14.0584 C   0  0  0  0  0  0  0  0  0  0  0  0
   21.1904   -6.1029  -14.9984 C   0  0  2  0  0  0  0  0  0  0  0  0
   21.0907   -5.6232  -16.4084 C   0  0  0  0  0  0  0  0  0  0  0  0
   20.0389   -6.8551  -14.4501 C   0  0  2  0  0  0  0  0  0  0  0  0
   19.4703   -7.7553  -15.4645 N   0  0  0  0  0  0  0  0  0  0  0  0
   18.9263   -6.1116  -13.8715 C   0  0  0  0  0  0  0  0  0  0  0  0
   17.6331   -6.0304  -14.3692 O   0  0  0  0  0  0  0  0  0  0  0  0
   19.0654   -5.4283  -12.7914 O   0  0  0  0  0  0  0  0  0  0  0  0
  2  1  1  0
  2  3  1  0
  3  4  1  6
  5  3  1  0
  5  6  1  1
  7  8  2  0
  7  5  1  0
  9  7  1  0
 10  9  1  0
 10 11  1  1
 12 13  1  0
 12 11  1  0
 13 14  1  0
 14 15  1  0
 16 23  1  0
 16 10  1  0
 17 16  2  0
 19 18  1  0
 19 20  1  0
 20 21  1  6
 20 22  1  0
 22 23  1  6
 22 24  1  0
 24 25  1  0
 26 24  2  0
M  END
$$$$
