IKI.pdb
     RDKit          3D

 26 25  0  0  1  0  0  0  0  0999 V2000
   26.8436  -13.7535  -15.9167 C   0  0  0  0  0  0  0  0  0  0  0  0
   25.9279  -14.7638  -16.5358 C   0  0  0  0  0  0  0  0  0  0  0  0
   25.7955  -16.0089  -15.6489 C   0  0  2  0  0  0  0  0  0  0  0  0
   27.1661  -16.5303  -15.3900 C   0  0  0  0  0  0  0  0  0  0  0  0
   24.8642  -16.9746  -16.3412 C   0  0  2  0  0  0  0  0  0  0  0  0
   23.5922  -16.2444  -16.4787 N   0  0  0  0  0  0  0  0  0  0  0  0
   24.6118  -18.2132  -15.5554 C   0  0  0  0  0  0  0  0  0  0  0  0
   23.9362  -18.1292  -14.4971 O   0  0  0  0  0  0  0  0  0  0  0  0
   25.0930  -19.4761  -15.9414 N   0  0  0  0  0  0  0  0  0  0  0  0
   25.1299  -20.6956  -15.1966 C   0  0  1  0  0  0  0  0  0  0  0  0
   25.6230  -21.9056  -16.0061 C   0  0  0  0  0  0  0  0  0  0  0  0
   25.6519  -23.1505  -15.1836 C   0  0  0  0  0  0  0  0  0  0  0  0
   24.2589  -23.7450  -15.1489 C   0  0  0  0  0  0  0  0  0  0  0  0
   24.2287  -25.0645  -14.3933 C   0  0  0  0  0  0  0  0  0  0  0  0
   22.8759  -25.5079  -14.1664 N   0  0  0  0  0  0  0  0  0  0  0  0
   25.8104  -20.6549  -13.9127 C   0  0  0  0  0  0  0  0  0  0  0  0
   27.0566  -20.4852  -13.8762 O   0  0  0  0  0  0  0  0  0  0  0  0
   26.1665  -17.8772   -9.6576 C   0  0  0  0  0  0  0  0  0  0  0  0
   26.3606  -18.9555  -10.6640 C   0  0  0  0  0  0  0  0  0  0  0  0
   25.7669  -20.2784  -10.3545 C   0  0  2  0  0  0  0  0  0  0  0  0
   26.0119  -20.7606   -8.9632 C   0  0  0  0  0  0  0  0  0  0  0  0
   25.8597  -21.2725  -11.4479 C   0  0  2  0  0  0  0  0  0  0  0  0
   25.1610  -20.7950  -12.6506 N   0  0  0  0  0  0  0  0  0  0  0  0
   25.3972  -22.6328  -11.2007 C   0  0  0  0  0  0  0  0  0  0  0  0
   24.1129  -23.1220  -11.3958 O   0  0  0  0  0  0  0  0  0  0  0  0
   26.1899  -23.5399  -10.7518 O   0  0  0  0  0  0  0  0  0  0  0  0
  2  1  1  0
  2  3  1  0
  3  4  1  6
  5  3  1  0
  5  6  1  1
  7  8  2  0
  7  5  1  0
  9  7  1  0
 10  9  1  0
 10 11  1  6
 12 13  1  0
 12 11  1  0
 13 14  1  0
 14 15  1  0
 16 23  1  0
 16 10  1  0
 17 16  2  0
 19 18  1  0
 19 20  1  0
 20 21  1  1
 20 22  1  0
 22 23  1  6
 22 24  1  0
 24 25  1  0
 26 24  2  0
M  END
$$$$
