IKI.pdb
     RDKit          3D

 26 25  0  0  1  0  0  0  0  0999 V2000
   16.4564  -15.8801  -19.4680 C   0  0  0  0  0  0  0  0  0  0  0  0
   16.6844  -15.2782  -18.1159 C   0  0  0  0  0  0  0  0  0  0  0  0
   18.1794  -15.0516  -17.8549 C   0  0  2  0  0  0  0  0  0  0  0  0
   18.8461  -16.3831  -17.8462 C   0  0  0  0  0  0  0  0  0  0  0  0
   18.3124  -14.2615  -16.5753 C   0  0  2  0  0  0  0  0  0  0  0  0
   16.9697  -14.2888  -15.9699 N   0  0  0  0  0  0  0  0  0  0  0  0
   18.6977  -12.8414  -16.7989 C   0  0  0  0  0  0  0  0  0  0  0  0
   19.8290  -12.5933  -17.2910 O   0  0  0  0  0  0  0  0  0  0  0  0
   17.8546  -11.7611  -16.4865 N   0  0  0  0  0  0  0  0  0  0  0  0
   18.1067  -10.3580  -16.5912 C   0  0  1  0  0  0  0  0  0  0  0  0
   16.8358   -9.5052  -16.7327 C   0  0  0  0  0  0  0  0  0  0  0  0
   15.8297  -10.1507  -17.6262 C   0  0  0  0  0  0  0  0  0  0  0  0
   14.5719   -9.3063  -17.6352 C   0  0  0  0  0  0  0  0  0  0  0  0
   13.5048   -9.8958  -18.5443 C   0  0  0  0  0  0  0  0  0  0  0  0
   12.3454   -9.0420  -18.6140 N   0  0  0  0  0  0  0  0  0  0  0  0
   18.9780   -9.7753  -15.5839 C   0  0  0  0  0  0  0  0  0  0  0  0
   18.7413   -9.9805  -14.3652 O   0  0  0  0  0  0  0  0  0  0  0  0
   23.4835  -11.2430  -14.3555 C   0  0  0  0  0  0  0  0  0  0  0  0
   22.1924  -10.5152  -14.4839 C   0  0  0  0  0  0  0  0  0  0  0  0
   22.2657   -9.0572  -14.7428 C   0  0  2  0  0  0  0  0  0  0  0  0
   23.3691   -8.3523  -14.0261 C   0  0  0  0  0  0  0  0  0  0  0  0
   20.9549   -8.3728  -14.8199 C   0  0  2  0  0  0  0  0  0  0  0  0
   20.1158   -8.9652  -15.8723 N   0  0  0  0  0  0  0  0  0  0  0  0
   20.9278   -6.9288  -15.0185 C   0  0  0  0  0  0  0  0  0  0  0  0
   20.4548   -6.2524  -16.1345 O   0  0  0  0  0  0  0  0  0  0  0  0
   21.3702   -6.1198  -14.1226 O   0  0  0  0  0  0  0  0  0  0  0  0
  2  1  1  0
  2  3  1  0
  3  4  1  1
  5  3  1  0
  5  6  1  6
  7  8  2  0
  7  5  1  0
  9  7  1  0
 10  9  1  0
 10 11  1  1
 12 13  1  0
 12 11  1  0
 13 14  1  0
 14 15  1  0
 16 23  1  0
 16 10  1  0
 17 16  2  0
 19 18  1  0
 19 20  1  0
 20 21  1  1
 20 22  1  0
 22 23  1  6
 22 24  1  0
 24 25  1  0
 26 24  2  0
M  END
$$$$
