IKI.pdb
     RDKit          3D

 26 25  0  0  1  0  0  0  0  0999 V2000
   25.5443  -20.4959   -8.1046 C   0  0  0  0  0  0  0  0  0  0  0  0
   25.7228  -21.3524   -9.3199 C   0  0  0  0  0  0  0  0  0  0  0  0
   25.3992  -20.5717  -10.6006 C   0  0  2  0  0  0  0  0  0  0  0  0
   23.9816  -20.1239  -10.5139 C   0  0  0  0  0  0  0  0  0  0  0  0
   25.7181  -21.4603  -11.7787 C   0  0  2  0  0  0  0  0  0  0  0  0
   27.1256  -21.8518  -11.5901 N   0  0  0  0  0  0  0  0  0  0  0  0
   25.5957  -20.7653  -13.0891 C   0  0  0  0  0  0  0  0  0  0  0  0
   26.3487  -19.7851  -13.3250 O   0  0  0  0  0  0  0  0  0  0  0  0
   24.6768  -21.1541  -14.0790 N   0  0  0  0  0  0  0  0  0  0  0  0
   24.4241  -20.5680  -15.3581 C   0  0  1  0  0  0  0  0  0  0  0  0
   23.8788  -21.5574  -16.4002 C   0  0  0  0  0  0  0  0  0  0  0  0
   23.6629  -20.9063  -17.7256 C   0  0  0  0  0  0  0  0  0  0  0  0
   24.6247  -21.5100  -18.7285 C   0  0  0  0  0  0  0  0  0  0  0  0
   24.4938  -20.8584  -20.0964 C   0  0  0  0  0  0  0  0  0  0  0  0
   25.4108  -21.4405  -21.0442 N   0  0  0  0  0  0  0  0  0  0  0  0
   23.6267  -19.3527  -15.3721 C   0  0  0  0  0  0  0  0  0  0  0  0
   22.6299  -19.2558  -14.6103 O   0  0  0  0  0  0  0  0  0  0  0  0
   24.2281  -13.4251  -14.9907 C   0  0  0  0  0  0  0  0  0  0  0  0
   23.3900  -14.5436  -15.5004 C   0  0  0  0  0  0  0  0  0  0  0  0
   24.0349  -15.8749  -15.6006 C   0  0  2  0  0  0  0  0  0  0  0  0
   25.4364  -15.8508  -16.1138 C   0  0  0  0  0  0  0  0  0  0  0  0
   23.1498  -16.9596  -16.0827 C   0  0  2  0  0  0  0  0  0  0  0  0
   23.8899  -18.2246  -16.2041 N   0  0  0  0  0  0  0  0  0  0  0  0
   22.4253  -16.7704  -17.3336 C   0  0  0  0  0  0  0  0  0  0  0  0
   22.9026  -17.0107  -18.6147 O   0  0  0  0  0  0  0  0  0  0  0  0
   21.2153  -16.3361  -17.3491 O   0  0  0  0  0  0  0  0  0  0  0  0
  2  1  1  0
  2  3  1  0
  3  4  1  1
  5  3  1  0
  5  6  1  1
  7  8  2  0
  7  5  1  0
  9  7  1  0
 10  9  1  0
 10 11  1  6
 12 13  1  0
 12 11  1  0
 13 14  1  0
 14 15  1  0
 16 23  1  0
 16 10  1  0
 17 16  2  0
 19 18  1  0
 19 20  1  0
 20 21  1  6
 20 22  1  0
 22 23  1  6
 22 24  1  0
 24 25  1  0
 26 24  2  0
M  END
$$$$
