IKI.pdb
     RDKit          3D

 26 25  0  0  1  0  0  0  0  0999 V2000
   18.7827  -27.3735  -10.9128 C   0  0  0  0  0  0  0  0  0  0  0  0
   18.4511  -26.0526  -10.2901 C   0  0  0  0  0  0  0  0  0  0  0  0
   18.5056  -26.1324   -8.7588 C   0  0  2  0  0  0  0  0  0  0  0  0
   17.5944  -27.2287   -8.3281 C   0  0  0  0  0  0  0  0  0  0  0  0
   18.1669  -24.7670   -8.2108 C   0  0  2  0  0  0  0  0  0  0  0  0
   19.2782  -23.8992   -8.6375 N   0  0  0  0  0  0  0  0  0  0  0  0
   18.0888  -24.7330   -6.7249 C   0  0  0  0  0  0  0  0  0  0  0  0
   19.1591  -24.6800   -6.0653 O   0  0  0  0  0  0  0  0  0  0  0  0
   16.8721  -24.7563   -6.0216 N   0  0  0  0  0  0  0  0  0  0  0  0
   16.6440  -24.7865   -4.6107 C   0  0  1  0  0  0  0  0  0  0  0  0
   15.3405  -24.0983   -4.1752 C   0  0  0  0  0  0  0  0  0  0  0  0
   15.2776  -23.9117   -2.6959 C   0  0  0  0  0  0  0  0  0  0  0  0
   13.9502  -23.2740   -2.3403 C   0  0  0  0  0  0  0  0  0  0  0  0
   13.8253  -23.0311   -0.8443 C   0  0  0  0  0  0  0  0  0  0  0  0
   12.5591  -22.4256   -0.5154 N   0  0  0  0  0  0  0  0  0  0  0  0
   16.7553  -26.0816   -3.9600 C   0  0  0  0  0  0  0  0  0  0  0  0
   16.2280  -27.0916   -4.4940 O   0  0  0  0  0  0  0  0  0  0  0  0
   21.1906  -27.4368   -1.0183 C   0  0  0  0  0  0  0  0  0  0  0  0
   19.9772  -27.4561   -1.8789 C   0  0  0  0  0  0  0  0  0  0  0  0
   18.6843  -27.7406   -1.2112 C   0  0  2  0  0  0  0  0  0  0  0  0
   18.7216  -28.8723   -0.2386 C   0  0  0  0  0  0  0  0  0  0  0  0
   17.4954  -27.6320   -2.0870 C   0  0  2  0  0  0  0  0  0  0  0  0
   17.4355  -26.3094   -2.7273 N   0  0  0  0  0  0  0  0  0  0  0  0
   16.1781  -27.8872   -1.5169 C   0  0  0  0  0  0  0  0  0  0  0  0
   15.4448  -29.0618   -1.6126 O   0  0  0  0  0  0  0  0  0  0  0  0
   15.5529  -26.9883   -0.8431 O   0  0  0  0  0  0  0  0  0  0  0  0
  2  1  1  0
  2  3  1  0
  3  4  1  1
  5  3  1  0
  5  6  1  1
  7  8  2  0
  7  5  1  0
  9  7  1  0
 10  9  1  0
 10 11  1  6
 12 13  1  0
 12 11  1  0
 13 14  1  0
 14 15  1  0
 16 23  1  0
 16 10  1  0
 17 16  2  0
 19 18  1  0
 19 20  1  0
 20 21  1  6
 20 22  1  0
 22 23  1  1
 22 24  1  0
 24 25  1  0
 26 24  2  0
M  END
$$$$
