IKI.pdb
     RDKit          3D

 26 25  0  0  1  0  0  0  0  0999 V2000
   19.2653  -16.5622  -15.7156 C   0  0  0  0  0  0  0  0  0  0  0  0
   19.8368  -17.8931  -16.0957 C   0  0  0  0  0  0  0  0  0  0  0  0
   20.4636  -18.5938  -14.8831 C   0  0  2  0  0  0  0  0  0  0  0  0
   21.3486  -17.6116  -14.1978 C   0  0  0  0  0  0  0  0  0  0  0  0
   21.1548  -19.8426  -15.3751 C   0  0  2  0  0  0  0  0  0  0  0  0
   20.0739  -20.6932  -15.9024 N   0  0  0  0  0  0  0  0  0  0  0  0
   21.8562  -20.5900  -14.2959 C   0  0  0  0  0  0  0  0  0  0  0  0
   21.2127  -20.8992  -13.2596 O   0  0  0  0  0  0  0  0  0  0  0  0
   23.2070  -20.9689  -14.3804 N   0  0  0  0  0  0  0  0  0  0  0  0
   24.0086  -21.6758  -13.4312 C   0  0  1  0  0  0  0  0  0  0  0  0
   24.8034  -22.8449  -14.0345 C   0  0  0  0  0  0  0  0  0  0  0  0
   23.9056  -23.9019  -14.5858 C   0  0  0  0  0  0  0  0  0  0  0  0
   24.7552  -25.0531  -15.0837 C   0  0  0  0  0  0  0  0  0  0  0  0
   23.9046  -26.1624  -15.6828 C   0  0  0  0  0  0  0  0  0  0  0  0
   24.7236  -27.2310  -16.1978 N   0  0  0  0  0  0  0  0  0  0  0  0
   24.8804  -20.8739  -12.5886 C   0  0  0  0  0  0  0  0  0  0  0  0
   25.3482  -19.7929  -13.0311 O   0  0  0  0  0  0  0  0  0  0  0  0
   26.6790  -19.4395   -6.8508 C   0  0  0  0  0  0  0  0  0  0  0  0
   26.9556  -19.5811   -8.3056 C   0  0  0  0  0  0  0  0  0  0  0  0
   25.9816  -20.3660   -9.1016 C   0  0  2  0  0  0  0  0  0  0  0  0
   25.4142  -21.5530   -8.3965 C   0  0  0  0  0  0  0  0  0  0  0  0
   26.3315  -20.5241  -10.5316 C   0  0  2  0  0  0  0  0  0  0  0  0
   25.2606  -21.2221  -11.2588 N   0  0  0  0  0  0  0  0  0  0  0  0
   27.5823  -21.1877  -10.8788 C   0  0  0  0  0  0  0  0  0  0  0  0
   28.8513  -20.6254  -10.8705 O   0  0  0  0  0  0  0  0  0  0  0  0
   27.6089  -22.4196  -11.2458 O   0  0  0  0  0  0  0  0  0  0  0  0
  2  1  1  0
  2  3  1  0
  3  4  1  6
  5  3  1  0
  5  6  1  1
  7  8  2  0
  7  5  1  0
  9  7  1  0
 10  9  1  0
 10 11  1  6
 12 13  1  0
 12 11  1  0
 13 14  1  0
 14 15  1  0
 16 23  1  0
 16 10  1  0
 17 16  2  0
 19 18  1  0
 19 20  1  0
 20 21  1  1
 20 22  1  0
 22 23  1  6
 22 24  1  0
 24 25  1  0
 26 24  2  0
M  END
$$$$
