IKI.pdb
     RDKit          3D

 26 25  0  0  1  0  0  0  0  0999 V2000
   22.4477  -17.6217  -20.7772 C   0  0  0  0  0  0  0  0  0  0  0  0
   22.8924  -17.1932  -19.4130 C   0  0  0  0  0  0  0  0  0  0  0  0
   23.3277  -18.3978  -18.5681 C   0  0  2  0  0  0  0  0  0  0  0  0
   22.1983  -19.3682  -18.5445 C   0  0  0  0  0  0  0  0  0  0  0  0
   23.7579  -17.8843  -17.2152 C   0  0  2  0  0  0  0  0  0  0  0  0
   24.8445  -16.9308  -17.4980 N   0  0  0  0  0  0  0  0  0  0  0  0
   24.2896  -18.9510  -16.3237 C   0  0  0  0  0  0  0  0  0  0  0  0
   23.5042  -19.8479  -15.9209 O   0  0  0  0  0  0  0  0  0  0  0  0
   25.6318  -19.0045  -15.9102 N   0  0  0  0  0  0  0  0  0  0  0  0
   26.2476  -19.8638  -14.9480 C   0  0  1  0  0  0  0  0  0  0  0  0
   27.7830  -19.8780  -15.0174 C   0  0  0  0  0  0  0  0  0  0  0  0
   28.3719  -20.8958  -14.0984 C   0  0  0  0  0  0  0  0  0  0  0  0
   29.2915  -20.1954  -13.1192 C   0  0  0  0  0  0  0  0  0  0  0  0
   29.9404  -21.1770  -12.1558 C   0  0  0  0  0  0  0  0  0  0  0  0
   30.7960  -20.4993  -11.2141 N   0  0  0  0  0  0  0  0  0  0  0  0
   25.8211  -19.7078  -13.5672 C   0  0  0  0  0  0  0  0  0  0  0  0
   25.9255  -18.5851  -13.0087 O   0  0  0  0  0  0  0  0  0  0  0  0
   21.1957  -19.6900  -10.1570 C   0  0  0  0  0  0  0  0  0  0  0  0
   22.6725  -19.8674  -10.1815 C   0  0  0  0  0  0  0  0  0  0  0  0
   23.2751  -20.3093  -11.4621 C   0  0  2  0  0  0  0  0  0  0  0  0
   22.4562  -21.2943  -12.2284 C   0  0  0  0  0  0  0  0  0  0  0  0
   24.7392  -20.5261  -11.4180 C   0  0  2  0  0  0  0  0  0  0  0  0
   25.2756  -20.7556  -12.7679 N   0  0  0  0  0  0  0  0  0  0  0  0
   25.2663  -21.5855  -10.5664 C   0  0  0  0  0  0  0  0  0  0  0  0
   25.4800  -21.5213   -9.1964 O   0  0  0  0  0  0  0  0  0  0  0  0
   25.5983  -22.7306  -11.0476 O   0  0  0  0  0  0  0  0  0  0  0  0
  2  1  1  0
  2  3  1  0
  3  4  1  1
  5  3  1  0
  5  6  1  6
  7  8  2  0
  7  5  1  0
  9  7  1  0
 10  9  1  0
 10 11  1  1
 12 13  1  0
 12 11  1  0
 13 14  1  0
 14 15  1  0
 16 23  1  0
 16 10  1  0
 17 16  2  0
 19 18  1  0
 19 20  1  0
 20 21  1  1
 20 22  1  0
 22 23  1  6
 22 24  1  0
 24 25  1  0
 26 24  2  0
M  END
$$$$
