IIT.pdb
     RDKit          3D

 24 23  0  0  1  0  0  0  0  0999 V2000
   29.1508  -17.8976  -16.0411 C   0  0  0  0  0  0  0  0  0  0  0  0
   28.3448  -19.0117  -16.6598 C   0  0  0  0  0  0  0  0  0  0  0  0
   27.2931  -19.5911  -15.7672 C   0  0  2  0  0  0  0  0  0  0  0  0
   26.1515  -18.6268  -15.5194 C   0  0  0  0  0  0  0  0  0  0  0  0
   27.7247  -20.3907  -14.6088 C   0  0  2  0  0  0  0  0  0  0  0  0
   28.5899  -21.4609  -15.1409 N   0  0  0  0  0  0  0  0  0  0  0  0
   26.7157  -20.9239  -13.7027 C   0  0  0  0  0  0  0  0  0  0  0  0
   26.0633  -21.9542  -14.0198 O   0  0  0  0  0  0  0  0  0  0  0  0
   27.3819  -20.4606   -8.3002 C   0  0  0  0  0  0  0  0  0  0  0  0
   26.9823  -21.0146   -9.6320 C   0  0  0  0  0  0  0  0  0  0  0  0
   25.6672  -20.4281  -10.1253 C   0  0  2  0  0  0  0  0  0  0  0  0
   24.5505  -20.7424   -9.1646 C   0  0  0  0  0  0  0  0  0  0  0  0
   25.3703  -20.9388  -11.5397 C   0  0  2  0  0  0  0  0  0  0  0  0
   26.3886  -20.3627  -12.4431 N   0  0  0  0  0  0  0  0  0  0  0  0
   24.0831  -20.3798  -11.9987 C   0  0  0  0  0  0  0  0  0  0  0  0
   24.1179  -19.2490  -12.6036 O   0  0  0  0  0  0  0  0  0  0  0  0
   23.0720  -19.8455  -14.4510 C   0  0  0  0  0  0  0  0  0  0  0  0
   21.7943  -20.5781  -14.0539 C   0  0  1  0  0  0  0  0  0  0  0  0
   21.9257  -21.9093  -14.4170 O   0  0  0  0  0  0  0  0  0  0  0  0
   21.6503  -20.4017  -12.5534 C   0  0  2  0  0  0  0  0  0  0  0  0
   22.8064  -20.9507  -11.8525 N   0  0  0  0  0  0  0  0  0  0  0  0
   20.4534  -21.1506  -12.1282 C   0  0  0  0  0  0  0  0  0  0  0  0
   19.2961  -20.7511  -12.4019 O   0  0  0  0  0  0  0  0  0  0  0  0
   20.5625  -22.3491  -11.3950 O   0  0  0  0  0  0  0  0  0  0  0  0
  1  2  1  0
  3  2  1  0
  3  4  1  1
  5  6  1  6
  5  3  1  0
  7  8  2  0
  7  5  1  0
 10  9  1  0
 11 12  1  1
 11 10  1  0
 13 14  1  6
 13 11  1  0
 14  7  1  0
 15 13  1  0
 16 15  2  0
 18 17  1  1
 18 19  1  0
 20 18  1  0
 20 21  1  1
 21 15  1  0
 22 20  1  0
 23 22  2  0
 24 22  1  0
M  END
$$$$
