IIT.pdb
     RDKit          3D

 24 23  0  0  1  0  0  0  0  0999 V2000
   17.2044  -12.7426  -21.2407 C   0  0  0  0  0  0  0  0  0  0  0  0
   18.3829  -13.0006  -20.3362 C   0  0  0  0  0  0  0  0  0  0  0  0
   18.6094  -11.9531  -19.2922 C   0  0  2  0  0  0  0  0  0  0  0  0
   18.4311  -10.5501  -19.8346 C   0  0  0  0  0  0  0  0  0  0  0  0
   19.7202  -12.1417  -18.3446 C   0  0  2  0  0  0  0  0  0  0  0  0
   19.5758  -13.5053  -17.8000 N   0  0  0  0  0  0  0  0  0  0  0  0
   19.9172  -11.1633  -17.2828 C   0  0  0  0  0  0  0  0  0  0  0  0
   19.0886  -11.0821  -16.3371 O   0  0  0  0  0  0  0  0  0  0  0  0
   22.3058  -10.9626  -13.7561 C   0  0  0  0  0  0  0  0  0  0  0  0
   22.9264  -10.7567  -15.1025 C   0  0  0  0  0  0  0  0  0  0  0  0
   22.6415   -9.3687  -15.6584 C   0  0  2  0  0  0  0  0  0  0  0  0
   22.9774   -8.3089  -14.6422 C   0  0  0  0  0  0  0  0  0  0  0  0
   21.1814   -9.2840  -16.1172 C   0  0  2  0  0  0  0  0  0  0  0  0
   21.0039  -10.2559  -17.2166 N   0  0  0  0  0  0  0  0  0  0  0  0
   20.9386   -7.9607  -16.7256 C   0  0  0  0  0  0  0  0  0  0  0  0
   21.8095   -7.5332  -17.5650 O   0  0  0  0  0  0  0  0  0  0  0  0
   17.9541   -6.5497  -18.6448 C   0  0  0  0  0  0  0  0  0  0  0  0
   18.3105   -5.5273  -17.5703 C   0  0  1  0  0  0  0  0  0  0  0  0
   17.4270   -5.6811  -16.5136 O   0  0  0  0  0  0  0  0  0  0  0  0
   19.7455   -5.8141  -17.1679 C   0  0  2  0  0  0  0  0  0  0  0  0
   19.8479   -7.1041  -16.4934 N   0  0  0  0  0  0  0  0  0  0  0  0
   20.1628   -4.7632  -16.2215 C   0  0  0  0  0  0  0  0  0  0  0  0
   20.3727   -5.0145  -15.0105 O   0  0  0  0  0  0  0  0  0  0  0  0
   20.3431   -3.4302  -16.6416 O   0  0  0  0  0  0  0  0  0  0  0  0
  1  2  1  0
  3  2  1  0
  3  4  1  6
  5  6  1  1
  5  3  1  0
  7  8  2  0
  7  5  1  0
 10  9  1  0
 11 12  1  1
 11 10  1  0
 13 14  1  6
 13 11  1  0
 14  7  1  0
 15 13  1  0
 16 15  2  0
 18 17  1  6
 18 19  1  0
 20 18  1  0
 20 21  1  1
 21 15  1  0
 22 20  1  0
 23 22  2  0
 24 22  1  0
M  END
$$$$
