IIT.pdb
     RDKit          3D

 24 23  0  0  1  0  0  0  0  0999 V2000
   24.7181  -19.7688  -16.0850 C   0  0  0  0  0  0  0  0  0  0  0  0
   25.7240  -19.8647  -14.9659 C   0  0  0  0  0  0  0  0  0  0  0  0
   25.1865  -20.4331  -13.6906 C   0  0  2  0  0  0  0  0  0  0  0  0
   23.7885  -19.9379  -13.3825 C   0  0  0  0  0  0  0  0  0  0  0  0
   26.0977  -20.5490  -12.5400 C   0  0  2  0  0  0  0  0  0  0  0  0
   27.2941  -21.2621  -13.0267 N   0  0  0  0  0  0  0  0  0  0  0  0
   25.5999  -21.1304  -11.3000 C   0  0  0  0  0  0  0  0  0  0  0  0
   25.4274  -22.3753  -11.2108 O   0  0  0  0  0  0  0  0  0  0  0  0
   27.5844  -19.2269   -6.8510 C   0  0  0  0  0  0  0  0  0  0  0  0
   26.9605  -20.1737   -7.8281 C   0  0  0  0  0  0  0  0  0  0  0  0
   25.4422  -20.1890   -7.7214 C   0  0  2  0  0  0  0  0  0  0  0  0
   25.0084  -20.7003   -6.3727 C   0  0  0  0  0  0  0  0  0  0  0  0
   24.8506  -21.0165   -8.8681 C   0  0  2  0  0  0  0  0  0  0  0  0
   25.2783  -20.3886  -10.1360 N   0  0  0  0  0  0  0  0  0  0  0  0
   23.3795  -20.8915   -8.8496 C   0  0  0  0  0  0  0  0  0  0  0  0
   22.8873  -19.7295   -9.0806 O   0  0  0  0  0  0  0  0  0  0  0  0
   20.9062  -21.2433  -10.9946 C   0  0  0  0  0  0  0  0  0  0  0  0
   20.3486  -22.1109   -9.8706 C   0  0  1  0  0  0  0  0  0  0  0  0
   20.6495  -23.4341  -10.1525 O   0  0  0  0  0  0  0  0  0  0  0  0
   21.0096  -21.6294   -8.5921 C   0  0  2  0  0  0  0  0  0  0  0  0
   22.4413  -21.9111   -8.6097 N   0  0  0  0  0  0  0  0  0  0  0  0
   20.4062  -22.3716   -7.4700 C   0  0  0  0  0  0  0  0  0  0  0  0
   21.0835  -23.1498   -6.7564 O   0  0  0  0  0  0  0  0  0  0  0  0
   19.0396  -22.2356   -7.1538 O   0  0  0  0  0  0  0  0  0  0  0  0
  1  2  1  0
  3  2  1  0
  3  4  1  1
  5  6  1  6
  5  3  1  0
  7  8  2  0
  7  5  1  0
 10  9  1  0
 11 12  1  1
 11 10  1  0
 13 14  1  6
 13 11  1  0
 14  7  1  0
 15 13  1  0
 16 15  2  0
 18 17  1  6
 18 19  1  0
 20 18  1  0
 20 21  1  6
 21 15  1  0
 22 20  1  0
 23 22  2  0
 24 22  1  0
M  END
$$$$
