IIT.pdb
     RDKit          3D

 24 23  0  0  1  0  0  0  0  0999 V2000
   20.5442  -21.2018   -9.3877 C   0  0  0  0  0  0  0  0  0  0  0  0
   22.0047  -21.3700   -9.0526 C   0  0  0  0  0  0  0  0  0  0  0  0
   22.9437  -20.6784   -9.9898 C   0  0  2  0  0  0  0  0  0  0  0  0
   22.4750  -20.7440  -11.4287 C   0  0  0  0  0  0  0  0  0  0  0  0
   24.3908  -20.8432   -9.7748 C   0  0  2  0  0  0  0  0  0  0  0  0
   24.6435  -20.5002   -8.3623 N   0  0  0  0  0  0  0  0  0  0  0  0
   25.3199  -20.1568  -10.6630 C   0  0  0  0  0  0  0  0  0  0  0  0
   25.5373  -18.9240  -10.5191 O   0  0  0  0  0  0  0  0  0  0  0  0
   30.1931  -21.5940  -11.1287 C   0  0  0  0  0  0  0  0  0  0  0  0
   28.8983  -20.8453  -11.1877 C   0  0  0  0  0  0  0  0  0  0  0  0
   28.2981  -20.8481  -12.5865 C   0  0  2  0  0  0  0  0  0  0  0  0
   29.2839  -20.3095  -13.5898 C   0  0  0  0  0  0  0  0  0  0  0  0
   26.9849  -20.0575  -12.5884 C   0  0  2  0  0  0  0  0  0  0  0  0
   26.0308  -20.7786  -11.7198 N   0  0  0  0  0  0  0  0  0  0  0  0
   26.3913  -20.1035  -13.9395 C   0  0  0  0  0  0  0  0  0  0  0  0
   26.0033  -21.2479  -14.3703 O   0  0  0  0  0  0  0  0  0  0  0  0
   23.9937  -18.1585  -17.7297 C   0  0  0  0  0  0  0  0  0  0  0  0
   24.6476  -17.9250  -16.3714 C   0  0  1  0  0  0  0  0  0  0  0  0
   23.6476  -17.6747  -15.4448 O   0  0  0  0  0  0  0  0  0  0  0  0
   25.4274  -19.1869  -16.0508 C   0  0  2  0  0  0  0  0  0  0  0  0
   26.1945  -19.0250  -14.8201 N   0  0  0  0  0  0  0  0  0  0  0  0
   26.3731  -19.4211  -17.1576 C   0  0  0  0  0  0  0  0  0  0  0  0
   26.0949  -20.1905  -18.1086 O   0  0  0  0  0  0  0  0  0  0  0  0
   27.6315  -18.7876  -17.1910 O   0  0  0  0  0  0  0  0  0  0  0  0
  1  2  1  0
  3  2  1  0
  3  4  1  6
  5  6  1  1
  5  3  1  0
  7  8  2  0
  7  5  1  0
 10  9  1  0
 11 12  1  6
 11 10  1  0
 13 14  1  1
 13 11  1  0
 14  7  1  0
 15 13  1  0
 16 15  2  0
 18 17  1  6
 18 19  1  0
 20 18  1  0
 20 21  1  1
 21 15  1  0
 22 20  1  0
 23 22  2  0
 24 22  1  0
M  END
$$$$
