IIT.pdb
     RDKit          3D

 24 23  0  0  1  0  0  0  0  0999 V2000
   17.6587  -12.7006  -21.8939 C   0  0  0  0  0  0  0  0  0  0  0  0
   18.7773  -13.0210  -20.9348 C   0  0  0  0  0  0  0  0  0  0  0  0
   18.8442  -12.1307  -19.7343 C   0  0  2  0  0  0  0  0  0  0  0  0
   18.6000  -10.6764  -20.0803 C   0  0  0  0  0  0  0  0  0  0  0  0
   19.8922  -12.3881  -18.7328 C   0  0  2  0  0  0  0  0  0  0  0  0
   19.8116  -13.8245  -18.4056 N   0  0  0  0  0  0  0  0  0  0  0  0
   19.9344  -11.5699  -17.5277 C   0  0  0  0  0  0  0  0  0  0  0  0
   19.0828  -11.7446  -16.6156 O   0  0  0  0  0  0  0  0  0  0  0  0
   24.0888  -11.4722  -14.6520 C   0  0  0  0  0  0  0  0  0  0  0  0
   22.6777  -11.3075  -15.1234 C   0  0  0  0  0  0  0  0  0  0  0  0
   22.3551   -9.8614  -15.4719 C   0  0  2  0  0  0  0  0  0  0  0  0
   22.5558   -8.9681  -14.2759 C   0  0  0  0  0  0  0  0  0  0  0  0
   20.9294   -9.7680  -16.0271 C   0  0  2  0  0  0  0  0  0  0  0  0
   20.8882  -10.5513  -17.2799 N   0  0  0  0  0  0  0  0  0  0  0  0
   20.6550   -8.3746  -16.4312 C   0  0  0  0  0  0  0  0  0  0  0  0
   21.3926   -7.8764  -17.3551 O   0  0  0  0  0  0  0  0  0  0  0  0
   17.9881   -4.2689  -16.7391 C   0  0  0  0  0  0  0  0  0  0  0  0
   18.0311   -5.7355  -16.3217 C   0  0  1  0  0  0  0  0  0  0  0  0
   17.1858   -6.4500  -17.1560 O   0  0  0  0  0  0  0  0  0  0  0  0
   19.4778   -6.1744  -16.4543 C   0  0  2  0  0  0  0  0  0  0  0  0
   19.6640   -7.5189  -15.9184 N   0  0  0  0  0  0  0  0  0  0  0  0
   20.3019   -5.2428  -15.6624 C   0  0  0  0  0  0  0  0  0  0  0  0
   20.7214   -4.1633  -16.1445 O   0  0  0  0  0  0  0  0  0  0  0  0
   20.6522   -5.5294  -14.3278 O   0  0  0  0  0  0  0  0  0  0  0  0
  1  2  1  0
  3  2  1  0
  3  4  1  6
  5  6  1  1
  5  3  1  0
  7  8  2  0
  7  5  1  0
 10  9  1  0
 11 12  1  1
 11 10  1  0
 13 14  1  6
 13 11  1  0
 14  7  1  0
 15 13  1  0
 16 15  2  0
 18 17  1  6
 18 19  1  0
 20 18  1  0
 20 21  1  1
 21 15  1  0
 22 20  1  0
 23 22  2  0
 24 22  1  0
M  END
$$$$
