IIT.pdb
     RDKit          3D

 24 23  0  0  1  0  0  0  0  0999 V2000
   27.8252  -19.1489  -18.6795 C   0  0  0  0  0  0  0  0  0  0  0  0
   28.2684  -19.7676  -17.3778 C   0  0  0  0  0  0  0  0  0  0  0  0
   27.1537  -20.2547  -16.5069 C   0  0  2  0  0  0  0  0  0  0  0  0
   25.9618  -19.3201  -16.5187 C   0  0  0  0  0  0  0  0  0  0  0  0
   27.4953  -20.8475  -15.2033 C   0  0  2  0  0  0  0  0  0  0  0  0
   28.4487  -21.9392  -15.4794 N   0  0  0  0  0  0  0  0  0  0  0  0
   26.4204  -21.2900  -14.3246 C   0  0  0  0  0  0  0  0  0  0  0  0
   25.7165  -22.2863  -14.6401 O   0  0  0  0  0  0  0  0  0  0  0  0
   26.9497  -20.5367   -8.9848 C   0  0  0  0  0  0  0  0  0  0  0  0
   26.5640  -21.1530  -10.2932 C   0  0  0  0  0  0  0  0  0  0  0  0
   25.2432  -20.6067  -10.8164 C   0  0  2  0  0  0  0  0  0  0  0  0
   24.1190  -20.9337   -9.8688 C   0  0  0  0  0  0  0  0  0  0  0  0
   24.9819  -21.1462  -12.2272 C   0  0  2  0  0  0  0  0  0  0  0  0
   26.0812  -20.6730  -13.0946 N   0  0  0  0  0  0  0  0  0  0  0  0
   23.7610  -20.5178  -12.7700 C   0  0  0  0  0  0  0  0  0  0  0  0
   23.7054  -19.2362  -12.7550 O   0  0  0  0  0  0  0  0  0  0  0  0
   22.4708  -20.0288  -15.9927 C   0  0  0  0  0  0  0  0  0  0  0  0
   21.2715  -20.6457  -15.2799 C   0  0  1  0  0  0  0  0  0  0  0  0
   21.2240  -21.9943  -15.5965 O   0  0  0  0  0  0  0  0  0  0  0  0
   21.4891  -20.4095  -13.7966 C   0  0  2  0  0  0  0  0  0  0  0  0
   22.6383  -21.1676  -13.3129 N   0  0  0  0  0  0  0  0  0  0  0  0
   20.2882  -20.8874  -13.0871 C   0  0  0  0  0  0  0  0  0  0  0  0
   20.3260  -21.8866  -12.3295 O   0  0  0  0  0  0  0  0  0  0  0  0
   19.0459  -20.2381  -13.2324 O   0  0  0  0  0  0  0  0  0  0  0  0
  1  2  1  0
  3  2  1  0
  3  4  1  1
  5  6  1  6
  5  3  1  0
  7  8  2  0
  7  5  1  0
 10  9  1  0
 11 12  1  1
 11 10  1  0
 13 14  1  6
 13 11  1  0
 14  7  1  0
 15 13  1  0
 16 15  2  0
 18 17  1  6
 18 19  1  0
 20 18  1  0
 20 21  1  1
 21 15  1  0
 22 20  1  0
 23 22  2  0
 24 22  1  0
M  END
$$$$
