IIT.pdb
     RDKit          3D

 24 23  0  0  1  0  0  0  0  0999 V2000
   20.4448  -21.3124   -9.6518 C   0  0  0  0  0  0  0  0  0  0  0  0
   21.8947  -21.3734   -9.2422 C   0  0  0  0  0  0  0  0  0  0  0  0
   22.8387  -20.6978  -10.1860 C   0  0  2  0  0  0  0  0  0  0  0  0
   22.4256  -20.8655  -11.6336 C   0  0  0  0  0  0  0  0  0  0  0  0
   24.2825  -20.7892   -9.9127 C   0  0  2  0  0  0  0  0  0  0  0  0
   24.4680  -20.3707   -8.5101 N   0  0  0  0  0  0  0  0  0  0  0  0
   25.2143  -20.1045  -10.7995 C   0  0  0  0  0  0  0  0  0  0  0  0
   25.4279  -18.8706  -10.6602 O   0  0  0  0  0  0  0  0  0  0  0  0
   30.0653  -21.4479  -11.0062 C   0  0  0  0  0  0  0  0  0  0  0  0
   28.7748  -20.7068  -11.1665 C   0  0  0  0  0  0  0  0  0  0  0  0
   28.2438  -20.7825  -12.5910 C   0  0  2  0  0  0  0  0  0  0  0  0
   29.2676  -20.2682  -13.5688 C   0  0  0  0  0  0  0  0  0  0  0  0
   26.9183  -20.0193  -12.6911 C   0  0  2  0  0  0  0  0  0  0  0  0
   25.9320  -20.7294  -11.8497 N   0  0  0  0  0  0  0  0  0  0  0  0
   26.3996  -20.1238  -14.0695 C   0  0  0  0  0  0  0  0  0  0  0  0
   26.0868  -21.2945  -14.4907 O   0  0  0  0  0  0  0  0  0  0  0  0
   23.9874  -18.4312  -17.9449 C   0  0  0  0  0  0  0  0  0  0  0  0
   24.6054  -18.1233  -16.5846 C   0  0  1  0  0  0  0  0  0  0  0  0
   23.5791  -17.9643  -15.6668 O   0  0  0  0  0  0  0  0  0  0  0  0
   25.5026  -19.3001  -16.2476 C   0  0  2  0  0  0  0  0  0  0  0  0
   26.2013  -19.0761  -14.9863 N   0  0  0  0  0  0  0  0  0  0  0  0
   26.5087  -19.4163  -17.3192 C   0  0  0  0  0  0  0  0  0  0  0  0
   27.5544  -18.7232  -17.3173 O   0  0  0  0  0  0  0  0  0  0  0  0
   26.3348  -20.3137  -18.3917 O   0  0  0  0  0  0  0  0  0  0  0  0
  1  2  1  0
  3  2  1  0
  3  4  1  6
  5  6  1  1
  5  3  1  0
  7  8  2  0
  7  5  1  0
 10  9  1  0
 11 12  1  6
 11 10  1  0
 13 14  1  1
 13 11  1  0
 14  7  1  0
 15 13  1  0
 16 15  2  0
 18 17  1  6
 18 19  1  0
 20 18  1  0
 20 21  1  1
 21 15  1  0
 22 20  1  0
 23 22  2  0
 24 22  1  0
M  END
$$$$
