IIT.pdb
     RDKit          3D

 24 23  0  0  1  0  0  0  0  0999 V2000
   27.8998  -19.0283  -18.8483 C   0  0  0  0  0  0  0  0  0  0  0  0
   28.3978  -19.8552  -17.6899 C   0  0  0  0  0  0  0  0  0  0  0  0
   27.3313  -20.3126  -16.7456 C   0  0  2  0  0  0  0  0  0  0  0  0
   26.2765  -19.2516  -16.5091 C   0  0  0  0  0  0  0  0  0  0  0  0
   27.7336  -21.0961  -15.5659 C   0  0  2  0  0  0  0  0  0  0  0  0
   28.4914  -22.2553  -16.0747 N   0  0  0  0  0  0  0  0  0  0  0  0
   26.7143  -21.5060  -14.6086 C   0  0  0  0  0  0  0  0  0  0  0  0
   25.9368  -22.4589  -14.8830 O   0  0  0  0  0  0  0  0  0  0  0  0
   25.2862  -20.9915   -8.5653 C   0  0  0  0  0  0  0  0  0  0  0  0
   24.8933  -21.3719   -9.9587 C   0  0  0  0  0  0  0  0  0  0  0  0
   25.9211  -20.9214  -10.9870 C   0  0  2  0  0  0  0  0  0  0  0  0
   26.1483  -19.4351  -10.8968 C   0  0  0  0  0  0  0  0  0  0  0  0
   25.4743  -21.3512  -12.3888 C   0  0  2  0  0  0  0  0  0  0  0  0
   26.5105  -20.9023  -13.3426 N   0  0  0  0  0  0  0  0  0  0  0  0
   24.2551  -20.6060  -12.7607 C   0  0  0  0  0  0  0  0  0  0  0  0
   24.3711  -19.3395  -12.9290 O   0  0  0  0  0  0  0  0  0  0  0  0
   21.1911  -21.9650  -15.0174 C   0  0  0  0  0  0  0  0  0  0  0  0
   21.5658  -20.4938  -14.8692 C   0  0  1  0  0  0  0  0  0  0  0  0
   20.4981  -19.7268  -15.3081 O   0  0  0  0  0  0  0  0  0  0  0  0
   21.8650  -20.2761  -13.3973 C   0  0  2  0  0  0  0  0  0  0  0  0
   22.9650  -21.1289  -12.9591 N   0  0  0  0  0  0  0  0  0  0  0  0
   20.6587  -20.6497  -12.6360 C   0  0  0  0  0  0  0  0  0  0  0  0
   20.6681  -21.5952  -11.8116 O   0  0  0  0  0  0  0  0  0  0  0  0
   19.4433  -19.9568  -12.8051 O   0  0  0  0  0  0  0  0  0  0  0  0
  1  2  1  0
  3  2  1  0
  3  4  1  1
  5  6  1  6
  5  3  1  0
  7  8  2  0
  7  5  1  0
 10  9  1  0
 11 12  1  6
 11 10  1  0
 13 14  1  6
 13 11  1  0
 14  7  1  0
 15 13  1  0
 16 15  2  0
 18 17  1  1
 18 19  1  0
 20 18  1  0
 20 21  1  1
 21 15  1  0
 22 20  1  0
 23 22  2  0
 24 22  1  0
M  END
$$$$
