IIT.pdb
     RDKit          3D

 24 23  0  0  1  0  0  0  0  0999 V2000
   19.3669  -16.4005  -19.6860 C   0  0  0  0  0  0  0  0  0  0  0  0
   20.2362  -15.2082  -19.9964 C   0  0  0  0  0  0  0  0  0  0  0  0
   20.4853  -14.2983  -18.8351 C   0  0  2  0  0  0  0  0  0  0  0  0
   19.2448  -14.0858  -17.9923 C   0  0  0  0  0  0  0  0  0  0  0  0
   21.3316  -13.1125  -19.0473 C   0  0  2  0  0  0  0  0  0  0  0  0
   22.4557  -13.5500  -19.8969 N   0  0  0  0  0  0  0  0  0  0  0  0
   21.8009  -12.3627  -17.8893 C   0  0  0  0  0  0  0  0  0  0  0  0
   21.0859  -12.2857  -16.8547 O   0  0  0  0  0  0  0  0  0  0  0  0
   27.0006  -10.5279  -15.1161 C   0  0  0  0  0  0  0  0  0  0  0  0
   25.5271  -10.3464  -15.3069 C   0  0  0  0  0  0  0  0  0  0  0  0
   24.9924  -11.1786  -16.4637 C   0  0  2  0  0  0  0  0  0  0  0  0
   25.7562  -10.8853  -17.7283 C   0  0  0  0  0  0  0  0  0  0  0  0
   23.4888  -10.9306  -16.6289 C   0  0  2  0  0  0  0  0  0  0  0  0
   23.0426  -11.6829  -17.8204 N   0  0  0  0  0  0  0  0  0  0  0  0
   23.2637   -9.5094  -16.9601 C   0  0  0  0  0  0  0  0  0  0  0  0
   23.9879   -9.0027  -17.8900 O   0  0  0  0  0  0  0  0  0  0  0  0
   21.2082   -7.8264  -18.9575 C   0  0  0  0  0  0  0  0  0  0  0  0
   20.9680   -7.0595  -17.6609 C   0  0  1  0  0  0  0  0  0  0  0  0
   19.8352   -7.5774  -17.0530 O   0  0  0  0  0  0  0  0  0  0  0  0
   22.2139   -7.2503  -16.8155 C   0  0  2  0  0  0  0  0  0  0  0  0
   22.3331   -8.6350  -16.3712 N   0  0  0  0  0  0  0  0  0  0  0  0
   22.0810   -6.3921  -15.6238 C   0  0  0  0  0  0  0  0  0  0  0  0
   22.1585   -5.1425  -15.7015 O   0  0  0  0  0  0  0  0  0  0  0  0
   21.8609   -6.9439  -14.3459 O   0  0  0  0  0  0  0  0  0  0  0  0
  1  2  1  0
  3  2  1  0
  3  4  1  6
  5  6  1  1
  5  3  1  0
  7  8  2  0
  7  5  1  0
 10  9  1  0
 11 12  1  6
 11 10  1  0
 13 14  1  6
 13 11  1  0
 14  7  1  0
 15 13  1  0
 16 15  2  0
 18 17  1  6
 18 19  1  0
 20 18  1  0
 20 21  1  1
 21 15  1  0
 22 20  1  0
 23 22  2  0
 24 22  1  0
M  END
$$$$
