IIT.pdb
     RDKit          3D

 24 23  0  0  1  0  0  0  0  0999 V2000
   29.8879  -18.7037  -17.4742 C   0  0  0  0  0  0  0  0  0  0  0  0
   28.6799  -18.1871  -16.7344 C   0  0  0  0  0  0  0  0  0  0  0  0
   27.9003  -19.2346  -16.0040 C   0  0  2  0  0  0  0  0  0  0  0  0
   27.8259  -20.5383  -16.7716 C   0  0  0  0  0  0  0  0  0  0  0  0
   26.6708  -18.8275  -15.3038 C   0  0  2  0  0  0  0  0  0  0  0  0
   27.0349  -17.6727  -14.4608 N   0  0  0  0  0  0  0  0  0  0  0  0
   25.9256  -19.8247  -14.5465 C   0  0  0  0  0  0  0  0  0  0  0  0
   25.5451  -20.8878  -15.1055 O   0  0  0  0  0  0  0  0  0  0  0  0
   26.5716  -20.4809   -9.0897 C   0  0  0  0  0  0  0  0  0  0  0  0
   26.3129  -20.8202  -10.5244 C   0  0  0  0  0  0  0  0  0  0  0  0
   24.9080  -20.4299  -10.9611 C   0  0  2  0  0  0  0  0  0  0  0  0
   23.8744  -21.1597  -10.1439 C   0  0  0  0  0  0  0  0  0  0  0  0
   24.7417  -20.6883  -12.4629 C   0  0  2  0  0  0  0  0  0  0  0  0
   25.5754  -19.6998  -13.1788 N   0  0  0  0  0  0  0  0  0  0  0  0
   23.3521  -20.3833  -12.8581 C   0  0  0  0  0  0  0  0  0  0  0  0
   23.0047  -19.1484  -12.8724 O   0  0  0  0  0  0  0  0  0  0  0  0
   19.4210  -20.8165  -15.5191 C   0  0  0  0  0  0  0  0  0  0  0  0
   20.8369  -21.2529  -15.1562 C   0  0  1  0  0  0  0  0  0  0  0  0
   21.7203  -20.6239  -16.0192 O   0  0  0  0  0  0  0  0  0  0  0  0
   21.0525  -20.8426  -13.7111 C   0  0  2  0  0  0  0  0  0  0  0  0
   22.3521  -21.2994  -13.2298 N   0  0  0  0  0  0  0  0  0  0  0  0
   20.0053  -21.4919  -12.9012 C   0  0  0  0  0  0  0  0  0  0  0  0
   20.1782  -22.6233  -12.3875 O   0  0  0  0  0  0  0  0  0  0  0  0
   18.7643  -20.8649  -12.6713 O   0  0  0  0  0  0  0  0  0  0  0  0
  1  2  1  0
  3  2  1  0
  3  4  1  6
  5  6  1  1
  5  3  1  0
  7  8  2  0
  7  5  1  0
 10  9  1  0
 11 12  1  1
 11 10  1  0
 13 14  1  6
 13 11  1  0
 14  7  1  0
 15 13  1  0
 16 15  2  0
 18 17  1  6
 18 19  1  0
 20 18  1  0
 20 21  1  1
 21 15  1  0
 22 20  1  0
 23 22  2  0
 24 22  1  0
M  END
$$$$
