IIT.pdb
     RDKit          3D

 24 23  0  0  1  0  0  0  0  0999 V2000
   16.9414  -25.9170   -8.1945 C   0  0  0  0  0  0  0  0  0  0  0  0
   18.0957  -25.1850   -7.5578 C   0  0  0  0  0  0  0  0  0  0  0  0
   18.5455  -23.9650   -8.2978 C   0  0  2  0  0  0  0  0  0  0  0  0
   18.4781  -24.1441   -9.8004 C   0  0  0  0  0  0  0  0  0  0  0  0
   19.7159  -23.2318   -7.7877 C   0  0  2  0  0  0  0  0  0  0  0  0
   19.3942  -22.8480   -6.3999 N   0  0  0  0  0  0  0  0  0  0  0  0
   20.2263  -22.0984   -8.5480 C   0  0  0  0  0  0  0  0  0  0  0  0
   19.6083  -21.0005   -8.5367 O   0  0  0  0  0  0  0  0  0  0  0  0
   25.3699  -20.7112   -8.3369 C   0  0  0  0  0  0  0  0  0  0  0  0
   23.8825  -20.6812   -8.5026 C   0  0  0  0  0  0  0  0  0  0  0  0
   23.4596  -20.9744   -9.9350 C   0  0  2  0  0  0  0  0  0  0  0  0
   24.1176  -20.0147  -10.8915 C   0  0  0  0  0  0  0  0  0  0  0  0
   21.9310  -20.9361  -10.0421 C   0  0  2  0  0  0  0  0  0  0  0  0
   21.4061  -22.1222   -9.3331 N   0  0  0  0  0  0  0  0  0  0  0  0
   21.5373  -21.1213  -11.4530 C   0  0  0  0  0  0  0  0  0  0  0  0
   21.8283  -22.2447  -11.9999 O   0  0  0  0  0  0  0  0  0  0  0  0
   18.9280  -20.1206  -15.4864 C   0  0  0  0  0  0  0  0  0  0  0  0
   19.2331  -19.7308  -14.0435 C   0  0  1  0  0  0  0  0  0  0  0  0
   18.1066  -19.9845  -13.2770 O   0  0  0  0  0  0  0  0  0  0  0  0
   20.4219  -20.5722  -13.6167 C   0  0  2  0  0  0  0  0  0  0  0  0
   20.8679  -20.2001  -12.2780 N   0  0  0  0  0  0  0  0  0  0  0  0
   21.5216  -20.3039  -14.5616 C   0  0  0  0  0  0  0  0  0  0  0  0
   22.2936  -19.3266  -14.4117 O   0  0  0  0  0  0  0  0  0  0  0  0
   21.7497  -21.1379  -15.6744 O   0  0  0  0  0  0  0  0  0  0  0  0
  1  2  1  0
  3  2  1  0
  3  4  1  6
  5  6  1  1
  5  3  1  0
  7  8  2  0
  7  5  1  0
 10  9  1  0
 11 12  1  6
 11 10  1  0
 13 14  1  1
 13 11  1  0
 14  7  1  0
 15 13  1  0
 16 15  2  0
 18 17  1  6
 18 19  1  0
 20 18  1  0
 20 21  1  1
 21 15  1  0
 22 20  1  0
 23 22  2  0
 24 22  1  0
M  END
$$$$
