PGE.pdb
     RDKit          3D

 21 21  0  0  1  0  0  0  0  0999 V2000
    7.0190  -14.9115   20.3010 N   0  0  0  0  0  0  0  0  0  0  0  0
    6.3449  -13.9625   19.3830 C   0  0  0  0  0  0  0  0  0  0  0  0
    7.1949  -12.7276   19.7191 C   0  0  0  0  0  0  0  0  0  0  0  0
    8.5796  -13.2986   19.5111 C   0  0  0  0  0  0  0  0  0  0  0  0
    8.4135  -14.7099   20.0836 C   0  0  1  0  0  0  0  0  0  0  0  0
    9.2871  -14.8252   21.2417 C   0  0  0  0  0  0  0  0  0  0  0  0
   10.5438  -14.8054   21.0096 O   0  0  0  0  0  0  0  0  0  0  0  0
    8.8738  -14.9568   22.5935 N   0  0  0  0  0  0  0  0  0  0  0  0
    9.8457  -14.9060   23.6286 C   0  0  0  0  0  0  0  0  0  0  0  0
   10.5778  -16.1702   23.8685 C   0  0  0  0  0  0  0  0  0  0  0  0
   10.1226  -17.2630   23.3686 O   0  0  0  0  0  0  0  0  0  0  0  0
   11.7688  -16.2937   24.6197 N   0  0  0  0  0  0  0  0  0  0  0  0
   12.4701  -17.5897   24.7107 C   0  0  1  0  0  0  0  0  0  0  0  0
   13.9403  -17.3651   24.7627 C   0  0  0  0  0  0  0  0  0  0  0  0
   14.4580  -16.6576   23.5542 C   0  0  0  0  0  0  0  0  0  0  0  0
   15.9263  -16.5130   23.5325 C   0  0  0  0  0  0  0  0  0  0  0  0
   16.6617  -16.9793   22.6616 O   0  0  0  0  0  0  0  0  0  0  0  0
   11.9636  -18.2584   25.9298 C   0  0  0  0  0  0  0  0  0  0  0  0
   11.2510  -17.6621   26.7552 O   0  0  0  0  0  0  0  0  0  0  0  0
   16.5019  -15.7953   24.5792 O   0  0  0  0  0  0  0  0  0  0  0  0
   12.2878  -19.5949   26.1709 O   0  0  0  0  0  0  0  0  0  0  0  0
  2  1  1  0
  3  4  1  0
  3  2  1  0
  4  5  1  0
  5  1  1  0
  6  8  1  0
  5  6  1  1
  7  6  2  0
  9 10  1  0
  9  8  1  0
 10 11  2  0
 12 13  1  0
 12 10  1  0
 13 14  1  1
 14 15  1  0
 16 15  1  0
 16 20  1  0
 17 16  2  0
 18 21  1  0
 18 13  1  0
 19 18  2  0
M  END
$$$$
