PGE.pdb
     RDKit          3D

 21 21  0  0  1  0  0  0  0  0999 V2000
    7.5943  -14.7262   19.2062 N   0  0  0  0  0  0  0  0  0  0  0  0
    7.8012  -13.4651   18.4550 C   0  0  0  0  0  0  0  0  0  0  0  0
    7.2477  -12.5083   19.5220 C   0  0  0  0  0  0  0  0  0  0  0  0
    8.0633  -12.9488   20.7168 C   0  0  0  0  0  0  0  0  0  0  0  0
    8.1024  -14.4667   20.5128 C   0  0  1  0  0  0  0  0  0  0  0  0
    7.4021  -15.0832   21.6296 C   0  0  0  0  0  0  0  0  0  0  0  0
    6.5799  -14.3392   22.2652 O   0  0  0  0  0  0  0  0  0  0  0  0
    7.5483  -16.4239   22.0732 N   0  0  0  0  0  0  0  0  0  0  0  0
    7.4709  -16.7117   23.4623 C   0  0  0  0  0  0  0  0  0  0  0  0
    8.6610  -17.3805   24.0349 C   0  0  0  0  0  0  0  0  0  0  0  0
    8.8800  -18.6162   23.7578 O   0  0  0  0  0  0  0  0  0  0  0  0
    9.6106  -16.7696   24.8853 N   0  0  0  0  0  0  0  0  0  0  0  0
   10.9830  -17.3039   24.9875 C   0  0  1  0  0  0  0  0  0  0  0  0
   11.9440  -16.3464   24.3756 C   0  0  0  0  0  0  0  0  0  0  0  0
   13.3648  -16.7780   24.5309 C   0  0  0  0  0  0  0  0  0  0  0  0
   14.2653  -16.2470   23.4894 C   0  0  0  0  0  0  0  0  0  0  0  0
   15.2618  -15.5584   23.7119 O   0  0  0  0  0  0  0  0  0  0  0  0
   11.2465  -17.5162   26.4282 C   0  0  0  0  0  0  0  0  0  0  0  0
   10.5210  -17.0190   27.3064 O   0  0  0  0  0  0  0  0  0  0  0  0
   13.9489  -16.5575   22.1682 O   0  0  0  0  0  0  0  0  0  0  0  0
   12.3363  -18.2939   26.8247 O   0  0  0  0  0  0  0  0  0  0  0  0
  2  1  1  0
  3  4  1  0
  3  2  1  0
  4  5  1  0
  5  1  1  0
  6  8  1  0
  5  6  1  1
  7  6  2  0
  9 10  1  0
  9  8  1  0
 10 11  2  0
 12 13  1  0
 12 10  1  0
 13 14  1  1
 14 15  1  0
 16 15  1  0
 16 20  1  0
 17 16  2  0
 18 21  1  0
 18 13  1  0
 19 18  2  0
M  END
$$$$
