PGE.pdb
     RDKit          3D

 21 21  0  0  1  0  0  0  0  0999 V2000
    7.0220  -15.0616   18.7837 N   0  0  0  0  0  0  0  0  0  0  0  0
    6.4358  -14.1845   17.7422 C   0  0  0  0  0  0  0  0  0  0  0  0
    6.6514  -12.8476   18.4679 C   0  0  0  0  0  0  0  0  0  0  0  0
    8.1271  -12.9546   18.7804 C   0  0  0  0  0  0  0  0  0  0  0  0
    8.2521  -14.4376   19.1442 C   0  0  1  0  0  0  0  0  0  0  0  0
    8.6514  -14.5202   20.5412 C   0  0  0  0  0  0  0  0  0  0  0  0
    9.8756  -14.2585   20.7986 O   0  0  0  0  0  0  0  0  0  0  0  0
    7.8121  -14.8623   21.6339 N   0  0  0  0  0  0  0  0  0  0  0  0
    8.3148  -14.7603   22.9588 C   0  0  0  0  0  0  0  0  0  0  0  0
    9.3087  -15.7902   23.3371 C   0  0  0  0  0  0  0  0  0  0  0  0
    8.9881  -17.0319   23.2530 O   0  0  0  0  0  0  0  0  0  0  0  0
   10.6197  -15.5295   23.7970 N   0  0  0  0  0  0  0  0  0  0  0  0
   11.5822  -16.6320   23.9911 C   0  0  1  0  0  0  0  0  0  0  0  0
   12.9715  -16.1219   23.8354 C   0  0  0  0  0  0  0  0  0  0  0  0
   14.0029  -17.1550   24.1487 C   0  0  0  0  0  0  0  0  0  0  0  0
   15.3827  -16.7302   23.8435 C   0  0  0  0  0  0  0  0  0  0  0  0
   16.0336  -17.1153   22.8716 O   0  0  0  0  0  0  0  0  0  0  0  0
   11.3345  -17.1742   25.3456 C   0  0  0  0  0  0  0  0  0  0  0  0
   10.8128  -16.4871   26.2402 O   0  0  0  0  0  0  0  0  0  0  0  0
   15.9728  -15.8303   24.7289 O   0  0  0  0  0  0  0  0  0  0  0  0
   11.6920  -18.4916   25.6392 O   0  0  0  0  0  0  0  0  0  0  0  0
  2  1  1  0
  3  4  1  0
  3  2  1  0
  4  5  1  0
  5  1  1  0
  6  8  1  0
  5  6  1  1
  7  6  2  0
  9 10  1  0
  9  8  1  0
 10 11  2  0
 12 13  1  0
 12 10  1  0
 13 14  1  1
 14 15  1  0
 16 15  1  0
 16 20  1  0
 17 16  2  0
 18 21  1  0
 18 13  1  0
 19 18  2  0
M  END
$$$$
