PGE.pdb
     RDKit          3D

 21 21  0  0  1  0  0  0  0  0999 V2000
    7.4517  -14.4259   19.2878 N   0  0  0  0  0  0  0  0  0  0  0  0
    6.9889  -13.0613   19.6356 C   0  0  0  0  0  0  0  0  0  0  0  0
    8.1005  -12.7281   20.6425 C   0  0  0  0  0  0  0  0  0  0  0  0
    9.3177  -13.0422   19.8019 C   0  0  0  0  0  0  0  0  0  0  0  0
    8.8513  -14.2933   19.0507 C   0  0  1  0  0  0  0  0  0  0  0  0
    9.7001  -15.4012   19.4628 C   0  0  0  0  0  0  0  0  0  0  0  0
   10.9488  -15.2820   19.2179 O   0  0  0  0  0  0  0  0  0  0  0  0
    9.2707  -16.5918   20.1061 N   0  0  0  0  0  0  0  0  0  0  0  0
   10.2070  -17.6336   20.3433 C   0  0  0  0  0  0  0  0  0  0  0  0
   10.7784  -17.6690   21.7085 C   0  0  0  0  0  0  0  0  0  0  0  0
   10.7822  -18.7779   22.3581 O   0  0  0  0  0  0  0  0  0  0  0  0
   11.3385  -16.5633   22.3880 N   0  0  0  0  0  0  0  0  0  0  0  0
   11.9199  -16.7238   23.7355 C   0  0  1  0  0  0  0  0  0  0  0  0
   13.2325  -16.0259   23.8050 C   0  0  0  0  0  0  0  0  0  0  0  0
   14.2919  -16.7106   23.0063 C   0  0  0  0  0  0  0  0  0  0  0  0
   15.5861  -16.0017   23.0027 C   0  0  0  0  0  0  0  0  0  0  0  0
   16.1865  -15.6482   21.9872 O   0  0  0  0  0  0  0  0  0  0  0  0
   10.9371  -16.1618   24.6884 C   0  0  0  0  0  0  0  0  0  0  0  0
    9.9434  -15.5225   24.3028 O   0  0  0  0  0  0  0  0  0  0  0  0
   16.1521  -15.7221   24.2451 O   0  0  0  0  0  0  0  0  0  0  0  0
   11.1195  -16.3476   26.0602 O   0  0  0  0  0  0  0  0  0  0  0  0
  2  1  1  0
  3  4  1  0
  3  2  1  0
  4  5  1  0
  5  1  1  0
  6  8  1  0
  5  6  1  1
  7  6  2  0
  9 10  1  0
  9  8  1  0
 10 11  2  0
 12 13  1  0
 12 10  1  0
 13 14  1  6
 14 15  1  0
 16 15  1  0
 16 20  1  0
 17 16  2  0
 18 21  1  0
 18 13  1  0
 19 18  2  0
M  END
$$$$
