PGE.pdb
     RDKit          3D

 21 21  0  0  1  0  0  0  0  0999 V2000
    7.6979  -14.7975   19.1211 N   0  0  0  0  0  0  0  0  0  0  0  0
    7.1777  -13.7390   18.2231 C   0  0  0  0  0  0  0  0  0  0  0  0
    7.2349  -12.5811   19.2313 C   0  0  0  0  0  0  0  0  0  0  0  0
    8.6718  -12.7018   19.6871 C   0  0  0  0  0  0  0  0  0  0  0  0
    8.8431  -14.2231   19.7466 C   0  0  1  0  0  0  0  0  0  0  0  0
    9.0928  -14.5881   21.1330 C   0  0  0  0  0  0  0  0  0  0  0  0
   10.2452  -14.2923   21.5997 O   0  0  0  0  0  0  0  0  0  0  0  0
    8.1807  -15.2374   22.0060 N   0  0  0  0  0  0  0  0  0  0  0  0
    8.5365  -15.4326   23.3675 C   0  0  0  0  0  0  0  0  0  0  0  0
    9.4613  -16.5602   23.6221 C   0  0  0  0  0  0  0  0  0  0  0  0
    9.7618  -17.3547   22.6577 O   0  0  0  0  0  0  0  0  0  0  0  0
   10.0650  -16.8560   24.8655 N   0  0  0  0  0  0  0  0  0  0  0  0
   11.3476  -17.5846   24.9248 C   0  0  1  0  0  0  0  0  0  0  0  0
   12.4425  -16.7218   24.4036 C   0  0  0  0  0  0  0  0  0  0  0  0
   13.7611  -17.4212   24.3710 C   0  0  0  0  0  0  0  0  0  0  0  0
   14.8457  -16.6191   23.7728 C   0  0  0  0  0  0  0  0  0  0  0  0
   14.6722  -15.6627   23.0167 O   0  0  0  0  0  0  0  0  0  0  0  0
   11.5560  -17.9566   26.3419 C   0  0  0  0  0  0  0  0  0  0  0  0
   11.0548  -17.3009   27.2711 O   0  0  0  0  0  0  0  0  0  0  0  0
   16.1502  -16.9855   24.0983 O   0  0  0  0  0  0  0  0  0  0  0  0
   12.3346  -19.0721   26.6568 O   0  0  0  0  0  0  0  0  0  0  0  0
  2  1  1  0
  3  4  1  0
  3  2  1  0
  4  5  1  0
  5  1  1  0
  6  8  1  0
  5  6  1  1
  7  6  2  0
  9 10  1  0
  9  8  1  0
 10 11  2  0
 12 13  1  0
 12 10  1  0
 13 14  1  1
 14 15  1  0
 16 15  1  0
 16 20  1  0
 17 16  2  0
 18 21  1  0
 18 13  1  0
 19 18  2  0
M  END
$$$$
