PGE.pdb
     RDKit          3D

 21 21  0  0  1  0  0  0  0  0999 V2000
    7.2246  -14.2245   19.4437 N   0  0  0  0  0  0  0  0  0  0  0  0
    7.4345  -12.7578   19.4899 C   0  0  0  0  0  0  0  0  0  0  0  0
    8.5797  -12.7559   20.5141 C   0  0  0  0  0  0  0  0  0  0  0  0
    9.5176  -13.7452   19.8597 C   0  0  0  0  0  0  0  0  0  0  0  0
    8.5304  -14.7818   19.3137 C   0  0  1  0  0  0  0  0  0  0  0  0
    8.7838  -16.0405   19.9987 C   0  0  0  0  0  0  0  0  0  0  0  0
    9.8273  -16.6840   19.6373 O   0  0  0  0  0  0  0  0  0  0  0  0
    7.9841  -16.6134   21.0224 N   0  0  0  0  0  0  0  0  0  0  0  0
    8.3054  -17.9054   21.5182 C   0  0  0  0  0  0  0  0  0  0  0  0
    9.4980  -17.9664   22.3932 C   0  0  0  0  0  0  0  0  0  0  0  0
    9.7765  -19.0656   22.9980 O   0  0  0  0  0  0  0  0  0  0  0  0
   10.3888  -16.8957   22.6347 N   0  0  0  0  0  0  0  0  0  0  0  0
   11.6488  -17.1169   23.3716 C   0  0  1  0  0  0  0  0  0  0  0  0
   12.7526  -16.3585   22.7225 C   0  0  0  0  0  0  0  0  0  0  0  0
   14.0477  -16.4870   23.4541 C   0  0  0  0  0  0  0  0  0  0  0  0
   15.1802  -15.8226   22.7807 C   0  0  0  0  0  0  0  0  0  0  0  0
   15.1163  -15.2806   21.6767 O   0  0  0  0  0  0  0  0  0  0  0  0
   11.4075  -16.6719   24.7622 C   0  0  0  0  0  0  0  0  0  0  0  0
   10.5482  -15.8167   25.0359 O   0  0  0  0  0  0  0  0  0  0  0  0
   16.3984  -15.8191   23.4574 O   0  0  0  0  0  0  0  0  0  0  0  0
   12.1587  -17.2198   25.8039 O   0  0  0  0  0  0  0  0  0  0  0  0
  2  1  1  0
  3  4  1  0
  3  2  1  0
  4  5  1  0
  5  1  1  0
  6  8  1  0
  5  6  1  1
  7  6  2  0
  9 10  1  0
  9  8  1  0
 10 11  2  0
 12 13  1  0
 12 10  1  0
 13 14  1  6
 14 15  1  0
 16 15  1  0
 16 20  1  0
 17 16  2  0
 18 21  1  0
 18 13  1  0
 19 18  2  0
M  END
$$$$
