PGE.pdb
     RDKit          3D

 21 21  0  0  1  0  0  0  0  0999 V2000
    8.2572  -15.1508   18.3206 N   0  0  0  0  0  0  0  0  0  0  0  0
    7.8972  -14.3627   17.1177 C   0  0  0  0  0  0  0  0  0  0  0  0
    6.8441  -13.4622   17.7815 C   0  0  0  0  0  0  0  0  0  0  0  0
    7.6470  -12.9393   18.9515 C   0  0  0  0  0  0  0  0  0  0  0  0
    8.4410  -14.1861   19.3542 C   0  0  1  0  0  0  0  0  0  0  0  0
    8.0224  -14.5654   20.6953 C   0  0  0  0  0  0  0  0  0  0  0  0
    7.4976  -15.7240   20.8204 O   0  0  0  0  0  0  0  0  0  0  0  0
    8.1426  -13.7721   21.8666 N   0  0  0  0  0  0  0  0  0  0  0  0
    7.7718  -14.3220   23.1230 C   0  0  0  0  0  0  0  0  0  0  0  0
    8.8345  -15.0854   23.8154 C   0  0  0  0  0  0  0  0  0  0  0  0
    8.5970  -15.5765   24.9790 O   0  0  0  0  0  0  0  0  0  0  0  0
   10.1279  -15.3337   23.3019 N   0  0  0  0  0  0  0  0  0  0  0  0
   11.1090  -16.1157   24.0800 C   0  0  1  0  0  0  0  0  0  0  0  0
   10.6602  -17.5311   24.1806 C   0  0  0  0  0  0  0  0  0  0  0  0
   11.6071  -18.3816   24.9609 C   0  0  0  0  0  0  0  0  0  0  0  0
   11.0175  -19.6489   25.4339 C   0  0  0  0  0  0  0  0  0  0  0  0
   11.6264  -20.7165   25.5126 O   0  0  0  0  0  0  0  0  0  0  0  0
   12.4037  -15.9889   23.3746 C   0  0  0  0  0  0  0  0  0  0  0  0
   12.4746  -15.5674   22.2076 O   0  0  0  0  0  0  0  0  0  0  0  0
    9.6770  -19.6146   25.8133 O   0  0  0  0  0  0  0  0  0  0  0  0
   13.5847  -16.3492   24.0266 O   0  0  0  0  0  0  0  0  0  0  0  0
  2  1  1  0
  3  4  1  0
  3  2  1  0
  4  5  1  0
  5  1  1  0
  6  8  1  0
  5  6  1  1
  7  6  2  0
  9 10  1  0
  9  8  1  0
 10 11  2  0
 12 13  1  0
 12 10  1  0
 13 14  1  6
 14 15  1  0
 16 15  1  0
 16 20  1  0
 17 16  2  0
 18 21  1  0
 18 13  1  0
 19 18  2  0
M  END
$$$$
