PGE.pdb
     RDKit          3D

 21 21  0  0  1  0  0  0  0  0999 V2000
    7.7940  -14.9856   18.6070 N   0  0  0  0  0  0  0  0  0  0  0  0
    7.2401  -13.9969   17.6514 C   0  0  0  0  0  0  0  0  0  0  0  0
    6.7904  -12.9546   18.6867 C   0  0  0  0  0  0  0  0  0  0  0  0
    8.0775  -12.7834   19.4618 C   0  0  0  0  0  0  0  0  0  0  0  0
    8.5985  -14.2235   19.5040 C   0  0  1  0  0  0  0  0  0  0  0  0
    8.6205  -14.6473   20.8960 C   0  0  0  0  0  0  0  0  0  0  0  0
    9.4761  -14.0723   21.6516 O   0  0  0  0  0  0  0  0  0  0  0  0
    7.7856  -15.6328   21.4854 N   0  0  0  0  0  0  0  0  0  0  0  0
    7.8288  -15.8342   22.8910 C   0  0  0  0  0  0  0  0  0  0  0  0
    8.9804  -16.6260   23.3795 C   0  0  0  0  0  0  0  0  0  0  0  0
    8.8212  -17.8768   23.6276 O   0  0  0  0  0  0  0  0  0  0  0  0
   10.2809  -16.1207   23.6063 N   0  0  0  0  0  0  0  0  0  0  0  0
   11.4035  -17.0349   23.8954 C   0  0  1  0  0  0  0  0  0  0  0  0
   12.6862  -16.4065   23.4779 C   0  0  0  0  0  0  0  0  0  0  0  0
   13.8753  -17.2413   23.8213 C   0  0  0  0  0  0  0  0  0  0  0  0
   15.1624  -16.6312   23.4359 C   0  0  0  0  0  0  0  0  0  0  0  0
   15.3007  -15.4630   23.0712 O   0  0  0  0  0  0  0  0  0  0  0  0
   11.3618  -17.3070   25.3494 C   0  0  0  0  0  0  0  0  0  0  0  0
   10.8228  -16.5210   26.1471 O   0  0  0  0  0  0  0  0  0  0  0  0
   16.2883  -17.4504   23.4954 O   0  0  0  0  0  0  0  0  0  0  0  0
   11.9400  -18.4746   25.8514 O   0  0  0  0  0  0  0  0  0  0  0  0
  2  1  1  0
  3  4  1  0
  3  2  1  0
  4  5  1  0
  5  1  1  0
  6  8  1  0
  5  6  1  1
  7  6  2  0
  9 10  1  0
  9  8  1  0
 10 11  2  0
 12 13  1  0
 12 10  1  0
 13 14  1  1
 14 15  1  0
 16 15  1  0
 16 20  1  0
 17 16  2  0
 18 21  1  0
 18 13  1  0
 19 18  2  0
M  END
$$$$
