PGE.pdb
     RDKit          3D

 21 21  0  0  1  0  0  0  0  0999 V2000
    7.3508  -15.0425   19.4061 N   0  0  0  0  0  0  0  0  0  0  0  0
    6.7940  -14.1363   18.3735 C   0  0  0  0  0  0  0  0  0  0  0  0
    6.8004  -12.8516   19.2162 C   0  0  0  0  0  0  0  0  0  0  0  0
    8.2386  -12.8526   19.6837 C   0  0  0  0  0  0  0  0  0  0  0  0
    8.4693  -14.3439   19.9479 C   0  0  1  0  0  0  0  0  0  0  0  0
    8.7261  -14.5084   21.3709 C   0  0  0  0  0  0  0  0  0  0  0  0
    9.8427  -14.0605   21.8022 O   0  0  0  0  0  0  0  0  0  0  0  0
    7.8569  -15.1162   22.3146 N   0  0  0  0  0  0  0  0  0  0  0  0
    8.2229  -15.1388   23.6871 C   0  0  0  0  0  0  0  0  0  0  0  0
    9.2397  -16.1511   24.0519 C   0  0  0  0  0  0  0  0  0  0  0  0
    8.9111  -17.3934   24.0649 O   0  0  0  0  0  0  0  0  0  0  0  0
   10.5814  -15.8724   24.3987 N   0  0  0  0  0  0  0  0  0  0  0  0
   11.5707  -16.9621   24.5141 C   0  0  1  0  0  0  0  0  0  0  0  0
   12.9336  -16.4387   24.2254 C   0  0  0  0  0  0  0  0  0  0  0  0
   14.0043  -17.4468   24.4830 C   0  0  0  0  0  0  0  0  0  0  0  0
   15.3437  -17.0205   24.0340 C   0  0  0  0  0  0  0  0  0  0  0  0
   15.6278  -15.8794   23.6680 O   0  0  0  0  0  0  0  0  0  0  0  0
   11.4557  -17.4917   25.8911 C   0  0  0  0  0  0  0  0  0  0  0  0
   10.9833  -16.8103   26.8171 O   0  0  0  0  0  0  0  0  0  0  0  0
   16.3433  -17.9915   24.0311 O   0  0  0  0  0  0  0  0  0  0  0  0
   11.8859  -18.7903   26.1709 O   0  0  0  0  0  0  0  0  0  0  0  0
  2  1  1  0
  3  4  1  0
  3  2  1  0
  4  5  1  0
  5  1  1  0
  6  8  1  0
  5  6  1  1
  7  6  2  0
  9 10  1  0
  9  8  1  0
 10 11  2  0
 12 13  1  0
 12 10  1  0
 13 14  1  1
 14 15  1  0
 16 15  1  0
 16 20  1  0
 17 16  2  0
 18 21  1  0
 18 13  1  0
 19 18  2  0
M  END
$$$$
