YPD.pdb
     RDKit          3D

 28 29  0  0  1  0  0  0  0  0999 V2000
    6.9342  -10.8819   26.6035 O   0  0  0  0  0  0  0  0  0  0  0  0
    6.9437  -12.2916   26.5786 C   0  0  0  0  0  0  0  0  0  0  0  0
    8.1176  -12.9893   26.3998 C   0  0  0  0  0  0  0  0  0  0  0  0
    8.0986  -14.3552   26.3794 C   0  0  0  0  0  0  0  0  0  0  0  0
    6.9365  -15.0890   26.5322 C   0  0  0  0  0  0  0  0  0  0  0  0
    7.0406  -16.5665   26.4990 C   0  0  0  0  0  0  0  0  0  0  0  0
    6.5178  -17.0520   25.1670 C   0  0  2  0  0  0  0  0  0  0  0  0
    5.8675  -18.3071   25.3016 N   0  0  0  0  0  0  0  0  0  0  0  0
    7.5259  -17.0037   24.0900 C   0  0  0  0  0  0  0  0  0  0  0  0
    8.1042  -18.1127   23.8370 O   0  0  0  0  0  0  0  0  0  0  0  0
    5.7653  -14.3901   26.7109 C   0  0  0  0  0  0  0  0  0  0  0  0
    5.7811  -13.0129   26.7319 C   0  0  0  0  0  0  0  0  0  0  0  0
    7.8952  -15.8709   23.3391 N   0  0  0  0  0  0  0  0  0  0  0  0
    7.4846  -14.4924   23.4677 C   0  0  0  0  0  0  0  0  0  0  0  0
    7.7564  -13.8409   22.1229 C   0  0  0  0  0  0  0  0  0  0  0  0
    8.1115  -15.0285   21.2179 C   0  0  0  0  0  0  0  0  0  0  0  0
    8.8269  -15.8970   22.2283 C   0  0  1  0  0  0  0  0  0  0  0  0
   10.0955  -15.2467   22.7098 C   0  0  0  0  0  0  0  0  0  0  0  0
   10.0747  -14.3631   23.6138 O   0  0  0  0  0  0  0  0  0  0  0  0
   11.3382  -15.6215   22.1498 N   0  0  0  0  0  0  0  0  0  0  0  0
   12.4047  -16.0667   23.0622 C   0  0  1  0  0  0  0  0  0  0  0  0
   11.9050  -17.2394   23.8802 C   0  0  0  0  0  0  0  0  0  0  0  0
   12.9337  -17.9199   24.6669 C   0  0  0  0  0  0  0  0  0  0  0  0
   13.6543  -17.2687   25.5028 O   0  0  0  0  0  0  0  0  0  0  0  0
   13.5834  -16.4120   22.2287 C   0  0  0  0  0  0  0  0  0  0  0  0
   13.5424  -17.2274   21.1165 O   0  0  0  0  0  0  0  0  0  0  0  0
   13.1523  -19.2692   24.5263 O   0  0  0  0  0  0  0  0  0  0  0  0
   14.6995  -15.9359   22.5475 O   0  0  0  0  0  0  0  0  0  0  0  0
  2 12  2  0
  2  1  1  0
  3  2  1  0
  4  5  1  0
  4  3  2  0
  5 11  2  0
  6  7  1  0
  6  5  1  0
  7  8  1  1
  9  7  1  0
  9 13  1  0
 10  9  2  0
 11 12  1  0
 13 14  1  0
 14 15  1  0
 16 15  1  0
 17 13  1  0
 17 16  1  0
 18 19  2  0
 17 18  1  1
 20 18  1  0
 21 20  1  0
 21 25  1  0
 21 22  1  6
 23 22  1  0
 23 24  2  0
 25 26  1  0
 27 23  1  0
 28 25  2  0
M  END
$$$$
