YPD.pdb
     RDKit          3D

 28 29  0  0  1  0  0  0  0  0999 V2000
    5.6492  -11.2906   28.7703 O   0  0  0  0  0  0  0  0  0  0  0  0
    6.2299  -12.0951   27.7687 C   0  0  0  0  0  0  0  0  0  0  0  0
    7.5408  -12.5072   27.8620 C   0  0  0  0  0  0  0  0  0  0  0  0
    8.0789  -13.2862   26.8772 C   0  0  0  0  0  0  0  0  0  0  0  0
    7.3597  -13.6910   25.7676 C   0  0  0  0  0  0  0  0  0  0  0  0
    8.0482  -14.5405   24.7678 C   0  0  0  0  0  0  0  0  0  0  0  0
    7.0352  -15.4878   24.1679 C   0  0  2  0  0  0  0  0  0  0  0  0
    6.7529  -16.5604   25.0546 N   0  0  0  0  0  0  0  0  0  0  0  0
    7.3704  -15.9091   22.7936 C   0  0  0  0  0  0  0  0  0  0  0  0
    7.2976  -17.1646   22.5773 O   0  0  0  0  0  0  0  0  0  0  0  0
    6.0507  -13.2786   25.6764 C   0  0  0  0  0  0  0  0  0  0  0  0
    5.5052  -12.4929   26.6678 C   0  0  0  0  0  0  0  0  0  0  0  0
    7.7539  -15.0689   21.7304 N   0  0  0  0  0  0  0  0  0  0  0  0
    7.9918  -13.6448   21.7063 C   0  0  0  0  0  0  0  0  0  0  0  0
    7.8497  -13.2147   20.2567 C   0  0  0  0  0  0  0  0  0  0  0  0
    7.2882  -14.4662   19.5680 C   0  0  0  0  0  0  0  0  0  0  0  0
    8.0002  -15.5272   20.3769 C   0  0  1  0  0  0  0  0  0  0  0  0
    9.4887  -15.4724   20.1637 C   0  0  0  0  0  0  0  0  0  0  0  0
   10.1964  -14.5844   20.7197 O   0  0  0  0  0  0  0  0  0  0  0  0
   10.1186  -16.4244   19.3298 N   0  0  0  0  0  0  0  0  0  0  0  0
   11.4097  -16.9823   19.7655 C   0  0  1  0  0  0  0  0  0  0  0  0
   11.2752  -17.5075   21.1797 C   0  0  0  0  0  0  0  0  0  0  0  0
   12.4893  -18.1140   21.7258 C   0  0  0  0  0  0  0  0  0  0  0  0
   13.5449  -18.2234   21.0076 O   0  0  0  0  0  0  0  0  0  0  0  0
   11.7828  -18.0420   18.7953 C   0  0  0  0  0  0  0  0  0  0  0  0
   13.0169  -18.1457   18.1872 O   0  0  0  0  0  0  0  0  0  0  0  0
   12.5252  -18.5817   23.0175 O   0  0  0  0  0  0  0  0  0  0  0  0
   10.9253  -18.9088   18.4997 O   0  0  0  0  0  0  0  0  0  0  0  0
  2 12  2  0
  2  1  1  0
  3  2  1  0
  4  5  1  0
  4  3  2  0
  5 11  2  0
  6  7  1  0
  6  5  1  0
  7  8  1  1
  9  7  1  0
  9 13  1  0
 10  9  2  0
 11 12  1  0
 13 14  1  0
 14 15  1  0
 16 15  1  0
 17 13  1  0
 17 16  1  0
 18 19  2  0
 17 18  1  6
 20 18  1  0
 21 20  1  0
 21 25  1  0
 21 22  1  1
 23 22  1  0
 23 24  2  0
 25 26  1  0
 27 23  1  0
 28 25  2  0
M  END
$$$$
