YPD.pdb
     RDKit          3D

 28 29  0  0  1  0  0  0  0  0999 V2000
    5.4942  -10.3267   27.9932 O   0  0  0  0  0  0  0  0  0  0  0  0
    6.1644  -11.3487   27.2902 C   0  0  0  0  0  0  0  0  0  0  0  0
    6.1554  -11.3854   25.9135 C   0  0  0  0  0  0  0  0  0  0  0  0
    6.8128  -12.3871   25.2571 C   0  0  0  0  0  0  0  0  0  0  0  0
    7.5014  -13.3876   25.9181 C   0  0  0  0  0  0  0  0  0  0  0  0
    8.1818  -14.4179   25.0992 C   0  0  0  0  0  0  0  0  0  0  0  0
    7.1296  -15.3160   24.4912 C   0  0  2  0  0  0  0  0  0  0  0  0
    6.5956  -16.2046   25.4616 N   0  0  0  0  0  0  0  0  0  0  0  0
    7.5699  -15.9725   23.2447 C   0  0  0  0  0  0  0  0  0  0  0  0
    7.4581  -17.2435   23.2314 O   0  0  0  0  0  0  0  0  0  0  0  0
    7.5093  -13.3491   27.2931 C   0  0  0  0  0  0  0  0  0  0  0  0
    6.8474  -12.3403   27.9578 C   0  0  0  0  0  0  0  0  0  0  0  0
    8.0891  -15.3352   22.1011 N   0  0  0  0  0  0  0  0  0  0  0  0
    8.3463  -13.9369   21.8487 C   0  0  0  0  0  0  0  0  0  0  0  0
    8.3850  -13.7778   20.3388 C   0  0  0  0  0  0  0  0  0  0  0  0
    7.8944  -15.1385   19.8254 C   0  0  0  0  0  0  0  0  0  0  0  0
    8.4905  -16.0287   20.8926 C   0  0  1  0  0  0  0  0  0  0  0  0
    9.9943  -15.9996   20.8540 C   0  0  0  0  0  0  0  0  0  0  0  0
   10.6511  -15.1904   21.5698 O   0  0  0  0  0  0  0  0  0  0  0  0
   10.6967  -16.8872   20.0071 N   0  0  0  0  0  0  0  0  0  0  0  0
   11.9633  -17.4571   20.4962 C   0  0  1  0  0  0  0  0  0  0  0  0
   11.7093  -18.2014   21.7906 C   0  0  0  0  0  0  0  0  0  0  0  0
   12.5715  -17.8053   22.9041 C   0  0  0  0  0  0  0  0  0  0  0  0
   13.5300  -16.9739   22.7246 O   0  0  0  0  0  0  0  0  0  0  0  0
   12.4942  -18.3374   19.4254 C   0  0  0  0  0  0  0  0  0  0  0  0
   11.7237  -18.9264   18.4441 O   0  0  0  0  0  0  0  0  0  0  0  0
   12.3759  -18.3162   24.1646 O   0  0  0  0  0  0  0  0  0  0  0  0
   13.7269  -18.5694   19.4004 O   0  0  0  0  0  0  0  0  0  0  0  0
  2 12  2  0
  2  1  1  0
  3  2  1  0
  4  5  1  0
  4  3  2  0
  5 11  2  0
  6  7  1  0
  6  5  1  0
  7  8  1  1
  9  7  1  0
  9 13  1  0
 10  9  2  0
 11 12  1  0
 13 14  1  0
 14 15  1  0
 16 15  1  0
 17 13  1  0
 17 16  1  0
 18 19  2  0
 17 18  1  6
 20 18  1  0
 21 20  1  0
 21 25  1  0
 21 22  1  1
 23 22  1  0
 23 24  2  0
 25 26  1  0
 27 23  1  0
 28 25  2  0
M  END
$$$$
