YPD.pdb
     RDKit          3D

 28 29  0  0  1  0  0  0  0  0999 V2000
    8.0872  -19.2056   19.4971 O   0  0  0  0  0  0  0  0  0  0  0  0
    7.6484  -17.9600   19.9909 C   0  0  0  0  0  0  0  0  0  0  0  0
    7.7995  -16.8101   19.2481 C   0  0  0  0  0  0  0  0  0  0  0  0
    7.3657  -15.6160   19.7503 C   0  0  0  0  0  0  0  0  0  0  0  0
    6.7700  -15.4999   20.9929 C   0  0  0  0  0  0  0  0  0  0  0  0
    6.3340  -14.1528   21.4291 C   0  0  0  0  0  0  0  0  0  0  0  0
    7.5596  -13.2844   21.5938 C   0  0  2  0  0  0  0  0  0  0  0  0
    8.3566  -13.2998   20.4187 N   0  0  0  0  0  0  0  0  0  0  0  0
    8.3069  -13.5569   22.8371 C   0  0  0  0  0  0  0  0  0  0  0  0
    9.5455  -13.8201   22.6798 O   0  0  0  0  0  0  0  0  0  0  0  0
    6.6199  -16.6496   21.7331 C   0  0  0  0  0  0  0  0  0  0  0  0
    7.0564  -17.8551   21.2294 C   0  0  0  0  0  0  0  0  0  0  0  0
    7.7854  -13.5526   24.1454 N   0  0  0  0  0  0  0  0  0  0  0  0
    6.4408  -13.3098   24.6125 C   0  0  0  0  0  0  0  0  0  0  0  0
    6.5637  -12.9114   26.0729 C   0  0  0  0  0  0  0  0  0  0  0  0
    8.0758  -12.7322   26.2663 C   0  0  0  0  0  0  0  0  0  0  0  0
    8.5688  -13.8180   25.3364 C   0  0  1  0  0  0  0  0  0  0  0  0
    8.1670  -15.1830   25.8255 C   0  0  0  0  0  0  0  0  0  0  0  0
    7.1128  -15.7427   25.4084 O   0  0  0  0  0  0  0  0  0  0  0  0
    8.9735  -15.8618   26.7674 N   0  0  0  0  0  0  0  0  0  0  0  0
    9.7691  -17.0096   26.3008 C   0  0  1  0  0  0  0  0  0  0  0  0
   10.6862  -16.5600   25.1823 C   0  0  0  0  0  0  0  0  0  0  0  0
   11.6409  -17.5715   24.7293 C   0  0  0  0  0  0  0  0  0  0  0  0
   12.8028  -17.6586   25.2627 O   0  0  0  0  0  0  0  0  0  0  0  0
   10.5125  -17.5371   27.4722 C   0  0  0  0  0  0  0  0  0  0  0  0
   11.4444  -16.8203   28.1942 O   0  0  0  0  0  0  0  0  0  0  0  0
   11.3159  -18.4478   23.7220 O   0  0  0  0  0  0  0  0  0  0  0  0
   10.2867  -18.7149   27.8410 O   0  0  0  0  0  0  0  0  0  0  0  0
  2 12  2  0
  2  1  1  0
  3  2  1  0
  4  5  1  0
  4  3  2  0
  5 11  2  0
  6  7  1  0
  6  5  1  0
  7  8  1  6
  9  7  1  0
  9 13  1  0
 10  9  2  0
 11 12  1  0
 13 14  1  0
 14 15  1  0
 16 15  1  0
 17 13  1  0
 17 16  1  0
 18 19  2  0
 17 18  1  1
 20 18  1  0
 21 20  1  0
 21 25  1  0
 21 22  1  6
 23 22  1  0
 23 24  2  0
 25 26  1  0
 27 23  1  0
 28 25  2  0
M  END
$$$$
