YPD.pdb
     RDKit          3D

 28 29  0  0  1  0  0  0  0  0999 V2000
   11.1436  -14.8046   29.8157 O   0  0  0  0  0  0  0  0  0  0  0  0
   10.1617  -14.7693   28.8046 C   0  0  0  0  0  0  0  0  0  0  0  0
    9.2150  -13.7696   28.7707 C   0  0  0  0  0  0  0  0  0  0  0  0
    8.2745  -13.7591   27.7799 C   0  0  0  0  0  0  0  0  0  0  0  0
    8.2230  -14.7212   26.7880 C   0  0  0  0  0  0  0  0  0  0  0  0
    7.1609  -14.6024   25.7619 C   0  0  0  0  0  0  0  0  0  0  0  0
    6.7445  -15.9931   25.3426 C   0  0  2  0  0  0  0  0  0  0  0  0
    6.8319  -16.9011   26.4309 N   0  0  0  0  0  0  0  0  0  0  0  0
    7.4119  -16.4571   24.1105 C   0  0  0  0  0  0  0  0  0  0  0  0
    7.6481  -17.7100   24.0595 O   0  0  0  0  0  0  0  0  0  0  0  0
    9.1696  -15.7186   26.8235 C   0  0  0  0  0  0  0  0  0  0  0  0
   10.1191  -15.7320   27.8213 C   0  0  0  0  0  0  0  0  0  0  0  0
    7.8004  -15.6587   23.0174 N   0  0  0  0  0  0  0  0  0  0  0  0
    7.7312  -14.2277   22.8365 C   0  0  0  0  0  0  0  0  0  0  0  0
    7.7748  -13.9862   21.3377 C   0  0  0  0  0  0  0  0  0  0  0  0
    7.6305  -15.3952   20.7464 C   0  0  0  0  0  0  0  0  0  0  0  0
    8.3871  -16.1769   21.7968 C   0  0  1  0  0  0  0  0  0  0  0  0
    9.8431  -15.7980   21.8194 C   0  0  0  0  0  0  0  0  0  0  0  0
   10.2897  -14.9690   22.6631 O   0  0  0  0  0  0  0  0  0  0  0  0
   10.7371  -16.3717   20.8868 N   0  0  0  0  0  0  0  0  0  0  0  0
   12.0756  -16.7638   21.3590 C   0  0  1  0  0  0  0  0  0  0  0  0
   11.9338  -17.7491   22.5005 C   0  0  0  0  0  0  0  0  0  0  0  0
   13.1964  -18.2942   22.9993 C   0  0  0  0  0  0  0  0  0  0  0  0
   14.2934  -17.6509   22.8417 O   0  0  0  0  0  0  0  0  0  0  0  0
   12.8038  -17.3346   20.1983 C   0  0  0  0  0  0  0  0  0  0  0  0
   14.0835  -16.9779   19.8261 O   0  0  0  0  0  0  0  0  0  0  0  0
   13.2357  -19.5067   23.6446 O   0  0  0  0  0  0  0  0  0  0  0  0
   12.2262  -18.2020   19.4997 O   0  0  0  0  0  0  0  0  0  0  0  0
  2 12  2  0
  2  1  1  0
  3  2  1  0
  4  5  1  0
  4  3  2  0
  5 11  2  0
  6  7  1  0
  6  5  1  0
  7  8  1  1
  9  7  1  0
  9 13  1  0
 10  9  2  0
 11 12  1  0
 13 14  1  0
 14 15  1  0
 16 15  1  0
 17 13  1  0
 17 16  1  0
 18 19  2  0
 17 18  1  1
 20 18  1  0
 21 20  1  0
 21 25  1  0
 21 22  1  1
 23 22  1  0
 23 24  2  0
 25 26  1  0
 27 23  1  0
 28 25  2  0
M  END
$$$$
