YPD.pdb
     RDKit          3D

 28 29  0  0  1  0  0  0  0  0999 V2000
    5.3672  -10.4173   28.3512 O   0  0  0  0  0  0  0  0  0  0  0  0
    5.9809  -11.3460   27.4859 C   0  0  0  0  0  0  0  0  0  0  0  0
    7.1959  -11.9127   27.8010 C   0  0  0  0  0  0  0  0  0  0  0  0
    7.7686  -12.8099   26.9446 C   0  0  0  0  0  0  0  0  0  0  0  0
    7.1786  -13.1863   25.7520 C   0  0  0  0  0  0  0  0  0  0  0  0
    7.8915  -14.1729   24.9073 C   0  0  0  0  0  0  0  0  0  0  0  0
    6.8971  -15.2128   24.4455 C   0  0  2  0  0  0  0  0  0  0  0  0
    6.4936  -16.0457   25.5225 N   0  0  0  0  0  0  0  0  0  0  0  0
    7.3346  -15.9468   23.2420 C   0  0  0  0  0  0  0  0  0  0  0  0
    7.0213  -17.1835   23.2162 O   0  0  0  0  0  0  0  0  0  0  0  0
    5.9650  -12.6193   25.4392 C   0  0  0  0  0  0  0  0  0  0  0  0
    5.3850  -11.7143   26.3007 C   0  0  0  0  0  0  0  0  0  0  0  0
    8.0487  -15.4154   22.1507 N   0  0  0  0  0  0  0  0  0  0  0  0
    8.6499  -14.1143   21.9743 C   0  0  0  0  0  0  0  0  0  0  0  0
    8.8005  -13.9155   20.4761 C   0  0  0  0  0  0  0  0  0  0  0  0
    8.0203  -15.0955   19.8807 C   0  0  0  0  0  0  0  0  0  0  0  0
    8.3290  -16.1422   20.9277 C   0  0  1  0  0  0  0  0  0  0  0  0
    9.7949  -16.4805   20.9493 C   0  0  0  0  0  0  0  0  0  0  0  0
   10.6437  -15.6785   21.4339 O   0  0  0  0  0  0  0  0  0  0  0  0
   10.2436  -17.7130   20.4220 N   0  0  0  0  0  0  0  0  0  0  0  0
   11.6310  -18.1220   20.6977 C   0  0  1  0  0  0  0  0  0  0  0  0
   11.6593  -19.5990   21.0320 C   0  0  0  0  0  0  0  0  0  0  0  0
   10.9093  -19.9697   22.2320 C   0  0  0  0  0  0  0  0  0  0  0  0
   11.2762  -19.5525   23.3867 O   0  0  0  0  0  0  0  0  0  0  0  0
   12.4357  -17.7928   19.4947 C   0  0  0  0  0  0  0  0  0  0  0  0
   13.8123  -17.8620   19.4321 O   0  0  0  0  0  0  0  0  0  0  0  0
    9.7981  -20.7740   22.1496 O   0  0  0  0  0  0  0  0  0  0  0  0
   11.8342  -17.4249   18.4570 O   0  0  0  0  0  0  0  0  0  0  0  0
  2 12  2  0
  2  1  1  0
  3  2  1  0
  4  5  1  0
  4  3  2  0
  5 11  2  0
  6  7  1  0
  6  5  1  0
  7  8  1  1
  9  7  1  0
  9 13  1  0
 10  9  2  0
 11 12  1  0
 13 14  1  0
 14 15  1  0
 16 15  1  0
 17 13  1  0
 17 16  1  0
 18 19  2  0
 17 18  1  1
 20 18  1  0
 21 20  1  0
 21 25  1  0
 21 22  1  6
 23 22  1  0
 23 24  2  0
 25 26  1  0
 27 23  1  0
 28 25  2  0
M  END
$$$$
