YPD.pdb
     RDKit          3D

 28 29  0  0  1  0  0  0  0  0999 V2000
    6.3629  -10.5670   26.9823 O   0  0  0  0  0  0  0  0  0  0  0  0
    6.7341  -11.9079   26.7537 C   0  0  0  0  0  0  0  0  0  0  0  0
    8.0003  -12.2280   26.3166 C   0  0  0  0  0  0  0  0  0  0  0  0
    8.3339  -13.5354   26.1026 C   0  0  0  0  0  0  0  0  0  0  0  0
    7.4466  -14.5762   26.3067 C   0  0  0  0  0  0  0  0  0  0  0  0
    7.9239  -15.9546   26.0472 C   0  0  0  0  0  0  0  0  0  0  0  0
    6.9230  -16.6454   25.1503 C   0  0  2  0  0  0  0  0  0  0  0  0
    6.3163  -17.7439   25.8149 N   0  0  0  0  0  0  0  0  0  0  0  0
    7.4595  -16.9665   23.8133 C   0  0  0  0  0  0  0  0  0  0  0  0
    7.6361  -18.2090   23.5829 O   0  0  0  0  0  0  0  0  0  0  0  0
    6.1826  -14.2543   26.7436 C   0  0  0  0  0  0  0  0  0  0  0  0
    5.8432  -12.9370   26.9601 C   0  0  0  0  0  0  0  0  0  0  0  0
    7.7850  -16.0457   22.7985 N   0  0  0  0  0  0  0  0  0  0  0  0
    7.6564  -14.6078   22.7678 C   0  0  0  0  0  0  0  0  0  0  0  0
    7.6465  -14.2134   21.3011 C   0  0  0  0  0  0  0  0  0  0  0  0
    7.5381  -15.5595   20.5718 C   0  0  0  0  0  0  0  0  0  0  0  0
    8.3545  -16.4127   21.5165 C   0  0  1  0  0  0  0  0  0  0  0  0
    9.7952  -15.9791   21.5408 C   0  0  0  0  0  0  0  0  0  0  0  0
   10.1938  -15.0797   22.3350 O   0  0  0  0  0  0  0  0  0  0  0  0
   10.7288  -16.5800   20.6658 N   0  0  0  0  0  0  0  0  0  0  0  0
   12.0320  -16.9891   21.2159 C   0  0  1  0  0  0  0  0  0  0  0  0
   11.8112  -17.9849   22.3355 C   0  0  0  0  0  0  0  0  0  0  0  0
   13.0347  -18.5640   22.8901 C   0  0  0  0  0  0  0  0  0  0  0  0
   14.0057  -17.8122   23.2563 O   0  0  0  0  0  0  0  0  0  0  0  0
   12.8260  -17.5544   20.0964 C   0  0  0  0  0  0  0  0  0  0  0  0
   14.1278  -17.2019   19.8052 O   0  0  0  0  0  0  0  0  0  0  0  0
   13.1721  -19.9242   23.0286 O   0  0  0  0  0  0  0  0  0  0  0  0
   12.2873  -18.4128   19.3569 O   0  0  0  0  0  0  0  0  0  0  0  0
  2 12  2  0
  2  1  1  0
  3  2  1  0
  4  5  1  0
  4  3  2  0
  5 11  2  0
  6  7  1  0
  6  5  1  0
  7  8  1  1
  9  7  1  0
  9 13  1  0
 10  9  2  0
 11 12  1  0
 13 14  1  0
 14 15  1  0
 16 15  1  0
 17 13  1  0
 17 16  1  0
 18 19  2  0
 17 18  1  1
 20 18  1  0
 21 20  1  0
 21 25  1  0
 21 22  1  1
 23 22  1  0
 23 24  2  0
 25 26  1  0
 27 23  1  0
 28 25  2  0
M  END
$$$$
