YPD.pdb
     RDKit          3D

 28 29  0  0  1  0  0  0  0  0999 V2000
    5.9293  -10.2460   27.2378 O   0  0  0  0  0  0  0  0  0  0  0  0
    6.3942  -11.4737   26.7235 C   0  0  0  0  0  0  0  0  0  0  0  0
    5.8623  -12.6691   27.1535 C   0  0  0  0  0  0  0  0  0  0  0  0
    6.3312  -13.8445   26.6389 C   0  0  0  0  0  0  0  0  0  0  0  0
    7.3340  -13.8969   25.6882 C   0  0  0  0  0  0  0  0  0  0  0  0
    7.7562  -15.2303   25.1993 C   0  0  0  0  0  0  0  0  0  0  0  0
    6.6834  -15.7624   24.2777 C   0  0  2  0  0  0  0  0  0  0  0  0
    5.8593  -16.7059   24.9464 N   0  0  0  0  0  0  0  0  0  0  0  0
    7.2063  -16.2273   22.9781 C   0  0  0  0  0  0  0  0  0  0  0  0
    6.8882  -17.4215   22.6604 O   0  0  0  0  0  0  0  0  0  0  0  0
    7.8637  -12.7019   25.2599 C   0  0  0  0  0  0  0  0  0  0  0  0
    7.3930  -11.5150   25.7770 C   0  0  0  0  0  0  0  0  0  0  0  0
    8.0043  -15.4878   22.0839 N   0  0  0  0  0  0  0  0  0  0  0  0
    8.6066  -14.1837   22.2311 C   0  0  0  0  0  0  0  0  0  0  0  0
    8.8800  -13.6806   20.8244 C   0  0  0  0  0  0  0  0  0  0  0  0
    8.1627  -14.7052   19.9348 C   0  0  0  0  0  0  0  0  0  0  0  0
    8.3921  -15.9484   20.7648 C   0  0  1  0  0  0  0  0  0  0  0  0
    9.8541  -16.2965   20.8383 C   0  0  0  0  0  0  0  0  0  0  0  0
   10.6788  -15.5352   21.4205 O   0  0  0  0  0  0  0  0  0  0  0  0
   10.3262  -17.4923   20.2505 N   0  0  0  0  0  0  0  0  0  0  0  0
   11.7592  -17.8077   20.3738 C   0  0  1  0  0  0  0  0  0  0  0  0
   12.5258  -17.0814   19.2881 C   0  0  0  0  0  0  0  0  0  0  0  0
   12.3853  -17.6561   17.9502 C   0  0  0  0  0  0  0  0  0  0  0  0
   11.7603  -18.7611   17.7761 O   0  0  0  0  0  0  0  0  0  0  0  0
   12.1837  -17.4073   21.7387 C   0  0  0  0  0  0  0  0  0  0  0  0
   11.4208  -16.6506   22.6041 O   0  0  0  0  0  0  0  0  0  0  0  0
   12.9211  -17.0273   16.8520 O   0  0  0  0  0  0  0  0  0  0  0  0
   13.3120  -17.7762   22.1447 O   0  0  0  0  0  0  0  0  0  0  0  0
  2 12  2  0
  2  1  1  0
  3  2  1  0
  4  5  1  0
  4  3  2  0
  5 11  2  0
  6  7  1  0
  6  5  1  0
  7  8  1  1
  9  7  1  0
  9 13  1  0
 10  9  2  0
 11 12  1  0
 13 14  1  0
 14 15  1  0
 16 15  1  0
 17 13  1  0
 17 16  1  0
 18 19  2  0
 17 18  1  1
 20 18  1  0
 21 20  1  0
 21 25  1  0
 21 22  1  6
 23 22  1  0
 23 24  2  0
 25 26  1  0
 27 23  1  0
 28 25  2  0
M  END
$$$$
