YPD.pdb
     RDKit          3D

 28 29  0  0  1  0  0  0  0  0999 V2000
    5.5161  -10.5358   28.4532 O   0  0  0  0  0  0  0  0  0  0  0  0
    6.1308  -11.5324   27.6677 C   0  0  0  0  0  0  0  0  0  0  0  0
    7.1470  -12.3098   28.1772 C   0  0  0  0  0  0  0  0  0  0  0  0
    7.7257  -13.2684   27.3946 C   0  0  0  0  0  0  0  0  0  0  0  0
    7.3352  -13.5032   26.0889 C   0  0  0  0  0  0  0  0  0  0  0  0
    8.0320  -14.5745   25.3394 C   0  0  0  0  0  0  0  0  0  0  0  0
    6.9926  -15.4345   24.6586 C   0  0  2  0  0  0  0  0  0  0  0  0
    6.4694  -16.4054   25.5529 N   0  0  0  0  0  0  0  0  0  0  0  0
    7.4431  -15.9824   23.3642 C   0  0  0  0  0  0  0  0  0  0  0  0
    7.2141  -17.2257   23.1914 O   0  0  0  0  0  0  0  0  0  0  0  0
    6.3199  -12.7258   25.5820 C   0  0  0  0  0  0  0  0  0  0  0  0
    5.7345  -11.7584   26.3687 C   0  0  0  0  0  0  0  0  0  0  0  0
    8.0866  -15.2716   22.3327 N   0  0  0  0  0  0  0  0  0  0  0  0
    8.5528  -13.9055   22.2916 C   0  0  0  0  0  0  0  0  0  0  0  0
    8.6636  -13.5384   20.8220 C   0  0  0  0  0  0  0  0  0  0  0  0
    7.9973  -14.7228   20.1086 C   0  0  0  0  0  0  0  0  0  0  0  0
    8.4222  -15.8360   21.0398 C   0  0  1  0  0  0  0  0  0  0  0  0
    9.9147  -16.0257   21.0225 C   0  0  0  0  0  0  0  0  0  0  0  0
   10.6765  -15.2779   21.7000 O   0  0  0  0  0  0  0  0  0  0  0  0
   10.4874  -17.0540   20.2396 N   0  0  0  0  0  0  0  0  0  0  0  0
   11.8838  -17.4356   20.5089 C   0  0  1  0  0  0  0  0  0  0  0  0
   12.5722  -16.3145   21.2593 C   0  0  0  0  0  0  0  0  0  0  0  0
   13.9851  -16.5523   21.5544 C   0  0  0  0  0  0  0  0  0  0  0  0
   14.6418  -17.4532   20.9228 O   0  0  0  0  0  0  0  0  0  0  0  0
   11.8543  -18.7047   21.2784 C   0  0  0  0  0  0  0  0  0  0  0  0
   12.7421  -19.7461   21.1027 O   0  0  0  0  0  0  0  0  0  0  0  0
   14.6387  -15.8187   22.5151 O   0  0  0  0  0  0  0  0  0  0  0  0
   10.9655  -18.8524   22.1514 O   0  0  0  0  0  0  0  0  0  0  0  0
  2 12  2  0
  2  1  1  0
  3  2  1  0
  4  5  1  0
  4  3  2  0
  5 11  2  0
  6  7  1  0
  6  5  1  0
  7  8  1  1
  9  7  1  0
  9 13  1  0
 10  9  2  0
 11 12  1  0
 13 14  1  0
 14 15  1  0
 16 15  1  0
 17 13  1  0
 17 16  1  0
 18 19  2  0
 17 18  1  1
 20 18  1  0
 21 20  1  0
 21 25  1  0
 21 22  1  1
 23 22  1  0
 23 24  2  0
 25 26  1  0
 27 23  1  0
 28 25  2  0
M  END
$$$$
