YPD.pdb
     RDKit          3D

 28 29  0  0  1  0  0  0  0  0999 V2000
    9.8992  -13.7545   30.8289 O   0  0  0  0  0  0  0  0  0  0  0  0
    9.7788  -14.1579   29.4833 C   0  0  0  0  0  0  0  0  0  0  0  0
   10.3993  -15.2999   29.0276 C   0  0  0  0  0  0  0  0  0  0  0  0
   10.2665  -15.6680   27.7187 C   0  0  0  0  0  0  0  0  0  0  0  0
    9.5254  -14.9372   26.8082 C   0  0  0  0  0  0  0  0  0  0  0  0
    9.4485  -15.4385   25.4161 C   0  0  0  0  0  0  0  0  0  0  0  0
    8.1236  -16.1422   25.2348 C   0  0  2  0  0  0  0  0  0  0  0  0
    7.9584  -17.1732   26.1972 N   0  0  0  0  0  0  0  0  0  0  0  0
    7.8714  -16.5653   23.8434 C   0  0  0  0  0  0  0  0  0  0  0  0
    7.6516  -17.8123   23.6861 O   0  0  0  0  0  0  0  0  0  0  0  0
    8.9064  -13.7970   27.2654 C   0  0  0  0  0  0  0  0  0  0  0  0
    9.0384  -13.4232   28.5846 C   0  0  0  0  0  0  0  0  0  0  0  0
    7.8539  -15.7349   22.7060 N   0  0  0  0  0  0  0  0  0  0  0  0
    7.9278  -14.2966   22.6002 C   0  0  0  0  0  0  0  0  0  0  0  0
    7.3427  -13.9397   21.2449 C   0  0  0  0  0  0  0  0  0  0  0  0
    6.7430  -15.2653   20.7563 C   0  0  0  0  0  0  0  0  0  0  0  0
    7.7580  -16.2206   21.3431 C   0  0  1  0  0  0  0  0  0  0  0  0
    9.1136  -16.0321   20.7182 C   0  0  0  0  0  0  0  0  0  0  0  0
    9.8529  -15.0588   21.0416 O   0  0  0  0  0  0  0  0  0  0  0  0
    9.5803  -16.9522   19.7517 N   0  0  0  0  0  0  0  0  0  0  0  0
   11.0133  -17.2907   19.7506 C   0  0  1  0  0  0  0  0  0  0  0  0
   11.3791  -17.9196   21.0790 C   0  0  0  0  0  0  0  0  0  0  0  0
   12.7636  -18.3817   21.1771 C   0  0  0  0  0  0  0  0  0  0  0  0
   13.6607  -17.6466   21.7221 O   0  0  0  0  0  0  0  0  0  0  0  0
   11.2512  -18.2009   18.6024 C   0  0  0  0  0  0  0  0  0  0  0  0
   10.5530  -19.3686   18.3728 O   0  0  0  0  0  0  0  0  0  0  0  0
   13.1341  -19.6105   20.6862 O   0  0  0  0  0  0  0  0  0  0  0  0
   12.1464  -17.8985   17.7770 O   0  0  0  0  0  0  0  0  0  0  0  0
  2 12  2  0
  2  1  1  0
  3  2  1  0
  4  5  1  0
  4  3  2  0
  5 11  2  0
  6  7  1  0
  6  5  1  0
  7  8  1  1
  9  7  1  0
  9 13  1  0
 10  9  2  0
 11 12  1  0
 13 14  1  0
 14 15  1  0
 16 15  1  0
 17 13  1  0
 17 16  1  0
 18 19  2  0
 17 18  1  6
 20 18  1  0
 21 20  1  0
 21 25  1  0
 21 22  1  1
 23 22  1  0
 23 24  2  0
 25 26  1  0
 27 23  1  0
 28 25  2  0
M  END
$$$$
