YPD.pdb
     RDKit          3D

 28 29  0  0  1  0  0  0  0  0999 V2000
    5.6900  -10.0744   27.0476 O   0  0  0  0  0  0  0  0  0  0  0  0
    6.1054  -11.3894   26.7540 C   0  0  0  0  0  0  0  0  0  0  0  0
    7.3903  -11.6489   26.3314 C   0  0  0  0  0  0  0  0  0  0  0  0
    7.7669  -12.9324   26.0534 C   0  0  0  0  0  0  0  0  0  0  0  0
    6.9059  -14.0074   26.1770 C   0  0  0  0  0  0  0  0  0  0  0  0
    7.4292  -15.3551   25.8531 C   0  0  0  0  0  0  0  0  0  0  0  0
    6.5621  -15.9566   24.7716 C   0  0  2  0  0  0  0  0  0  0  0  0
    5.6763  -16.9272   25.3097 N   0  0  0  0  0  0  0  0  0  0  0  0
    7.3278  -16.4190   23.5975 C   0  0  0  0  0  0  0  0  0  0  0  0
    7.1890  -17.6546   23.3107 O   0  0  0  0  0  0  0  0  0  0  0  0
    5.6231  -13.7460   26.5994 C   0  0  0  0  0  0  0  0  0  0  0  0
    5.2404  -12.4529   26.8804 C   0  0  0  0  0  0  0  0  0  0  0  0
    8.1754  -15.6364   22.7896 N   0  0  0  0  0  0  0  0  0  0  0  0
    8.6222  -14.2731   22.9533 C   0  0  0  0  0  0  0  0  0  0  0  0
    9.0518  -13.7984   21.5760 C   0  0  0  0  0  0  0  0  0  0  0  0
    8.5750  -14.9238   20.6476 C   0  0  0  0  0  0  0  0  0  0  0  0
    8.7964  -16.1048   21.5658 C   0  0  1  0  0  0  0  0  0  0  0  0
   10.2578  -16.2990   21.8667 C   0  0  0  0  0  0  0  0  0  0  0  0
   10.8510  -15.5784   22.7195 O   0  0  0  0  0  0  0  0  0  0  0  0
   10.9912  -17.3012   21.1913 N   0  0  0  0  0  0  0  0  0  0  0  0
   12.3578  -17.5929   21.6553 C   0  0  1  0  0  0  0  0  0  0  0  0
   13.0477  -16.2959   22.0240 C   0  0  0  0  0  0  0  0  0  0  0  0
   14.3708  -16.1147   21.4269 C   0  0  0  0  0  0  0  0  0  0  0  0
   14.6860  -16.7186   20.3416 O   0  0  0  0  0  0  0  0  0  0  0  0
   12.2445  -18.5265   22.8036 C   0  0  0  0  0  0  0  0  0  0  0  0
   11.4317  -18.3225   23.8998 O   0  0  0  0  0  0  0  0  0  0  0  0
   15.3049  -15.2967   22.0157 O   0  0  0  0  0  0  0  0  0  0  0  0
   12.9301  -19.5771   22.7882 O   0  0  0  0  0  0  0  0  0  0  0  0
  2 12  2  0
  2  1  1  0
  3  2  1  0
  4  5  1  0
  4  3  2  0
  5 11  2  0
  6  7  1  0
  6  5  1  0
  7  8  1  1
  9  7  1  0
  9 13  1  0
 10  9  2  0
 11 12  1  0
 13 14  1  0
 14 15  1  0
 16 15  1  0
 17 13  1  0
 17 16  1  0
 18 19  2  0
 17 18  1  1
 20 18  1  0
 21 20  1  0
 21 25  1  0
 21 22  1  1
 23 22  1  0
 23 24  2  0
 25 26  1  0
 27 23  1  0
 28 25  2  0
M  END
$$$$
