YPD.pdb
     RDKit          3D

 28 29  0  0  1  0  0  0  0  0999 V2000
   11.4123  -15.1357   29.4716 O   0  0  0  0  0  0  0  0  0  0  0  0
   10.2987  -14.9973   28.6179 C   0  0  0  0  0  0  0  0  0  0  0  0
    9.9753  -13.7772   28.0672 C   0  0  0  0  0  0  0  0  0  0  0  0
    8.8908  -13.6707   27.2433 C   0  0  0  0  0  0  0  0  0  0  0  0
    8.0836  -14.7481   26.9271 C   0  0  0  0  0  0  0  0  0  0  0  0
    6.9384  -14.5125   26.0172 C   0  0  0  0  0  0  0  0  0  0  0  0
    6.4248  -15.8510   25.5398 C   0  0  2  0  0  0  0  0  0  0  0  0
    6.3240  -16.7715   26.6163 N   0  0  0  0  0  0  0  0  0  0  0  0
    7.1499  -16.3702   24.3637 C   0  0  0  0  0  0  0  0  0  0  0  0
    7.2386  -17.6414   24.2979 O   0  0  0  0  0  0  0  0  0  0  0  0
    8.4086  -15.9659   27.4781 C   0  0  0  0  0  0  0  0  0  0  0  0
    9.5015  -16.0765   28.3092 C   0  0  0  0  0  0  0  0  0  0  0  0
    7.7367  -15.6052   23.3371 N   0  0  0  0  0  0  0  0  0  0  0  0
    7.9841  -14.1847   23.2577 C   0  0  0  0  0  0  0  0  0  0  0  0
    8.1270  -13.8602   21.7809 C   0  0  0  0  0  0  0  0  0  0  0  0
    7.7006  -15.1617   21.0881 C   0  0  0  0  0  0  0  0  0  0  0  0
    8.2363  -16.1570   22.0927 C   0  0  1  0  0  0  0  0  0  0  0  0
    9.7383  -16.1066   22.1670 C   0  0  0  0  0  0  0  0  0  0  0  0
   10.3312  -15.1805   22.7910 O   0  0  0  0  0  0  0  0  0  0  0  0
   10.5111  -17.1061   21.5328 N   0  0  0  0  0  0  0  0  0  0  0  0
   11.9533  -17.1582   21.8251 C   0  0  1  0  0  0  0  0  0  0  0  0
   12.3213  -18.5565   22.2759 C   0  0  0  0  0  0  0  0  0  0  0  0
   11.8565  -18.9097   23.6172 C   0  0  0  0  0  0  0  0  0  0  0  0
   12.0853  -18.1361   24.6128 O   0  0  0  0  0  0  0  0  0  0  0  0
   12.6691  -16.7485   20.5910 C   0  0  0  0  0  0  0  0  0  0  0  0
   14.0059  -16.4111   20.5381 O   0  0  0  0  0  0  0  0  0  0  0  0
   11.1677  -20.0776   23.8408 O   0  0  0  0  0  0  0  0  0  0  0  0
   12.0250  -16.7020   19.5153 O   0  0  0  0  0  0  0  0  0  0  0  0
  2 12  2  0
  2  1  1  0
  3  2  1  0
  4  5  1  0
  4  3  2  0
  5 11  2  0
  6  7  1  0
  6  5  1  0
  7  8  1  1
  9  7  1  0
  9 13  1  0
 10  9  2  0
 11 12  1  0
 13 14  1  0
 14 15  1  0
 16 15  1  0
 17 13  1  0
 17 16  1  0
 18 19  2  0
 17 18  1  1
 20 18  1  0
 21 20  1  0
 21 25  1  0
 21 22  1  6
 23 22  1  0
 23 24  2  0
 25 26  1  0
 27 23  1  0
 28 25  2  0
M  END
$$$$
