YPD.pdb
     RDKit          3D

 28 29  0  0  1  0  0  0  0  0999 V2000
   11.6040  -14.9869   29.1147 O   0  0  0  0  0  0  0  0  0  0  0  0
   10.3902  -14.9813   28.3975 C   0  0  0  0  0  0  0  0  0  0  0  0
   10.0009  -13.8776   27.6716 C   0  0  0  0  0  0  0  0  0  0  0  0
    8.8196  -13.8986   26.9857 C   0  0  0  0  0  0  0  0  0  0  0  0
    7.9764  -14.9947   26.9829 C   0  0  0  0  0  0  0  0  0  0  0  0
    6.7240  -14.9033   26.1966 C   0  0  0  0  0  0  0  0  0  0  0  0
    6.4212  -16.2674   25.6212 C   0  0  2  0  0  0  0  0  0  0  0  0
    6.4378  -17.2627   26.6338 N   0  0  0  0  0  0  0  0  0  0  0  0
    7.2353  -16.5957   24.4346 C   0  0  0  0  0  0  0  0  0  0  0  0
    7.4947  -17.8354   24.2799 O   0  0  0  0  0  0  0  0  0  0  0  0
    8.3672  -16.0961   27.7083 C   0  0  0  0  0  0  0  0  0  0  0  0
    9.5577  -16.0779   28.4010 C   0  0  0  0  0  0  0  0  0  0  0  0
    7.7372  -15.6843   23.4855 N   0  0  0  0  0  0  0  0  0  0  0  0
    7.7734  -14.2409   23.5068 C   0  0  0  0  0  0  0  0  0  0  0  0
    7.9178  -13.7981   22.0612 C   0  0  0  0  0  0  0  0  0  0  0  0
    7.7142  -15.0971   21.2695 C   0  0  0  0  0  0  0  0  0  0  0  0
    8.3566  -16.0703   22.2324 C   0  0  1  0  0  0  0  0  0  0  0  0
    9.8308  -15.8063   22.3768 C   0  0  0  0  0  0  0  0  0  0  0  0
   10.2580  -14.8643   23.1040 O   0  0  0  0  0  0  0  0  0  0  0  0
   10.7644  -16.6183   21.6931 N   0  0  0  0  0  0  0  0  0  0  0  0
   12.1801  -16.5318   22.0884 C   0  0  1  0  0  0  0  0  0  0  0  0
   12.5201  -17.7024   22.9874 C   0  0  0  0  0  0  0  0  0  0  0  0
   13.4670  -17.3962   24.0596 C   0  0  0  0  0  0  0  0  0  0  0  0
   14.0036  -16.2358   24.1458 O   0  0  0  0  0  0  0  0  0  0  0  0
   12.9864  -16.5151   20.8423 C   0  0  0  0  0  0  0  0  0  0  0  0
   12.4638  -16.6394   19.5714 O   0  0  0  0  0  0  0  0  0  0  0  0
   13.8043  -18.3443   24.9954 O   0  0  0  0  0  0  0  0  0  0  0  0
   14.2300  -16.3794   20.9381 O   0  0  0  0  0  0  0  0  0  0  0  0
  2 12  2  0
  2  1  1  0
  3  2  1  0
  4  5  1  0
  4  3  2  0
  5 11  2  0
  6  7  1  0
  6  5  1  0
  7  8  1  1
  9  7  1  0
  9 13  1  0
 10  9  2  0
 11 12  1  0
 13 14  1  0
 14 15  1  0
 16 15  1  0
 17 13  1  0
 17 16  1  0
 18 19  2  0
 17 18  1  1
 20 18  1  0
 21 20  1  0
 21 25  1  0
 21 22  1  1
 23 22  1  0
 23 24  2  0
 25 26  1  0
 27 23  1  0
 28 25  2  0
M  END
$$$$
