YPD.pdb
     RDKit          3D

 28 29  0  0  1  0  0  0  0  0999 V2000
    6.3572  -10.1422   26.7837 O   0  0  0  0  0  0  0  0  0  0  0  0
    6.6715  -11.5000   26.5701 C   0  0  0  0  0  0  0  0  0  0  0  0
    7.9058  -11.8741   26.0871 C   0  0  0  0  0  0  0  0  0  0  0  0
    8.1844  -13.1968   25.8890 C   0  0  0  0  0  0  0  0  0  0  0  0
    7.2712  -14.2009   26.1541 C   0  0  0  0  0  0  0  0  0  0  0  0
    7.6889  -15.6005   25.9060 C   0  0  0  0  0  0  0  0  0  0  0  0
    6.6854  -16.2401   24.9746 C   0  0  2  0  0  0  0  0  0  0  0  0
    5.9014  -17.2076   25.6571 N   0  0  0  0  0  0  0  0  0  0  0  0
    7.2821  -16.7228   23.7139 C   0  0  0  0  0  0  0  0  0  0  0  0
    7.2729  -17.9893   23.5584 O   0  0  0  0  0  0  0  0  0  0  0  0
    6.0391  -13.8250   26.6367 C   0  0  0  0  0  0  0  0  0  0  0  0
    5.7552  -12.4921   26.8374 C   0  0  0  0  0  0  0  0  0  0  0  0
    7.8459  -15.9287   22.6966 N   0  0  0  0  0  0  0  0  0  0  0  0
    8.0636  -14.5023   22.6397 C   0  0  0  0  0  0  0  0  0  0  0  0
    8.1895  -14.1500   21.1677 C   0  0  0  0  0  0  0  0  0  0  0  0
    7.7851  -15.4482   20.4558 C   0  0  0  0  0  0  0  0  0  0  0  0
    8.3482  -16.4490   21.4398 C   0  0  1  0  0  0  0  0  0  0  0  0
    9.8493  -16.3689   21.5051 C   0  0  0  0  0  0  0  0  0  0  0  0
   10.4435  -15.2534   21.5381 O   0  0  0  0  0  0  0  0  0  0  0  0
   10.6197  -17.5539   21.5305 N   0  0  0  0  0  0  0  0  0  0  0  0
   12.0783  -17.4301   21.6898 C   0  0  1  0  0  0  0  0  0  0  0  0
   12.5240  -18.2631   22.8737 C   0  0  0  0  0  0  0  0  0  0  0  0
   12.8676  -17.4934   24.0693 C   0  0  0  0  0  0  0  0  0  0  0  0
   12.8812  -16.2124   24.0402 O   0  0  0  0  0  0  0  0  0  0  0  0
   12.7005  -17.8689   20.4156 C   0  0  0  0  0  0  0  0  0  0  0  0
   12.2993  -18.9708   19.6885 O   0  0  0  0  0  0  0  0  0  0  0  0
   13.1855  -18.1246   25.2478 O   0  0  0  0  0  0  0  0  0  0  0  0
   13.6581  -17.2000   19.9579 O   0  0  0  0  0  0  0  0  0  0  0  0
  2 12  2  0
  2  1  1  0
  3  2  1  0
  4  5  1  0
  4  3  2  0
  5 11  2  0
  6  7  1  0
  6  5  1  0
  7  8  1  1
  9  7  1  0
  9 13  1  0
 10  9  2  0
 11 12  1  0
 13 14  1  0
 14 15  1  0
 16 15  1  0
 17 13  1  0
 17 16  1  0
 18 19  2  0
 17 18  1  1
 20 18  1  0
 21 20  1  0
 21 25  1  0
 21 22  1  1
 23 22  1  0
 23 24  2  0
 25 26  1  0
 27 23  1  0
 28 25  2  0
M  END
$$$$
