YPD.pdb
     RDKit          3D

 28 29  0  0  1  0  0  0  0  0999 V2000
    0.7464  -20.2499   19.0789 O   0  0  0  0  0  0  0  0  0  0  0  0
    1.9758  -19.7997   19.6021 C   0  0  0  0  0  0  0  0  0  0  0  0
    2.1078  -18.5238   20.1036 C   0  0  0  0  0  0  0  0  0  0  0  0
    3.3105  -18.1127   20.6045 C   0  0  0  0  0  0  0  0  0  0  0  0
    4.4261  -18.9293   20.6345 C   0  0  0  0  0  0  0  0  0  0  0  0
    5.6749  -18.3755   21.2078 C   0  0  0  0  0  0  0  0  0  0  0  0
    6.5285  -17.8518   20.0762 C   0  0  2  0  0  0  0  0  0  0  0  0
    6.7669  -18.8626   19.1078 N   0  0  0  0  0  0  0  0  0  0  0  0
    7.7447  -17.1531   20.5357 C   0  0  0  0  0  0  0  0  0  0  0  0
    8.8457  -17.7204   20.2288 O   0  0  0  0  0  0  0  0  0  0  0  0
    4.2920  -20.2033   20.1334 C   0  0  0  0  0  0  0  0  0  0  0  0
    3.0806  -20.6207   19.6275 C   0  0  0  0  0  0  0  0  0  0  0  0
    7.7937  -15.9487   21.2639 N   0  0  0  0  0  0  0  0  0  0  0  0
    6.7243  -15.1245   21.7761 C   0  0  0  0  0  0  0  0  0  0  0  0
    7.3174  -13.7425   21.9884 C   0  0  0  0  0  0  0  0  0  0  0  0
    8.6994  -13.8436   21.3285 C   0  0  0  0  0  0  0  0  0  0  0  0
    9.0203  -15.2840   21.6591 C   0  0  1  0  0  0  0  0  0  0  0  0
    9.1659  -15.4867   23.1429 C   0  0  0  0  0  0  0  0  0  0  0  0
    8.1632  -15.7438   23.8690 O   0  0  0  0  0  0  0  0  0  0  0  0
   10.4400  -15.3907   23.7476 N   0  0  0  0  0  0  0  0  0  0  0  0
   11.0220  -16.6081   24.3371 C   0  0  1  0  0  0  0  0  0  0  0  0
   11.1324  -17.6766   23.2693 C   0  0  0  0  0  0  0  0  0  0  0  0
   11.8049  -18.9031   23.6976 C   0  0  0  0  0  0  0  0  0  0  0  0
   12.7239  -19.4302   22.9768 O   0  0  0  0  0  0  0  0  0  0  0  0
   12.3392  -16.2348   24.9106 C   0  0  0  0  0  0  0  0  0  0  0  0
   12.7445  -16.5310   26.1957 O   0  0  0  0  0  0  0  0  0  0  0  0
   11.4659  -19.5184   24.8786 O   0  0  0  0  0  0  0  0  0  0  0  0
   13.1486  -15.6064   24.1866 O   0  0  0  0  0  0  0  0  0  0  0  0
  2 12  2  0
  2  1  1  0
  3  2  1  0
  4  5  1  0
  4  3  2  0
  5 11  2  0
  6  7  1  0
  6  5  1  0
  7  8  1  6
  9  7  1  0
  9 13  1  0
 10  9  2  0
 11 12  1  0
 13 14  1  0
 14 15  1  0
 16 15  1  0
 17 13  1  0
 17 16  1  0
 18 19  2  0
 17 18  1  1
 20 18  1  0
 21 20  1  0
 21 25  1  0
 21 22  1  6
 23 22  1  0
 23 24  2  0
 25 26  1  0
 27 23  1  0
 28 25  2  0
M  END
$$$$
