QGF.pdb
     RDKit          3D

 25 25  0  0  1  0  0  0  0  0999 V2000
    9.5434  -14.3840   15.7801 N   0  0  0  0  0  0  0  0  0  0  0  0
    8.3385  -13.8904   16.3283 C   0  0  0  0  0  0  0  0  0  0  0  0
    7.9010  -12.8114   15.8559 O   0  0  0  0  0  0  0  0  0  0  0  0
    7.5803  -14.5484   17.3967 C   0  0  0  0  0  0  0  0  0  0  0  0
    7.7743  -14.0327   18.7612 C   0  0  0  0  0  0  0  0  0  0  0  0
    8.6644  -14.8463   19.6557 C   0  0  2  0  0  0  0  0  0  0  0  0
    8.9277  -16.1288   18.9566 N   0  0  0  0  0  0  0  0  0  0  0  0
    8.1040  -15.1316   20.9917 C   0  0  0  0  0  0  0  0  0  0  0  0
    7.8191  -14.1676   21.7815 O   0  0  0  0  0  0  0  0  0  0  0  0
    7.8325  -16.4214   21.5183 N   0  0  0  0  0  0  0  0  0  0  0  0
    7.2309  -16.6150   22.8100 C   0  0  0  0  0  0  0  0  0  0  0  0
    8.0750  -16.2261   23.9454 C   0  0  0  0  0  0  0  0  0  0  0  0
    9.2858  -15.9284   23.6859 O   0  0  0  0  0  0  0  0  0  0  0  0
    7.6816  -16.1499   25.2850 N   0  0  0  0  0  0  0  0  0  0  0  0
    8.6558  -15.7371   26.3026 C   0  0  1  0  0  0  0  0  0  0  0  0
    7.9075  -14.8735   27.3270 C   0  0  0  0  0  0  0  0  0  0  0  0
    7.3936  -13.6488   26.6422 C   0  0  0  0  0  0  0  0  0  0  0  0
    6.0833  -13.5611   26.2303 C   0  0  0  0  0  0  0  0  0  0  0  0
    5.5822  -12.4372   25.5934 C   0  0  0  0  0  0  0  0  0  0  0  0
    6.4220  -11.3730   25.3648 C   0  0  0  0  0  0  0  0  0  0  0  0
    7.7312  -11.4707   25.7808 C   0  0  0  0  0  0  0  0  0  0  0  0
    8.2138  -12.5886   26.4098 C   0  0  0  0  0  0  0  0  0  0  0  0
    9.2001  -16.9158   26.9825 C   0  0  0  0  0  0  0  0  0  0  0  0
    8.6910  -18.0358   26.7811 O   0  0  0  0  0  0  0  0  0  0  0  0
   10.2763  -16.7704   27.8429 O   0  0  0  0  0  0  0  0  0  0  0  0
  2  4  1  0
  2  1  1  0
  3  2  2  0
  5  4  1  0
  6  8  1  0
  6  5  1  0
  6  7  1  6
  8 10  1  0
  9  8  2  0
 10 11  1  0
 11 12  1  0
 12 13  2  0
 12 14  1  0
 14 15  1  0
 15 23  1  0
 15 16  1  1
 17 16  1  0
 18 17  2  0
 19 18  1  0
 20 19  2  0
 20 21  1  0
 21 22  2  0
 22 17  1  0
 23 24  2  0
 23 25  1  0
M  END
$$$$
