QGF.pdb
     RDKit          3D

 25 25  0  0  1  0  0  0  0  0999 V2000
    7.2007  -16.9478   15.6821 N   0  0  0  0  0  0  0  0  0  0  0  0
    6.6662  -18.0982   16.3039 C   0  0  0  0  0  0  0  0  0  0  0  0
    6.0095  -18.8831   15.5748 O   0  0  0  0  0  0  0  0  0  0  0  0
    6.8274  -18.4268   17.7235 C   0  0  0  0  0  0  0  0  0  0  0  0
    7.6162  -17.4868   18.5357 C   0  0  0  0  0  0  0  0  0  0  0  0
    7.9071  -17.9132   19.9455 C   0  0  2  0  0  0  0  0  0  0  0  0
    6.6565  -17.7263   20.7228 N   0  0  0  0  0  0  0  0  0  0  0  0
    8.9995  -17.1691   20.6038 C   0  0  0  0  0  0  0  0  0  0  0  0
   10.1923  -17.2585   20.1527 O   0  0  0  0  0  0  0  0  0  0  0  0
    8.8620  -16.3235   21.7354 N   0  0  0  0  0  0  0  0  0  0  0  0
    9.9846  -15.6621   22.3438 C   0  0  0  0  0  0  0  0  0  0  0  0
    9.9558  -15.6262   23.8103 C   0  0  0  0  0  0  0  0  0  0  0  0
   10.9639  -15.1096   24.3924 O   0  0  0  0  0  0  0  0  0  0  0  0
    8.9306  -16.1034   24.6327 N   0  0  0  0  0  0  0  0  0  0  0  0
    9.1294  -16.1441   26.0866 C   0  0  1  0  0  0  0  0  0  0  0  0
    7.7821  -15.8098   26.7410 C   0  0  0  0  0  0  0  0  0  0  0  0
    7.4859  -14.3615   26.5229 C   0  0  0  0  0  0  0  0  0  0  0  0
    8.0237  -13.3945   27.3415 C   0  0  0  0  0  0  0  0  0  0  0  0
    7.7648  -12.0453   27.1607 C   0  0  0  0  0  0  0  0  0  0  0  0
    6.9429  -11.6588   26.1286 C   0  0  0  0  0  0  0  0  0  0  0  0
    6.4099  -12.6340   25.3154 C   0  0  0  0  0  0  0  0  0  0  0  0
    6.6743  -13.9652   25.5056 C   0  0  0  0  0  0  0  0  0  0  0  0
    9.5366  -17.4903   26.4991 C   0  0  0  0  0  0  0  0  0  0  0  0
    9.8241  -17.7109   27.6920 O   0  0  0  0  0  0  0  0  0  0  0  0
    9.5970  -18.5034   25.5560 O   0  0  0  0  0  0  0  0  0  0  0  0
  2  4  1  0
  2  1  1  0
  3  2  2  0
  5  4  1  0
  6  8  1  0
  6  5  1  0
  6  7  1  1
  8 10  1  0
  9  8  2  0
 10 11  1  0
 11 12  1  0
 12 13  2  0
 12 14  1  0
 14 15  1  0
 15 23  1  0
 15 16  1  1
 17 16  1  0
 18 17  2  0
 19 18  1  0
 20 19  2  0
 20 21  1  0
 21 22  2  0
 22 17  1  0
 23 24  2  0
 23 25  1  0
M  END
$$$$
