QGF.pdb
     RDKit          3D

 25 25  0  0  1  0  0  0  0  0999 V2000
    9.7059  -16.6955   16.7832 N   0  0  0  0  0  0  0  0  0  0  0  0
    8.3319  -16.9445   16.9986 C   0  0  0  0  0  0  0  0  0  0  0  0
    7.9036  -18.0796   16.6717 O   0  0  0  0  0  0  0  0  0  0  0  0
    7.3912  -15.9762   17.5700 C   0  0  0  0  0  0  0  0  0  0  0  0
    7.9225  -14.6391   17.8789 C   0  0  0  0  0  0  0  0  0  0  0  0
    7.4405  -14.0144   19.1562 C   0  0  2  0  0  0  0  0  0  0  0  0
    8.1208  -12.7013   19.2816 N   0  0  0  0  0  0  0  0  0  0  0  0
    7.7025  -14.8111   20.3715 C   0  0  0  0  0  0  0  0  0  0  0  0
    6.8326  -14.8487   21.3076 O   0  0  0  0  0  0  0  0  0  0  0  0
    8.8700  -15.5777   20.6243 N   0  0  0  0  0  0  0  0  0  0  0  0
    9.9827  -15.0619   21.3750 C   0  0  0  0  0  0  0  0  0  0  0  0
    9.8848  -15.2507   22.8268 C   0  0  0  0  0  0  0  0  0  0  0  0
   10.8050  -14.7307   23.5372 O   0  0  0  0  0  0  0  0  0  0  0  0
    8.8806  -15.9455   23.5080 N   0  0  0  0  0  0  0  0  0  0  0  0
    8.8509  -15.9192   24.9755 C   0  0  1  0  0  0  0  0  0  0  0  0
    7.4113  -15.5950   25.3971 C   0  0  0  0  0  0  0  0  0  0  0  0
    7.3333  -14.1521   25.7778 C   0  0  0  0  0  0  0  0  0  0  0  0
    7.3638  -13.1619   24.8223 C   0  0  0  0  0  0  0  0  0  0  0  0
    7.2931  -11.8172   25.1489 C   0  0  0  0  0  0  0  0  0  0  0  0
    7.1889  -11.4592   26.4721 C   0  0  0  0  0  0  0  0  0  0  0  0
    7.1592  -12.4575   27.4203 C   0  0  0  0  0  0  0  0  0  0  0  0
    7.2300  -13.7840   27.0833 C   0  0  0  0  0  0  0  0  0  0  0  0
    9.2166  -17.2349   25.5077 C   0  0  0  0  0  0  0  0  0  0  0  0
    9.2618  -17.4122   26.7409 O   0  0  0  0  0  0  0  0  0  0  0  0
    9.5083  -18.2679   24.6316 O   0  0  0  0  0  0  0  0  0  0  0  0
  2  4  1  0
  2  1  1  0
  3  2  2  0
  5  4  1  0
  6  8  1  0
  6  5  1  0
  6  7  1  1
  8 10  1  0
  9  8  2  0
 10 11  1  0
 11 12  1  0
 12 13  2  0
 12 14  1  0
 14 15  1  0
 15 23  1  0
 15 16  1  6
 17 16  1  0
 18 17  2  0
 19 18  1  0
 20 19  2  0
 20 21  1  0
 21 22  2  0
 22 17  1  0
 23 24  2  0
 23 25  1  0
M  END
$$$$
