QGF.pdb
     RDKit          3D

 25 25  0  0  1  0  0  0  0  0999 V2000
    2.5462  -20.4985   20.2188 N   0  0  0  0  0  0  0  0  0  0  0  0
    2.5046  -19.2065   20.7889 C   0  0  0  0  0  0  0  0  0  0  0  0
    1.5785  -18.4480   20.4069 O   0  0  0  0  0  0  0  0  0  0  0  0
    3.4595  -18.7047   21.7816 C   0  0  0  0  0  0  0  0  0  0  0  0
    4.3093  -17.5753   21.3718 C   0  0  0  0  0  0  0  0  0  0  0  0
    5.6756  -17.9273   20.8588 C   0  0  2  0  0  0  0  0  0  0  0  0
    6.0707  -19.1999   21.5125 N   0  0  0  0  0  0  0  0  0  0  0  0
    6.7142  -16.9100   21.1172 C   0  0  0  0  0  0  0  0  0  0  0  0
    6.5169  -15.6962   20.7678 O   0  0  0  0  0  0  0  0  0  0  0  0
    7.9664  -17.1443   21.7430 N   0  0  0  0  0  0  0  0  0  0  0  0
    8.9234  -16.0948   21.9681 C   0  0  0  0  0  0  0  0  0  0  0  0
    9.1880  -15.7971   23.3802 C   0  0  0  0  0  0  0  0  0  0  0  0
   10.2303  -15.1119   23.6375 O   0  0  0  0  0  0  0  0  0  0  0  0
    8.4089  -16.1915   24.4723 N   0  0  0  0  0  0  0  0  0  0  0  0
    8.9677  -16.1080   25.8272 C   0  0  1  0  0  0  0  0  0  0  0  0
    7.8293  -15.6840   26.7650 C   0  0  0  0  0  0  0  0  0  0  0  0
    7.5571  -14.2283   26.5661 C   0  0  0  0  0  0  0  0  0  0  0  0
    6.4189  -13.7991   25.9221 C   0  0  0  0  0  0  0  0  0  0  0  0
    6.1431  -12.4556   25.7250 C   0  0  0  0  0  0  0  0  0  0  0  0
    7.0363  -11.5188   26.1882 C   0  0  0  0  0  0  0  0  0  0  0  0
    8.1720  -11.9585   26.8312 C   0  0  0  0  0  0  0  0  0  0  0  0
    8.4325  -13.2908   27.0195 C   0  0  0  0  0  0  0  0  0  0  0  0
    9.4639  -17.4218   26.2464 C   0  0  0  0  0  0  0  0  0  0  0  0
    9.3160  -18.4066   25.4965 O   0  0  0  0  0  0  0  0  0  0  0  0
   10.0927  -17.5533   27.4740 O   0  0  0  0  0  0  0  0  0  0  0  0
  2  4  1  0
  2  1  1  0
  3  2  2  0
  5  4  1  0
  6  8  1  0
  6  5  1  0
  6  7  1  1
  8 10  1  0
  9  8  2  0
 10 11  1  0
 11 12  1  0
 12 13  2  0
 12 14  1  0
 14 15  1  0
 15 23  1  0
 15 16  1  1
 17 16  1  0
 18 17  2  0
 19 18  1  0
 20 19  2  0
 20 21  1  0
 21 22  2  0
 22 17  1  0
 23 24  2  0
 23 25  1  0
M  END
$$$$
