QGF.pdb
     RDKit          3D

 25 25  0  0  1  0  0  0  0  0999 V2000
    7.0760  -14.9358   15.5073 N   0  0  0  0  0  0  0  0  0  0  0  0
    8.1924  -14.3107   16.1066 C   0  0  0  0  0  0  0  0  0  0  0  0
    9.3274  -14.7148   15.7498 O   0  0  0  0  0  0  0  0  0  0  0  0
    8.1093  -13.2381   17.1024 C   0  0  0  0  0  0  0  0  0  0  0  0
    7.5994  -13.6070   18.4327 C   0  0  0  0  0  0  0  0  0  0  0  0
    8.5948  -13.5715   19.5561 C   0  0  2  0  0  0  0  0  0  0  0  0
    9.9065  -13.9699   18.9872 N   0  0  0  0  0  0  0  0  0  0  0  0
    8.2744  -14.4557   20.6944 C   0  0  0  0  0  0  0  0  0  0  0  0
    7.2479  -14.2156   21.4175 O   0  0  0  0  0  0  0  0  0  0  0  0
    9.0166  -15.5990   21.0903 N   0  0  0  0  0  0  0  0  0  0  0  0
    8.5942  -16.4580   22.1633 C   0  0  0  0  0  0  0  0  0  0  0  0
    9.0234  -16.0288   23.4992 C   0  0  0  0  0  0  0  0  0  0  0  0
   10.1357  -15.4131   23.5752 O   0  0  0  0  0  0  0  0  0  0  0  0
    8.3318  -16.2290   24.6978 N   0  0  0  0  0  0  0  0  0  0  0  0
    8.9609  -15.8477   25.9682 C   0  0  1  0  0  0  0  0  0  0  0  0
    7.8396  -15.4058   26.9183 C   0  0  0  0  0  0  0  0  0  0  0  0
    7.4175  -14.0193   26.5546 C   0  0  0  0  0  0  0  0  0  0  0  0
    6.2461  -13.7891   25.8695 C   0  0  0  0  0  0  0  0  0  0  0  0
    5.8323  -12.5136   25.5205 C   0  0  0  0  0  0  0  0  0  0  0  0
    6.6180  -11.4410   25.8702 C   0  0  0  0  0  0  0  0  0  0  0  0
    7.7879  -11.6820   26.5556 C   0  0  0  0  0  0  0  0  0  0  0  0
    8.1854  -12.9491   26.8945 C   0  0  0  0  0  0  0  0  0  0  0  0
    9.6507  -17.0016   26.5520 C   0  0  0  0  0  0  0  0  0  0  0  0
   10.3037  -16.8637   27.6050 O   0  0  0  0  0  0  0  0  0  0  0  0
    9.5683  -18.2343   25.9249 O   0  0  0  0  0  0  0  0  0  0  0  0
  2  4  1  0
  2  1  1  0
  3  2  2  0
  5  4  1  0
  6  8  1  0
  6  5  1  0
  6  7  1  6
  8 10  1  0
  9  8  2  0
 10 11  1  0
 11 12  1  0
 12 13  2  0
 12 14  1  0
 14 15  1  0
 15 23  1  0
 15 16  1  1
 17 16  1  0
 18 17  2  0
 19 18  1  0
 20 19  2  0
 20 21  1  0
 21 22  2  0
 22 17  1  0
 23 24  2  0
 23 25  1  0
M  END
$$$$
