QGF.pdb
     RDKit          3D

 25 25  0  0  1  0  0  0  0  0999 V2000
    2.0505  -17.9846   21.5288 N   0  0  0  0  0  0  0  0  0  0  0  0
    2.9657  -18.8357   22.1878 C   0  0  0  0  0  0  0  0  0  0  0  0
    2.5011  -19.5790   23.0881 O   0  0  0  0  0  0  0  0  0  0  0  0
    4.3997  -18.9035   21.8911 C   0  0  0  0  0  0  0  0  0  0  0  0
    4.9342  -17.8892   20.9686 C   0  0  0  0  0  0  0  0  0  0  0  0
    6.3761  -18.0426   20.5798 C   0  0  2  0  0  0  0  0  0  0  0  0
    6.8586  -19.3067   21.1898 N   0  0  0  0  0  0  0  0  0  0  0  0
    7.2534  -16.9349   21.0085 C   0  0  0  0  0  0  0  0  0  0  0  0
    8.5195  -17.1063   21.0524 O   0  0  0  0  0  0  0  0  0  0  0  0
    6.8232  -15.6382   21.3932 N   0  0  0  0  0  0  0  0  0  0  0  0
    7.7462  -14.5701   21.6672 C   0  0  0  0  0  0  0  0  0  0  0  0
    8.3653  -14.6189   22.9965 C   0  0  0  0  0  0  0  0  0  0  0  0
    9.2472  -13.7363   23.2523 O   0  0  0  0  0  0  0  0  0  0  0  0
    8.0829  -15.5388   24.0109 N   0  0  0  0  0  0  0  0  0  0  0  0
    8.8892  -15.5330   25.2376 C   0  0  1  0  0  0  0  0  0  0  0  0
    7.9156  -15.5114   26.4237 C   0  0  0  0  0  0  0  0  0  0  0  0
    7.3567  -14.1327   26.5642 C   0  0  0  0  0  0  0  0  0  0  0  0
    6.0030  -13.9013   26.4721 C   0  0  0  0  0  0  0  0  0  0  0  0
    5.4596  -12.6330   26.5987 C   0  0  0  0  0  0  0  0  0  0  0  0
    6.3007  -11.5691   26.8240 C   0  0  0  0  0  0  0  0  0  0  0  0
    7.6534  -11.8113   26.9145 C   0  0  0  0  0  0  0  0  0  0  0  0
    8.1775  -13.0712   26.7873 C   0  0  0  0  0  0  0  0  0  0  0  0
    9.6994  -16.7521   25.3104 C   0  0  0  0  0  0  0  0  0  0  0  0
    9.6124  -17.6071   24.4073 O   0  0  0  0  0  0  0  0  0  0  0  0
   10.5541  -16.9398   26.3847 O   0  0  0  0  0  0  0  0  0  0  0  0
  2  4  1  0
  2  1  1  0
  3  2  2  0
  5  4  1  0
  6  8  1  0
  6  5  1  0
  6  7  1  1
  8 10  1  0
  9  8  2  0
 10 11  1  0
 11 12  1  0
 12 13  2  0
 12 14  1  0
 14 15  1  0
 15 23  1  0
 15 16  1  1
 17 16  1  0
 18 17  2  0
 19 18  1  0
 20 19  2  0
 20 21  1  0
 21 22  2  0
 22 17  1  0
 23 24  2  0
 23 25  1  0
M  END
$$$$
