QGF.pdb
     RDKit          3D

 25 25  0  0  1  0  0  0  0  0999 V2000
    8.2113  -20.9307   17.4692 N   0  0  0  0  0  0  0  0  0  0  0  0
    7.0035  -20.4901   18.0551 C   0  0  0  0  0  0  0  0  0  0  0  0
    5.9386  -20.8238   17.4776 O   0  0  0  0  0  0  0  0  0  0  0  0
    6.9178  -19.6809   19.2745 C   0  0  0  0  0  0  0  0  0  0  0  0
    8.1891  -19.2186   19.8538 C   0  0  0  0  0  0  0  0  0  0  0  0
    8.1511  -18.8210   21.3010 C   0  0  2  0  0  0  0  0  0  0  0  0
    6.7616  -18.3914   21.5973 N   0  0  0  0  0  0  0  0  0  0  0  0
    9.0804  -17.7339   21.6683 C   0  0  0  0  0  0  0  0  0  0  0  0
   10.3426  -17.9261   21.6019 O   0  0  0  0  0  0  0  0  0  0  0  0
    8.7067  -16.4364   22.1057 N   0  0  0  0  0  0  0  0  0  0  0  0
    9.6743  -15.4452   22.4919 C   0  0  0  0  0  0  0  0  0  0  0  0
    9.8722  -15.3110   23.9395 C   0  0  0  0  0  0  0  0  0  0  0  0
   10.8338  -14.5684   24.3216 O   0  0  0  0  0  0  0  0  0  0  0  0
    9.1093  -15.9180   24.9418 N   0  0  0  0  0  0  0  0  0  0  0  0
    9.5153  -15.7767   26.3454 C   0  0  1  0  0  0  0  0  0  0  0  0
    8.2429  -15.5228   27.1652 C   0  0  0  0  0  0  0  0  0  0  0  0
    7.6070  -14.2569   26.6896 C   0  0  0  0  0  0  0  0  0  0  0  0
    6.5075  -14.2807   25.8620 C   0  0  0  0  0  0  0  0  0  0  0  0
    5.8995  -13.1217   25.4071 C   0  0  0  0  0  0  0  0  0  0  0  0
    6.4114  -11.9063   25.7953 C   0  0  0  0  0  0  0  0  0  0  0  0
    7.5116  -11.8933   26.6234 C   0  0  0  0  0  0  0  0  0  0  0  0
    8.1034  -13.0476   27.0660 C   0  0  0  0  0  0  0  0  0  0  0  0
   10.1419  -17.0163   26.8131 C   0  0  0  0  0  0  0  0  0  0  0  0
   10.5708  -17.0897   27.9814 O   0  0  0  0  0  0  0  0  0  0  0  0
   10.2502  -18.0938   25.9489 O   0  0  0  0  0  0  0  0  0  0  0  0
  2  4  1  0
  2  1  1  0
  3  2  2  0
  5  4  1  0
  6  8  1  0
  6  5  1  0
  6  7  1  6
  8 10  1  0
  9  8  2  0
 10 11  1  0
 11 12  1  0
 12 13  2  0
 12 14  1  0
 14 15  1  0
 15 23  1  0
 15 16  1  1
 17 16  1  0
 18 17  2  0
 19 18  1  0
 20 19  2  0
 20 21  1  0
 21 22  2  0
 22 17  1  0
 23 24  2  0
 23 25  1  0
M  END
$$$$
