QGF.pdb
     RDKit          3D

 25 25  0  0  1  0  0  0  0  0999 V2000
    9.2025  -12.4121   18.3760 N   0  0  0  0  0  0  0  0  0  0  0  0
    8.4277  -13.2406   17.5339 C   0  0  0  0  0  0  0  0  0  0  0  0
    8.8919  -13.4794   16.3909 O   0  0  0  0  0  0  0  0  0  0  0  0
    7.1370  -13.8285   17.9050 C   0  0  0  0  0  0  0  0  0  0  0  0
    6.9213  -14.1050   19.3343 C   0  0  0  0  0  0  0  0  0  0  0  0
    8.0125  -14.8625   20.0337 C   0  0  2  0  0  0  0  0  0  0  0  0
    8.2463  -16.1050   19.2562 N   0  0  0  0  0  0  0  0  0  0  0  0
    7.7168  -15.2197   21.4356 C   0  0  0  0  0  0  0  0  0  0  0  0
    7.3920  -14.3071   22.2699 O   0  0  0  0  0  0  0  0  0  0  0  0
    7.7535  -16.5288   21.9829 N   0  0  0  0  0  0  0  0  0  0  0  0
    7.3504  -16.8104   23.3342 C   0  0  0  0  0  0  0  0  0  0  0  0
    8.2878  -16.3483   24.3640 C   0  0  0  0  0  0  0  0  0  0  0  0
    9.4226  -15.9317   23.9628 O   0  0  0  0  0  0  0  0  0  0  0  0
    8.0588  -16.3201   25.7430 N   0  0  0  0  0  0  0  0  0  0  0  0
    9.0884  -15.7752   26.6363 C   0  0  1  0  0  0  0  0  0  0  0  0
    8.3678  -14.9674   27.7242 C   0  0  0  0  0  0  0  0  0  0  0  0
    7.6613  -13.8173   27.0830 C   0  0  0  0  0  0  0  0  0  0  0  0
    6.3189  -13.8835   26.7861 C   0  0  0  0  0  0  0  0  0  0  0  0
    5.6405  -12.8315   26.1919 C   0  0  0  0  0  0  0  0  0  0  0  0
    6.3312  -11.6823   25.8883 C   0  0  0  0  0  0  0  0  0  0  0  0
    7.6739  -11.6262   26.1893 C   0  0  0  0  0  0  0  0  0  0  0  0
    8.3326  -12.6744   26.7773 C   0  0  0  0  0  0  0  0  0  0  0  0
    9.8315  -16.8680   27.2700 C   0  0  0  0  0  0  0  0  0  0  0  0
    9.4072  -18.0369   27.1814 O   0  0  0  0  0  0  0  0  0  0  0  0
   10.9990  -16.5878   27.9614 O   0  0  0  0  0  0  0  0  0  0  0  0
  2  4  1  0
  2  1  1  0
  3  2  2  0
  5  4  1  0
  6  8  1  0
  6  5  1  0
  6  7  1  6
  8 10  1  0
  9  8  2  0
 10 11  1  0
 11 12  1  0
 12 13  2  0
 12 14  1  0
 14 15  1  0
 15 23  1  0
 15 16  1  1
 17 16  1  0
 18 17  2  0
 19 18  1  0
 20 19  2  0
 20 21  1  0
 21 22  2  0
 22 17  1  0
 23 24  2  0
 23 25  1  0
M  END
$$$$
