QGF.pdb
     RDKit          3D

 25 25  0  0  1  0  0  0  0  0999 V2000
    3.5863  -23.2017   22.1451 N   0  0  0  0  0  0  0  0  0  0  0  0
    3.9014  -22.7413   23.4431 C   0  0  0  0  0  0  0  0  0  0  0  0
    3.4859  -23.4330   24.4062 O   0  0  0  0  0  0  0  0  0  0  0  0
    4.6700  -21.5264   23.7304 C   0  0  0  0  0  0  0  0  0  0  0  0
    4.9703  -20.6469   22.5894 C   0  0  0  0  0  0  0  0  0  0  0  0
    6.3893  -20.1696   22.4774 C   0  0  2  0  0  0  0  0  0  0  0  0
    6.9927  -20.2791   23.8290 N   0  0  0  0  0  0  0  0  0  0  0  0
    6.5388  -18.7826   21.9937 C   0  0  0  0  0  0  0  0  0  0  0  0
    6.1984  -18.4854   20.7978 O   0  0  0  0  0  0  0  0  0  0  0  0
    7.0413  -17.6910   22.7490 N   0  0  0  0  0  0  0  0  0  0  0  0
    7.1006  -16.3535   22.2243 C   0  0  0  0  0  0  0  0  0  0  0  0
    7.5520  -15.3373   23.1816 C   0  0  0  0  0  0  0  0  0  0  0  0
    7.8149  -14.1827   22.7127 O   0  0  0  0  0  0  0  0  0  0  0  0
    7.7223  -15.5110   24.5585 N   0  0  0  0  0  0  0  0  0  0  0  0
    9.0381  -15.2655   25.1612 C   0  0  1  0  0  0  0  0  0  0  0  0
    8.8000  -14.5804   26.5137 C   0  0  0  0  0  0  0  0  0  0  0  0
    7.7739  -13.5084   26.3375 C   0  0  0  0  0  0  0  0  0  0  0  0
    6.4302  -13.7849   26.4495 C   0  0  0  0  0  0  0  0  0  0  0  0
    5.4591  -12.8094   26.2907 C   0  0  0  0  0  0  0  0  0  0  0  0
    5.8503  -11.5213   26.0118 C   0  0  0  0  0  0  0  0  0  0  0  0
    7.1970  -11.2551   25.9018 C   0  0  0  0  0  0  0  0  0  0  0  0
    8.1472  -12.2298   26.0613 C   0  0  0  0  0  0  0  0  0  0  0  0
    9.7303  -16.5373   25.3886 C   0  0  0  0  0  0  0  0  0  0  0  0
    9.1708  -17.6088   25.0836 O   0  0  0  0  0  0  0  0  0  0  0  0
   11.0009  -16.5329   25.9410 O   0  0  0  0  0  0  0  0  0  0  0  0
  2  4  1  0
  2  1  1  0
  3  2  2  0
  5  4  1  0
  6  8  1  0
  6  5  1  0
  6  7  1  1
  8 10  1  0
  9  8  2  0
 10 11  1  0
 11 12  1  0
 12 13  2  0
 12 14  1  0
 14 15  1  0
 15 23  1  0
 15 16  1  1
 17 16  1  0
 18 17  2  0
 19 18  1  0
 20 19  2  0
 20 21  1  0
 21 22  2  0
 22 17  1  0
 23 24  2  0
 23 25  1  0
M  END
$$$$
