QGF.pdb
     RDKit          3D

 25 25  0  0  1  0  0  0  0  0999 V2000
   10.5623  -20.2171   18.0460 N   0  0  0  0  0  0  0  0  0  0  0  0
   11.1027  -19.4573   19.1074 C   0  0  0  0  0  0  0  0  0  0  0  0
   12.3510  -19.3142   19.1238 O   0  0  0  0  0  0  0  0  0  0  0  0
   10.3102  -18.8365   20.1731 C   0  0  0  0  0  0  0  0  0  0  0  0
    8.8838  -19.1935   20.2318 C   0  0  0  0  0  0  0  0  0  0  0  0
    7.9160  -18.1227   19.8186 C   0  0  2  0  0  0  0  0  0  0  0  0
    8.4830  -17.4656   18.6145 N   0  0  0  0  0  0  0  0  0  0  0  0
    7.6518  -17.0974   20.8478 C   0  0  0  0  0  0  0  0  0  0  0  0
    7.0473  -17.4201   21.9271 O   0  0  0  0  0  0  0  0  0  0  0  0
    8.0154  -15.7278   20.7660 N   0  0  0  0  0  0  0  0  0  0  0  0
    7.6439  -14.7707   21.7729 C   0  0  0  0  0  0  0  0  0  0  0  0
    8.3835  -14.8880   23.0347 C   0  0  0  0  0  0  0  0  0  0  0  0
    9.5507  -14.3793   23.0660 O   0  0  0  0  0  0  0  0  0  0  0  0
    7.9335  -15.5032   24.2069 N   0  0  0  0  0  0  0  0  0  0  0  0
    8.7464  -15.4180   25.4263 C   0  0  1  0  0  0  0  0  0  0  0  0
    7.7861  -15.1784   26.5992 C   0  0  0  0  0  0  0  0  0  0  0  0
    7.2448  -13.7888   26.5035 C   0  0  0  0  0  0  0  0  0  0  0  0
    8.0031  -12.7029   26.8779 C   0  0  0  0  0  0  0  0  0  0  0  0
    7.5249  -11.4048   26.7989 C   0  0  0  0  0  0  0  0  0  0  0  0
    6.2497  -11.1937   26.3308 C   0  0  0  0  0  0  0  0  0  0  0  0
    5.4992  -12.2868   25.9588 C   0  0  0  0  0  0  0  0  0  0  0  0
    5.9847  -13.5657   26.0421 C   0  0  0  0  0  0  0  0  0  0  0  0
    9.4563  -16.6815   25.6445 C   0  0  0  0  0  0  0  0  0  0  0  0
    9.2153  -17.6607   24.9114 O   0  0  0  0  0  0  0  0  0  0  0  0
   10.3888  -16.7723   26.6652 O   0  0  0  0  0  0  0  0  0  0  0  0
  2  4  1  0
  2  1  1  0
  3  2  2  0
  5  4  1  0
  6  8  1  0
  6  5  1  0
  6  7  1  6
  8 10  1  0
  9  8  2  0
 10 11  1  0
 11 12  1  0
 12 13  2  0
 12 14  1  0
 14 15  1  0
 15 23  1  0
 15 16  1  1
 17 16  1  0
 18 17  2  0
 19 18  1  0
 20 19  2  0
 20 21  1  0
 21 22  2  0
 22 17  1  0
 23 24  2  0
 23 25  1  0
M  END
$$$$
