KIY.pdb
     RDKit          3D

 30 30  0  0  1  0  0  0  0  0999 V2000
   28.1792  -21.3428  -15.7489 N   0  0  0  0  0  0  0  0  0  0  0  0
   27.6817  -20.3208  -14.8838 C   0  0  1  0  0  0  0  0  0  0  0  0
   27.2171  -19.1492  -15.6903 C   0  0  0  0  0  0  0  0  0  0  0  0
   27.7350  -19.0622  -17.0751 C   0  0  0  0  0  0  0  0  0  0  0  0
   26.7396  -19.1834  -18.1748 C   0  0  0  0  0  0  0  0  0  0  0  0
   26.9823  -18.2551  -19.3323 C   0  0  0  0  0  0  0  0  0  0  0  0
   27.9664  -18.8436  -20.2498 N   0  0  0  0  0  0  0  0  0  0  0  0
   26.6177  -20.8649  -14.0041 C   0  0  0  0  0  0  0  0  0  0  0  0
   25.8889  -21.7776  -14.4552 O   0  0  0  0  0  0  0  0  0  0  0  0
   27.1901  -20.6960   -8.6132 C   0  0  0  0  0  0  0  0  0  0  0  0
   26.9438  -21.2684  -10.0230 C   0  0  0  0  0  0  0  0  0  0  0  0
   25.6138  -20.7340  -10.4598 C   0  0  2  0  0  0  0  0  0  0  0  0
   24.5197  -21.1464   -9.5000 C   0  0  0  0  0  0  0  0  0  0  0  0
   25.2544  -20.9549  -11.8882 C   0  0  2  0  0  0  0  0  0  0  0  0
   26.3661  -20.4209  -12.6786 N   0  0  0  0  0  0  0  0  0  0  0  0
   23.9699  -20.4430  -12.3466 C   0  0  0  0  0  0  0  0  0  0  0  0
   23.8912  -19.1974  -12.6690 O   0  0  0  0  0  0  0  0  0  0  0  0
   17.4266  -18.3841  -17.4377 O   0  0  0  0  0  0  0  0  0  0  0  0
   18.5330  -18.8603  -16.7187 C   0  0  0  0  0  0  0  0  0  0  0  0
   19.4080  -18.0112  -16.0885 C   0  0  0  0  0  0  0  0  0  0  0  0
   20.4810  -18.5183  -15.3933 C   0  0  0  0  0  0  0  0  0  0  0  0
   20.6790  -19.8994  -15.3296 C   0  0  0  0  0  0  0  0  0  0  0  0
   21.8374  -20.4250  -14.6029 C   0  0  0  0  0  0  0  0  0  0  0  0
   21.5902  -20.5935  -13.1418 C   0  0  2  0  0  0  0  0  0  0  0  0
   22.7713  -21.1888  -12.4826 N   0  0  0  0  0  0  0  0  0  0  0  0
   20.4301  -21.4730  -12.9123 C   0  0  0  0  0  0  0  0  0  0  0  0
   19.1580  -20.9865  -12.6148 O   0  0  0  0  0  0  0  0  0  0  0  0
   19.7865  -20.7186  -15.9705 C   0  0  0  0  0  0  0  0  0  0  0  0
   18.7006  -20.2132  -16.6742 C   0  0  0  0  0  0  0  0  0  0  0  0
   20.5326  -22.7229  -12.9744 O   0  0  0  0  0  0  0  0  0  0  0  0
  2  3  1  0
  2  1  1  6
  3  4  1  0
  4  5  1  0
  5  6  1  0
  7  6  1  0
  8  9  2  0
  8  2  1  0
 10 11  1  0
 11 12  1  0
 12 14  1  0
 12 13  1  1
 14 15  1  6
 15  8  1  0
 16 14  1  0
 16 17  2  0
 18 19  1  0
 19 29  2  0
 20 21  2  0
 20 19  1  0
 21 22  1  0
 22 23  1  0
 22 28  2  0
 24 25  1  0
 24 23  1  6
 25 16  1  0
 26 24  1  0
 27 26  1  0
 29 28  1  0
 30 26  2  0
M  END
$$$$
