KIY.pdb
     RDKit          3D

 30 30  0  0  1  0  0  0  0  0999 V2000
   27.4919  -21.1493  -15.3783 N   0  0  0  0  0  0  0  0  0  0  0  0
   26.4898  -22.1193  -15.6868 C   0  0  1  0  0  0  0  0  0  0  0  0
   27.1330  -23.4037  -16.1063 C   0  0  0  0  0  0  0  0  0  0  0  0
   28.0343  -23.3308  -17.2792 C   0  0  0  0  0  0  0  0  0  0  0  0
   27.4412  -23.6563  -18.6049 C   0  0  0  0  0  0  0  0  0  0  0  0
   28.4355  -23.7020  -19.7316 C   0  0  0  0  0  0  0  0  0  0  0  0
   27.7534  -24.0300  -20.9900 N   0  0  0  0  0  0  0  0  0  0  0  0
   25.5699  -22.2923  -14.5354 C   0  0  0  0  0  0  0  0  0  0  0  0
   24.7535  -23.2410  -14.5700 O   0  0  0  0  0  0  0  0  0  0  0  0
   26.6471  -20.7750   -9.3809 C   0  0  0  0  0  0  0  0  0  0  0  0
   26.2743  -21.5499  -10.6601 C   0  0  0  0  0  0  0  0  0  0  0  0
   24.9919  -20.9484  -11.1491 C   0  0  2  0  0  0  0  0  0  0  0  0
   23.9627  -20.8870  -10.0422 C   0  0  0  0  0  0  0  0  0  0  0  0
   24.4512  -21.5004  -12.4223 C   0  0  2  0  0  0  0  0  0  0  0  0
   25.5500  -21.4528  -13.3899 N   0  0  0  0  0  0  0  0  0  0  0  0
   23.2354  -20.8998  -12.9544 C   0  0  0  0  0  0  0  0  0  0  0  0
   23.1970  -19.6179  -13.0856 O   0  0  0  0  0  0  0  0  0  0  0  0
   15.9303  -18.6084  -17.1101 O   0  0  0  0  0  0  0  0  0  0  0  0
   17.1092  -19.2210  -16.6597 C   0  0  0  0  0  0  0  0  0  0  0  0
   17.1977  -20.5788  -16.4802 C   0  0  0  0  0  0  0  0  0  0  0  0
   18.3722  -21.1406  -16.0370 C   0  0  0  0  0  0  0  0  0  0  0  0
   19.4754  -20.3269  -15.7695 C   0  0  0  0  0  0  0  0  0  0  0  0
   20.7138  -20.9363  -15.2783 C   0  0  0  0  0  0  0  0  0  0  0  0
   20.8681  -20.8473  -13.7976 C   0  0  2  0  0  0  0  0  0  0  0  0
   22.0652  -21.5929  -13.3564 N   0  0  0  0  0  0  0  0  0  0  0  0
   19.6866  -21.4108  -13.1203 C   0  0  0  0  0  0  0  0  0  0  0  0
   18.5855  -20.6396  -12.7513 O   0  0  0  0  0  0  0  0  0  0  0  0
   19.3526  -18.9751  -15.9590 C   0  0  0  0  0  0  0  0  0  0  0  0
   18.1694  -18.4010  -16.4066 C   0  0  0  0  0  0  0  0  0  0  0  0
   19.6132  -22.6321  -12.8382 O   0  0  0  0  0  0  0  0  0  0  0  0
  2  3  1  0
  2  1  1  1
  3  4  1  0
  4  5  1  0
  5  6  1  0
  7  6  1  0
  8  9  2  0
  8  2  1  0
 10 11  1  0
 11 12  1  0
 12 14  1  0
 12 13  1  1
 14 15  1  6
 15  8  1  0
 16 14  1  0
 16 17  2  0
 18 19  1  0
 19 29  2  0
 20 21  2  0
 20 19  1  0
 21 22  1  0
 22 23  1  0
 22 28  2  0
 24 25  1  0
 24 23  1  6
 25 16  1  0
 26 24  1  0
 27 26  1  0
 29 28  1  0
 30 26  2  0
M  END
$$$$
