KIY.pdb
     RDKit          3D

 30 30  0  0  1  0  0  0  0  0999 V2000
   28.8216  -21.3187  -16.9085 N   0  0  0  0  0  0  0  0  0  0  0  0
   28.1153  -20.3122  -16.1815 C   0  0  1  0  0  0  0  0  0  0  0  0
   27.2940  -19.4849  -17.1197 C   0  0  0  0  0  0  0  0  0  0  0  0
   28.0455  -18.6726  -18.1040 C   0  0  0  0  0  0  0  0  0  0  0  0
   28.3290  -17.2593  -17.7337 C   0  0  0  0  0  0  0  0  0  0  0  0
   27.6600  -16.2435  -18.6174 C   0  0  0  0  0  0  0  0  0  0  0  0
   28.6604  -15.5728  -19.4578 N   0  0  0  0  0  0  0  0  0  0  0  0
   27.3016  -20.9306  -15.1058 C   0  0  0  0  0  0  0  0  0  0  0  0
   26.7590  -22.0349  -15.3375 O   0  0  0  0  0  0  0  0  0  0  0  0
   28.9951  -20.9663  -10.1737 C   0  0  0  0  0  0  0  0  0  0  0  0
   28.4097  -21.3561  -11.5453 C   0  0  0  0  0  0  0  0  0  0  0  0
   26.9806  -20.9057  -11.5281 C   0  0  2  0  0  0  0  0  0  0  0  0
   26.2296  -21.5220  -10.3686 C   0  0  0  0  0  0  0  0  0  0  0  0
   26.2460  -21.0026  -12.8201 C   0  0  2  0  0  0  0  0  0  0  0  0
   27.0937  -20.3551  -13.8240 N   0  0  0  0  0  0  0  0  0  0  0  0
   24.8802  -20.4973  -12.8581 C   0  0  0  0  0  0  0  0  0  0  0  0
   24.6489  -19.3310  -12.3600 O   0  0  0  0  0  0  0  0  0  0  0  0
   16.8873  -17.9676  -15.2178 O   0  0  0  0  0  0  0  0  0  0  0  0
   18.1495  -18.5739  -15.1337 C   0  0  0  0  0  0  0  0  0  0  0  0
   18.3034  -19.9370  -15.1774 C   0  0  0  0  0  0  0  0  0  0  0  0
   19.5587  -20.4924  -15.0919 C   0  0  0  0  0  0  0  0  0  0  0  0
   20.6775  -19.6667  -14.9605 C   0  0  0  0  0  0  0  0  0  0  0  0
   22.0068  -20.2724  -14.8499 C   0  0  0  0  0  0  0  0  0  0  0  0
   22.4350  -20.5019  -13.4398 C   0  0  2  0  0  0  0  0  0  0  0  0
   23.7542  -21.1667  -13.4014 N   0  0  0  0  0  0  0  0  0  0  0  0
   21.4588  -21.3522  -12.7355 C   0  0  0  0  0  0  0  0  0  0  0  0
   20.4134  -20.8333  -11.9731 O   0  0  0  0  0  0  0  0  0  0  0  0
   20.4881  -18.3099  -14.9197 C   0  0  0  0  0  0  0  0  0  0  0  0
   19.2231  -17.7423  -15.0057 C   0  0  0  0  0  0  0  0  0  0  0  0
   21.5222  -22.6051  -12.7885 O   0  0  0  0  0  0  0  0  0  0  0  0
  2  3  1  0
  2  1  1  6
  3  4  1  0
  4  5  1  0
  5  6  1  0
  7  6  1  0
  8  9  2  0
  8  2  1  0
 10 11  1  0
 11 12  1  0
 12 14  1  0
 12 13  1  1
 14 15  1  6
 15  8  1  0
 16 14  1  0
 16 17  2  0
 18 19  1  0
 19 29  2  0
 20 21  2  0
 20 19  1  0
 21 22  1  0
 22 23  1  0
 22 28  2  0
 24 25  1  0
 24 23  1  6
 25 16  1  0
 26 24  1  0
 27 26  1  0
 29 28  1  0
 30 26  2  0
M  END
$$$$
