KIY.pdb
     RDKit          3D

 30 30  0  0  1  0  0  0  0  0999 V2000
   27.0443  -25.7218  -18.3272 N   0  0  0  0  0  0  0  0  0  0  0  0
   26.4724  -24.4160  -18.4177 C   0  0  1  0  0  0  0  0  0  0  0  0
   24.9913  -24.4912  -18.2182 C   0  0  0  0  0  0  0  0  0  0  0  0
   24.1938  -24.9097  -19.3940 C   0  0  0  0  0  0  0  0  0  0  0  0
   23.5739  -23.8276  -20.2063 C   0  0  0  0  0  0  0  0  0  0  0  0
   22.2408  -23.3577  -19.6941 C   0  0  0  0  0  0  0  0  0  0  0  0
   21.1642  -24.1655  -20.2816 N   0  0  0  0  0  0  0  0  0  0  0  0
   27.1310  -23.4985  -17.4553 C   0  0  0  0  0  0  0  0  0  0  0  0
   27.7943  -24.0016  -16.5201 O   0  0  0  0  0  0  0  0  0  0  0  0
   29.4481  -18.8262  -18.9204 C   0  0  0  0  0  0  0  0  0  0  0  0
   29.2022  -20.2134  -18.2949 C   0  0  0  0  0  0  0  0  0  0  0  0
   28.1644  -20.0102  -17.2333 C   0  0  2  0  0  0  0  0  0  0  0  0
   28.5526  -18.8839  -16.3011 C   0  0  0  0  0  0  0  0  0  0  0  0
   27.7101  -21.2342  -16.5164 C   0  0  2  0  0  0  0  0  0  0  0  0
   27.0618  -22.0813  -17.5204 N   0  0  0  0  0  0  0  0  0  0  0  0
   26.8720  -21.0531  -15.3387 C   0  0  0  0  0  0  0  0  0  0  0  0
   25.7214  -20.4923  -15.4911 O   0  0  0  0  0  0  0  0  0  0  0  0
   24.0159  -19.8301   -7.0669 O   0  0  0  0  0  0  0  0  0  0  0  0
   24.7132  -20.2525   -8.2085 C   0  0  0  0  0  0  0  0  0  0  0  0
   24.1172  -21.0159   -9.1809 C   0  0  0  0  0  0  0  0  0  0  0  0
   24.8358  -21.4096  -10.2855 C   0  0  0  0  0  0  0  0  0  0  0  0
   26.1738  -21.0312  -10.4164 C   0  0  0  0  0  0  0  0  0  0  0  0
   26.9332  -21.4746  -11.5881 C   0  0  0  0  0  0  0  0  0  0  0  0
   26.3595  -20.9954  -12.8787 C   0  0  2  0  0  0  0  0  0  0  0  0
   27.1944  -21.4416  -14.0134 N   0  0  0  0  0  0  0  0  0  0  0  0
   26.2879  -19.5235  -12.8973 C   0  0  0  0  0  0  0  0  0  0  0  0
   25.0847  -18.8228  -12.8296 O   0  0  0  0  0  0  0  0  0  0  0  0
   26.7380  -20.2690   -9.4268 C   0  0  0  0  0  0  0  0  0  0  0  0
   26.0180  -19.8678   -8.3086 C   0  0  0  0  0  0  0  0  0  0  0  0
   27.3235  -18.8178  -12.9764 O   0  0  0  0  0  0  0  0  0  0  0  0
  2  3  1  0
  2  1  1  1
  3  4  1  0
  4  5  1  0
  5  6  1  0
  7  6  1  0
  8  9  2  0
  8  2  1  0
 10 11  1  0
 11 12  1  0
 12 14  1  0
 12 13  1  1
 14 15  1  6
 15  8  1  0
 16 14  1  0
 16 17  2  0
 18 19  1  0
 19 29  2  0
 20 21  2  0
 20 19  1  0
 21 22  1  0
 22 23  1  0
 22 28  2  0
 24 25  1  0
 24 23  1  1
 25 16  1  0
 26 24  1  0
 27 26  1  0
 29 28  1  0
 30 26  2  0
M  END
$$$$
