KIY.pdb
     RDKit          3D

 30 30  0  0  1  0  0  0  0  0999 V2000
   30.7286  -23.4586  -18.7563 N   0  0  0  0  0  0  0  0  0  0  0  0
   29.4483  -23.7100  -18.1750 C   0  0  1  0  0  0  0  0  0  0  0  0
   29.5482  -24.8223  -17.1790 C   0  0  0  0  0  0  0  0  0  0  0  0
   29.7622  -26.1789  -17.7334 C   0  0  0  0  0  0  0  0  0  0  0  0
   28.5560  -27.0335  -17.9058 C   0  0  0  0  0  0  0  0  0  0  0  0
   28.2189  -27.8748  -16.7063 C   0  0  0  0  0  0  0  0  0  0  0  0
   28.2027  -29.2954  -17.0782 N   0  0  0  0  0  0  0  0  0  0  0  0
   28.8981  -22.4646  -17.5850 C   0  0  0  0  0  0  0  0  0  0  0  0
   29.7037  -21.6245  -17.1237 O   0  0  0  0  0  0  0  0  0  0  0  0
   25.1439  -18.2403  -18.8580 C   0  0  0  0  0  0  0  0  0  0  0  0
   25.7869  -18.8191  -17.5823 C   0  0  0  0  0  0  0  0  0  0  0  0
   26.3657  -20.1442  -17.9754 C   0  0  2  0  0  0  0  0  0  0  0  0
   25.3639  -20.9655  -18.7565 C   0  0  0  0  0  0  0  0  0  0  0  0
   27.0377  -20.9145  -16.8922 C   0  0  2  0  0  0  0  0  0  0  0  0
   27.5138  -22.1564  -17.5061 N   0  0  0  0  0  0  0  0  0  0  0  0
   26.2779  -21.1691  -15.6756 C   0  0  0  0  0  0  0  0  0  0  0  0
   25.3632  -22.0768  -15.7082 O   0  0  0  0  0  0  0  0  0  0  0  0
   22.2602  -20.5752   -7.8616 O   0  0  0  0  0  0  0  0  0  0  0  0
   23.1410  -20.3955   -8.9385 C   0  0  0  0  0  0  0  0  0  0  0  0
   22.8070  -19.6307  -10.0283 C   0  0  0  0  0  0  0  0  0  0  0  0
   23.6993  -19.4793  -11.0639 C   0  0  0  0  0  0  0  0  0  0  0  0
   24.9465  -20.1052  -11.0051 C   0  0  0  0  0  0  0  0  0  0  0  0
   25.8793  -19.9520  -12.1243 C   0  0  0  0  0  0  0  0  0  0  0  0
   25.5093  -20.7687  -13.3162 C   0  0  2  0  0  0  0  0  0  0  0  0
   26.4457  -20.5116  -14.4303 N   0  0  0  0  0  0  0  0  0  0  0  0
   24.1440  -20.4404  -13.7638 C   0  0  0  0  0  0  0  0  0  0  0  0
   23.8382  -19.2809  -14.4746 O   0  0  0  0  0  0  0  0  0  0  0  0
   25.2475  -20.8617   -9.9025 C   0  0  0  0  0  0  0  0  0  0  0  0
   24.3511  -21.0188   -8.8529 C   0  0  0  0  0  0  0  0  0  0  0  0
   23.1745  -21.2011  -13.5227 O   0  0  0  0  0  0  0  0  0  0  0  0
  2  3  1  0
  2  1  1  1
  3  4  1  0
  4  5  1  0
  5  6  1  0
  7  6  1  0
  8  9  2  0
  8  2  1  0
 10 11  1  0
 11 12  1  0
 12 14  1  0
 12 13  1  1
 14 15  1  6
 15  8  1  0
 16 14  1  0
 16 17  2  0
 18 19  1  0
 19 29  2  0
 20 21  2  0
 20 19  1  0
 21 22  1  0
 22 23  1  0
 22 28  2  0
 24 25  1  0
 24 23  1  1
 25 16  1  0
 26 24  1  0
 27 26  1  0
 29 28  1  0
 30 26  2  0
M  END
$$$$
