KIY.pdb
     RDKit          3D

 30 30  0  0  1  0  0  0  0  0999 V2000
   21.2699  -15.2339  -18.4647 N   0  0  0  0  0  0  0  0  0  0  0  0
   21.7122  -13.9581  -18.9305 C   0  0  1  0  0  0  0  0  0  0  0  0
   20.6154  -13.2836  -19.6930 C   0  0  0  0  0  0  0  0  0  0  0  0
   20.0559  -14.0378  -20.8383 C   0  0  0  0  0  0  0  0  0  0  0  0
   21.0030  -14.4157  -21.9223 C   0  0  0  0  0  0  0  0  0  0  0  0
   20.3544  -15.0796  -23.1051 C   0  0  0  0  0  0  0  0  0  0  0  0
   19.0761  -14.4242  -23.4100 N   0  0  0  0  0  0  0  0  0  0  0  0
   22.2043  -13.1387  -17.7955 C   0  0  0  0  0  0  0  0  0  0  0  0
   21.5826  -13.2003  -16.7104 O   0  0  0  0  0  0  0  0  0  0  0  0
   27.3425  -11.0015  -15.5962 C   0  0  0  0  0  0  0  0  0  0  0  0
   25.8230  -10.7735  -15.4733 C   0  0  0  0  0  0  0  0  0  0  0  0
   25.1966  -11.5482  -16.5926 C   0  0  2  0  0  0  0  0  0  0  0  0
   25.9279  -11.3102  -17.8952 C   0  0  0  0  0  0  0  0  0  0  0  0
   23.7171  -11.4351  -16.7218 C   0  0  2  0  0  0  0  0  0  0  0  0
   23.3376  -12.2845  -17.8533 N   0  0  0  0  0  0  0  0  0  0  0  0
   23.1511  -10.0977  -16.8356 C   0  0  0  0  0  0  0  0  0  0  0  0
   23.3748   -9.4323  -17.9168 O   0  0  0  0  0  0  0  0  0  0  0  0
   18.4028   -3.1169  -18.1756 O   0  0  0  0  0  0  0  0  0  0  0  0
   19.0004   -4.3568  -17.9048 C   0  0  0  0  0  0  0  0  0  0  0  0
   20.3204   -4.6029  -18.1894 C   0  0  0  0  0  0  0  0  0  0  0  0
   20.8687   -5.8325  -17.9082 C   0  0  0  0  0  0  0  0  0  0  0  0
   20.0800   -6.8310  -17.3323 C   0  0  0  0  0  0  0  0  0  0  0  0
   20.6716   -8.1427  -17.0570 C   0  0  0  0  0  0  0  0  0  0  0  0
   21.8308   -8.0819  -16.1205 C   0  0  2  0  0  0  0  0  0  0  0  0
   22.3586   -9.4378  -15.8620 N   0  0  0  0  0  0  0  0  0  0  0  0
   21.4267   -7.4816  -14.8366 C   0  0  0  0  0  0  0  0  0  0  0  0
   21.3951   -6.1047  -14.6210 O   0  0  0  0  0  0  0  0  0  0  0  0
   18.7658   -6.5518  -17.0615 C   0  0  0  0  0  0  0  0  0  0  0  0
   18.2055   -5.3122  -17.3427 C   0  0  0  0  0  0  0  0  0  0  0  0
   21.0860   -8.1922  -13.8591 O   0  0  0  0  0  0  0  0  0  0  0  0
  2  3  1  0
  2  1  1  1
  3  4  1  0
  4  5  1  0
  5  6  1  0
  7  6  1  0
  8  9  2  0
  8  2  1  0
 10 11  1  0
 11 12  1  0
 12 14  1  0
 12 13  1  6
 14 15  1  6
 15  8  1  0
 16 14  1  0
 16 17  2  0
 18 19  1  0
 19 29  2  0
 20 21  2  0
 20 19  1  0
 21 22  1  0
 22 23  1  0
 22 28  2  0
 24 25  1  0
 24 23  1  6
 25 16  1  0
 26 24  1  0
 27 26  1  0
 29 28  1  0
 30 26  2  0
M  END
$$$$
