KIY.pdb
     RDKit          3D

 30 30  0  0  1  0  0  0  0  0999 V2000
   22.4360  -31.7551  -15.7430 N   0  0  0  0  0  0  0  0  0  0  0  0
   23.4579  -32.2345  -14.8677 C   0  0  1  0  0  0  0  0  0  0  0  0
   24.8034  -31.8280  -15.3811 C   0  0  0  0  0  0  0  0  0  0  0  0
   25.2410  -32.4655  -16.6443 C   0  0  0  0  0  0  0  0  0  0  0  0
   25.9163  -33.7870  -16.5324 C   0  0  0  0  0  0  0  0  0  0  0  0
   26.2770  -34.4097  -17.8524 C   0  0  0  0  0  0  0  0  0  0  0  0
   26.9245  -35.7096  -17.6340 N   0  0  0  0  0  0  0  0  0  0  0  0
   23.2107  -31.7639  -13.4824 C   0  0  0  0  0  0  0  0  0  0  0  0
   22.5443  -30.7155  -13.3257 O   0  0  0  0  0  0  0  0  0  0  0  0
   19.4071  -31.6084  -11.7496 C   0  0  0  0  0  0  0  0  0  0  0  0
   20.8964  -31.2150  -11.8060 C   0  0  0  0  0  0  0  0  0  0  0  0
   21.6421  -32.3191  -11.1201 C   0  0  2  0  0  0  0  0  0  0  0  0
   20.9748  -32.6988   -9.8168 C   0  0  0  0  0  0  0  0  0  0  0  0
   23.1148  -32.1368  -10.9933 C   0  0  2  0  0  0  0  0  0  0  0  0
   23.6793  -32.4225  -12.3145 N   0  0  0  0  0  0  0  0  0  0  0  0
   23.7973  -32.8785   -9.9415 C   0  0  0  0  0  0  0  0  0  0  0  0
   23.5331  -34.1336   -9.8124 O   0  0  0  0  0  0  0  0  0  0  0  0
   28.0724  -35.3889  -13.6856 O   0  0  0  0  0  0  0  0  0  0  0  0
   27.8125  -34.8563  -12.4141 C   0  0  0  0  0  0  0  0  0  0  0  0
   27.5197  -35.6571  -11.3386 C   0  0  0  0  0  0  0  0  0  0  0  0
   27.2710  -35.0954  -10.1081 C   0  0  0  0  0  0  0  0  0  0  0  0
   27.3167  -33.7080   -9.9543 C   0  0  0  0  0  0  0  0  0  0  0  0
   27.0297  -33.1219   -8.6427 C   0  0  0  0  0  0  0  0  0  0  0  0
   25.6020  -33.2611   -8.2343 C   0  0  2  0  0  0  0  0  0  0  0  0
   24.7463  -32.3540   -9.0273 N   0  0  0  0  0  0  0  0  0  0  0  0
   25.4389  -32.9335   -6.8067 C   0  0  0  0  0  0  0  0  0  0  0  0
   24.6644  -31.8646   -6.3586 O   0  0  0  0  0  0  0  0  0  0  0  0
   27.6118  -32.9378  -11.0490 C   0  0  0  0  0  0  0  0  0  0  0  0
   27.8642  -33.4985  -12.2947 C   0  0  0  0  0  0  0  0  0  0  0  0
   25.9984  -33.6119   -5.9104 O   0  0  0  0  0  0  0  0  0  0  0  0
  2  3  1  0
  2  1  1  6
  3  4  1  0
  4  5  1  0
  5  6  1  0
  7  6  1  0
  8  9  2  0
  8  2  1  0
 10 11  1  0
 11 12  1  0
 12 14  1  0
 12 13  1  1
 14 15  1  6
 15  8  1  0
 16 14  1  0
 16 17  2  0
 18 19  1  0
 19 29  2  0
 20 21  2  0
 20 19  1  0
 21 22  1  0
 22 23  1  0
 22 28  2  0
 24 25  1  0
 24 23  1  6
 25 16  1  0
 26 24  1  0
 27 26  1  0
 29 28  1  0
 30 26  2  0
M  END
$$$$
