KIY.pdb
     RDKit          3D

 30 30  0  0  1  0  0  0  0  0999 V2000
   21.8632  -13.2664  -18.1357 N   0  0  0  0  0  0  0  0  0  0  0  0
   22.0550  -11.9148  -18.5561 C   0  0  1  0  0  0  0  0  0  0  0  0
   22.1573  -11.8526  -20.0477 C   0  0  0  0  0  0  0  0  0  0  0  0
   23.1346  -12.7719  -20.6748 C   0  0  0  0  0  0  0  0  0  0  0  0
   23.2472  -12.7245  -22.1580 C   0  0  0  0  0  0  0  0  0  0  0  0
   24.2471  -13.6892  -22.7324 C   0  0  0  0  0  0  0  0  0  0  0  0
   23.9528  -15.0517  -22.2702 N   0  0  0  0  0  0  0  0  0  0  0  0
   20.9720  -11.0520  -18.0228 C   0  0  0  0  0  0  0  0  0  0  0  0
   20.1138  -10.6189  -18.8252 O   0  0  0  0  0  0  0  0  0  0  0  0
   17.4513  -12.5927  -14.8354 C   0  0  0  0  0  0  0  0  0  0  0  0
   18.2171  -11.8645  -15.9575 C   0  0  0  0  0  0  0  0  0  0  0  0
   18.9015  -10.7024  -15.3045 C   0  0  2  0  0  0  0  0  0  0  0  0
   17.9366   -9.9144  -14.4465 C   0  0  0  0  0  0  0  0  0  0  0  0
   19.7300   -9.8430  -16.1953 C   0  0  2  0  0  0  0  0  0  0  0  0
   20.8390  -10.6805  -16.6584 N   0  0  0  0  0  0  0  0  0  0  0  0
   20.1989   -8.5721  -15.6596 C   0  0  0  0  0  0  0  0  0  0  0  0
   21.0209   -8.5964  -14.6669 O   0  0  0  0  0  0  0  0  0  0  0  0
   25.8727   -7.2947  -18.4316 O   0  0  0  0  0  0  0  0  0  0  0  0
   24.6850   -6.7467  -17.9246 C   0  0  0  0  0  0  0  0  0  0  0  0
   24.6836   -5.8742  -16.8650 C   0  0  0  0  0  0  0  0  0  0  0  0
   23.4972   -5.3589  -16.3978 C   0  0  0  0  0  0  0  0  0  0  0  0
   22.2930   -5.7249  -17.0033 C   0  0  0  0  0  0  0  0  0  0  0  0
   21.0349   -5.1844  -16.4824 C   0  0  0  0  0  0  0  0  0  0  0  0
   20.3832   -6.0721  -15.4765 C   0  0  2  0  0  0  0  0  0  0  0  0
   19.8413   -7.2823  -16.1287 N   0  0  0  0  0  0  0  0  0  0  0  0
   19.2788   -5.3659  -14.8029 C   0  0  0  0  0  0  0  0  0  0  0  0
   19.4846   -4.3180  -13.9069 O   0  0  0  0  0  0  0  0  0  0  0  0
   22.3304   -6.5984  -18.0588 C   0  0  0  0  0  0  0  0  0  0  0  0
   23.5251   -7.1226  -18.5359 C   0  0  0  0  0  0  0  0  0  0  0  0
   18.0799   -5.6787  -15.0065 O   0  0  0  0  0  0  0  0  0  0  0  0
  2  3  1  0
  2  1  1  6
  3  4  1  0
  4  5  1  0
  5  6  1  0
  7  6  1  0
  8  9  2  0
  8  2  1  0
 10 11  1  0
 11 12  1  0
 12 14  1  0
 12 13  1  6
 14 15  1  1
 15  8  1  0
 16 14  1  0
 16 17  2  0
 18 19  1  0
 19 29  2  0
 20 21  2  0
 20 19  1  0
 21 22  1  0
 22 23  1  0
 22 28  2  0
 24 25  1  0
 24 23  1  6
 25 16  1  0
 26 24  1  0
 27 26  1  0
 29 28  1  0
 30 26  2  0
M  END
$$$$
