KIY.pdb
     RDKit          3D

 30 30  0  0  1  0  0  0  0  0999 V2000
   28.0691  -19.5478  -15.6404 N   0  0  0  0  0  0  0  0  0  0  0  0
   27.4228  -20.7882  -15.9303 C   0  0  1  0  0  0  0  0  0  0  0  0
   28.3958  -21.7383  -16.5546 C   0  0  0  0  0  0  0  0  0  0  0  0
   29.1425  -21.2315  -17.7290 C   0  0  0  0  0  0  0  0  0  0  0  0
   28.3376  -20.6597  -18.8426 C   0  0  0  0  0  0  0  0  0  0  0  0
   29.1486  -20.2320  -20.0341 C   0  0  0  0  0  0  0  0  0  0  0  0
   28.2606  -19.7392  -21.0949 N   0  0  0  0  0  0  0  0  0  0  0  0
   26.7948  -21.3396  -14.7042 C   0  0  0  0  0  0  0  0  0  0  0  0
   26.2589  -22.4691  -14.7729 O   0  0  0  0  0  0  0  0  0  0  0  0
   28.8211  -20.9032   -9.8457 C   0  0  0  0  0  0  0  0  0  0  0  0
   28.1580  -21.4397  -11.1296 C   0  0  0  0  0  0  0  0  0  0  0  0
   26.7438  -20.9448  -11.1026 C   0  0  2  0  0  0  0  0  0  0  0  0
   26.0340  -21.3940   -9.8446 C   0  0  0  0  0  0  0  0  0  0  0  0
   25.9451  -21.1716  -12.3391 C   0  0  2  0  0  0  0  0  0  0  0  0
   26.7585  -20.6728  -13.4506 N   0  0  0  0  0  0  0  0  0  0  0  0
   24.5919  -20.6335  -12.3751 C   0  0  0  0  0  0  0  0  0  0  0  0
   24.4181  -19.4008  -12.0403 O   0  0  0  0  0  0  0  0  0  0  0  0
   22.5252  -16.6464  -17.7394 O   0  0  0  0  0  0  0  0  0  0  0  0
   22.2308  -17.6841  -16.8424 C   0  0  0  0  0  0  0  0  0  0  0  0
   21.0193  -17.7675  -16.2027 C   0  0  0  0  0  0  0  0  0  0  0  0
   20.7699  -18.8011  -15.3304 C   0  0  0  0  0  0  0  0  0  0  0  0
   21.7518  -19.7664  -15.0962 C   0  0  0  0  0  0  0  0  0  0  0  0
   21.4802  -20.8505  -14.1490 C   0  0  0  0  0  0  0  0  0  0  0  0
   22.1174  -20.6430  -12.8166 C   0  0  2  0  0  0  0  0  0  0  0  0
   23.4201  -21.3378  -12.7524 N   0  0  0  0  0  0  0  0  0  0  0  0
   21.2525  -21.1648  -11.7435 C   0  0  0  0  0  0  0  0  0  0  0  0
   20.0308  -20.5844  -11.4058 O   0  0  0  0  0  0  0  0  0  0  0  0
   22.9503  -19.6528  -15.7512 C   0  0  0  0  0  0  0  0  0  0  0  0
   23.2089  -18.6116  -16.6337 C   0  0  0  0  0  0  0  0  0  0  0  0
   21.5790  -22.1733  -11.0704 O   0  0  0  0  0  0  0  0  0  0  0  0
  2  3  1  0
  2  1  1  1
  3  4  1  0
  4  5  1  0
  5  6  1  0
  7  6  1  0
  8  9  2  0
  8  2  1  0
 10 11  1  0
 11 12  1  0
 12 14  1  0
 12 13  1  1
 14 15  1  6
 15  8  1  0
 16 14  1  0
 16 17  2  0
 18 19  1  0
 19 29  2  0
 20 21  2  0
 20 19  1  0
 21 22  1  0
 22 23  1  0
 22 28  2  0
 24 25  1  0
 24 23  1  6
 25 16  1  0
 26 24  1  0
 27 26  1  0
 29 28  1  0
 30 26  2  0
M  END
$$$$
