KIY.pdb
     RDKit          3D

 30 30  0  0  1  0  0  0  0  0999 V2000
   27.6337  -21.8818  -15.7195 N   0  0  0  0  0  0  0  0  0  0  0  0
   27.0552  -20.7359  -15.0931 C   0  0  1  0  0  0  0  0  0  0  0  0
   26.5042  -19.8092  -16.1309 C   0  0  0  0  0  0  0  0  0  0  0  0
   27.4758  -19.2767  -17.1138 C   0  0  0  0  0  0  0  0  0  0  0  0
   26.9918  -18.2043  -18.0252 C   0  0  0  0  0  0  0  0  0  0  0  0
   27.9705  -17.8187  -19.0993 C   0  0  0  0  0  0  0  0  0  0  0  0
   27.4368  -16.6998  -19.8865 N   0  0  0  0  0  0  0  0  0  0  0  0
   26.0332  -21.1530  -14.1016 C   0  0  0  0  0  0  0  0  0  0  0  0
   25.4417  -22.2410  -14.2863 O   0  0  0  0  0  0  0  0  0  0  0  0
   26.8902  -20.8362   -8.9579 C   0  0  0  0  0  0  0  0  0  0  0  0
   26.4392  -21.3703  -10.3316 C   0  0  0  0  0  0  0  0  0  0  0  0
   25.1649  -20.6519  -10.6567 C   0  0  2  0  0  0  0  0  0  0  0  0
   24.1281  -20.8671   -9.5765 C   0  0  0  0  0  0  0  0  0  0  0  0
   24.6295  -20.8541  -12.0317 C   0  0  2  0  0  0  0  0  0  0  0  0
   25.6763  -20.4009  -12.9507 N   0  0  0  0  0  0  0  0  0  0  0  0
   23.3382  -20.2578  -12.3463 C   0  0  0  0  0  0  0  0  0  0  0  0
   23.2327  -18.9739  -12.2975 O   0  0  0  0  0  0  0  0  0  0  0  0
   20.9271  -24.6456  -17.5422 O   0  0  0  0  0  0  0  0  0  0  0  0
   20.9199  -23.4685  -16.7791 C   0  0  0  0  0  0  0  0  0  0  0  0
   22.0592  -22.7317  -16.5723 C   0  0  0  0  0  0  0  0  0  0  0  0
   22.0098  -21.5829  -15.8177 C   0  0  0  0  0  0  0  0  0  0  0  0
   20.7980  -21.1668  -15.2618 C   0  0  0  0  0  0  0  0  0  0  0  0
   20.7638  -19.9523  -14.4432 C   0  0  0  0  0  0  0  0  0  0  0  0
   20.9070  -20.2210  -12.9832 C   0  0  2  0  0  0  0  0  0  0  0  0
   22.1598  -20.9566  -12.7130 N   0  0  0  0  0  0  0  0  0  0  0  0
   19.7738  -21.0254  -12.4925 C   0  0  0  0  0  0  0  0  0  0  0  0
   18.4618  -20.5545  -12.4755 O   0  0  0  0  0  0  0  0  0  0  0  0
   19.6796  -21.9262  -15.4878 C   0  0  0  0  0  0  0  0  0  0  0  0
   19.7222  -23.0875  -16.2491 C   0  0  0  0  0  0  0  0  0  0  0  0
   19.9374  -22.1924  -12.0588 O   0  0  0  0  0  0  0  0  0  0  0  0
  2  3  1  0
  2  1  1  6
  3  4  1  0
  4  5  1  0
  5  6  1  0
  7  6  1  0
  8  9  2  0
  8  2  1  0
 10 11  1  0
 11 12  1  0
 12 14  1  0
 12 13  1  1
 14 15  1  6
 15  8  1  0
 16 14  1  0
 16 17  2  0
 18 19  1  0
 19 29  2  0
 20 21  2  0
 20 19  1  0
 21 22  1  0
 22 23  1  0
 22 28  2  0
 24 25  1  0
 24 23  1  6
 25 16  1  0
 26 24  1  0
 27 26  1  0
 29 28  1  0
 30 26  2  0
M  END
$$$$
