KIY.pdb
     RDKit          3D

 30 30  0  0  1  0  0  0  0  0999 V2000
   24.8617  -24.9826  -14.9801 N   0  0  0  0  0  0  0  0  0  0  0  0
   23.6035  -24.7209  -15.6035 C   0  0  1  0  0  0  0  0  0  0  0  0
   23.0675  -25.9745  -16.2201 C   0  0  0  0  0  0  0  0  0  0  0  0
   23.9131  -26.6051  -17.2597 C   0  0  0  0  0  0  0  0  0  0  0  0
   23.3312  -26.7152  -18.6250 C   0  0  0  0  0  0  0  0  0  0  0  0
   24.2362  -27.3704  -19.6309 C   0  0  0  0  0  0  0  0  0  0  0  0
   23.6192  -27.3296  -20.9629 N   0  0  0  0  0  0  0  0  0  0  0  0
   22.6619  -24.1180  -14.6280 C   0  0  0  0  0  0  0  0  0  0  0  0
   22.8744  -24.3076  -13.4087 O   0  0  0  0  0  0  0  0  0  0  0  0
   22.1775  -19.2023  -14.2248 C   0  0  0  0  0  0  0  0  0  0  0  0
   22.2628  -20.7266  -14.0120 C   0  0  0  0  0  0  0  0  0  0  0  0
   20.8589  -21.2388  -14.1228 C   0  0  2  0  0  0  0  0  0  0  0  0
   19.9148  -20.4298  -13.2613 C   0  0  0  0  0  0  0  0  0  0  0  0
   20.6822  -22.7093  -13.9648 C   0  0  2  0  0  0  0  0  0  0  0  0
   21.5300  -23.3363  -14.9816 N   0  0  0  0  0  0  0  0  0  0  0  0
   19.3227  -23.2316  -13.9969 C   0  0  0  0  0  0  0  0  0  0  0  0
   18.6182  -23.0298  -15.0574 O   0  0  0  0  0  0  0  0  0  0  0  0
   19.5332  -29.1692   -9.5496 O   0  0  0  0  0  0  0  0  0  0  0  0
   18.9224  -28.3360  -10.4986 C   0  0  0  0  0  0  0  0  0  0  0  0
   17.6072  -27.9583  -10.3921 C   0  0  0  0  0  0  0  0  0  0  0  0
   17.0456  -27.1398  -11.3440 C   0  0  0  0  0  0  0  0  0  0  0  0
   17.8159  -26.6932  -12.4200 C   0  0  0  0  0  0  0  0  0  0  0  0
   17.1994  -25.8384  -13.4376 C   0  0  0  0  0  0  0  0  0  0  0  0
   17.2729  -24.3852  -13.1105 C   0  0  2  0  0  0  0  0  0  0  0  0
   18.6801  -23.9588  -12.9626 N   0  0  0  0  0  0  0  0  0  0  0  0
   16.5608  -24.1023  -11.8516 C   0  0  0  0  0  0  0  0  0  0  0  0
   15.1801  -24.2385  -11.7153 O   0  0  0  0  0  0  0  0  0  0  0  0
   19.1257  -27.0896  -12.4960 C   0  0  0  0  0  0  0  0  0  0  0  0
   19.6994  -27.9160  -11.5380 C   0  0  0  0  0  0  0  0  0  0  0  0
   17.1726  -23.7189  -10.8242 O   0  0  0  0  0  0  0  0  0  0  0  0
  2  3  1  0
  2  1  1  1
  3  4  1  0
  4  5  1  0
  5  6  1  0
  7  6  1  0
  8  9  2  0
  8  2  1  0
 10 11  1  0
 11 12  1  0
 12 14  1  0
 12 13  1  1
 14 15  1  6
 15  8  1  0
 16 14  1  0
 16 17  2  0
 18 19  1  0
 19 29  2  0
 20 21  2  0
 20 19  1  0
 21 22  1  0
 22 23  1  0
 22 28  2  0
 24 25  1  0
 24 23  1  1
 25 16  1  0
 26 24  1  0
 27 26  1  0
 29 28  1  0
 30 26  2  0
M  END
$$$$
