EQW.pdb
     RDKit          3D

 33 34  0  0  1  0  0  0  0  0999 V2000
   10.1450  -14.5186   19.9036 N   0  0  0  0  0  0  0  0  0  0  0  0
    8.7982  -14.6751   20.3257 C   0  0  1  0  0  0  0  0  0  0  0  0
    7.8075  -15.0642   19.2821 C   0  0  0  0  0  0  0  0  0  0  0  0
    8.3580  -15.4707   17.9643 C   0  0  0  0  0  0  0  0  0  0  0  0
    7.4101  -15.9249   16.9543 C   0  0  0  0  0  0  0  0  0  0  0  0
    6.5587  -16.8003   17.1746 O   0  0  0  0  0  0  0  0  0  0  0  0
    8.7256  -15.7473   21.3929 C   0  0  0  0  0  0  0  0  0  0  0  0
    7.6211  -16.0306   21.8788 O   0  0  0  0  0  0  0  0  0  0  0  0
    7.4458  -15.3611   15.6688 O   0  0  0  0  0  0  0  0  0  0  0  0
   10.4357  -21.1760   21.5535 N   0  0  0  0  0  0  0  0  0  0  0  0
   10.6708  -20.9642   22.9633 C   0  0  0  0  0  0  0  0  0  0  0  0
   10.6321  -21.9574   23.7005 O   0  0  0  0  0  0  0  0  0  0  0  0
   10.9429  -19.6240   23.4694 C   0  0  0  0  0  0  0  0  0  0  0  0
   10.9689  -18.5305   22.4702 C   0  0  0  0  0  0  0  0  0  0  0  0
   10.0261  -17.3883   22.8174 C   0  0  2  0  0  0  0  0  0  0  0  0
    9.9229  -16.3874   21.7957 N   0  0  0  0  0  0  0  0  0  0  0  0
   10.2519  -16.8576   24.1611 C   0  0  0  0  0  0  0  0  0  0  0  0
   11.2958  -16.1531   24.4007 O   0  0  0  0  0  0  0  0  0  0  0  0
    9.3959  -17.0541   25.2665 N   0  0  0  0  0  0  0  0  0  0  0  0
    9.6733  -16.5872   26.6196 C   0  0  1  0  0  0  0  0  0  0  0  0
    8.4437  -16.1121   27.3000 C   0  0  0  0  0  0  0  0  0  0  0  0
    7.6080  -15.2708   26.4271 C   0  0  0  0  0  0  0  0  0  0  0  0
    6.6719  -15.7149   25.4816 C   0  0  0  0  0  0  0  0  0  0  0  0
    6.1304  -14.6623   24.8494 N   0  0  0  0  0  0  0  0  0  0  0  0
    6.6572  -13.5243   25.3254 C   0  0  0  0  0  0  0  0  0  0  0  0
    6.4076  -12.1895   25.0044 C   0  0  0  0  0  0  0  0  0  0  0  0
    7.1066  -11.2367   25.6981 C   0  0  0  0  0  0  0  0  0  0  0  0
    8.0372  -11.5628   26.6913 C   0  0  0  0  0  0  0  0  0  0  0  0
    8.2433  -12.8820   26.9648 C   0  0  0  0  0  0  0  0  0  0  0  0
    7.5688  -13.8887   26.2981 C   0  0  0  0  0  0  0  0  0  0  0  0
   10.5225  -17.4733   27.3739 C   0  0  0  0  0  0  0  0  0  0  0  0
   11.0375  -17.1997   28.6452 O   0  0  0  0  0  0  0  0  0  0  0  0
   10.8835  -18.6153   26.9134 O   0  0  0  0  0  0  0  0  0  0  0  0
  2  3  1  0
  2  1  1  6
  3  4  1  0
  4  5  1  0
  5  9  1  0
  6  5  2  0
  7  8  2  0
  7  2  1  0
 10 11  1  0
 11 13  1  0
 12 11  2  0
 13 14  1  0
 15 14  1  6
 15 16  1  0
 16  7  1  0
 17 15  1  0
 17 19  1  0
 18 17  2  0
 20 19  1  0
 20 31  1  0
 20 21  1  1
 22 21  1  0
 23 22  2  0
 24 25  1  0
 24 23  1  0
 25 30  2  0
 26 25  1  0
 26 27  2  0
 27 28  1  0
 28 29  2  0
 30 22  1  0
 30 29  1  0
 31 32  1  0
 33 31  2  0
M  END
$$$$
