EQW.pdb
     RDKit          3D

 33 34  0  0  1  0  0  0  0  0999 V2000
   12.7439  -18.2958   21.3946 N   0  0  0  0  0  0  0  0  0  0  0  0
   12.3745  -17.0181   20.8969 C   0  0  1  0  0  0  0  0  0  0  0  0
   12.3365  -16.8592   19.4152 C   0  0  0  0  0  0  0  0  0  0  0  0
   12.1248  -18.0958   18.6210 C   0  0  0  0  0  0  0  0  0  0  0  0
   12.2588  -17.9925   17.1732 C   0  0  0  0  0  0  0  0  0  0  0  0
   11.8295  -18.8571   16.3935 O   0  0  0  0  0  0  0  0  0  0  0  0
   10.9870  -16.6663   21.3917 C   0  0  0  0  0  0  0  0  0  0  0  0
   10.4878  -15.5853   21.0472 O   0  0  0  0  0  0  0  0  0  0  0  0
   12.8996  -16.8744   16.6157 O   0  0  0  0  0  0  0  0  0  0  0  0
    8.0908  -21.4550   22.7417 N   0  0  0  0  0  0  0  0  0  0  0  0
    8.2015  -20.7819   21.4680 C   0  0  0  0  0  0  0  0  0  0  0  0
    8.2543  -21.4902   20.4547 O   0  0  0  0  0  0  0  0  0  0  0  0
    8.2446  -19.3256   21.4081 C   0  0  0  0  0  0  0  0  0  0  0  0
    8.0994  -18.6045   22.6941 C   0  0  0  0  0  0  0  0  0  0  0  0
    9.0089  -17.3895   22.7979 C   0  0  2  0  0  0  0  0  0  0  0  0
   10.3106  -17.5862   22.2294 N   0  0  0  0  0  0  0  0  0  0  0  0
    9.0180  -16.8032   24.1375 C   0  0  0  0  0  0  0  0  0  0  0  0
    8.3101  -15.7628   24.3823 O   0  0  0  0  0  0  0  0  0  0  0  0
    9.7621  -17.2922   25.2331 N   0  0  0  0  0  0  0  0  0  0  0  0
    9.7864  -16.6781   26.5553 C   0  0  1  0  0  0  0  0  0  0  0  0
    8.4244  -16.5588   27.1310 C   0  0  0  0  0  0  0  0  0  0  0  0
    7.6100  -15.5440   26.4417 C   0  0  0  0  0  0  0  0  0  0  0  0
    6.6069  -15.7793   25.4900 C   0  0  0  0  0  0  0  0  0  0  0  0
    6.1102  -14.6110   25.0552 N   0  0  0  0  0  0  0  0  0  0  0  0
    6.7315  -13.5941   25.6708 C   0  0  0  0  0  0  0  0  0  0  0  0
    6.5580  -12.2132   25.5707 C   0  0  0  0  0  0  0  0  0  0  0  0
    7.3479  -11.4230   26.3639 C   0  0  0  0  0  0  0  0  0  0  0  0
    8.2963  -11.9542   27.2456 C   0  0  0  0  0  0  0  0  0  0  0  0
    8.4256  -13.3097   27.3034 C   0  0  0  0  0  0  0  0  0  0  0  0
    7.6576  -14.1587   26.5273 C   0  0  0  0  0  0  0  0  0  0  0  0
   10.8049  -17.2131   27.4223 C   0  0  0  0  0  0  0  0  0  0  0  0
   11.7751  -18.1446   27.0386 O   0  0  0  0  0  0  0  0  0  0  0  0
   10.8934  -16.8639   28.6538 O   0  0  0  0  0  0  0  0  0  0  0  0
  2  3  1  0
  2  1  1  6
  3  4  1  0
  4  5  1  0
  5  9  1  0
  6  5  2  0
  7  8  2  0
  7  2  1  0
 10 11  1  0
 11 13  1  0
 12 11  2  0
 13 14  1  0
 15 14  1  1
 15 16  1  0
 16  7  1  0
 17 15  1  0
 17 19  1  0
 18 17  2  0
 20 19  1  0
 20 31  1  0
 20 21  1  1
 22 21  1  0
 23 22  2  0
 24 25  1  0
 24 23  1  0
 25 30  2  0
 26 25  1  0
 26 27  2  0
 27 28  1  0
 28 29  2  0
 30 22  1  0
 30 29  1  0
 31 32  1  0
 33 31  2  0
M  END
$$$$
