EQW.pdb
     RDKit          3D

 33 34  0  0  1  0  0  0  0  0999 V2000
   10.8148  -17.9153   17.7094 N   0  0  0  0  0  0  0  0  0  0  0  0
   11.4289  -18.3705   18.9061 C   0  0  1  0  0  0  0  0  0  0  0  0
   12.7997  -17.8605   19.1943 C   0  0  0  0  0  0  0  0  0  0  0  0
   13.8497  -18.1800   18.1942 C   0  0  0  0  0  0  0  0  0  0  0  0
   15.2056  -17.7274   18.4795 C   0  0  0  0  0  0  0  0  0  0  0  0
   15.8243  -16.9455   17.7409 O   0  0  0  0  0  0  0  0  0  0  0  0
   10.5760  -17.9735   20.0931 C   0  0  0  0  0  0  0  0  0  0  0  0
   10.1250  -16.8200   20.1434 O   0  0  0  0  0  0  0  0  0  0  0  0
   15.8591  -18.1854   19.6349 O   0  0  0  0  0  0  0  0  0  0  0  0
    8.1564  -23.2081   21.6983 N   0  0  0  0  0  0  0  0  0  0  0  0
    7.4033  -21.9813   21.8222 C   0  0  0  0  0  0  0  0  0  0  0  0
    6.2246  -22.0735   22.1877 O   0  0  0  0  0  0  0  0  0  0  0  0
    8.0324  -20.7000   21.5245 C   0  0  0  0  0  0  0  0  0  0  0  0
    8.7219  -20.0230   22.6476 C   0  0  0  0  0  0  0  0  0  0  0  0
    9.4460  -18.7552   22.2202 C   0  0  2  0  0  0  0  0  0  0  0  0
   10.3247  -18.9355   21.1014 N   0  0  0  0  0  0  0  0  0  0  0  0
   10.0426  -18.0383   23.3464 C   0  0  0  0  0  0  0  0  0  0  0  0
   11.3169  -18.0181   23.4857 O   0  0  0  0  0  0  0  0  0  0  0  0
    9.3212  -17.3368   24.3367 N   0  0  0  0  0  0  0  0  0  0  0  0
    9.9298  -16.6305   25.4577 C   0  0  1  0  0  0  0  0  0  0  0  0
    9.7592  -15.1616   25.3396 C   0  0  0  0  0  0  0  0  0  0  0  0
    8.3677  -14.7376   25.5679 C   0  0  0  0  0  0  0  0  0  0  0  0
    7.2256  -15.5505   25.5223 C   0  0  0  0  0  0  0  0  0  0  0  0
    6.1302  -14.8080   25.7448 N   0  0  0  0  0  0  0  0  0  0  0  0
    6.4794  -13.5278   25.9403 C   0  0  0  0  0  0  0  0  0  0  0  0
    5.7118  -12.3968   26.2209 C   0  0  0  0  0  0  0  0  0  0  0  0
    6.3795  -11.2125   26.3913 C   0  0  0  0  0  0  0  0  0  0  0  0
    7.7723  -11.1150   26.2930 C   0  0  0  0  0  0  0  0  0  0  0  0
    8.4738  -12.2501   26.0162 C   0  0  0  0  0  0  0  0  0  0  0  0
    7.8562  -13.4740   25.8332 C   0  0  0  0  0  0  0  0  0  0  0  0
    9.6251  -17.2108   26.7405 C   0  0  0  0  0  0  0  0  0  0  0  0
   10.2338  -16.8511   27.9473 O   0  0  0  0  0  0  0  0  0  0  0  0
    8.7456  -18.1361   26.8699 O   0  0  0  0  0  0  0  0  0  0  0  0
  2  3  1  0
  2  1  1  6
  3  4  1  0
  4  5  1  0
  5  9  1  0
  6  5  2  0
  7  8  2  0
  7  2  1  0
 10 11  1  0
 11 13  1  0
 12 11  2  0
 13 14  1  0
 15 14  1  1
 15 16  1  0
 16  7  1  0
 17 15  1  0
 17 19  1  0
 18 17  2  0
 20 19  1  0
 20 31  1  0
 20 21  1  1
 22 21  1  0
 23 22  2  0
 24 25  1  0
 24 23  1  0
 25 30  2  0
 26 25  1  0
 26 27  2  0
 27 28  1  0
 28 29  2  0
 30 22  1  0
 30 29  1  0
 31 32  1  0
 33 31  2  0
M  END
$$$$
