EQW.pdb
     RDKit          3D

 33 34  0  0  1  0  0  0  0  0999 V2000
   11.8723  -17.7147   19.3897 N   0  0  0  0  0  0  0  0  0  0  0  0
   10.6629  -17.0322   19.0928 C   0  0  1  0  0  0  0  0  0  0  0  0
    9.9268  -17.4689   17.8723 C   0  0  0  0  0  0  0  0  0  0  0  0
   10.6536  -17.3528   16.5827 C   0  0  0  0  0  0  0  0  0  0  0  0
    9.9635  -17.8082   15.3822 C   0  0  0  0  0  0  0  0  0  0  0  0
   10.1458  -18.9305   14.8851 O   0  0  0  0  0  0  0  0  0  0  0  0
    9.6954  -17.1957   20.2466 C   0  0  0  0  0  0  0  0  0  0  0  0
    8.5941  -16.6303   20.1854 O   0  0  0  0  0  0  0  0  0  0  0  0
    9.0494  -16.9547   14.7438 O   0  0  0  0  0  0  0  0  0  0  0  0
    8.3088  -21.9827   24.2511 N   0  0  0  0  0  0  0  0  0  0  0  0
    9.6499  -21.7618   23.7608 C   0  0  0  0  0  0  0  0  0  0  0  0
   10.5022  -22.6161   24.0352 O   0  0  0  0  0  0  0  0  0  0  0  0
    9.9581  -20.5730   22.9747 C   0  0  0  0  0  0  0  0  0  0  0  0
    8.8416  -19.6297   22.7335 C   0  0  0  0  0  0  0  0  0  0  0  0
    9.3092  -18.1950   22.5412 C   0  0  2  0  0  0  0  0  0  0  0  0
   10.0848  -17.9896   21.3527 N   0  0  0  0  0  0  0  0  0  0  0  0
    9.8990  -17.6256   23.7522 C   0  0  0  0  0  0  0  0  0  0  0  0
   11.1494  -17.7834   23.9866 O   0  0  0  0  0  0  0  0  0  0  0  0
    9.1953  -16.8883   24.7290 N   0  0  0  0  0  0  0  0  0  0  0  0
    9.7001  -16.5943   26.0649 C   0  0  1  0  0  0  0  0  0  0  0  0
    8.5999  -16.3034   27.0166 C   0  0  0  0  0  0  0  0  0  0  0  0
    7.5546  -15.4525   26.4237 C   0  0  0  0  0  0  0  0  0  0  0  0
    6.3625  -15.8844   25.8240 C   0  0  0  0  0  0  0  0  0  0  0  0
    5.6761  -14.8269   25.3644 N   0  0  0  0  0  0  0  0  0  0  0  0
    6.3497  -13.6972   25.6269 C   0  0  0  0  0  0  0  0  0  0  0  0
    6.0434  -12.3610   25.3661 C   0  0  0  0  0  0  0  0  0  0  0  0
    6.9438  -11.4178   25.7870 C   0  0  0  0  0  0  0  0  0  0  0  0
    8.1281  -11.7547   26.4525 C   0  0  0  0  0  0  0  0  0  0  0  0
    8.3788  -13.0747   26.6810 C   0  0  0  0  0  0  0  0  0  0  0  0
    7.5088  -14.0720   26.2795 C   0  0  0  0  0  0  0  0  0  0  0  0
   10.7120  -17.5152   26.5159 C   0  0  0  0  0  0  0  0  0  0  0  0
   11.0861  -18.6850   25.8466 O   0  0  0  0  0  0  0  0  0  0  0  0
   11.3610  -17.3227   27.6059 O   0  0  0  0  0  0  0  0  0  0  0  0
  2  3  1  0
  2  1  1  1
  3  4  1  0
  4  5  1  0
  5  9  1  0
  6  5  2  0
  7  8  2  0
  7  2  1  0
 10 11  1  0
 11 13  1  0
 12 11  2  0
 13 14  1  0
 15 14  1  1
 15 16  1  0
 16  7  1  0
 17 15  1  0
 17 19  1  0
 18 17  2  0
 20 19  1  0
 20 31  1  0
 20 21  1  1
 22 21  1  0
 23 22  2  0
 24 25  1  0
 24 23  1  0
 25 30  2  0
 26 25  1  0
 26 27  2  0
 27 28  1  0
 28 29  2  0
 30 22  1  0
 30 29  1  0
 31 32  1  0
 33 31  2  0
M  END
$$$$
