EQW.pdb
     RDKit          3D

 33 34  0  0  1  0  0  0  0  0999 V2000
   10.7207  -17.4060   18.9746 N   0  0  0  0  0  0  0  0  0  0  0  0
   10.1779  -16.1479   19.3477 C   0  0  1  0  0  0  0  0  0  0  0  0
    9.1452  -15.5665   18.4436 C   0  0  0  0  0  0  0  0  0  0  0  0
    8.1263  -16.5058   17.9104 C   0  0  0  0  0  0  0  0  0  0  0  0
    8.0427  -16.6512   16.4624 C   0  0  0  0  0  0  0  0  0  0  0  0
    8.6112  -17.5638   15.8429 O   0  0  0  0  0  0  0  0  0  0  0  0
    9.5250  -16.2644   20.7094 C   0  0  0  0  0  0  0  0  0  0  0  0
    9.0691  -15.2417   21.2410 O   0  0  0  0  0  0  0  0  0  0  0  0
    7.2923  -15.7280   15.7166 O   0  0  0  0  0  0  0  0  0  0  0  0
    5.6018  -19.7556   22.9660 N   0  0  0  0  0  0  0  0  0  0  0  0
    6.3700  -19.6907   24.1879 C   0  0  0  0  0  0  0  0  0  0  0  0
    5.7568  -19.8400   25.2523 O   0  0  0  0  0  0  0  0  0  0  0  0
    7.8090  -19.4600   24.1395 C   0  0  0  0  0  0  0  0  0  0  0  0
    8.3978  -19.2226   22.8009 C   0  0  0  0  0  0  0  0  0  0  0  0
    8.9198  -17.8043   22.6265 C   0  0  2  0  0  0  0  0  0  0  0  0
    9.4588  -17.5382   21.3246 N   0  0  0  0  0  0  0  0  0  0  0  0
    9.7756  -17.3770   23.7326 C   0  0  0  0  0  0  0  0  0  0  0  0
   11.0253  -17.6625   23.7181 O   0  0  0  0  0  0  0  0  0  0  0  0
    9.3408  -16.6502   24.8620 N   0  0  0  0  0  0  0  0  0  0  0  0
   10.2201  -16.1535   25.9137 C   0  0  1  0  0  0  0  0  0  0  0  0
    9.8764  -14.7651   26.3073 C   0  0  0  0  0  0  0  0  0  0  0  0
    8.4224  -14.5376   26.3525 C   0  0  0  0  0  0  0  0  0  0  0  0
    7.4213  -15.5193   26.3912 C   0  0  0  0  0  0  0  0  0  0  0  0
    6.2127  -14.9361   26.3879 N   0  0  0  0  0  0  0  0  0  0  0  0
    6.3503  -13.6024   26.3498 C   0  0  0  0  0  0  0  0  0  0  0  0
    5.4020  -12.5788   26.3488 C   0  0  0  0  0  0  0  0  0  0  0  0
    5.8697  -11.2911   26.3267 C   0  0  0  0  0  0  0  0  0  0  0  0
    7.2361  -10.9888   26.3056 C   0  0  0  0  0  0  0  0  0  0  0  0
    8.1197  -12.0265   26.3067 C   0  0  0  0  0  0  0  0  0  0  0  0
    7.7083  -13.3468   26.3277 C   0  0  0  0  0  0  0  0  0  0  0  0
   10.4255  -17.0925   26.9867 C   0  0  0  0  0  0  0  0  0  0  0  0
    9.7901  -18.3336   27.0975 O   0  0  0  0  0  0  0  0  0  0  0  0
   11.2311  -16.8449   27.9542 O   0  0  0  0  0  0  0  0  0  0  0  0
  2  3  1  0
  2  1  1  6
  3  4  1  0
  4  5  1  0
  5  9  1  0
  6  5  2  0
  7  8  2  0
  7  2  1  0
 10 11  1  0
 11 13  1  0
 12 11  2  0
 13 14  1  0
 15 14  1  1
 15 16  1  0
 16  7  1  0
 17 15  1  0
 17 19  1  0
 18 17  2  0
 20 19  1  0
 20 31  1  0
 20 21  1  1
 22 21  1  0
 23 22  2  0
 24 25  1  0
 24 23  1  0
 25 30  2  0
 26 25  1  0
 26 27  2  0
 27 28  1  0
 28 29  2  0
 30 22  1  0
 30 29  1  0
 31 32  1  0
 33 31  2  0
M  END
$$$$
