EQW.pdb
     RDKit          3D

 33 34  0  0  1  0  0  0  0  0999 V2000
    8.2429  -14.0132   17.6532 N   0  0  0  0  0  0  0  0  0  0  0  0
    8.7206  -15.2627   18.1296 C   0  0  1  0  0  0  0  0  0  0  0  0
   10.1834  -15.5176   17.9977 C   0  0  0  0  0  0  0  0  0  0  0  0
   10.6960  -15.7411   16.6222 C   0  0  0  0  0  0  0  0  0  0  0  0
   12.0894  -16.1464   16.4848 C   0  0  0  0  0  0  0  0  0  0  0  0
   13.0113  -15.3371   16.2983 O   0  0  0  0  0  0  0  0  0  0  0  0
    8.4037  -15.3944   19.6047 C   0  0  0  0  0  0  0  0  0  0  0  0
    8.4882  -14.3888   20.3244 O   0  0  0  0  0  0  0  0  0  0  0  0
   12.4248  -17.5077   16.5625 O   0  0  0  0  0  0  0  0  0  0  0  0
    5.6396  -20.7521   22.2062 N   0  0  0  0  0  0  0  0  0  0  0  0
    5.7549  -19.7700   23.2597 C   0  0  0  0  0  0  0  0  0  0  0  0
    5.3031  -20.0742   24.3709 O   0  0  0  0  0  0  0  0  0  0  0  0
    6.3852  -18.4816   22.9971 C   0  0  0  0  0  0  0  0  0  0  0  0
    6.8006  -18.2192   21.5995 C   0  0  0  0  0  0  0  0  0  0  0  0
    7.5904  -16.9278   21.4488 C   0  0  2  0  0  0  0  0  0  0  0  0
    8.0214  -16.6621   20.1071 N   0  0  0  0  0  0  0  0  0  0  0  0
    8.6385  -16.7852   22.4585 C   0  0  0  0  0  0  0  0  0  0  0  0
    9.7431  -17.4217   22.3243 O   0  0  0  0  0  0  0  0  0  0  0  0
    8.5479  -15.9808   23.6151 N   0  0  0  0  0  0  0  0  0  0  0  0
    9.5912  -15.8689   24.6275 C   0  0  1  0  0  0  0  0  0  0  0  0
    9.5844  -14.5361   25.2788 C   0  0  0  0  0  0  0  0  0  0  0  0
    8.2414  -14.1406   25.7351 C   0  0  0  0  0  0  0  0  0  0  0  0
    7.1313  -14.9817   25.9010 C   0  0  0  0  0  0  0  0  0  0  0  0
    6.0702  -14.2609   26.2951 N   0  0  0  0  0  0  0  0  0  0  0  0
    6.4122  -12.9686   26.4047 C   0  0  0  0  0  0  0  0  0  0  0  0
    5.6732  -11.8504   26.7928 C   0  0  0  0  0  0  0  0  0  0  0  0
    6.3274  -10.6469   26.8246 C   0  0  0  0  0  0  0  0  0  0  0  0
    7.6795  -10.5181   26.4867 C   0  0  0  0  0  0  0  0  0  0  0  0
    8.3543  -11.6420   26.1138 C   0  0  0  0  0  0  0  0  0  0  0  0
    7.7483  -12.8841   26.0617 C   0  0  0  0  0  0  0  0  0  0  0  0
    9.6720  -17.0103   25.5027 C   0  0  0  0  0  0  0  0  0  0  0  0
    8.7561  -18.0672   25.5274 O   0  0  0  0  0  0  0  0  0  0  0  0
   10.6216  -17.1397   26.3559 O   0  0  0  0  0  0  0  0  0  0  0  0
  2  3  1  0
  2  1  1  1
  3  4  1  0
  4  5  1  0
  5  9  1  0
  6  5  2  0
  7  8  2  0
  7  2  1  0
 10 11  1  0
 11 13  1  0
 12 11  2  0
 13 14  1  0
 15 14  1  6
 15 16  1  0
 16  7  1  0
 17 15  1  0
 17 19  1  0
 18 17  2  0
 20 19  1  0
 20 31  1  0
 20 21  1  1
 22 21  1  0
 23 22  2  0
 24 25  1  0
 24 23  1  0
 25 30  2  0
 26 25  1  0
 26 27  2  0
 27 28  1  0
 28 29  2  0
 30 22  1  0
 30 29  1  0
 31 32  1  0
 33 31  2  0
M  END
$$$$
