EQW.pdb
     RDKit          3D

 33 34  0  0  1  0  0  0  0  0999 V2000
    9.6094  -18.7475   19.5911 N   0  0  0  0  0  0  0  0  0  0  0  0
   10.5754  -18.5493   20.6129 C   0  0  1  0  0  0  0  0  0  0  0  0
   11.6204  -17.5170   20.3589 C   0  0  0  0  0  0  0  0  0  0  0  0
   12.7046  -17.4092   21.3676 C   0  0  0  0  0  0  0  0  0  0  0  0
   13.7819  -16.4660   21.0941 C   0  0  0  0  0  0  0  0  0  0  0  0
   14.2799  -15.7400   21.9684 O   0  0  0  0  0  0  0  0  0  0  0  0
    9.8784  -18.1342   21.8919 C   0  0  0  0  0  0  0  0  0  0  0  0
    9.3198  -17.0285   21.9342 O   0  0  0  0  0  0  0  0  0  0  0  0
   14.2920  -16.3576   19.7904 O   0  0  0  0  0  0  0  0  0  0  0  0
    7.4413  -22.6425   25.6971 N   0  0  0  0  0  0  0  0  0  0  0  0
    6.6311  -21.7585   24.8910 C   0  0  0  0  0  0  0  0  0  0  0  0
    5.4691  -22.1120   24.6543 O   0  0  0  0  0  0  0  0  0  0  0  0
    7.1851  -20.5054   24.3919 C   0  0  0  0  0  0  0  0  0  0  0  0
    8.5975  -20.2209   24.7366 C   0  0  0  0  0  0  0  0  0  0  0  0
    9.0890  -18.8955   24.1745 C   0  0  2  0  0  0  0  0  0  0  0  0
    9.8901  -19.0255   22.9923 N   0  0  0  0  0  0  0  0  0  0  0  0
    9.6634  -18.0250   25.1996 C   0  0  0  0  0  0  0  0  0  0  0  0
   10.9317  -17.8438   25.2438 O   0  0  0  0  0  0  0  0  0  0  0  0
    8.9257  -17.3362   26.1867 N   0  0  0  0  0  0  0  0  0  0  0  0
    9.5129  -16.4758   27.2069 C   0  0  1  0  0  0  0  0  0  0  0  0
    8.4776  -15.7062   27.9394 C   0  0  0  0  0  0  0  0  0  0  0  0
    7.4537  -15.1462   27.0415 C   0  0  0  0  0  0  0  0  0  0  0  0
    6.4549  -15.8586   26.3616 C   0  0  0  0  0  0  0  0  0  0  0  0
    5.7302  -15.0177   25.6078 N   0  0  0  0  0  0  0  0  0  0  0  0
    6.1929  -13.7665   25.7474 C   0  0  0  0  0  0  0  0  0  0  0  0
    5.7669  -12.5600   25.1906 C   0  0  0  0  0  0  0  0  0  0  0  0
    6.4466  -11.4272   25.5543 C   0  0  0  0  0  0  0  0  0  0  0  0
    7.5261  -11.4527   26.4448 C   0  0  0  0  0  0  0  0  0  0  0  0
    7.9016  -12.6578   26.9587 C   0  0  0  0  0  0  0  0  0  0  0  0
    7.2550  -13.8351   26.6289 C   0  0  0  0  0  0  0  0  0  0  0  0
   10.5131  -17.1314   28.0100 C   0  0  0  0  0  0  0  0  0  0  0  0
   11.4161  -16.4784   28.8552 O   0  0  0  0  0  0  0  0  0  0  0  0
   10.6546  -18.4067   28.0018 O   0  0  0  0  0  0  0  0  0  0  0  0
  2  3  1  0
  2  1  1  6
  3  4  1  0
  4  5  1  0
  5  9  1  0
  6  5  2  0
  7  8  2  0
  7  2  1  0
 10 11  1  0
 11 13  1  0
 12 11  2  0
 13 14  1  0
 15 14  1  1
 15 16  1  0
 16  7  1  0
 17 15  1  0
 17 19  1  0
 18 17  2  0
 20 19  1  0
 20 31  1  0
 20 21  1  1
 22 21  1  0
 23 22  2  0
 24 25  1  0
 24 23  1  0
 25 30  2  0
 26 25  1  0
 26 27  2  0
 27 28  1  0
 28 29  2  0
 30 22  1  0
 30 29  1  0
 31 32  1  0
 33 31  2  0
M  END
$$$$
