EQW.pdb
     RDKit          3D

 33 34  0  0  1  0  0  0  0  0999 V2000
    8.6687  -18.5319   19.7897 N   0  0  0  0  0  0  0  0  0  0  0  0
    9.9696  -18.0344   19.5129 C   0  0  1  0  0  0  0  0  0  0  0  0
   10.3340  -17.8673   18.0771 C   0  0  0  0  0  0  0  0  0  0  0  0
    9.9488  -18.9718   17.1626 C   0  0  0  0  0  0  0  0  0  0  0  0
   10.3330  -18.8459   15.7621 C   0  0  0  0  0  0  0  0  0  0  0  0
   11.1340  -17.9889   15.3576 O   0  0  0  0  0  0  0  0  0  0  0  0
   10.1331  -16.6693   20.1483 C   0  0  0  0  0  0  0  0  0  0  0  0
   11.2165  -16.0801   20.0240 O   0  0  0  0  0  0  0  0  0  0  0  0
    9.7831  -19.7219   14.8124 O   0  0  0  0  0  0  0  0  0  0  0  0
    9.0078  -12.3323   19.1248 N   0  0  0  0  0  0  0  0  0  0  0  0
    8.0443  -13.3425   18.7522 C   0  0  0  0  0  0  0  0  0  0  0  0
    7.8059  -13.4818   17.5459 O   0  0  0  0  0  0  0  0  0  0  0  0
    7.3960  -14.1527   19.7767 C   0  0  0  0  0  0  0  0  0  0  0  0
    7.8622  -13.9581   21.1694 C   0  0  0  0  0  0  0  0  0  0  0  0
    9.0432  -14.8472   21.5285 C   0  0  2  0  0  0  0  0  0  0  0  0
    9.0412  -16.1160   20.8603 N   0  0  0  0  0  0  0  0  0  0  0  0
    9.2742  -14.9250   22.9703 C   0  0  0  0  0  0  0  0  0  0  0  0
    9.4474  -13.8498   23.6467 O   0  0  0  0  0  0  0  0  0  0  0  0
    9.3272  -16.1194   23.7211 N   0  0  0  0  0  0  0  0  0  0  0  0
    9.7822  -16.2068   25.1036 C   0  0  1  0  0  0  0  0  0  0  0  0
    8.6657  -16.5125   26.0314 C   0  0  0  0  0  0  0  0  0  0  0  0
    7.5312  -15.5881   25.8689 C   0  0  0  0  0  0  0  0  0  0  0  0
    6.3032  -15.8687   25.2520 C   0  0  0  0  0  0  0  0  0  0  0  0
    5.5303  -14.7717   25.2587 N   0  0  0  0  0  0  0  0  0  0  0  0
    6.1797  -13.7602   25.8538 C   0  0  0  0  0  0  0  0  0  0  0  0
    5.7934  -12.4451   26.1149 C   0  0  0  0  0  0  0  0  0  0  0  0
    6.6920  -11.6465   26.7723 C   0  0  0  0  0  0  0  0  0  0  0  0
    7.9508  -12.1067   27.1754 C   0  0  0  0  0  0  0  0  0  0  0  0
    8.2780  -13.3996   26.8946 C   0  0  0  0  0  0  0  0  0  0  0  0
    7.4137  -14.2532   26.2334 C   0  0  0  0  0  0  0  0  0  0  0  0
   10.9844  -16.9833   25.2684 C   0  0  0  0  0  0  0  0  0  0  0  0
   11.6815  -17.1347   26.4714 O   0  0  0  0  0  0  0  0  0  0  0  0
   11.5226  -17.6090   24.2859 O   0  0  0  0  0  0  0  0  0  0  0  0
  2  3  1  0
  2  1  1  6
  3  4  1  0
  4  5  1  0
  5  9  1  0
  6  5  2  0
  7  8  2  0
  7  2  1  0
 10 11  1  0
 11 13  1  0
 12 11  2  0
 13 14  1  0
 15 14  1  1
 15 16  1  0
 16  7  1  0
 17 15  1  0
 17 19  1  0
 18 17  2  0
 20 19  1  0
 20 31  1  0
 20 21  1  1
 22 21  1  0
 23 22  2  0
 24 25  1  0
 24 23  1  0
 25 30  2  0
 26 25  1  0
 26 27  2  0
 27 28  1  0
 28 29  2  0
 30 22  1  0
 30 29  1  0
 31 32  1  0
 33 31  2  0
M  END
$$$$
