EQW.pdb
     RDKit          3D

 33 34  0  0  1  0  0  0  0  0999 V2000
   11.0425  -18.9106   19.0325 N   0  0  0  0  0  0  0  0  0  0  0  0
   12.1949  -18.2465   19.5299 C   0  0  1  0  0  0  0  0  0  0  0  0
   13.0959  -17.6181   18.5223 C   0  0  0  0  0  0  0  0  0  0  0  0
   12.4468  -17.0606   17.3088 C   0  0  0  0  0  0  0  0  0  0  0  0
   13.3181  -16.6147   16.2286 C   0  0  0  0  0  0  0  0  0  0  0  0
   12.8859  -16.2023   15.1410 O   0  0  0  0  0  0  0  0  0  0  0  0
   11.7709  -17.1332   20.4651 C   0  0  0  0  0  0  0  0  0  0  0  0
   12.6400  -16.3796   20.9269 O   0  0  0  0  0  0  0  0  0  0  0  0
   14.7108  -16.6464   16.4053 O   0  0  0  0  0  0  0  0  0  0  0  0
    7.4240  -12.7212   19.9868 N   0  0  0  0  0  0  0  0  0  0  0  0
    7.7807  -13.9111   19.2488 C   0  0  0  0  0  0  0  0  0  0  0  0
    7.5890  -13.8994   18.0263 O   0  0  0  0  0  0  0  0  0  0  0  0
    8.3444  -15.0637   19.9416 C   0  0  0  0  0  0  0  0  0  0  0  0
    9.3150  -14.7775   21.0236 C   0  0  0  0  0  0  0  0  0  0  0  0
    9.8456  -16.0370   21.6918 C   0  0  2  0  0  0  0  0  0  0  0  0
   10.3966  -16.9938   20.7767 N   0  0  0  0  0  0  0  0  0  0  0  0
    8.9073  -16.6006   22.6614 C   0  0  0  0  0  0  0  0  0  0  0  0
    8.2124  -17.6320   22.3501 O   0  0  0  0  0  0  0  0  0  0  0  0
    8.6829  -16.0979   23.9614 N   0  0  0  0  0  0  0  0  0  0  0  0
    7.8557  -16.7515   24.9686 C   0  0  1  0  0  0  0  0  0  0  0  0
    8.4025  -16.5642   26.3349 C   0  0  0  0  0  0  0  0  0  0  0  0
    8.5683  -15.1433   26.6838 C   0  0  0  0  0  0  0  0  0  0  0  0
    9.6959  -14.5504   27.2704 C   0  0  0  0  0  0  0  0  0  0  0  0
    9.4677  -13.2439   27.4747 N   0  0  0  0  0  0  0  0  0  0  0  0
    8.2357  -12.9247   27.0513 C   0  0  0  0  0  0  0  0  0  0  0  0
    7.5548  -11.7069   27.0344 C   0  0  0  0  0  0  0  0  0  0  0  0
    6.2903  -11.7029   26.5066 C   0  0  0  0  0  0  0  0  0  0  0  0
    5.6848  -12.8584   25.9995 C   0  0  0  0  0  0  0  0  0  0  0  0
    6.3938  -14.0216   26.0412 C   0  0  0  0  0  0  0  0  0  0  0  0
    7.6732  -14.0885   26.5622 C   0  0  0  0  0  0  0  0  0  0  0  0
    6.4452  -16.5101   24.8034 C   0  0  0  0  0  0  0  0  0  0  0  0
    5.4304  -17.1996   25.4751 O   0  0  0  0  0  0  0  0  0  0  0  0
    6.0044  -15.6167   23.9948 O   0  0  0  0  0  0  0  0  0  0  0  0
  2  3  1  0
  2  1  1  6
  3  4  1  0
  4  5  1  0
  5  9  1  0
  6  5  2  0
  7  8  2  0
  7  2  1  0
 10 11  1  0
 11 13  1  0
 12 11  2  0
 13 14  1  0
 15 14  1  6
 15 16  1  0
 16  7  1  0
 17 15  1  0
 17 19  1  0
 18 17  2  0
 20 19  1  0
 20 31  1  0
 20 21  1  1
 22 21  1  0
 23 22  2  0
 24 25  1  0
 24 23  1  0
 25 30  2  0
 26 25  1  0
 26 27  2  0
 27 28  1  0
 28 29  2  0
 30 22  1  0
 30 29  1  0
 31 32  1  0
 33 31  2  0
M  END
$$$$
