EQW.pdb
     RDKit          3D

 33 34  0  0  1  0  0  0  0  0999 V2000
    9.3795  -19.4414   20.1694 N   0  0  0  0  0  0  0  0  0  0  0  0
    9.9999  -18.4273   19.3928 C   0  0  1  0  0  0  0  0  0  0  0  0
    9.6027  -18.3413   17.9586 C   0  0  0  0  0  0  0  0  0  0  0  0
   10.4030  -19.1444   16.9998 C   0  0  0  0  0  0  0  0  0  0  0  0
    9.9998  -19.1118   15.5994 C   0  0  0  0  0  0  0  0  0  0  0  0
   10.5677  -19.7768   14.7191 O   0  0  0  0  0  0  0  0  0  0  0  0
    9.6921  -17.0720   19.9948 C   0  0  0  0  0  0  0  0  0  0  0  0
   10.2089  -16.0647   19.4903 O   0  0  0  0  0  0  0  0  0  0  0  0
    8.9247  -18.2978   15.2078 O   0  0  0  0  0  0  0  0  0  0  0  0
    5.7961  -17.8050   23.2535 N   0  0  0  0  0  0  0  0  0  0  0  0
    5.5327  -17.6517   21.8412 C   0  0  0  0  0  0  0  0  0  0  0  0
    4.7518  -18.4572   21.3190 O   0  0  0  0  0  0  0  0  0  0  0  0
    6.1730  -16.5809   21.0865 C   0  0  0  0  0  0  0  0  0  0  0  0
    6.9405  -15.5848   21.8699 C   0  0  0  0  0  0  0  0  0  0  0  0
    8.4439  -15.8054   21.7978 C   0  0  2  0  0  0  0  0  0  0  0  0
    8.8241  -17.0059   21.1118 N   0  0  0  0  0  0  0  0  0  0  0  0
    9.1060  -15.6119   23.0872 C   0  0  0  0  0  0  0  0  0  0  0  0
    9.6605  -14.4878   23.3562 O   0  0  0  0  0  0  0  0  0  0  0  0
    9.1977  -16.5838   24.1071 N   0  0  0  0  0  0  0  0  0  0  0  0
   10.0227  -16.4522   25.3020 C   0  0  1  0  0  0  0  0  0  0  0  0
    9.7580  -15.1785   26.0152 C   0  0  0  0  0  0  0  0  0  0  0  0
    8.3246  -14.8440   26.0541 C   0  0  0  0  0  0  0  0  0  0  0  0
    7.2520  -15.7303   25.8775 C   0  0  0  0  0  0  0  0  0  0  0  0
    6.0921  -15.0587   25.9427 N   0  0  0  0  0  0  0  0  0  0  0  0
    6.3310  -13.7563   26.1568 C   0  0  0  0  0  0  0  0  0  0  0  0
    5.4633  -12.6750   26.3144 C   0  0  0  0  0  0  0  0  0  0  0  0
    6.0268  -11.4477   26.5466 C   0  0  0  0  0  0  0  0  0  0  0  0
    7.4115  -11.2604   26.6266 C   0  0  0  0  0  0  0  0  0  0  0  0
    8.2136  -12.3502   26.4643 C   0  0  0  0  0  0  0  0  0  0  0  0
    7.7038  -13.6138   26.2270 C   0  0  0  0  0  0  0  0  0  0  0  0
   10.0633  -17.6438   26.1104 C   0  0  0  0  0  0  0  0  0  0  0  0
   10.7844  -17.7798   27.3011 O   0  0  0  0  0  0  0  0  0  0  0  0
    9.4215  -18.7046   25.7800 O   0  0  0  0  0  0  0  0  0  0  0  0
  2  3  1  0
  2  1  1  1
  3  4  1  0
  4  5  1  0
  5  9  1  0
  6  5  2  0
  7  8  2  0
  7  2  1  0
 10 11  1  0
 11 13  1  0
 12 11  2  0
 13 14  1  0
 15 14  1  1
 15 16  1  0
 16  7  1  0
 17 15  1  0
 17 19  1  0
 18 17  2  0
 20 19  1  0
 20 31  1  0
 20 21  1  1
 22 21  1  0
 23 22  2  0
 24 25  1  0
 24 23  1  0
 25 30  2  0
 26 25  1  0
 26 27  2  0
 27 28  1  0
 28 29  2  0
 30 22  1  0
 30 29  1  0
 31 32  1  0
 33 31  2  0
M  END
$$$$
