EQW.pdb
     RDKit          3D

 33 34  0  0  1  0  0  0  0  0999 V2000
    7.3188  -19.5597   19.4554 N   0  0  0  0  0  0  0  0  0  0  0  0
    8.4429  -19.1758   20.2335 C   0  0  1  0  0  0  0  0  0  0  0  0
    9.2790  -18.0616   19.7028 C   0  0  0  0  0  0  0  0  0  0  0  0
   10.0987  -18.3620   18.5018 C   0  0  0  0  0  0  0  0  0  0  0  0
   10.9591  -17.2996   17.9959 C   0  0  0  0  0  0  0  0  0  0  0  0
   11.8894  -16.8135   18.6578 O   0  0  0  0  0  0  0  0  0  0  0  0
    7.9789  -18.7344   21.6060 C   0  0  0  0  0  0  0  0  0  0  0  0
    6.8595  -18.2140   21.7177 O   0  0  0  0  0  0  0  0  0  0  0  0
   10.7421  -16.7887   16.7062 O   0  0  0  0  0  0  0  0  0  0  0  0
    7.7061  -21.9128   26.8035 N   0  0  0  0  0  0  0  0  0  0  0  0
    7.4780  -20.5473   27.2170 C   0  0  0  0  0  0  0  0  0  0  0  0
    7.0353  -20.3666   28.3584 O   0  0  0  0  0  0  0  0  0  0  0  0
    7.7688  -19.4459   26.3068 C   0  0  0  0  0  0  0  0  0  0  0  0
    8.1289  -19.8115   24.9171 C   0  0  0  0  0  0  0  0  0  0  0  0
    8.5321  -18.6110   24.0742 C   0  0  2  0  0  0  0  0  0  0  0  0
    8.8412  -18.9336   22.7115 N   0  0  0  0  0  0  0  0  0  0  0  0
    9.5258  -17.7652   24.7342 C   0  0  0  0  0  0  0  0  0  0  0  0
   10.7321  -18.1803   24.8612 O   0  0  0  0  0  0  0  0  0  0  0  0
    9.2750  -16.4823   25.2673 N   0  0  0  0  0  0  0  0  0  0  0  0
    9.8596  -15.9718   26.5017 C   0  0  1  0  0  0  0  0  0  0  0  0
    8.8240  -15.4412   27.4219 C   0  0  0  0  0  0  0  0  0  0  0  0
    7.7112  -14.7974   26.7039 C   0  0  0  0  0  0  0  0  0  0  0  0
    6.6047  -15.4371   26.1263 C   0  0  0  0  0  0  0  0  0  0  0  0
    5.8180  -14.5306   25.5262 N   0  0  0  0  0  0  0  0  0  0  0  0
    6.3418  -13.3045   25.6724 C   0  0  0  0  0  0  0  0  0  0  0  0
    5.8910  -12.0542   25.2474 C   0  0  0  0  0  0  0  0  0  0  0  0
    6.6552  -10.9664   25.5792 C   0  0  0  0  0  0  0  0  0  0  0  0
    7.8420  -11.0781   26.3125 C   0  0  0  0  0  0  0  0  0  0  0  0
    8.2372  -12.3229   26.7019 C   0  0  0  0  0  0  0  0  0  0  0  0
    7.5087  -13.4583   26.3967 C   0  0  0  0  0  0  0  0  0  0  0  0
   10.8439  -16.8496   27.0812 C   0  0  0  0  0  0  0  0  0  0  0  0
   11.8330  -16.4560   27.9884 O   0  0  0  0  0  0  0  0  0  0  0  0
   10.8873  -18.0988   26.7911 O   0  0  0  0  0  0  0  0  0  0  0  0
  2  3  1  0
  2  1  1  6
  3  4  1  0
  4  5  1  0
  5  9  1  0
  6  5  2  0
  7  8  2  0
  7  2  1  0
 10 11  1  0
 11 13  1  0
 12 11  2  0
 13 14  1  0
 15 14  1  1
 15 16  1  0
 16  7  1  0
 17 15  1  0
 17 19  1  0
 18 17  2  0
 20 19  1  0
 20 31  1  0
 20 21  1  1
 22 21  1  0
 23 22  2  0
 24 25  1  0
 24 23  1  0
 25 30  2  0
 26 25  1  0
 26 27  2  0
 27 28  1  0
 28 29  2  0
 30 22  1  0
 30 29  1  0
 31 32  1  0
 33 31  2  0
M  END
$$$$
