EQW.pdb
     RDKit          3D

 33 34  0  0  1  0  0  0  0  0999 V2000
    9.0596  -15.7772   19.7573 N   0  0  0  0  0  0  0  0  0  0  0  0
    8.0657  -16.2467   20.6564 C   0  0  1  0  0  0  0  0  0  0  0  0
    7.1854  -17.3470   20.1702 C   0  0  0  0  0  0  0  0  0  0  0  0
    7.3146  -17.7155   18.7376 C   0  0  0  0  0  0  0  0  0  0  0  0
    6.5032  -18.8269   18.2566 C   0  0  0  0  0  0  0  0  0  0  0  0
    5.6971  -19.4344   18.9783 O   0  0  0  0  0  0  0  0  0  0  0  0
    8.7292  -16.7661   21.9149 C   0  0  0  0  0  0  0  0  0  0  0  0
    8.0148  -17.2090   22.8258 O   0  0  0  0  0  0  0  0  0  0  0  0
    6.6248  -19.2452   16.9217 O   0  0  0  0  0  0  0  0  0  0  0  0
   11.8471  -20.2115   20.6636 N   0  0  0  0  0  0  0  0  0  0  0  0
   12.7455  -19.4448   21.4959 C   0  0  0  0  0  0  0  0  0  0  0  0
   13.5573  -20.0750   22.1852 O   0  0  0  0  0  0  0  0  0  0  0  0
   12.6780  -17.9882   21.5020 C   0  0  0  0  0  0  0  0  0  0  0  0
   12.4045  -17.3425   22.8070 C   0  0  0  0  0  0  0  0  0  0  0  0
   10.9182  -17.2169   23.1059 C   0  0  2  0  0  0  0  0  0  0  0  0
   10.1420  -16.7272   22.0040 N   0  0  0  0  0  0  0  0  0  0  0  0
   10.6521  -16.5449   24.3770 C   0  0  0  0  0  0  0  0  0  0  0  0
   11.2154  -15.4224   24.6343 O   0  0  0  0  0  0  0  0  0  0  0  0
    9.7993  -17.0328   25.3908 N   0  0  0  0  0  0  0  0  0  0  0  0
    9.7407  -16.5020   26.7476 C   0  0  1  0  0  0  0  0  0  0  0  0
    8.3532  -16.1572   27.1434 C   0  0  0  0  0  0  0  0  0  0  0  0
    7.6715  -15.3271   26.1362 C   0  0  0  0  0  0  0  0  0  0  0  0
    7.0503  -15.7758   24.9615 C   0  0  0  0  0  0  0  0  0  0  0  0
    6.5700  -14.7289   24.2731 N   0  0  0  0  0  0  0  0  0  0  0  0
    6.8372  -13.5903   24.9298 C   0  0  0  0  0  0  0  0  0  0  0  0
    6.5311  -12.2620   24.6315 C   0  0  0  0  0  0  0  0  0  0  0  0
    6.9308  -11.3093   25.5316 C   0  0  0  0  0  0  0  0  0  0  0  0
    7.6185  -11.6293   26.7079 C   0  0  0  0  0  0  0  0  0  0  0  0
    7.8927  -12.9421   26.9501 C   0  0  0  0  0  0  0  0  0  0  0  0
    7.5159  -13.9483   26.0792 C   0  0  0  0  0  0  0  0  0  0  0  0
   10.5092  -17.2626   27.6994 C   0  0  0  0  0  0  0  0  0  0  0  0
   11.2068  -18.4394   27.4081 O   0  0  0  0  0  0  0  0  0  0  0  0
   10.6069  -16.9038   28.9274 O   0  0  0  0  0  0  0  0  0  0  0  0
  2  3  1  0
  2  1  1  6
  3  4  1  0
  4  5  1  0
  5  9  1  0
  6  5  2  0
  7  8  2  0
  7  2  1  0
 10 11  1  0
 11 13  1  0
 12 11  2  0
 13 14  1  0
 15 14  1  6
 15 16  1  0
 16  7  1  0
 17 15  1  0
 17 19  1  0
 18 17  2  0
 20 19  1  0
 20 31  1  0
 20 21  1  1
 22 21  1  0
 23 22  2  0
 24 25  1  0
 24 23  1  0
 25 30  2  0
 26 25  1  0
 26 27  2  0
 27 28  1  0
 28 29  2  0
 30 22  1  0
 30 29  1  0
 31 32  1  0
 33 31  2  0
M  END
$$$$
