EQW.pdb
     RDKit          3D

 33 34  0  0  1  0  0  0  0  0999 V2000
    9.5598  -13.7211   19.3944 N   0  0  0  0  0  0  0  0  0  0  0  0
    8.3344  -14.3886   19.6576 C   0  0  1  0  0  0  0  0  0  0  0  0
    7.5823  -14.9031   18.4779 C   0  0  0  0  0  0  0  0  0  0  0  0
    8.3859  -15.5499   17.4100 C   0  0  0  0  0  0  0  0  0  0  0  0
    7.6592  -16.2033   16.3284 C   0  0  0  0  0  0  0  0  0  0  0  0
    6.4215  -16.2874   16.3027 O   0  0  0  0  0  0  0  0  0  0  0  0
    8.5943  -15.5885   20.5446 C   0  0  0  0  0  0  0  0  0  0  0  0
    7.6290  -16.2600   20.9365 O   0  0  0  0  0  0  0  0  0  0  0  0
    8.3720  -16.7701   15.2595 O   0  0  0  0  0  0  0  0  0  0  0  0
   13.5687  -19.5810   20.5574 N   0  0  0  0  0  0  0  0  0  0  0  0
   12.8427  -19.8352   21.7805 C   0  0  0  0  0  0  0  0  0  0  0  0
   13.1826  -20.8202   22.4479 O   0  0  0  0  0  0  0  0  0  0  0  0
   11.7592  -18.9490   22.1892 C   0  0  0  0  0  0  0  0  0  0  0  0
   11.4545  -17.8143   21.2869 C   0  0  0  0  0  0  0  0  0  0  0  0
   10.3332  -16.9278   21.8077 C   0  0  2  0  0  0  0  0  0  0  0  0
    9.9313  -15.8993   20.8928 N   0  0  0  0  0  0  0  0  0  0  0  0
   10.5693  -16.4616   23.1734 C   0  0  0  0  0  0  0  0  0  0  0  0
   11.3219  -15.4442   23.3781 O   0  0  0  0  0  0  0  0  0  0  0  0
   10.0262  -17.0480   24.3371 N   0  0  0  0  0  0  0  0  0  0  0  0
   10.2425  -16.5513   25.6908 C   0  0  1  0  0  0  0  0  0  0  0  0
    9.9728  -15.0959   25.7918 C   0  0  0  0  0  0  0  0  0  0  0  0
    8.5327  -14.7938   25.8454 C   0  0  0  0  0  0  0  0  0  0  0  0
    7.4793  -15.6867   25.5994 C   0  0  0  0  0  0  0  0  0  0  0  0
    6.3057  -15.0448   25.7050 N   0  0  0  0  0  0  0  0  0  0  0  0
    6.5168  -13.7565   26.0128 C   0  0  0  0  0  0  0  0  0  0  0  0
    5.6264  -12.7067   26.2416 C   0  0  0  0  0  0  0  0  0  0  0  0
    6.1636  -11.4881   26.5641 C   0  0  0  0  0  0  0  0  0  0  0  0
    7.5438  -11.2793   26.6659 C   0  0  0  0  0  0  0  0  0  0  0  0
    8.3688  -12.3384   26.4315 C   0  0  0  0  0  0  0  0  0  0  0  0
    7.8861  -13.5918   26.1015 C   0  0  0  0  0  0  0  0  0  0  0  0
    9.6603  -17.3841   26.7119 C   0  0  0  0  0  0  0  0  0  0  0  0
    9.6421  -17.0824   28.0776 O   0  0  0  0  0  0  0  0  0  0  0  0
    9.1020  -18.5046   26.4307 O   0  0  0  0  0  0  0  0  0  0  0  0
  2  3  1  0
  2  1  1  6
  3  4  1  0
  4  5  1  0
  5  9  1  0
  6  5  2  0
  7  8  2  0
  7  2  1  0
 10 11  1  0
 11 13  1  0
 12 11  2  0
 13 14  1  0
 15 14  1  6
 15 16  1  0
 16  7  1  0
 17 15  1  0
 17 19  1  0
 18 17  2  0
 20 19  1  0
 20 31  1  0
 20 21  1  6
 22 21  1  0
 23 22  2  0
 24 25  1  0
 24 23  1  0
 25 30  2  0
 26 25  1  0
 26 27  2  0
 27 28  1  0
 28 29  2  0
 30 22  1  0
 30 29  1  0
 31 32  1  0
 33 31  2  0
M  END
$$$$
