KSG.pdb
     RDKit          3D

 20 19  0  0  1  0  0  0  0  0999 V2000
    6.7886  -19.2021   24.5445 N   0  0  0  0  0  0  0  0  0  0  0  0
    7.1191  -17.8012   24.5421 C   0  0  1  0  0  0  0  0  0  0  0  0
    8.3961  -17.6124   25.3290 C   0  0  0  0  0  0  0  0  0  0  0  0
    8.1804  -18.1510   26.7106 C   0  0  0  0  0  0  0  0  0  0  0  0
    9.3294  -17.9251   27.6356 C   0  0  0  0  0  0  0  0  0  0  0  0
    9.0217  -18.4729   29.0154 C   0  0  0  0  0  0  0  0  0  0  0  0
   10.0733  -18.1642   29.9595 N   0  0  0  0  0  0  0  0  0  0  0  0
    7.2526  -17.3353   23.1453 C   0  0  0  0  0  0  0  0  0  0  0  0
    7.4631  -18.1320   22.1796 O   0  0  0  0  0  0  0  0  0  0  0  0
    6.8572  -13.6062   20.0606 O   0  0  0  0  0  0  0  0  0  0  0  0
    6.6643  -14.0707   21.3505 C   0  0  0  0  0  0  0  0  0  0  0  0
    7.2857  -15.4504   21.4573 C   0  0  2  0  0  0  0  0  0  0  0  0
    7.1479  -15.9540   22.8294 N   0  0  0  0  0  0  0  0  0  0  0  0
    8.7103  -15.4270   21.0563 C   0  0  0  0  0  0  0  0  0  0  0  0
    8.9815  -15.1090   19.8669 O   0  0  0  0  0  0  0  0  0  0  0  0
    9.8071  -15.7310   21.8956 N   0  0  0  0  0  0  0  0  0  0  0  0
   11.1900  -15.6582   21.4080 C   0  0  0  0  0  0  0  0  0  0  0  0
   12.1191  -15.8840   22.5462 C   0  0  0  0  0  0  0  0  0  0  0  0
   13.4684  -15.6354   22.4731 O   0  0  0  0  0  0  0  0  0  0  0  0
   11.6768  -16.3239   23.6427 O   0  0  0  0  0  0  0  0  0  0  0  0
  2  1  1  6
  3  2  1  0
  4  3  1  0
  5  4  1  0
  6  5  1  0
  7  6  1  0
  8 13  1  0
  8  2  1  0
  9  8  2  0
 10 11  1  0
 12 11  1  1
 12 13  1  0
 14 12  1  0
 14 15  2  0
 16 14  1  0
 17 16  1  0
 18 17  1  0
 19 18  1  0
 20 18  2  0
M  END
$$$$
