KSG.pdb
     RDKit          3D

 20 19  0  0  1  0  0  0  0  0999 V2000
    5.5883  -19.4571   21.6960 N   0  0  0  0  0  0  0  0  0  0  0  0
    6.1956  -18.9354   22.8921 C   0  0  1  0  0  0  0  0  0  0  0  0
    6.8238  -20.0848   23.6469 C   0  0  0  0  0  0  0  0  0  0  0  0
    5.8954  -21.2586   23.5728 C   0  0  0  0  0  0  0  0  0  0  0  0
    5.6649  -21.9329   24.8839 C   0  0  0  0  0  0  0  0  0  0  0  0
    4.7359  -23.1197   24.7198 C   0  0  0  0  0  0  0  0  0  0  0  0
    4.4891  -23.7836   25.9810 N   0  0  0  0  0  0  0  0  0  0  0  0
    7.1883  -17.9035   22.5233 C   0  0  0  0  0  0  0  0  0  0  0  0
    8.0418  -18.0797   21.6004 O   0  0  0  0  0  0  0  0  0  0  0  0
    7.3223  -14.3296   24.6497 O   0  0  0  0  0  0  0  0  0  0  0  0
    7.7457  -14.2731   23.3327 C   0  0  0  0  0  0  0  0  0  0  0  0
    8.2545  -15.6463   22.9371 C   0  0  2  0  0  0  0  0  0  0  0  0
    7.2219  -16.6556   23.2018 N   0  0  0  0  0  0  0  0  0  0  0  0
    9.5021  -15.9821   23.6593 C   0  0  0  0  0  0  0  0  0  0  0  0
    9.4025  -16.3852   24.8496 O   0  0  0  0  0  0  0  0  0  0  0  0
   10.8100  -15.8919   23.1294 N   0  0  0  0  0  0  0  0  0  0  0  0
   11.9939  -16.1473   23.9594 C   0  0  0  0  0  0  0  0  0  0  0  0
   13.2166  -15.8847   23.1559 C   0  0  0  0  0  0  0  0  0  0  0  0
   14.4867  -15.9755   23.6721 O   0  0  0  0  0  0  0  0  0  0  0  0
   13.1145  -15.5616   21.9407 O   0  0  0  0  0  0  0  0  0  0  0  0
  2  1  1  6
  3  2  1  0
  4  3  1  0
  5  4  1  0
  6  5  1  0
  7  6  1  0
  8 13  1  0
  8  2  1  0
  9  8  2  0
 10 11  1  0
 12 11  1  1
 12 13  1  0
 14 12  1  0
 14 15  2  0
 16 14  1  0
 17 16  1  0
 18 17  1  0
 19 18  1  0
 20 18  2  0
M  END
$$$$
