KSG.pdb
     RDKit          3D

 20 19  0  0  1  0  0  0  0  0999 V2000
    9.1072  -19.4058   19.3886 N   0  0  0  0  0  0  0  0  0  0  0  0
   10.1870  -19.0305   18.5141 C   0  0  1  0  0  0  0  0  0  0  0  0
    9.5956  -18.5211   17.2195 C   0  0  0  0  0  0  0  0  0  0  0  0
    9.4245  -19.6851   16.2913 C   0  0  0  0  0  0  0  0  0  0  0  0
    8.8610  -19.3200   14.9587 C   0  0  0  0  0  0  0  0  0  0  0  0
    8.7225  -20.5484   14.0811 C   0  0  0  0  0  0  0  0  0  0  0  0
    8.0897  -20.2347   12.8186 N   0  0  0  0  0  0  0  0  0  0  0  0
   11.0227  -18.0105   19.1831 C   0  0  0  0  0  0  0  0  0  0  0  0
   11.9779  -17.4194   18.5919 O   0  0  0  0  0  0  0  0  0  0  0  0
    9.8845  -16.4856   22.8785 O   0  0  0  0  0  0  0  0  0  0  0  0
   10.6038  -15.6987   21.9951 C   0  0  0  0  0  0  0  0  0  0  0  0
   11.5455  -16.5971   21.2158 C   0  0  2  0  0  0  0  0  0  0  0  0
   10.7810  -17.6499   20.5359 N   0  0  0  0  0  0  0  0  0  0  0  0
   12.5704  -17.1932   22.1018 C   0  0  0  0  0  0  0  0  0  0  0  0
   12.2483  -18.2110   22.7723 O   0  0  0  0  0  0  0  0  0  0  0  0
   13.8930  -16.7204   22.2655 N   0  0  0  0  0  0  0  0  0  0  0  0
   14.8210  -17.3490   23.2138 C   0  0  0  0  0  0  0  0  0  0  0  0
   15.6746  -16.2981   23.8275 C   0  0  0  0  0  0  0  0  0  0  0  0
   16.5489  -16.5492   24.8572 O   0  0  0  0  0  0  0  0  0  0  0  0
   15.6150  -15.1113   23.4039 O   0  0  0  0  0  0  0  0  0  0  0  0
  2  1  1  1
  3  2  1  0
  4  3  1  0
  5  4  1  0
  6  5  1  0
  7  6  1  0
  8 13  1  0
  8  2  1  0
  9  8  2  0
 10 11  1  0
 12 11  1  1
 12 13  1  0
 14 12  1  0
 14 15  2  0
 16 14  1  0
 17 16  1  0
 18 17  1  0
 19 18  1  0
 20 18  2  0
M  END
$$$$
