KSG.pdb
     RDKit          3D

 20 19  0  0  1  0  0  0  0  0999 V2000
    6.4065  -19.8842   21.8940 N   0  0  0  0  0  0  0  0  0  0  0  0
    6.8243  -19.2121   23.0962 C   0  0  1  0  0  0  0  0  0  0  0  0
    7.4859  -20.2255   24.0023 C   0  0  0  0  0  0  0  0  0  0  0  0
    6.5210  -21.3482   24.2349 C   0  0  0  0  0  0  0  0  0  0  0  0
    7.0751  -22.4631   25.0573 C   0  0  0  0  0  0  0  0  0  0  0  0
    5.9965  -23.4789   25.3785 C   0  0  0  0  0  0  0  0  0  0  0  0
    6.5384  -24.6394   26.0509 N   0  0  0  0  0  0  0  0  0  0  0  0
    7.7364  -18.1037   22.7420 C   0  0  0  0  0  0  0  0  0  0  0  0
    8.3176  -18.0346   21.6155 O   0  0  0  0  0  0  0  0  0  0  0  0
    7.8848  -14.6968   25.0583 O   0  0  0  0  0  0  0  0  0  0  0  0
    8.2869  -14.6330   23.7350 C   0  0  0  0  0  0  0  0  0  0  0  0
    8.9251  -15.9591   23.3671 C   0  0  2  0  0  0  0  0  0  0  0  0
    7.9990  -17.0580   23.6672 N   0  0  0  0  0  0  0  0  0  0  0  0
   10.2057  -16.1526   24.0836 C   0  0  0  0  0  0  0  0  0  0  0  0
   10.1740  -16.7473   25.1948 O   0  0  0  0  0  0  0  0  0  0  0  0
   11.4756  -15.7274   23.6297 N   0  0  0  0  0  0  0  0  0  0  0  0
   12.6842  -15.9176   24.4414 C   0  0  0  0  0  0  0  0  0  0  0  0
   13.6383  -16.7812   23.6975 C   0  0  0  0  0  0  0  0  0  0  0  0
   14.9385  -16.4166   23.4438 O   0  0  0  0  0  0  0  0  0  0  0  0
   13.2652  -17.9068   23.2669 O   0  0  0  0  0  0  0  0  0  0  0  0
  2  1  1  6
  3  2  1  0
  4  3  1  0
  5  4  1  0
  6  5  1  0
  7  6  1  0
  8 13  1  0
  8  2  1  0
  9  8  2  0
 10 11  1  0
 12 11  1  1
 12 13  1  0
 14 12  1  0
 14 15  2  0
 16 14  1  0
 17 16  1  0
 18 17  1  0
 19 18  1  0
 20 18  2  0
M  END
$$$$
