KSG.pdb
     RDKit          3D

 20 19  0  0  1  0  0  0  0  0999 V2000
    8.8261  -18.0711   18.0388 N   0  0  0  0  0  0  0  0  0  0  0  0
    8.3613  -17.9657   19.3969 C   0  0  1  0  0  0  0  0  0  0  0  0
    8.9763  -19.0900   20.1989 C   0  0  0  0  0  0  0  0  0  0  0  0
    8.4206  -20.3864   19.6928 C   0  0  0  0  0  0  0  0  0  0  0  0
    8.9407  -21.5888   20.4072 C   0  0  0  0  0  0  0  0  0  0  0  0
    8.4431  -22.8602   19.7480 C   0  0  0  0  0  0  0  0  0  0  0  0
    8.8537  -24.0380   20.4805 N   0  0  0  0  0  0  0  0  0  0  0  0
    8.7243  -16.6366   19.9335 C   0  0  0  0  0  0  0  0  0  0  0  0
    9.7616  -16.0104   19.5550 O   0  0  0  0  0  0  0  0  0  0  0  0
    6.3435  -14.7531   22.8595 O   0  0  0  0  0  0  0  0  0  0  0  0
    6.8554  -13.9954   21.8199 C   0  0  0  0  0  0  0  0  0  0  0  0
    8.1566  -14.6289   21.3652 C   0  0  2  0  0  0  0  0  0  0  0  0
    7.9095  -16.0024   20.9095 N   0  0  0  0  0  0  0  0  0  0  0  0
    9.1636  -14.6180   22.4499 C   0  0  0  0  0  0  0  0  0  0  0  0
    9.4971  -13.5017   22.9318 O   0  0  0  0  0  0  0  0  0  0  0  0
    9.7917  -15.7583   23.0020 N   0  0  0  0  0  0  0  0  0  0  0  0
   10.7108  -15.6521   24.1420 C   0  0  0  0  0  0  0  0  0  0  0  0
   11.0851  -17.0180   24.5934 C   0  0  0  0  0  0  0  0  0  0  0  0
   11.8696  -17.2544   25.6963 O   0  0  0  0  0  0  0  0  0  0  0  0
   10.6781  -18.0264   23.9538 O   0  0  0  0  0  0  0  0  0  0  0  0
  2  1  1  6
  3  2  1  0
  4  3  1  0
  5  4  1  0
  6  5  1  0
  7  6  1  0
  8 13  1  0
  8  2  1  0
  9  8  2  0
 10 11  1  0
 12 11  1  1
 12 13  1  0
 14 12  1  0
 14 15  2  0
 16 14  1  0
 17 16  1  0
 18 17  1  0
 19 18  1  0
 20 18  2  0
M  END
$$$$
