KSG.pdb
     RDKit          3D

 20 19  0  0  1  0  0  0  0  0999 V2000
   14.1474  -13.7677   15.5034 N   0  0  0  0  0  0  0  0  0  0  0  0
   14.5818  -14.7177   16.4937 C   0  0  1  0  0  0  0  0  0  0  0  0
   16.0687  -14.9332   16.3261 C   0  0  0  0  0  0  0  0  0  0  0  0
   16.2776  -16.2394   15.6221 C   0  0  0  0  0  0  0  0  0  0  0  0
   17.0852  -17.2245   16.3993 C   0  0  0  0  0  0  0  0  0  0  0  0
   17.3682  -18.4600   15.5674 C   0  0  0  0  0  0  0  0  0  0  0  0
   18.0438  -19.4804   16.3388 N   0  0  0  0  0  0  0  0  0  0  0  0
   14.2419  -14.2076   17.8392 C   0  0  0  0  0  0  0  0  0  0  0  0
   14.6875  -13.1040   18.2808 O   0  0  0  0  0  0  0  0  0  0  0  0
   10.8905  -15.3588   19.7204 O   0  0  0  0  0  0  0  0  0  0  0  0
   11.5614  -14.2273   20.1523 C   0  0  0  0  0  0  0  0  0  0  0  0
   13.0519  -14.4913   20.0542 C   0  0  2  0  0  0  0  0  0  0  0  0
   13.3890  -14.9486   18.7006 N   0  0  0  0  0  0  0  0  0  0  0  0
   13.4849  -15.4882   21.0590 C   0  0  0  0  0  0  0  0  0  0  0  0
   12.9510  -16.6298   21.0230 O   0  0  0  0  0  0  0  0  0  0  0  0
   14.4545  -15.2748   22.0660 N   0  0  0  0  0  0  0  0  0  0  0  0
   14.7200  -16.2812   23.1015 C   0  0  0  0  0  0  0  0  0  0  0  0
   15.8808  -15.8420   23.9197 C   0  0  0  0  0  0  0  0  0  0  0  0
   16.3200  -16.5275   25.0264 O   0  0  0  0  0  0  0  0  0  0  0  0
   16.5114  -14.7950   23.6074 O   0  0  0  0  0  0  0  0  0  0  0  0
  2  1  1  6
  3  2  1  0
  4  3  1  0
  5  4  1  0
  6  5  1  0
  7  6  1  0
  8 13  1  0
  8  2  1  0
  9  8  2  0
 10 11  1  0
 12 11  1  6
 12 13  1  0
 14 12  1  0
 14 15  2  0
 16 14  1  0
 17 16  1  0
 18 17  1  0
 19 18  1  0
 20 18  2  0
M  END
$$$$
