KSG.pdb
     RDKit          3D

 20 19  0  0  1  0  0  0  0  0999 V2000
    8.1135  -13.2383   17.4067 N   0  0  0  0  0  0  0  0  0  0  0  0
    7.9056  -14.4021   18.2277 C   0  0  1  0  0  0  0  0  0  0  0  0
    8.5384  -15.5896   17.5386 C   0  0  0  0  0  0  0  0  0  0  0  0
    8.2842  -15.4687   16.0667 C   0  0  0  0  0  0  0  0  0  0  0  0
    8.8962  -16.5605   15.2542 C   0  0  0  0  0  0  0  0  0  0  0  0
    8.7143  -16.2922   13.7732 C   0  0  0  0  0  0  0  0  0  0  0  0
    9.4396  -17.2470   12.9641 N   0  0  0  0  0  0  0  0  0  0  0  0
    8.4850  -14.1625   19.5668 C   0  0  0  0  0  0  0  0  0  0  0  0
    9.6369  -13.6541   19.7285 O   0  0  0  0  0  0  0  0  0  0  0  0
    6.3921  -15.3004   23.0079 O   0  0  0  0  0  0  0  0  0  0  0  0
    7.1501  -14.1440   23.0798 C   0  0  0  0  0  0  0  0  0  0  0  0
    8.2918  -14.2609   22.0879 C   0  0  2  0  0  0  0  0  0  0  0  0
    7.7591  -14.4992   20.7408 N   0  0  0  0  0  0  0  0  0  0  0  0
    9.2252  -15.3431   22.4731 C   0  0  0  0  0  0  0  0  0  0  0  0
    9.1271  -16.4465   21.8713 O   0  0  0  0  0  0  0  0  0  0  0  0
   10.2290  -15.2506   23.4647 N   0  0  0  0  0  0  0  0  0  0  0  0
   11.0028  -16.4252   23.8857 C   0  0  0  0  0  0  0  0  0  0  0  0
   12.2643  -16.4827   23.1015 C   0  0  0  0  0  0  0  0  0  0  0  0
   13.2758  -17.3721   23.3728 O   0  0  0  0  0  0  0  0  0  0  0  0
   12.4426  -15.6903   22.1361 O   0  0  0  0  0  0  0  0  0  0  0  0
  2  1  1  6
  3  2  1  0
  4  3  1  0
  5  4  1  0
  6  5  1  0
  7  6  1  0
  8 13  1  0
  8  2  1  0
  9  8  2  0
 10 11  1  0
 12 11  1  1
 12 13  1  0
 14 12  1  0
 14 15  2  0
 16 14  1  0
 17 16  1  0
 18 17  1  0
 19 18  1  0
 20 18  2  0
M  END
$$$$
