KSG.pdb
     RDKit          3D

 20 19  0  0  1  0  0  0  0  0999 V2000
    6.0341  -20.3061   23.6828 N   0  0  0  0  0  0  0  0  0  0  0  0
    6.3495  -18.9815   24.1493 C   0  0  1  0  0  0  0  0  0  0  0  0
    7.2900  -19.1032   25.3266 C   0  0  0  0  0  0  0  0  0  0  0  0
    6.6240  -19.9414   26.3751 C   0  0  0  0  0  0  0  0  0  0  0  0
    7.4825  -20.2215   27.5630 C   0  0  0  0  0  0  0  0  0  0  0  0
    6.8084  -21.2151   28.4886 C   0  0  0  0  0  0  0  0  0  0  0  0
    7.6055  -21.4727   29.6679 N   0  0  0  0  0  0  0  0  0  0  0  0
    6.9438  -18.2041   23.0409 C   0  0  0  0  0  0  0  0  0  0  0  0
    7.6450  -18.7440   22.1307 O   0  0  0  0  0  0  0  0  0  0  0  0
    7.5026  -13.9623   20.7991 O   0  0  0  0  0  0  0  0  0  0  0  0
    6.7285  -14.7359   21.6472 C   0  0  0  0  0  0  0  0  0  0  0  0
    7.5400  -15.9503   22.0571 C   0  0  2  0  0  0  0  0  0  0  0  0
    6.7470  -16.7997   22.9542 N   0  0  0  0  0  0  0  0  0  0  0  0
    8.8066  -15.5505   22.7102 C   0  0  0  0  0  0  0  0  0  0  0  0
    8.7459  -15.1023   23.8870 O   0  0  0  0  0  0  0  0  0  0  0  0
   10.0931  -15.6274   22.1283 N   0  0  0  0  0  0  0  0  0  0  0  0
   11.2912  -15.1861   22.8532 C   0  0  0  0  0  0  0  0  0  0  0  0
   12.4913  -15.4566   22.0188 C   0  0  0  0  0  0  0  0  0  0  0  0
   12.4344  -16.1183   20.8160 O   0  0  0  0  0  0  0  0  0  0  0  0
   13.6284  -15.0728   22.4075 O   0  0  0  0  0  0  0  0  0  0  0  0
  2  1  1  6
  3  2  1  0
  4  3  1  0
  5  4  1  0
  6  5  1  0
  7  6  1  0
  8 13  1  0
  8  2  1  0
  9  8  2  0
 10 11  1  0
 12 11  1  1
 12 13  1  0
 14 12  1  0
 14 15  2  0
 16 14  1  0
 17 16  1  0
 18 17  1  0
 19 18  1  0
 20 18  2  0
M  END
$$$$
