KSG.pdb
     RDKit          3D

 20 19  0  0  1  0  0  0  0  0999 V2000
    1.0638  -21.5073   20.9500 N   0  0  0  0  0  0  0  0  0  0  0  0
    2.1780  -20.6829   20.5620 C   0  0  1  0  0  0  0  0  0  0  0  0
    1.6629  -19.2906   20.2762 C   0  0  0  0  0  0  0  0  0  0  0  0
    1.1625  -19.2556   18.8641 C   0  0  0  0  0  0  0  0  0  0  0  0
   -0.2372  -19.7475   18.7046 C   0  0  0  0  0  0  0  0  0  0  0  0
   -0.7246  -19.5251   17.2864 C   0  0  0  0  0  0  0  0  0  0  0  0
   -2.0174  -20.1349   17.0638 N   0  0  0  0  0  0  0  0  0  0  0  0
    3.1885  -20.6913   21.6413 C   0  0  0  0  0  0  0  0  0  0  0  0
    2.8883  -20.9250   22.8524 O   0  0  0  0  0  0  0  0  0  0  0  0
    7.7306  -21.4331   22.8315 O   0  0  0  0  0  0  0  0  0  0  0  0
    6.8024  -21.2754   21.8164 C   0  0  0  0  0  0  0  0  0  0  0  0
    5.6041  -20.5341   22.3782 C   0  0  2  0  0  0  0  0  0  0  0  0
    4.5561  -20.4334   21.3552 N   0  0  0  0  0  0  0  0  0  0  0  0
    5.9868  -19.1878   22.8598 C   0  0  0  0  0  0  0  0  0  0  0  0
    5.8037  -18.2113   22.0837 O   0  0  0  0  0  0  0  0  0  0  0  0
    6.5440  -18.8938   24.1258 N   0  0  0  0  0  0  0  0  0  0  0  0
    6.8554  -17.5160   24.5262 C   0  0  0  0  0  0  0  0  0  0  0  0
    7.4598  -17.5293   25.8842 C   0  0  0  0  0  0  0  0  0  0  0  0
    7.8766  -16.3907   26.5304 O   0  0  0  0  0  0  0  0  0  0  0  0
    7.6096  -18.6222   26.4963 O   0  0  0  0  0  0  0  0  0  0  0  0
  2  1  1  1
  3  2  1  0
  4  3  1  0
  5  4  1  0
  6  5  1  0
  7  6  1  0
  8 13  1  0
  8  2  1  0
  9  8  2  0
 10 11  1  0
 12 11  1  6
 12 13  1  0
 14 12  1  0
 14 15  2  0
 16 14  1  0
 17 16  1  0
 18 17  1  0
 19 18  1  0
 20 18  2  0
M  END
$$$$
