KSG.pdb
     RDKit          3D

 20 19  0  0  1  0  0  0  0  0999 V2000
    6.5711  -17.2742   21.2082 N   0  0  0  0  0  0  0  0  0  0  0  0
    7.3630  -16.3520   21.9789 C   0  0  1  0  0  0  0  0  0  0  0  0
    7.0695  -14.9510   21.4925 C   0  0  0  0  0  0  0  0  0  0  0  0
    7.8873  -14.7001   20.2621 C   0  0  0  0  0  0  0  0  0  0  0  0
    7.6650  -13.3575   19.6499 C   0  0  0  0  0  0  0  0  0  0  0  0
    8.3768  -13.2530   18.3154 C   0  0  0  0  0  0  0  0  0  0  0  0
    8.1347  -11.9767   17.6791 N   0  0  0  0  0  0  0  0  0  0  0  0
    7.0470  -16.5202   23.4134 C   0  0  0  0  0  0  0  0  0  0  0  0
    5.9431  -16.1447   23.9154 O   0  0  0  0  0  0  0  0  0  0  0  0
    7.7303  -19.7039   25.4322 O   0  0  0  0  0  0  0  0  0  0  0  0
    6.9135  -18.6679   25.8522 C   0  0  0  0  0  0  0  0  0  0  0  0
    7.6829  -17.3681   25.7112 C   0  0  2  0  0  0  0  0  0  0  0  0
    7.9853  -17.1191   24.2964 N   0  0  0  0  0  0  0  0  0  0  0  0
    8.9295  -17.3963   26.5086 C   0  0  0  0  0  0  0  0  0  0  0  0
   10.0215  -17.5115   25.8893 O   0  0  0  0  0  0  0  0  0  0  0  0
    9.0081  -17.3035   27.9175 N   0  0  0  0  0  0  0  0  0  0  0  0
   10.2969  -17.3497   28.6191 C   0  0  0  0  0  0  0  0  0  0  0  0
   10.3247  -18.5419   29.5066 C   0  0  0  0  0  0  0  0  0  0  0  0
   11.3729  -18.8257   30.3482 O   0  0  0  0  0  0  0  0  0  0  0  0
    9.3546  -19.3485   29.5085 O   0  0  0  0  0  0  0  0  0  0  0  0
  2  1  1  6
  3  2  1  0
  4  3  1  0
  5  4  1  0
  6  5  1  0
  7  6  1  0
  8 13  1  0
  8  2  1  0
  9  8  2  0
 10 11  1  0
 12 11  1  6
 12 13  1  0
 14 12  1  0
 14 15  2  0
 16 14  1  0
 17 16  1  0
 18 17  1  0
 19 18  1  0
 20 18  2  0
M  END
$$$$
