KSG.pdb
     RDKit          3D

 20 19  0  0  1  0  0  0  0  0999 V2000
    7.4870  -18.7941   17.1919 N   0  0  0  0  0  0  0  0  0  0  0  0
    7.5190  -18.0356   18.4148 C   0  0  1  0  0  0  0  0  0  0  0  0
    6.2330  -18.2916   19.1672 C   0  0  0  0  0  0  0  0  0  0  0  0
    5.4443  -19.3187   18.4132 C   0  0  0  0  0  0  0  0  0  0  0  0
    4.1214  -19.6370   19.0259 C   0  0  0  0  0  0  0  0  0  0  0  0
    3.3391  -20.5913   18.1451 C   0  0  0  0  0  0  0  0  0  0  0  0
    2.0947  -20.9919   18.7645 N   0  0  0  0  0  0  0  0  0  0  0  0
    8.7096  -18.4274   19.1991 C   0  0  0  0  0  0  0  0  0  0  0  0
    9.1684  -19.6110   19.1938 O   0  0  0  0  0  0  0  0  0  0  0  0
   11.1592  -15.5815   20.9739 O   0  0  0  0  0  0  0  0  0  0  0  0
   11.6505  -16.8455   20.6947 C   0  0  0  0  0  0  0  0  0  0  0  0
   10.5212  -17.8436   20.8666 C   0  0  2  0  0  0  0  0  0  0  0  0
    9.3943  -17.4750   20.0009 N   0  0  0  0  0  0  0  0  0  0  0  0
   10.0847  -17.9181   22.2789 C   0  0  0  0  0  0  0  0  0  0  0  0
    9.0700  -17.2506   22.6171 O   0  0  0  0  0  0  0  0  0  0  0  0
   10.7082  -18.6793   23.2945 N   0  0  0  0  0  0  0  0  0  0  0  0
   10.1888  -18.6989   24.6676 C   0  0  0  0  0  0  0  0  0  0  0  0
   11.1305  -19.4570   25.5326 C   0  0  0  0  0  0  0  0  0  0  0  0
   10.9682  -19.5777   26.8916 O   0  0  0  0  0  0  0  0  0  0  0  0
   12.1343  -20.0266   25.0233 O   0  0  0  0  0  0  0  0  0  0  0  0
  2  1  1  6
  3  2  1  0
  4  3  1  0
  5  4  1  0
  6  5  1  0
  7  6  1  0
  8 13  1  0
  8  2  1  0
  9  8  2  0
 10 11  1  0
 12 11  1  1
 12 13  1  0
 14 12  1  0
 14 15  2  0
 16 14  1  0
 17 16  1  0
 18 17  1  0
 19 18  1  0
 20 18  2  0
M  END
$$$$
