KSG.pdb
     RDKit          3D

 20 19  0  0  1  0  0  0  0  0999 V2000
   11.2552  -16.8083   19.3519 N   0  0  0  0  0  0  0  0  0  0  0  0
   10.2960  -17.3007   20.3055 C   0  0  1  0  0  0  0  0  0  0  0  0
   10.3063  -18.8115   20.2538 C   0  0  0  0  0  0  0  0  0  0  0  0
    9.2804  -19.2543   19.2553 C   0  0  0  0  0  0  0  0  0  0  0  0
    8.1232  -19.9799   19.8562 C   0  0  0  0  0  0  0  0  0  0  0  0
    7.1475  -20.4157   18.7807 C   0  0  0  0  0  0  0  0  0  0  0  0
    5.9143  -20.9151   19.3485 N   0  0  0  0  0  0  0  0  0  0  0  0
   10.6387  -16.7878   21.6492 C   0  0  0  0  0  0  0  0  0  0  0  0
   11.8389  -16.6282   22.0307 O   0  0  0  0  0  0  0  0  0  0  0  0
    7.7061  -15.2232   24.1819 O   0  0  0  0  0  0  0  0  0  0  0  0
    9.0251  -14.8185   24.2969 C   0  0  0  0  0  0  0  0  0  0  0  0
    9.9162  -15.9932   23.9404 C   0  0  2  0  0  0  0  0  0  0  0  0
    9.6176  -16.4495   22.5774 N   0  0  0  0  0  0  0  0  0  0  0  0
    9.7480  -17.1031   24.9051 C   0  0  0  0  0  0  0  0  0  0  0  0
    8.6973  -17.7956   24.8279 O   0  0  0  0  0  0  0  0  0  0  0  0
   10.6693  -17.4623   25.9159 N   0  0  0  0  0  0  0  0  0  0  0  0
   10.3970  -18.5651   26.8461 C   0  0  0  0  0  0  0  0  0  0  0  0
   11.5462  -18.7100   27.7778 C   0  0  0  0  0  0  0  0  0  0  0  0
   12.5689  -19.6045   27.5733 O   0  0  0  0  0  0  0  0  0  0  0  0
   11.6126  -17.9917   28.8128 O   0  0  0  0  0  0  0  0  0  0  0  0
  2  1  1  6
  3  2  1  0
  4  3  1  0
  5  4  1  0
  6  5  1  0
  7  6  1  0
  8 13  1  0
  8  2  1  0
  9  8  2  0
 10 11  1  0
 12 11  1  1
 12 13  1  0
 14 12  1  0
 14 15  2  0
 16 14  1  0
 17 16  1  0
 18 17  1  0
 19 18  1  0
 20 18  2  0
M  END
$$$$
