KSG.pdb
     RDKit          3D

 20 19  0  0  1  0  0  0  0  0999 V2000
   10.2284  -19.0154   18.2622 N   0  0  0  0  0  0  0  0  0  0  0  0
    9.5440  -18.8664   19.5196 C   0  0  1  0  0  0  0  0  0  0  0  0
    9.3854  -20.2358   20.1400 C   0  0  0  0  0  0  0  0  0  0  0  0
   10.5439  -21.0834   19.7098 C   0  0  0  0  0  0  0  0  0  0  0  0
   11.0835  -21.9642   20.7867 C   0  0  0  0  0  0  0  0  0  0  0  0
   12.2864  -22.7417   20.2899 C   0  0  0  0  0  0  0  0  0  0  0  0
   12.9560  -23.4365   21.3676 N   0  0  0  0  0  0  0  0  0  0  0  0
   10.3137  -17.9488   20.3866 C   0  0  0  0  0  0  0  0  0  0  0  0
   11.4851  -17.5577   20.0928 O   0  0  0  0  0  0  0  0  0  0  0  0
   10.1499  -14.8337   24.0891 O   0  0  0  0  0  0  0  0  0  0  0  0
    9.4672  -15.7896   23.3562 C   0  0  0  0  0  0  0  0  0  0  0  0
   10.4605  -16.4961   22.4532 C   0  0  2  0  0  0  0  0  0  0  0  0
    9.7587  -17.4639   21.6013 N   0  0  0  0  0  0  0  0  0  0  0  0
   11.5137  -17.1721   23.2435 C   0  0  0  0  0  0  0  0  0  0  0  0
   11.2256  -18.2717   23.7886 O   0  0  0  0  0  0  0  0  0  0  0  0
   12.8286  -16.6921   23.4440 N   0  0  0  0  0  0  0  0  0  0  0  0
   13.8219  -17.4667   24.1983 C   0  0  0  0  0  0  0  0  0  0  0  0
   15.1293  -16.7612   24.1472 C   0  0  0  0  0  0  0  0  0  0  0  0
   16.2501  -17.2111   24.8023 O   0  0  0  0  0  0  0  0  0  0  0  0
   15.2453  -15.6973   23.4792 O   0  0  0  0  0  0  0  0  0  0  0  0
  2  1  1  6
  3  2  1  0
  4  3  1  0
  5  4  1  0
  6  5  1  0
  7  6  1  0
  8 13  1  0
  8  2  1  0
  9  8  2  0
 10 11  1  0
 12 11  1  1
 12 13  1  0
 14 12  1  0
 14 15  2  0
 16 14  1  0
 17 16  1  0
 18 17  1  0
 19 18  1  0
 20 18  2  0
M  END
$$$$
