MWD.pdb
     RDKit          3D

 31 32  0  0  1  0  0  0  0  0999 V2000
   27.1941  -17.6208  -16.1176 C   0  0  0  0  0  0  0  0  0  0  0  0
   28.9310  -18.0965  -16.0593 S   0  0  0  0  0  0  0  0  0  0  0  0
   29.3475  -19.0284  -14.5861 C   0  0  0  0  0  0  0  0  0  0  0  0
   28.0935  -19.4759  -13.8372 C   0  0  0  0  0  0  0  0  0  0  0  0
   28.5756  -20.2397  -12.6258 C   0  0  2  0  0  0  0  0  0  0  0  0
   29.4155  -21.3199  -13.0628 N   0  0  0  0  0  0  0  0  0  0  0  0
   27.4872  -20.7726  -11.7951 C   0  0  0  0  0  0  0  0  0  0  0  0
   27.3273  -22.0123  -11.7234 O   0  0  0  0  0  0  0  0  0  0  0  0
   26.5830  -19.9552  -11.0503 N   0  0  0  0  0  0  0  0  0  0  0  0
   25.4147  -20.4603  -10.3823 C   0  0  1  0  0  0  0  0  0  0  0  0
   25.0492  -19.7404   -9.1112 C   0  0  0  0  0  0  0  0  0  0  0  0
   26.1620  -19.5081   -8.1825 C   0  0  0  0  0  0  0  0  0  0  0  0
   26.9401  -18.3729   -8.0984 C   0  0  0  0  0  0  0  0  0  0  0  0
   27.8677  -18.5377   -7.1431 N   0  0  0  0  0  0  0  0  0  0  0  0
   27.7322  -19.7532   -6.5837 C   0  0  0  0  0  0  0  0  0  0  0  0
   28.4252  -20.4072   -5.5619 C   0  0  0  0  0  0  0  0  0  0  0  0
   28.0729  -21.6772   -5.1637 C   0  0  0  0  0  0  0  0  0  0  0  0
   27.0180  -22.2868   -5.8001 C   0  0  0  0  0  0  0  0  0  0  0  0
   26.3356  -21.6428   -6.8064 C   0  0  0  0  0  0  0  0  0  0  0  0
   26.6642  -20.3622   -7.2332 C   0  0  0  0  0  0  0  0  0  0  0  0
   24.2477  -20.5500  -11.3115 C   0  0  0  0  0  0  0  0  0  0  0  0
   24.1502  -19.8175  -12.3293 O   0  0  0  0  0  0  0  0  0  0  0  0
   23.1836  -21.4870  -11.0717 N   0  0  0  0  0  0  0  0  0  0  0  0
   22.0924  -21.5772  -12.0233 C   0  0  1  0  0  0  0  0  0  0  0  0
   21.2710  -22.8098  -11.8229 C   0  0  0  0  0  0  0  0  0  0  0  0
   20.2404  -22.6939  -10.8017 C   0  0  0  0  0  0  0  0  0  0  0  0
   19.2761  -21.9159  -10.9527 O   0  0  0  0  0  0  0  0  0  0  0  0
   21.2624  -20.3354  -11.9964 C   0  0  0  0  0  0  0  0  0  0  0  0
   21.3841  -19.4748  -11.0916 O   0  0  0  0  0  0  0  0  0  0  0  0
   20.3130  -23.4441   -9.6483 O   0  0  0  0  0  0  0  0  0  0  0  0
   20.3205  -20.0929  -12.9826 O   0  0  0  0  0  0  0  0  0  0  0  0
  2  1  1  0
  3  2  1  0
  4  3  1  0
  5  4  1  0
  5  6  1  6
  7  5  1  0
  8  7  2  0
  9  7  1  0
 10  9  1  0
 11 12  1  0
 10 11  1  1
 12 20  1  0
 12 13  2  0
 13 14  1  0
 15 14  1  0
 15 16  2  0
 17 16  1  0
 18 17  2  0
 19 20  2  0
 19 18  1  0
 20 15  1  0
 21 22  2  0
 21 10  1  0
 23 21  1  0
 24 23  1  0
 24 25  1  1
 26 25  1  0
 27 26  2  0
 28 24  1  0
 29 28  2  0
 30 26  1  0
 31 28  1  0
M  END
$$$$
