MWD.pdb
     RDKit          3D

 31 32  0  0  1  0  0  0  0  0999 V2000
   26.9621  -16.7727  -15.9894 C   0  0  0  0  0  0  0  0  0  0  0  0
   28.6287  -17.3788  -16.3085 S   0  0  0  0  0  0  0  0  0  0  0  0
   28.7647  -19.1583  -16.1438 C   0  0  0  0  0  0  0  0  0  0  0  0
   27.6082  -19.7319  -15.3270 C   0  0  0  0  0  0  0  0  0  0  0  0
   28.2307  -20.6530  -14.3035 C   0  0  2  0  0  0  0  0  0  0  0  0
   28.7578  -21.8065  -14.9778 N   0  0  0  0  0  0  0  0  0  0  0  0
   27.2960  -21.0846  -13.2554 C   0  0  0  0  0  0  0  0  0  0  0  0
   26.6532  -22.1474  -13.4131 O   0  0  0  0  0  0  0  0  0  0  0  0
   27.0680  -20.3590  -12.0463 N   0  0  0  0  0  0  0  0  0  0  0  0
   26.0634  -20.7115  -11.0804 C   0  0  1  0  0  0  0  0  0  0  0  0
   26.2564  -20.1077   -9.7145 C   0  0  0  0  0  0  0  0  0  0  0  0
   27.4734  -20.5300   -9.0109 C   0  0  0  0  0  0  0  0  0  0  0  0
   28.4771  -21.3317   -9.5120 C   0  0  0  0  0  0  0  0  0  0  0  0
   29.4157  -21.5124   -8.5703 N   0  0  0  0  0  0  0  0  0  0  0  0
   29.0684  -20.8528   -7.4509 C   0  0  0  0  0  0  0  0  0  0  0  0
   29.6860  -20.7116   -6.2057 C   0  0  0  0  0  0  0  0  0  0  0  0
   29.1107  -19.9568   -5.2082 C   0  0  0  0  0  0  0  0  0  0  0  0
   27.9087  -19.3438   -5.4707 C   0  0  0  0  0  0  0  0  0  0  0  0
   27.3005  -19.4829   -6.6970 C   0  0  0  0  0  0  0  0  0  0  0  0
   27.8525  -20.2367   -7.7252 C   0  0  0  0  0  0  0  0  0  0  0  0
   24.6870  -20.4506  -11.6010 C   0  0  0  0  0  0  0  0  0  0  0  0
   24.3425  -19.3207  -12.0329 O   0  0  0  0  0  0  0  0  0  0  0  0
   23.6975  -21.4938  -11.6264 N   0  0  0  0  0  0  0  0  0  0  0  0
   22.3879  -21.2132  -12.1836 C   0  0  1  0  0  0  0  0  0  0  0  0
   21.8869  -22.3340  -13.0363 C   0  0  0  0  0  0  0  0  0  0  0  0
   21.3614  -21.9250  -14.3304 C   0  0  0  0  0  0  0  0  0  0  0  0
   21.2582  -20.7164  -14.6249 O   0  0  0  0  0  0  0  0  0  0  0  0
   21.4206  -20.8489  -11.1050 C   0  0  0  0  0  0  0  0  0  0  0  0
   20.3195  -20.3030  -11.3572 O   0  0  0  0  0  0  0  0  0  0  0  0
   20.9685  -22.8686  -15.2544 O   0  0  0  0  0  0  0  0  0  0  0  0
   21.7136  -21.1060   -9.7758 O   0  0  0  0  0  0  0  0  0  0  0  0
  2  1  1  0
  3  2  1  0
  4  3  1  0
  5  4  1  0
  5  6  1  6
  7  5  1  0
  8  7  2  0
  9  7  1  0
 10  9  1  0
 11 12  1  0
 10 11  1  1
 12 20  1  0
 12 13  2  0
 13 14  1  0
 15 14  1  0
 15 16  2  0
 17 16  1  0
 18 17  2  0
 19 20  2  0
 19 18  1  0
 20 15  1  0
 21 22  2  0
 21 10  1  0
 23 21  1  0
 24 23  1  0
 24 25  1  1
 26 25  1  0
 27 26  2  0
 28 24  1  0
 29 28  2  0
 30 26  1  0
 31 28  1  0
M  END
$$$$
