MWD.pdb
     RDKit          3D

 31 32  0  0  1  0  0  0  0  0999 V2000
   26.6839  -17.3188  -17.1605 C   0  0  0  0  0  0  0  0  0  0  0  0
   28.4510  -17.3029  -16.8088 S   0  0  0  0  0  0  0  0  0  0  0  0
   28.9417  -18.5836  -15.6549 C   0  0  0  0  0  0  0  0  0  0  0  0
   27.7318  -19.1819  -14.9395 C   0  0  0  0  0  0  0  0  0  0  0  0
   28.2691  -20.2724  -14.0420 C   0  0  2  0  0  0  0  0  0  0  0  0
   28.8181  -21.3176  -14.8603 N   0  0  0  0  0  0  0  0  0  0  0  0
   27.2602  -20.8396  -13.1371 C   0  0  0  0  0  0  0  0  0  0  0  0
   26.5642  -21.8036  -13.5291 O   0  0  0  0  0  0  0  0  0  0  0  0
   27.0164  -20.3552  -11.8156 N   0  0  0  0  0  0  0  0  0  0  0  0
   25.8865  -20.7459  -11.0173 C   0  0  1  0  0  0  0  0  0  0  0  0
   25.9853  -20.3865   -9.5584 C   0  0  0  0  0  0  0  0  0  0  0  0
   27.2429  -20.7682   -8.9046 C   0  0  0  0  0  0  0  0  0  0  0  0
   28.2258  -21.5839   -9.4242 C   0  0  0  0  0  0  0  0  0  0  0  0
   29.2158  -21.7157   -8.5282 N   0  0  0  0  0  0  0  0  0  0  0  0
   28.9234  -21.0097   -7.4215 C   0  0  0  0  0  0  0  0  0  0  0  0
   29.6063  -20.8089   -6.2193 C   0  0  0  0  0  0  0  0  0  0  0  0
   29.0786  -20.0150   -5.2259 C   0  0  0  0  0  0  0  0  0  0  0  0
   27.8582  -19.4232   -5.4488 C   0  0  0  0  0  0  0  0  0  0  0  0
   27.1856  -19.6209   -6.6328 C   0  0  0  0  0  0  0  0  0  0  0  0
   27.6883  -20.4154   -7.6556 C   0  0  0  0  0  0  0  0  0  0  0  0
   24.6028  -20.2630  -11.6109 C   0  0  0  0  0  0  0  0  0  0  0  0
   24.5756  -19.3905  -12.5164 O   0  0  0  0  0  0  0  0  0  0  0  0
   23.3400  -20.7844  -11.1623 N   0  0  0  0  0  0  0  0  0  0  0  0
   22.1835  -20.6830  -12.0320 C   0  0  1  0  0  0  0  0  0  0  0  0
   22.3834  -21.4113  -13.3219 C   0  0  0  0  0  0  0  0  0  0  0  0
   21.2187  -21.4326  -14.1945 C   0  0  0  0  0  0  0  0  0  0  0  0
   20.7662  -20.3763  -14.6818 O   0  0  0  0  0  0  0  0  0  0  0  0
   20.9459  -21.1239  -11.3209 C   0  0  0  0  0  0  0  0  0  0  0  0
   19.8008  -20.7994  -11.7177 O   0  0  0  0  0  0  0  0  0  0  0  0
   20.5952  -22.6233  -14.4979 O   0  0  0  0  0  0  0  0  0  0  0  0
   21.0258  -21.9151  -10.1867 O   0  0  0  0  0  0  0  0  0  0  0  0
  2  1  1  0
  3  2  1  0
  4  3  1  0
  5  4  1  0
  5  6  1  6
  7  5  1  0
  8  7  2  0
  9  7  1  0
 10  9  1  0
 11 12  1  0
 10 11  1  1
 12 20  1  0
 12 13  2  0
 13 14  1  0
 15 14  1  0
 15 16  2  0
 17 16  1  0
 18 17  2  0
 19 20  2  0
 19 18  1  0
 20 15  1  0
 21 22  2  0
 21 10  1  0
 23 21  1  0
 24 23  1  0
 24 25  1  6
 26 25  1  0
 27 26  2  0
 28 24  1  0
 29 28  2  0
 30 26  1  0
 31 28  1  0
M  END
$$$$
