MWD.pdb
     RDKit          3D

 31 32  0  0  1  0  0  0  0  0999 V2000
   27.0642  -38.0852  -11.9129 C   0  0  0  0  0  0  0  0  0  0  0  0
   26.0862  -36.7965  -11.1194 S   0  0  0  0  0  0  0  0  0  0  0  0
   26.4122  -36.6589   -9.3624 C   0  0  0  0  0  0  0  0  0  0  0  0
   25.4725  -35.6538   -8.6988 C   0  0  0  0  0  0  0  0  0  0  0  0
   26.0027  -34.2836   -9.0523 C   0  0  2  0  0  0  0  0  0  0  0  0
   27.1500  -34.0052   -8.2341 N   0  0  0  0  0  0  0  0  0  0  0  0
   25.0134  -33.2098   -8.8879 C   0  0  0  0  0  0  0  0  0  0  0  0
   24.7354  -32.8098   -7.7345 O   0  0  0  0  0  0  0  0  0  0  0  0
   24.3355  -32.5807   -9.9764 N   0  0  0  0  0  0  0  0  0  0  0  0
   23.3128  -31.5840   -9.8117 C   0  0  1  0  0  0  0  0  0  0  0  0
   22.8311  -30.9514  -11.0905 C   0  0  0  0  0  0  0  0  0  0  0  0
   21.8690  -29.8557  -10.9218 C   0  0  0  0  0  0  0  0  0  0  0  0
   21.9081  -28.8671   -9.9613 C   0  0  0  0  0  0  0  0  0  0  0  0
   20.8508  -28.0552  -10.1137 N   0  0  0  0  0  0  0  0  0  0  0  0
   20.1038  -28.4725  -11.1512 C   0  0  0  0  0  0  0  0  0  0  0  0
   18.9256  -27.9875  -11.7245 C   0  0  0  0  0  0  0  0  0  0  0  0
   18.3555  -28.6101  -12.8122 C   0  0  0  0  0  0  0  0  0  0  0  0
   18.9780  -29.7251  -13.3208 C   0  0  0  0  0  0  0  0  0  0  0  0
   20.1382  -30.2028  -12.7561 C   0  0  0  0  0  0  0  0  0  0  0  0
   20.7401  -29.5998  -11.6587 C   0  0  0  0  0  0  0  0  0  0  0  0
   22.1714  -32.0995   -8.9961 C   0  0  0  0  0  0  0  0  0  0  0  0
   21.6468  -33.2204   -9.2202 O   0  0  0  0  0  0  0  0  0  0  0  0
   21.6270  -31.3232   -7.9150 N   0  0  0  0  0  0  0  0  0  0  0  0
   20.4942  -31.8418   -7.1720 C   0  0  1  0  0  0  0  0  0  0  0  0
   20.5717  -31.5031   -5.7182 C   0  0  0  0  0  0  0  0  0  0  0  0
   19.6257  -32.2202   -4.8760 C   0  0  0  0  0  0  0  0  0  0  0  0
   18.9441  -33.1589   -5.3368 O   0  0  0  0  0  0  0  0  0  0  0  0
   19.2082  -31.3957   -7.7876 C   0  0  0  0  0  0  0  0  0  0  0  0
   19.1089  -30.3066   -8.4024 O   0  0  0  0  0  0  0  0  0  0  0  0
   19.4673  -31.8732   -3.5520 O   0  0  0  0  0  0  0  0  0  0  0  0
   18.0709  -32.1814   -7.6972 O   0  0  0  0  0  0  0  0  0  0  0  0
  2  1  1  0
  3  2  1  0
  4  3  1  0
  5  4  1  0
  5  6  1  1
  7  5  1  0
  8  7  2  0
  9  7  1  0
 10  9  1  0
 11 12  1  0
 10 11  1  6
 12 20  1  0
 12 13  2  0
 13 14  1  0
 15 14  1  0
 15 16  2  0
 17 16  1  0
 18 17  2  0
 19 20  2  0
 19 18  1  0
 20 15  1  0
 21 22  2  0
 21 10  1  0
 23 21  1  0
 24 23  1  0
 24 25  1  1
 26 25  1  0
 27 26  2  0
 28 24  1  0
 29 28  2  0
 30 26  1  0
 31 28  1  0
M  END
$$$$
