MWD.pdb
     RDKit          3D

 31 32  0  0  1  0  0  0  0  0999 V2000
   29.3523  -21.4025  -18.0364 C   0  0  0  0  0  0  0  0  0  0  0  0
   28.5714  -21.7721  -16.4553 S   0  0  0  0  0  0  0  0  0  0  0  0
   29.7341  -21.7834  -15.0914 C   0  0  0  0  0  0  0  0  0  0  0  0
   29.0419  -22.1221  -13.7724 C   0  0  0  0  0  0  0  0  0  0  0  0
   27.9185  -21.1235  -13.6169 C   0  0  2  0  0  0  0  0  0  0  0  0
   28.4805  -19.8055  -13.5158 N   0  0  0  0  0  0  0  0  0  0  0  0
   27.0611  -21.3797  -12.4517 C   0  0  0  0  0  0  0  0  0  0  0  0
   26.5728  -22.5218  -12.2947 O   0  0  0  0  0  0  0  0  0  0  0  0
   26.7419  -20.3942  -11.4682 N   0  0  0  0  0  0  0  0  0  0  0  0
   25.7650  -20.5872  -10.4314 C   0  0  1  0  0  0  0  0  0  0  0  0
   26.0167  -19.8064   -9.1687 C   0  0  0  0  0  0  0  0  0  0  0  0
   27.2498  -20.1559   -8.4531 C   0  0  0  0  0  0  0  0  0  0  0  0
   28.3631  -20.7716   -8.9848 C   0  0  0  0  0  0  0  0  0  0  0  0
   29.2812  -20.9424   -8.0213 N   0  0  0  0  0  0  0  0  0  0  0  0
   28.8134  -20.4571   -6.8575 C   0  0  0  0  0  0  0  0  0  0  0  0
   29.3620  -20.3822   -5.5748 C   0  0  0  0  0  0  0  0  0  0  0  0
   28.6609  -19.8167   -4.5336 C   0  0  0  0  0  0  0  0  0  0  0  0
   27.4027  -19.3262   -4.7901 C   0  0  0  0  0  0  0  0  0  0  0  0
   26.8624  -19.4000   -6.0533 C   0  0  0  0  0  0  0  0  0  0  0  0
   27.5414  -19.9638   -7.1262 C   0  0  0  0  0  0  0  0  0  0  0  0
   24.3765  -20.3681  -10.9390 C   0  0  0  0  0  0  0  0  0  0  0  0
   24.0687  -19.3548  -11.6175 O   0  0  0  0  0  0  0  0  0  0  0  0
   23.3325  -21.3185  -10.6661 N   0  0  0  0  0  0  0  0  0  0  0  0
   22.0148  -21.1044  -11.2337 C   0  0  1  0  0  0  0  0  0  0  0  0
   21.1767  -22.3414  -11.1936 C   0  0  0  0  0  0  0  0  0  0  0  0
   19.8273  -22.1783  -11.7140 C   0  0  0  0  0  0  0  0  0  0  0  0
   18.9010  -21.7851  -10.9755 O   0  0  0  0  0  0  0  0  0  0  0  0
   21.3389  -19.9434  -10.5802 C   0  0  0  0  0  0  0  0  0  0  0  0
   21.6642  -19.5435   -9.4364 O   0  0  0  0  0  0  0  0  0  0  0  0
   19.5501  -22.4560  -13.0348 O   0  0  0  0  0  0  0  0  0  0  0  0
   20.3190  -19.2639  -11.2257 O   0  0  0  0  0  0  0  0  0  0  0  0
  2  1  1  0
  3  2  1  0
  4  3  1  0
  5  4  1  0
  5  6  1  1
  7  5  1  0
  8  7  2  0
  9  7  1  0
 10  9  1  0
 11 12  1  0
 10 11  1  1
 12 20  1  0
 12 13  2  0
 13 14  1  0
 15 14  1  0
 15 16  2  0
 17 16  1  0
 18 17  2  0
 19 20  2  0
 19 18  1  0
 20 15  1  0
 21 22  2  0
 21 10  1  0
 23 21  1  0
 24 23  1  0
 24 25  1  1
 26 25  1  0
 27 26  2  0
 28 24  1  0
 29 28  2  0
 30 26  1  0
 31 28  1  0
M  END
$$$$
