MWD.pdb
     RDKit          3D

 31 32  0  0  1  0  0  0  0  0999 V2000
   29.2786  -17.4653  -18.6991 C   0  0  0  0  0  0  0  0  0  0  0  0
   28.9452  -16.3094  -17.3577 S   0  0  0  0  0  0  0  0  0  0  0  0
   29.3741  -16.9702  -15.7478 C   0  0  0  0  0  0  0  0  0  0  0  0
   28.9954  -18.4456  -15.6327 C   0  0  0  0  0  0  0  0  0  0  0  0
   27.5897  -18.4785  -15.0792 C   0  0  2  0  0  0  0  0  0  0  0  0
   27.5177  -17.6009  -13.9444 N   0  0  0  0  0  0  0  0  0  0  0  0
   27.1435  -19.8221  -14.6867 C   0  0  0  0  0  0  0  0  0  0  0  0
   27.2667  -20.7661  -15.4998 O   0  0  0  0  0  0  0  0  0  0  0  0
   26.5680  -20.1283  -13.4157 N   0  0  0  0  0  0  0  0  0  0  0  0
   26.0464  -21.4213  -13.0656 C   0  0  1  0  0  0  0  0  0  0  0  0
   26.5848  -21.9967  -11.7824 C   0  0  0  0  0  0  0  0  0  0  0  0
   26.2830  -21.2198  -10.5741 C   0  0  0  0  0  0  0  0  0  0  0  0
   25.1195  -20.5285  -10.3098 C   0  0  0  0  0  0  0  0  0  0  0  0
   25.2198  -19.9272   -9.1145 N   0  0  0  0  0  0  0  0  0  0  0  0
   26.4193  -20.1973   -8.5697 C   0  0  0  0  0  0  0  0  0  0  0  0
   27.0138  -19.8288   -7.3603 C   0  0  0  0  0  0  0  0  0  0  0  0
   28.2808  -20.2559   -7.0317 C   0  0  0  0  0  0  0  0  0  0  0  0
   28.9476  -21.0570   -7.9278 C   0  0  0  0  0  0  0  0  0  0  0  0
   28.3621  -21.4198   -9.1189 C   0  0  0  0  0  0  0  0  0  0  0  0
   27.0864  -21.0070   -9.4823 C   0  0  0  0  0  0  0  0  0  0  0  0
   24.5521  -21.4324  -13.0820 C   0  0  0  0  0  0  0  0  0  0  0  0
   23.8758  -20.4297  -12.7370 O   0  0  0  0  0  0  0  0  0  0  0  0
   23.8273  -22.6029  -13.4972 N   0  0  0  0  0  0  0  0  0  0  0  0
   22.4233  -22.4808  -13.8410 C   0  0  1  0  0  0  0  0  0  0  0  0
   21.9827  -23.5438  -14.7950 C   0  0  0  0  0  0  0  0  0  0  0  0
   22.6343  -23.5012  -16.0957 C   0  0  0  0  0  0  0  0  0  0  0  0
   22.7571  -22.4236  -16.7136 O   0  0  0  0  0  0  0  0  0  0  0  0
   21.5780  -22.4417  -12.6099 C   0  0  0  0  0  0  0  0  0  0  0  0
   22.0683  -22.5786  -11.4632 O   0  0  0  0  0  0  0  0  0  0  0  0
   23.1279  -24.6535  -16.6674 O   0  0  0  0  0  0  0  0  0  0  0  0
   20.2089  -22.2507  -12.6979 O   0  0  0  0  0  0  0  0  0  0  0  0
  2  1  1  0
  3  2  1  0
  4  3  1  0
  5  4  1  0
  5  6  1  1
  7  5  1  0
  8  7  2  0
  9  7  1  0
 10  9  1  0
 11 12  1  0
 10 11  1  1
 12 20  1  0
 12 13  2  0
 13 14  1  0
 15 14  1  0
 15 16  2  0
 17 16  1  0
 18 17  2  0
 19 20  2  0
 19 18  1  0
 20 15  1  0
 21 22  2  0
 21 10  1  0
 23 21  1  0
 24 23  1  0
 24 25  1  6
 26 25  1  0
 27 26  2  0
 28 24  1  0
 29 28  2  0
 30 26  1  0
 31 28  1  0
M  END
$$$$
