MWD.pdb
     RDKit          3D

 31 32  0  0  1  0  0  0  0  0999 V2000
   27.4064  -16.4489  -15.0611 C   0  0  0  0  0  0  0  0  0  0  0  0
   29.1007  -17.0219  -15.2799 S   0  0  0  0  0  0  0  0  0  0  0  0
   29.2036  -18.7828  -15.5973 C   0  0  0  0  0  0  0  0  0  0  0  0
   27.8864  -19.4850  -15.2727 C   0  0  0  0  0  0  0  0  0  0  0  0
   28.2221  -20.5737  -14.2800 C   0  0  2  0  0  0  0  0  0  0  0  0
   28.9959  -21.5848  -14.9450 N   0  0  0  0  0  0  0  0  0  0  0  0
   27.0407  -21.1906  -13.6618 C   0  0  0  0  0  0  0  0  0  0  0  0
   26.3275  -21.9595  -14.3456 O   0  0  0  0  0  0  0  0  0  0  0  0
   26.6446  -20.9672  -12.3077 N   0  0  0  0  0  0  0  0  0  0  0  0
   25.3725  -21.3674  -11.7710 C   0  0  1  0  0  0  0  0  0  0  0  0
   25.3812  -21.7081  -10.3043 C   0  0  0  0  0  0  0  0  0  0  0  0
   26.2956  -20.9066   -9.4820 C   0  0  0  0  0  0  0  0  0  0  0  0
   25.9475  -19.8933   -8.6141 C   0  0  0  0  0  0  0  0  0  0  0  0
   27.0561  -19.3839   -8.0556 N   0  0  0  0  0  0  0  0  0  0  0  0
   28.1386  -20.0290   -8.5255 C   0  0  0  0  0  0  0  0  0  0  0  0
   29.5053  -19.8955   -8.2683 C   0  0  0  0  0  0  0  0  0  0  0  0
   30.4283  -20.7053   -8.8911 C   0  0  0  0  0  0  0  0  0  0  0  0
   29.9682  -21.6517   -9.7754 C   0  0  0  0  0  0  0  0  0  0  0  0
   28.6222  -21.7831  -10.0287 C   0  0  0  0  0  0  0  0  0  0  0  0
   27.6641  -20.9832   -9.4187 C   0  0  0  0  0  0  0  0  0  0  0  0
   24.3047  -20.3723  -12.0921 C   0  0  0  0  0  0  0  0  0  0  0  0
   24.5760  -19.1935  -12.4365 O   0  0  0  0  0  0  0  0  0  0  0  0
   22.9144  -20.7318  -12.0174 N   0  0  0  0  0  0  0  0  0  0  0  0
   22.0293  -20.3652  -13.1067 C   0  0  1  0  0  0  0  0  0  0  0  0
   22.5224  -20.8660  -14.4259 C   0  0  0  0  0  0  0  0  0  0  0  0
   21.6771  -20.5241  -15.5602 C   0  0  0  0  0  0  0  0  0  0  0  0
   20.8668  -21.3518  -16.0255 O   0  0  0  0  0  0  0  0  0  0  0  0
   20.6302  -20.8054  -12.8232 C   0  0  0  0  0  0  0  0  0  0  0  0
   19.6355  -20.1857  -13.2710 O   0  0  0  0  0  0  0  0  0  0  0  0
   21.7577  -19.2769  -16.1403 O   0  0  0  0  0  0  0  0  0  0  0  0
   20.3851  -21.9262  -12.0470 O   0  0  0  0  0  0  0  0  0  0  0  0
  2  1  1  0
  3  2  1  0
  4  3  1  0
  5  4  1  0
  5  6  1  6
  7  5  1  0
  8  7  2  0
  9  7  1  0
 10  9  1  0
 11 12  1  0
 10 11  1  1
 12 20  1  0
 12 13  2  0
 13 14  1  0
 15 14  1  0
 15 16  2  0
 17 16  1  0
 18 17  2  0
 19 20  2  0
 19 18  1  0
 20 15  1  0
 21 22  2  0
 21 10  1  0
 23 21  1  0
 24 23  1  0
 24 25  1  6
 26 25  1  0
 27 26  2  0
 28 24  1  0
 29 28  2  0
 30 26  1  0
 31 28  1  0
M  END
$$$$
