MWD.pdb
     RDKit          3D

 31 32  0  0  1  0  0  0  0  0999 V2000
   25.4765  -23.2744  -18.0937 C   0  0  0  0  0  0  0  0  0  0  0  0
   26.6933  -22.0395  -18.5847 S   0  0  0  0  0  0  0  0  0  0  0  0
   28.0043  -21.8375  -17.3794 C   0  0  0  0  0  0  0  0  0  0  0  0
   27.5659  -22.3121  -15.9952 C   0  0  0  0  0  0  0  0  0  0  0  0
   27.4425  -21.0704  -15.1429 C   0  0  2  0  0  0  0  0  0  0  0  0
   28.7409  -20.4717  -15.0054 N   0  0  0  0  0  0  0  0  0  0  0  0
   26.8786  -21.3253  -13.8104 C   0  0  0  0  0  0  0  0  0  0  0  0
   25.9691  -22.1769  -13.6872 O   0  0  0  0  0  0  0  0  0  0  0  0
   27.3069  -20.6537  -12.6247 N   0  0  0  0  0  0  0  0  0  0  0  0
   26.6802  -20.8201  -11.3417 C   0  0  1  0  0  0  0  0  0  0  0  0
   27.4290  -20.2114  -10.1858 C   0  0  0  0  0  0  0  0  0  0  0  0
   26.8284  -20.4345   -8.8651 C   0  0  0  0  0  0  0  0  0  0  0  0
   25.5472  -20.8747   -8.6079 C   0  0  0  0  0  0  0  0  0  0  0  0
   25.3557  -20.9393   -7.2814 N   0  0  0  0  0  0  0  0  0  0  0  0
   26.4746  -20.5546   -6.6420 C   0  0  0  0  0  0  0  0  0  0  0  0
   26.8014  -20.4476   -5.2879 C   0  0  0  0  0  0  0  0  0  0  0  0
   28.0497  -20.0256   -4.8889 C   0  0  0  0  0  0  0  0  0  0  0  0
   28.9691  -19.7112   -5.8612 C   0  0  0  0  0  0  0  0  0  0  0  0
   28.6473  -19.8165   -7.1948 C   0  0  0  0  0  0  0  0  0  0  0  0
   27.3981  -20.2385   -7.6324 C   0  0  0  0  0  0  0  0  0  0  0  0
   25.2556  -20.3691  -11.3650 C   0  0  0  0  0  0  0  0  0  0  0  0
   24.9434  -19.1590  -11.5063 O   0  0  0  0  0  0  0  0  0  0  0  0
   24.1802  -21.3134  -11.2249 N   0  0  0  0  0  0  0  0  0  0  0  0
   22.8294  -20.9016  -11.5565 C   0  0  1  0  0  0  0  0  0  0  0  0
   22.1035  -21.9391  -12.3510 C   0  0  0  0  0  0  0  0  0  0  0  0
   22.3421  -21.8830  -13.7856 C   0  0  0  0  0  0  0  0  0  0  0  0
   22.0926  -22.8657  -14.5136 O   0  0  0  0  0  0  0  0  0  0  0  0
   22.0794  -20.5057  -10.3267 C   0  0  0  0  0  0  0  0  0  0  0  0
   21.3016  -19.5215  -10.3113 O   0  0  0  0  0  0  0  0  0  0  0  0
   22.8486  -20.7401  -14.3650 O   0  0  0  0  0  0  0  0  0  0  0  0
   22.2218  -21.2227   -9.1500 O   0  0  0  0  0  0  0  0  0  0  0  0
  2  1  1  0
  3  2  1  0
  4  3  1  0
  5  4  1  0
  5  6  1  1
  7  5  1  0
  8  7  2  0
  9  7  1  0
 10  9  1  0
 11 12  1  0
 10 11  1  1
 12 20  1  0
 12 13  2  0
 13 14  1  0
 15 14  1  0
 15 16  2  0
 17 16  1  0
 18 17  2  0
 19 20  2  0
 19 18  1  0
 20 15  1  0
 21 22  2  0
 21 10  1  0
 23 21  1  0
 24 23  1  0
 24 25  1  1
 26 25  1  0
 27 26  2  0
 28 24  1  0
 29 28  2  0
 30 26  1  0
 31 28  1  0
M  END
$$$$
