MWD.pdb
     RDKit          3D

 31 32  0  0  1  0  0  0  0  0999 V2000
   28.4538  -19.2315  -19.6757 C   0  0  0  0  0  0  0  0  0  0  0  0
   27.3185  -19.7935  -18.3943 S   0  0  0  0  0  0  0  0  0  0  0  0
   28.1579  -20.5646  -17.0112 C   0  0  0  0  0  0  0  0  0  0  0  0
   27.1961  -20.8314  -15.8547 C   0  0  0  0  0  0  0  0  0  0  0  0
   28.0460  -21.3118  -14.7014 C   0  0  2  0  0  0  0  0  0  0  0  0
   28.6046  -22.5914  -15.0388 N   0  0  0  0  0  0  0  0  0  0  0  0
   27.3110  -21.4186  -13.4337 C   0  0  0  0  0  0  0  0  0  0  0  0
   26.1550  -21.8992  -13.4392 O   0  0  0  0  0  0  0  0  0  0  0  0
   27.8376  -21.0030  -12.1726 N   0  0  0  0  0  0  0  0  0  0  0  0
   27.0781  -20.9983  -10.9522 C   0  0  1  0  0  0  0  0  0  0  0  0
   27.8230  -20.4983   -9.7429 C   0  0  0  0  0  0  0  0  0  0  0  0
   27.0450  -20.4670   -8.4985 C   0  0  0  0  0  0  0  0  0  0  0  0
   25.7051  -20.7610   -8.3584 C   0  0  0  0  0  0  0  0  0  0  0  0
   25.3460  -20.6045   -7.0751 N   0  0  0  0  0  0  0  0  0  0  0  0
   26.4095  -20.2138   -6.3505 C   0  0  0  0  0  0  0  0  0  0  0  0
   26.5755  -19.9244   -4.9938 C   0  0  0  0  0  0  0  0  0  0  0  0
   27.8001  -19.5442   -4.4925 C   0  0  0  0  0  0  0  0  0  0  0  0
   28.8587  -19.4566   -5.3649 C   0  0  0  0  0  0  0  0  0  0  0  0
   28.6953  -19.7415   -6.7011 C   0  0  0  0  0  0  0  0  0  0  0  0
   27.4745  -20.1275   -7.2403 C   0  0  0  0  0  0  0  0  0  0  0  0
   25.7745  -20.2871  -11.1206 C   0  0  0  0  0  0  0  0  0  0  0  0
   25.7101  -19.0372  -11.2450 O   0  0  0  0  0  0  0  0  0  0  0  0
   24.5346  -21.0150  -11.1464 N   0  0  0  0  0  0  0  0  0  0  0  0
   23.3040  -20.3061  -11.4419 C   0  0  1  0  0  0  0  0  0  0  0  0
   22.6420  -20.8191  -12.6799 C   0  0  0  0  0  0  0  0  0  0  0  0
   21.3625  -20.1972  -12.9871 C   0  0  0  0  0  0  0  0  0  0  0  0
   20.9224  -19.2619  -12.2874 O   0  0  0  0  0  0  0  0  0  0  0  0
   22.3867  -20.3235  -10.2629 C   0  0  0  0  0  0  0  0  0  0  0  0
   21.6708  -19.3375   -9.9639 O   0  0  0  0  0  0  0  0  0  0  0  0
   20.6143  -20.6322  -14.0592 O   0  0  0  0  0  0  0  0  0  0  0  0
   22.2972  -21.4437   -9.4530 O   0  0  0  0  0  0  0  0  0  0  0  0
  2  1  1  0
  3  2  1  0
  4  3  1  0
  5  4  1  0
  5  6  1  6
  7  5  1  0
  8  7  2  0
  9  7  1  0
 10  9  1  0
 11 12  1  0
 10 11  1  1
 12 20  1  0
 12 13  2  0
 13 14  1  0
 15 14  1  0
 15 16  2  0
 17 16  1  0
 18 17  2  0
 19 20  2  0
 19 18  1  0
 20 15  1  0
 21 22  2  0
 21 10  1  0
 23 21  1  0
 24 23  1  0
 24 25  1  6
 26 25  1  0
 27 26  2  0
 28 24  1  0
 29 28  2  0
 30 26  1  0
 31 28  1  0
M  END
$$$$
