RME.pdb
     RDKit          3D

 29 28  0  0  1  0  0  0  0  0999 V2000
    7.5865  -11.7617   19.3703 N   0  0  0  0  0  0  0  0  0  0  0  0
    8.2001  -12.8281   18.6603 C   0  0  0  0  0  0  0  0  0  0  0  0
    7.8740  -12.9981   17.4396 N   0  0  0  0  0  0  0  0  0  0  0  0
    9.1445  -13.6985   19.2357 N   0  0  0  0  0  0  0  0  0  0  0  0
    9.6784  -14.7822   18.4800 C   0  0  0  0  0  0  0  0  0  0  0  0
    8.9266  -16.0454   18.9215 C   0  0  0  0  0  0  0  0  0  0  0  0
    9.7995  -16.9446   19.7304 C   0  0  0  0  0  0  0  0  0  0  0  0
    9.2132  -17.2932   21.0545 C   0  0  2  0  0  0  0  0  0  0  0  0
    7.7566  -17.4371   20.9379 N   0  0  0  0  0  0  0  0  0  0  0  0
    9.5387  -16.3436   22.1494 C   0  0  0  0  0  0  0  0  0  0  0  0
   10.7102  -15.9974   22.3442 O   0  0  0  0  0  0  0  0  0  0  0  0
    7.3054  -12.4285   16.8222 C   0  0  0  0  0  0  0  0  0  0  0  0
    5.2954  -12.4686   26.4570 S   0  0  0  0  0  0  0  0  0  0  0  0
    7.1031  -12.2084   26.3505 C   0  0  0  0  0  0  0  0  0  0  0  0
    7.9342  -13.8369   26.1991 C   0  0  0  0  0  0  0  0  0  0  0  0
    7.7022  -14.2984   24.7803 C   0  0  1  0  0  0  0  0  0  0  0  0
    8.7343  -15.2994   24.3207 N   0  0  0  0  0  0  0  0  0  0  0  0
    8.5062  -15.8081   23.0031 C   0  0  0  0  0  0  0  0  0  0  0  0
    8.8277  -16.4335   25.2709 O   0  0  0  0  0  0  0  0  0  0  0  0
    7.8539  -17.1827   25.4676 N   0  0  0  0  0  0  0  0  0  0  0  0
   10.0309  -16.6545   25.9480 C   0  0  1  0  0  0  0  0  0  0  0  0
   10.2655  -17.7624   26.8615 C   0  0  0  0  0  0  0  0  0  0  0  0
   11.3156  -18.6160   26.2274 C   0  0  0  0  0  0  0  0  0  0  0  0
   12.7023  -18.0690   26.2648 C   0  0  0  0  0  0  0  0  0  0  0  0
   13.6213  -18.9658   25.4975 O   0  0  0  0  0  0  0  0  0  0  0  0
   13.2452  -19.9990   24.8981 C   0  0  0  0  0  0  0  0  0  0  0  0
   10.6523  -17.1897   28.1725 O   0  0  0  0  0  0  0  0  0  0  0  0
   10.8522  -15.9565   28.2904 O   0  0  0  0  0  0  0  0  0  0  0  0
   14.9631  -18.6286   25.4506 O   0  0  0  0  0  0  0  0  0  0  0  0
  2  3  2  0
  2  1  1  0
  4  2  1  0
  5  4  1  0
  6  5  1  0
  7  6  1  0
  8  7  1  0
  8  9  1  6
 10  8  1  0
 10 17  1  0
 11 10  2  0
 12 13  1  0
 13 14  1  0
 16 15  1  6
 15 14  1  0
 16 17  1  0
 18 16  1  0
 19 18  2  0
 20 18  1  0
 21 20  1  0
 21 26  1  0
 21 22  1  1
 23 22  1  0
 24 25  2  0
 24 23  1  0
 26 29  1  0
 27 26  2  0
 28 24  1  0
M  END
$$$$
