RME.pdb
     RDKit          3D

 29 28  0  0  1  0  0  0  0  0999 V2000
    7.2408  -14.1768   18.5242 N   0  0  0  0  0  0  0  0  0  0  0  0
    7.2459  -13.4289   19.7318 C   0  0  0  0  0  0  0  0  0  0  0  0
    7.4454  -12.1720   19.6547 N   0  0  0  0  0  0  0  0  0  0  0  0
    7.0415  -14.0048   20.9996 N   0  0  0  0  0  0  0  0  0  0  0  0
    6.9038  -15.4167   21.1347 C   0  0  0  0  0  0  0  0  0  0  0  0
    7.9210  -16.0564   20.1798 C   0  0  0  0  0  0  0  0  0  0  0  0
    8.9271  -16.8709   20.9208 C   0  0  0  0  0  0  0  0  0  0  0  0
   10.1520  -16.1032   21.2794 C   0  0  2  0  0  0  0  0  0  0  0  0
   11.2604  -16.4812   20.3936 N   0  0  0  0  0  0  0  0  0  0  0  0
   10.5752  -16.2323   22.6975 C   0  0  0  0  0  0  0  0  0  0  0  0
   11.5400  -16.9466   22.9957 O   0  0  0  0  0  0  0  0  0  0  0  0
    7.4796  -11.4629   20.3791 C   0  0  0  0  0  0  0  0  0  0  0  0
   10.1321  -13.5197   30.0255 S   0  0  0  0  0  0  0  0  0  0  0  0
    9.6980  -13.3607   28.2553 C   0  0  0  0  0  0  0  0  0  0  0  0
    9.6172  -15.0335   27.5063 C   0  0  0  0  0  0  0  0  0  0  0  0
    9.3084  -14.8258   26.0430 C   0  0  1  0  0  0  0  0  0  0  0  0
   10.1786  -15.6683   25.1422 N   0  0  0  0  0  0  0  0  0  0  0  0
    9.8773  -15.5344   23.7500 C   0  0  0  0  0  0  0  0  0  0  0  0
   10.0996  -17.0992   25.5218 O   0  0  0  0  0  0  0  0  0  0  0  0
    9.1066  -17.7854   25.2198 N   0  0  0  0  0  0  0  0  0  0  0  0
   11.1612  -17.6740   26.2273 C   0  0  1  0  0  0  0  0  0  0  0  0
   11.1440  -19.0191   26.7813 C   0  0  0  0  0  0  0  0  0  0  0  0
   12.4645  -19.6313   26.4423 C   0  0  0  0  0  0  0  0  0  0  0  0
   12.7274  -19.8365   24.9890 C   0  0  0  0  0  0  0  0  0  0  0  0
   14.0562  -20.4981   24.8032 O   0  0  0  0  0  0  0  0  0  0  0  0
   14.7652  -20.9128   25.7485 C   0  0  0  0  0  0  0  0  0  0  0  0
   10.8786  -18.9032   28.2348 O   0  0  0  0  0  0  0  0  0  0  0  0
   10.8527  -17.7760   28.7856 O   0  0  0  0  0  0  0  0  0  0  0  0
   14.5229  -20.6587   23.5099 O   0  0  0  0  0  0  0  0  0  0  0  0
  2  3  2  0
  2  1  1  0
  4  2  1  0
  5  4  1  0
  6  5  1  0
  7  6  1  0
  8  7  1  0
  8  9  1  6
 10  8  1  0
 10 17  1  0
 11 10  2  0
 12 13  1  0
 13 14  1  0
 16 15  1  6
 15 14  1  0
 16 17  1  0
 18 16  1  0
 19 18  2  0
 20 18  1  0
 21 20  1  0
 21 26  1  0
 21 22  1  1
 23 22  1  0
 24 25  2  0
 24 23  1  0
 26 29  1  0
 27 26  2  0
 28 24  1  0
M  END
$$$$
