RME.pdb
     RDKit          3D

 29 28  0  0  1  0  0  0  0  0999 V2000
    8.1346  -15.6593   15.2225 N   0  0  0  0  0  0  0  0  0  0  0  0
    7.9257  -14.2556   15.1605 C   0  0  0  0  0  0  0  0  0  0  0  0
    8.5326  -13.6015   14.2499 N   0  0  0  0  0  0  0  0  0  0  0  0
    7.0861  -13.5583   16.0490 N   0  0  0  0  0  0  0  0  0  0  0  0
    7.5021  -13.3136   17.3897 C   0  0  0  0  0  0  0  0  0  0  0  0
    8.7175  -14.2140   17.6498 C   0  0  0  0  0  0  0  0  0  0  0  0
    9.3229  -13.9404   18.9853 C   0  0  0  0  0  0  0  0  0  0  0  0
    9.0155  -14.9925   19.9937 C   0  0  2  0  0  0  0  0  0  0  0  0
    7.6125  -15.4091   19.8749 N   0  0  0  0  0  0  0  0  0  0  0  0
    9.3100  -14.6131   21.3994 C   0  0  0  0  0  0  0  0  0  0  0  0
   10.4340  -14.1995   21.7092 O   0  0  0  0  0  0  0  0  0  0  0  0
    8.4735  -12.6233   13.9882 C   0  0  0  0  0  0  0  0  0  0  0  0
    6.7461  -11.4559   28.0699 S   0  0  0  0  0  0  0  0  0  0  0  0
    6.3502  -12.1378   26.4190 C   0  0  0  0  0  0  0  0  0  0  0  0
    7.7381  -13.2003   25.8618 C   0  0  0  0  0  0  0  0  0  0  0  0
    7.4233  -13.5930   24.4383 C   0  0  2  0  0  0  0  0  0  0  0  0
    8.5235  -14.4104   23.8062 N   0  0  0  0  0  0  0  0  0  0  0  0
    8.3020  -14.7173   22.4264 C   0  0  0  0  0  0  0  0  0  0  0  0
    8.7407  -15.6706   24.5562 O   0  0  0  0  0  0  0  0  0  0  0  0
    7.8728  -16.5622   24.5703 N   0  0  0  0  0  0  0  0  0  0  0  0
    9.9404  -15.8484   25.2520 C   0  0  1  0  0  0  0  0  0  0  0  0
   10.3703  -17.1102   25.8348 C   0  0  0  0  0  0  0  0  0  0  0  0
   11.7435  -17.3722   25.3064 C   0  0  0  0  0  0  0  0  0  0  0  0
   11.9603  -18.7225   24.7121 C   0  0  0  0  0  0  0  0  0  0  0  0
   13.3386  -18.8073   24.1370 O   0  0  0  0  0  0  0  0  0  0  0  0
   14.2394  -19.5468   24.5953 C   0  0  0  0  0  0  0  0  0  0  0  0
   10.2983  -16.9722   27.3087 O   0  0  0  0  0  0  0  0  0  0  0  0
   10.3040  -17.9913   28.0409 O   0  0  0  0  0  0  0  0  0  0  0  0
   13.6285  -18.0215   23.0349 O   0  0  0  0  0  0  0  0  0  0  0  0
  2  3  2  0
  2  1  1  0
  4  2  1  0
  5  4  1  0
  6  5  1  0
  7  6  1  0
  8  7  1  0
  8  9  1  1
 10  8  1  0
 10 17  1  0
 11 10  2  0
 12 13  1  0
 13 14  1  0
 16 15  1  6
 15 14  1  0
 16 17  1  0
 18 16  1  0
 19 18  2  0
 20 18  1  0
 21 20  1  0
 21 26  1  0
 21 22  1  1
 23 22  1  0
 24 25  2  0
 24 23  1  0
 26 29  1  0
 27 26  2  0
 28 24  1  0
M  END
$$$$
