RME.pdb
     RDKit          3D

 29 28  0  0  1  0  0  0  0  0999 V2000
    7.7992  -15.7872   13.9138 N   0  0  0  0  0  0  0  0  0  0  0  0
    8.3115  -14.5968   14.4952 C   0  0  0  0  0  0  0  0  0  0  0  0
    8.2126  -13.5156   13.8269 N   0  0  0  0  0  0  0  0  0  0  0  0
    8.9173  -14.5543   15.7648 N   0  0  0  0  0  0  0  0  0  0  0  0
    9.0042  -15.7334   16.5603 C   0  0  0  0  0  0  0  0  0  0  0  0
    7.8450  -15.6788   17.5648 C   0  0  0  0  0  0  0  0  0  0  0  0
    8.3416  -15.6839   18.9713 C   0  0  0  0  0  0  0  0  0  0  0  0
    7.3930  -15.0506   19.9291 C   0  0  2  0  0  0  0  0  0  0  0  0
    6.7029  -13.9259   19.2848 N   0  0  0  0  0  0  0  0  0  0  0  0
    8.0045  -14.6004   21.2058 C   0  0  0  0  0  0  0  0  0  0  0  0
    9.1978  -14.2764   21.2433 O   0  0  0  0  0  0  0  0  0  0  0  0
    8.4402  -12.5598   14.0792 C   0  0  0  0  0  0  0  0  0  0  0  0
    7.4147  -11.6288   28.3385 S   0  0  0  0  0  0  0  0  0  0  0  0
    6.6353  -12.0609   26.7408 C   0  0  0  0  0  0  0  0  0  0  0  0
    7.3987  -13.6009   26.0995 C   0  0  0  0  0  0  0  0  0  0  0  0
    6.7755  -13.8489   24.7468 C   0  0  2  0  0  0  0  0  0  0  0  0
    7.7839  -14.3006   23.7185 N   0  0  0  0  0  0  0  0  0  0  0  0
    7.2286  -14.5316   22.4203 C   0  0  0  0  0  0  0  0  0  0  0  0
    8.4864  -15.5248   24.1721 O   0  0  0  0  0  0  0  0  0  0  0  0
    7.9153  -16.6302   24.1581 N   0  0  0  0  0  0  0  0  0  0  0  0
    9.8076  -15.4234   24.6184 C   0  0  1  0  0  0  0  0  0  0  0  0
   10.6134  -16.5527   25.0564 C   0  0  0  0  0  0  0  0  0  0  0  0
   11.9637  -16.3702   24.4424 C   0  0  0  0  0  0  0  0  0  0  0  0
   12.9879  -17.3859   24.8203 C   0  0  0  0  0  0  0  0  0  0  0  0
   14.3459  -16.9134   24.4078 O   0  0  0  0  0  0  0  0  0  0  0  0
   14.5619  -15.8066   23.8630 C   0  0  0  0  0  0  0  0  0  0  0  0
   10.6113  -16.5585   26.5384 O   0  0  0  0  0  0  0  0  0  0  0  0
   10.2966  -15.5238   27.1750 O   0  0  0  0  0  0  0  0  0  0  0  0
   15.4215  -17.7518   24.6449 O   0  0  0  0  0  0  0  0  0  0  0  0
  2  3  2  0
  2  1  1  0
  4  2  1  0
  5  4  1  0
  6  5  1  0
  7  6  1  0
  8  7  1  0
  8  9  1  6
 10  8  1  0
 10 17  1  0
 11 10  2  0
 12 13  1  0
 13 14  1  0
 16 15  1  6
 15 14  1  0
 16 17  1  0
 18 16  1  0
 19 18  2  0
 20 18  1  0
 21 20  1  0
 21 26  1  0
 21 22  1  1
 23 22  1  0
 24 25  2  0
 24 23  1  0
 26 29  1  0
 27 26  2  0
 28 24  1  0
M  END
$$$$
