RME.pdb
     RDKit          3D

 29 28  0  0  1  0  0  0  0  0999 V2000
    8.8558  -12.3395   15.0915 N   0  0  0  0  0  0  0  0  0  0  0  0
    8.4241  -13.6399   15.4659 C   0  0  0  0  0  0  0  0  0  0  0  0
    8.8646  -14.6311   14.7959 N   0  0  0  0  0  0  0  0  0  0  0  0
    7.5409  -13.8843   16.5341 N   0  0  0  0  0  0  0  0  0  0  0  0
    8.0064  -13.8285   17.8797 C   0  0  0  0  0  0  0  0  0  0  0  0
    8.3161  -15.2707   18.3036 C   0  0  0  0  0  0  0  0  0  0  0  0
    9.2753  -15.3094   19.4452 C   0  0  0  0  0  0  0  0  0  0  0  0
    8.7362  -16.0189   20.6387 C   0  0  2  0  0  0  0  0  0  0  0  0
    7.2708  -16.0810   20.5681 N   0  0  0  0  0  0  0  0  0  0  0  0
    9.1529  -15.4465   21.9446 C   0  0  0  0  0  0  0  0  0  0  0  0
   10.3536  -15.3064   22.2071 O   0  0  0  0  0  0  0  0  0  0  0  0
    8.6176  -15.6143   14.8310 C   0  0  0  0  0  0  0  0  0  0  0  0
    6.4491  -10.9957   26.0046 S   0  0  0  0  0  0  0  0  0  0  0  0
    6.5086  -12.4864   27.0636 C   0  0  0  0  0  0  0  0  0  0  0  0
    7.8046  -13.6196   26.4296 C   0  0  0  0  0  0  0  0  0  0  0  0
    7.4489  -13.9036   24.9900 C   0  0  2  0  0  0  0  0  0  0  0  0
    8.4825  -14.7567   24.2955 N   0  0  0  0  0  0  0  0  0  0  0  0
    8.1764  -15.0448   22.9279 C   0  0  0  0  0  0  0  0  0  0  0  0
    8.6918  -16.0297   25.0260 O   0  0  0  0  0  0  0  0  0  0  0  0
    7.7920  -16.8872   25.0839 N   0  0  0  0  0  0  0  0  0  0  0  0
    9.9204  -16.2585   25.6530 C   0  0  1  0  0  0  0  0  0  0  0  0
   10.2911  -17.5091   26.2972 C   0  0  0  0  0  0  0  0  0  0  0  0
   11.5587  -17.9591   25.6458 C   0  0  0  0  0  0  0  0  0  0  0  0
   12.2319  -19.1281   26.2812 C   0  0  0  0  0  0  0  0  0  0  0  0
   13.4692  -19.4772   25.5164 O   0  0  0  0  0  0  0  0  0  0  0  0
   13.8747  -18.8372   24.5193 C   0  0  0  0  0  0  0  0  0  0  0  0
   10.4101  -17.2477   27.7512 O   0  0  0  0  0  0  0  0  0  0  0  0
   10.4672  -16.0697   28.1799 O   0  0  0  0  0  0  0  0  0  0  0  0
   14.2039  -20.5711   25.9404 O   0  0  0  0  0  0  0  0  0  0  0  0
  2  3  2  0
  2  1  1  0
  4  2  1  0
  5  4  1  0
  6  5  1  0
  7  6  1  0
  8  7  1  0
  8  9  1  6
 10  8  1  0
 10 17  1  0
 11 10  2  0
 12 13  1  0
 13 14  1  0
 16 15  1  6
 15 14  1  0
 16 17  1  0
 18 16  1  0
 19 18  2  0
 20 18  1  0
 21 20  1  0
 21 26  1  0
 21 22  1  1
 23 22  1  0
 24 25  2  0
 24 23  1  0
 26 29  1  0
 27 26  2  0
 28 24  1  0
M  END
$$$$
