RME.pdb
     RDKit          3D

 29 28  0  0  1  0  0  0  0  0999 V2000
    7.1614  -13.0691   16.6267 N   0  0  0  0  0  0  0  0  0  0  0  0
    8.3617  -13.4553   17.2809 C   0  0  0  0  0  0  0  0  0  0  0  0
    9.4647  -13.2466   16.6765 N   0  0  0  0  0  0  0  0  0  0  0  0
    8.3909  -14.0517   18.5553 N   0  0  0  0  0  0  0  0  0  0  0  0
    7.5464  -15.1611   18.8500 C   0  0  0  0  0  0  0  0  0  0  0  0
    8.4097  -16.4237   18.7222 C   0  0  0  0  0  0  0  0  0  0  0  0
    9.5529  -16.4017   19.6801 C   0  0  0  0  0  0  0  0  0  0  0  0
    9.2618  -17.1144   20.9551 C   0  0  2  0  0  0  0  0  0  0  0  0
    7.8887  -17.6345   20.9389 N   0  0  0  0  0  0  0  0  0  0  0  0
    9.4795  -16.3077   22.1833 C   0  0  0  0  0  0  0  0  0  0  0  0
   10.5841  -15.7962   22.4034 O   0  0  0  0  0  0  0  0  0  0  0  0
   10.4212  -13.4080   16.9729 C   0  0  0  0  0  0  0  0  0  0  0  0
    6.6558  -11.0682   27.2096 S   0  0  0  0  0  0  0  0  0  0  0  0
    6.4124  -12.1694   25.7691 C   0  0  0  0  0  0  0  0  0  0  0  0
    7.7227  -13.4534   25.7691 C   0  0  0  0  0  0  0  0  0  0  0  0
    7.5049  -14.2782   24.5233 C   0  0  2  0  0  0  0  0  0  0  0  0
    8.5552  -15.3476   24.3457 N   0  0  0  0  0  0  0  0  0  0  0  0
    8.4180  -16.1041   23.1391 C   0  0  0  0  0  0  0  0  0  0  0  0
    8.5641  -16.2743   25.5028 O   0  0  0  0  0  0  0  0  0  0  0  0
    7.5539  -16.9394   25.7952 N   0  0  0  0  0  0  0  0  0  0  0  0
    9.7287  -16.3946   26.2673 C   0  0  1  0  0  0  0  0  0  0  0  0
    9.9490  -17.4277   27.2677 C   0  0  0  0  0  0  0  0  0  0  0  0
    9.8938  -18.7339   26.5436 C   0  0  0  0  0  0  0  0  0  0  0  0
   11.0421  -19.0184   25.6359 C   0  0  0  0  0  0  0  0  0  0  0  0
   10.9339  -20.4123   25.1039 O   0  0  0  0  0  0  0  0  0  0  0  0
    9.9952  -21.1928   25.3833 C   0  0  0  0  0  0  0  0  0  0  0  0
   11.2474  -17.1473   27.9250 O   0  0  0  0  0  0  0  0  0  0  0  0
   11.6333  -17.8506   28.8900 O   0  0  0  0  0  0  0  0  0  0  0  0
   11.9312  -20.8590   24.2542 O   0  0  0  0  0  0  0  0  0  0  0  0
  2  3  2  0
  2  1  1  0
  4  2  1  0
  5  4  1  0
  6  5  1  0
  7  6  1  0
  8  7  1  0
  8  9  1  6
 10  8  1  0
 10 17  1  0
 11 10  2  0
 12 13  1  0
 13 14  1  0
 16 15  1  6
 15 14  1  0
 16 17  1  0
 18 16  1  0
 19 18  2  0
 20 18  1  0
 21 20  1  0
 21 26  1  0
 21 22  1  1
 23 22  1  0
 24 25  2  0
 24 23  1  0
 26 29  1  0
 27 26  2  0
 28 24  1  0
M  END
$$$$
