RME.pdb
     RDKit          3D

 29 28  0  0  1  0  0  0  0  0999 V2000
    8.4634  -12.1414   19.7880 N   0  0  0  0  0  0  0  0  0  0  0  0
    8.1769  -12.8458   18.5882 C   0  0  0  0  0  0  0  0  0  0  0  0
    7.8171  -12.1685   17.5698 N   0  0  0  0  0  0  0  0  0  0  0  0
    8.2719  -14.2450   18.4709 N   0  0  0  0  0  0  0  0  0  0  0  0
    8.8522  -15.0171   19.5186 C   0  0  0  0  0  0  0  0  0  0  0  0
    7.7092  -15.7980   20.1814 C   0  0  0  0  0  0  0  0  0  0  0  0
    7.9342  -17.2701   20.0975 C   0  0  0  0  0  0  0  0  0  0  0  0
    7.9090  -17.9426   21.4263 C   0  0  2  0  0  0  0  0  0  0  0  0
    6.5504  -18.4110   21.7277 N   0  0  0  0  0  0  0  0  0  0  0  0
    8.4177  -17.1173   22.5518 C   0  0  0  0  0  0  0  0  0  0  0  0
    9.5672  -16.6614   22.5185 O   0  0  0  0  0  0  0  0  0  0  0  0
    7.6144  -12.4609   16.6199 C   0  0  0  0  0  0  0  0  0  0  0  0
    7.7161  -11.4147   27.0931 S   0  0  0  0  0  0  0  0  0  0  0  0
    7.1075  -12.6137   25.8526 C   0  0  0  0  0  0  0  0  0  0  0  0
    7.2829  -14.3116   26.5251 C   0  0  0  0  0  0  0  0  0  0  0  0
    6.8298  -15.2475   25.4303 C   0  0  2  0  0  0  0  0  0  0  0  0
    7.9798  -15.9761   24.7785 N   0  0  0  0  0  0  0  0  0  0  0  0
    7.5910  -16.8310   23.6991 C   0  0  0  0  0  0  0  0  0  0  0  0
    8.7361  -16.7677   25.7781 O   0  0  0  0  0  0  0  0  0  0  0  0
    8.2331  -17.7757   26.3064 N   0  0  0  0  0  0  0  0  0  0  0  0
   10.0306  -16.3671   26.1228 C   0  0  1  0  0  0  0  0  0  0  0  0
   10.9623  -17.1788   26.8907 C   0  0  0  0  0  0  0  0  0  0  0  0
   12.3328  -16.7808   26.4468 C   0  0  0  0  0  0  0  0  0  0  0  0
   12.7349  -17.2523   25.0906 C   0  0  0  0  0  0  0  0  0  0  0  0
   13.9749  -16.5388   24.6534 O   0  0  0  0  0  0  0  0  0  0  0  0
   14.5619  -15.6759   25.3456 C   0  0  0  0  0  0  0  0  0  0  0  0
   10.6906  -16.9371   28.3274 O   0  0  0  0  0  0  0  0  0  0  0  0
   10.0640  -15.9118   28.6894 O   0  0  0  0  0  0  0  0  0  0  0  0
   14.4989  -16.8554   23.4119 O   0  0  0  0  0  0  0  0  0  0  0  0
  2  3  2  0
  2  1  1  0
  4  2  1  0
  5  4  1  0
  6  5  1  0
  7  6  1  0
  8  7  1  0
  8  9  1  1
 10  8  1  0
 10 17  1  0
 11 10  2  0
 12 13  1  0
 13 14  1  0
 16 15  1  6
 15 14  1  0
 16 17  1  0
 18 16  1  0
 19 18  2  0
 20 18  1  0
 21 20  1  0
 21 26  1  0
 21 22  1  1
 23 22  1  0
 24 25  2  0
 24 23  1  0
 26 29  1  0
 27 26  2  0
 28 24  1  0
M  END
$$$$
