RME.pdb
     RDKit          3D

 29 28  0  0  1  0  0  0  0  0999 V2000
    8.2926  -12.5995   16.0827 N   0  0  0  0  0  0  0  0  0  0  0  0
    8.4549  -13.9752   15.7685 C   0  0  0  0  0  0  0  0  0  0  0  0
    8.3179  -14.3297   14.5515 N   0  0  0  0  0  0  0  0  0  0  0  0
    8.7587  -14.9577   16.7292 N   0  0  0  0  0  0  0  0  0  0  0  0
    7.8700  -15.2000   17.8164 C   0  0  0  0  0  0  0  0  0  0  0  0
    7.9302  -13.9640   18.7242 C   0  0  0  0  0  0  0  0  0  0  0  0
    7.1126  -14.1529   19.9574 C   0  0  0  0  0  0  0  0  0  0  0  0
    7.5675  -15.3002   20.7910 C   0  0  2  0  0  0  0  0  0  0  0  0
    6.4308  -16.1740   21.1083 N   0  0  0  0  0  0  0  0  0  0  0  0
    8.2741  -14.9203   22.0412 C   0  0  0  0  0  0  0  0  0  0  0  0
    9.3849  -14.3785   21.9874 O   0  0  0  0  0  0  0  0  0  0  0  0
    8.4709  -15.2268   14.1035 C   0  0  0  0  0  0  0  0  0  0  0  0
    7.0850  -11.5523   27.5828 S   0  0  0  0  0  0  0  0  0  0  0  0
    5.8706  -12.1248   26.3401 C   0  0  0  0  0  0  0  0  0  0  0  0
    6.7638  -12.9496   24.9662 C   0  0  0  0  0  0  0  0  0  0  0  0
    7.4434  -14.1557   25.5690 C   0  0  2  0  0  0  0  0  0  0  0  0
    8.3267  -14.8772   24.5804 N   0  0  0  0  0  0  0  0  0  0  0  0
    7.6873  -15.1723   23.3350 C   0  0  0  0  0  0  0  0  0  0  0  0
    8.8557  -16.1326   25.1652 O   0  0  0  0  0  0  0  0  0  0  0  0
    8.1521  -17.1574   25.2189 N   0  0  0  0  0  0  0  0  0  0  0  0
   10.1639  -16.1532   25.6587 C   0  0  1  0  0  0  0  0  0  0  0  0
   10.9273  -17.3667   25.9058 C   0  0  0  0  0  0  0  0  0  0  0  0
   12.3029  -17.1136   25.3792 C   0  0  0  0  0  0  0  0  0  0  0  0
   13.3276  -18.1386   25.7296 C   0  0  0  0  0  0  0  0  0  0  0  0
   14.6551  -17.7409   25.1664 O   0  0  0  0  0  0  0  0  0  0  0  0
   14.9490  -16.5684   24.8392 C   0  0  0  0  0  0  0  0  0  0  0  0
   10.8710  -17.6448   27.3604 O   0  0  0  0  0  0  0  0  0  0  0  0
   10.4359  -16.7760   28.1546 O   0  0  0  0  0  0  0  0  0  0  0  0
   15.6091  -18.7300   25.0003 O   0  0  0  0  0  0  0  0  0  0  0  0
  2  3  2  0
  2  1  1  0
  4  2  1  0
  5  4  1  0
  6  5  1  0
  7  6  1  0
  8  7  1  0
  8  9  1  1
 10  8  1  0
 10 17  1  0
 11 10  2  0
 12 13  1  0
 13 14  1  0
 16 15  1  6
 15 14  1  0
 16 17  1  0
 18 16  1  0
 19 18  2  0
 20 18  1  0
 21 20  1  0
 21 26  1  0
 21 22  1  1
 23 22  1  0
 24 25  2  0
 24 23  1  0
 26 29  1  0
 27 26  2  0
 28 24  1  0
M  END
$$$$
