RME.pdb
     RDKit          3D

 29 28  0  0  1  0  0  0  0  0999 V2000
    7.8125  -12.5668   16.5091 N   0  0  0  0  0  0  0  0  0  0  0  0
    7.9447  -13.9805   16.5489 C   0  0  0  0  0  0  0  0  0  0  0  0
    8.7024  -14.5337   15.6856 N   0  0  0  0  0  0  0  0  0  0  0  0
    7.2850  -14.7932   17.4896 N   0  0  0  0  0  0  0  0  0  0  0  0
    8.0287  -15.4897   18.4858 C   0  0  0  0  0  0  0  0  0  0  0  0
    8.7486  -14.4272   19.3276 C   0  0  0  0  0  0  0  0  0  0  0  0
    9.7215  -15.0477   20.2728 C   0  0  0  0  0  0  0  0  0  0  0  0
    9.0812  -15.9759   21.2459 C   0  0  2  0  0  0  0  0  0  0  0  0
    7.6329  -16.0313   21.0107 N   0  0  0  0  0  0  0  0  0  0  0  0
    9.3473  -15.6626   22.6734 C   0  0  0  0  0  0  0  0  0  0  0  0
   10.5093  -15.5168   23.0717 O   0  0  0  0  0  0  0  0  0  0  0  0
    9.0174  -15.4942   15.6019 C   0  0  0  0  0  0  0  0  0  0  0  0
    7.0496  -11.4229   27.2777 S   0  0  0  0  0  0  0  0  0  0  0  0
    5.9180  -12.3111   26.1474 C   0  0  0  0  0  0  0  0  0  0  0  0
    6.9102  -13.2924   24.9565 C   0  0  0  0  0  0  0  0  0  0  0  0
    7.2876  -14.5674   25.6719 C   0  0  2  0  0  0  0  0  0  0  0  0
    8.4479  -15.2771   25.0174 N   0  0  0  0  0  0  0  0  0  0  0  0
    8.2670  -15.5224   23.6195 C   0  0  0  0  0  0  0  0  0  0  0  0
    8.7355  -16.5594   25.7034 O   0  0  0  0  0  0  0  0  0  0  0  0
    7.8269  -17.3779   25.9329 N   0  0  0  0  0  0  0  0  0  0  0  0
   10.0487  -16.8419   26.0919 C   0  0  1  0  0  0  0  0  0  0  0  0
   10.4663  -18.0820   26.7276 C   0  0  0  0  0  0  0  0  0  0  0  0
   11.8900  -18.3010   26.3294 C   0  0  0  0  0  0  0  0  0  0  0  0
   12.1100  -19.2907   25.2358 C   0  0  0  0  0  0  0  0  0  0  0  0
   13.5137  -19.1829   24.7302 O   0  0  0  0  0  0  0  0  0  0  0  0
   14.4952  -19.7340   25.2790 C   0  0  0  0  0  0  0  0  0  0  0  0
   10.2556  -17.9321   28.1869 O   0  0  0  0  0  0  0  0  0  0  0  0
   10.5157  -18.8819   28.9649 O   0  0  0  0  0  0  0  0  0  0  0  0
   13.7337  -18.4301   23.5896 O   0  0  0  0  0  0  0  0  0  0  0  0
  2  3  2  0
  2  1  1  0
  4  2  1  0
  5  4  1  0
  6  5  1  0
  7  6  1  0
  8  7  1  0
  8  9  1  1
 10  8  1  0
 10 17  1  0
 11 10  2  0
 12 13  1  0
 13 14  1  0
 16 15  1  6
 15 14  1  0
 16 17  1  0
 18 16  1  0
 19 18  2  0
 20 18  1  0
 21 20  1  0
 21 26  1  0
 21 22  1  1
 23 22  1  0
 24 25  2  0
 24 23  1  0
 26 29  1  0
 27 26  2  0
 28 24  1  0
M  END
$$$$
