RME.pdb
     RDKit          3D

 29 28  0  0  1  0  0  0  0  0999 V2000
    7.3003  -15.2431   14.8887 N   0  0  0  0  0  0  0  0  0  0  0  0
    8.1285  -14.1092   15.1036 C   0  0  0  0  0  0  0  0  0  0  0  0
    8.9418  -13.7801   14.1786 N   0  0  0  0  0  0  0  0  0  0  0  0
    8.0932  -13.3369   16.2796 N   0  0  0  0  0  0  0  0  0  0  0  0
    8.6965  -13.8208   17.4765 C   0  0  0  0  0  0  0  0  0  0  0  0
    7.6109  -13.8015   18.5613 C   0  0  0  0  0  0  0  0  0  0  0  0
    8.1621  -13.3637   19.8764 C   0  0  0  0  0  0  0  0  0  0  0  0
    8.6788  -14.4925   20.6993 C   0  0  2  0  0  0  0  0  0  0  0  0
    7.8055  -15.6637   20.5523 N   0  0  0  0  0  0  0  0  0  0  0  0
    8.8627  -14.1800   22.1399 C   0  0  0  0  0  0  0  0  0  0  0  0
    9.5357  -13.2002   22.4824 O   0  0  0  0  0  0  0  0  0  0  0  0
    9.6263  -13.0327   14.1357 C   0  0  0  0  0  0  0  0  0  0  0  0
    6.4282  -10.8735   26.1994 S   0  0  0  0  0  0  0  0  0  0  0  0
    5.9123  -12.4678   26.9336 C   0  0  0  0  0  0  0  0  0  0  0  0
    7.1929  -13.7326   26.5782 C   0  0  0  0  0  0  0  0  0  0  0  0
    7.0916  -14.0318   25.1017 C   0  0  2  0  0  0  0  0  0  0  0  0
    8.3245  -14.7165   24.5636 N   0  0  0  0  0  0  0  0  0  0  0  0
    8.2668  -15.0041   23.1633 C   0  0  0  0  0  0  0  0  0  0  0  0
    8.5977  -15.9697   25.3070 O   0  0  0  0  0  0  0  0  0  0  0  0
    8.5083  -16.0079   26.5475 N   0  0  0  0  0  0  0  0  0  0  0  0
    8.9588  -17.1170   24.5940 C   0  0  2  0  0  0  0  0  0  0  0  0
   10.1141  -17.9449   24.9045 C   0  0  0  0  0  0  0  0  0  0  0  0
   11.2469  -17.4102   24.0895 C   0  0  0  0  0  0  0  0  0  0  0  0
   12.5857  -17.9995   24.3792 C   0  0  0  0  0  0  0  0  0  0  0  0
   13.6480  -17.2102   23.6818 O   0  0  0  0  0  0  0  0  0  0  0  0
   13.4101  -16.2529   22.9103 C   0  0  0  0  0  0  0  0  0  0  0  0
   10.3314  -17.8821   26.3692 O   0  0  0  0  0  0  0  0  0  0  0  0
   10.1795  -16.7997   26.9858 O   0  0  0  0  0  0  0  0  0  0  0  0
   14.9676  -17.5628   23.9067 O   0  0  0  0  0  0  0  0  0  0  0  0
  2  3  2  0
  2  1  1  0
  4  2  1  0
  5  4  1  0
  6  5  1  0
  7  6  1  0
  8  7  1  0
  8  9  1  1
 10  8  1  0
 10 17  1  0
 11 10  2  0
 12 13  1  0
 13 14  1  0
 16 15  1  6
 15 14  1  0
 16 17  1  0
 18 16  1  0
 19 18  2  0
 20 18  1  0
 21 20  1  0
 21 26  1  0
 21 22  1  6
 23 22  1  0
 24 25  2  0
 24 23  1  0
 26 29  1  0
 27 26  2  0
 28 24  1  0
M  END
$$$$
