RME.pdb
     RDKit          3D

 29 28  0  0  1  0  0  0  0  0999 V2000
    7.7843  -12.6881   16.2787 N   0  0  0  0  0  0  0  0  0  0  0  0
    7.8556  -14.0588   15.9130 C   0  0  0  0  0  0  0  0  0  0  0  0
    8.1778  -14.3402   14.7120 N   0  0  0  0  0  0  0  0  0  0  0  0
    7.5907  -15.1130   16.8070 N   0  0  0  0  0  0  0  0  0  0  0  0
    8.0899  -15.0677   18.1409 C   0  0  0  0  0  0  0  0  0  0  0  0
    7.2400  -14.0390   18.8993 C   0  0  0  0  0  0  0  0  0  0  0  0
    7.2008  -14.3353   20.3607 C   0  0  0  0  0  0  0  0  0  0  0  0
    8.5511  -14.5546   20.9497 C   0  0  2  0  0  0  0  0  0  0  0  0
    8.8983  -15.9803   20.8959 N   0  0  0  0  0  0  0  0  0  0  0  0
    8.7152  -14.0491   22.3369 C   0  0  0  0  0  0  0  0  0  0  0  0
    8.5807  -12.8435   22.5791 O   0  0  0  0  0  0  0  0  0  0  0  0
    8.3379  -15.2358   14.2634 C   0  0  0  0  0  0  0  0  0  0  0  0
    7.7314  -11.4578   27.4502 S   0  0  0  0  0  0  0  0  0  0  0  0
    6.4002  -12.3785   26.5975 C   0  0  0  0  0  0  0  0  0  0  0  0
    6.8882  -14.1412   26.4550 C   0  0  0  0  0  0  0  0  0  0  0  0
    7.2254  -14.3692   25.0010 C   0  0  1  0  0  0  0  0  0  0  0  0
    8.6814  -14.7068   24.7901 N   0  0  0  0  0  0  0  0  0  0  0  0
    9.0324  -14.9438   23.4235 C   0  0  0  0  0  0  0  0  0  0  0  0
    9.0726  -15.8826   25.6039 O   0  0  0  0  0  0  0  0  0  0  0  0
    8.8420  -15.9175   26.8262 N   0  0  0  0  0  0  0  0  0  0  0  0
    9.7072  -16.9602   24.9787 C   0  0  2  0  0  0  0  0  0  0  0  0
   10.7128  -17.7989   25.6127 C   0  0  0  0  0  0  0  0  0  0  0  0
   12.0309  -17.3745   25.0504 C   0  0  0  0  0  0  0  0  0  0  0  0
   11.9982  -16.8445   23.6570 C   0  0  0  0  0  0  0  0  0  0  0  0
   13.3901  -16.5518   23.1937 O   0  0  0  0  0  0  0  0  0  0  0  0
   14.4109  -16.7422   23.8937 C   0  0  0  0  0  0  0  0  0  0  0  0
   10.5874  -17.6207   27.0786 O   0  0  0  0  0  0  0  0  0  0  0  0
    9.8085  -16.7553   27.5467 O   0  0  0  0  0  0  0  0  0  0  0  0
   13.5526  -16.0421   21.9170 O   0  0  0  0  0  0  0  0  0  0  0  0
  2  3  2  0
  2  1  1  0
  4  2  1  0
  5  4  1  0
  6  5  1  0
  7  6  1  0
  8  7  1  0
  8  9  1  1
 10  8  1  0
 10 17  1  0
 11 10  2  0
 12 13  1  0
 13 14  1  0
 16 15  1  6
 15 14  1  0
 16 17  1  0
 18 16  1  0
 19 18  2  0
 20 18  1  0
 21 20  1  0
 21 26  1  0
 21 22  1  6
 23 22  1  0
 24 25  2  0
 24 23  1  0
 26 29  1  0
 27 26  2  0
 28 24  1  0
M  END
$$$$
