RME.pdb
     RDKit          3D

 29 28  0  0  1  0  0  0  0  0999 V2000
    6.6372  -12.9873   18.7275 N   0  0  0  0  0  0  0  0  0  0  0  0
    7.7848  -12.7583   19.5327 C   0  0  0  0  0  0  0  0  0  0  0  0
    7.7696  -11.7578   20.3228 N   0  0  0  0  0  0  0  0  0  0  0  0
    8.9285  -13.5778   19.5009 N   0  0  0  0  0  0  0  0  0  0  0  0
    9.0901  -14.5477   18.4695 C   0  0  0  0  0  0  0  0  0  0  0  0
    8.2949  -15.7889   18.8974 C   0  0  0  0  0  0  0  0  0  0  0  0
    9.2000  -16.9092   19.2852 C   0  0  0  0  0  0  0  0  0  0  0  0
    8.9350  -17.4278   20.6560 C   0  0  2  0  0  0  0  0  0  0  0  0
    7.5265  -17.8239   20.7808 N   0  0  0  0  0  0  0  0  0  0  0  0
    9.2944  -16.4953   21.7551 C   0  0  0  0  0  0  0  0  0  0  0  0
   10.4704  -16.1463   21.9145 O   0  0  0  0  0  0  0  0  0  0  0  0
    8.4806  -11.4032   20.9534 C   0  0  0  0  0  0  0  0  0  0  0  0
    6.8059  -11.8170   27.6841 S   0  0  0  0  0  0  0  0  0  0  0  0
    6.4318  -12.7019   26.1272 C   0  0  0  0  0  0  0  0  0  0  0  0
    7.7455  -13.9437   25.8141 C   0  0  0  0  0  0  0  0  0  0  0  0
    7.4117  -14.5856   24.4888 C   0  0  1  0  0  0  0  0  0  0  0  0
    8.5773  -15.3451   23.9033 N   0  0  0  0  0  0  0  0  0  0  0  0
    8.2901  -15.9801   22.6537 C   0  0  0  0  0  0  0  0  0  0  0  0
    9.0793  -16.3595   24.8607 O   0  0  0  0  0  0  0  0  0  0  0  0
    8.4454  -17.4101   25.0675 N   0  0  0  0  0  0  0  0  0  0  0  0
   10.2819  -16.1218   25.5333 C   0  0  1  0  0  0  0  0  0  0  0  0
   10.9622  -17.1014   26.3665 C   0  0  0  0  0  0  0  0  0  0  0  0
   12.4265  -16.8874   26.1580 C   0  0  0  0  0  0  0  0  0  0  0  0
   12.9362  -17.1952   24.7909 C   0  0  0  0  0  0  0  0  0  0  0  0
   14.4010  -16.9006   24.7184 O   0  0  0  0  0  0  0  0  0  0  0  0
   15.0426  -16.3325   25.6316 C   0  0  0  0  0  0  0  0  0  0  0  0
   10.5070  -16.8980   27.7621 O   0  0  0  0  0  0  0  0  0  0  0  0
    9.7835  -15.9154   28.0551 O   0  0  0  0  0  0  0  0  0  0  0  0
   15.0807  -17.2806   23.5739 O   0  0  0  0  0  0  0  0  0  0  0  0
  2  3  2  0
  2  1  1  0
  4  2  1  0
  5  4  1  0
  6  5  1  0
  7  6  1  0
  8  7  1  0
  8  9  1  6
 10  8  1  0
 10 17  1  0
 11 10  2  0
 12 13  1  0
 13 14  1  0
 16 15  1  6
 15 14  1  0
 16 17  1  0
 18 16  1  0
 19 18  2  0
 20 18  1  0
 21 20  1  0
 21 26  1  0
 21 22  1  1
 23 22  1  0
 24 25  2  0
 24 23  1  0
 26 29  1  0
 27 26  2  0
 28 24  1  0
M  END
$$$$
