IAN.pdb
     RDKit          3D

 22 21  0  0  1  0  0  0  0  0999 V2000
   11.4939  -15.3140  -11.1557 C   0  0  0  0  0  0  0  0  0  0  0  0
   11.7266  -14.0876  -12.0564 C   0  0  0  0  0  0  0  0  0  0  0  0
   12.5830  -13.1600  -11.2694 C   0  0  2  0  0  0  0  0  0  0  0  0
   11.9908  -12.9216   -9.9188 C   0  0  0  0  0  0  0  0  0  0  0  0
   13.0007  -11.8983  -11.9799 C   0  0  2  0  0  0  0  0  0  0  0  0
   13.6500  -12.3742  -13.2170 N   0  0  0  0  0  0  0  0  0  0  0  0
   14.0245  -11.1190  -11.2553 C   0  0  0  0  0  0  0  0  0  0  0  0
   13.8651  -10.6757  -10.0757 O   0  0  0  0  0  0  0  0  0  0  0  0
   17.4509   -9.7915  -12.1099 C   0  0  0  0  0  0  0  0  0  0  0  0
   16.2630   -9.9768  -11.1853 C   0  0  2  0  0  0  0  0  0  0  0  0
   15.2709  -10.8252  -11.8690 N   0  0  0  0  0  0  0  0  0  0  0  0
   15.6688   -8.6871  -10.7956 C   0  0  0  0  0  0  0  0  0  0  0  0
   14.7829   -8.1482  -11.5194 O   0  0  0  0  0  0  0  0  0  0  0  0
   13.9668   -4.9932   -6.7981 N   0  0  0  0  0  0  0  0  0  0  0  0
   15.2578   -5.1124   -7.4063 C   0  0  0  0  0  0  0  0  0  0  0  0
   15.9215   -4.0781   -7.5857 O   0  0  0  0  0  0  0  0  0  0  0  0
   15.7643   -6.4249   -7.7995 C   0  0  0  0  0  0  0  0  0  0  0  0
   15.4513   -6.7195   -9.2245 C   0  0  2  0  0  0  0  0  0  0  0  0
   16.0411   -8.0050   -9.6341 N   0  0  0  0  0  0  0  0  0  0  0  0
   16.0565   -5.7124  -10.1012 C   0  0  0  0  0  0  0  0  0  0  0  0
   15.3845   -4.6764  -10.4169 O   0  0  0  0  0  0  0  0  0  0  0  0
   17.3122   -5.7923  -10.6216 O   0  0  0  0  0  0  0  0  0  0  0  0
  1  2  1  0
  2  3  1  0
  3  4  1  1
  5  3  1  0
  5  6  1  6
  7  5  1  0
  7 11  1  0
  8  7  2  0
 10 11  1  0
 10 12  1  0
 10  9  1  6
 12 19  1  0
 13 12  2  0
 15 14  1  0
 16 15  2  0
 17 15  1  0
 18 17  1  1
 19 18  1  0
 20 22  1  0
 20 18  1  0
 21 20  2  0
M  END
$$$$
