IAN.pdb
     RDKit          3D

 22 21  0  0  1  0  0  0  0  0999 V2000
   20.7286  -20.8099  -13.4329 C   0  0  0  0  0  0  0  0  0  0  0  0
   19.5832  -19.8848  -13.8825 C   0  0  0  0  0  0  0  0  0  0  0  0
   20.1774  -18.5256  -13.9965 C   0  0  2  0  0  0  0  0  0  0  0  0
   20.9248  -18.1763  -12.7511 C   0  0  0  0  0  0  0  0  0  0  0  0
   19.2404  -17.4426  -14.4658 C   0  0  2  0  0  0  0  0  0  0  0  0
   18.7861  -17.9028  -15.7925 N   0  0  0  0  0  0  0  0  0  0  0  0
   19.9007  -16.1409  -14.6892 C   0  0  0  0  0  0  0  0  0  0  0  0
   20.3493  -15.4108  -13.7517 O   0  0  0  0  0  0  0  0  0  0  0  0
   21.4154  -14.2718  -17.4888 C   0  0  0  0  0  0  0  0  0  0  0  0
   20.5705  -14.2700  -16.2293 C   0  0  2  0  0  0  0  0  0  0  0  0
   20.0673  -15.6369  -16.0064 N   0  0  0  0  0  0  0  0  0  0  0  0
   19.4568  -13.3109  -16.3210 C   0  0  0  0  0  0  0  0  0  0  0  0
   19.6839  -12.0912  -16.5657 O   0  0  0  0  0  0  0  0  0  0  0  0
   15.0260  -10.8580  -16.2405 N   0  0  0  0  0  0  0  0  0  0  0  0
   16.1145  -10.6425  -15.3354 C   0  0  0  0  0  0  0  0  0  0  0  0
   16.0817   -9.6396  -14.6037 O   0  0  0  0  0  0  0  0  0  0  0  0
   17.2266  -11.5885  -15.2882 C   0  0  0  0  0  0  0  0  0  0  0  0
   16.9985  -12.7360  -16.2083 C   0  0  2  0  0  0  0  0  0  0  0  0
   18.1218  -13.6859  -16.1474 N   0  0  0  0  0  0  0  0  0  0  0  0
   16.9479  -12.2757  -17.5993 C   0  0  0  0  0  0  0  0  0  0  0  0
   17.9701  -12.4313  -18.3446 O   0  0  0  0  0  0  0  0  0  0  0  0
   15.8700  -11.6791  -18.1792 O   0  0  0  0  0  0  0  0  0  0  0  0
  1  2  1  0
  2  3  1  0
  3  4  1  1
  5  3  1  0
  5  6  1  6
  7  5  1  0
  7 11  1  0
  8  7  2  0
 10 11  1  0
 10 12  1  0
 10  9  1  6
 12 19  1  0
 13 12  2  0
 15 14  1  0
 16 15  2  0
 17 15  1  0
 18 17  1  1
 19 18  1  0
 20 22  1  0
 20 18  1  0
 21 20  2  0
M  END
$$$$
