IAN.pdb
     RDKit          3D

 22 21  0  0  1  0  0  0  0  0999 V2000
   20.5125  -15.0082  -16.9504 C   0  0  0  0  0  0  0  0  0  0  0  0
   19.0816  -14.4983  -16.7013 C   0  0  0  0  0  0  0  0  0  0  0  0
   19.1753  -13.0136  -16.6812 C   0  0  2  0  0  0  0  0  0  0  0  0
   20.2229  -12.5696  -15.7132 C   0  0  0  0  0  0  0  0  0  0  0  0
   17.8665  -12.2804  -16.5374 C   0  0  2  0  0  0  0  0  0  0  0  0
   17.0352  -12.7981  -17.6416 N   0  0  0  0  0  0  0  0  0  0  0  0
   17.9740  -10.8239  -16.7554 C   0  0  0  0  0  0  0  0  0  0  0  0
   18.7056  -10.3000  -17.6518 O   0  0  0  0  0  0  0  0  0  0  0  0
   15.9658   -7.8560  -15.9636 C   0  0  0  0  0  0  0  0  0  0  0  0
   17.3411   -8.4657  -16.1564 C   0  0  2  0  0  0  0  0  0  0  0  0
   17.2375   -9.9202  -15.9444 N   0  0  0  0  0  0  0  0  0  0  0  0
   18.3332   -7.8732  -15.2437 C   0  0  0  0  0  0  0  0  0  0  0  0
   18.4696   -8.3241  -14.0701 O   0  0  0  0  0  0  0  0  0  0  0  0
   22.1018   -4.8832  -13.3431 N   0  0  0  0  0  0  0  0  0  0  0  0
   22.4866   -5.4642  -14.5941 C   0  0  0  0  0  0  0  0  0  0  0  0
   23.6657   -5.3388  -14.9633 O   0  0  0  0  0  0  0  0  0  0  0  0
   21.5036   -6.1820  -15.4019 C   0  0  0  0  0  0  0  0  0  0  0  0
   20.1779   -6.2250  -14.7266 C   0  0  2  0  0  0  0  0  0  0  0  0
   19.1579   -6.8077  -15.6144 N   0  0  0  0  0  0  0  0  0  0  0  0
   19.7103   -4.8681  -14.4281 C   0  0  0  0  0  0  0  0  0  0  0  0
   20.2807   -4.2018  -13.5032 O   0  0  0  0  0  0  0  0  0  0  0  0
   18.6887   -4.2411  -15.0740 O   0  0  0  0  0  0  0  0  0  0  0  0
  1  2  1  0
  2  3  1  0
  3  4  1  1
  5  3  1  0
  5  6  1  6
  7  5  1  0
  7 11  1  0
  8  7  2  0
 10 11  1  0
 10 12  1  0
 10  9  1  1
 12 19  1  0
 13 12  2  0
 15 14  1  0
 16 15  2  0
 17 15  1  0
 18 17  1  6
 19 18  1  0
 20 22  1  0
 20 18  1  0
 21 20  2  0
M  END
$$$$
