IAN.pdb
     RDKit          3D

 22 21  0  0  1  0  0  0  0  0999 V2000
   19.5487  -18.5697  -15.7400 C   0  0  0  0  0  0  0  0  0  0  0  0
   18.6698  -17.5721  -16.5158 C   0  0  0  0  0  0  0  0  0  0  0  0
   19.3177  -16.2430  -16.3504 C   0  0  2  0  0  0  0  0  0  0  0  0
   19.6346  -15.9921  -14.9122 C   0  0  0  0  0  0  0  0  0  0  0  0
   18.6225  -15.0907  -17.0284 C   0  0  2  0  0  0  0  0  0  0  0  0
   18.7883  -15.3617  -18.4698 N   0  0  0  0  0  0  0  0  0  0  0  0
   19.2622  -13.7827  -16.7827 C   0  0  0  0  0  0  0  0  0  0  0  0
   19.2858  -13.2147  -15.6468 O   0  0  0  0  0  0  0  0  0  0  0  0
   21.2631  -11.3480  -18.8441 C   0  0  0  0  0  0  0  0  0  0  0  0
   20.4293  -11.7254  -17.6347 C   0  0  2  0  0  0  0  0  0  0  0  0
   19.8993  -13.0845  -17.8426 N   0  0  0  0  0  0  0  0  0  0  0  0
   19.3354  -10.7665  -17.4057 C   0  0  0  0  0  0  0  0  0  0  0  0
   18.1990  -10.9589  -17.9261 O   0  0  0  0  0  0  0  0  0  0  0  0
   16.5354   -6.7722  -15.7608 N   0  0  0  0  0  0  0  0  0  0  0  0
   17.0413   -7.5709  -14.6852 C   0  0  0  0  0  0  0  0  0  0  0  0
   16.6204   -7.3478  -13.5382 O   0  0  0  0  0  0  0  0  0  0  0  0
   18.0268   -8.6162  -14.9492 C   0  0  0  0  0  0  0  0  0  0  0  0
   18.4085   -8.6473  -16.3876 C   0  0  2  0  0  0  0  0  0  0  0  0
   19.4885   -9.6205  -16.6207 N   0  0  0  0  0  0  0  0  0  0  0  0
   18.9519   -7.3503  -16.8021 C   0  0  0  0  0  0  0  0  0  0  0  0
   20.2137   -7.2110  -16.9152 O   0  0  0  0  0  0  0  0  0  0  0  0
   18.2008   -6.2504  -17.0848 O   0  0  0  0  0  0  0  0  0  0  0  0
  1  2  1  0
  2  3  1  0
  3  4  1  1
  5  3  1  0
  5  6  1  6
  7  5  1  0
  7 11  1  0
  8  7  2  0
 10 11  1  0
 10 12  1  0
 10  9  1  6
 12 19  1  0
 13 12  2  0
 15 14  1  0
 16 15  2  0
 17 15  1  0
 18 17  1  1
 19 18  1  0
 20 22  1  0
 20 18  1  0
 21 20  2  0
M  END
$$$$
