IAN.pdb
     RDKit          3D

 22 21  0  0  1  0  0  0  0  0999 V2000
   16.0971  -13.3780  -17.2075 C   0  0  0  0  0  0  0  0  0  0  0  0
   16.5167  -11.9621  -17.6419 C   0  0  0  0  0  0  0  0  0  0  0  0
   17.1332  -11.3334  -16.4427 C   0  0  2  0  0  0  0  0  0  0  0  0
   16.2292  -11.4656  -15.2608 C   0  0  0  0  0  0  0  0  0  0  0  0
   17.6714   -9.9399  -16.6421 C   0  0  2  0  0  0  0  0  0  0  0  0
   18.7400  -10.1019  -17.6471 N   0  0  0  0  0  0  0  0  0  0  0  0
   18.3216   -9.3764  -15.4420 C   0  0  0  0  0  0  0  0  0  0  0  0
   17.7022   -9.1177  -14.3637 O   0  0  0  0  0  0  0  0  0  0  0  0
   21.7269   -8.9788  -14.1001 C   0  0  0  0  0  0  0  0  0  0  0  0
   20.3409   -8.3989  -14.3072 C   0  0  2  0  0  0  0  0  0  0  0  0
   19.7131   -9.0929  -15.4455 N   0  0  0  0  0  0  0  0  0  0  0  0
   20.3870   -6.9458  -14.5410 C   0  0  0  0  0  0  0  0  0  0  0  0
   20.9077   -6.1776  -13.6820 O   0  0  0  0  0  0  0  0  0  0  0  0
   21.6855   -4.9031  -19.2658 N   0  0  0  0  0  0  0  0  0  0  0  0
   21.4064   -4.7779  -17.8668 C   0  0  0  0  0  0  0  0  0  0  0  0
   22.3600   -4.8069  -17.0717 O   0  0  0  0  0  0  0  0  0  0  0  0
   20.0293   -4.6213  -17.4054 C   0  0  0  0  0  0  0  0  0  0  0  0
   19.9134   -4.9006  -15.9480 C   0  0  2  0  0  0  0  0  0  0  0  0
   19.8715   -6.3506  -15.6956 N   0  0  0  0  0  0  0  0  0  0  0  0
   18.6497   -4.3737  -15.4239 C   0  0  0  0  0  0  0  0  0  0  0  0
   18.4548   -3.1141  -15.4174 O   0  0  0  0  0  0  0  0  0  0  0  0
   17.6373   -5.1382  -14.9294 O   0  0  0  0  0  0  0  0  0  0  0  0
  1  2  1  0
  2  3  1  0
  3  4  1  1
  5  3  1  0
  5  6  1  6
  7  5  1  0
  7 11  1  0
  8  7  2  0
 10 11  1  0
 10 12  1  0
 10  9  1  6
 12 19  1  0
 13 12  2  0
 15 14  1  0
 16 15  2  0
 17 15  1  0
 18 17  1  6
 19 18  1  0
 20 22  1  0
 20 18  1  0
 21 20  2  0
M  END
$$$$
