IAN.pdb
     RDKit          3D

 22 21  0  0  1  0  0  0  0  0999 V2000
   18.7035  -14.4489  -17.6806 C   0  0  0  0  0  0  0  0  0  0  0  0
   18.6535  -13.6442  -16.3692 C   0  0  0  0  0  0  0  0  0  0  0  0
   18.7708  -12.2144  -16.7632 C   0  0  2  0  0  0  0  0  0  0  0  0
   19.9355  -12.0186  -17.6779 C   0  0  0  0  0  0  0  0  0  0  0  0
   18.7141  -11.2205  -15.6318 C   0  0  2  0  0  0  0  0  0  0  0  0
   17.4088  -11.4719  -14.9904 N   0  0  0  0  0  0  0  0  0  0  0  0
   18.6855   -9.8131  -16.0778 C   0  0  0  0  0  0  0  0  0  0  0  0
   19.6828   -9.2194  -16.5937 O   0  0  0  0  0  0  0  0  0  0  0  0
   16.0486   -7.1411  -16.3420 C   0  0  0  0  0  0  0  0  0  0  0  0
   17.4892   -7.6141  -16.3105 C   0  0  2  0  0  0  0  0  0  0  0  0
   17.5009   -9.0413  -15.9441 N   0  0  0  0  0  0  0  0  0  0  0  0
   18.3018   -6.8255  -15.3691 C   0  0  0  0  0  0  0  0  0  0  0  0
   18.5342   -7.2628  -14.2055 O   0  0  0  0  0  0  0  0  0  0  0  0
   21.5808   -3.5016  -13.2981 N   0  0  0  0  0  0  0  0  0  0  0  0
   21.9337   -4.8155  -13.7451 C   0  0  0  0  0  0  0  0  0  0  0  0
   23.0521   -5.2605  -13.4392 O   0  0  0  0  0  0  0  0  0  0  0  0
   20.9899   -5.5973  -14.5399 C   0  0  0  0  0  0  0  0  0  0  0  0
   19.7452   -4.8275  -14.8110 C   0  0  2  0  0  0  0  0  0  0  0  0
   18.8473   -5.5824  -15.7010 N   0  0  0  0  0  0  0  0  0  0  0  0
   20.0556   -3.5863  -15.5268 C   0  0  0  0  0  0  0  0  0  0  0  0
   20.1817   -3.6133  -16.7948 O   0  0  0  0  0  0  0  0  0  0  0  0
   20.2252   -2.3721  -14.9345 O   0  0  0  0  0  0  0  0  0  0  0  0
  1  2  1  0
  2  3  1  0
  3  4  1  1
  5  3  1  0
  5  6  1  6
  7  5  1  0
  7 11  1  0
  8  7  2  0
 10 11  1  0
 10 12  1  0
 10  9  1  1
 12 19  1  0
 13 12  2  0
 15 14  1  0
 16 15  2  0
 17 15  1  0
 18 17  1  6
 19 18  1  0
 20 22  1  0
 20 18  1  0
 21 20  2  0
M  END
$$$$
