IAN.pdb
     RDKit          3D

 22 21  0  0  1  0  0  0  0  0999 V2000
   19.8522  -14.3137  -19.2254 C   0  0  0  0  0  0  0  0  0  0  0  0
   19.9179  -13.8934  -17.7459 C   0  0  0  0  0  0  0  0  0  0  0  0
   19.6526  -12.4297  -17.7254 C   0  0  2  0  0  0  0  0  0  0  0  0
   20.5143  -11.7287  -18.7244 C   0  0  0  0  0  0  0  0  0  0  0  0
   19.6571  -11.7861  -16.3627 C   0  0  2  0  0  0  0  0  0  0  0  0
   18.6929  -12.5832  -15.5796 N   0  0  0  0  0  0  0  0  0  0  0  0
   19.1424  -10.4021  -16.3572 C   0  0  0  0  0  0  0  0  0  0  0  0
   19.7531   -9.4234  -16.8889 O   0  0  0  0  0  0  0  0  0  0  0  0
   15.9706   -8.7414  -15.1839 C   0  0  0  0  0  0  0  0  0  0  0  0
   17.3948   -8.7166  -15.7047 C   0  0  2  0  0  0  0  0  0  0  0  0
   17.9010  -10.1001  -15.7372 N   0  0  0  0  0  0  0  0  0  0  0  0
   18.2629   -7.8611  -14.8783 C   0  0  0  0  0  0  0  0  0  0  0  0
   18.6669   -8.2634  -13.7494 O   0  0  0  0  0  0  0  0  0  0  0  0
   21.7775   -4.3157  -13.6238 N   0  0  0  0  0  0  0  0  0  0  0  0
   22.0371   -5.6907  -13.9285 C   0  0  0  0  0  0  0  0  0  0  0  0
   23.1632   -6.1477  -13.6726 O   0  0  0  0  0  0  0  0  0  0  0  0
   20.9923   -6.5190  -14.5252 C   0  0  0  0  0  0  0  0  0  0  0  0
   19.6902   -5.7990  -14.5660 C   0  0  2  0  0  0  0  0  0  0  0  0
   18.6779   -6.5902  -15.2852 N   0  0  0  0  0  0  0  0  0  0  0  0
   19.8193   -4.5480  -15.3193 C   0  0  0  0  0  0  0  0  0  0  0  0
   20.5258   -3.6018  -14.8394 O   0  0  0  0  0  0  0  0  0  0  0  0
   19.2317   -4.3044  -16.5231 O   0  0  0  0  0  0  0  0  0  0  0  0
  1  2  1  0
  2  3  1  0
  3  4  1  6
  5  3  1  0
  5  6  1  1
  7  5  1  0
  7 11  1  0
  8  7  2  0
 10 11  1  0
 10 12  1  0
 10  9  1  1
 12 19  1  0
 13 12  2  0
 15 14  1  0
 16 15  2  0
 17 15  1  0
 18 17  1  6
 19 18  1  0
 20 22  1  0
 20 18  1  0
 21 20  2  0
M  END
$$$$
