IAN.pdb
     RDKit          3D

 22 21  0  0  1  0  0  0  0  0999 V2000
   28.1452  -14.6839  -16.6184 C   0  0  0  0  0  0  0  0  0  0  0  0
   26.8627  -13.8531  -16.4324 C   0  0  0  0  0  0  0  0  0  0  0  0
   27.3066  -12.4380  -16.3153 C   0  0  2  0  0  0  0  0  0  0  0  0
   28.3180  -12.2965  -15.2250 C   0  0  0  0  0  0  0  0  0  0  0  0
   26.2040  -11.4123  -16.2568 C   0  0  2  0  0  0  0  0  0  0  0  0
   25.4722  -11.5906  -17.5261 N   0  0  0  0  0  0  0  0  0  0  0  0
   26.6889  -10.0175  -16.2576 C   0  0  0  0  0  0  0  0  0  0  0  0
   27.2982   -9.4852  -15.2785 O   0  0  0  0  0  0  0  0  0  0  0  0
   27.9457   -7.5784  -18.4699 C   0  0  0  0  0  0  0  0  0  0  0  0
   26.9137   -7.7774  -17.3765 C   0  0  2  0  0  0  0  0  0  0  0  0
   26.4873   -9.1879  -17.3924 N   0  0  0  0  0  0  0  0  0  0  0  0
   25.7588   -6.8797  -17.5466 C   0  0  0  0  0  0  0  0  0  0  0  0
   25.9172   -5.6253  -17.5235 O   0  0  0  0  0  0  0  0  0  0  0  0
   21.2333   -4.7234  -18.2707 N   0  0  0  0  0  0  0  0  0  0  0  0
   22.3933   -4.2436  -17.5816 C   0  0  0  0  0  0  0  0  0  0  0  0
   22.3792   -3.0814  -17.1440 O   0  0  0  0  0  0  0  0  0  0  0  0
   23.5542   -5.1131  -17.4077 C   0  0  0  0  0  0  0  0  0  0  0  0
   23.3000   -6.4704  -17.9629 C   0  0  2  0  0  0  0  0  0  0  0  0
   24.4577   -7.3521  -17.7384 N   0  0  0  0  0  0  0  0  0  0  0  0
   23.1313   -6.4060  -19.4178 C   0  0  0  0  0  0  0  0  0  0  0  0
   24.0773   -5.9415  -20.1347 O   0  0  0  0  0  0  0  0  0  0  0  0
   22.0176   -6.8125  -20.0873 O   0  0  0  0  0  0  0  0  0  0  0  0
  1  2  1  0
  2  3  1  0
  3  4  1  1
  5  3  1  0
  5  6  1  6
  7  5  1  0
  7 11  1  0
  8  7  2  0
 10 11  1  0
 10 12  1  0
 10  9  1  6
 12 19  1  0
 13 12  2  0
 15 14  1  0
 16 15  2  0
 17 15  1  0
 18 17  1  6
 19 18  1  0
 20 22  1  0
 20 18  1  0
 21 20  2  0
M  END
$$$$
