IAN.pdb
     RDKit          3D

 22 21  0  0  1  0  0  0  0  0999 V2000
   32.2690  -21.9858  -10.9030 C   0  0  0  0  0  0  0  0  0  0  0  0
   31.3950  -20.8634  -11.4913 C   0  0  0  0  0  0  0  0  0  0  0  0
   30.0896  -21.4947  -11.8241 C   0  0  2  0  0  0  0  0  0  0  0  0
   30.2982  -22.7185  -12.6553 C   0  0  0  0  0  0  0  0  0  0  0  0
   29.0361  -20.5644  -12.3678 C   0  0  2  0  0  0  0  0  0  0  0  0
   29.0963  -19.3867  -11.4803 N   0  0  0  0  0  0  0  0  0  0  0  0
   27.6614  -21.0916  -12.2540 C   0  0  0  0  0  0  0  0  0  0  0  0
   27.1990  -22.0133  -12.9956 O   0  0  0  0  0  0  0  0  0  0  0  0
   24.8459  -20.7816   -9.8187 C   0  0  0  0  0  0  0  0  0  0  0  0
   25.3704  -21.0243  -11.2209 C   0  0  2  0  0  0  0  0  0  0  0  0
   26.7718  -20.5720  -11.2766 N   0  0  0  0  0  0  0  0  0  0  0  0
   24.5567  -20.3328  -12.2348 C   0  0  0  0  0  0  0  0  0  0  0  0
   24.8120  -19.1348  -12.5493 O   0  0  0  0  0  0  0  0  0  0  0  0
   22.3661  -19.8348  -17.4621 N   0  0  0  0  0  0  0  0  0  0  0  0
   21.8722  -20.2552  -16.1854 C   0  0  0  0  0  0  0  0  0  0  0  0
   20.6699  -20.0758  -15.9313 O   0  0  0  0  0  0  0  0  0  0  0  0
   22.7744  -20.8769  -15.2191 C   0  0  0  0  0  0  0  0  0  0  0  0
   22.6340  -20.2570  -13.8732 C   0  0  2  0  0  0  0  0  0  0  0  0
   23.4851  -20.9464  -12.8891 N   0  0  0  0  0  0  0  0  0  0  0  0
   21.2617  -20.4076  -13.3799 C   0  0  0  0  0  0  0  0  0  0  0  0
   20.4912  -19.3925  -13.3619 O   0  0  0  0  0  0  0  0  0  0  0  0
   20.7250  -21.5740  -12.9266 O   0  0  0  0  0  0  0  0  0  0  0  0
  1  2  1  0
  2  3  1  0
  3  4  1  6
  5  3  1  0
  5  6  1  1
  7  5  1  0
  7 11  1  0
  8  7  2  0
 10 11  1  0
 10 12  1  0
 10  9  1  1
 12 19  1  0
 13 12  2  0
 15 14  1  0
 16 15  2  0
 17 15  1  0
 18 17  1  6
 19 18  1  0
 20 22  1  0
 20 18  1  0
 21 20  2  0
M  END
$$$$
