IAN.pdb
     RDKit          3D

 22 21  0  0  1  0  0  0  0  0999 V2000
   17.9277  -16.1970  -18.0665 C   0  0  0  0  0  0  0  0  0  0  0  0
   18.3467  -15.4301  -16.7993 C   0  0  0  0  0  0  0  0  0  0  0  0
   18.1829  -13.9872  -17.1227 C   0  0  2  0  0  0  0  0  0  0  0  0
   18.9094  -13.6490  -18.3834 C   0  0  0  0  0  0  0  0  0  0  0  0
   18.4555  -13.0310  -15.9902 C   0  0  2  0  0  0  0  0  0  0  0  0
   17.4304  -13.3598  -14.9805 N   0  0  0  0  0  0  0  0  0  0  0  0
   18.2402  -11.6137  -16.3440 C   0  0  0  0  0  0  0  0  0  0  0  0
   18.9507  -10.9849  -17.1885 O   0  0  0  0  0  0  0  0  0  0  0  0
   15.6029   -9.0476  -15.5976 C   0  0  0  0  0  0  0  0  0  0  0  0
   16.9873   -9.4516  -16.0670 C   0  0  2  0  0  0  0  0  0  0  0  0
   17.1937  -10.8722  -15.7342 N   0  0  0  0  0  0  0  0  0  0  0  0
   18.0353   -8.6143  -15.4595 C   0  0  0  0  0  0  0  0  0  0  0  0
   18.3886   -8.8048  -14.2602 O   0  0  0  0  0  0  0  0  0  0  0  0
   21.7082   -7.3610  -13.7507 N   0  0  0  0  0  0  0  0  0  0  0  0
   22.0627   -7.5113  -15.1300 C   0  0  0  0  0  0  0  0  0  0  0  0
   23.2093   -7.9022  -15.4037 O   0  0  0  0  0  0  0  0  0  0  0  0
   21.0877   -7.2076  -16.1745 C   0  0  0  0  0  0  0  0  0  0  0  0
   19.7827   -6.7933  -15.5907 C   0  0  2  0  0  0  0  0  0  0  0  0
   18.6809   -7.5895  -16.1565 N   0  0  0  0  0  0  0  0  0  0  0  0
   19.4826   -5.4019  -15.9416 C   0  0  0  0  0  0  0  0  0  0  0  0
   19.0826   -5.1290  -17.1206 O   0  0  0  0  0  0  0  0  0  0  0  0
   19.5982   -4.3460  -15.0897 O   0  0  0  0  0  0  0  0  0  0  0  0
  1  2  1  0
  2  3  1  0
  3  4  1  6
  5  3  1  0
  5  6  1  1
  7  5  1  0
  7 11  1  0
  8  7  2  0
 10 11  1  0
 10 12  1  0
 10  9  1  1
 12 19  1  0
 13 12  2  0
 15 14  1  0
 16 15  2  0
 17 15  1  0
 18 17  1  6
 19 18  1  0
 20 22  1  0
 20 18  1  0
 21 20  2  0
M  END
$$$$
