IAN.pdb
     RDKit          3D

 22 21  0  0  1  0  0  0  0  0999 V2000
   17.5235  -15.9846  -16.9441 C   0  0  0  0  0  0  0  0  0  0  0  0
   17.3949  -14.9395  -15.8212 C   0  0  0  0  0  0  0  0  0  0  0  0
   17.9893  -13.6865  -16.3600 C   0  0  2  0  0  0  0  0  0  0  0  0
   19.3507  -13.9512  -16.9154 C   0  0  0  0  0  0  0  0  0  0  0  0
   17.9296  -12.4912  -15.4443 C   0  0  2  0  0  0  0  0  0  0  0  0
   16.4861  -12.2540  -15.2477 N   0  0  0  0  0  0  0  0  0  0  0  0
   18.4684  -11.2545  -16.0450 C   0  0  0  0  0  0  0  0  0  0  0  0
   19.7004  -11.0749  -16.2965 O   0  0  0  0  0  0  0  0  0  0  0  0
   17.0276   -8.1224  -17.5238 C   0  0  0  0  0  0  0  0  0  0  0  0
   18.1444   -8.8941  -16.8474 C   0  0  2  0  0  0  0  0  0  0  0  0
   17.6008  -10.1807  -16.3778 N   0  0  0  0  0  0  0  0  0  0  0  0
   18.7328   -8.1357  -15.7307 C   0  0  0  0  0  0  0  0  0  0  0  0
   18.2787   -8.2713  -14.5582 O   0  0  0  0  0  0  0  0  0  0  0  0
   21.5108   -4.8856  -12.8879 N   0  0  0  0  0  0  0  0  0  0  0  0
   22.2715   -5.1233  -14.0777 C   0  0  0  0  0  0  0  0  0  0  0  0
   23.4066   -4.6260  -14.1596 O   0  0  0  0  0  0  0  0  0  0  0  0
   21.7103   -5.9320  -15.1570 C   0  0  0  0  0  0  0  0  0  0  0  0
   20.3494   -6.4251  -14.8103 C   0  0  2  0  0  0  0  0  0  0  0  0
   19.7983   -7.2475  -15.9002 N   0  0  0  0  0  0  0  0  0  0  0  0
   19.4204   -5.3013  -14.6576 C   0  0  0  0  0  0  0  0  0  0  0  0
   19.0272   -4.6727  -15.6943 O   0  0  0  0  0  0  0  0  0  0  0  0
   18.9276   -4.8598  -13.4676 O   0  0  0  0  0  0  0  0  0  0  0  0
  1  2  1  0
  2  3  1  0
  3  4  1  1
  5  3  1  0
  5  6  1  6
  7  5  1  0
  7 11  1  0
  8  7  2  0
 10 11  1  0
 10 12  1  0
 10  9  1  1
 12 19  1  0
 13 12  2  0
 15 14  1  0
 16 15  2  0
 17 15  1  0
 18 17  1  6
 19 18  1  0
 20 22  1  0
 20 18  1  0
 21 20  2  0
M  END
$$$$
