IAN.pdb
     RDKit          3D

 22 21  0  0  1  0  0  0  0  0999 V2000
   29.3239  -14.7735  -17.5940 C   0  0  0  0  0  0  0  0  0  0  0  0
   28.0147  -14.1378  -17.0922 C   0  0  0  0  0  0  0  0  0  0  0  0
   28.3426  -12.7206  -16.7803 C   0  0  2  0  0  0  0  0  0  0  0  0
   28.9557  -12.6132  -15.4222 C   0  0  0  0  0  0  0  0  0  0  0  0
   27.2369  -11.7268  -17.0271 C   0  0  2  0  0  0  0  0  0  0  0  0
   26.8716  -11.9317  -18.4424 N   0  0  0  0  0  0  0  0  0  0  0  0
   27.6675  -10.3187  -16.9163 C   0  0  0  0  0  0  0  0  0  0  0  0
   28.7933   -9.9633  -16.4477 O   0  0  0  0  0  0  0  0  0  0  0  0
   28.5802   -7.8658  -18.2265 C   0  0  0  0  0  0  0  0  0  0  0  0
   27.3002   -7.8817  -17.4131 C   0  0  2  0  0  0  0  0  0  0  0  0
   26.8112   -9.2701  -17.3450 N   0  0  0  0  0  0  0  0  0  0  0  0
   26.2766   -6.9940  -17.9897 C   0  0  0  0  0  0  0  0  0  0  0  0
   26.4389   -5.7399  -17.9764 O   0  0  0  0  0  0  0  0  0  0  0  0
   21.4609   -5.4272  -18.1796 N   0  0  0  0  0  0  0  0  0  0  0  0
   22.2118   -5.7073  -16.9928 C   0  0  0  0  0  0  0  0  0  0  0  0
   21.7437   -5.3449  -15.9010 O   0  0  0  0  0  0  0  0  0  0  0  0
   23.4936   -6.4020  -17.0835 C   0  0  0  0  0  0  0  0  0  0  0  0
   23.8096   -6.7702  -18.4906 C   0  0  2  0  0  0  0  0  0  0  0  0
   25.0996   -7.4758  -18.5690 N   0  0  0  0  0  0  0  0  0  0  0  0
   23.9695   -5.5665  -19.3120 C   0  0  0  0  0  0  0  0  0  0  0  0
   24.8371   -4.6947  -18.9776 O   0  0  0  0  0  0  0  0  0  0  0  0
   23.2488   -5.2933  -20.4345 O   0  0  0  0  0  0  0  0  0  0  0  0
  1  2  1  0
  2  3  1  0
  3  4  1  1
  5  3  1  0
  5  6  1  6
  7  5  1  0
  7 11  1  0
  8  7  2  0
 10 11  1  0
 10 12  1  0
 10  9  1  6
 12 19  1  0
 13 12  2  0
 15 14  1  0
 16 15  2  0
 17 15  1  0
 18 17  1  1
 19 18  1  0
 20 22  1  0
 20 18  1  0
 21 20  2  0
M  END
$$$$
