SDQ.pdb
     RDKit          3D

 24 23  0  0  1  0  0  0  0  0999 V2000
   11.8795   -9.3147   -9.2521 O   0  0  0  0  0  0  0  0  0  0  0  0
   13.0729   -9.5488   -9.8882 C   0  0  0  0  0  0  0  0  0  0  0  0
   12.9781  -10.4242  -11.0947 C   0  0  2  0  0  0  0  0  0  0  0  0
   12.6395  -11.7680  -10.6310 N   0  0  0  0  0  0  0  0  0  0  0  0
   14.1820  -10.4782  -11.9250 C   0  0  0  0  0  0  0  0  0  0  0  0
   15.1350  -11.2271  -11.5649 O   0  0  0  0  0  0  0  0  0  0  0  0
   14.3777   -9.7587  -13.1118 N   0  0  0  0  0  0  0  0  0  0  0  0
   15.6119   -9.8860  -13.8936 C   0  0  1  0  0  0  0  0  0  0  0  0
   15.2959  -10.3170  -15.2847 C   0  0  0  0  0  0  0  0  0  0  0  0
   14.8667  -11.7018  -15.3962 C   0  0  0  0  0  0  0  0  0  0  0  0
   13.8195  -12.0272  -15.9734 O   0  0  0  0  0  0  0  0  0  0  0  0
   16.2817   -8.5866  -13.7574 C   0  0  0  0  0  0  0  0  0  0  0  0
   15.6137   -7.5393  -13.6888 O   0  0  0  0  0  0  0  0  0  0  0  0
   15.6524  -12.7020  -14.8388 O   0  0  0  0  0  0  0  0  0  0  0  0
   22.5076   -7.1266  -12.8645 N   0  0  0  0  0  0  0  0  0  0  0  0
   21.9156   -5.8705  -13.1288 C   0  0  0  0  0  0  0  0  0  0  0  0
   22.6164   -4.8403  -13.0929 O   0  0  0  0  0  0  0  0  0  0  0  0
   20.4808   -5.8027  -13.4405 C   0  0  0  0  0  0  0  0  0  0  0  0
   19.7575   -7.1181  -13.3937 C   0  0  0  0  0  0  0  0  0  0  0  0
   18.2929   -7.0462  -13.7017 C   0  0  2  0  0  0  0  0  0  0  0  0
   17.7018   -8.3999  -13.6928 N   0  0  0  0  0  0  0  0  0  0  0  0
   17.9917   -6.3717  -14.9836 C   0  0  0  0  0  0  0  0  0  0  0  0
   17.7857   -4.9951  -14.9734 O   0  0  0  0  0  0  0  0  0  0  0  0
   17.9050   -6.9438  -16.0956 O   0  0  0  0  0  0  0  0  0  0  0  0
  2  3  1  0
  2  1  1  0
  3  4  1  1
  5  3  1  0
  6  5  2  0
  7  5  1  0
  8 12  1  0
  8  7  1  0
  8  9  1  6
 10  9  1  0
 10 11  2  0
 12 21  1  0
 13 12  2  0
 14 10  1  0
 16 18  1  0
 16 15  1  0
 17 16  2  0
 20 19  1  6
 19 18  1  0
 20 22  1  0
 21 20  1  0
 22 24  2  0
 22 23  1  0
M  END
$$$$
