SDQ.pdb
     RDKit          3D

 24 23  0  0  1  0  0  0  0  0999 V2000
   14.5708  -10.5930  -16.5367 O   0  0  0  0  0  0  0  0  0  0  0  0
   15.1220  -10.1748  -15.3514 C   0  0  0  0  0  0  0  0  0  0  0  0
   16.5236  -10.6341  -15.1163 C   0  0  2  0  0  0  0  0  0  0  0  0
   16.4755  -12.0767  -14.8876 N   0  0  0  0  0  0  0  0  0  0  0  0
   17.2179   -9.9820  -14.0053 C   0  0  0  0  0  0  0  0  0  0  0  0
   17.3211  -10.5999  -12.9070 O   0  0  0  0  0  0  0  0  0  0  0  0
   17.7935   -8.7048  -14.0506 N   0  0  0  0  0  0  0  0  0  0  0  0
   18.4400   -8.1106  -12.8761 C   0  0  1  0  0  0  0  0  0  0  0  0
   19.5476   -7.2088  -13.3014 C   0  0  0  0  0  0  0  0  0  0  0  0
   20.6605   -7.8927  -13.9401 C   0  0  0  0  0  0  0  0  0  0  0  0
   21.4257   -8.6411  -13.3153 O   0  0  0  0  0  0  0  0  0  0  0  0
   17.3491   -7.4808  -12.1219 C   0  0  0  0  0  0  0  0  0  0  0  0
   16.5098   -6.7712  -12.7047 O   0  0  0  0  0  0  0  0  0  0  0  0
   20.8813   -7.7063  -15.2984 O   0  0  0  0  0  0  0  0  0  0  0  0
   13.2763   -9.5467   -8.1228 N   0  0  0  0  0  0  0  0  0  0  0  0
   13.0769   -8.1577   -7.9515 C   0  0  0  0  0  0  0  0  0  0  0  0
   12.1334   -7.7543   -7.2439 O   0  0  0  0  0  0  0  0  0  0  0  0
   13.9875   -7.2131   -8.6141 C   0  0  0  0  0  0  0  0  0  0  0  0
   15.1380   -7.8452   -9.3438 C   0  0  0  0  0  0  0  0  0  0  0  0
   16.0631   -6.8814  -10.0223 C   0  0  2  0  0  0  0  0  0  0  0  0
   17.1485   -7.6118  -10.7082 N   0  0  0  0  0  0  0  0  0  0  0  0
   16.6347   -5.8686   -9.1078 C   0  0  0  0  0  0  0  0  0  0  0  0
   15.8805   -4.7333   -8.8249 O   0  0  0  0  0  0  0  0  0  0  0  0
   17.7583   -5.9473   -8.5576 O   0  0  0  0  0  0  0  0  0  0  0  0
  2  3  1  0
  2  1  1  0
  3  4  1  1
  5  3  1  0
  6  5  2  0
  7  5  1  0
  8 12  1  0
  8  7  1  0
  8  9  1  6
 10  9  1  0
 10 11  2  0
 12 21  1  0
 13 12  2  0
 14 10  1  0
 16 18  1  0
 16 15  1  0
 17 16  2  0
 20 19  1  1
 19 18  1  0
 20 22  1  0
 21 20  1  0
 22 24  2  0
 22 23  1  0
M  END
$$$$
