SDQ.pdb
     RDKit          3D

 24 23  0  0  1  0  0  0  0  0999 V2000
   15.1930  -10.4378  -14.6863 O   0  0  0  0  0  0  0  0  0  0  0  0
   16.2236   -9.6764  -15.1782 C   0  0  0  0  0  0  0  0  0  0  0  0
   15.7987   -8.4486  -15.9148 C   0  0  2  0  0  0  0  0  0  0  0  0
   15.2686   -8.8786  -17.2069 N   0  0  0  0  0  0  0  0  0  0  0  0
   16.8466   -7.4479  -16.1204 C   0  0  0  0  0  0  0  0  0  0  0  0
   17.7260   -7.6620  -17.0034 O   0  0  0  0  0  0  0  0  0  0  0  0
   16.9651   -6.2448  -15.4111 N   0  0  0  0  0  0  0  0  0  0  0  0
   18.0451   -5.2922  -15.6879 C   0  0  1  0  0  0  0  0  0  0  0  0
   17.6115   -3.9096  -15.3396 C   0  0  0  0  0  0  0  0  0  0  0  0
   16.5670   -3.3784  -16.2006 C   0  0  0  0  0  0  0  0  0  0  0  0
   15.4920   -2.9531  -15.7542 O   0  0  0  0  0  0  0  0  0  0  0  0
   19.2042   -5.8096  -14.9501 C   0  0  0  0  0  0  0  0  0  0  0  0
   19.1150   -6.0602  -13.7348 O   0  0  0  0  0  0  0  0  0  0  0  0
   16.7732   -3.3424  -17.5735 O   0  0  0  0  0  0  0  0  0  0  0  0
   25.5253   -9.7199  -15.0320 N   0  0  0  0  0  0  0  0  0  0  0  0
   24.3931   -9.1056  -15.6143 C   0  0  0  0  0  0  0  0  0  0  0  0
   24.0483   -9.4206  -16.7698 O   0  0  0  0  0  0  0  0  0  0  0  0
   23.6428   -8.1032  -14.8443 C   0  0  0  0  0  0  0  0  0  0  0  0
   22.4631   -7.5067  -15.5572 C   0  0  0  0  0  0  0  0  0  0  0  0
   21.5897   -6.6306  -14.7119 C   0  0  2  0  0  0  0  0  0  0  0  0
   20.4926   -6.0664  -15.5245 N   0  0  0  0  0  0  0  0  0  0  0  0
   22.3264   -5.5424  -14.0322 C   0  0  0  0  0  0  0  0  0  0  0  0
   22.8790   -5.7998  -12.7809 O   0  0  0  0  0  0  0  0  0  0  0  0
   22.4977   -4.3901  -14.4951 O   0  0  0  0  0  0  0  0  0  0  0  0
  2  3  1  0
  2  1  1  0
  3  4  1  6
  5  3  1  0
  6  5  2  0
  7  5  1  0
  8 12  1  0
  8  7  1  0
  8  9  1  1
 10  9  1  0
 10 11  2  0
 12 21  1  0
 13 12  2  0
 14 10  1  0
 16 18  1  0
 16 15  1  0
 17 16  2  0
 20 19  1  6
 19 18  1  0
 20 22  1  0
 21 20  1  0
 22 24  2  0
 22 23  1  0
M  END
$$$$
