SDQ.pdb
     RDKit          3D

 24 23  0  0  1  0  0  0  0  0999 V2000
   16.2548  -12.7979  -10.2803 O   0  0  0  0  0  0  0  0  0  0  0  0
   16.2524  -11.4469  -10.5223 C   0  0  0  0  0  0  0  0  0  0  0  0
   15.0512  -10.7215  -10.0108 C   0  0  2  0  0  0  0  0  0  0  0  0
   13.8867  -11.2642  -10.7072 N   0  0  0  0  0  0  0  0  0  0  0  0
   15.0850   -9.2668  -10.1670 C   0  0  0  0  0  0  0  0  0  0  0  0
   14.6593   -8.7616  -11.2451 O   0  0  0  0  0  0  0  0  0  0  0  0
   15.5565   -8.3619   -9.2060 N   0  0  0  0  0  0  0  0  0  0  0  0
   15.5107   -6.9128   -9.4265 C   0  0  1  0  0  0  0  0  0  0  0  0
   15.0765   -6.2180   -8.1817 C   0  0  0  0  0  0  0  0  0  0  0  0
   15.0181   -4.7697   -8.2975 C   0  0  0  0  0  0  0  0  0  0  0  0
   15.2862   -4.1773   -9.3525 O   0  0  0  0  0  0  0  0  0  0  0  0
   16.8459   -6.5641   -9.9276 C   0  0  0  0  0  0  0  0  0  0  0  0
   17.8492   -6.7293   -9.2108 O   0  0  0  0  0  0  0  0  0  0  0  0
   14.6496   -4.0155   -7.1912 O   0  0  0  0  0  0  0  0  0  0  0  0
   20.3297   -9.3408  -13.2506 N   0  0  0  0  0  0  0  0  0  0  0  0
   21.0909   -8.1498  -13.2708 C   0  0  0  0  0  0  0  0  0  0  0  0
   22.2537   -8.1704  -13.7191 O   0  0  0  0  0  0  0  0  0  0  0  0
   20.4955   -6.9068  -12.7601 C   0  0  0  0  0  0  0  0  0  0  0  0
   19.0940   -7.0414  -12.2374 C   0  0  0  0  0  0  0  0  0  0  0  0
   18.5038   -5.7831  -11.6777 C   0  0  2  0  0  0  0  0  0  0  0  0
   17.1176   -6.0248  -11.2280 N   0  0  0  0  0  0  0  0  0  0  0  0
   18.5376   -4.6444  -12.6217 C   0  0  0  0  0  0  0  0  0  0  0  0
   19.7501   -3.9925  -12.8273 O   0  0  0  0  0  0  0  0  0  0  0  0
   17.5514   -4.2102  -13.2621 O   0  0  0  0  0  0  0  0  0  0  0  0
  2  3  1  0
  2  1  1  0
  3  4  1  6
  5  3  1  0
  6  5  2  0
  7  5  1  0
  8 12  1  0
  8  7  1  0
  8  9  1  1
 10  9  1  0
 10 11  2  0
 12 21  1  0
 13 12  2  0
 14 10  1  0
 16 18  1  0
 16 15  1  0
 17 16  2  0
 20 19  1  6
 19 18  1  0
 20 22  1  0
 21 20  1  0
 22 24  2  0
 22 23  1  0
M  END
$$$$
