SDQ.pdb
     RDKit          3D

 24 23  0  0  1  0  0  0  0  0999 V2000
   17.3307  -14.9216  -14.1198 O   0  0  0  0  0  0  0  0  0  0  0  0
   17.7125  -13.6766  -14.5532 C   0  0  0  0  0  0  0  0  0  0  0  0
   17.9499  -13.5713  -16.0240 C   0  0  2  0  0  0  0  0  0  0  0  0
   19.1769  -14.3079  -16.3199 N   0  0  0  0  0  0  0  0  0  0  0  0
   18.0560  -12.2078  -16.5449 C   0  0  0  0  0  0  0  0  0  0  0  0
   19.1989  -11.7613  -16.8499 O   0  0  0  0  0  0  0  0  0  0  0  0
   16.9792  -11.3324  -16.7420 N   0  0  0  0  0  0  0  0  0  0  0  0
   17.1669  -10.0037  -17.3337 C   0  0  1  0  0  0  0  0  0  0  0  0
   15.9337   -9.5863  -18.0588 C   0  0  0  0  0  0  0  0  0  0  0  0
   15.6431  -10.3769  -19.2440 C   0  0  0  0  0  0  0  0  0  0  0  0
   14.6548  -11.1209  -19.3191 O   0  0  0  0  0  0  0  0  0  0  0  0
   17.5790   -9.1464  -16.2154 C   0  0  0  0  0  0  0  0  0  0  0  0
   17.0952   -9.3160  -15.0819 O   0  0  0  0  0  0  0  0  0  0  0  0
   16.4983  -10.3018  -20.3356 O   0  0  0  0  0  0  0  0  0  0  0  0
   23.0060   -5.9442  -15.4098 N   0  0  0  0  0  0  0  0  0  0  0  0
   22.2471   -5.5143  -14.2973 C   0  0  0  0  0  0  0  0  0  0  0  0
   22.7516   -4.7227  -13.4773 O   0  0  0  0  0  0  0  0  0  0  0  0
   20.8743   -6.0115  -14.1275 C   0  0  0  0  0  0  0  0  0  0  0  0
   20.3772   -6.8958  -15.2350 C   0  0  0  0  0  0  0  0  0  0  0  0
   18.9455   -7.3202  -15.1115 C   0  0  2  0  0  0  0  0  0  0  0  0
   18.5326   -8.0798  -16.3092 N   0  0  0  0  0  0  0  0  0  0  0  0
   18.0138   -6.1942  -14.8811 C   0  0  0  0  0  0  0  0  0  0  0  0
   17.7993   -5.7714  -13.5724 O   0  0  0  0  0  0  0  0  0  0  0  0
   17.3915   -5.5791  -15.7787 O   0  0  0  0  0  0  0  0  0  0  0  0
  2  3  1  0
  2  1  1  0
  3  4  1  1
  5  3  1  0
  6  5  2  0
  7  5  1  0
  8 12  1  0
  8  7  1  0
  8  9  1  1
 10  9  1  0
 10 11  2  0
 12 21  1  0
 13 12  2  0
 14 10  1  0
 16 18  1  0
 16 15  1  0
 17 16  2  0
 20 19  1  6
 19 18  1  0
 20 22  1  0
 21 20  1  0
 22 24  2  0
 22 23  1  0
M  END
$$$$
