SDQ.pdb
     RDKit          3D

 24 23  0  0  1  0  0  0  0  0999 V2000
   16.8273  -12.5247  -10.4866 O   0  0  0  0  0  0  0  0  0  0  0  0
   16.6989  -11.1634  -10.6054 C   0  0  0  0  0  0  0  0  0  0  0  0
   15.3785  -10.6187  -10.1689 C   0  0  2  0  0  0  0  0  0  0  0  0
   14.3567  -11.2184  -11.0245 N   0  0  0  0  0  0  0  0  0  0  0  0
   15.2594   -9.1606  -10.2070 C   0  0  0  0  0  0  0  0  0  0  0  0
   14.8860   -8.6096  -11.2821 O   0  0  0  0  0  0  0  0  0  0  0  0
   15.5269   -8.2999   -9.1336 N   0  0  0  0  0  0  0  0  0  0  0  0
   15.3781   -6.8463   -9.2579 C   0  0  1  0  0  0  0  0  0  0  0  0
   14.8641   -6.2723   -7.9824 C   0  0  0  0  0  0  0  0  0  0  0  0
   14.6996   -4.8277   -8.0029 C   0  0  0  0  0  0  0  0  0  0  0  0
   14.9635   -4.1161   -7.0233 O   0  0  0  0  0  0  0  0  0  0  0  0
   16.6949   -6.3674   -9.6963 C   0  0  0  0  0  0  0  0  0  0  0  0
   17.7281   -6.7559   -9.1225 O   0  0  0  0  0  0  0  0  0  0  0  0
   14.2303   -4.2151   -9.1576 O   0  0  0  0  0  0  0  0  0  0  0  0
   19.9419   -8.8085  -12.9656 N   0  0  0  0  0  0  0  0  0  0  0  0
   20.7200   -7.6308  -13.0416 C   0  0  0  0  0  0  0  0  0  0  0  0
   21.8540   -7.6748  -13.5570 O   0  0  0  0  0  0  0  0  0  0  0  0
   20.1760   -6.3735  -12.5087 C   0  0  0  0  0  0  0  0  0  0  0  0
   18.8839   -6.5091  -11.7552 C   0  0  0  0  0  0  0  0  0  0  0  0
   18.2716   -5.2155  -11.3115 C   0  0  2  0  0  0  0  0  0  0  0  0
   16.9150   -5.4496  -10.7757 N   0  0  0  0  0  0  0  0  0  0  0  0
   18.2244   -4.1889  -12.3758 C   0  0  0  0  0  0  0  0  0  0  0  0
   19.3670   -3.4301  -12.6129 O   0  0  0  0  0  0  0  0  0  0  0  0
   17.2270   -3.9407  -13.0934 O   0  0  0  0  0  0  0  0  0  0  0  0
  2  3  1  0
  2  1  1  0
  3  4  1  6
  5  3  1  0
  6  5  2  0
  7  5  1  0
  8 12  1  0
  8  7  1  0
  8  9  1  1
 10  9  1  0
 10 11  2  0
 12 21  1  0
 13 12  2  0
 14 10  1  0
 16 18  1  0
 16 15  1  0
 17 16  2  0
 20 19  1  6
 19 18  1  0
 20 22  1  0
 21 20  1  0
 22 24  2  0
 22 23  1  0
M  END
$$$$
