SDQ.pdb
     RDKit          3D

 24 23  0  0  1  0  0  0  0  0999 V2000
   15.9720  -12.8785  -10.4718 O   0  0  0  0  0  0  0  0  0  0  0  0
   16.0359  -11.5323  -10.7311 C   0  0  0  0  0  0  0  0  0  0  0  0
   14.9608  -10.7192  -10.0876 C   0  0  2  0  0  0  0  0  0  0  0  0
   13.6850  -11.1736  -10.6365 N   0  0  0  0  0  0  0  0  0  0  0  0
   15.0836   -9.2710  -10.2597 C   0  0  0  0  0  0  0  0  0  0  0  0
   14.5764   -8.7363  -11.2871 O   0  0  0  0  0  0  0  0  0  0  0  0
   15.7264   -8.4031   -9.3664 N   0  0  0  0  0  0  0  0  0  0  0  0
   15.8444   -6.9671   -9.6400 C   0  0  1  0  0  0  0  0  0  0  0  0
   15.4961   -6.1825   -8.4219 C   0  0  0  0  0  0  0  0  0  0  0  0
   15.5894   -4.7418   -8.5946 C   0  0  0  0  0  0  0  0  0  0  0  0
   15.9291   -4.2230   -9.6676 O   0  0  0  0  0  0  0  0  0  0  0  0
   17.2087   -6.7906  -10.1527 C   0  0  0  0  0  0  0  0  0  0  0  0
   18.1885   -7.1062   -9.4540 O   0  0  0  0  0  0  0  0  0  0  0  0
   15.2889   -3.9098   -7.5241 O   0  0  0  0  0  0  0  0  0  0  0  0
   20.2505   -9.8316  -13.7526 N   0  0  0  0  0  0  0  0  0  0  0  0
   21.1971   -8.7922  -13.6044 C   0  0  0  0  0  0  0  0  0  0  0  0
   22.3792   -8.9826  -13.9509 O   0  0  0  0  0  0  0  0  0  0  0  0
   20.7685   -7.5037  -13.0416 C   0  0  0  0  0  0  0  0  0  0  0  0
   19.3459   -7.4615  -12.5622 C   0  0  0  0  0  0  0  0  0  0  0  0
   18.9390   -6.1802  -11.9005 C   0  0  2  0  0  0  0  0  0  0  0  0
   17.5362   -6.2632  -11.4452 N   0  0  0  0  0  0  0  0  0  0  0  0
   19.1222   -4.9887  -12.7583 C   0  0  0  0  0  0  0  0  0  0  0  0
   20.4030   -4.4597  -12.8894 O   0  0  0  0  0  0  0  0  0  0  0  0
   18.2074   -4.4061  -13.3868 O   0  0  0  0  0  0  0  0  0  0  0  0
  2  3  1  0
  2  1  1  0
  3  4  1  6
  5  3  1  0
  6  5  2  0
  7  5  1  0
  8 12  1  0
  8  7  1  0
  8  9  1  1
 10  9  1  0
 10 11  2  0
 12 21  1  0
 13 12  2  0
 14 10  1  0
 16 18  1  0
 16 15  1  0
 17 16  2  0
 20 19  1  6
 19 18  1  0
 20 22  1  0
 21 20  1  0
 22 24  2  0
 22 23  1  0
M  END
$$$$
