SDQ.pdb
     RDKit          3D

 24 23  0  0  1  0  0  0  0  0999 V2000
   16.7558  -13.6596  -16.5208 O   0  0  0  0  0  0  0  0  0  0  0  0
   16.8438  -12.3100  -16.7547 C   0  0  0  0  0  0  0  0  0  0  0  0
   18.0902  -11.6659  -16.2424 C   0  0  2  0  0  0  0  0  0  0  0  0
   18.2414  -12.0630  -14.8441 N   0  0  0  0  0  0  0  0  0  0  0  0
   18.1292  -10.2067  -16.3472 C   0  0  0  0  0  0  0  0  0  0  0  0
   18.3175   -9.6842  -17.4831 O   0  0  0  0  0  0  0  0  0  0  0  0
   17.9715   -9.3155  -15.2770 N   0  0  0  0  0  0  0  0  0  0  0  0
   18.0501   -7.8635  -15.4676 C   0  0  1  0  0  0  0  0  0  0  0  0
   16.9413   -7.1893  -14.7349 C   0  0  0  0  0  0  0  0  0  0  0  0
   17.0384   -5.7386  -14.7115 C   0  0  0  0  0  0  0  0  0  0  0  0
   17.1345   -5.0973  -13.6553 O   0  0  0  0  0  0  0  0  0  0  0  0
   19.4111   -7.5008  -15.0535 C   0  0  0  0  0  0  0  0  0  0  0  0
   19.8914   -7.9594  -14.0015 O   0  0  0  0  0  0  0  0  0  0  0  0
   17.0238   -5.0387  -15.9108 O   0  0  0  0  0  0  0  0  0  0  0  0
   24.4258   -5.9651  -18.5721 N   0  0  0  0  0  0  0  0  0  0  0  0
   24.9403   -5.8591  -17.2597 C   0  0  0  0  0  0  0  0  0  0  0  0
   26.1613   -5.6741  -17.0906 O   0  0  0  0  0  0  0  0  0  0  0  0
   24.0234   -5.9708  -16.1163 C   0  0  0  0  0  0  0  0  0  0  0  0
   22.5829   -6.1962  -16.4766 C   0  0  0  0  0  0  0  0  0  0  0  0
   21.6561   -6.3538  -15.3099 C   0  0  2  0  0  0  0  0  0  0  0  0
   20.2827   -6.6254  -15.7813 N   0  0  0  0  0  0  0  0  0  0  0  0
   21.6557   -5.1911  -14.3949 C   0  0  0  0  0  0  0  0  0  0  0  0
   22.5313   -5.2017  -13.3129 O   0  0  0  0  0  0  0  0  0  0  0  0
   20.9223   -4.1815  -14.5135 O   0  0  0  0  0  0  0  0  0  0  0  0
  2  3  1  0
  2  1  1  0
  3  4  1  1
  5  3  1  0
  6  5  2  0
  7  5  1  0
  8 12  1  0
  8  7  1  0
  8  9  1  1
 10  9  1  0
 10 11  2  0
 12 21  1  0
 13 12  2  0
 14 10  1  0
 16 18  1  0
 16 15  1  0
 17 16  2  0
 20 19  1  6
 19 18  1  0
 20 22  1  0
 21 20  1  0
 22 24  2  0
 22 23  1  0
M  END
$$$$
