SDQ.pdb
     RDKit          3D

 24 23  0  0  1  0  0  0  0  0999 V2000
   27.7676  -24.9531  -17.8996 O   0  0  0  0  0  0  0  0  0  0  0  0
   27.1549  -23.9567  -17.1816 C   0  0  0  0  0  0  0  0  0  0  0  0
   27.2438  -22.5978  -17.7950 C   0  0  2  0  0  0  0  0  0  0  0  0
   28.6579  -22.2317  -17.8372 N   0  0  0  0  0  0  0  0  0  0  0  0
   26.4840  -21.5511  -17.1103 C   0  0  0  0  0  0  0  0  0  0  0  0
   27.1063  -20.5513  -16.6499 O   0  0  0  0  0  0  0  0  0  0  0  0
   25.0959  -21.5566  -16.9156 N   0  0  0  0  0  0  0  0  0  0  0  0
   24.4107  -20.4537  -16.2338 C   0  0  1  0  0  0  0  0  0  0  0  0
   23.3007  -19.9364  -17.0827 C   0  0  0  0  0  0  0  0  0  0  0  0
   22.5176  -18.8807  -16.4610 C   0  0  0  0  0  0  0  0  0  0  0  0
   23.0327  -17.8398  -16.0284 O   0  0  0  0  0  0  0  0  0  0  0  0
   24.0229  -20.9996  -14.9272 C   0  0  0  0  0  0  0  0  0  0  0  0
   23.0666  -21.7899  -14.8348 O   0  0  0  0  0  0  0  0  0  0  0  0
   21.1426  -19.0360  -16.3436 O   0  0  0  0  0  0  0  0  0  0  0  0
   24.8742  -20.7722   -7.4549 N   0  0  0  0  0  0  0  0  0  0  0  0
   25.1294  -20.3313   -8.7735 C   0  0  0  0  0  0  0  0  0  0  0  0
   25.9599  -19.4226   -8.9685 O   0  0  0  0  0  0  0  0  0  0  0  0
   24.4074  -20.9535   -9.8925 C   0  0  0  0  0  0  0  0  0  0  0  0
   24.8591  -20.5222  -11.2584 C   0  0  0  0  0  0  0  0  0  0  0  0
   24.0939  -21.1244  -12.3972 C   0  0  2  0  0  0  0  0  0  0  0  0
   24.6729  -20.6938  -13.6862 N   0  0  0  0  0  0  0  0  0  0  0  0
   22.6472  -20.8161  -12.3649 C   0  0  0  0  0  0  0  0  0  0  0  0
   21.7757  -21.7862  -11.8779 O   0  0  0  0  0  0  0  0  0  0  0  0
   22.1317  -19.7385  -12.7448 O   0  0  0  0  0  0  0  0  0  0  0  0
  2  3  1  0
  2  1  1  0
  3  4  1  1
  5  3  1  0
  6  5  2  0
  7  5  1  0
  8 12  1  0
  8  7  1  0
  8  9  1  6
 10  9  1  0
 10 11  2  0
 12 21  1  0
 13 12  2  0
 14 10  1  0
 16 18  1  0
 16 15  1  0
 17 16  2  0
 20 19  1  1
 19 18  1  0
 20 22  1  0
 21 20  1  0
 22 24  2  0
 22 23  1  0
M  END
$$$$
