SDQ.pdb
     RDKit          3D

 24 23  0  0  1  0  0  0  0  0999 V2000
   14.9614  -11.6872  -14.6163 O   0  0  0  0  0  0  0  0  0  0  0  0
   15.3275  -11.9179  -15.9188 C   0  0  0  0  0  0  0  0  0  0  0  0
   16.6858  -12.5148  -16.0909 C   0  0  2  0  0  0  0  0  0  0  0  0
   16.6221  -13.8890  -15.5977 N   0  0  0  0  0  0  0  0  0  0  0  0
   17.7729  -11.8005  -15.4203 C   0  0  0  0  0  0  0  0  0  0  0  0
   18.0886  -12.1407  -14.2442 O   0  0  0  0  0  0  0  0  0  0  0  0
   18.5138  -10.7495  -15.9782 N   0  0  0  0  0  0  0  0  0  0  0  0
   19.5954  -10.0930  -15.2367 C   0  0  1  0  0  0  0  0  0  0  0  0
   20.7714   -9.8794  -16.1266 C   0  0  0  0  0  0  0  0  0  0  0  0
   21.8856   -9.1974  -15.4880 C   0  0  0  0  0  0  0  0  0  0  0  0
   22.0788   -7.9799  -15.6150 O   0  0  0  0  0  0  0  0  0  0  0  0
   18.9860   -8.8827  -14.6714 C   0  0  0  0  0  0  0  0  0  0  0  0
   18.1562   -8.2304  -15.3299 O   0  0  0  0  0  0  0  0  0  0  0  0
   22.7698   -9.9289  -14.7058 O   0  0  0  0  0  0  0  0  0  0  0  0
   16.6154   -7.5906   -9.1554 N   0  0  0  0  0  0  0  0  0  0  0  0
   16.7418   -6.2781   -9.6650 C   0  0  0  0  0  0  0  0  0  0  0  0
   16.3036   -5.3167   -9.0039 O   0  0  0  0  0  0  0  0  0  0  0  0
   17.3880   -6.0718  -10.9689 C   0  0  0  0  0  0  0  0  0  0  0  0
   17.9268   -7.3160  -11.6150 C   0  0  0  0  0  0  0  0  0  0  0  0
   18.6522   -7.0945  -12.9073 C   0  0  2  0  0  0  0  0  0  0  0  0
   19.2698   -8.3546  -13.3690 N   0  0  0  0  0  0  0  0  0  0  0  0
   19.6745   -6.0275  -12.8350 C   0  0  0  0  0  0  0  0  0  0  0  0
   19.2456   -4.7047  -12.7740 O   0  0  0  0  0  0  0  0  0  0  0  0
   20.9136   -6.2167  -12.8239 O   0  0  0  0  0  0  0  0  0  0  0  0
  2  3  1  0
  2  1  1  0
  3  4  1  1
  5  3  1  0
  6  5  2  0
  7  5  1  0
  8 12  1  0
  8  7  1  0
  8  9  1  6
 10  9  1  0
 10 11  2  0
 12 21  1  0
 13 12  2  0
 14 10  1  0
 16 18  1  0
 16 15  1  0
 17 16  2  0
 20 19  1  1
 19 18  1  0
 20 22  1  0
 21 20  1  0
 22 24  2  0
 22 23  1  0
M  END
$$$$
