SDQ.pdb
     RDKit          3D

 24 23  0  0  1  0  0  0  0  0999 V2000
   17.1756  -13.1909  -11.1235 O   0  0  0  0  0  0  0  0  0  0  0  0
   17.0131  -11.8297  -11.0556 C   0  0  0  0  0  0  0  0  0  0  0  0
   15.5971  -11.3743  -10.9202 C   0  0  2  0  0  0  0  0  0  0  0  0
   14.8892  -11.7910  -12.1288 N   0  0  0  0  0  0  0  0  0  0  0  0
   15.4190   -9.9361  -10.7159 C   0  0  0  0  0  0  0  0  0  0  0  0
   15.2520   -9.1952  -11.7268 O   0  0  0  0  0  0  0  0  0  0  0  0
   15.4155   -9.2914   -9.4714 N   0  0  0  0  0  0  0  0  0  0  0  0
   15.0447   -7.8788   -9.3383 C   0  0  1  0  0  0  0  0  0  0  0  0
   14.2248   -7.6771   -8.1103 C   0  0  0  0  0  0  0  0  0  0  0  0
   12.8052   -7.9327   -8.2935 C   0  0  0  0  0  0  0  0  0  0  0  0
   12.1568   -7.4366   -9.2259 O   0  0  0  0  0  0  0  0  0  0  0  0
   16.3166   -7.1473   -9.3919 C   0  0  0  0  0  0  0  0  0  0  0  0
   17.2328   -7.4203   -8.5959 O   0  0  0  0  0  0  0  0  0  0  0  0
   12.1441   -8.7611   -7.3961 O   0  0  0  0  0  0  0  0  0  0  0  0
   20.7335   -7.1203  -13.0443 N   0  0  0  0  0  0  0  0  0  0  0  0
   21.1195   -5.9431  -12.3634 C   0  0  0  0  0  0  0  0  0  0  0  0
   22.2471   -5.4542  -12.5705 O   0  0  0  0  0  0  0  0  0  0  0  0
   20.1817   -5.3173  -11.4203 C   0  0  0  0  0  0  0  0  0  0  0  0
   18.8702   -6.0314  -11.2602 C   0  0  0  0  0  0  0  0  0  0  0  0
   17.9220   -5.4021  -10.2855 C   0  0  2  0  0  0  0  0  0  0  0  0
   16.6186   -6.0966  -10.3196 N   0  0  0  0  0  0  0  0  0  0  0  0
   17.7277   -3.9518  -10.5034 C   0  0  0  0  0  0  0  0  0  0  0  0
   18.7063   -3.0771  -10.0399 O   0  0  0  0  0  0  0  0  0  0  0  0
   16.7410   -3.4357  -11.0792 O   0  0  0  0  0  0  0  0  0  0  0  0
  2  3  1  0
  2  1  1  0
  3  4  1  6
  5  3  1  0
  6  5  2  0
  7  5  1  0
  8 12  1  0
  8  7  1  0
  8  9  1  1
 10  9  1  0
 10 11  2  0
 12 21  1  0
 13 12  2  0
 14 10  1  0
 16 18  1  0
 16 15  1  0
 17 16  2  0
 20 19  1  6
 19 18  1  0
 20 22  1  0
 21 20  1  0
 22 24  2  0
 22 23  1  0
M  END
$$$$
