SDQ.pdb
     RDKit          3D

 24 23  0  0  1  0  0  0  0  0999 V2000
   12.6590  -13.3948  -11.8709 O   0  0  0  0  0  0  0  0  0  0  0  0
   13.5537  -12.4189  -11.5093 C   0  0  0  0  0  0  0  0  0  0  0  0
   14.5755  -12.0904  -12.5480 C   0  0  2  0  0  0  0  0  0  0  0  0
   15.3293  -13.3129  -12.8179 N   0  0  0  0  0  0  0  0  0  0  0  0
   15.4982  -11.0095  -12.1985 C   0  0  0  0  0  0  0  0  0  0  0  0
   16.4050  -11.2366  -11.3472 O   0  0  0  0  0  0  0  0  0  0  0  0
   15.4673   -9.7155  -12.7363 N   0  0  0  0  0  0  0  0  0  0  0  0
   16.4628   -8.7047  -12.3652 C   0  0  1  0  0  0  0  0  0  0  0  0
   17.4309   -8.5045  -13.4802 C   0  0  0  0  0  0  0  0  0  0  0  0
   18.3728   -7.4182  -13.2635 C   0  0  0  0  0  0  0  0  0  0  0  0
   18.2584   -6.3193  -13.8249 O   0  0  0  0  0  0  0  0  0  0  0  0
   15.6782   -7.5273  -11.9731 C   0  0  0  0  0  0  0  0  0  0  0  0
   14.8366   -7.0448  -12.7520 O   0  0  0  0  0  0  0  0  0  0  0  0
   19.4418   -7.6102  -12.3981 O   0  0  0  0  0  0  0  0  0  0  0  0
   14.9106   -4.6130   -6.2856 N   0  0  0  0  0  0  0  0  0  0  0  0
   14.2055   -3.7751   -7.1795 C   0  0  0  0  0  0  0  0  0  0  0  0
   13.5600   -2.8060   -6.7348 O   0  0  0  0  0  0  0  0  0  0  0  0
   14.2459   -4.0642   -8.6201 C   0  0  0  0  0  0  0  0  0  0  0  0
   14.9683   -5.3265   -8.9948 C   0  0  0  0  0  0  0  0  0  0  0  0
   15.0778   -5.5793  -10.4676 C   0  0  2  0  0  0  0  0  0  0  0  0
   15.7950   -6.8466  -10.7166 N   0  0  0  0  0  0  0  0  0  0  0  0
   15.7282   -4.4766  -11.2091 C   0  0  0  0  0  0  0  0  0  0  0  0
   14.9283   -3.4483  -11.6996 O   0  0  0  0  0  0  0  0  0  0  0  0
   16.9577   -4.3883  -11.4367 O   0  0  0  0  0  0  0  0  0  0  0  0
  2  3  1  0
  2  1  1  0
  3  4  1  1
  5  3  1  0
  6  5  2  0
  7  5  1  0
  8 12  1  0
  8  7  1  0
  8  9  1  6
 10  9  1  0
 10 11  2  0
 12 21  1  0
 13 12  2  0
 14 10  1  0
 16 18  1  0
 16 15  1  0
 17 16  2  0
 20 19  1  1
 19 18  1  0
 20 22  1  0
 21 20  1  0
 22 24  2  0
 22 23  1  0
M  END
$$$$
