IDP.pdb
     RDKit          3D

 24 24  0  0  1  0  0  0  0  0999 V2000
   18.7107  -14.2344  -16.7343 C   0  0  0  0  0  0  0  0  0  0  0  0
   19.6475  -13.1127  -17.1634 C   0  0  0  0  0  0  0  0  0  0  0  0
   19.2590  -11.8145  -16.4986 C   0  0  2  0  0  0  0  0  0  0  0  0
   17.8103  -11.5557  -16.7928 C   0  0  0  0  0  0  0  0  0  0  0  0
   20.2041  -10.7410  -16.8847 C   0  0  2  0  0  0  0  0  0  0  0  0
   21.5960  -11.1202  -16.7126 N   0  0  0  0  0  0  0  0  0  0  0  0
   19.9693   -9.4167  -16.2795 C   0  0  0  0  0  0  0  0  0  0  0  0
   18.8278   -8.8752  -16.2172 O   0  0  0  0  0  0  0  0  0  0  0  0
   21.0651   -8.6858  -15.7287 N   0  0  0  0  0  0  0  0  0  0  0  0
   20.8563   -7.3313  -15.1384 C   0  0  1  0  0  0  0  0  0  0  0  0
   22.0511   -7.1536  -14.1913 C   0  0  0  0  0  0  0  0  0  0  0  0
   22.1163   -5.8471  -13.5594 C   0  0  0  0  0  0  0  0  0  0  0  0
   21.5234   -5.5875  -12.4550 O   0  0  0  0  0  0  0  0  0  0  0  0
   20.9396   -6.3748  -16.2576 C   0  0  0  0  0  0  0  0  0  0  0  0
   21.8416   -6.6498  -17.1460 O   0  0  0  0  0  0  0  0  0  0  0  0
   22.8407   -4.8212  -14.1476 O   0  0  0  0  0  0  0  0  0  0  0  0
   20.1487   -5.2248  -16.4491 N   0  0  0  0  0  0  0  0  0  0  0  0
   19.0765   -4.7799  -15.5726 C   0  0  0  0  0  0  0  0  0  0  0  0
   18.2897   -3.7369  -16.3454 C   0  0  0  0  0  0  0  0  0  0  0  0
   18.7401   -4.0080  -17.7896 C   0  0  0  0  0  0  0  0  0  0  0  0
   20.2272   -4.2715  -17.5120 C   0  0  1  0  0  0  0  0  0  0  0  0
   20.7332   -2.9481  -16.9620 C   0  0  0  0  0  0  0  0  0  0  0  0
   20.9394   -1.9823  -17.7356 O   0  0  0  0  0  0  0  0  0  0  0  0
   20.9769   -2.7726  -15.6127 O   0  0  0  0  0  0  0  0  0  0  0  0
  2  1  1  0
  3  2  1  0
  3  4  1  6
  5  3  1  0
  5  6  1  1
  7  5  1  0
  7  8  2  0
  9  7  1  0
 10  9  1  0
 10 11  1  1
 12 11  1  0
 13 12  2  0
 14 10  1  0
 15 14  2  0
 16 12  1  0
 17 14  1  0
 17 21  1  0
 18 17  1  0
 18 19  1  0
 19 20  1  0
 21 20  1  0
 22 24  1  0
 21 22  1  1
 23 22  2  0
M  END
$$$$
