IDP.pdb
     RDKit          3D

 24 24  0  0  1  0  0  0  0  0999 V2000
   11.4878  -13.6054  -11.5250 C   0  0  0  0  0  0  0  0  0  0  0  0
   12.8786  -13.4872  -10.9155 C   0  0  0  0  0  0  0  0  0  0  0  0
   13.0539  -12.1427  -10.2523 C   0  0  2  0  0  0  0  0  0  0  0  0
   11.7850  -11.8149   -9.5210 C   0  0  0  0  0  0  0  0  0  0  0  0
   13.5120  -11.1412  -11.2431 C   0  0  2  0  0  0  0  0  0  0  0  0
   14.6965  -11.5626  -11.9713 N   0  0  0  0  0  0  0  0  0  0  0  0
   13.6970   -9.7662  -10.7428 C   0  0  0  0  0  0  0  0  0  0  0  0
   12.8012   -9.1298  -10.1162 O   0  0  0  0  0  0  0  0  0  0  0  0
   14.9377   -9.0943  -10.9614 N   0  0  0  0  0  0  0  0  0  0  0  0
   15.1016   -7.6587  -10.5883 C   0  0  1  0  0  0  0  0  0  0  0  0
   15.9780   -7.7028   -9.3288 C   0  0  0  0  0  0  0  0  0  0  0  0
   16.3129   -6.3939   -8.7947 C   0  0  0  0  0  0  0  0  0  0  0  0
   15.4349   -5.4798   -8.6151 O   0  0  0  0  0  0  0  0  0  0  0  0
   15.8307   -7.0226  -11.7010 C   0  0  0  0  0  0  0  0  0  0  0  0
   16.7616   -7.7506  -12.2319 O   0  0  0  0  0  0  0  0  0  0  0  0
   17.6230   -6.0917   -8.4549 O   0  0  0  0  0  0  0  0  0  0  0  0
   15.6124   -5.7353  -12.2300 N   0  0  0  0  0  0  0  0  0  0  0  0
   14.6738   -4.7544  -11.7083 C   0  0  0  0  0  0  0  0  0  0  0  0
   14.5170   -3.6915  -12.7807 C   0  0  0  0  0  0  0  0  0  0  0  0
   15.0641   -4.4131  -14.0225 C   0  0  0  0  0  0  0  0  0  0  0  0
   16.2488   -5.1295  -13.3582 C   0  0  1  0  0  0  0  0  0  0  0  0
   17.1385   -3.9932  -12.8815 C   0  0  0  0  0  0  0  0  0  0  0  0
   17.1292   -3.6500  -11.6748 O   0  0  0  0  0  0  0  0  0  0  0  0
   17.9720   -3.3151  -13.7510 O   0  0  0  0  0  0  0  0  0  0  0  0
  2  1  1  0
  3  2  1  0
  3  4  1  6
  5  3  1  0
  5  6  1  1
  7  5  1  0
  7  8  2  0
  9  7  1  0
 10  9  1  0
 10 11  1  1
 12 11  1  0
 13 12  2  0
 14 10  1  0
 15 14  2  0
 16 12  1  0
 17 14  1  0
 17 21  1  0
 18 17  1  0
 18 19  1  0
 19 20  1  0
 21 20  1  0
 22 24  1  0
 21 22  1  1
 23 22  2  0
M  END
$$$$
