IDP.pdb
     RDKit          3D

 24 24  0  0  1  0  0  0  0  0999 V2000
   15.2673  -23.6319    2.3033 C   0  0  0  0  0  0  0  0  0  0  0  0
   15.2737  -22.1263    2.0731 C   0  0  0  0  0  0  0  0  0  0  0  0
   16.2075  -21.4459    3.0443 C   0  0  2  0  0  0  0  0  0  0  0  0
   15.7641  -21.7903    4.4360 C   0  0  0  0  0  0  0  0  0  0  0  0
   16.3055  -20.0013    2.7305 C   0  0  2  0  0  0  0  0  0  0  0  0
   16.5792  -19.7417    1.3275 N   0  0  0  0  0  0  0  0  0  0  0  0
   17.2241  -19.2121    3.5723 C   0  0  0  0  0  0  0  0  0  0  0  0
   18.4808  -19.2250    3.4282 O   0  0  0  0  0  0  0  0  0  0  0  0
   16.6983  -18.3834    4.6092 N   0  0  0  0  0  0  0  0  0  0  0  0
   17.6111  -17.6158    5.5062 C   0  0  1  0  0  0  0  0  0  0  0  0
   16.7138  -16.5169    6.0924 C   0  0  0  0  0  0  0  0  0  0  0  0
   17.4173  -15.5653    6.9351 C   0  0  0  0  0  0  0  0  0  0  0  0
   18.6596  -15.6859    7.2189 O   0  0  0  0  0  0  0  0  0  0  0  0
   18.0361  -18.5520    6.5633 C   0  0  0  0  0  0  0  0  0  0  0  0
   17.1489  -19.4331    6.9024 O   0  0  0  0  0  0  0  0  0  0  0  0
   16.7475  -14.4733    7.4665 O   0  0  0  0  0  0  0  0  0  0  0  0
   19.2836  -18.5809    7.2170 N   0  0  0  0  0  0  0  0  0  0  0  0
   20.3915  -17.6725    6.9659 C   0  0  0  0  0  0  0  0  0  0  0  0
   21.6157  -18.2921    7.6155 C   0  0  0  0  0  0  0  0  0  0  0  0
   21.1670  -19.7493    7.8085 C   0  0  0  0  0  0  0  0  0  0  0  0
   19.7184  -19.4795    8.2408 C   0  0  1  0  0  0  0  0  0  0  0  0
   19.8662  -18.7171    9.5473 C   0  0  0  0  0  0  0  0  0  0  0  0
   19.7436  -17.4686    9.5651 O   0  0  0  0  0  0  0  0  0  0  0  0
   20.1354  -19.3677   10.7367 O   0  0  0  0  0  0  0  0  0  0  0  0
  2  1  1  0
  3  2  1  0
  3  4  1  1
  5  3  1  0
  5  6  1  6
  7  5  1  0
  7  8  2  0
  9  7  1  0
 10  9  1  0
 10 11  1  1
 12 11  1  0
 13 12  2  0
 14 10  1  0
 15 14  2  0
 16 12  1  0
 17 14  1  0
 17 21  1  0
 18 17  1  0
 18 19  1  0
 19 20  1  0
 21 20  1  0
 22 24  1  0
 21 22  1  1
 23 22  2  0
M  END
$$$$
