IDP.pdb
     RDKit          3D

 24 24  0  0  1  0  0  0  0  0999 V2000
   27.9746  -11.8935  -15.8873 C   0  0  0  0  0  0  0  0  0  0  0  0
   26.5145  -12.2958  -16.0486 C   0  0  0  0  0  0  0  0  0  0  0  0
   25.6581  -11.0834  -16.3222 C   0  0  2  0  0  0  0  0  0  0  0  0
   25.8449  -10.1159  -15.1902 C   0  0  0  0  0  0  0  0  0  0  0  0
   24.2633  -11.4969  -16.6023 C   0  0  2  0  0  0  0  0  0  0  0  0
   24.1731  -12.5629  -17.5853 N   0  0  0  0  0  0  0  0  0  0  0  0
   23.3203  -10.4173  -16.9492 C   0  0  0  0  0  0  0  0  0  0  0  0
   23.2808   -9.8708  -18.0894 O   0  0  0  0  0  0  0  0  0  0  0  0
   22.3945   -9.9446  -15.9706 N   0  0  0  0  0  0  0  0  0  0  0  0
   21.4045   -8.8810  -16.3108 C   0  0  1  0  0  0  0  0  0  0  0  0
   20.0935   -9.3863  -15.6927 C   0  0  0  0  0  0  0  0  0  0  0  0
   19.5532  -10.5708  -16.3372 C   0  0  0  0  0  0  0  0  0  0  0  0
   19.2470  -10.5979  -17.5798 O   0  0  0  0  0  0  0  0  0  0  0  0
   21.8594   -7.6576  -15.6247 C   0  0  0  0  0  0  0  0  0  0  0  0
   22.4212   -7.8528  -14.4738 O   0  0  0  0  0  0  0  0  0  0  0  0
   19.3509  -11.7329  -15.6078 O   0  0  0  0  0  0  0  0  0  0  0  0
   21.7484   -6.3335  -16.0928 N   0  0  0  0  0  0  0  0  0  0  0  0
   21.1589   -5.9309  -17.3601 C   0  0  0  0  0  0  0  0  0  0  0  0
   21.5788   -4.4913  -17.5954 C   0  0  0  0  0  0  0  0  0  0  0  0
   22.7599   -4.3441  -16.6231 C   0  0  0  0  0  0  0  0  0  0  0  0
   22.1747   -5.1332  -15.4429 C   0  0  1  0  0  0  0  0  0  0  0  0
   20.9547   -4.3237  -15.0350 C   0  0  0  0  0  0  0  0  0  0  0  0
   21.0863   -3.3088  -14.3093 O   0  0  0  0  0  0  0  0  0  0  0  0
   19.6832   -4.6768  -15.4463 O   0  0  0  0  0  0  0  0  0  0  0  0
  2  1  1  0
  3  2  1  0
  3  4  1  1
  5  3  1  0
  5  6  1  6
  7  5  1  0
  7  8  2  0
  9  7  1  0
 10  9  1  0
 10 11  1  1
 12 11  1  0
 13 12  2  0
 14 10  1  0
 15 14  2  0
 16 12  1  0
 17 14  1  0
 17 21  1  0
 18 17  1  0
 18 19  1  0
 19 20  1  0
 21 20  1  0
 22 24  1  0
 21 22  1  6
 23 22  2  0
M  END
$$$$
