IDP.pdb
     RDKit          3D

 24 24  0  0  1  0  0  0  0  0999 V2000
   16.3588  -14.4162  -18.2193 C   0  0  0  0  0  0  0  0  0  0  0  0
   17.4348  -13.9138  -17.2656 C   0  0  0  0  0  0  0  0  0  0  0  0
   17.2678  -12.4357  -17.0099 C   0  0  2  0  0  0  0  0  0  0  0  0
   17.2701  -11.7305  -18.3347 C   0  0  0  0  0  0  0  0  0  0  0  0
   18.2713  -11.9722  -16.0235 C   0  0  2  0  0  0  0  0  0  0  0  0
   18.2316  -12.7196  -14.7783 N   0  0  0  0  0  0  0  0  0  0  0  0
   18.2840  -10.5256  -15.7368 C   0  0  0  0  0  0  0  0  0  0  0  0
   18.5059   -9.6458  -16.6182 O   0  0  0  0  0  0  0  0  0  0  0  0
   18.0374  -10.0651  -14.4080 N   0  0  0  0  0  0  0  0  0  0  0  0
   18.0495   -8.6063  -14.0937 C   0  0  1  0  0  0  0  0  0  0  0  0
   17.2595   -8.5053  -12.7815 C   0  0  0  0  0  0  0  0  0  0  0  0
   17.3376   -7.2030  -12.1424 C   0  0  0  0  0  0  0  0  0  0  0  0
   17.1894   -6.1093  -12.7908 O   0  0  0  0  0  0  0  0  0  0  0  0
   19.4614   -8.2421  -13.8742 C   0  0  0  0  0  0  0  0  0  0  0  0
   20.1231   -9.0531  -13.1108 O   0  0  0  0  0  0  0  0  0  0  0  0
   17.5789   -7.1059  -10.7802 O   0  0  0  0  0  0  0  0  0  0  0  0
   20.1410   -7.1287  -14.4064 N   0  0  0  0  0  0  0  0  0  0  0  0
   19.5527   -6.1055  -15.2564 C   0  0  0  0  0  0  0  0  0  0  0  0
   20.7078   -5.3341  -15.8688 C   0  0  0  0  0  0  0  0  0  0  0  0
   21.8849   -6.2959  -15.6422 C   0  0  0  0  0  0  0  0  0  0  0  0
   21.5141   -6.7707  -14.2297 C   0  0  1  0  0  0  0  0  0  0  0  0
   21.5986   -5.5075  -13.3889 C   0  0  0  0  0  0  0  0  0  0  0  0
   22.7167   -5.0485  -13.0525 O   0  0  0  0  0  0  0  0  0  0  0  0
   20.4623   -4.8369  -12.9768 O   0  0  0  0  0  0  0  0  0  0  0  0
  2  1  1  0
  3  2  1  0
  3  4  1  6
  5  3  1  0
  5  6  1  1
  7  5  1  0
  7  8  2  0
  9  7  1  0
 10  9  1  0
 10 11  1  1
 12 11  1  0
 13 12  2  0
 14 10  1  0
 15 14  2  0
 16 12  1  0
 17 14  1  0
 17 21  1  0
 18 17  1  0
 18 19  1  0
 19 20  1  0
 21 20  1  0
 22 24  1  0
 21 22  1  1
 23 22  2  0
M  END
$$$$
