IDP.pdb
     RDKit          3D

 24 24  0  0  1  0  0  0  0  0999 V2000
   25.4614  -20.4899   -9.1019 C   0  0  0  0  0  0  0  0  0  0  0  0
   25.7873  -20.0268  -10.5158 C   0  0  0  0  0  0  0  0  0  0  0  0
   26.2717  -21.1847  -11.3541 C   0  0  2  0  0  0  0  0  0  0  0  0
   27.4333  -21.8186  -10.6462 C   0  0  0  0  0  0  0  0  0  0  0  0
   26.5209  -20.7385  -12.7446 C   0  0  2  0  0  0  0  0  0  0  0  0
   27.6705  -19.8579  -12.8616 N   0  0  0  0  0  0  0  0  0  0  0  0
   25.3700  -20.1538  -13.4580 C   0  0  0  0  0  0  0  0  0  0  0  0
   25.1636  -18.9084  -13.5381 O   0  0  0  0  0  0  0  0  0  0  0  0
   24.4251  -21.0107  -14.0994 N   0  0  0  0  0  0  0  0  0  0  0  0
   23.2386  -20.4428  -14.8040 C   0  0  1  0  0  0  0  0  0  0  0  0
   23.2795  -21.1055  -16.1880 C   0  0  0  0  0  0  0  0  0  0  0  0
   22.1642  -20.7491  -17.0480 C   0  0  0  0  0  0  0  0  0  0  0  0
   22.0086  -19.5687  -17.5180 O   0  0  0  0  0  0  0  0  0  0  0  0
   22.0543  -20.8955  -14.0510 C   0  0  0  0  0  0  0  0  0  0  0  0
   22.1714  -22.0604  -13.4964 O   0  0  0  0  0  0  0  0  0  0  0  0
   21.2158  -21.7002  -17.3934 O   0  0  0  0  0  0  0  0  0  0  0  0
   20.8431  -20.1971  -13.8783 N   0  0  0  0  0  0  0  0  0  0  0  0
   20.5034  -18.9263  -14.4990 C   0  0  0  0  0  0  0  0  0  0  0  0
   19.2902  -18.3930  -13.7587 C   0  0  0  0  0  0  0  0  0  0  0  0
   19.3173  -19.2260  -12.4675 C   0  0  0  0  0  0  0  0  0  0  0  0
   19.7167  -20.5751  -13.0826 C   0  0  1  0  0  0  0  0  0  0  0  0
   18.5504  -20.9169  -13.9952 C   0  0  0  0  0  0  0  0  0  0  0  0
   18.6713  -20.8079  -15.2392 O   0  0  0  0  0  0  0  0  0  0  0  0
   17.3403  -21.3520  -13.4884 O   0  0  0  0  0  0  0  0  0  0  0  0
  2  1  1  0
  3  2  1  0
  3  4  1  1
  5  3  1  0
  5  6  1  1
  7  5  1  0
  7  8  2  0
  9  7  1  0
 10  9  1  0
 10 11  1  6
 12 11  1  0
 13 12  2  0
 14 10  1  0
 15 14  2  0
 16 12  1  0
 17 14  1  0
 17 21  1  0
 18 17  1  0
 18 19  1  0
 19 20  1  0
 21 20  1  0
 22 24  1  0
 21 22  1  6
 23 22  2  0
M  END
$$$$
