IDP.pdb
     RDKit          3D

 24 24  0  0  1  0  0  0  0  0999 V2000
   27.2790  -20.2998   -4.1524 C   0  0  0  0  0  0  0  0  0  0  0  0
   27.8507  -19.8068   -5.4752 C   0  0  0  0  0  0  0  0  0  0  0  0
   26.8323  -19.9524   -6.5796 C   0  0  2  0  0  0  0  0  0  0  0  0
   26.3421  -21.3708   -6.5774 C   0  0  0  0  0  0  0  0  0  0  0  0
   27.3933  -19.4590   -7.8589 C   0  0  2  0  0  0  0  0  0  0  0  0
   27.9615  -18.1260   -7.7539 N   0  0  0  0  0  0  0  0  0  0  0  0
   26.5026  -19.5306   -9.0322 C   0  0  0  0  0  0  0  0  0  0  0  0
   25.5730  -18.7004   -9.2490 O   0  0  0  0  0  0  0  0  0  0  0  0
   26.6735  -20.5775   -9.9878 N   0  0  0  0  0  0  0  0  0  0  0  0
   25.9552  -20.5390  -11.2953 C   0  0  1  0  0  0  0  0  0  0  0  0
   26.7554  -21.5012  -12.1841 C   0  0  0  0  0  0  0  0  0  0  0  0
   28.0188  -20.9600  -12.6547 C   0  0  0  0  0  0  0  0  0  0  0  0
   28.1177  -19.7908  -13.1663 O   0  0  0  0  0  0  0  0  0  0  0  0
   24.6050  -21.0747  -11.0416 C   0  0  0  0  0  0  0  0  0  0  0  0
   24.5183  -21.8842  -10.0339 O   0  0  0  0  0  0  0  0  0  0  0  0
   29.1804  -21.7117  -12.5592 O   0  0  0  0  0  0  0  0  0  0  0  0
   23.4318  -20.7923  -11.7687 N   0  0  0  0  0  0  0  0  0  0  0  0
   23.3700  -20.0586  -13.0230 C   0  0  0  0  0  0  0  0  0  0  0  0
   21.9131  -19.6908  -13.2386 C   0  0  0  0  0  0  0  0  0  0  0  0
   21.3283  -19.8794  -11.8299 C   0  0  0  0  0  0  0  0  0  0  0  0
   22.0878  -21.1570  -11.4441 C   0  0  1  0  0  0  0  0  0  0  0  0
   21.5930  -22.1888  -12.4443 C   0  0  0  0  0  0  0  0  0  0  0  0
   22.3048  -22.5038  -13.4283 O   0  0  0  0  0  0  0  0  0  0  0  0
   20.3625  -22.8017  -12.3007 O   0  0  0  0  0  0  0  0  0  0  0  0
  2  1  1  0
  3  2  1  0
  3  4  1  6
  5  3  1  0
  5  6  1  1
  7  5  1  0
  7  8  2  0
  9  7  1  0
 10  9  1  0
 10 11  1  6
 12 11  1  0
 13 12  2  0
 14 10  1  0
 15 14  2  0
 16 12  1  0
 17 14  1  0
 17 21  1  0
 18 17  1  0
 18 19  1  0
 19 20  1  0
 21 20  1  0
 22 24  1  0
 21 22  1  6
 23 22  2  0
M  END
$$$$
