IDP.pdb
     RDKit          3D

 24 24  0  0  1  0  0  0  0  0999 V2000
   13.7932  -11.4149  -15.2312 C   0  0  0  0  0  0  0  0  0  0  0  0
   15.1122  -11.8641  -15.8462 C   0  0  0  0  0  0  0  0  0  0  0  0
   16.2573  -11.0471  -15.2991 C   0  0  2  0  0  0  0  0  0  0  0  0
   15.9417   -9.5965  -15.5193 C   0  0  0  0  0  0  0  0  0  0  0  0
   17.5409  -11.5273  -15.8618 C   0  0  2  0  0  0  0  0  0  0  0  0
   17.7241  -12.9612  -15.7168 N   0  0  0  0  0  0  0  0  0  0  0  0
   18.7550  -10.8212  -15.4115 C   0  0  0  0  0  0  0  0  0  0  0  0
   19.3012  -11.0273  -14.2893 O   0  0  0  0  0  0  0  0  0  0  0  0
   19.3664   -9.8514  -16.2624 N   0  0  0  0  0  0  0  0  0  0  0  0
   20.5444   -9.0636  -15.7948 C   0  0  1  0  0  0  0  0  0  0  0  0
   21.5083   -9.0975  -16.9889 C   0  0  0  0  0  0  0  0  0  0  0  0
   20.9536   -8.5461  -18.2132 C   0  0  0  0  0  0  0  0  0  0  0  0
   19.9688   -9.0873  -18.8263 O   0  0  0  0  0  0  0  0  0  0  0  0
   20.0587   -7.6905  -15.5639 C   0  0  0  0  0  0  0  0  0  0  0  0
   18.9000   -7.4264  -16.0797 O   0  0  0  0  0  0  0  0  0  0  0  0
   21.4865   -7.3902  -18.7638 O   0  0  0  0  0  0  0  0  0  0  0  0
   20.7157   -6.6690  -14.8501 N   0  0  0  0  0  0  0  0  0  0  0  0
   22.0652   -6.7457  -14.3129 C   0  0  0  0  0  0  0  0  0  0  0  0
   22.2092   -5.5921  -13.3367 C   0  0  0  0  0  0  0  0  0  0  0  0
   20.7425   -5.2130  -13.0778 C   0  0  0  0  0  0  0  0  0  0  0  0
   20.2161   -5.3727  -14.5114 C   0  0  1  0  0  0  0  0  0  0  0  0
   20.9802   -4.3200  -15.2975 C   0  0  0  0  0  0  0  0  0  0  0  0
   20.6077   -3.1222  -15.2731 O   0  0  0  0  0  0  0  0  0  0  0  0
   22.0921   -4.6468  -16.0507 O   0  0  0  0  0  0  0  0  0  0  0  0
  2  1  1  0
  3  2  1  0
  3  4  1  6
  5  3  1  0
  5  6  1  1
  7  5  1  0
  7  8  2  0
  9  7  1  0
 10  9  1  0
 10 11  1  6
 12 11  1  0
 13 12  2  0
 14 10  1  0
 15 14  2  0
 16 12  1  0
 17 14  1  0
 17 21  1  0
 18 17  1  0
 18 19  1  0
 19 20  1  0
 21 20  1  0
 22 24  1  0
 21 22  1  6
 23 22  2  0
M  END
$$$$
