IDP.pdb
     RDKit          3D

 24 24  0  0  1  0  0  0  0  0999 V2000
   23.4964  -12.9388  -16.1515 C   0  0  0  0  0  0  0  0  0  0  0  0
   24.7620  -13.7722  -16.3052 C   0  0  0  0  0  0  0  0  0  0  0  0
   24.6486  -15.0571  -15.5215 C   0  0  2  0  0  0  0  0  0  0  0  0
   25.8197  -15.1374  -14.5864 C   0  0  0  0  0  0  0  0  0  0  0  0
   24.4715  -16.2029  -16.4437 C   0  0  2  0  0  0  0  0  0  0  0  0
   23.3069  -16.0674  -17.3015 N   0  0  0  0  0  0  0  0  0  0  0  0
   24.4847  -17.5432  -15.8283 C   0  0  0  0  0  0  0  0  0  0  0  0
   23.4525  -18.0975  -15.3514 O   0  0  0  0  0  0  0  0  0  0  0  0
   25.7080  -18.2754  -15.7527 N   0  0  0  0  0  0  0  0  0  0  0  0
   25.7642  -19.5933  -15.0548 C   0  0  1  0  0  0  0  0  0  0  0  0
   26.7246  -20.4257  -15.9155 C   0  0  0  0  0  0  0  0  0  0  0  0
   27.0043  -21.7472  -15.3807 C   0  0  0  0  0  0  0  0  0  0  0  0
   28.1307  -22.0511  -14.8539 O   0  0  0  0  0  0  0  0  0  0  0  0
   26.3542  -19.3343  -13.7284 C   0  0  0  0  0  0  0  0  0  0  0  0
   27.2379  -18.3874  -13.6985 O   0  0  0  0  0  0  0  0  0  0  0  0
   26.0359  -22.7390  -15.4254 O   0  0  0  0  0  0  0  0  0  0  0  0
   26.0516  -19.9977  -12.5231 N   0  0  0  0  0  0  0  0  0  0  0  0
   25.0778  -21.0669  -12.3674 C   0  0  0  0  0  0  0  0  0  0  0  0
   24.8323  -21.2158  -10.8768 C   0  0  0  0  0  0  0  0  0  0  0  0
   25.3798  -19.8868  -10.3326 C   0  0  0  0  0  0  0  0  0  0  0  0
   26.6205  -19.7743  -11.2304 C   0  0  1  0  0  0  0  0  0  0  0  0
   27.4620  -20.9777  -10.8383 C   0  0  0  0  0  0  0  0  0  0  0  0
   27.3901  -22.0396  -11.5024 O   0  0  0  0  0  0  0  0  0  0  0  0
   28.3190  -20.9374   -9.7545 O   0  0  0  0  0  0  0  0  0  0  0  0
  2  1  1  0
  3  2  1  0
  3  4  1  6
  5  3  1  0
  5  6  1  1
  7  5  1  0
  7  8  2  0
  9  7  1  0
 10  9  1  0
 10 11  1  6
 12 11  1  0
 13 12  2  0
 14 10  1  0
 15 14  2  0
 16 12  1  0
 17 14  1  0
 17 21  1  0
 18 17  1  0
 18 19  1  0
 19 20  1  0
 21 20  1  0
 22 24  1  0
 21 22  1  1
 23 22  2  0
M  END
$$$$
