IDP.pdb
     RDKit          3D

 24 24  0  0  1  0  0  0  0  0999 V2000
   25.0546  -31.3078   -8.3748 C   0  0  0  0  0  0  0  0  0  0  0  0
   25.8930  -32.5672   -8.1996 C   0  0  0  0  0  0  0  0  0  0  0  0
   25.7016  -33.1431   -6.8176 C   0  0  2  0  0  0  0  0  0  0  0  0
   26.0325  -32.0743   -5.8175 C   0  0  0  0  0  0  0  0  0  0  0  0
   26.4524  -34.4134   -6.6860 C   0  0  2  0  0  0  0  0  0  0  0  0
   26.1696  -35.3543   -7.7563 N   0  0  0  0  0  0  0  0  0  0  0  0
   26.3549  -35.0965   -5.3825 C   0  0  0  0  0  0  0  0  0  0  0  0
   25.3271  -35.7315   -5.0075 O   0  0  0  0  0  0  0  0  0  0  0  0
   27.4587  -35.0563   -4.4779 N   0  0  0  0  0  0  0  0  0  0  0  0
   27.3870  -35.7500   -3.1586 C   0  0  1  0  0  0  0  0  0  0  0  0
   28.6994  -36.5429   -3.0869 C   0  0  0  0  0  0  0  0  0  0  0  0
   28.6669  -37.8070   -3.8022 C   0  0  0  0  0  0  0  0  0  0  0  0
   27.5803  -38.4506   -4.0113 O   0  0  0  0  0  0  0  0  0  0  0  0
   27.3694  -34.6895   -2.1340 C   0  0  0  0  0  0  0  0  0  0  0  0
   28.0832  -33.6456   -2.4152 O   0  0  0  0  0  0  0  0  0  0  0  0
   29.8391  -38.3639   -4.2913 O   0  0  0  0  0  0  0  0  0  0  0  0
   26.6645  -34.7024   -0.9144 N   0  0  0  0  0  0  0  0  0  0  0  0
   25.8990  -35.8232   -0.3915 C   0  0  0  0  0  0  0  0  0  0  0  0
   25.0387  -35.2739    0.7320 C   0  0  0  0  0  0  0  0  0  0  0  0
   25.0759  -33.7639    0.4485 C   0  0  0  0  0  0  0  0  0  0  0  0
   26.5539  -33.6503    0.0477 C   0  0  1  0  0  0  0  0  0  0  0  0
   27.3031  -34.0445    1.3099 C   0  0  0  0  0  0  0  0  0  0  0  0
   27.4651  -33.2099    2.2325 O   0  0  0  0  0  0  0  0  0  0  0  0
   27.8199  -35.3157    1.4757 O   0  0  0  0  0  0  0  0  0  0  0  0
  2  1  1  0
  3  2  1  0
  3  4  1  1
  5  3  1  0
  5  6  1  6
  7  5  1  0
  7  8  2  0
  9  7  1  0
 10  9  1  0
 10 11  1  1
 12 11  1  0
 13 12  2  0
 14 10  1  0
 15 14  2  0
 16 12  1  0
 17 14  1  0
 17 21  1  0
 18 17  1  0
 18 19  1  0
 19 20  1  0
 21 20  1  0
 22 24  1  0
 21 22  1  1
 23 22  2  0
M  END
$$$$
