IDP.pdb
     RDKit          3D

 24 24  0  0  1  0  0  0  0  0999 V2000
   28.4270  -17.8860  -14.8514 C   0  0  0  0  0  0  0  0  0  0  0  0
   27.3181  -18.6369  -14.1259 C   0  0  0  0  0  0  0  0  0  0  0  0
   27.7675  -20.0339  -13.7727 C   0  0  2  0  0  0  0  0  0  0  0  0
   28.3779  -20.6505  -14.9972 C   0  0  0  0  0  0  0  0  0  0  0  0
   26.6530  -20.7862  -13.1510 C   0  0  2  0  0  0  0  0  0  0  0  0
   25.5308  -20.9873  -14.0515 N   0  0  0  0  0  0  0  0  0  0  0  0
   26.1672  -20.2789  -11.8541 C   0  0  0  0  0  0  0  0  0  0  0  0
   25.3817  -19.2934  -11.7452 O   0  0  0  0  0  0  0  0  0  0  0  0
   26.5872  -20.9108  -10.6447 N   0  0  0  0  0  0  0  0  0  0  0  0
   26.0476  -20.4656   -9.3265 C   0  0  1  0  0  0  0  0  0  0  0  0
   24.8462  -21.3908   -9.0882 C   0  0  0  0  0  0  0  0  0  0  0  0
   23.6004  -20.6889   -8.8318 C   0  0  0  0  0  0  0  0  0  0  0  0
   23.4965  -19.4165   -8.9256 O   0  0  0  0  0  0  0  0  0  0  0  0
   27.1065  -20.7308   -8.3350 C   0  0  0  0  0  0  0  0  0  0  0  0
   27.8423  -21.7674   -8.5849 O   0  0  0  0  0  0  0  0  0  0  0  0
   22.4618  -21.3942   -8.4716 O   0  0  0  0  0  0  0  0  0  0  0  0
   27.3887  -19.9805   -7.1766 N   0  0  0  0  0  0  0  0  0  0  0  0
   26.6468  -18.8149   -6.7221 C   0  0  0  0  0  0  0  0  0  0  0  0
   27.5059  -18.1377   -5.6697 C   0  0  0  0  0  0  0  0  0  0  0  0
   28.8860  -18.7563   -5.9431 C   0  0  0  0  0  0  0  0  0  0  0  0
   28.4316  -20.1963   -6.2224 C   0  0  1  0  0  0  0  0  0  0  0  0
   27.8208  -20.6456   -4.9053 C   0  0  0  0  0  0  0  0  0  0  0  0
   26.5834  -20.8322   -4.8162 O   0  0  0  0  0  0  0  0  0  0  0  0
   28.5997  -20.8591   -3.7836 O   0  0  0  0  0  0  0  0  0  0  0  0
  2  1  1  0
  3  2  1  0
  3  4  1  6
  5  3  1  0
  5  6  1  6
  7  5  1  0
  7  8  2  0
  9  7  1  0
 10  9  1  0
 10 11  1  1
 12 11  1  0
 13 12  2  0
 14 10  1  0
 15 14  2  0
 16 12  1  0
 17 14  1  0
 17 21  1  0
 18 17  1  0
 18 19  1  0
 19 20  1  0
 21 20  1  0
 22 24  1  0
 21 22  1  1
 23 22  2  0
M  END
$$$$
