IDP.pdb
     RDKit          3D

 24 24  0  0  1  0  0  0  0  0999 V2000
   28.0407  -19.6049   -4.7230 C   0  0  0  0  0  0  0  0  0  0  0  0
   26.7822  -19.8150   -5.5548 C   0  0  0  0  0  0  0  0  0  0  0  0
   27.1315  -20.3775   -6.9111 C   0  0  2  0  0  0  0  0  0  0  0  0
   28.2025  -19.5147   -7.5117 C   0  0  0  0  0  0  0  0  0  0  0  0
   25.9042  -20.5518   -7.7224 C   0  0  2  0  0  0  0  0  0  0  0  0
   24.8553  -21.2702   -7.0192 N   0  0  0  0  0  0  0  0  0  0  0  0
   26.0880  -21.1279   -9.0676 C   0  0  0  0  0  0  0  0  0  0  0  0
   26.4218  -22.3317   -9.2668 O   0  0  0  0  0  0  0  0  0  0  0  0
   25.8866  -20.3110  -10.2210 N   0  0  0  0  0  0  0  0  0  0  0  0
   26.1107  -20.8596  -11.5906 C   0  0  1  0  0  0  0  0  0  0  0  0
   24.9693  -21.8693  -11.7747 C   0  0  0  0  0  0  0  0  0  0  0  0
   24.9176  -22.4696  -13.0967 C   0  0  0  0  0  0  0  0  0  0  0  0
   25.7062  -23.4121  -13.4548 O   0  0  0  0  0  0  0  0  0  0  0  0
   25.9515  -19.7270  -12.5213 C   0  0  0  0  0  0  0  0  0  0  0  0
   25.0176  -18.8865  -12.2051 O   0  0  0  0  0  0  0  0  0  0  0  0
   23.9897  -22.0293  -14.0287 O   0  0  0  0  0  0  0  0  0  0  0  0
   26.7024  -19.4769  -13.6867 N   0  0  0  0  0  0  0  0  0  0  0  0
   27.6575  -20.3928  -14.2904 C   0  0  0  0  0  0  0  0  0  0  0  0
   28.4686  -19.5805  -15.2836 C   0  0  0  0  0  0  0  0  0  0  0  0
   28.1809  -18.1423  -14.8246 C   0  0  0  0  0  0  0  0  0  0  0  0
   26.6874  -18.3058  -14.5072 C   0  0  1  0  0  0  0  0  0  0  0  0
   26.0659  -18.6441  -15.8523 C   0  0  0  0  0  0  0  0  0  0  0  0
   25.6410  -19.8031  -16.0759 O   0  0  0  0  0  0  0  0  0  0  0  0
   25.9520  -17.6981  -16.8535 O   0  0  0  0  0  0  0  0  0  0  0  0
  2  1  1  0
  3  2  1  0
  3  4  1  6
  5  3  1  0
  5  6  1  1
  7  5  1  0
  7  8  2  0
  9  7  1  0
 10  9  1  0
 10 11  1  6
 12 11  1  0
 13 12  2  0
 14 10  1  0
 15 14  2  0
 16 12  1  0
 17 14  1  0
 17 21  1  0
 18 17  1  0
 18 19  1  0
 19 20  1  0
 21 20  1  0
 22 24  1  0
 21 22  1  6
 23 22  2  0
M  END
$$$$
