IDP.pdb
     RDKit          3D

 24 24  0  0  1  0  0  0  0  0999 V2000
   15.9643  -15.7216  -17.3022 C   0  0  0  0  0  0  0  0  0  0  0  0
   17.2840  -16.0855  -17.9698 C   0  0  0  0  0  0  0  0  0  0  0  0
   18.4398  -15.4380  -17.2466 C   0  0  2  0  0  0  0  0  0  0  0  0
   18.3787  -15.8525  -15.8055 C   0  0  0  0  0  0  0  0  0  0  0  0
   18.4502  -13.9793  -17.5050 C   0  0  2  0  0  0  0  0  0  0  0  0
   18.1510  -13.6447  -18.8867 N   0  0  0  0  0  0  0  0  0  0  0  0
   19.6522  -13.2475  -17.0635 C   0  0  0  0  0  0  0  0  0  0  0  0
   20.1893  -13.4153  -15.9306 O   0  0  0  0  0  0  0  0  0  0  0  0
   20.2619  -12.2960  -17.9361 N   0  0  0  0  0  0  0  0  0  0  0  0
   21.3369  -11.3878  -17.4396 C   0  0  1  0  0  0  0  0  0  0  0  0
   21.9569  -10.8149  -18.7217 C   0  0  0  0  0  0  0  0  0  0  0  0
   22.9579   -9.7885  -18.4875 C   0  0  0  0  0  0  0  0  0  0  0  0
   22.7250   -8.5447  -18.6806 O   0  0  0  0  0  0  0  0  0  0  0  0
   20.6596  -10.3241  -16.6753 C   0  0  0  0  0  0  0  0  0  0  0  0
   19.4559  -10.0501  -17.0683 O   0  0  0  0  0  0  0  0  0  0  0  0
   24.2226  -10.1351  -18.0362 O   0  0  0  0  0  0  0  0  0  0  0  0
   21.1820   -9.6016  -15.5846 N   0  0  0  0  0  0  0  0  0  0  0  0
   22.4976   -9.7940  -14.9947 C   0  0  0  0  0  0  0  0  0  0  0  0
   22.4825   -9.0747  -13.6580 C   0  0  0  0  0  0  0  0  0  0  0  0
   20.9757   -8.9014  -13.4100 C   0  0  0  0  0  0  0  0  0  0  0  0
   20.5540   -8.5516  -14.8444 C   0  0  1  0  0  0  0  0  0  0  0  0
   21.2726   -7.2419  -15.1243 C   0  0  0  0  0  0  0  0  0  0  0  0
   22.2898   -7.2262  -15.8585 O   0  0  0  0  0  0  0  0  0  0  0  0
   20.8322   -6.0472  -14.5864 O   0  0  0  0  0  0  0  0  0  0  0  0
  2  1  1  0
  3  2  1  0
  3  4  1  1
  5  3  1  0
  5  6  1  6
  7  5  1  0
  7  8  2  0
  9  7  1  0
 10  9  1  0
 10 11  1  6
 12 11  1  0
 13 12  2  0
 14 10  1  0
 15 14  2  0
 16 12  1  0
 17 14  1  0
 17 21  1  0
 18 17  1  0
 18 19  1  0
 19 20  1  0
 21 20  1  0
 22 24  1  0
 21 22  1  6
 23 22  2  0
M  END
$$$$
