IDP.pdb
     RDKit          3D

 24 24  0  0  1  0  0  0  0  0999 V2000
   26.4781  -14.5242  -15.4630 C   0  0  0  0  0  0  0  0  0  0  0  0
   24.9558  -14.5680  -15.4438 C   0  0  0  0  0  0  0  0  0  0  0  0
   24.3824  -13.2210  -15.8114 C   0  0  2  0  0  0  0  0  0  0  0  0
   24.9222  -12.2059  -14.8468 C   0  0  0  0  0  0  0  0  0  0  0  0
   22.9066  -13.3049  -15.9107 C   0  0  2  0  0  0  0  0  0  0  0  0
   22.4552  -14.3919  -16.7624 N   0  0  0  0  0  0  0  0  0  0  0  0
   22.2059  -12.0600  -16.2773 C   0  0  0  0  0  0  0  0  0  0  0  0
   22.1735  -11.6038  -17.4567 O   0  0  0  0  0  0  0  0  0  0  0  0
   21.5216  -11.3108  -15.2728 N   0  0  0  0  0  0  0  0  0  0  0  0
   20.8646  -10.0132  -15.6066 C   0  0  1  0  0  0  0  0  0  0  0  0
   19.4343  -10.1764  -15.0740 C   0  0  0  0  0  0  0  0  0  0  0  0
   18.6122   -8.9865  -15.2117 C   0  0  0  0  0  0  0  0  0  0  0  0
   18.4166   -8.1706  -14.2449 O   0  0  0  0  0  0  0  0  0  0  0  0
   21.5835   -8.9768  -14.8427 C   0  0  0  0  0  0  0  0  0  0  0  0
   22.0762   -9.3738  -13.7122 O   0  0  0  0  0  0  0  0  0  0  0  0
   18.0034   -8.6935  -16.4229 O   0  0  0  0  0  0  0  0  0  0  0  0
   21.7840   -7.6341  -15.2190 N   0  0  0  0  0  0  0  0  0  0  0  0
   21.2058   -6.9873  -16.3864 C   0  0  0  0  0  0  0  0  0  0  0  0
   21.9683   -5.6899  -16.5852 C   0  0  0  0  0  0  0  0  0  0  0  0
   23.2323   -5.9351  -15.7460 C   0  0  0  0  0  0  0  0  0  0  0  0
   22.5726   -6.6438  -14.5541 C   0  0  1  0  0  0  0  0  0  0  0  0
   21.6551   -5.5848  -13.9653 C   0  0  0  0  0  0  0  0  0  0  0  0
   20.4313   -5.5879  -14.2415 O   0  0  0  0  0  0  0  0  0  0  0  0
   22.1353   -4.6021  -13.1202 O   0  0  0  0  0  0  0  0  0  0  0  0
  2  1  1  0
  3  2  1  0
  3  4  1  1
  5  3  1  0
  5  6  1  6
  7  5  1  0
  7  8  2  0
  9  7  1  0
 10  9  1  0
 10 11  1  1
 12 11  1  0
 13 12  2  0
 14 10  1  0
 15 14  2  0
 16 12  1  0
 17 14  1  0
 17 21  1  0
 18 17  1  0
 18 19  1  0
 19 20  1  0
 21 20  1  0
 22 24  1  0
 21 22  1  6
 23 22  2  0
M  END
$$$$
