RLE.pdb
     RDKit          3D

 29 28  0  0  1  0  0  0  0  0999 V2000
    9.4897  -15.6841   17.1752 N   0  0  0  0  0  0  0  0  0  0  0  0
    8.6529  -14.7749   16.4880 C   0  0  0  0  0  0  0  0  0  0  0  0
    8.3384  -15.0172   15.2618 N   0  0  0  0  0  0  0  0  0  0  0  0
    8.1611  -13.6085   17.1335 N   0  0  0  0  0  0  0  0  0  0  0  0
    8.5278  -13.3078   18.4989 C   0  0  0  0  0  0  0  0  0  0  0  0
    7.6023  -14.0691   19.4402 C   0  0  0  0  0  0  0  0  0  0  0  0
    7.9315  -13.7484   20.8768 C   0  0  0  0  0  0  0  0  0  0  0  0
    8.1763  -15.0519   21.6194 C   0  0  2  0  0  0  0  0  0  0  0  0
    6.9613  -15.8210   21.7560 N   0  0  0  0  0  0  0  0  0  0  0  0
    8.7260  -14.6613   22.9573 C   0  0  0  0  0  0  0  0  0  0  0  0
    9.9209  -14.2677   23.0110 O   0  0  0  0  0  0  0  0  0  0  0  0
    7.6956  -14.4068   14.7409 C   0  0  0  0  0  0  0  0  0  0  0  0
    5.4240  -12.2282   26.6479 C   0  0  1  0  0  0  0  0  0  0  0  0
    6.6223  -12.5832   25.8499 C   0  0  0  0  0  0  0  0  0  0  0  0
    7.4996  -11.3460   25.6355 C   0  0  0  0  0  0  0  0  0  0  0  0
    7.4275  -13.7320   26.2935 C   0  0  2  0  0  0  0  0  0  0  0  0
    8.4416  -14.3024   25.3776 N   0  0  0  0  0  0  0  0  0  0  0  0
    7.9137  -14.7378   24.1190 C   0  0  0  0  0  0  0  0  0  0  0  0
    9.3599  -15.2988   25.9873 O   0  0  0  0  0  0  0  0  0  0  0  0
    9.8270  -15.0204   27.1278 N   0  0  0  0  0  0  0  0  0  0  0  0
    9.7360  -16.5062   25.3977 C   0  0  1  0  0  0  0  0  0  0  0  0
   10.7929  -17.3774   26.0134 C   0  0  0  0  0  0  0  0  0  0  0  0
   10.0620  -18.6698   26.2235 C   0  0  0  0  0  0  0  0  0  0  0  0
   10.7830  -19.8658   26.6729 C   0  0  0  0  0  0  0  0  0  0  0  0
   10.1698  -20.7435   27.6653 O   0  0  0  0  0  0  0  0  0  0  0  0
    8.9976  -20.5417   28.0558 C   0  0  0  0  0  0  0  0  0  0  0  0
   11.8601  -17.5447   25.0105 O   0  0  0  0  0  0  0  0  0  0  0  0
   13.0742  -17.7117   25.2386 O   0  0  0  0  0  0  0  0  0  0  0  0
   10.8707  -21.8110   28.1877 O   0  0  0  0  0  0  0  0  0  0  0  0
  2  1  1  0
  2  3  2  0
  4  2  1  0
  5  4  1  0
  6  5  1  0
  7  6  1  0
  8  7  1  0
  8  9  1  1
 10 17  1  0
 10  8  1  0
 11 10  2  0
 13 12  1  6
 14 13  1  0
 15 13  1  0
 16 15  1  6
 16 17  1  0
 18 16  1  0
 18 19  2  0
 20 18  1  0
 21 20  1  0
 21 26  1  0
 21 22  1  1
 23 22  1  0
 24 23  1  0
 25 24  2  0
 26 29  1  0
 27 26  2  0
 28 24  1  0
M  END
$$$$
