RLE.pdb
     RDKit          3D

 29 28  0  0  1  0  0  0  0  0999 V2000
    9.0078  -11.8878   17.9007 N   0  0  0  0  0  0  0  0  0  0  0  0
    8.3334  -12.9103   17.1946 C   0  0  0  0  0  0  0  0  0  0  0  0
    8.6178  -13.1065   15.9529 N   0  0  0  0  0  0  0  0  0  0  0  0
    7.3548  -13.7150   17.8381 N   0  0  0  0  0  0  0  0  0  0  0  0
    7.0040  -13.4889   19.2220 C   0  0  0  0  0  0  0  0  0  0  0  0
    7.0920  -14.8089   19.9780 C   0  0  0  0  0  0  0  0  0  0  0  0
    8.3336  -14.8446   20.8338 C   0  0  0  0  0  0  0  0  0  0  0  0
    8.3287  -16.1334   21.6396 C   0  0  2  0  0  0  0  0  0  0  0  0
    7.0202  -16.7451   21.6541 N   0  0  0  0  0  0  0  0  0  0  0  0
    8.7660  -15.7517   23.0208 C   0  0  0  0  0  0  0  0  0  0  0  0
    9.9749  -15.4440   23.1919 O   0  0  0  0  0  0  0  0  0  0  0  0
    8.0706  -13.7545   15.3719 C   0  0  0  0  0  0  0  0  0  0  0  0
    5.8989  -12.4815   26.2052 C   0  0  1  0  0  0  0  0  0  0  0  0
    7.0644  -13.2010   25.6372 C   0  0  0  0  0  0  0  0  0  0  0  0
    8.3033  -12.3004   25.6595 C   0  0  0  0  0  0  0  0  0  0  0  0
    7.3727  -14.5377   26.1696 C   0  0  2  0  0  0  0  0  0  0  0  0
    8.2875  -15.4243   25.4149 N   0  0  0  0  0  0  0  0  0  0  0  0
    7.8356  -15.7419   24.0930 C   0  0  0  0  0  0  0  0  0  0  0  0
    8.7700  -16.6185   26.1558 O   0  0  0  0  0  0  0  0  0  0  0  0
    7.8994  -17.4689   26.4952 N   0  0  0  0  0  0  0  0  0  0  0  0
   10.1004  -16.8652   26.4965 C   0  0  1  0  0  0  0  0  0  0  0  0
   10.5078  -18.1455   27.1673 C   0  0  0  0  0  0  0  0  0  0  0  0
   11.5906  -18.6524   26.2621 C   0  0  0  0  0  0  0  0  0  0  0  0
   12.7661  -17.8233   25.9741 C   0  0  0  0  0  0  0  0  0  0  0  0
   13.7957  -18.3266   25.0697 O   0  0  0  0  0  0  0  0  0  0  0  0
   13.6953  -19.4665   24.5622 C   0  0  0  0  0  0  0  0  0  0  0  0
   11.0615  -17.7906   28.4865 O   0  0  0  0  0  0  0  0  0  0  0  0
   11.5251  -18.5787   29.3338 O   0  0  0  0  0  0  0  0  0  0  0  0
   14.8953  -17.5537   24.7575 O   0  0  0  0  0  0  0  0  0  0  0  0
  2  1  1  0
  2  3  2  0
  4  2  1  0
  5  4  1  0
  6  5  1  0
  7  6  1  0
  8  7  1  0
  8  9  1  1
 10 17  1  0
 10  8  1  0
 11 10  2  0
 13 12  1  6
 14 13  1  0
 15 13  1  0
 16 15  1  6
 16 17  1  0
 18 16  1  0
 18 19  2  0
 20 18  1  0
 21 20  1  0
 21 26  1  0
 21 22  1  1
 23 22  1  0
 24 23  1  0
 25 24  2  0
 26 29  1  0
 27 26  2  0
 28 24  1  0
M  END
$$$$
