RLE.pdb
     RDKit          3D

 29 28  0  0  1  0  0  0  0  0999 V2000
   10.0137  -13.7569   17.2299 N   0  0  0  0  0  0  0  0  0  0  0  0
    8.7688  -13.8050   16.5613 C   0  0  0  0  0  0  0  0  0  0  0  0
    8.7383  -14.1427   15.3179 N   0  0  0  0  0  0  0  0  0  0  0  0
    7.5637  -13.4874   17.2440 N   0  0  0  0  0  0  0  0  0  0  0  0
    7.5811  -13.1070   18.6384 C   0  0  0  0  0  0  0  0  0  0  0  0
    8.3097  -14.1813   19.4365 C   0  0  0  0  0  0  0  0  0  0  0  0
    8.1903  -13.9111   20.9158 C   0  0  0  0  0  0  0  0  0  0  0  0
    8.1721  -15.2416   21.6504 C   0  0  2  0  0  0  0  0  0  0  0  0
    6.8535  -15.8312   21.6478 N   0  0  0  0  0  0  0  0  0  0  0  0
    8.6317  -14.9431   23.0448 C   0  0  0  0  0  0  0  0  0  0  0  0
    9.7931  -14.4808   23.1959 O   0  0  0  0  0  0  0  0  0  0  0  0
    7.8502  -14.2467   14.8105 C   0  0  0  0  0  0  0  0  0  0  0  0
    5.4537  -12.5149   26.6030 C   0  0  1  0  0  0  0  0  0  0  0  0
    6.6912  -12.9732   25.9267 C   0  0  0  0  0  0  0  0  0  0  0  0
    7.7410  -11.8577   25.9336 C   0  0  0  0  0  0  0  0  0  0  0  0
    7.2762  -14.2526   26.3578 C   0  0  2  0  0  0  0  0  0  0  0  0
    8.2532  -14.9348   25.4788 N   0  0  0  0  0  0  0  0  0  0  0  0
    7.7739  -15.1793   24.1510 C   0  0  0  0  0  0  0  0  0  0  0  0
    8.9217  -16.1217   26.0723 O   0  0  0  0  0  0  0  0  0  0  0  0
    9.3241  -16.0121   27.2650 N   0  0  0  0  0  0  0  0  0  0  0  0
    9.1314  -17.3342   25.4146 C   0  0  2  0  0  0  0  0  0  0  0  0
    9.9648  -18.4205   26.0313 C   0  0  0  0  0  0  0  0  0  0  0  0
   11.1826  -18.4276   25.1561 C   0  0  0  0  0  0  0  0  0  0  0  0
   12.3544  -19.2312   25.5211 C   0  0  0  0  0  0  0  0  0  0  0  0
   13.5107  -19.2605   24.6304 O   0  0  0  0  0  0  0  0  0  0  0  0
   13.8057  -20.3037   24.0044 C   0  0  0  0  0  0  0  0  0  0  0  0
   10.3120  -17.9837   27.3957 O   0  0  0  0  0  0  0  0  0  0  0  0
   10.7153  -16.8536   27.7337 O   0  0  0  0  0  0  0  0  0  0  0  0
   14.2962  -18.1388   24.4619 O   0  0  0  0  0  0  0  0  0  0  0  0
  2  1  1  0
  2  3  2  0
  4  2  1  0
  5  4  1  0
  6  5  1  0
  7  6  1  0
  8  7  1  0
  8  9  1  1
 10 17  1  0
 10  8  1  0
 11 10  2  0
 13 12  1  6
 14 13  1  0
 15 13  1  0
 16 15  1  6
 16 17  1  0
 18 16  1  0
 18 19  2  0
 20 18  1  0
 21 20  1  0
 21 26  1  0
 21 22  1  6
 23 22  1  0
 24 23  1  0
 25 24  2  0
 26 29  1  0
 27 26  2  0
 28 24  1  0
M  END
$$$$
