RLE.pdb
     RDKit          3D

 29 28  0  0  1  0  0  0  0  0999 V2000
    6.3831  -17.7572   16.9088 N   0  0  0  0  0  0  0  0  0  0  0  0
    6.5607  -19.0102   17.5394 C   0  0  0  0  0  0  0  0  0  0  0  0
    5.6427  -19.9069   17.4205 N   0  0  0  0  0  0  0  0  0  0  0  0
    7.7325  -19.2846   18.2949 N   0  0  0  0  0  0  0  0  0  0  0  0
    7.7923  -18.9769   19.7060 C   0  0  0  0  0  0  0  0  0  0  0  0
    7.8498  -17.4644   19.8818 C   0  0  0  0  0  0  0  0  0  0  0  0
    8.0961  -17.1106   21.3273 C   0  0  0  0  0  0  0  0  0  0  0  0
    8.0954  -15.5966   21.4615 C   0  0  2  0  0  0  0  0  0  0  0  0
    8.9820  -14.9786   20.5031 N   0  0  0  0  0  0  0  0  0  0  0  0
    8.5302  -15.3122   22.8668 C   0  0  0  0  0  0  0  0  0  0  0  0
    9.7534  -15.4313   23.1405 O   0  0  0  0  0  0  0  0  0  0  0  0
    5.7737  -20.8614   17.7793 C   0  0  0  0  0  0  0  0  0  0  0  0
    5.9098  -11.8187   26.3516 C   0  0  1  0  0  0  0  0  0  0  0  0
    7.0197  -12.5905   25.7424 C   0  0  0  0  0  0  0  0  0  0  0  0
    8.3523  -11.8714   25.9736 C   0  0  0  0  0  0  0  0  0  0  0  0
    7.1257  -14.0200   26.0743 C   0  0  2  0  0  0  0  0  0  0  0  0
    7.9647  -14.8995   25.2285 N   0  0  0  0  0  0  0  0  0  0  0  0
    7.5816  -14.9219   23.8482 C   0  0  0  0  0  0  0  0  0  0  0  0
    8.2120  -16.2590   25.7747 O   0  0  0  0  0  0  0  0  0  0  0  0
    7.2067  -17.0137   25.9022 N   0  0  0  0  0  0  0  0  0  0  0  0
    9.4608  -16.7557   26.1497 C   0  0  1  0  0  0  0  0  0  0  0  0
    9.5971  -18.0889   26.8272 C   0  0  0  0  0  0  0  0  0  0  0  0
   10.5162  -18.8279   25.9010 C   0  0  0  0  0  0  0  0  0  0  0  0
   11.2765  -18.1042   24.8762 C   0  0  0  0  0  0  0  0  0  0  0  0
   12.1594  -18.8449   23.9801 O   0  0  0  0  0  0  0  0  0  0  0  0
   12.2685  -20.0882   24.0783 C   0  0  0  0  0  0  0  0  0  0  0  0
   10.2527  -17.8539   28.1263 O   0  0  0  0  0  0  0  0  0  0  0  0
   10.6736  -16.7633   28.5594 O   0  0  0  0  0  0  0  0  0  0  0  0
   12.8865  -18.1878   23.0088 O   0  0  0  0  0  0  0  0  0  0  0  0
  2  1  1  0
  2  3  2  0
  4  2  1  0
  5  4  1  0
  6  5  1  0
  7  6  1  0
  8  7  1  0
  8  9  1  6
 10 17  1  0
 10  8  1  0
 11 10  2  0
 13 12  1  6
 14 13  1  0
 15 13  1  0
 16 15  1  6
 16 17  1  0
 18 16  1  0
 18 19  2  0
 20 18  1  0
 21 20  1  0
 21 26  1  0
 21 22  1  1
 23 22  1  0
 24 23  1  0
 25 24  2  0
 26 29  1  0
 27 26  2  0
 28 24  1  0
M  END
$$$$
