RLE.pdb
     RDKit          3D

 29 28  0  0  1  0  0  0  0  0999 V2000
    7.4951  -14.0422   13.2116 N   0  0  0  0  0  0  0  0  0  0  0  0
    8.7918  -14.5327   13.4894 C   0  0  0  0  0  0  0  0  0  0  0  0
    9.7971  -13.7313   13.3996 N   0  0  0  0  0  0  0  0  0  0  0  0
    8.9918  -15.8889   13.8633 N   0  0  0  0  0  0  0  0  0  0  0  0
    7.8787  -16.8080   13.9382 C   0  0  0  0  0  0  0  0  0  0  0  0
    8.0484  -17.6934   15.1667 C   0  0  0  0  0  0  0  0  0  0  0  0
    9.0130  -17.0644   16.1408 C   0  0  0  0  0  0  0  0  0  0  0  0
    9.1624  -17.9884   17.3384 C   0  0  2  0  0  0  0  0  0  0  0  0
    7.9201  -18.6551   17.6525 N   0  0  0  0  0  0  0  0  0  0  0  0
    9.6137  -17.1174   18.4708 C   0  0  0  0  0  0  0  0  0  0  0  0
   10.8424  -16.8574   18.5605 O   0  0  0  0  0  0  0  0  0  0  0  0
   10.7607  -14.0590   13.5451 C   0  0  0  0  0  0  0  0  0  0  0  0
    6.4972  -13.0806   19.9542 C   0  0  1  0  0  0  0  0  0  0  0  0
    7.7859  -13.7877   19.7600 C   0  0  0  0  0  0  0  0  0  0  0  0
    8.8777  -12.7935   19.3523 C   0  0  0  0  0  0  0  0  0  0  0  0
    8.2531  -14.6731   20.8384 C   0  0  2  0  0  0  0  0  0  0  0  0
    9.1346  -15.8156   20.5064 N   0  0  0  0  0  0  0  0  0  0  0  0
    8.6743  -16.6088   19.4058 C   0  0  0  0  0  0  0  0  0  0  0  0
    9.5681  -16.6410   21.6634 O   0  0  0  0  0  0  0  0  0  0  0  0
    9.1189  -17.8206   21.7222 N   0  0  0  0  0  0  0  0  0  0  0  0
   10.4275  -16.2118   22.6753 C   0  0  1  0  0  0  0  0  0  0  0  0
   11.1767  -17.1939   23.5293 C   0  0  0  0  0  0  0  0  0  0  0  0
   12.1547  -17.7842   22.5578 C   0  0  0  0  0  0  0  0  0  0  0  0
   13.1323  -18.7832   23.0032 C   0  0  0  0  0  0  0  0  0  0  0  0
   14.0868  -19.3313   22.0442 O   0  0  0  0  0  0  0  0  0  0  0  0
   14.1097  -18.9191   20.8624 C   0  0  0  0  0  0  0  0  0  0  0  0
   11.8823  -16.4211   24.5674 O   0  0  0  0  0  0  0  0  0  0  0  0
   12.0175  -15.1826   24.6082 O   0  0  0  0  0  0  0  0  0  0  0  0
   14.9810  -20.3110   22.4246 O   0  0  0  0  0  0  0  0  0  0  0  0
  2  1  1  0
  2  3  2  0
  4  2  1  0
  5  4  1  0
  6  5  1  0
  7  6  1  0
  8  7  1  0
  8  9  1  1
 10 17  1  0
 10  8  1  0
 11 10  2  0
 13 12  1  6
 14 13  1  0
 15 13  1  0
 16 15  1  6
 16 17  1  0
 18 16  1  0
 18 19  2  0
 20 18  1  0
 21 20  1  0
 21 26  1  0
 21 22  1  1
 23 22  1  0
 24 23  1  0
 25 24  2  0
 26 29  1  0
 27 26  2  0
 28 24  1  0
M  END
$$$$
