RLE.pdb
     RDKit          3D

 29 28  0  0  1  0  0  0  0  0999 V2000
   10.3652  -12.9844   18.8797 N   0  0  0  0  0  0  0  0  0  0  0  0
    9.0988  -13.0389   18.2536 C   0  0  0  0  0  0  0  0  0  0  0  0
    8.3779  -11.9716   18.2045 N   0  0  0  0  0  0  0  0  0  0  0  0
    8.6206  -14.2495   17.6836 N   0  0  0  0  0  0  0  0  0  0  0  0
    8.4744  -15.4402   18.4899 C   0  0  0  0  0  0  0  0  0  0  0  0
    7.6464  -15.1047   19.7243 C   0  0  0  0  0  0  0  0  0  0  0  0
    8.5285  -15.0257   20.9454 C   0  0  0  0  0  0  0  0  0  0  0  0
    8.3083  -16.2750   21.7827 C   0  0  2  0  0  0  0  0  0  0  0  0
    6.9214  -16.6786   21.7789 N   0  0  0  0  0  0  0  0  0  0  0  0
    8.7692  -15.9252   23.1647 C   0  0  0  0  0  0  0  0  0  0  0  0
    9.9982  -15.7147   23.3401 O   0  0  0  0  0  0  0  0  0  0  0  0
    7.4430  -11.9734   17.7767 C   0  0  0  0  0  0  0  0  0  0  0  0
    5.8746  -12.6282   26.3872 C   0  0  1  0  0  0  0  0  0  0  0  0
    7.0560  -13.3166   25.8134 C   0  0  0  0  0  0  0  0  0  0  0  0
    8.2780  -12.3939   25.8574 C   0  0  0  0  0  0  0  0  0  0  0  0
    7.3861  -14.6562   26.3248 C   0  0  2  0  0  0  0  0  0  0  0  0
    8.3050  -15.5209   25.5499 N   0  0  0  0  0  0  0  0  0  0  0  0
    7.8383  -15.8378   24.2329 C   0  0  0  0  0  0  0  0  0  0  0  0
    8.8208  -16.7109   26.2748 O   0  0  0  0  0  0  0  0  0  0  0  0
    7.9749  -17.5918   26.5989 N   0  0  0  0  0  0  0  0  0  0  0  0
   10.1569  -16.9229   26.6164 C   0  0  1  0  0  0  0  0  0  0  0  0
   10.5771  -18.1304   27.4040 C   0  0  0  0  0  0  0  0  0  0  0  0
   11.8307  -18.5543   26.6985 C   0  0  0  0  0  0  0  0  0  0  0  0
   11.7856  -18.9765   25.2943 C   0  0  0  0  0  0  0  0  0  0  0  0
   13.0227  -19.3568   24.6187 O   0  0  0  0  0  0  0  0  0  0  0  0
   14.1133  -19.3438   25.2330 C   0  0  0  0  0  0  0  0  0  0  0  0
   10.8832  -17.6750   28.7721 O   0  0  0  0  0  0  0  0  0  0  0  0
   10.8742  -16.4980   29.1826 O   0  0  0  0  0  0  0  0  0  0  0  0
   13.0102  -19.7391   23.2930 O   0  0  0  0  0  0  0  0  0  0  0  0
  2  1  1  0
  2  3  2  0
  4  2  1  0
  5  4  1  0
  6  5  1  0
  7  6  1  0
  8  7  1  0
  8  9  1  1
 10 17  1  0
 10  8  1  0
 11 10  2  0
 13 12  1  6
 14 13  1  0
 15 13  1  0
 16 15  1  6
 16 17  1  0
 18 16  1  0
 18 19  2  0
 20 18  1  0
 21 20  1  0
 21 26  1  0
 21 22  1  1
 23 22  1  0
 24 23  1  0
 25 24  2  0
 26 29  1  0
 27 26  2  0
 28 24  1  0
M  END
$$$$
