RLE.pdb
     RDKit          3D

 29 28  0  0  1  0  0  0  0  0999 V2000
    9.4458  -14.6251   16.5320 N   0  0  0  0  0  0  0  0  0  0  0  0
    8.2707  -13.8667   16.7393 C   0  0  0  0  0  0  0  0  0  0  0  0
    7.3651  -13.8516   15.8223 N   0  0  0  0  0  0  0  0  0  0  0  0
    8.0831  -13.1293   17.9393 N   0  0  0  0  0  0  0  0  0  0  0  0
    9.1181  -13.0796   18.9471 C   0  0  0  0  0  0  0  0  0  0  0  0
    9.1129  -14.3878   19.7284 C   0  0  0  0  0  0  0  0  0  0  0  0
    8.9177  -14.1221   21.2003 C   0  0  0  0  0  0  0  0  0  0  0  0
    9.0534  -15.4367   21.9511 C   0  0  2  0  0  0  0  0  0  0  0  0
    7.8892  -16.2728   21.7721 N   0  0  0  0  0  0  0  0  0  0  0  0
    9.2407  -15.0659   23.3906 C   0  0  0  0  0  0  0  0  0  0  0  0
   10.4071  -14.8008   23.7837 O   0  0  0  0  0  0  0  0  0  0  0  0
    6.5353  -13.2492   15.8960 C   0  0  0  0  0  0  0  0  0  0  0  0
    5.2062  -12.5462   26.1571 C   0  0  1  0  0  0  0  0  0  0  0  0
    6.5689  -12.9232   25.7101 C   0  0  0  0  0  0  0  0  0  0  0  0
    7.4983  -11.7068   25.7657 C   0  0  0  0  0  0  0  0  0  0  0  0
    7.1969  -14.0976   26.3357 C   0  0  2  0  0  0  0  0  0  0  0  0
    8.3430  -14.7503   25.6628 N   0  0  0  0  0  0  0  0  0  0  0  0
    8.1287  -15.0192   24.2720 C   0  0  0  0  0  0  0  0  0  0  0  0
    8.9281  -15.9095   26.3851 O   0  0  0  0  0  0  0  0  0  0  0  0
    9.0891  -15.7820   27.6318 N   0  0  0  0  0  0  0  0  0  0  0  0
    9.3050  -17.1148   25.7917 C   0  0  2  0  0  0  0  0  0  0  0  0
    9.9286  -18.2179   26.5975 C   0  0  0  0  0  0  0  0  0  0  0  0
   10.1056  -19.3016   25.5762 C   0  0  0  0  0  0  0  0  0  0  0  0
   11.1198  -19.1717   24.5242 C   0  0  0  0  0  0  0  0  0  0  0  0
   11.4096  -20.3131   23.6613 O   0  0  0  0  0  0  0  0  0  0  0  0
   12.2938  -20.2353   22.7785 C   0  0  0  0  0  0  0  0  0  0  0  0
   11.2385  -17.7303   27.0655 O   0  0  0  0  0  0  0  0  0  0  0  0
   11.9134  -18.1982   28.0034 O   0  0  0  0  0  0  0  0  0  0  0  0
   10.7157  -21.4969   23.8056 O   0  0  0  0  0  0  0  0  0  0  0  0
  2  1  1  0
  2  3  2  0
  4  2  1  0
  5  4  1  0
  6  5  1  0
  7  6  1  0
  8  7  1  0
  8  9  1  1
 10 17  1  0
 10  8  1  0
 11 10  2  0
 13 12  1  6
 14 13  1  0
 15 13  1  0
 16 15  1  6
 16 17  1  0
 18 16  1  0
 18 19  2  0
 20 18  1  0
 21 20  1  0
 21 26  1  0
 21 22  1  6
 23 22  1  0
 24 23  1  0
 25 24  2  0
 26 29  1  0
 27 26  2  0
 28 24  1  0
M  END
$$$$
