RLE.pdb
     RDKit          3D

 29 28  0  0  1  0  0  0  0  0999 V2000
    9.9516  -13.3938   17.5787 N   0  0  0  0  0  0  0  0  0  0  0  0
    8.7274  -13.5779   16.8957 C   0  0  0  0  0  0  0  0  0  0  0  0
    8.1579  -12.5610   16.3456 N   0  0  0  0  0  0  0  0  0  0  0  0
    8.1272  -14.8632   16.8123 N   0  0  0  0  0  0  0  0  0  0  0  0
    8.4244  -15.8840   17.7915 C   0  0  0  0  0  0  0  0  0  0  0  0
    7.8599  -15.4563   19.1407 C   0  0  0  0  0  0  0  0  0  0  0  0
    8.9723  -15.2677   20.1419 C   0  0  0  0  0  0  0  0  0  0  0  0
    8.7723  -16.2563   21.2789 C   0  0  2  0  0  0  0  0  0  0  0  0
    7.4723  -16.8827   21.2151 N   0  0  0  0  0  0  0  0  0  0  0  0
    8.9329  -15.4640   22.5403 C   0  0  0  0  0  0  0  0  0  0  0  0
   10.0739  -15.0014   22.8042 O   0  0  0  0  0  0  0  0  0  0  0  0
    7.3144  -12.6648   15.7671 C   0  0  0  0  0  0  0  0  0  0  0  0
    7.9882  -11.9395   26.3721 C   0  0  2  0  0  0  0  0  0  0  0  0
    7.0117  -13.0550   26.3954 C   0  0  0  0  0  0  0  0  0  0  0  0
    5.6495  -12.5544   26.8857 C   0  0  0  0  0  0  0  0  0  0  0  0
    6.8690  -13.8687   25.1778 C   0  0  1  0  0  0  0  0  0  0  0  0
    8.0334  -14.6352   24.6785 N   0  0  0  0  0  0  0  0  0  0  0  0
    7.8247  -15.2498   23.4013 C   0  0  0  0  0  0  0  0  0  0  0  0
    8.6552  -15.5592   25.6621 O   0  0  0  0  0  0  0  0  0  0  0  0
    9.0004  -15.0625   26.7715 N   0  0  0  0  0  0  0  0  0  0  0  0
    8.8796  -16.9200   25.4508 C   0  0  2  0  0  0  0  0  0  0  0  0
    9.5254  -17.7752   26.5028 C   0  0  0  0  0  0  0  0  0  0  0  0
   10.5613  -18.5232   25.7178 C   0  0  0  0  0  0  0  0  0  0  0  0
   11.5478  -19.3649   26.4036 C   0  0  0  0  0  0  0  0  0  0  0  0
   12.5360  -20.0983   25.6182 O   0  0  0  0  0  0  0  0  0  0  0  0
   12.4578  -20.1331   24.3692 C   0  0  0  0  0  0  0  0  0  0  0  0
   10.1668  -16.8673   27.4708 O   0  0  0  0  0  0  0  0  0  0  0  0
   10.0046  -16.8647   28.7068 O   0  0  0  0  0  0  0  0  0  0  0  0
   13.5735  -20.7633   26.2388 O   0  0  0  0  0  0  0  0  0  0  0  0
  2  1  1  0
  2  3  2  0
  4  2  1  0
  5  4  1  0
  6  5  1  0
  7  6  1  0
  8  7  1  0
  8  9  1  1
 10 17  1  0
 10  8  1  0
 11 10  2  0
 13 12  1  1
 14 13  1  0
 15 13  1  0
 16 15  1  6
 16 17  1  0
 18 16  1  0
 18 19  2  0
 20 18  1  0
 21 20  1  0
 21 26  1  0
 21 22  1  6
 23 22  1  0
 24 23  1  0
 25 24  2  0
 26 29  1  0
 27 26  2  0
 28 24  1  0
M  END
$$$$
