RLE.pdb
     RDKit          3D

 29 28  0  0  1  0  0  0  0  0999 V2000
    6.3702  -15.3852   14.3989 N   0  0  0  0  0  0  0  0  0  0  0  0
    7.3057  -14.7393   15.2395 C   0  0  0  0  0  0  0  0  0  0  0  0
    8.4104  -14.3095   14.7334 N   0  0  0  0  0  0  0  0  0  0  0  0
    7.0387  -14.5620   16.6238 N   0  0  0  0  0  0  0  0  0  0  0  0
    7.9864  -13.8846   17.4796 C   0  0  0  0  0  0  0  0  0  0  0  0
    8.6476  -14.9077   18.3950 C   0  0  0  0  0  0  0  0  0  0  0  0
    8.1332  -14.7634   19.8056 C   0  0  0  0  0  0  0  0  0  0  0  0
    8.8730  -13.6168   20.4752 C   0  0  2  0  0  0  0  0  0  0  0  0
   10.2140  -13.4760   19.9572 N   0  0  0  0  0  0  0  0  0  0  0  0
    8.8861  -13.9399   21.9381 C   0  0  0  0  0  0  0  0  0  0  0  0
    9.8566  -14.6058   22.3856 O   0  0  0  0  0  0  0  0  0  0  0  0
    9.1653  -13.9400   15.3255 C   0  0  0  0  0  0  0  0  0  0  0  0
    8.1403  -12.4330   27.1413 C   0  0  2  0  0  0  0  0  0  0  0  0
    6.9620  -13.0110   26.4514 C   0  0  0  0  0  0  0  0  0  0  0  0
    5.6696  -12.4580   27.0602 C   0  0  0  0  0  0  0  0  0  0  0  0
    6.9251  -12.9442   24.9820 C   0  0  1  0  0  0  0  0  0  0  0  0
    7.9386  -13.6859   24.1977 N   0  0  0  0  0  0  0  0  0  0  0  0
    7.8308  -13.5025   22.7809 C   0  0  0  0  0  0  0  0  0  0  0  0
    8.1176  -15.1114   24.5770 O   0  0  0  0  0  0  0  0  0  0  0  0
    7.1831  -15.9045   24.2701 N   0  0  0  0  0  0  0  0  0  0  0  0
    9.2319  -15.6298   25.2377 C   0  0  1  0  0  0  0  0  0  0  0  0
    9.3675  -17.1026   25.4976 C   0  0  0  0  0  0  0  0  0  0  0  0
   10.6241  -17.4458   24.7545 C   0  0  0  0  0  0  0  0  0  0  0  0
   11.2597  -18.7554   24.9362 C   0  0  0  0  0  0  0  0  0  0  0  0
   12.4971  -19.0582   24.2232 O   0  0  0  0  0  0  0  0  0  0  0  0
   13.0839  -20.1495   24.4016 C   0  0  0  0  0  0  0  0  0  0  0  0
    9.5624  -17.2742   26.9485 O   0  0  0  0  0  0  0  0  0  0  0  0
    9.9539  -16.4063   27.7532 O   0  0  0  0  0  0  0  0  0  0  0  0
   13.0394  -18.1479   23.3393 O   0  0  0  0  0  0  0  0  0  0  0  0
  2  1  1  0
  2  3  2  0
  4  2  1  0
  5  4  1  0
  6  5  1  0
  7  6  1  0
  8  7  1  0
  8  9  1  6
 10 17  1  0
 10  8  1  0
 11 10  2  0
 13 12  1  1
 14 13  1  0
 15 13  1  0
 16 15  1  1
 16 17  1  0
 18 16  1  0
 18 19  2  0
 20 18  1  0
 21 20  1  0
 21 26  1  0
 21 22  1  1
 23 22  1  0
 24 23  1  0
 25 24  2  0
 26 29  1  0
 27 26  2  0
 28 24  1  0
M  END
$$$$
