RLE.pdb
     RDKit          3D

 29 28  0  0  1  0  0  0  0  0999 V2000
    9.4181  -12.2936   19.4331 N   0  0  0  0  0  0  0  0  0  0  0  0
    8.2771  -12.6231   18.6659 C   0  0  0  0  0  0  0  0  0  0  0  0
    7.4931  -11.6789   18.2722 N   0  0  0  0  0  0  0  0  0  0  0  0
    7.9922  -13.9738   18.3292 N   0  0  0  0  0  0  0  0  0  0  0  0
    8.7806  -15.0550   18.8757 C   0  0  0  0  0  0  0  0  0  0  0  0
    8.5548  -15.1219   20.3812 C   0  0  0  0  0  0  0  0  0  0  0  0
    9.2631  -16.3174   20.9680 C   0  0  0  0  0  0  0  0  0  0  0  0
    8.3447  -16.9711   21.9876 C   0  0  2  0  0  0  0  0  0  0  0  0
    6.9585  -16.6555   21.7324 N   0  0  0  0  0  0  0  0  0  0  0  0
    8.7839  -16.4521   23.3227 C   0  0  0  0  0  0  0  0  0  0  0  0
   10.0160  -16.4605   23.5818 O   0  0  0  0  0  0  0  0  0  0  0  0
    6.6313  -11.8788   17.7484 C   0  0  0  0  0  0  0  0  0  0  0  0
    5.7860  -12.6318   26.2207 C   0  0  1  0  0  0  0  0  0  0  0  0
    6.9331  -13.3693   25.6387 C   0  0  0  0  0  0  0  0  0  0  0  0
    8.1490  -12.4453   25.5188 C   0  0  0  0  0  0  0  0  0  0  0  0
    7.3045  -14.6552   26.2498 C   0  0  2  0  0  0  0  0  0  0  0  0
    8.2660  -15.5383   25.5509 N   0  0  0  0  0  0  0  0  0  0  0  0
    7.8295  -15.9693   24.2562 C   0  0  0  0  0  0  0  0  0  0  0  0
    8.8169  -16.6506   26.3675 O   0  0  0  0  0  0  0  0  0  0  0  0
    7.9990  -17.5319   26.7560 N   0  0  0  0  0  0  0  0  0  0  0  0
   10.1574  -16.7903   26.7289 C   0  0  1  0  0  0  0  0  0  0  0  0
   10.6360  -17.9890   27.4965 C   0  0  0  0  0  0  0  0  0  0  0  0
   11.8640  -18.3894   26.7346 C   0  0  0  0  0  0  0  0  0  0  0  0
   12.7305  -19.4626   27.2341 C   0  0  0  0  0  0  0  0  0  0  0  0
   13.8521  -19.9183   26.4183 O   0  0  0  0  0  0  0  0  0  0  0  0
   14.6171  -20.8181   26.8337 C   0  0  0  0  0  0  0  0  0  0  0  0
   10.9953  -17.5268   28.8492 O   0  0  0  0  0  0  0  0  0  0  0  0
   11.0659  -16.3437   29.2355 O   0  0  0  0  0  0  0  0  0  0  0  0
   14.0865  -19.3669   25.1754 O   0  0  0  0  0  0  0  0  0  0  0  0
  2  1  1  0
  2  3  2  0
  4  2  1  0
  5  4  1  0
  6  5  1  0
  7  6  1  0
  8  7  1  0
  8  9  1  6
 10 17  1  0
 10  8  1  0
 11 10  2  0
 13 12  1  6
 14 13  1  0
 15 13  1  0
 16 15  1  6
 16 17  1  0
 18 16  1  0
 18 19  2  0
 20 18  1  0
 21 20  1  0
 21 26  1  0
 21 22  1  1
 23 22  1  0
 24 23  1  0
 25 24  2  0
 26 29  1  0
 27 26  2  0
 28 24  1  0
M  END
$$$$
