RLE.pdb
     RDKit          3D

 29 28  0  0  1  0  0  0  0  0999 V2000
    7.5563  -13.8119   16.0465 N   0  0  0  0  0  0  0  0  0  0  0  0
    8.4855  -14.6986   16.6376 C   0  0  0  0  0  0  0  0  0  0  0  0
    8.5587  -15.9100   16.2037 N   0  0  0  0  0  0  0  0  0  0  0  0
    9.3307  -14.2675   17.6954 N   0  0  0  0  0  0  0  0  0  0  0  0
    9.0469  -13.0495   18.4202 C   0  0  0  0  0  0  0  0  0  0  0  0
    7.8877  -13.3004   19.3769 C   0  0  0  0  0  0  0  0  0  0  0  0
    8.3465  -13.1666   20.8076 C   0  0  0  0  0  0  0  0  0  0  0  0
    8.5171  -14.5590   21.3929 C   0  0  2  0  0  0  0  0  0  0  0  0
    7.3402  -15.3701   21.1845 N   0  0  0  0  0  0  0  0  0  0  0  0
    8.7868  -14.3567   22.8527 C   0  0  0  0  0  0  0  0  0  0  0  0
    9.8599  -13.7850   23.1798 O   0  0  0  0  0  0  0  0  0  0  0  0
    9.2384  -16.5787   16.5882 C   0  0  0  0  0  0  0  0  0  0  0  0
    5.3653  -12.2472   26.3499 C   0  0  1  0  0  0  0  0  0  0  0  0
    6.6364  -12.7049   25.7386 C   0  0  0  0  0  0  0  0  0  0  0  0
    7.7509  -11.6912   26.0160 C   0  0  0  0  0  0  0  0  0  0  0  0
    7.0841  -14.0759   26.0297 C   0  0  2  0  0  0  0  0  0  0  0  0
    8.1689  -14.6714   25.2164 N   0  0  0  0  0  0  0  0  0  0  0  0
    7.8528  -14.8010   23.8251 C   0  0  0  0  0  0  0  0  0  0  0  0
    8.7835  -15.9014   25.7795 O   0  0  0  0  0  0  0  0  0  0  0  0
    8.7620  -16.0251   27.0368 N   0  0  0  0  0  0  0  0  0  0  0  0
    9.3728  -16.9180   25.0271 C   0  0  1  0  0  0  0  0  0  0  0  0
   10.0062  -18.1085   25.6879 C   0  0  0  0  0  0  0  0  0  0  0  0
    9.9747  -19.1366   24.5966 C   0  0  0  0  0  0  0  0  0  0  0  0
   10.6961  -20.4047   24.7504 C   0  0  0  0  0  0  0  0  0  0  0  0
   10.6644  -21.3846   23.6688 O   0  0  0  0  0  0  0  0  0  0  0  0
   10.0567  -21.1366   22.6028 C   0  0  0  0  0  0  0  0  0  0  0  0
   11.3966  -17.7407   26.0110 O   0  0  0  0  0  0  0  0  0  0  0  0
   12.1152  -16.9340   25.3890 O   0  0  0  0  0  0  0  0  0  0  0  0
   11.3053  -22.5993   23.8023 O   0  0  0  0  0  0  0  0  0  0  0  0
  2  1  1  0
  2  3  2  0
  4  2  1  0
  5  4  1  0
  6  5  1  0
  7  6  1  0
  8  7  1  0
  8  9  1  1
 10 17  1  0
 10  8  1  0
 11 10  2  0
 13 12  1  6
 14 13  1  0
 15 13  1  0
 16 15  1  6
 16 17  1  0
 18 16  1  0
 18 19  2  0
 20 18  1  0
 21 20  1  0
 21 26  1  0
 21 22  1  1
 23 22  1  0
 24 23  1  0
 25 24  2  0
 26 29  1  0
 27 26  2  0
 28 24  1  0
M  END
$$$$
