RLE.pdb
     RDKit          3D

 29 28  0  0  1  0  0  0  0  0999 V2000
    8.8805  -12.9973   16.4632 N   0  0  0  0  0  0  0  0  0  0  0  0
    8.4470  -12.6605   17.7662 C   0  0  0  0  0  0  0  0  0  0  0  0
    8.5804  -11.4460   18.1763 N   0  0  0  0  0  0  0  0  0  0  0  0
    7.8710  -13.6417   18.6175 N   0  0  0  0  0  0  0  0  0  0  0  0
    8.3772  -14.9955   18.6353 C   0  0  0  0  0  0  0  0  0  0  0  0
    7.4797  -15.8489   19.5230 C   0  0  0  0  0  0  0  0  0  0  0  0
    7.6102  -15.4272   20.9654 C   0  0  0  0  0  0  0  0  0  0  0  0
    7.8443  -16.6674   21.8125 C   0  0  2  0  0  0  0  0  0  0  0  0
    6.6234  -17.4137   22.0094 N   0  0  0  0  0  0  0  0  0  0  0  0
    8.3954  -16.1727   23.1149 C   0  0  0  0  0  0  0  0  0  0  0  0
    9.6395  -15.9979   23.1996 O   0  0  0  0  0  0  0  0  0  0  0  0
    8.3064  -11.1662   19.1269 C   0  0  0  0  0  0  0  0  0  0  0  0
    5.6806  -12.5798   26.3085 C   0  0  1  0  0  0  0  0  0  0  0  0
    6.7947  -13.3106   25.6580 C   0  0  0  0  0  0  0  0  0  0  0  0
    7.9967  -12.3802   25.4674 C   0  0  0  0  0  0  0  0  0  0  0  0
    7.2083  -14.5955   26.2437 C   0  0  2  0  0  0  0  0  0  0  0  0
    8.0856  -15.4980   25.4636 N   0  0  0  0  0  0  0  0  0  0  0  0
    7.5302  -15.9138   24.2102 C   0  0  0  0  0  0  0  0  0  0  0  0
    8.6780  -16.6259   26.2282 O   0  0  0  0  0  0  0  0  0  0  0  0
    7.9295  -17.6194   26.4500 N   0  0  0  0  0  0  0  0  0  0  0  0
    9.9868  -16.6660   26.7102 C   0  0  1  0  0  0  0  0  0  0  0  0
   10.5749  -17.9330   27.2615 C   0  0  0  0  0  0  0  0  0  0  0  0
   11.7149  -18.1934   26.3226 C   0  0  0  0  0  0  0  0  0  0  0  0
   12.6288  -19.3166   26.5582 C   0  0  0  0  0  0  0  0  0  0  0  0
   13.7082  -19.5751   25.6099 O   0  0  0  0  0  0  0  0  0  0  0  0
   13.8677  -18.8382   24.6105 C   0  0  0  0  0  0  0  0  0  0  0  0
   11.0782  -17.6291   28.6132 O   0  0  0  0  0  0  0  0  0  0  0  0
   11.4864  -18.4518   29.4561 O   0  0  0  0  0  0  0  0  0  0  0  0
   14.5719  -20.6342   25.8003 O   0  0  0  0  0  0  0  0  0  0  0  0
  2  1  1  0
  2  3  2  0
  4  2  1  0
  5  4  1  0
  6  5  1  0
  7  6  1  0
  8  7  1  0
  8  9  1  1
 10 17  1  0
 10  8  1  0
 11 10  2  0
 13 12  1  6
 14 13  1  0
 15 13  1  0
 16 15  1  6
 16 17  1  0
 18 16  1  0
 18 19  2  0
 20 18  1  0
 21 20  1  0
 21 26  1  0
 21 22  1  1
 23 22  1  0
 24 23  1  0
 25 24  2  0
 26 29  1  0
 27 26  2  0
 28 24  1  0
M  END
$$$$
