RLE.pdb
     RDKit          3D

 29 28  0  0  1  0  0  0  0  0999 V2000
    9.5653  -14.4056   17.4230 N   0  0  0  0  0  0  0  0  0  0  0  0
    8.4779  -14.1403   16.5590 C   0  0  0  0  0  0  0  0  0  0  0  0
    8.7124  -13.8809   15.3185 N   0  0  0  0  0  0  0  0  0  0  0  0
    7.1424  -14.1580   17.0440 N   0  0  0  0  0  0  0  0  0  0  0  0
    6.8649  -14.0041   18.4542 C   0  0  0  0  0  0  0  0  0  0  0  0
    8.1809  -13.8318   19.2027 C   0  0  0  0  0  0  0  0  0  0  0  0
    7.9301  -13.6820   20.6826 C   0  0  0  0  0  0  0  0  0  0  0  0
    8.1212  -15.0367   21.3449 C   0  0  2  0  0  0  0  0  0  0  0  0
    6.8610  -15.7161   21.5368 N   0  0  0  0  0  0  0  0  0  0  0  0
    8.7939  -14.7583   22.6544 C   0  0  0  0  0  0  0  0  0  0  0  0
   10.0022  -14.4050   22.6325 O   0  0  0  0  0  0  0  0  0  0  0  0
    7.9504  -13.6858   14.6566 C   0  0  0  0  0  0  0  0  0  0  0  0
    5.9029  -13.3027   26.5915 C   0  0  1  0  0  0  0  0  0  0  0  0
    6.7367  -12.7953   25.4753 C   0  0  0  0  0  0  0  0  0  0  0  0
    6.4760  -11.3015   25.2579 C   0  0  0  0  0  0  0  0  0  0  0  0
    8.1797  -13.0805   25.5109 C   0  0  1  0  0  0  0  0  0  0  0  0
    8.6647  -14.4148   25.0902 N   0  0  0  0  0  0  0  0  0  0  0  0
    8.0789  -14.8930   23.8734 C   0  0  0  0  0  0  0  0  0  0  0  0
    8.6879  -15.4482   26.1576 O   0  0  0  0  0  0  0  0  0  0  0  0
    8.9976  -15.0605   27.3197 N   0  0  0  0  0  0  0  0  0  0  0  0
    8.3931  -16.7991   25.9701 C   0  0  1  0  0  0  0  0  0  0  0  0
    8.6382  -17.8074   27.0556 C   0  0  0  0  0  0  0  0  0  0  0  0
    8.0887  -19.0667   26.4546 C   0  0  0  0  0  0  0  0  0  0  0  0
    6.7836  -19.0615   25.7846 C   0  0  0  0  0  0  0  0  0  0  0  0
    6.3376  -20.2550   25.0719 O   0  0  0  0  0  0  0  0  0  0  0  0
    6.5557  -21.3951   25.5407 C   0  0  0  0  0  0  0  0  0  0  0  0
   10.0977  -17.9135   27.2321 O   0  0  0  0  0  0  0  0  0  0  0  0
   10.9730  -17.4404   26.4811 O   0  0  0  0  0  0  0  0  0  0  0  0
    5.6664  -20.1464   23.8712 O   0  0  0  0  0  0  0  0  0  0  0  0
  2  1  1  0
  2  3  2  0
  4  2  1  0
  5  4  1  0
  6  5  1  0
  7  6  1  0
  8  7  1  0
  8  9  1  1
 10 17  1  0
 10  8  1  0
 11 10  2  0
 13 12  1  6
 14 13  1  0
 15 13  1  0
 16 15  1  6
 16 17  1  0
 18 16  1  0
 18 19  2  0
 20 18  1  0
 21 20  1  0
 21 26  1  0
 21 22  1  1
 23 22  1  0
 24 23  1  0
 25 24  2  0
 26 29  1  0
 27 26  2  0
 28 24  1  0
M  END
$$$$
