RLE.pdb
     RDKit          3D

 29 28  0  0  1  0  0  0  0  0999 V2000
    8.5363  -15.2256   15.2827 N   0  0  0  0  0  0  0  0  0  0  0  0
    7.5526  -14.6985   16.1507 C   0  0  0  0  0  0  0  0  0  0  0  0
    7.4250  -13.4199   16.2499 N   0  0  0  0  0  0  0  0  0  0  0  0
    6.7122  -15.5600   16.9062 N   0  0  0  0  0  0  0  0  0  0  0  0
    6.9756  -15.8113   18.3050 C   0  0  0  0  0  0  0  0  0  0  0  0
    8.3426  -15.2407   18.6626 C   0  0  0  0  0  0  0  0  0  0  0  0
    8.6022  -15.3814   20.1418 C   0  0  0  0  0  0  0  0  0  0  0  0
    8.1512  -14.1063   20.8354 C   0  0  2  0  0  0  0  0  0  0  0  0
    8.7935  -12.9409   20.2735 N   0  0  0  0  0  0  0  0  0  0  0  0
    8.5079  -14.2807   22.2800 C   0  0  0  0  0  0  0  0  0  0  0  0
    9.7129  -14.5085   22.5658 O   0  0  0  0  0  0  0  0  0  0  0  0
    6.7522  -12.9955   16.9012 C   0  0  0  0  0  0  0  0  0  0  0  0
    5.6426  -11.7091   26.4042 C   0  0  1  0  0  0  0  0  0  0  0  0
    6.7805  -12.2779   25.6425 C   0  0  0  0  0  0  0  0  0  0  0  0
    8.0889  -11.6021   26.0645 C   0  0  0  0  0  0  0  0  0  0  0  0
    6.9262  -13.7418   25.6158 C   0  0  2  0  0  0  0  0  0  0  0  0
    7.8736  -14.3579   24.6590 N   0  0  0  0  0  0  0  0  0  0  0  0
    7.5084  -14.1894   23.2840 C   0  0  0  0  0  0  0  0  0  0  0  0
    8.2802  -15.7516   24.9753 O   0  0  0  0  0  0  0  0  0  0  0  0
    7.3796  -16.6358   24.9143 N   0  0  0  0  0  0  0  0  0  0  0  0
    9.5705  -16.1483   25.3281 C   0  0  1  0  0  0  0  0  0  0  0  0
    9.8663  -17.5632   25.7348 C   0  0  0  0  0  0  0  0  0  0  0  0
   11.2143  -17.7990   25.1215 C   0  0  0  0  0  0  0  0  0  0  0  0
   12.0264  -18.9492   25.5335 C   0  0  0  0  0  0  0  0  0  0  0  0
   13.3358  -19.1592   24.9231 O   0  0  0  0  0  0  0  0  0  0  0  0
   14.3619  -19.2528   25.6341 C   0  0  0  0  0  0  0  0  0  0  0  0
    9.9573  -17.5851   27.2059 O   0  0  0  0  0  0  0  0  0  0  0  0
    9.9960  -16.5952   27.9625 O   0  0  0  0  0  0  0  0  0  0  0  0
   13.4641  -19.2603   23.5530 O   0  0  0  0  0  0  0  0  0  0  0  0
  2  1  1  0
  2  3  2  0
  4  2  1  0
  5  4  1  0
  6  5  1  0
  7  6  1  0
  8  7  1  0
  8  9  1  6
 10 17  1  0
 10  8  1  0
 11 10  2  0
 13 12  1  6
 14 13  1  0
 15 13  1  0
 16 15  1  6
 16 17  1  0
 18 16  1  0
 18 19  2  0
 20 18  1  0
 21 20  1  0
 21 26  1  0
 21 22  1  1
 23 22  1  0
 24 23  1  0
 25 24  2  0
 26 29  1  0
 27 26  2  0
 28 24  1  0
M  END
$$$$
