SLK.pdb
     RDKit          3D

 24 23  0  0  1  0  0  0  0  0999 V2000
    5.7500  -18.8131   23.4790 O   0  0  0  0  0  0  0  0  0  0  0  0
    4.7521  -18.1537   22.7635 C   0  0  0  0  0  0  0  0  0  0  0  0
    5.1842  -17.9578   21.3040 C   0  0  2  0  0  0  0  0  0  0  0  0
    5.2623  -19.2090   20.6132 N   0  0  0  0  0  0  0  0  0  0  0  0
    6.5052  -17.2538   21.3659 C   0  0  0  0  0  0  0  0  0  0  0  0
    7.5133  -18.0255   21.2039 O   0  0  0  0  0  0  0  0  0  0  0  0
    7.1947  -11.7947   20.1787 C   0  0  0  0  0  0  0  0  0  0  0  0
    7.3527  -13.2956   20.1525 C   0  0  1  0  0  0  0  0  0  0  0  0
    8.4041  -13.5730   19.0659 C   0  0  0  0  0  0  0  0  0  0  0  0
    7.8873  -13.8010   21.4256 C   0  0  0  0  0  0  0  0  0  0  0  0
    7.9303  -15.2692   21.6525 C   0  0  2  0  0  0  0  0  0  0  0  0
    6.6300  -15.8760   21.5815 N   0  0  0  0  0  0  0  0  0  0  0  0
    8.6475  -15.7235   22.8620 C   0  0  0  0  0  0  0  0  0  0  0  0
    8.1109  -15.5109   24.0052 O   0  0  0  0  0  0  0  0  0  0  0  0
    9.8890  -16.3846   22.8966 N   0  0  0  0  0  0  0  0  0  0  0  0
   10.6347  -16.6869   24.0829 C   0  0  1  0  0  0  0  0  0  0  0  0
   10.5210  -18.1756   24.3561 C   0  0  0  0  0  0  0  0  0  0  0  0
    9.9129  -18.4503   25.7060 C   0  0  0  0  0  0  0  0  0  0  0  0
    9.8691  -19.9240   26.0285 C   0  0  0  0  0  0  0  0  0  0  0  0
    9.3352  -20.2075   27.4069 C   0  0  0  0  0  0  0  0  0  0  0  0
    9.3122  -21.6505   27.5725 N   0  0  0  0  0  0  0  0  0  0  0  0
   12.0173  -16.2141   24.1077 C   0  0  0  0  0  0  0  0  0  0  0  0
   12.4891  -15.5675   22.9687 O   0  0  0  0  0  0  0  0  0  0  0  0
   12.8334  -16.3299   25.0558 O   0  0  0  0  0  0  0  0  0  0  0  0
  2  1  1  0
  3  2  1  0
  3  4  1  1
  5  6  2  0
  5  3  1  0
  8  7  1  1
  8 10  1  0
  8  9  1  0
 11 10  1  1
 11 12  1  0
 12  5  1  0
 13 11  1  0
 14 13  2  0
 15 13  1  0
 16 17  1  6
 16 15  1  0
 18 17  1  0
 19 18  1  0
 20 19  1  0
 20 21  1  0
 22 23  1  0
 22 16  1  0
 24 22  2  0
M  END
$$$$
