SLK.pdb
     RDKit          3D

 24 23  0  0  1  0  0  0  0  0999 V2000
    7.0943  -19.2356   21.6159 O   0  0  0  0  0  0  0  0  0  0  0  0
    7.6776  -18.2835   22.4500 C   0  0  0  0  0  0  0  0  0  0  0  0
    7.5877  -16.8904   21.8123 C   0  0  2  0  0  0  0  0  0  0  0  0
    8.3968  -16.8054   20.6346 N   0  0  0  0  0  0  0  0  0  0  0  0
    8.0230  -15.9309   22.8773 C   0  0  0  0  0  0  0  0  0  0  0  0
    9.2929  -15.8077   22.9782 O   0  0  0  0  0  0  0  0  0  0  0  0
    7.9247  -11.5113   25.9976 C   0  0  0  0  0  0  0  0  0  0  0  0
    6.9292  -12.5753   26.3913 C   0  0  1  0  0  0  0  0  0  0  0  0
    5.6535  -11.8116   26.7816 C   0  0  0  0  0  0  0  0  0  0  0  0
    6.5947  -13.4443   25.2534 C   0  0  0  0  0  0  0  0  0  0  0  0
    7.6095  -14.4178   24.7723 C   0  0  2  0  0  0  0  0  0  0  0  0
    7.1246  -15.2301   23.6911 N   0  0  0  0  0  0  0  0  0  0  0  0
    8.2496  -15.2594   25.8046 C   0  0  0  0  0  0  0  0  0  0  0  0
    7.5527  -16.1788   26.3603 O   0  0  0  0  0  0  0  0  0  0  0  0
    9.5788  -15.1604   26.2551 N   0  0  0  0  0  0  0  0  0  0  0  0
   10.1788  -15.9914   27.2573 C   0  0  1  0  0  0  0  0  0  0  0  0
   11.5524  -16.4159   26.7708 C   0  0  0  0  0  0  0  0  0  0  0  0
   11.4642  -17.4868   25.7159 C   0  0  0  0  0  0  0  0  0  0  0  0
   12.8063  -17.8016   25.1016 C   0  0  0  0  0  0  0  0  0  0  0  0
   12.7220  -18.8217   23.9981 C   0  0  0  0  0  0  0  0  0  0  0  0
   14.0580  -18.9749   23.4487 N   0  0  0  0  0  0  0  0  0  0  0  0
   10.2062  -15.4425   28.6115 C   0  0  0  0  0  0  0  0  0  0  0  0
   10.5877  -16.3013   29.6385 O   0  0  0  0  0  0  0  0  0  0  0  0
    9.9196  -14.2674   28.9511 O   0  0  0  0  0  0  0  0  0  0  0  0
  2  1  1  0
  3  2  1  0
  3  4  1  6
  5  6  2  0
  5  3  1  0
  8  7  1  6
  8 10  1  0
  8  9  1  0
 11 10  1  1
 11 12  1  0
 12  5  1  0
 13 11  1  0
 14 13  2  0
 15 13  1  0
 16 17  1  6
 16 15  1  0
 18 17  1  0
 19 18  1  0
 20 19  1  0
 20 21  1  0
 22 23  1  0
 22 16  1  0
 24 22  2  0
M  END
$$$$
