SLK.pdb
     RDKit          3D

 24 23  0  0  1  0  0  0  0  0999 V2000
    7.1038  -17.5668   22.8942 O   0  0  0  0  0  0  0  0  0  0  0  0
    7.7632  -17.0900   21.7628 C   0  0  0  0  0  0  0  0  0  0  0  0
    7.6850  -15.5584   21.7066 C   0  0  2  0  0  0  0  0  0  0  0  0
    8.3736  -15.0450   20.5616 N   0  0  0  0  0  0  0  0  0  0  0  0
    8.2780  -15.0771   22.9955 C   0  0  0  0  0  0  0  0  0  0  0  0
    9.5412  -14.8776   22.9438 O   0  0  0  0  0  0  0  0  0  0  0  0
    5.5849  -11.8234   26.7270 C   0  0  0  0  0  0  0  0  0  0  0  0
    6.5430  -12.3999   25.7132 C   0  0  1  0  0  0  0  0  0  0  0  0
    7.6394  -11.3362   25.5418 C   0  0  0  0  0  0  0  0  0  0  0  0
    7.1864  -13.6220   26.2177 C   0  0  0  0  0  0  0  0  0  0  0  0
    8.1449  -14.3423   25.3394 C   0  0  2  0  0  0  0  0  0  0  0  0
    7.5219  -14.8634   24.1544 N   0  0  0  0  0  0  0  0  0  0  0  0
    8.9730  -15.3806   25.9875 C   0  0  0  0  0  0  0  0  0  0  0  0
    9.6201  -15.0704   27.0482 O   0  0  0  0  0  0  0  0  0  0  0  0
    9.1313  -16.7105   25.5566 N   0  0  0  0  0  0  0  0  0  0  0  0
    9.9699  -17.6906   26.1820 C   0  0  1  0  0  0  0  0  0  0  0  0
   10.1075  -18.8752   25.2431 C   0  0  0  0  0  0  0  0  0  0  0  0
   10.8917  -19.9968   25.8714 C   0  0  0  0  0  0  0  0  0  0  0  0
   10.5996  -21.3321   25.2317 C   0  0  0  0  0  0  0  0  0  0  0  0
   11.3172  -22.4732   25.9014 C   0  0  0  0  0  0  0  0  0  0  0  0
   10.8618  -23.6997   25.2700 N   0  0  0  0  0  0  0  0  0  0  0  0
   11.2592  -17.2096   26.6740 C   0  0  0  0  0  0  0  0  0  0  0  0
   11.6263  -17.5806   27.9645 O   0  0  0  0  0  0  0  0  0  0  0  0
   12.0794  -16.4903   26.0510 O   0  0  0  0  0  0  0  0  0  0  0  0
  2  1  1  0
  3  2  1  0
  3  4  1  6
  5  6  2  0
  5  3  1  0
  8  7  1  1
  8 10  1  0
  8  9  1  0
 11 10  1  1
 11 12  1  0
 12  5  1  0
 13 11  1  0
 14 13  2  0
 15 13  1  0
 16 17  1  6
 16 15  1  0
 18 17  1  0
 19 18  1  0
 20 19  1  0
 20 21  1  0
 22 23  1  0
 22 16  1  0
 24 22  2  0
M  END
$$$$
