SLK.pdb
     RDKit          3D

 24 23  0  0  1  0  0  0  0  0999 V2000
    9.9711  -20.3067   20.0417 O   0  0  0  0  0  0  0  0  0  0  0  0
    8.8282  -20.3105   19.2442 C   0  0  0  0  0  0  0  0  0  0  0  0
    8.8887  -19.1679   18.2214 C   0  0  2  0  0  0  0  0  0  0  0  0
    9.8029  -19.4677   17.1615 N   0  0  0  0  0  0  0  0  0  0  0  0
    9.2912  -17.9521   18.9988 C   0  0  0  0  0  0  0  0  0  0  0  0
   10.5446  -17.6971   18.9524 O   0  0  0  0  0  0  0  0  0  0  0  0
    8.1356  -12.5557   19.8796 C   0  0  0  0  0  0  0  0  0  0  0  0
    8.0572  -13.5999   20.9666 C   0  0  1  0  0  0  0  0  0  0  0  0
    6.8765  -13.1730   21.8536 C   0  0  0  0  0  0  0  0  0  0  0  0
    7.7404  -14.9256   20.4152 C   0  0  0  0  0  0  0  0  0  0  0  0
    8.8164  -15.9484   20.3446 C   0  0  2  0  0  0  0  0  0  0  0  0
    8.3813  -17.1631   19.7130 N   0  0  0  0  0  0  0  0  0  0  0  0
    9.5196  -16.2465   21.6096 C   0  0  0  0  0  0  0  0  0  0  0  0
    9.2268  -17.3279   22.2300 O   0  0  0  0  0  0  0  0  0  0  0  0
   10.5048  -15.4516   22.2237 N   0  0  0  0  0  0  0  0  0  0  0  0
   11.4458  -15.9076   23.2043 C   0  0  1  0  0  0  0  0  0  0  0  0
   10.7673  -16.9510   24.0731 C   0  0  0  0  0  0  0  0  0  0  0  0
   11.7152  -17.5345   25.0873 C   0  0  0  0  0  0  0  0  0  0  0  0
   11.1011  -18.6771   25.8586 C   0  0  0  0  0  0  0  0  0  0  0  0
   12.0835  -19.3677   26.7660 C   0  0  0  0  0  0  0  0  0  0  0  0
   11.3847  -20.4745   27.3962 N   0  0  0  0  0  0  0  0  0  0  0  0
   12.7382  -16.3568   22.6910 C   0  0  0  0  0  0  0  0  0  0  0  0
   13.8303  -15.5181   22.8953 O   0  0  0  0  0  0  0  0  0  0  0  0
   12.9714  -17.4290   22.0791 O   0  0  0  0  0  0  0  0  0  0  0  0
  2  1  1  0
  3  2  1  0
  3  4  1  6
  5  6  2  0
  5  3  1  0
  8  7  1  6
  8 10  1  0
  8  9  1  0
 11 10  1  1
 11 12  1  0
 12  5  1  0
 13 11  1  0
 14 13  2  0
 15 13  1  0
 16 17  1  6
 16 15  1  0
 18 17  1  0
 19 18  1  0
 20 19  1  0
 20 21  1  0
 22 23  1  0
 22 16  1  0
 24 22  2  0
M  END
$$$$
