SLK.pdb
     RDKit          3D

 24 23  0  0  1  0  0  0  0  0999 V2000
    7.3994  -17.5061   22.8611 O   0  0  0  0  0  0  0  0  0  0  0  0
    6.7220  -16.5668   22.0857 C   0  0  0  0  0  0  0  0  0  0  0  0
    7.6066  -15.3355   21.8474 C   0  0  2  0  0  0  0  0  0  0  0  0
    8.6626  -15.6255   20.9256 N   0  0  0  0  0  0  0  0  0  0  0  0
    8.1180  -14.9391   23.1986 C   0  0  0  0  0  0  0  0  0  0  0  0
    9.3681  -15.1570   23.3655 O   0  0  0  0  0  0  0  0  0  0  0  0
    5.6178  -11.1390   26.4797 C   0  0  0  0  0  0  0  0  0  0  0  0
    6.5540  -11.9311   25.5996 C   0  0  1  0  0  0  0  0  0  0  0  0
    7.7791  -11.0258   25.3938 C   0  0  0  0  0  0  0  0  0  0  0  0
    7.0152  -13.1548   26.2718 C   0  0  0  0  0  0  0  0  0  0  0  0
    7.8338  -14.1292   25.5040 C   0  0  2  0  0  0  0  0  0  0  0  0
    7.3049  -14.3801   24.1920 N   0  0  0  0  0  0  0  0  0  0  0  0
    8.1477  -15.4015   26.1869 C   0  0  0  0  0  0  0  0  0  0  0  0
    8.8581  -15.3630   27.2518 O   0  0  0  0  0  0  0  0  0  0  0  0
    7.7385  -16.6865   25.7859 N   0  0  0  0  0  0  0  0  0  0  0  0
    8.1221  -17.9142   26.4190 C   0  0  1  0  0  0  0  0  0  0  0  0
    7.3517  -19.0503   25.7715 C   0  0  0  0  0  0  0  0  0  0  0  0
    7.6051  -20.3627   26.4650 C   0  0  0  0  0  0  0  0  0  0  0  0
    6.9226  -21.5190   25.7761 C   0  0  0  0  0  0  0  0  0  0  0  0
    7.1768  -22.8388   26.4537 C   0  0  0  0  0  0  0  0  0  0  0  0
    6.6389  -23.8772   25.5919 N   0  0  0  0  0  0  0  0  0  0  0  0
    9.5581  -18.1764   26.4897 C   0  0  0  0  0  0  0  0  0  0  0  0
   10.0234  -18.8747   27.6004 O   0  0  0  0  0  0  0  0  0  0  0  0
   10.4258  -17.8358   25.6474 O   0  0  0  0  0  0  0  0  0  0  0  0
  2  1  1  0
  3  2  1  0
  3  4  1  6
  5  6  2  0
  5  3  1  0
  8  7  1  1
  8 10  1  0
  8  9  1  0
 11 10  1  1
 11 12  1  0
 12  5  1  0
 13 11  1  0
 14 13  2  0
 15 13  1  0
 16 17  1  6
 16 15  1  0
 18 17  1  0
 19 18  1  0
 20 19  1  0
 20 21  1  0
 22 23  1  0
 22 16  1  0
 24 22  2  0
M  END
$$$$
