SLK.pdb
     RDKit          3D

 24 23  0  0  1  0  0  0  0  0999 V2000
    8.7212  -14.0851   20.4668 O   0  0  0  0  0  0  0  0  0  0  0  0
    9.2513  -15.3636   20.6311 C   0  0  0  0  0  0  0  0  0  0  0  0
    8.3780  -16.1828   21.5910 C   0  0  2  0  0  0  0  0  0  0  0  0
    6.9891  -16.0488   21.2718 N   0  0  0  0  0  0  0  0  0  0  0  0
    8.7022  -15.6759   22.9630 C   0  0  0  0  0  0  0  0  0  0  0  0
    9.9527  -15.6782   23.2357 O   0  0  0  0  0  0  0  0  0  0  0  0
    5.6362  -11.9073   26.0084 C   0  0  0  0  0  0  0  0  0  0  0  0
    6.7719  -12.5687   25.2661 C   0  0  1  0  0  0  0  0  0  0  0  0
    8.0066  -11.7010   25.5591 C   0  0  0  0  0  0  0  0  0  0  0  0
    7.0427  -13.9157   25.7898 C   0  0  0  0  0  0  0  0  0  0  0  0
    8.1125  -14.7296   25.1558 C   0  0  2  0  0  0  0  0  0  0  0  0
    7.7280  -15.2381   23.8684 N   0  0  0  0  0  0  0  0  0  0  0  0
    8.6934  -15.8062   25.9846 C   0  0  0  0  0  0  0  0  0  0  0  0
    7.9571  -16.8103   26.2838 O   0  0  0  0  0  0  0  0  0  0  0  0
   10.0043  -15.8519   26.4936 N   0  0  0  0  0  0  0  0  0  0  0  0
   10.5441  -16.9063   27.3009 C   0  0  1  0  0  0  0  0  0  0  0  0
   11.8028  -17.4278   26.6321 C   0  0  0  0  0  0  0  0  0  0  0  0
   12.3446  -18.6447   27.3344 C   0  0  0  0  0  0  0  0  0  0  0  0
   13.6295  -19.1409   26.7177 C   0  0  0  0  0  0  0  0  0  0  0  0
   14.1155  -20.4274   27.3293 C   0  0  0  0  0  0  0  0  0  0  0  0
   15.2884  -20.8452   26.5808 N   0  0  0  0  0  0  0  0  0  0  0  0
   10.7467  -16.5912   28.7135 C   0  0  0  0  0  0  0  0  0  0  0  0
   10.8964  -17.6628   29.5893 O   0  0  0  0  0  0  0  0  0  0  0  0
   10.8006  -15.4458   29.2269 O   0  0  0  0  0  0  0  0  0  0  0  0
  2  1  1  0
  3  2  1  0
  3  4  1  6
  5  6  2  0
  5  3  1  0
  8  7  1  1
  8 10  1  0
  8  9  1  0
 11 10  1  1
 11 12  1  0
 12  5  1  0
 13 11  1  0
 14 13  2  0
 15 13  1  0
 16 17  1  6
 16 15  1  0
 18 17  1  0
 19 18  1  0
 20 19  1  0
 20 21  1  0
 22 23  1  0
 22 16  1  0
 24 22  2  0
M  END
$$$$
