SLK.pdb
     RDKit          3D

 24 23  0  0  1  0  0  0  0  0999 V2000
    8.7582  -18.1784   22.7575 O   0  0  0  0  0  0  0  0  0  0  0  0
    7.9343  -17.5716   21.8112 C   0  0  0  0  0  0  0  0  0  0  0  0
    8.4268  -16.1495   21.5101 C   0  0  2  0  0  0  0  0  0  0  0  0
    9.5953  -16.1689   20.6837 N   0  0  0  0  0  0  0  0  0  0  0  0
    8.6796  -15.5194   22.8456 C   0  0  0  0  0  0  0  0  0  0  0  0
    9.9171  -15.4614   23.1668 O   0  0  0  0  0  0  0  0  0  0  0  0
    7.8986  -11.3161   26.0948 C   0  0  0  0  0  0  0  0  0  0  0  0
    7.0795  -12.5310   26.4574 C   0  0  1  0  0  0  0  0  0  0  0  0
    5.7059  -11.9828   26.8765 C   0  0  0  0  0  0  0  0  0  0  0  0
    6.8715  -13.4046   25.2932 C   0  0  0  0  0  0  0  0  0  0  0  0
    7.9756  -14.3023   24.8641 C   0  0  2  0  0  0  0  0  0  0  0  0
    7.6569  -15.0362   23.6709 N   0  0  0  0  0  0  0  0  0  0  0  0
    8.5222  -15.2068   25.8970 C   0  0  0  0  0  0  0  0  0  0  0  0
    8.9169  -14.6997   27.0047 O   0  0  0  0  0  0  0  0  0  0  0  0
    8.6584  -16.6034   25.7953 N   0  0  0  0  0  0  0  0  0  0  0  0
    9.2485  -17.4535   26.7873 C   0  0  1  0  0  0  0  0  0  0  0  0
    9.1948  -18.8855   26.2870 C   0  0  0  0  0  0  0  0  0  0  0  0
    9.7280  -19.8540   27.3094 C   0  0  0  0  0  0  0  0  0  0  0  0
    9.7316  -21.2772   26.8072 C   0  0  0  0  0  0  0  0  0  0  0  0
   10.3535  -22.2416   27.7810 C   0  0  0  0  0  0  0  0  0  0  0  0
   10.3590  -23.5498   27.1493 N   0  0  0  0  0  0  0  0  0  0  0  0
   10.5803  -17.0685   27.2499 C   0  0  0  0  0  0  0  0  0  0  0  0
   11.5091  -16.7014   26.2802 O   0  0  0  0  0  0  0  0  0  0  0  0
   10.9803  -17.0331   28.4403 O   0  0  0  0  0  0  0  0  0  0  0  0
  2  1  1  0
  3  2  1  0
  3  4  1  6
  5  6  2  0
  5  3  1  0
  8  7  1  6
  8 10  1  0
  8  9  1  0
 11 10  1  1
 11 12  1  0
 12  5  1  0
 13 11  1  0
 14 13  2  0
 15 13  1  0
 16 17  1  6
 16 15  1  0
 18 17  1  0
 19 18  1  0
 20 19  1  0
 20 21  1  0
 22 23  1  0
 22 16  1  0
 24 22  2  0
M  END
$$$$
