SLK.pdb
     RDKit          3D

 24 23  0  0  1  0  0  0  0  0999 V2000
    8.1152  -17.8261   21.3802 O   0  0  0  0  0  0  0  0  0  0  0  0
    6.8953  -17.1539   21.3308 C   0  0  0  0  0  0  0  0  0  0  0  0
    7.1126  -15.6835   20.9486 C   0  0  2  0  0  0  0  0  0  0  0  0
    7.7855  -15.5681   19.6905 N   0  0  0  0  0  0  0  0  0  0  0  0
    7.8981  -15.0860   22.0757 C   0  0  0  0  0  0  0  0  0  0  0  0
    9.1479  -14.9622   21.8297 O   0  0  0  0  0  0  0  0  0  0  0  0
    5.6200  -11.9844   26.2080 C   0  0  0  0  0  0  0  0  0  0  0  0
    6.5501  -12.3660   25.0821 C   0  0  1  0  0  0  0  0  0  0  0  0
    7.5090  -11.1745   24.9279 C   0  0  0  0  0  0  0  0  0  0  0  0
    7.3589  -13.5435   25.4303 C   0  0  0  0  0  0  0  0  0  0  0  0
    8.1460  -14.2136   24.3624 C   0  0  2  0  0  0  0  0  0  0  0  0
    7.3206  -14.6967   23.2904 N   0  0  0  0  0  0  0  0  0  0  0  0
    9.0866  -15.2641   24.8044 C   0  0  0  0  0  0  0  0  0  0  0  0
    8.6766  -16.4770   24.8335 O   0  0  0  0  0  0  0  0  0  0  0  0
   10.4214  -15.0732   25.2061 N   0  0  0  0  0  0  0  0  0  0  0  0
   11.3024  -16.1034   25.6726 C   0  0  1  0  0  0  0  0  0  0  0  0
   10.7773  -16.6210   26.9992 C   0  0  0  0  0  0  0  0  0  0  0  0
   10.8884  -15.5845   28.0859 C   0  0  0  0  0  0  0  0  0  0  0  0
   10.3443  -16.0738   29.4058 C   0  0  0  0  0  0  0  0  0  0  0  0
   10.4008  -15.0288   30.4875 C   0  0  0  0  0  0  0  0  0  0  0  0
    9.8287  -15.6170   31.6864 N   0  0  0  0  0  0  0  0  0  0  0  0
   11.5907  -17.1770   24.7239 C   0  0  0  0  0  0  0  0  0  0  0  0
   12.3134  -16.8406   23.5827 O   0  0  0  0  0  0  0  0  0  0  0  0
   11.2529  -18.3825   24.8290 O   0  0  0  0  0  0  0  0  0  0  0  0
  2  1  1  0
  3  2  1  0
  3  4  1  6
  5  6  2  0
  5  3  1  0
  8  7  1  1
  8 10  1  0
  8  9  1  0
 11 10  1  1
 11 12  1  0
 12  5  1  0
 13 11  1  0
 14 13  2  0
 15 13  1  0
 16 17  1  1
 16 15  1  0
 18 17  1  0
 19 18  1  0
 20 19  1  0
 20 21  1  0
 22 23  1  0
 22 16  1  0
 24 22  2  0
M  END
$$$$
