SLK.pdb
     RDKit          3D

 24 23  0  0  1  0  0  0  0  0999 V2000
    7.1551  -17.5204   21.2028 O   0  0  0  0  0  0  0  0  0  0  0  0
    6.4911  -16.4056   20.6940 C   0  0  0  0  0  0  0  0  0  0  0  0
    7.4728  -15.2411   20.5059 C   0  0  2  0  0  0  0  0  0  0  0  0
    8.5650  -15.6143   19.6593 N   0  0  0  0  0  0  0  0  0  0  0  0
    7.9196  -14.8638   21.8851 C   0  0  0  0  0  0  0  0  0  0  0  0
    9.1165  -15.2241   22.1603 O   0  0  0  0  0  0  0  0  0  0  0  0
    8.2547  -11.7572   26.3518 C   0  0  0  0  0  0  0  0  0  0  0  0
    7.0237  -12.6250   26.2520 C   0  0  1  0  0  0  0  0  0  0  0  0
    5.8750  -11.7625   26.7995 C   0  0  0  0  0  0  0  0  0  0  0  0
    6.7072  -12.9480   24.8529 C   0  0  0  0  0  0  0  0  0  0  0  0
    7.5668  -13.9212   24.1298 C   0  0  2  0  0  0  0  0  0  0  0  0
    7.1043  -14.1788   22.7943 N   0  0  0  0  0  0  0  0  0  0  0  0
    7.8524  -15.1897   24.8319 C   0  0  0  0  0  0  0  0  0  0  0  0
    6.9251  -16.0702   24.9020 O   0  0  0  0  0  0  0  0  0  0  0  0
    9.0660  -15.5477   25.4473 N   0  0  0  0  0  0  0  0  0  0  0  0
    9.3578  -16.8275   26.0233 C   0  0  1  0  0  0  0  0  0  0  0  0
   10.0070  -17.6961   24.9613 C   0  0  0  0  0  0  0  0  0  0  0  0
   10.3356  -19.0683   25.4872 C   0  0  0  0  0  0  0  0  0  0  0  0
   11.0305  -19.9275   24.4593 C   0  0  0  0  0  0  0  0  0  0  0  0
   11.2449  -21.3425   24.9253 C   0  0  0  0  0  0  0  0  0  0  0  0
   11.8815  -22.0637   23.8368 N   0  0  0  0  0  0  0  0  0  0  0  0
   10.1132  -16.8090   27.2743 C   0  0  0  0  0  0  0  0  0  0  0  0
    9.9806  -17.9115   28.1138 O   0  0  0  0  0  0  0  0  0  0  0  0
   10.8766  -15.8961   27.6769 O   0  0  0  0  0  0  0  0  0  0  0  0
  2  1  1  0
  3  2  1  0
  3  4  1  6
  5  6  2  0
  5  3  1  0
  8  7  1  6
  8 10  1  0
  8  9  1  0
 11 10  1  1
 11 12  1  0
 12  5  1  0
 13 11  1  0
 14 13  2  0
 15 13  1  0
 16 17  1  6
 16 15  1  0
 18 17  1  0
 19 18  1  0
 20 19  1  0
 20 21  1  0
 22 23  1  0
 22 16  1  0
 24 22  2  0
M  END
$$$$
