SLK.pdb
     RDKit          3D

 24 23  0  0  1  0  0  0  0  0999 V2000
    7.9907  -17.9498   21.6804 O   0  0  0  0  0  0  0  0  0  0  0  0
    7.2608  -16.9600   21.0247 C   0  0  0  0  0  0  0  0  0  0  0  0
    8.0934  -15.6765   20.9034 C   0  0  2  0  0  0  0  0  0  0  0  0
    9.3007  -15.9082   20.1701 N   0  0  0  0  0  0  0  0  0  0  0  0
    8.3537  -15.2305   22.3098 C   0  0  0  0  0  0  0  0  0  0  0  0
    9.5292  -15.5073   22.7335 O   0  0  0  0  0  0  0  0  0  0  0  0
    8.1026  -11.5646   26.3502 C   0  0  0  0  0  0  0  0  0  0  0  0
    7.0032  -12.5980   26.3079 C   0  0  1  0  0  0  0  0  0  0  0  0
    5.7249  -11.8459   26.7119 C   0  0  0  0  0  0  0  0  0  0  0  0
    6.8027  -13.1123   24.9451 C   0  0  0  0  0  0  0  0  0  0  0  0
    7.7186  -14.1655   24.4344 C   0  0  2  0  0  0  0  0  0  0  0  0
    7.3995  -14.5701   23.0933 N   0  0  0  0  0  0  0  0  0  0  0  0
    7.9037  -15.3480   25.3010 C   0  0  0  0  0  0  0  0  0  0  0  0
    7.1047  -16.3387   25.1599 O   0  0  0  0  0  0  0  0  0  0  0  0
    8.8905  -15.5105   26.2907 N   0  0  0  0  0  0  0  0  0  0  0  0
    9.3638  -16.7677   26.7912 C   0  0  1  0  0  0  0  0  0  0  0  0
    9.9445  -17.5585   25.6331 C   0  0  0  0  0  0  0  0  0  0  0  0
   10.4832  -18.8911   26.0820 C   0  0  0  0  0  0  0  0  0  0  0  0
   11.1127  -19.6679   24.9515 C   0  0  0  0  0  0  0  0  0  0  0  0
   11.7008  -20.9798   25.3969 C   0  0  0  0  0  0  0  0  0  0  0  0
   12.1152  -21.6949   24.2023 N   0  0  0  0  0  0  0  0  0  0  0  0
   10.2688  -16.7007   27.9368 C   0  0  0  0  0  0  0  0  0  0  0  0
   10.9685  -15.5123   28.1262 O   0  0  0  0  0  0  0  0  0  0  0  0
   10.4848  -17.6095   28.7769 O   0  0  0  0  0  0  0  0  0  0  0  0
  2  1  1  0
  3  2  1  0
  3  4  1  1
  5  6  2  0
  5  3  1  0
  8  7  1  6
  8 10  1  0
  8  9  1  0
 11 10  1  1
 11 12  1  0
 12  5  1  0
 13 11  1  0
 14 13  2  0
 15 13  1  0
 16 17  1  6
 16 15  1  0
 18 17  1  0
 19 18  1  0
 20 19  1  0
 20 21  1  0
 22 23  1  0
 22 16  1  0
 24 22  2  0
M  END
$$$$
