SLK.pdb
     RDKit          3D

 24 23  0  0  1  0  0  0  0  0999 V2000
    6.9171  -15.8697   19.2522 O   0  0  0  0  0  0  0  0  0  0  0  0
    7.4254  -15.7662   20.5457 C   0  0  0  0  0  0  0  0  0  0  0  0
    7.4912  -14.2944   20.9757 C   0  0  2  0  0  0  0  0  0  0  0  0
    8.2933  -13.5253   20.0735 N   0  0  0  0  0  0  0  0  0  0  0  0
    8.0449  -14.3056   22.3678 C   0  0  0  0  0  0  0  0  0  0  0  0
    9.3138  -14.4635   22.4209 O   0  0  0  0  0  0  0  0  0  0  0  0
    5.7027  -11.7807   26.8349 C   0  0  0  0  0  0  0  0  0  0  0  0
    6.7461  -12.1968   25.8267 C   0  0  1  0  0  0  0  0  0  0  0  0
    8.0403  -11.4963   26.2710 C   0  0  0  0  0  0  0  0  0  0  0  0
    6.9886  -13.6463   25.8728 C   0  0  0  0  0  0  0  0  0  0  0  0
    7.8332  -14.2657   24.8183 C   0  0  2  0  0  0  0  0  0  0  0  0
    7.2492  -14.1571   23.5103 N   0  0  0  0  0  0  0  0  0  0  0  0
    8.2835  -15.6504   25.0702 C   0  0  0  0  0  0  0  0  0  0  0  0
    7.4307  -16.5990   24.9580 O   0  0  0  0  0  0  0  0  0  0  0  0
    9.5834  -16.0527   25.4278 N   0  0  0  0  0  0  0  0  0  0  0  0
    9.9878  -17.3998   25.7050 C   0  0  1  0  0  0  0  0  0  0  0  0
   11.1232  -17.7639   24.7659 C   0  0  0  0  0  0  0  0  0  0  0  0
   11.6042  -19.1729   24.9920 C   0  0  0  0  0  0  0  0  0  0  0  0
   12.7321  -19.5520   24.0637 C   0  0  0  0  0  0  0  0  0  0  0  0
   13.2364  -20.9514   24.2938 C   0  0  0  0  0  0  0  0  0  0  0  0
   14.2580  -21.2119   23.2944 N   0  0  0  0  0  0  0  0  0  0  0  0
   10.2939  -17.7017   27.1017 C   0  0  0  0  0  0  0  0  0  0  0  0
   10.7477  -16.6515   27.8949 O   0  0  0  0  0  0  0  0  0  0  0  0
   10.1904  -18.8180   27.6686 O   0  0  0  0  0  0  0  0  0  0  0  0
  2  1  1  0
  3  2  1  0
  3  4  1  6
  5  6  2  0
  5  3  1  0
  8  7  1  1
  8 10  1  0
  8  9  1  0
 11 10  1  1
 11 12  1  0
 12  5  1  0
 13 11  1  0
 14 13  2  0
 15 13  1  0
 16 17  1  6
 16 15  1  0
 18 17  1  0
 19 18  1  0
 20 19  1  0
 20 21  1  0
 22 23  1  0
 22 16  1  0
 24 22  2  0
M  END
$$$$
