SLK.pdb
     RDKit          3D

 24 23  0  0  1  0  0  0  0  0999 V2000
    8.8663  -17.8295   22.3019 O   0  0  0  0  0  0  0  0  0  0  0  0
    7.8868  -17.1830   21.5502 C   0  0  0  0  0  0  0  0  0  0  0  0
    8.3870  -15.8050   21.0962 C   0  0  2  0  0  0  0  0  0  0  0  0
    9.5734  -15.9187   20.3034 N   0  0  0  0  0  0  0  0  0  0  0  0
    8.6110  -15.0229   22.3542 C   0  0  0  0  0  0  0  0  0  0  0  0
    9.8421  -14.7716   22.5974 O   0  0  0  0  0  0  0  0  0  0  0  0
    7.7568  -11.3702   26.2417 C   0  0  0  0  0  0  0  0  0  0  0  0
    6.8195  -12.5524   26.2900 C   0  0  1  0  0  0  0  0  0  0  0  0
    5.4440  -11.9641   26.6434 C   0  0  0  0  0  0  0  0  0  0  0  0
    6.7009  -13.1970   24.9739 C   0  0  0  0  0  0  0  0  0  0  0  0
    7.8616  -13.9569   24.4406 C   0  0  2  0  0  0  0  0  0  0  0  0
    7.5700  -14.6030   23.1911 N   0  0  0  0  0  0  0  0  0  0  0  0
    8.5084  -14.9030   25.3734 C   0  0  0  0  0  0  0  0  0  0  0  0
    8.9970  -14.4453   26.4651 O   0  0  0  0  0  0  0  0  0  0  0  0
    8.6484  -16.2909   25.1900 N   0  0  0  0  0  0  0  0  0  0  0  0
    9.3553  -17.1763   26.0683 C   0  0  1  0  0  0  0  0  0  0  0  0
    9.3666  -18.5614   25.4477 C   0  0  0  0  0  0  0  0  0  0  0  0
   10.0674  -19.5616   26.3286 C   0  0  0  0  0  0  0  0  0  0  0  0
   10.1739  -20.9218   25.6833 C   0  0  0  0  0  0  0  0  0  0  0  0
   10.9791  -21.8970   26.4994 C   0  0  0  0  0  0  0  0  0  0  0  0
   10.8704  -23.1936   25.8534 N   0  0  0  0  0  0  0  0  0  0  0  0
   10.6846  -16.7362   26.4867 C   0  0  0  0  0  0  0  0  0  0  0  0
   10.9109  -16.6072   27.8542 O   0  0  0  0  0  0  0  0  0  0  0  0
   11.6541  -16.4592   25.7372 O   0  0  0  0  0  0  0  0  0  0  0  0
  2  1  1  0
  3  2  1  0
  3  4  1  1
  5  6  2  0
  5  3  1  0
  8  7  1  6
  8 10  1  0
  8  9  1  0
 11 10  1  1
 11 12  1  0
 12  5  1  0
 13 11  1  0
 14 13  2  0
 15 13  1  0
 16 17  1  6
 16 15  1  0
 18 17  1  0
 19 18  1  0
 20 19  1  0
 20 21  1  0
 22 23  1  0
 22 16  1  0
 24 22  2  0
M  END
$$$$
