SLK.pdb
     RDKit          3D

 24 23  0  0  1  0  0  0  0  0999 V2000
    8.9715  -20.6114   17.9063 O   0  0  0  0  0  0  0  0  0  0  0  0
    8.6475  -19.4540   18.6118 C   0  0  0  0  0  0  0  0  0  0  0  0
    8.9036  -18.2132   17.7456 C   0  0  2  0  0  0  0  0  0  0  0  0
    9.8242  -18.4996   16.6876 N   0  0  0  0  0  0  0  0  0  0  0  0
    9.4177  -17.1653   18.6847 C   0  0  0  0  0  0  0  0  0  0  0  0
   10.6922  -17.0480   18.6850 O   0  0  0  0  0  0  0  0  0  0  0  0
    6.4102  -12.8325   20.6435 C   0  0  0  0  0  0  0  0  0  0  0  0
    7.5368  -13.6158   20.0147 C   0  0  1  0  0  0  0  0  0  0  0  0
    8.5779  -12.5642   19.5986 C   0  0  0  0  0  0  0  0  0  0  0  0
    8.1768  -14.5114   20.9894 C   0  0  0  0  0  0  0  0  0  0  0  0
    9.1440  -15.5287   20.5009 C   0  0  2  0  0  0  0  0  0  0  0  0
    8.5825  -16.3825   19.4911 N   0  0  0  0  0  0  0  0  0  0  0  0
    9.8272  -16.3321   21.5360 C   0  0  0  0  0  0  0  0  0  0  0  0
    9.1671  -17.2596   22.1225 O   0  0  0  0  0  0  0  0  0  0  0  0
   11.1614  -16.1875   21.9584 N   0  0  0  0  0  0  0  0  0  0  0  0
   11.8086  -16.9929   22.9522 C   0  0  1  0  0  0  0  0  0  0  0  0
   12.3780  -18.2263   22.2754 C   0  0  0  0  0  0  0  0  0  0  0  0
   12.9320  -19.2060   23.2759 C   0  0  0  0  0  0  0  0  0  0  0  0
   13.5257  -20.4274   22.6176 C   0  0  0  0  0  0  0  0  0  0  0  0
   13.9400  -21.4840   23.6062 C   0  0  0  0  0  0  0  0  0  0  0  0
   14.5129  -22.5832   22.8485 N   0  0  0  0  0  0  0  0  0  0  0  0
   12.7895  -16.3081   23.7916 C   0  0  0  0  0  0  0  0  0  0  0  0
   13.0675  -16.8715   25.0339 O   0  0  0  0  0  0  0  0  0  0  0  0
   13.4145  -15.2555   23.5095 O   0  0  0  0  0  0  0  0  0  0  0  0
  2  1  1  0
  3  2  1  0
  3  4  1  6
  5  6  2  0
  5  3  1  0
  8  7  1  1
  8 10  1  0
  8  9  1  0
 11 10  1  1
 11 12  1  0
 12  5  1  0
 13 11  1  0
 14 13  2  0
 15 13  1  0
 16 17  1  6
 16 15  1  0
 18 17  1  0
 19 18  1  0
 20 19  1  0
 20 21  1  0
 22 23  1  0
 22 16  1  0
 24 22  2  0
M  END
$$$$
