SLK.pdb
     RDKit          3D

 24 23  0  0  1  0  0  0  0  0999 V2000
    7.1303  -17.0313   20.6991 O   0  0  0  0  0  0  0  0  0  0  0  0
    6.3736  -15.8796   20.4907 C   0  0  0  0  0  0  0  0  0  0  0  0
    7.2839  -14.6448   20.4479 C   0  0  2  0  0  0  0  0  0  0  0  0
    8.3260  -14.8014   19.4792 N   0  0  0  0  0  0  0  0  0  0  0  0
    7.8143  -14.4867   21.8400 C   0  0  0  0  0  0  0  0  0  0  0  0
    9.0155  -14.9028   21.9887 O   0  0  0  0  0  0  0  0  0  0  0  0
    8.3437  -12.0139   26.7463 C   0  0  0  0  0  0  0  0  0  0  0  0
    7.1698  -12.9407   26.5428 C   0  0  1  0  0  0  0  0  0  0  0  0
    6.0012  -12.2852   27.2962 C   0  0  0  0  0  0  0  0  0  0  0  0
    6.7916  -13.0237   25.1243 C   0  0  0  0  0  0  0  0  0  0  0  0
    7.6270  -13.8413   24.2064 C   0  0  2  0  0  0  0  0  0  0  0  0
    7.0666  -13.9341   22.8869 N   0  0  0  0  0  0  0  0  0  0  0  0
    8.0203  -15.1788   24.6964 C   0  0  0  0  0  0  0  0  0  0  0  0
    7.1438  -16.1125   24.6906 O   0  0  0  0  0  0  0  0  0  0  0  0
    9.2881  -15.5504   25.1802 N   0  0  0  0  0  0  0  0  0  0  0  0
    9.6692  -16.8744   25.5763 C   0  0  1  0  0  0  0  0  0  0  0  0
   10.4380  -17.5151   24.4352 C   0  0  0  0  0  0  0  0  0  0  0  0
   10.8975  -18.9061   24.7839 C   0  0  0  0  0  0  0  0  0  0  0  0
   11.6204  -19.5769   23.6414 C   0  0  0  0  0  0  0  0  0  0  0  0
   12.0653  -20.9768   23.9695 C   0  0  0  0  0  0  0  0  0  0  0  0
   12.8379  -21.4605   22.8384 N   0  0  0  0  0  0  0  0  0  0  0  0
   10.3664  -16.9838   26.8560 C   0  0  0  0  0  0  0  0  0  0  0  0
    9.9983  -18.0332   27.6934 O   0  0  0  0  0  0  0  0  0  0  0  0
   11.2709  -16.2249   27.2855 O   0  0  0  0  0  0  0  0  0  0  0  0
  2  1  1  0
  3  2  1  0
  3  4  1  6
  5  6  2  0
  5  3  1  0
  8  7  1  6
  8 10  1  0
  8  9  1  0
 11 10  1  1
 11 12  1  0
 12  5  1  0
 13 11  1  0
 14 13  2  0
 15 13  1  0
 16 17  1  6
 16 15  1  0
 18 17  1  0
 19 18  1  0
 20 19  1  0
 20 21  1  0
 22 23  1  0
 22 16  1  0
 24 22  2  0
M  END
$$$$
