HWP.pdb
     RDKit          3D

 32 35  0  0  1  0  0  0  0  0999 V2000
    9.7206  -18.0046   21.7846 N   0  0  0  0  0  0  0  0  0  0  0  0
   10.3993  -16.7242   21.6942 C   0  0  1  0  0  0  0  0  0  0  0  0
    9.8652  -15.9004   20.5687 C   0  0  0  0  0  0  0  0  0  0  0  0
   10.0646  -16.6205   19.2849 C   0  0  0  0  0  0  0  0  0  0  0  0
   10.5875  -17.8745   19.1266 C   0  0  0  0  0  0  0  0  0  0  0  0
   10.5835  -18.1268   17.8037 N   0  0  0  0  0  0  0  0  0  0  0  0
   10.0676  -17.0463   17.1695 C   0  0  0  0  0  0  0  0  0  0  0  0
    9.7529  -16.1279   18.0924 N   0  0  0  0  0  0  0  0  0  0  0  0
   10.1589  -15.9883   22.9689 C   0  0  0  0  0  0  0  0  0  0  0  0
   10.4732  -14.7586   23.0847 O   0  0  0  0  0  0  0  0  0  0  0  0
    9.5809  -16.5912   24.1048 N   0  0  0  0  0  0  0  0  0  0  0  0
    9.5726  -15.8677   25.4111 C   0  0  1  0  0  0  0  0  0  0  0  0
    8.1914  -16.1966   25.9373 C   0  0  0  0  0  0  0  0  0  0  0  0
    7.0727  -15.4273   25.4760 C   0  0  0  0  0  0  0  0  0  0  0  0
    5.9188  -15.8540   24.8306 C   0  0  0  0  0  0  0  0  0  0  0  0
    5.1250  -14.8068   24.5660 N   0  0  0  0  0  0  0  0  0  0  0  0
    5.7272  -13.6992   25.0212 C   0  0  0  0  0  0  0  0  0  0  0  0
    5.3744  -12.3638   25.0193 C   0  0  0  0  0  0  0  0  0  0  0  0
    6.1943  -11.4013   25.5655 C   0  0  0  0  0  0  0  0  0  0  0  0
    7.3826  -11.7466   26.1251 C   0  0  0  0  0  0  0  0  0  0  0  0
    7.7445  -13.0718   26.1331 C   0  0  0  0  0  0  0  0  0  0  0  0
    6.9206  -14.0566   25.5819 C   0  0  0  0  0  0  0  0  0  0  0  0
   10.5955  -16.5993   26.2279 C   0  0  0  0  0  0  0  0  0  0  0  0
   10.9741  -17.7302   25.8055 O   0  0  0  0  0  0  0  0  0  0  0  0
   11.0838  -16.0129   27.4024 N   0  0  0  0  0  0  0  0  0  0  0  0
   11.3013  -14.5565   27.5607 C   0  0  0  0  0  0  0  0  0  0  0  0
   10.8920  -14.2772   28.9891 C   0  0  0  0  0  0  0  0  0  0  0  0
   10.7065  -15.6438   29.6119 C   0  0  0  0  0  0  0  0  0  0  0  0
   11.5709  -16.4968   28.6625 C   0  0  1  0  0  0  0  0  0  0  0  0
   11.4987  -17.8994   28.9631 C   0  0  0  0  0  0  0  0  0  0  0  0
   10.2981  -18.5604   28.5844 O   0  0  0  0  0  0  0  0  0  0  0  0
   12.3244  -18.6330   29.5057 O   0  0  0  0  0  0  0  0  0  0  0  0
  2  1  1  1
  2  3  1  0
  3  4  1  0
  4  8  1  0
  5  4  2  0
  5  6  1  0
  6  7  1  0
  8  7  2  0
  9 10  2  0
  9  2  1  0
 11  9  1  0
 12 11  1  0
 12 13  1  1
 13 14  1  0
 14 15  2  0
 14 22  1  0
 15 16  1  0
 16 17  1  0
 17 18  2  0
 19 18  1  0
 20 19  2  0
 21 22  2  0
 21 20  1  0
 22 17  1  0
 23 12  1  0
 24 23  2  0
 25 29  1  0
 25 23  1  0
 26 25  1  0
 27 28  1  0
 27 26  1  0
 28 29  1  0
 29 30  1  6
 30 32  2  0
 30 31  1  0
M  END
$$$$
