HWP.pdb
     RDKit          3D

 32 35  0  0  1  0  0  0  0  0999 V2000
    9.2204  -15.9360   20.5881 N   0  0  0  0  0  0  0  0  0  0  0  0
   10.1806  -16.5664   21.4762 C   0  0  1  0  0  0  0  0  0  0  0  0
   11.5823  -16.3515   21.0072 C   0  0  0  0  0  0  0  0  0  0  0  0
   11.8534  -17.2184   19.8318 C   0  0  0  0  0  0  0  0  0  0  0  0
   11.3535  -17.0585   18.5688 C   0  0  0  0  0  0  0  0  0  0  0  0
   11.8571  -18.0638   17.8275 N   0  0  0  0  0  0  0  0  0  0  0  0
   12.6487  -18.8207   18.6252 C   0  0  0  0  0  0  0  0  0  0  0  0
   12.6371  -18.2894   19.8547 N   0  0  0  0  0  0  0  0  0  0  0  0
   10.0361  -15.9422   22.8230 C   0  0  0  0  0  0  0  0  0  0  0  0
   10.2350  -14.6947   22.9916 O   0  0  0  0  0  0  0  0  0  0  0  0
    9.6779  -16.6750   23.9730 N   0  0  0  0  0  0  0  0  0  0  0  0
    9.5314  -15.9789   25.2860 C   0  0  1  0  0  0  0  0  0  0  0  0
    8.1367  -16.3962   25.7027 C   0  0  0  0  0  0  0  0  0  0  0  0
    7.0479  -15.4885   25.4860 C   0  0  0  0  0  0  0  0  0  0  0  0
    5.7922  -15.7353   24.9452 C   0  0  0  0  0  0  0  0  0  0  0  0
    5.0734  -14.6043   24.9149 N   0  0  0  0  0  0  0  0  0  0  0  0
    5.8245  -13.6170   25.4226 C   0  0  0  0  0  0  0  0  0  0  0  0
    5.5990  -12.2702   25.6303 C   0  0  0  0  0  0  0  0  0  0  0  0
    6.5624  -11.4552   26.1819 C   0  0  0  0  0  0  0  0  0  0  0  0
    7.7707  -11.9623   26.5388 C   0  0  0  0  0  0  0  0  0  0  0  0
    8.0068  -13.3006   26.3372 C   0  0  0  0  0  0  0  0  0  0  0  0
    7.0368  -14.1367   25.7784 C   0  0  0  0  0  0  0  0  0  0  0  0
   10.5322  -16.6669   26.1656 C   0  0  0  0  0  0  0  0  0  0  0  0
   10.8598  -17.8492   25.8567 O   0  0  0  0  0  0  0  0  0  0  0  0
   11.0568  -15.9864   27.2718 N   0  0  0  0  0  0  0  0  0  0  0  0
   11.3741  -14.5399   27.2677 C   0  0  0  0  0  0  0  0  0  0  0  0
   10.9812  -14.0738   28.6512 C   0  0  0  0  0  0  0  0  0  0  0  0
   10.6999  -15.3453   29.4217 C   0  0  0  0  0  0  0  0  0  0  0  0
   11.5058  -16.3573   28.5833 C   0  0  1  0  0  0  0  0  0  0  0  0
   11.3358  -17.7087   29.0389 C   0  0  0  0  0  0  0  0  0  0  0  0
   12.2466  -18.1530   30.0363 O   0  0  0  0  0  0  0  0  0  0  0  0
   10.5135  -18.5582   28.6976 O   0  0  0  0  0  0  0  0  0  0  0  0
  2  1  1  6
  2  3  1  0
  3  4  1  0
  4  8  1  0
  5  4  2  0
  5  6  1  0
  6  7  1  0
  8  7  2  0
  9 10  2  0
  9  2  1  0
 11  9  1  0
 12 11  1  0
 12 13  1  1
 13 14  1  0
 14 15  2  0
 14 22  1  0
 15 16  1  0
 16 17  1  0
 17 18  2  0
 19 18  1  0
 20 19  2  0
 21 22  2  0
 21 20  1  0
 22 17  1  0
 23 12  1  0
 24 23  2  0
 25 29  1  0
 25 23  1  0
 26 25  1  0
 27 28  1  0
 27 26  1  0
 28 29  1  0
 29 30  1  1
 30 32  2  0
 30 31  1  0
M  END
$$$$
