HWP.pdb
     RDKit          3D

 32 35  0  0  1  0  0  0  0  0999 V2000
    8.6665  -17.8937   21.5088 N   0  0  0  0  0  0  0  0  0  0  0  0
    8.9430  -16.4939   21.2401 C   0  0  1  0  0  0  0  0  0  0  0  0
    7.8335  -15.8551   20.4709 C   0  0  0  0  0  0  0  0  0  0  0  0
    8.3229  -14.6056   19.8339 C   0  0  0  0  0  0  0  0  0  0  0  0
    9.4587  -14.4635   19.0852 C   0  0  0  0  0  0  0  0  0  0  0  0
    9.5110  -13.1709   18.7105 N   0  0  0  0  0  0  0  0  0  0  0  0
    8.4269  -12.5392   19.2219 C   0  0  0  0  0  0  0  0  0  0  0  0
    7.7052  -13.4333   19.9103 N   0  0  0  0  0  0  0  0  0  0  0  0
    9.0690  -15.7930   22.5505 C   0  0  0  0  0  0  0  0  0  0  0  0
    9.3410  -14.5491   22.6046 O   0  0  0  0  0  0  0  0  0  0  0  0
    8.8994  -16.4460   23.7885 N   0  0  0  0  0  0  0  0  0  0  0  0
    9.1748  -15.7158   25.0616 C   0  0  1  0  0  0  0  0  0  0  0  0
    7.9249  -16.0111   25.8636 C   0  0  0  0  0  0  0  0  0  0  0  0
    6.8473  -15.0653   25.8409 C   0  0  0  0  0  0  0  0  0  0  0  0
    5.4811  -15.2919   25.7297 C   0  0  0  0  0  0  0  0  0  0  0  0
    4.8184  -14.1268   25.7433 N   0  0  0  0  0  0  0  0  0  0  0  0
    5.7143  -13.1367   25.8609 C   0  0  0  0  0  0  0  0  0  0  0  0
    5.5993  -11.7618   25.9249 C   0  0  0  0  0  0  0  0  0  0  0  0
    6.7060  -10.9512   26.0478 C   0  0  0  0  0  0  0  0  0  0  0  0
    7.9507  -11.4910   26.1096 C   0  0  0  0  0  0  0  0  0  0  0  0
    8.0779  -12.8575   26.0470 C   0  0  0  0  0  0  0  0  0  0  0  0
    6.9622  -13.6893   25.9223 C   0  0  0  0  0  0  0  0  0  0  0  0
   10.3284  -16.4656   25.6578 C   0  0  0  0  0  0  0  0  0  0  0  0
   10.6935  -17.5274   25.0747 O   0  0  0  0  0  0  0  0  0  0  0  0
   10.9460  -15.9702   26.8132 N   0  0  0  0  0  0  0  0  0  0  0  0
   11.1825  -14.5293   27.0610 C   0  0  0  0  0  0  0  0  0  0  0  0
   10.9360  -14.3664   28.5437 C   0  0  0  0  0  0  0  0  0  0  0  0
   10.8187  -15.7790   29.0733 C   0  0  0  0  0  0  0  0  0  0  0  0
   11.5701  -16.5485   27.9688 C   0  0  1  0  0  0  0  0  0  0  0  0
   11.5293  -17.9708   28.1637 C   0  0  0  0  0  0  0  0  0  0  0  0
   12.4646  -18.5031   29.0931 O   0  0  0  0  0  0  0  0  0  0  0  0
   10.8016  -18.8171   27.6454 O   0  0  0  0  0  0  0  0  0  0  0  0
  2  1  1  1
  2  3  1  0
  3  4  1  0
  4  8  1  0
  5  4  2  0
  5  6  1  0
  6  7  1  0
  8  7  2  0
  9 10  2  0
  9  2  1  0
 11  9  1  0
 12 11  1  0
 12 13  1  1
 13 14  1  0
 14 15  2  0
 14 22  1  0
 15 16  1  0
 16 17  1  0
 17 18  2  0
 19 18  1  0
 20 19  2  0
 21 22  2  0
 21 20  1  0
 22 17  1  0
 23 12  1  0
 24 23  2  0
 25 29  1  0
 25 23  1  0
 26 25  1  0
 27 28  1  0
 27 26  1  0
 28 29  1  0
 29 30  1  1
 30 32  2  0
 30 31  1  0
M  END
$$$$
