HWP.pdb
     RDKit          3D

 32 35  0  0  1  0  0  0  0  0999 V2000
    7.3276  -15.6034   21.2028 N   0  0  0  0  0  0  0  0  0  0  0  0
    8.7258  -15.3289   21.4819 C   0  0  1  0  0  0  0  0  0  0  0  0
    9.2266  -14.1726   20.6801 C   0  0  0  0  0  0  0  0  0  0  0  0
    9.1041  -14.4792   19.2319 C   0  0  0  0  0  0  0  0  0  0  0  0
    8.3330  -13.8123   18.3201 C   0  0  0  0  0  0  0  0  0  0  0  0
    8.5245  -14.4246   17.1359 N   0  0  0  0  0  0  0  0  0  0  0  0
    9.3961  -15.4447   17.3244 C   0  0  0  0  0  0  0  0  0  0  0  0
    9.7441  -15.4666   18.6177 N   0  0  0  0  0  0  0  0  0  0  0  0
    8.8441  -14.9830   22.9277 C   0  0  0  0  0  0  0  0  0  0  0  0
    8.6833  -13.7844   23.3299 O   0  0  0  0  0  0  0  0  0  0  0  0
    9.1354  -15.9382   23.9231 N   0  0  0  0  0  0  0  0  0  0  0  0
    9.3185  -15.5069   25.3409 C   0  0  1  0  0  0  0  0  0  0  0  0
    8.0179  -15.9583   25.9714 C   0  0  0  0  0  0  0  0  0  0  0  0
    6.8489  -15.1442   25.8074 C   0  0  0  0  0  0  0  0  0  0  0  0
    5.5793  -15.5062   25.3748 C   0  0  0  0  0  0  0  0  0  0  0  0
    4.7747  -14.4342   25.3599 N   0  0  0  0  0  0  0  0  0  0  0  0
    5.4827  -13.3734   25.7723 C   0  0  0  0  0  0  0  0  0  0  0  0
    5.1695  -12.0397   25.9487 C   0  0  0  0  0  0  0  0  0  0  0  0
    6.1053  -11.1329   26.3945 C   0  0  0  0  0  0  0  0  0  0  0  0
    7.3725  -11.5333   26.6746 C   0  0  0  0  0  0  0  0  0  0  0  0
    7.6960  -12.8574   26.5032 C   0  0  0  0  0  0  0  0  0  0  0  0
    6.7548  -13.7860   26.0515 C   0  0  0  0  0  0  0  0  0  0  0  0
   10.4324  -16.3801   25.8361 C   0  0  0  0  0  0  0  0  0  0  0  0
   10.7236  -17.3976   25.1428 O   0  0  0  0  0  0  0  0  0  0  0  0
   11.0954  -16.0410   27.0223 N   0  0  0  0  0  0  0  0  0  0  0  0
   11.3956  -14.6470   27.4223 C   0  0  0  0  0  0  0  0  0  0  0  0
   11.1893  -14.6422   28.9200 C   0  0  0  0  0  0  0  0  0  0  0  0
   11.0270  -16.0999   29.2922 C   0  0  0  0  0  0  0  0  0  0  0  0
   11.7215  -16.7685   28.0892 C   0  0  1  0  0  0  0  0  0  0  0  0
   11.6276  -18.2011   28.1257 C   0  0  0  0  0  0  0  0  0  0  0  0
   12.7765  -18.8926   28.5985 O   0  0  0  0  0  0  0  0  0  0  0  0
   10.6952  -18.9385   27.8074 O   0  0  0  0  0  0  0  0  0  0  0  0
  2  1  1  6
  2  3  1  0
  3  4  1  0
  4  8  1  0
  5  4  2  0
  5  6  1  0
  6  7  1  0
  8  7  2  0
  9 10  2  0
  9  2  1  0
 11  9  1  0
 12 11  1  0
 12 13  1  1
 13 14  1  0
 14 15  2  0
 14 22  1  0
 15 16  1  0
 16 17  1  0
 17 18  2  0
 19 18  1  0
 20 19  2  0
 21 22  2  0
 21 20  1  0
 22 17  1  0
 23 12  1  0
 24 23  2  0
 25 29  1  0
 25 23  1  0
 26 25  1  0
 27 28  1  0
 27 26  1  0
 28 29  1  0
 29 30  1  6
 30 32  2  0
 30 31  1  0
M  END
$$$$
