HWP.pdb
     RDKit          3D

 32 35  0  0  1  0  0  0  0  0999 V2000
    9.5744  -16.2388   20.2122 N   0  0  0  0  0  0  0  0  0  0  0  0
   10.4370  -16.7799   21.2472 C   0  0  1  0  0  0  0  0  0  0  0  0
   11.8790  -16.5533   20.9310 C   0  0  0  0  0  0  0  0  0  0  0  0
   12.2954  -17.4557   19.8270 C   0  0  0  0  0  0  0  0  0  0  0  0
   11.9597  -18.7736   19.6812 C   0  0  0  0  0  0  0  0  0  0  0  0
   12.5514  -19.1964   18.5476 N   0  0  0  0  0  0  0  0  0  0  0  0
   13.2341  -18.1546   18.0142 C   0  0  0  0  0  0  0  0  0  0  0  0
   13.0679  -17.0910   18.8111 N   0  0  0  0  0  0  0  0  0  0  0  0
   10.1202  -16.0735   22.5220 C   0  0  0  0  0  0  0  0  0  0  0  0
   10.2989  -14.8168   22.6365 O   0  0  0  0  0  0  0  0  0  0  0  0
    9.6133  -16.7349   23.6593 N   0  0  0  0  0  0  0  0  0  0  0  0
    9.3425  -15.9665   24.9108 C   0  0  1  0  0  0  0  0  0  0  0  0
    7.9339  -16.4094   25.2463 C   0  0  0  0  0  0  0  0  0  0  0  0
    6.9071  -15.4166   25.3739 C   0  0  0  0  0  0  0  0  0  0  0  0
    5.5353  -15.5841   25.5162 C   0  0  0  0  0  0  0  0  0  0  0  0
    4.9314  -14.3902   25.5966 N   0  0  0  0  0  0  0  0  0  0  0  0
    5.8715  -13.4386   25.5107 C   0  0  0  0  0  0  0  0  0  0  0  0
    5.8231  -12.0584   25.5345 C   0  0  0  0  0  0  0  0  0  0  0  0
    6.9646  -11.2956   25.4242 C   0  0  0  0  0  0  0  0  0  0  0  0
    8.1784  -11.8893   25.2879 C   0  0  0  0  0  0  0  0  0  0  0  0
    8.2394  -13.2616   25.2630 C   0  0  0  0  0  0  0  0  0  0  0  0
    7.0879  -14.0453   25.3740 C   0  0  0  0  0  0  0  0  0  0  0  0
   10.2937  -16.5622   25.9053 C   0  0  0  0  0  0  0  0  0  0  0  0
   10.6571  -17.7590   25.7152 O   0  0  0  0  0  0  0  0  0  0  0  0
   10.7356  -15.7852   26.9835 N   0  0  0  0  0  0  0  0  0  0  0  0
   10.8773  -14.3120   26.9269 C   0  0  0  0  0  0  0  0  0  0  0  0
   10.4349  -13.8477   28.2959 C   0  0  0  0  0  0  0  0  0  0  0  0
   10.3099  -15.1157   29.1122 C   0  0  0  0  0  0  0  0  0  0  0  0
   11.2292  -16.0530   28.3042 C   0  0  1  0  0  0  0  0  0  0  0  0
   11.2236  -17.3980   28.8077 C   0  0  0  0  0  0  0  0  0  0  0  0
   10.1244  -18.2098   28.4144 O   0  0  0  0  0  0  0  0  0  0  0  0
   12.0322  -17.9698   29.5380 O   0  0  0  0  0  0  0  0  0  0  0  0
  2  1  1  6
  2  3  1  0
  3  4  1  0
  4  8  1  0
  5  4  2  0
  5  6  1  0
  6  7  1  0
  8  7  2  0
  9 10  2  0
  9  2  1  0
 11  9  1  0
 12 11  1  0
 12 13  1  1
 13 14  1  0
 14 15  2  0
 14 22  1  0
 15 16  1  0
 16 17  1  0
 17 18  2  0
 19 18  1  0
 20 19  2  0
 21 22  2  0
 21 20  1  0
 22 17  1  0
 23 12  1  0
 24 23  2  0
 25 29  1  0
 25 23  1  0
 26 25  1  0
 27 28  1  0
 27 26  1  0
 28 29  1  0
 29 30  1  1
 30 32  2  0
 30 31  1  0
M  END
$$$$
