HWP.pdb
     RDKit          3D

 32 35  0  0  1  0  0  0  0  0999 V2000
    9.4100  -17.6983   21.3329 N   0  0  0  0  0  0  0  0  0  0  0  0
   10.3885  -16.6620   21.6101 C   0  0  1  0  0  0  0  0  0  0  0  0
   10.3612  -15.5915   20.5689 C   0  0  0  0  0  0  0  0  0  0  0  0
   10.6672  -16.1803   19.2399 C   0  0  0  0  0  0  0  0  0  0  0  0
   11.7669  -16.9245   18.9119 C   0  0  0  0  0  0  0  0  0  0  0  0
   11.6358  -17.2490   17.6114 N   0  0  0  0  0  0  0  0  0  0  0  0
   10.4776  -16.7120   17.1573 C   0  0  0  0  0  0  0  0  0  0  0  0
    9.8925  -16.0578   18.1691 N   0  0  0  0  0  0  0  0  0  0  0  0
   10.0432  -16.0467   22.9240 C   0  0  0  0  0  0  0  0  0  0  0  0
    9.9697  -14.7812   23.0557 O   0  0  0  0  0  0  0  0  0  0  0  0
    9.7811  -16.8078   24.0816 N   0  0  0  0  0  0  0  0  0  0  0  0
    9.5668  -16.1241   25.3918 C   0  0  1  0  0  0  0  0  0  0  0  0
    8.1432  -16.5231   25.7190 C   0  0  0  0  0  0  0  0  0  0  0  0
    7.0795  -15.6132   25.4079 C   0  0  0  0  0  0  0  0  0  0  0  0
    5.8471  -15.8697   24.8200 C   0  0  0  0  0  0  0  0  0  0  0  0
    5.1474  -14.7325   24.7020 N   0  0  0  0  0  0  0  0  0  0  0  0
    5.8883  -13.7316   25.1979 C   0  0  0  0  0  0  0  0  0  0  0  0
    5.6733  -12.3737   25.3308 C   0  0  0  0  0  0  0  0  0  0  0  0
    6.6217  -11.5453   25.8888 C   0  0  0  0  0  0  0  0  0  0  0  0
    7.8041  -12.0500   26.3266 C   0  0  0  0  0  0  0  0  0  0  0  0
    8.0296  -13.3993   26.1999 C   0  0  0  0  0  0  0  0  0  0  0  0
    7.0746  -14.2488   25.6354 C   0  0  0  0  0  0  0  0  0  0  0  0
   10.5020  -16.8381   26.3213 C   0  0  0  0  0  0  0  0  0  0  0  0
   10.7312  -18.0601   26.0876 O   0  0  0  0  0  0  0  0  0  0  0  0
   11.0758  -16.1376   27.3899 N   0  0  0  0  0  0  0  0  0  0  0  0
   11.2973  -14.6733   27.3838 C   0  0  0  0  0  0  0  0  0  0  0  0
   10.9971  -14.2505   28.8039 C   0  0  0  0  0  0  0  0  0  0  0  0
   10.8668  -15.5468   29.5735 C   0  0  0  0  0  0  0  0  0  0  0  0
   11.6604  -16.4934   28.6513 C   0  0  1  0  0  0  0  0  0  0  0  0
   11.6186  -17.8583   29.0961 C   0  0  0  0  0  0  0  0  0  0  0  0
   10.4061  -18.5599   28.8527 O   0  0  0  0  0  0  0  0  0  0  0  0
   12.4797  -18.5291   29.6644 O   0  0  0  0  0  0  0  0  0  0  0  0
  2  1  1  6
  2  3  1  0
  3  4  1  0
  4  8  1  0
  5  4  2  0
  5  6  1  0
  6  7  1  0
  8  7  2  0
  9 10  2  0
  9  2  1  0
 11  9  1  0
 12 11  1  0
 12 13  1  1
 13 14  1  0
 14 15  2  0
 14 22  1  0
 15 16  1  0
 16 17  1  0
 17 18  2  0
 19 18  1  0
 20 19  2  0
 21 22  2  0
 21 20  1  0
 22 17  1  0
 23 12  1  0
 24 23  2  0
 25 29  1  0
 25 23  1  0
 26 25  1  0
 27 28  1  0
 27 26  1  0
 28 29  1  0
 29 30  1  1
 30 32  2  0
 30 31  1  0
M  END
$$$$
