HWP.pdb
     RDKit          3D

 32 35  0  0  1  0  0  0  0  0999 V2000
    9.2387  -16.9259   20.8926 N   0  0  0  0  0  0  0  0  0  0  0  0
   10.4429  -16.9817   21.7019 C   0  0  1  0  0  0  0  0  0  0  0  0
   11.5953  -16.3269   21.0133 C   0  0  0  0  0  0  0  0  0  0  0  0
   11.9535  -17.0993   19.7961 C   0  0  0  0  0  0  0  0  0  0  0  0
   12.7666  -18.1977   19.7379 C   0  0  0  0  0  0  0  0  0  0  0  0
   12.8125  -18.5720   18.4450 N   0  0  0  0  0  0  0  0  0  0  0  0
   12.0415  -17.7170   17.7306 C   0  0  0  0  0  0  0  0  0  0  0  0
   11.5196  -16.8167   18.5740 N   0  0  0  0  0  0  0  0  0  0  0  0
   10.1754  -16.2454   22.9709 C   0  0  0  0  0  0  0  0  0  0  0  0
   10.5172  -15.0249   23.1048 O   0  0  0  0  0  0  0  0  0  0  0  0
    9.5408  -16.8380   24.0818 N   0  0  0  0  0  0  0  0  0  0  0  0
    9.4279  -16.0850   25.3664 C   0  0  1  0  0  0  0  0  0  0  0  0
    8.0115  -16.4103   25.7915 C   0  0  0  0  0  0  0  0  0  0  0  0
    6.9578  -15.5017   25.4446 C   0  0  0  0  0  0  0  0  0  0  0  0
    5.7300  -15.7653   24.8502 C   0  0  0  0  0  0  0  0  0  0  0  0
    5.0399  -14.6268   24.6943 N   0  0  0  0  0  0  0  0  0  0  0  0
    5.7825  -13.6182   25.1714 C   0  0  0  0  0  0  0  0  0  0  0  0
    5.5760  -12.2557   25.2656 C   0  0  0  0  0  0  0  0  0  0  0  0
    6.5243  -11.4194   25.8117 C   0  0  0  0  0  0  0  0  0  0  0  0
    7.6982  -11.9204   26.2757 C   0  0  0  0  0  0  0  0  0  0  0  0
    7.9153  -13.2741   26.1876 C   0  0  0  0  0  0  0  0  0  0  0  0
    6.9603  -14.1318   25.6355 C   0  0  0  0  0  0  0  0  0  0  0  0
   10.3875  -16.7914   26.2768 C   0  0  0  0  0  0  0  0  0  0  0  0
   10.6454  -18.0030   26.0200 O   0  0  0  0  0  0  0  0  0  0  0  0
   10.9513  -16.0955   27.3537 N   0  0  0  0  0  0  0  0  0  0  0  0
   11.2236  -14.6398   27.3348 C   0  0  0  0  0  0  0  0  0  0  0  0
   10.8937  -14.1863   28.7388 C   0  0  0  0  0  0  0  0  0  0  0  0
   10.6944  -15.4661   29.5213 C   0  0  0  0  0  0  0  0  0  0  0  0
   11.4833  -16.4527   28.6377 C   0  0  1  0  0  0  0  0  0  0  0  0
   11.3802  -17.8087   29.0994 C   0  0  0  0  0  0  0  0  0  0  0  0
   10.6490  -18.7002   28.2672 O   0  0  0  0  0  0  0  0  0  0  0  0
   11.8313  -18.3312   30.1181 O   0  0  0  0  0  0  0  0  0  0  0  0
  2  1  1  6
  2  3  1  0
  3  4  1  0
  4  8  1  0
  5  4  2  0
  5  6  1  0
  6  7  1  0
  8  7  2  0
  9 10  2  0
  9  2  1  0
 11  9  1  0
 12 11  1  0
 12 13  1  1
 13 14  1  0
 14 15  2  0
 14 22  1  0
 15 16  1  0
 16 17  1  0
 17 18  2  0
 19 18  1  0
 20 19  2  0
 21 22  2  0
 21 20  1  0
 22 17  1  0
 23 12  1  0
 24 23  2  0
 25 29  1  0
 25 23  1  0
 26 25  1  0
 27 28  1  0
 27 26  1  0
 28 29  1  0
 29 30  1  1
 30 32  2  0
 30 31  1  0
M  END
$$$$
