HWP.pdb
     RDKit          3D

 32 35  0  0  1  0  0  0  0  0999 V2000
    8.9651  -16.2829   20.8149 N   0  0  0  0  0  0  0  0  0  0  0  0
    9.2827  -14.8809   21.0196 C   0  0  1  0  0  0  0  0  0  0  0  0
    8.2348  -13.9918   20.4346 C   0  0  0  0  0  0  0  0  0  0  0  0
    8.2423  -14.1186   18.9546 C   0  0  0  0  0  0  0  0  0  0  0  0
    8.7292  -13.2047   18.0609 C   0  0  0  0  0  0  0  0  0  0  0  0
    8.5327  -13.7260   16.8348 N   0  0  0  0  0  0  0  0  0  0  0  0
    7.9375  -14.9345   16.9805 C   0  0  0  0  0  0  0  0  0  0  0  0
    7.7649  -15.1630   18.2890 N   0  0  0  0  0  0  0  0  0  0  0  0
    9.3391  -14.6347   22.4894 C   0  0  0  0  0  0  0  0  0  0  0  0
    9.6241  -13.4811   22.9500 O   0  0  0  0  0  0  0  0  0  0  0  0
    9.0864  -15.6399   23.4452 N   0  0  0  0  0  0  0  0  0  0  0  0
    9.1705  -15.3229   24.9020 C   0  0  1  0  0  0  0  0  0  0  0  0
    7.8301  -15.8176   25.4035 C   0  0  0  0  0  0  0  0  0  0  0  0
    6.8124  -14.8589   25.7220 C   0  0  0  0  0  0  0  0  0  0  0  0
    5.4833  -15.0698   26.0672 C   0  0  0  0  0  0  0  0  0  0  0  0
    4.8713  -13.8966   26.2811 N   0  0  0  0  0  0  0  0  0  0  0  0
    5.7644  -12.9165   26.0854 C   0  0  0  0  0  0  0  0  0  0  0  0
    5.6881  -11.5396   26.1648 C   0  0  0  0  0  0  0  0  0  0  0  0
    6.7807  -10.7416   25.9075 C   0  0  0  0  0  0  0  0  0  0  0  0
    7.9725  -11.2959   25.5658 C   0  0  0  0  0  0  0  0  0  0  0  0
    8.0609  -12.6644   25.4837 C   0  0  0  0  0  0  0  0  0  0  0  0
    6.9590  -13.4837   25.7425 C   0  0  0  0  0  0  0  0  0  0  0  0
   10.2489  -16.2370   25.4021 C   0  0  0  0  0  0  0  0  0  0  0  0
   10.4618  -17.2967   24.7446 O   0  0  0  0  0  0  0  0  0  0  0  0
   10.9657  -15.8881   26.5537 N   0  0  0  0  0  0  0  0  0  0  0  0
   11.3768  -14.5016   26.8729 C   0  0  0  0  0  0  0  0  0  0  0  0
   11.2108  -14.4054   28.3725 C   0  0  0  0  0  0  0  0  0  0  0  0
   10.9527  -15.8262   28.8245 C   0  0  0  0  0  0  0  0  0  0  0  0
   11.5649  -16.6046   27.6431 C   0  0  1  0  0  0  0  0  0  0  0  0
   11.3680  -18.0227   27.7571 C   0  0  0  0  0  0  0  0  0  0  0  0
   12.4877  -18.7769   28.2033 O   0  0  0  0  0  0  0  0  0  0  0  0
   10.3675  -18.7009   27.5259 O   0  0  0  0  0  0  0  0  0  0  0  0
  2  1  1  1
  2  3  1  0
  3  4  1  0
  4  8  1  0
  5  4  2  0
  5  6  1  0
  6  7  1  0
  8  7  2  0
  9 10  2  0
  9  2  1  0
 11  9  1  0
 12 11  1  0
 12 13  1  1
 13 14  1  0
 14 15  2  0
 14 22  1  0
 15 16  1  0
 16 17  1  0
 17 18  2  0
 19 18  1  0
 20 19  2  0
 21 22  2  0
 21 20  1  0
 22 17  1  0
 23 12  1  0
 24 23  2  0
 25 29  1  0
 25 23  1  0
 26 25  1  0
 27 28  1  0
 27 26  1  0
 28 29  1  0
 29 30  1  1
 30 32  2  0
 30 31  1  0
M  END
$$$$
