HWP.pdb
     RDKit          3D

 32 35  0  0  1  0  0  0  0  0999 V2000
   10.0208  -17.9909   21.1805 N   0  0  0  0  0  0  0  0  0  0  0  0
   10.5327  -16.6350   21.0915 C   0  0  1  0  0  0  0  0  0  0  0  0
    9.9465  -15.9044   19.9281 C   0  0  0  0  0  0  0  0  0  0  0  0
   10.2882  -16.6151   18.6692 C   0  0  0  0  0  0  0  0  0  0  0  0
   11.5087  -16.6388   18.0523 C   0  0  0  0  0  0  0  0  0  0  0  0
   11.3654  -17.3979   16.9492 N   0  0  0  0  0  0  0  0  0  0  0  0
   10.0815  -17.8278   16.8966 C   0  0  0  0  0  0  0  0  0  0  0  0
    9.4307  -17.3389   17.9604 N   0  0  0  0  0  0  0  0  0  0  0  0
   10.1445  -15.9170   22.3397 C   0  0  0  0  0  0  0  0  0  0  0  0
   10.4557  -14.6937   22.5156 O   0  0  0  0  0  0  0  0  0  0  0  0
    9.4235  -16.5307   23.3844 N   0  0  0  0  0  0  0  0  0  0  0  0
    9.2103  -15.8042   24.6715 C   0  0  1  0  0  0  0  0  0  0  0  0
    7.8025  -16.2267   25.0350 C   0  0  0  0  0  0  0  0  0  0  0  0
    6.8680  -15.2274   25.4646 C   0  0  0  0  0  0  0  0  0  0  0  0
    5.5679  -15.3816   25.9293 C   0  0  0  0  0  0  0  0  0  0  0  0
    5.0379  -14.1854   26.2206 N   0  0  0  0  0  0  0  0  0  0  0  0
    5.9569  -13.2453   25.9593 C   0  0  0  0  0  0  0  0  0  0  0  0
    5.9574  -11.8685   26.0699 C   0  0  0  0  0  0  0  0  0  0  0  0
    7.0599  -11.1184   25.7253 C   0  0  0  0  0  0  0  0  0  0  0  0
    8.1855  -11.7219   25.2634 C   0  0  0  0  0  0  0  0  0  0  0  0
    8.1973  -13.0909   25.1490 C   0  0  0  0  0  0  0  0  0  0  0  0
    7.0846  -13.8616   25.4957 C   0  0  0  0  0  0  0  0  0  0  0  0
   10.1771  -16.4589   25.6125 C   0  0  0  0  0  0  0  0  0  0  0  0
   10.4692  -17.6702   25.3936 O   0  0  0  0  0  0  0  0  0  0  0  0
   10.7101  -15.7180   26.6749 N   0  0  0  0  0  0  0  0  0  0  0  0
   11.0346  -14.2757   26.5852 C   0  0  0  0  0  0  0  0  0  0  0  0
   10.6505  -13.7278   27.9408 C   0  0  0  0  0  0  0  0  0  0  0  0
   10.3663  -14.9509   28.7853 C   0  0  0  0  0  0  0  0  0  0  0  0
   11.1633  -16.0141   28.0039 C   0  0  1  0  0  0  0  0  0  0  0  0
   10.9887  -17.3358   28.5381 C   0  0  0  0  0  0  0  0  0  0  0  0
   11.8684  -17.7072   29.5917 O   0  0  0  0  0  0  0  0  0  0  0  0
   10.1853  -18.2134   28.2239 O   0  0  0  0  0  0  0  0  0  0  0  0
  2  1  1  1
  2  3  1  0
  3  4  1  0
  4  8  1  0
  5  4  2  0
  5  6  1  0
  6  7  1  0
  8  7  2  0
  9 10  2  0
  9  2  1  0
 11  9  1  0
 12 11  1  0
 12 13  1  1
 13 14  1  0
 14 15  2  0
 14 22  1  0
 15 16  1  0
 16 17  1  0
 17 18  2  0
 19 18  1  0
 20 19  2  0
 21 22  2  0
 21 20  1  0
 22 17  1  0
 23 12  1  0
 24 23  2  0
 25 29  1  0
 25 23  1  0
 26 25  1  0
 27 28  1  0
 27 26  1  0
 28 29  1  0
 29 30  1  1
 30 32  2  0
 30 31  1  0
M  END
$$$$
