HWP.pdb
     RDKit          3D

 32 35  0  0  1  0  0  0  0  0999 V2000
   11.1485  -18.3129   21.2815 N   0  0  0  0  0  0  0  0  0  0  0  0
   11.9334  -17.0927   21.3391 C   0  0  1  0  0  0  0  0  0  0  0  0
   11.9647  -16.3997   20.0163 C   0  0  0  0  0  0  0  0  0  0  0  0
   11.0617  -17.0980   19.0658 C   0  0  0  0  0  0  0  0  0  0  0  0
    9.7988  -17.5538   19.3268 C   0  0  0  0  0  0  0  0  0  0  0  0
    9.3524  -18.1180   18.1883 N   0  0  0  0  0  0  0  0  0  0  0  0
   10.3260  -18.0071   17.2525 C   0  0  0  0  0  0  0  0  0  0  0  0
   11.3711  -17.3780   17.8057 N   0  0  0  0  0  0  0  0  0  0  0  0
   11.2908  -16.1821   22.3301 C   0  0  0  0  0  0  0  0  0  0  0  0
   11.6978  -14.9835   22.4786 O   0  0  0  0  0  0  0  0  0  0  0  0
   10.2145  -16.5786   23.1500 N   0  0  0  0  0  0  0  0  0  0  0  0
    9.7129  -15.6632   24.2179 C   0  0  1  0  0  0  0  0  0  0  0  0
    8.2167  -15.7146   23.9910 C   0  0  0  0  0  0  0  0  0  0  0  0
    7.3468  -15.1282   24.9685 C   0  0  0  0  0  0  0  0  0  0  0  0
    6.5165  -15.7505   25.8923 C   0  0  0  0  0  0  0  0  0  0  0  0
    5.8652  -14.8314   26.6188 N   0  0  0  0  0  0  0  0  0  0  0  0
    6.2456  -13.6174   26.1967 C   0  0  0  0  0  0  0  0  0  0  0  0
    5.9036  -12.3348   26.5785 C   0  0  0  0  0  0  0  0  0  0  0  0
    6.4535  -11.2302   25.9666 C   0  0  0  0  0  0  0  0  0  0  0  0
    7.3555  -11.3779   24.9621 C   0  0  0  0  0  0  0  0  0  0  0  0
    7.7038  -12.6487   24.5735 C   0  0  0  0  0  0  0  0  0  0  0  0
    7.1522  -13.7763   25.1871 C   0  0  0  0  0  0  0  0  0  0  0  0
   10.0412  -16.3878   25.4890 C   0  0  0  0  0  0  0  0  0  0  0  0
   10.0772  -17.6517   25.4433 O   0  0  0  0  0  0  0  0  0  0  0  0
   10.2923  -15.6519   26.6539 N   0  0  0  0  0  0  0  0  0  0  0  0
   10.4401  -14.1784   26.6751 C   0  0  0  0  0  0  0  0  0  0  0  0
    9.7705  -13.7607   27.9646 C   0  0  0  0  0  0  0  0  0  0  0  0
    9.5095  -15.0562   28.7016 C   0  0  0  0  0  0  0  0  0  0  0  0
   10.5538  -15.9689   28.0289 C   0  0  1  0  0  0  0  0  0  0  0  0
   10.4638  -17.3310   28.4755 C   0  0  0  0  0  0  0  0  0  0  0  0
    9.1619  -17.9025   28.4851 O   0  0  0  0  0  0  0  0  0  0  0  0
   11.3490  -18.0954   28.8580 O   0  0  0  0  0  0  0  0  0  0  0  0
  2  1  1  6
  2  3  1  0
  3  4  1  0
  4  8  1  0
  5  4  2  0
  5  6  1  0
  6  7  1  0
  8  7  2  0
  9 10  2  0
  9  2  1  0
 11  9  1  0
 12 11  1  0
 12 13  1  6
 13 14  1  0
 14 15  2  0
 14 22  1  0
 15 16  1  0
 16 17  1  0
 17 18  2  0
 19 18  1  0
 20 19  2  0
 21 22  2  0
 21 20  1  0
 22 17  1  0
 23 12  1  0
 24 23  2  0
 25 29  1  0
 25 23  1  0
 26 25  1  0
 27 28  1  0
 27 26  1  0
 28 29  1  0
 29 30  1  6
 30 32  2  0
 30 31  1  0
M  END
$$$$
