HWP.pdb
     RDKit          3D

 32 35  0  0  1  0  0  0  0  0999 V2000
    9.4320  -16.3746   20.4827 N   0  0  0  0  0  0  0  0  0  0  0  0
   10.3484  -16.9235   21.4662 C   0  0  1  0  0  0  0  0  0  0  0  0
   11.7716  -16.7121   21.0654 C   0  0  0  0  0  0  0  0  0  0  0  0
   12.1548  -17.7144   20.0382 C   0  0  0  0  0  0  0  0  0  0  0  0
   11.9076  -19.0590   20.0796 C   0  0  0  0  0  0  0  0  0  0  0  0
   12.4261  -19.5787   18.9505 N   0  0  0  0  0  0  0  0  0  0  0  0
   12.9782  -18.5685   18.2359 C   0  0  0  0  0  0  0  0  0  0  0  0
   12.8040  -17.4280   18.9165 N   0  0  0  0  0  0  0  0  0  0  0  0
   10.1143  -16.2125   22.7561 C   0  0  0  0  0  0  0  0  0  0  0  0
   10.2826  -14.9527   22.8498 O   0  0  0  0  0  0  0  0  0  0  0  0
    9.7006  -16.8728   23.9312 N   0  0  0  0  0  0  0  0  0  0  0  0
    9.4685  -16.0930   25.1834 C   0  0  1  0  0  0  0  0  0  0  0  0
    8.0686  -16.5279   25.5629 C   0  0  0  0  0  0  0  0  0  0  0  0
    6.9842  -15.6070   25.3834 C   0  0  0  0  0  0  0  0  0  0  0  0
    5.6776  -15.8553   24.9818 C   0  0  0  0  0  0  0  0  0  0  0  0
    4.9840  -14.7092   24.9365 N   0  0  0  0  0  0  0  0  0  0  0  0
    5.8013  -13.7104   25.2985 C   0  0  0  0  0  0  0  0  0  0  0  0
    5.6260  -12.3464   25.4277 C   0  0  0  0  0  0  0  0  0  0  0  0
    6.6552  -11.5224   25.8260 C   0  0  0  0  0  0  0  0  0  0  0  0
    7.8806  -12.0375   26.1044 C   0  0  0  0  0  0  0  0  0  0  0  0
    8.0673  -13.3929   25.9797 C   0  0  0  0  0  0  0  0  0  0  0  0
    7.0304  -14.2382   25.5764 C   0  0  0  0  0  0  0  0  0  0  0  0
   10.4458  -16.6838   26.1552 C   0  0  0  0  0  0  0  0  0  0  0  0
   10.8405  -17.8654   25.9347 O   0  0  0  0  0  0  0  0  0  0  0  0
   10.8767  -15.9189   27.2465 N   0  0  0  0  0  0  0  0  0  0  0  0
   10.9668  -14.4408   27.2253 C   0  0  0  0  0  0  0  0  0  0  0  0
   10.5290  -14.0263   28.6117 C   0  0  0  0  0  0  0  0  0  0  0  0
   10.4598  -15.3178   29.3972 C   0  0  0  0  0  0  0  0  0  0  0  0
   11.3987  -16.2021   28.5529 C   0  0  1  0  0  0  0  0  0  0  0  0
   11.4467  -17.5587   29.0222 C   0  0  0  0  0  0  0  0  0  0  0  0
   10.2771  -18.3380   28.8071 O   0  0  0  0  0  0  0  0  0  0  0  0
   12.3545  -18.1645   29.5908 O   0  0  0  0  0  0  0  0  0  0  0  0
  2  1  1  6
  2  3  1  0
  3  4  1  0
  4  8  1  0
  5  4  2  0
  5  6  1  0
  6  7  1  0
  8  7  2  0
  9 10  2  0
  9  2  1  0
 11  9  1  0
 12 11  1  0
 12 13  1  1
 13 14  1  0
 14 15  2  0
 14 22  1  0
 15 16  1  0
 16 17  1  0
 17 18  2  0
 19 18  1  0
 20 19  2  0
 21 22  2  0
 21 20  1  0
 22 17  1  0
 23 12  1  0
 24 23  2  0
 25 29  1  0
 25 23  1  0
 26 25  1  0
 27 28  1  0
 27 26  1  0
 28 29  1  0
 29 30  1  1
 30 32  2  0
 30 31  1  0
M  END
$$$$
