HWP.pdb
     RDKit          3D

 32 35  0  0  1  0  0  0  0  0999 V2000
   11.2494  -16.6249   19.7866 N   0  0  0  0  0  0  0  0  0  0  0  0
   11.3707  -17.2703   21.0815 C   0  0  1  0  0  0  0  0  0  0  0  0
   12.7923  -17.6048   21.3948 C   0  0  0  0  0  0  0  0  0  0  0  0
   13.1913  -18.8295   20.6549 C   0  0  0  0  0  0  0  0  0  0  0  0
   12.9682  -19.0908   19.3310 C   0  0  0  0  0  0  0  0  0  0  0  0
   13.4938  -20.3064   19.0867 N   0  0  0  0  0  0  0  0  0  0  0  0
   14.0266  -20.7754   20.2408 C   0  0  0  0  0  0  0  0  0  0  0  0
   13.8334  -19.8571   21.1966 N   0  0  0  0  0  0  0  0  0  0  0  0
   10.8748  -16.3171   22.1157 C   0  0  0  0  0  0  0  0  0  0  0  0
   11.3510  -15.1381   22.2022 O   0  0  0  0  0  0  0  0  0  0  0  0
    9.8686  -16.6501   23.0455 N   0  0  0  0  0  0  0  0  0  0  0  0
    9.4708  -15.6688   24.0985 C   0  0  1  0  0  0  0  0  0  0  0  0
    7.9683  -15.6147   23.9183 C   0  0  0  0  0  0  0  0  0  0  0  0
    7.1674  -15.0227   24.9499 C   0  0  0  0  0  0  0  0  0  0  0  0
    6.3116  -15.6337   25.8579 C   0  0  0  0  0  0  0  0  0  0  0  0
    5.7488  -14.7123   26.6522 N   0  0  0  0  0  0  0  0  0  0  0  0
    6.2124  -13.5079   26.2904 C   0  0  0  0  0  0  0  0  0  0  0  0
    5.9785  -12.2278   26.7535 C   0  0  0  0  0  0  0  0  0  0  0  0
    6.5986  -11.1339   26.1916 C   0  0  0  0  0  0  0  0  0  0  0  0
    7.4648  -11.2899   25.1572 C   0  0  0  0  0  0  0  0  0  0  0  0
    7.7057  -12.5584   24.6879 C   0  0  0  0  0  0  0  0  0  0  0  0
    7.0822  -13.6752   25.2502 C   0  0  0  0  0  0  0  0  0  0  0  0
    9.7855  -16.3784   25.3814 C   0  0  0  0  0  0  0  0  0  0  0  0
    9.5476  -17.6200   25.4308 O   0  0  0  0  0  0  0  0  0  0  0  0
   10.3218  -15.6538   26.4534 N   0  0  0  0  0  0  0  0  0  0  0  0
   10.9271  -14.3097   26.3112 C   0  0  0  0  0  0  0  0  0  0  0  0
   10.4981  -13.5793   27.5635 C   0  0  0  0  0  0  0  0  0  0  0  0
    9.8850  -14.6475   28.4426 C   0  0  0  0  0  0  0  0  0  0  0  0
   10.5484  -15.9054   27.8479 C   0  0  1  0  0  0  0  0  0  0  0  0
   10.0597  -17.1185   28.4415 C   0  0  0  0  0  0  0  0  0  0  0  0
   11.0342  -17.9535   29.0537 O   0  0  0  0  0  0  0  0  0  0  0  0
    8.9121  -17.5581   28.5058 O   0  0  0  0  0  0  0  0  0  0  0  0
  2  1  1  6
  2  3  1  0
  3  4  1  0
  4  8  1  0
  5  4  2  0
  5  6  1  0
  6  7  1  0
  8  7  2  0
  9 10  2  0
  9  2  1  0
 11  9  1  0
 12 11  1  0
 12 13  1  1
 13 14  1  0
 14 15  2  0
 14 22  1  0
 15 16  1  0
 16 17  1  0
 17 18  2  0
 19 18  1  0
 20 19  2  0
 21 22  2  0
 21 20  1  0
 22 17  1  0
 23 12  1  0
 24 23  2  0
 25 29  1  0
 25 23  1  0
 26 25  1  0
 27 28  1  0
 27 26  1  0
 28 29  1  0
 29 30  1  1
 30 32  2  0
 30 31  1  0
M  END
$$$$
