NSM.pdb
     RDKit          3D

 23 22  0  0  1  0  0  0  0  0999 V2000
   15.8054  -15.3344   18.6822 N   0  0  0  0  0  0  0  0  0  0  0  0
   14.8086  -14.3735   18.4114 C   0  0  0  0  0  0  0  0  0  0  0  0
   15.0543  -13.4783   17.5726 O   0  0  0  0  0  0  0  0  0  0  0  0
   13.5276  -14.4541   19.1156 C   0  0  0  0  0  0  0  0  0  0  0  0
   13.4685  -15.6372   20.0741 C   0  0  2  0  0  0  0  0  0  0  0  0
   13.1630  -16.8303   19.3105 N   0  0  0  0  0  0  0  0  0  0  0  0
   12.3395  -15.4485   21.0437 C   0  0  0  0  0  0  0  0  0  0  0  0
   12.3039  -14.4609   21.7958 O   0  0  0  0  0  0  0  0  0  0  0  0
    9.7566  -18.7526   21.8964 O   0  0  0  0  0  0  0  0  0  0  0  0
    9.1907  -17.4682   21.9085 C   0  0  0  0  0  0  0  0  0  0  0  0
   10.2674  -16.4329   22.1337 C   0  0  2  0  0  0  0  0  0  0  0  0
   11.2748  -16.4069   21.1226 N   0  0  0  0  0  0  0  0  0  0  0  0
   10.7848  -16.6134   23.5162 C   0  0  0  0  0  0  0  0  0  0  0  0
   11.9508  -17.0301   23.7062 O   0  0  0  0  0  0  0  0  0  0  0  0
    8.5331  -13.4386   29.2213 C   0  0  0  0  0  0  0  0  0  0  0  0
   10.1151  -14.3335   29.2360 S   0  0  0  0  0  0  0  0  0  0  0  0
    9.9105  -15.9581   28.4032 C   0  0  0  0  0  0  0  0  0  0  0  0
    9.6362  -15.7725   26.9464 C   0  0  0  0  0  0  0  0  0  0  0  0
   10.5516  -16.5334   26.0280 C   0  0  2  0  0  0  0  0  0  0  0  0
   10.0115  -16.3328   24.6688 N   0  0  0  0  0  0  0  0  0  0  0  0
   10.5046  -17.9766   26.3772 C   0  0  0  0  0  0  0  0  0  0  0  0
    9.6462  -18.7103   25.8158 O   0  0  0  0  0  0  0  0  0  0  0  0
   11.3434  -18.5922   27.2852 O   0  0  0  0  0  0  0  0  0  0  0  0
  2  1  1  0
  3  2  2  0
  4  2  1  0
  4  5  1  0
  5  6  1  6
  7  5  1  0
  7 12  1  0
  8  7  2  0
 11 10  1  6
 10  9  1  0
 11 12  1  0
 11 13  1  0
 13 20  1  0
 14 13  2  0
 15 16  1  0
 17 16  1  0
 18 17  1  0
 19 18  1  1
 20 19  1  0
 21 19  1  0
 21 23  1  0
 22 21  2  0
M  END
$$$$
