NSM.pdb
     RDKit          3D

 23 22  0  0  1  0  0  0  0  0999 V2000
    9.3956  -14.7266   15.2152 N   0  0  0  0  0  0  0  0  0  0  0  0
    8.3417  -13.9416   15.7283 C   0  0  0  0  0  0  0  0  0  0  0  0
    7.8665  -13.0356   15.0080 O   0  0  0  0  0  0  0  0  0  0  0  0
    7.8412  -14.2103   17.0776 C   0  0  0  0  0  0  0  0  0  0  0  0
    8.9636  -14.5312   18.0570 C   0  0  2  0  0  0  0  0  0  0  0  0
    9.6703  -15.7013   17.5762 N   0  0  0  0  0  0  0  0  0  0  0  0
    8.3834  -14.8992   19.3906 C   0  0  0  0  0  0  0  0  0  0  0  0
    7.6635  -14.1022   20.0140 O   0  0  0  0  0  0  0  0  0  0  0  0
    9.8418  -18.2969   21.5341 O   0  0  0  0  0  0  0  0  0  0  0  0
    8.4565  -18.0718   21.5500 C   0  0  0  0  0  0  0  0  0  0  0  0
    8.1668  -16.6209   21.2451 C   0  0  2  0  0  0  0  0  0  0  0  0
    8.6483  -16.1825   19.9748 N   0  0  0  0  0  0  0  0  0  0  0  0
    8.6449  -15.8133   22.3987 C   0  0  0  0  0  0  0  0  0  0  0  0
    9.7681  -15.2598   22.3617 O   0  0  0  0  0  0  0  0  0  0  0  0
    6.1793  -11.1381   28.2072 C   0  0  0  0  0  0  0  0  0  0  0  0
    5.8499  -12.2260   26.7888 S   0  0  0  0  0  0  0  0  0  0  0  0
    7.3849  -13.1274   26.3355 C   0  0  0  0  0  0  0  0  0  0  0  0
    7.1531  -13.9958   25.1421 C   0  0  0  0  0  0  0  0  0  0  0  0
    8.3567  -14.7681   24.6779 C   0  0  2  0  0  0  0  0  0  0  0  0
    7.8800  -15.6269   23.5758 N   0  0  0  0  0  0  0  0  0  0  0  0
    8.8537  -15.6147   25.7929 C   0  0  0  0  0  0  0  0  0  0  0  0
    9.4219  -15.0586   26.7718 O   0  0  0  0  0  0  0  0  0  0  0  0
    8.7402  -16.9900   25.8450 O   0  0  0  0  0  0  0  0  0  0  0  0
  2  1  1  0
  3  2  2  0
  4  2  1  0
  4  5  1  0
  5  6  1  6
  7  5  1  0
  7 12  1  0
  8  7  2  0
 11 10  1  1
 10  9  1  0
 11 12  1  0
 11 13  1  0
 13 20  1  0
 14 13  2  0
 15 16  1  0
 17 16  1  0
 18 17  1  0
 19 18  1  1
 20 19  1  0
 21 19  1  0
 21 23  1  0
 22 21  2  0
M  END
$$$$
