NSM.pdb
     RDKit          3D

 23 22  0  0  1  0  0  0  0  0999 V2000
   14.9681  -19.5256   20.9292 N   0  0  0  0  0  0  0  0  0  0  0  0
   15.1905  -18.1334   20.8810 C   0  0  0  0  0  0  0  0  0  0  0  0
   16.3193  -17.6976   21.1997 O   0  0  0  0  0  0  0  0  0  0  0  0
   14.1012  -17.2493   20.4626 C   0  0  0  0  0  0  0  0  0  0  0  0
   12.8347  -18.0197   20.1101 C   0  0  2  0  0  0  0  0  0  0  0  0
   12.7402  -18.1097   18.6670 N   0  0  0  0  0  0  0  0  0  0  0  0
   11.6301  -17.2536   20.5712 C   0  0  0  0  0  0  0  0  0  0  0  0
   11.4699  -16.0647   20.2500 O   0  0  0  0  0  0  0  0  0  0  0  0
    8.5570  -19.1536   23.0006 O   0  0  0  0  0  0  0  0  0  0  0  0
    8.2673  -18.2130   21.9999 C   0  0  0  0  0  0  0  0  0  0  0  0
    9.4282  -17.2602   21.8368 C   0  0  2  0  0  0  0  0  0  0  0  0
   10.6359  -17.8796   21.3945 N   0  0  0  0  0  0  0  0  0  0  0  0
    9.5580  -16.4868   23.1004 C   0  0  0  0  0  0  0  0  0  0  0  0
   10.5057  -16.7147   23.8874 O   0  0  0  0  0  0  0  0  0  0  0  0
    6.1893  -10.6966   27.4193 C   0  0  0  0  0  0  0  0  0  0  0  0
    6.1593  -11.7675   25.9510 S   0  0  0  0  0  0  0  0  0  0  0  0
    7.4730  -13.0436   26.0934 C   0  0  0  0  0  0  0  0  0  0  0  0
    7.6256  -13.7885   24.8073 C   0  0  0  0  0  0  0  0  0  0  0  0
    8.7286  -14.8101   24.7947 C   0  0  2  0  0  0  0  0  0  0  0  0
    8.6432  -15.4745   23.4791 N   0  0  0  0  0  0  0  0  0  0  0  0
    8.4873  -15.8028   25.8732 C   0  0  0  0  0  0  0  0  0  0  0  0
    9.0001  -15.6043   27.0081 O   0  0  0  0  0  0  0  0  0  0  0  0
    7.7300  -16.9487   25.7302 O   0  0  0  0  0  0  0  0  0  0  0  0
  2  1  1  0
  3  2  2  0
  4  2  1  0
  4  5  1  0
  5  6  1  6
  7  5  1  0
  7 12  1  0
  8  7  2  0
 11 10  1  1
 10  9  1  0
 11 12  1  0
 11 13  1  0
 13 20  1  0
 14 13  2  0
 15 16  1  0
 17 16  1  0
 18 17  1  0
 19 18  1  6
 20 19  1  0
 21 19  1  0
 21 23  1  0
 22 21  2  0
M  END
$$$$
