NSM.pdb
     RDKit          3D

 23 22  0  0  1  0  0  0  0  0999 V2000
    6.7929  -14.0340   15.1629 N   0  0  0  0  0  0  0  0  0  0  0  0
    8.0352  -13.9558   15.8269 C   0  0  0  0  0  0  0  0  0  0  0  0
    9.0739  -14.2262   15.1840 O   0  0  0  0  0  0  0  0  0  0  0  0
    8.0689  -13.5635   17.2370 C   0  0  0  0  0  0  0  0  0  0  0  0
    9.0139  -14.4339   18.0565 C   0  0  2  0  0  0  0  0  0  0  0  0
    9.0785  -15.7443   17.4415 N   0  0  0  0  0  0  0  0  0  0  0  0
    8.4532  -14.6341   19.4334 C   0  0  0  0  0  0  0  0  0  0  0  0
    8.2173  -13.6644   20.1725 O   0  0  0  0  0  0  0  0  0  0  0  0
    8.5954  -18.3713   21.4610 O   0  0  0  0  0  0  0  0  0  0  0  0
    7.3510  -17.7226   21.4340 C   0  0  0  0  0  0  0  0  0  0  0  0
    7.5444  -16.2476   21.1716 C   0  0  2  0  0  0  0  0  0  0  0  0
    8.1771  -15.9528   19.9264 N   0  0  0  0  0  0  0  0  0  0  0  0
    8.2193  -15.6625   22.3606 C   0  0  0  0  0  0  0  0  0  0  0  0
    9.4666  -15.5496   22.3887 O   0  0  0  0  0  0  0  0  0  0  0  0
    6.4108  -10.2563   26.0710 C   0  0  0  0  0  0  0  0  0  0  0  0
    6.3982  -11.7620   27.0891 S   0  0  0  0  0  0  0  0  0  0  0  0
    7.6814  -12.9269   26.4803 C   0  0  0  0  0  0  0  0  0  0  0  0
    7.1901  -13.6730   25.2827 C   0  0  0  0  0  0  0  0  0  0  0  0
    8.2060  -14.5745   24.6379 C   0  0  2  0  0  0  0  0  0  0  0  0
    7.5118  -15.2106   23.5009 N   0  0  0  0  0  0  0  0  0  0  0  0
    8.6255  -15.6138   25.6130 C   0  0  0  0  0  0  0  0  0  0  0  0
    9.3660  -15.2793   26.5774 O   0  0  0  0  0  0  0  0  0  0  0  0
    8.2613  -16.9443   25.5473 O   0  0  0  0  0  0  0  0  0  0  0  0
  2  1  1  0
  3  2  2  0
  4  2  1  0
  4  5  1  0
  5  6  1  6
  7  5  1  0
  7 12  1  0
  8  7  2  0
 11 10  1  1
 10  9  1  0
 11 12  1  0
 11 13  1  0
 13 20  1  0
 14 13  2  0
 15 16  1  0
 17 16  1  0
 18 17  1  0
 19 18  1  1
 20 19  1  0
 21 19  1  0
 21 23  1  0
 22 21  2  0
M  END
$$$$
