NSM.pdb
     RDKit          3D

 23 22  0  0  1  0  0  0  0  0999 V2000
    8.7819  -14.8873   15.8963 N   0  0  0  0  0  0  0  0  0  0  0  0
    8.2502  -13.9831   16.8397 C   0  0  0  0  0  0  0  0  0  0  0  0
    8.0246  -12.8068   16.4781 O   0  0  0  0  0  0  0  0  0  0  0  0
    7.9814  -14.4469   18.2020 C   0  0  0  0  0  0  0  0  0  0  0  0
    8.4147  -15.8920   18.4165 C   0  0  2  0  0  0  0  0  0  0  0  0
    7.6293  -16.7400   17.5427 N   0  0  0  0  0  0  0  0  0  0  0  0
    8.0975  -16.3135   19.8209 C   0  0  0  0  0  0  0  0  0  0  0  0
    6.9747  -16.1071   20.3098 O   0  0  0  0  0  0  0  0  0  0  0  0
   11.0762  -18.3454   22.1482 O   0  0  0  0  0  0  0  0  0  0  0  0
    9.7154  -18.6341   22.3354 C   0  0  0  0  0  0  0  0  0  0  0  0
    8.8780  -17.4333   21.9627 C   0  0  2  0  0  0  0  0  0  0  0  0
    9.0866  -16.9654   20.6303 N   0  0  0  0  0  0  0  0  0  0  0  0
    9.0731  -16.4024   23.0166 C   0  0  0  0  0  0  0  0  0  0  0  0
    9.9025  -15.4781   22.8520 O   0  0  0  0  0  0  0  0  0  0  0  0
    7.0703  -11.0237   27.6924 C   0  0  0  0  0  0  0  0  0  0  0  0
    6.9206  -12.1356   26.2623 S   0  0  0  0  0  0  0  0  0  0  0  0
    7.2927  -13.8581   26.7809 C   0  0  0  0  0  0  0  0  0  0  0  0
    7.2928  -14.7751   25.6014 C   0  0  0  0  0  0  0  0  0  0  0  0
    8.6211  -15.4079   25.2918 C   0  0  2  0  0  0  0  0  0  0  0  0
    8.3530  -16.4041   24.2358 N   0  0  0  0  0  0  0  0  0  0  0  0
    9.1313  -16.0924   26.5075 C   0  0  0  0  0  0  0  0  0  0  0  0
    8.9876  -17.3412   26.6077 O   0  0  0  0  0  0  0  0  0  0  0  0
    9.7645  -15.4579   27.5581 O   0  0  0  0  0  0  0  0  0  0  0  0
  2  1  1  0
  3  2  2  0
  4  2  1  0
  4  5  1  0
  5  6  1  6
  7  5  1  0
  7 12  1  0
  8  7  2  0
 11 10  1  1
 10  9  1  0
 11 12  1  0
 11 13  1  0
 13 20  1  0
 14 13  2  0
 15 16  1  0
 17 16  1  0
 18 17  1  0
 19 18  1  1
 20 19  1  0
 21 19  1  0
 21 23  1  0
 22 21  2  0
M  END
$$$$
