NSM.pdb
     RDKit          3D

 23 22  0  0  1  0  0  0  0  0999 V2000
    7.1675  -14.0007   15.2699 N   0  0  0  0  0  0  0  0  0  0  0  0
    8.3049  -14.0414   16.1035 C   0  0  0  0  0  0  0  0  0  0  0  0
    9.4136  -14.3076   15.5882 O   0  0  0  0  0  0  0  0  0  0  0  0
    8.1528  -13.7728   17.5345 C   0  0  0  0  0  0  0  0  0  0  0  0
    9.0665  -14.6452   18.3866 C   0  0  2  0  0  0  0  0  0  0  0  0
    9.2906  -15.8939   17.6866 N   0  0  0  0  0  0  0  0  0  0  0  0
    8.3795  -14.9932   19.6740 C   0  0  0  0  0  0  0  0  0  0  0  0
    7.7192  -14.1434   20.2938 O   0  0  0  0  0  0  0  0  0  0  0  0
    9.4631  -18.5702   21.7519 O   0  0  0  0  0  0  0  0  0  0  0  0
    8.1114  -18.1933   21.7797 C   0  0  0  0  0  0  0  0  0  0  0  0
    7.9831  -16.7145   21.4990 C   0  0  2  0  0  0  0  0  0  0  0  0
    8.4710  -16.3178   20.2174 N   0  0  0  0  0  0  0  0  0  0  0  0
    8.5891  -15.9836   22.6435 C   0  0  0  0  0  0  0  0  0  0  0  0
    9.7592  -15.5431   22.5651 O   0  0  0  0  0  0  0  0  0  0  0  0
    6.7738  -10.6795   28.0430 C   0  0  0  0  0  0  0  0  0  0  0  0
    6.3121  -11.8356   26.7186 S   0  0  0  0  0  0  0  0  0  0  0  0
    7.6756  -13.0363   26.4473 C   0  0  0  0  0  0  0  0  0  0  0  0
    7.3446  -13.9647   25.3245 C   0  0  0  0  0  0  0  0  0  0  0  0
    8.4624  -14.8807   24.9101 C   0  0  2  0  0  0  0  0  0  0  0  0
    7.8988  -15.7486   23.8573 N   0  0  0  0  0  0  0  0  0  0  0  0
    8.8730  -15.7078   26.0738 C   0  0  0  0  0  0  0  0  0  0  0  0
    8.4460  -16.8913   26.1595 O   0  0  0  0  0  0  0  0  0  0  0  0
    9.7027  -15.2761   27.0899 O   0  0  0  0  0  0  0  0  0  0  0  0
  2  1  1  0
  3  2  2  0
  4  2  1  0
  4  5  1  0
  5  6  1  6
  7  5  1  0
  7 12  1  0
  8  7  2  0
 11 10  1  1
 10  9  1  0
 11 12  1  0
 11 13  1  0
 13 20  1  0
 14 13  2  0
 15 16  1  0
 17 16  1  0
 18 17  1  0
 19 18  1  1
 20 19  1  0
 21 19  1  0
 21 23  1  0
 22 21  2  0
M  END
$$$$
