NSM.pdb
     RDKit          3D

 23 22  0  0  1  0  0  0  0  0999 V2000
   13.6915  -19.0694   19.3086 N   0  0  0  0  0  0  0  0  0  0  0  0
   13.1108  -17.8981   18.7783 C   0  0  0  0  0  0  0  0  0  0  0  0
   13.6304  -17.3800   17.7649 O   0  0  0  0  0  0  0  0  0  0  0  0
   11.9271  -17.3303   19.4262 C   0  0  0  0  0  0  0  0  0  0  0  0
   11.5338  -18.0954   20.6840 C   0  0  2  0  0  0  0  0  0  0  0  0
   10.7156  -19.2263   20.2949 N   0  0  0  0  0  0  0  0  0  0  0  0
   10.6774  -17.2279   21.5584 C   0  0  0  0  0  0  0  0  0  0  0  0
   10.6036  -16.0035   21.3645 O   0  0  0  0  0  0  0  0  0  0  0  0
    8.2833  -19.0300   24.6140 O   0  0  0  0  0  0  0  0  0  0  0  0
    7.8794  -17.8241   24.0199 C   0  0  0  0  0  0  0  0  0  0  0  0
    9.0878  -17.0601   23.5320 C   0  0  2  0  0  0  0  0  0  0  0  0
    9.9239  -17.7958   22.6392 N   0  0  0  0  0  0  0  0  0  0  0  0
    9.7882  -16.5140   24.7249 C   0  0  0  0  0  0  0  0  0  0  0  0
   10.8058  -17.0866   25.1785 O   0  0  0  0  0  0  0  0  0  0  0  0
    5.4304  -11.9753   27.4528 C   0  0  0  0  0  0  0  0  0  0  0  0
    7.2472  -11.9211   27.4594 S   0  0  0  0  0  0  0  0  0  0  0  0
    7.9132  -13.5587   26.9599 C   0  0  0  0  0  0  0  0  0  0  0  0
    9.4069  -13.5352   26.9369 C   0  0  0  0  0  0  0  0  0  0  0  0
   10.0554  -14.8501   26.6036 C   0  0  2  0  0  0  0  0  0  0  0  0
    9.3582  -15.3463   25.4007 N   0  0  0  0  0  0  0  0  0  0  0  0
    9.8469  -15.7968   27.7292 C   0  0  0  0  0  0  0  0  0  0  0  0
    8.9331  -16.6609   27.6355 O   0  0  0  0  0  0  0  0  0  0  0  0
   10.5892  -15.8075   28.8937 O   0  0  0  0  0  0  0  0  0  0  0  0
  2  1  1  0
  3  2  2  0
  4  2  1  0
  4  5  1  0
  5  6  1  6
  7  5  1  0
  7 12  1  0
  8  7  2  0
 11 10  1  1
 10  9  1  0
 11 12  1  0
 11 13  1  0
 13 20  1  0
 14 13  2  0
 15 16  1  0
 17 16  1  0
 18 17  1  0
 19 18  1  1
 20 19  1  0
 21 19  1  0
 21 23  1  0
 22 21  2  0
M  END
$$$$
