NSM.pdb
     RDKit          3D

 23 22  0  0  1  0  0  0  0  0999 V2000
    7.0997  -13.6865   15.3777 N   0  0  0  0  0  0  0  0  0  0  0  0
    8.2876  -13.7781   16.1331 C   0  0  0  0  0  0  0  0  0  0  0  0
    9.3396  -14.1256   15.5517 O   0  0  0  0  0  0  0  0  0  0  0  0
    8.2518  -13.4658   17.5630 C   0  0  0  0  0  0  0  0  0  0  0  0
    8.9472  -14.5290   18.4043 C   0  0  2  0  0  0  0  0  0  0  0  0
    8.5709  -15.8330   17.8967 N   0  0  0  0  0  0  0  0  0  0  0  0
    8.4518  -14.4607   19.8187 C   0  0  0  0  0  0  0  0  0  0  0  0
    8.5297  -13.4068   20.4708 O   0  0  0  0  0  0  0  0  0  0  0  0
    6.8977  -18.0004   21.7047 O   0  0  0  0  0  0  0  0  0  0  0  0
    6.4271  -16.7382   22.0992 C   0  0  0  0  0  0  0  0  0  0  0  0
    7.4742  -15.6867   21.8167 C   0  0  2  0  0  0  0  0  0  0  0  0
    7.8763  -15.6139   20.4489 N   0  0  0  0  0  0  0  0  0  0  0  0
    8.5902  -15.8914   22.7780 C   0  0  0  0  0  0  0  0  0  0  0  0
    9.0569  -17.0378   22.9712 O   0  0  0  0  0  0  0  0  0  0  0  0
    6.7618  -12.0649   28.5241 C   0  0  0  0  0  0  0  0  0  0  0  0
    7.2105  -12.2040   26.7682 S   0  0  0  0  0  0  0  0  0  0  0  0
    6.6626  -13.8334   26.1206 C   0  0  0  0  0  0  0  0  0  0  0  0
    7.3149  -14.1253   24.8086 C   0  0  0  0  0  0  0  0  0  0  0  0
    8.7602  -14.5302   24.8965 C   0  0  2  0  0  0  0  0  0  0  0  0
    9.1759  -14.8318   23.5125 N   0  0  0  0  0  0  0  0  0  0  0  0
    8.8748  -15.7536   25.7313 C   0  0  0  0  0  0  0  0  0  0  0  0
    8.2745  -16.7996   25.3627 O   0  0  0  0  0  0  0  0  0  0  0  0
    9.6018  -15.8395   26.9023 O   0  0  0  0  0  0  0  0  0  0  0  0
  2  1  1  0
  3  2  2  0
  4  2  1  0
  4  5  1  0
  5  6  1  6
  7  5  1  0
  7 12  1  0
  8  7  2  0
 11 10  1  6
 10  9  1  0
 11 12  1  0
 11 13  1  0
 13 20  1  0
 14 13  2  0
 15 16  1  0
 17 16  1  0
 18 17  1  0
 19 18  1  6
 20 19  1  0
 21 19  1  0
 21 23  1  0
 22 21  2  0
M  END
$$$$
