NSM.pdb
     RDKit          3D

 23 22  0  0  1  0  0  0  0  0999 V2000
   11.8486  -16.6063   16.2682 N   0  0  0  0  0  0  0  0  0  0  0  0
   12.4977  -16.0863   17.4078 C   0  0  0  0  0  0  0  0  0  0  0  0
   13.7448  -15.9863   17.3910 O   0  0  0  0  0  0  0  0  0  0  0  0
   11.6970  -15.6829   18.5651 C   0  0  0  0  0  0  0  0  0  0  0  0
   10.2391  -16.1069   18.4352 C   0  0  2  0  0  0  0  0  0  0  0  0
    9.6143  -15.2910   17.4136 N   0  0  0  0  0  0  0  0  0  0  0  0
    9.5117  -15.8211   19.7157 C   0  0  0  0  0  0  0  0  0  0  0  0
    9.3748  -14.6564   20.1244 O   0  0  0  0  0  0  0  0  0  0  0  0
    8.2954  -19.0259   22.3556 O   0  0  0  0  0  0  0  0  0  0  0  0
    7.4390  -17.9358   22.1356 C   0  0  0  0  0  0  0  0  0  0  0  0
    8.2420  -16.7254   21.7209 C   0  0  2  0  0  0  0  0  0  0  0  0
    8.9578  -16.8895   20.4967 N   0  0  0  0  0  0  0  0  0  0  0  0
    9.0838  -16.3238   22.8791 C   0  0  0  0  0  0  0  0  0  0  0  0
   10.3308  -16.4288   22.8219 O   0  0  0  0  0  0  0  0  0  0  0  0
    5.5348  -12.1890   27.3091 C   0  0  0  0  0  0  0  0  0  0  0  0
    7.3089  -12.4163   26.9855 S   0  0  0  0  0  0  0  0  0  0  0  0
    7.5709  -13.9878   26.0709 C   0  0  0  0  0  0  0  0  0  0  0  0
    9.0135  -14.1606   25.7229 C   0  0  0  0  0  0  0  0  0  0  0  0
    9.3916  -15.5396   25.2583 C   0  0  2  0  0  0  0  0  0  0  0  0
    8.5410  -15.8129   24.0831 N   0  0  0  0  0  0  0  0  0  0  0  0
    9.0880  -16.5179   26.3342 C   0  0  0  0  0  0  0  0  0  0  0  0
    8.0810  -17.2667   26.2087 O   0  0  0  0  0  0  0  0  0  0  0  0
    9.8359  -16.6773   27.4841 O   0  0  0  0  0  0  0  0  0  0  0  0
  2  1  1  0
  3  2  2  0
  4  2  1  0
  4  5  1  0
  5  6  1  6
  7  5  1  0
  7 12  1  0
  8  7  2  0
 11 10  1  1
 10  9  1  0
 11 12  1  0
 11 13  1  0
 13 20  1  0
 14 13  2  0
 15 16  1  0
 17 16  1  0
 18 17  1  0
 19 18  1  1
 20 19  1  0
 21 19  1  0
 21 23  1  0
 22 21  2  0
M  END
$$$$
