NSM.pdb
     RDKit          3D

 23 22  0  0  1  0  0  0  0  0999 V2000
   11.2424  -18.9751   15.9643 N   0  0  0  0  0  0  0  0  0  0  0  0
   11.1587  -19.0007   17.3723 C   0  0  0  0  0  0  0  0  0  0  0  0
   11.8500  -19.8363   17.9965 O   0  0  0  0  0  0  0  0  0  0  0  0
   10.2721  -18.0555   18.0534 C   0  0  0  0  0  0  0  0  0  0  0  0
   10.2938  -18.2307   19.5669 C   0  0  2  0  0  0  0  0  0  0  0  0
    9.3744  -19.2943   19.9179 N   0  0  0  0  0  0  0  0  0  0  0  0
    9.7815  -16.9859   20.2290 C   0  0  0  0  0  0  0  0  0  0  0  0
   10.5543  -16.0640   20.5373 O   0  0  0  0  0  0  0  0  0  0  0  0
    6.1109  -16.9238   22.1798 O   0  0  0  0  0  0  0  0  0  0  0  0
    6.3114  -15.7980   21.3659 C   0  0  0  0  0  0  0  0  0  0  0  0
    7.7796  -15.6511   21.0424 C   0  0  2  0  0  0  0  0  0  0  0  0
    8.3849  -16.8339   20.5203 N   0  0  0  0  0  0  0  0  0  0  0  0
    8.4529  -15.0923   22.2449 C   0  0  0  0  0  0  0  0  0  0  0  0
    9.0875  -14.0148   22.1716 O   0  0  0  0  0  0  0  0  0  0  0  0
    7.1051  -10.6219   27.5816 C   0  0  0  0  0  0  0  0  0  0  0  0
    6.6851  -11.7990   26.2618 S   0  0  0  0  0  0  0  0  0  0  0  0
    7.9888  -13.0883   26.1498 C   0  0  0  0  0  0  0  0  0  0  0  0
    7.7688  -13.9576   24.9547 C   0  0  0  0  0  0  0  0  0  0  0  0
    8.8142  -15.0169   24.7417 C   0  0  2  0  0  0  0  0  0  0  0  0
    8.4180  -15.7277   23.5100 N   0  0  0  0  0  0  0  0  0  0  0  0
    8.7966  -15.9586   25.8905 C   0  0  0  0  0  0  0  0  0  0  0  0
    8.0541  -16.9762   25.8312 O   0  0  0  0  0  0  0  0  0  0  0  0
    9.5443  -15.8065   27.0416 O   0  0  0  0  0  0  0  0  0  0  0  0
  2  1  1  0
  3  2  2  0
  4  2  1  0
  4  5  1  0
  5  6  1  6
  7  5  1  0
  7 12  1  0
  8  7  2  0
 11 10  1  1
 10  9  1  0
 11 12  1  0
 11 13  1  0
 13 20  1  0
 14 13  2  0
 15 16  1  0
 17 16  1  0
 18 17  1  0
 19 18  1  1
 20 19  1  0
 21 19  1  0
 21 23  1  0
 22 21  2  0
M  END
$$$$
