NSM.pdb
     RDKit          3D

 23 22  0  0  1  0  0  0  0  0999 V2000
    7.7720  -18.2315   15.0431 N   0  0  0  0  0  0  0  0  0  0  0  0
    8.1641  -17.2006   15.9227 C   0  0  0  0  0  0  0  0  0  0  0  0
    8.9298  -16.3088   15.4939 O   0  0  0  0  0  0  0  0  0  0  0  0
    7.6662  -17.2073   17.2994 C   0  0  0  0  0  0  0  0  0  0  0  0
    8.7799  -16.9960   18.3178 C   0  0  2  0  0  0  0  0  0  0  0  0
    9.6322  -18.1679   18.3138 N   0  0  0  0  0  0  0  0  0  0  0  0
    8.1951  -16.8964   19.6956 C   0  0  0  0  0  0  0  0  0  0  0  0
    7.3192  -16.0557   19.9568 O   0  0  0  0  0  0  0  0  0  0  0  0
    9.8248  -19.2471   22.9166 O   0  0  0  0  0  0  0  0  0  0  0  0
    8.4431  -19.0046   22.8716 C   0  0  0  0  0  0  0  0  0  0  0  0
    8.1669  -17.7413   22.0906 C   0  0  2  0  0  0  0  0  0  0  0  0
    8.6362  -17.7723   20.7428 N   0  0  0  0  0  0  0  0  0  0  0  0
    8.6706  -16.5953   22.8934 C   0  0  0  0  0  0  0  0  0  0  0  0
    9.8209  -16.1405   22.6949 O   0  0  0  0  0  0  0  0  0  0  0  0
    6.4064  -10.6108   27.5805 C   0  0  0  0  0  0  0  0  0  0  0  0
    6.0026  -12.1524   26.7063 S   0  0  0  0  0  0  0  0  0  0  0  0
    7.5476  -12.9351   26.0941 C   0  0  0  0  0  0  0  0  0  0  0  0
    7.2351  -14.1212   25.2411 C   0  0  0  0  0  0  0  0  0  0  0  0
    8.4360  -14.8392   24.6909 C   0  0  2  0  0  0  0  0  0  0  0  0
    7.9013  -15.9671   23.9027 N   0  0  0  0  0  0  0  0  0  0  0  0
    9.2529  -15.3590   25.8176 C   0  0  0  0  0  0  0  0  0  0  0  0
    9.0713  -16.5458   26.2035 O   0  0  0  0  0  0  0  0  0  0  0  0
   10.2159  -14.6322   26.4896 O   0  0  0  0  0  0  0  0  0  0  0  0
  2  1  1  0
  3  2  2  0
  4  2  1  0
  4  5  1  0
  5  6  1  1
  7  5  1  0
  7 12  1  0
  8  7  2  0
 11 10  1  1
 10  9  1  0
 11 12  1  0
 11 13  1  0
 13 20  1  0
 14 13  2  0
 15 16  1  0
 17 16  1  0
 18 17  1  0
 19 18  1  1
 20 19  1  0
 21 19  1  0
 21 23  1  0
 22 21  2  0
M  END
$$$$
