NSM.pdb
     RDKit          3D

 23 22  0  0  1  0  0  0  0  0999 V2000
    9.7382  -16.7742   15.1618 N   0  0  0  0  0  0  0  0  0  0  0  0
    9.1224  -17.8918   15.7634 C   0  0  0  0  0  0  0  0  0  0  0  0
    9.2046  -19.0002   15.1886 O   0  0  0  0  0  0  0  0  0  0  0  0
    8.4119  -17.7203   17.0318 C   0  0  0  0  0  0  0  0  0  0  0  0
    9.3612  -17.6599   18.2223 C   0  0  2  0  0  0  0  0  0  0  0  0
    9.8348  -19.0012   18.4987 N   0  0  0  0  0  0  0  0  0  0  0  0
    8.6153  -17.2090   19.4433 C   0  0  0  0  0  0  0  0  0  0  0  0
    8.0449  -16.1062   19.4704 O   0  0  0  0  0  0  0  0  0  0  0  0
    8.6649  -19.5228   23.1226 O   0  0  0  0  0  0  0  0  0  0  0  0
    7.4758  -18.9593   22.6342 C   0  0  0  0  0  0  0  0  0  0  0  0
    7.7896  -17.7514   21.7831 C   0  0  2  0  0  0  0  0  0  0  0  0
    8.5451  -18.0441   20.6078 N   0  0  0  0  0  0  0  0  0  0  0  0
    8.3978  -16.7220   22.6674 C   0  0  0  0  0  0  0  0  0  0  0  0
    9.6392  -16.5550   22.6836 O   0  0  0  0  0  0  0  0  0  0  0  0
    6.6367  -10.5649   27.4047 C   0  0  0  0  0  0  0  0  0  0  0  0
    6.0870  -11.9986   26.4320 S   0  0  0  0  0  0  0  0  0  0  0  0
    7.5502  -12.9439   25.8491 C   0  0  0  0  0  0  0  0  0  0  0  0
    7.1351  -14.0367   24.9188 C   0  0  0  0  0  0  0  0  0  0  0  0
    8.2643  -14.8646   24.3710 C   0  0  2  0  0  0  0  0  0  0  0  0
    7.6310  -15.8919   23.5207 N   0  0  0  0  0  0  0  0  0  0  0  0
    8.9809  -15.5185   25.4961 C   0  0  0  0  0  0  0  0  0  0  0  0
    9.8776  -14.8724   26.1034 O   0  0  0  0  0  0  0  0  0  0  0  0
    8.7383  -16.8035   25.9401 O   0  0  0  0  0  0  0  0  0  0  0  0
  2  1  1  0
  3  2  2  0
  4  2  1  0
  4  5  1  0
  5  6  1  1
  7  5  1  0
  7 12  1  0
  8  7  2  0
 11 10  1  1
 10  9  1  0
 11 12  1  0
 11 13  1  0
 13 20  1  0
 14 13  2  0
 15 16  1  0
 17 16  1  0
 18 17  1  0
 19 18  1  1
 20 19  1  0
 21 19  1  0
 21 23  1  0
 22 21  2  0
M  END
$$$$
