SLN.pdb
     RDKit          3D

 23 22  0  0  1  0  0  0  0  0999 V2000
    7.3820  -17.3748   21.1759 O   0  0  0  0  0  0  0  0  0  0  0  0
    6.2410  -16.5718   21.2786 C   0  0  0  0  0  0  0  0  0  0  0  0
    6.6186  -15.1106   21.0599 C   0  0  2  0  0  0  0  0  0  0  0  0
    7.2192  -14.9353   19.7597 N   0  0  0  0  0  0  0  0  0  0  0  0
    7.5094  -14.7181   22.1647 C   0  0  0  0  0  0  0  0  0  0  0  0
    8.7319  -14.5687   21.9138 O   0  0  0  0  0  0  0  0  0  0  0  0
    6.0609  -11.9792   26.9583 C   0  0  0  0  0  0  0  0  0  0  0  0
    6.7397  -12.3252   25.6230 C   0  0  1  0  0  0  0  0  0  0  0  0
    7.8636  -11.2909   25.4803 C   0  0  0  0  0  0  0  0  0  0  0  0
    7.3533  -13.6735   25.8136 C   0  0  0  0  0  0  0  0  0  0  0  0
    7.9966  -14.2524   24.6011 C   0  0  2  0  0  0  0  0  0  0  0  0
    7.0951  -14.4926   23.5039 N   0  0  0  0  0  0  0  0  0  0  0  0
    8.5963  -15.5540   24.9894 C   0  0  0  0  0  0  0  0  0  0  0  0
    7.8726  -16.5715   25.0736 O   0  0  0  0  0  0  0  0  0  0  0  0
   12.9405  -18.9975   23.9986 N   0  0  0  0  0  0  0  0  0  0  0  0
   12.6628  -18.1558   25.1280 C   0  0  0  0  0  0  0  0  0  0  0  0
   12.9988  -18.5641   26.2536 O   0  0  0  0  0  0  0  0  0  0  0  0
   11.9968  -16.8633   24.8726 C   0  0  0  0  0  0  0  0  0  0  0  0
   10.5903  -16.9188   25.3883 C   0  0  2  0  0  0  0  0  0  0  0  0
    9.9919  -15.6197   25.2601 N   0  0  0  0  0  0  0  0  0  0  0  0
   10.5106  -17.3570   26.8067 C   0  0  0  0  0  0  0  0  0  0  0  0
   10.4287  -16.5291   27.7605 O   0  0  0  0  0  0  0  0  0  0  0  0
   10.5224  -18.7011   27.1556 O   0  0  0  0  0  0  0  0  0  0  0  0
  2  1  1  0
  3  4  1  6
  3  2  1  0
  5  3  1  0
  6  5  2  0
  8  7  1  1
  8 10  1  0
  9  8  1  0
 11 10  1  1
 11 12  1  0
 11 13  1  0
 12  5  1  0
 13 20  1  0
 14 13  2  0
 16 18  1  0
 16 15  1  0
 17 16  2  0
 19 21  1  0
 19 18  1  1
 20 19  1  0
 21 23  1  0
 22 21  2  0
M  END
$$$$
