SLN.pdb
     RDKit          3D

 23 22  0  0  1  0  0  0  0  0999 V2000
    7.4901  -17.2380   21.2137 O   0  0  0  0  0  0  0  0  0  0  0  0
    6.3492  -16.4310   21.1485 C   0  0  0  0  0  0  0  0  0  0  0  0
    6.7600  -14.9672   21.0310 C   0  0  2  0  0  0  0  0  0  0  0  0
    7.4466  -14.7359   19.7832 N   0  0  0  0  0  0  0  0  0  0  0  0
    7.5821  -14.6468   22.2099 C   0  0  0  0  0  0  0  0  0  0  0  0
    8.8304  -14.6100   22.0679 O   0  0  0  0  0  0  0  0  0  0  0  0
    5.7526  -12.0703   26.9502 C   0  0  0  0  0  0  0  0  0  0  0  0
    6.4289  -12.4332   25.6181 C   0  0  1  0  0  0  0  0  0  0  0  0
    7.4348  -11.3012   25.3732 C   0  0  0  0  0  0  0  0  0  0  0  0
    7.1844  -13.6960   25.8738 C   0  0  0  0  0  0  0  0  0  0  0  0
    7.8886  -14.2622   24.6895 C   0  0  2  0  0  0  0  0  0  0  0  0
    7.0738  -14.3735   23.5072 N   0  0  0  0  0  0  0  0  0  0  0  0
    8.3513  -15.6257   25.0521 C   0  0  0  0  0  0  0  0  0  0  0  0
    7.5261  -16.4754   25.4561 O   0  0  0  0  0  0  0  0  0  0  0  0
   13.3194  -17.1073   24.7526 N   0  0  0  0  0  0  0  0  0  0  0  0
   12.1557  -16.8910   23.9400 C   0  0  0  0  0  0  0  0  0  0  0  0
   12.1826  -15.9525   23.1244 O   0  0  0  0  0  0  0  0  0  0  0  0
   11.0078  -17.7995   24.1306 C   0  0  0  0  0  0  0  0  0  0  0  0
   10.1447  -17.2827   25.2421 C   0  0  2  0  0  0  0  0  0  0  0  0
    9.7337  -15.9420   24.9324 N   0  0  0  0  0  0  0  0  0  0  0  0
   10.8314  -17.2922   26.5606 C   0  0  0  0  0  0  0  0  0  0  0  0
   11.3534  -18.3421   27.0371 O   0  0  0  0  0  0  0  0  0  0  0  0
   10.9339  -16.1451   27.3367 O   0  0  0  0  0  0  0  0  0  0  0  0
  2  1  1  0
  3  4  1  6
  3  2  1  0
  5  3  1  0
  6  5  2  0
  8  7  1  1
  8 10  1  0
  9  8  1  0
 11 10  1  1
 11 12  1  0
 11 13  1  0
 12  5  1  0
 13 20  1  0
 14 13  2  0
 16 18  1  0
 16 15  1  0
 17 16  2  0
 19 21  1  0
 19 18  1  6
 20 19  1  0
 21 23  1  0
 22 21  2  0
M  END
$$$$
