SLN.pdb
     RDKit          3D

 23 22  0  0  1  0  0  0  0  0999 V2000
    7.9710  -17.6800   21.0672 O   0  0  0  0  0  0  0  0  0  0  0  0
    7.0724  -16.8285   20.4156 C   0  0  0  0  0  0  0  0  0  0  0  0
    7.6521  -15.4195   20.3523 C   0  0  2  0  0  0  0  0  0  0  0  0
    8.7004  -15.3507   19.3633 N   0  0  0  0  0  0  0  0  0  0  0  0
    8.1136  -15.0743   21.7074 C   0  0  0  0  0  0  0  0  0  0  0  0
    9.3131  -15.3083   22.0009 O   0  0  0  0  0  0  0  0  0  0  0  0
    8.2496  -11.7806   25.9509 C   0  0  0  0  0  0  0  0  0  0  0  0
    7.3015  -12.9638   26.2054 C   0  0  1  0  0  0  0  0  0  0  0  0
    6.1332  -12.3610   26.9960 C   0  0  0  0  0  0  0  0  0  0  0  0
    6.8022  -13.3839   24.8618 C   0  0  0  0  0  0  0  0  0  0  0  0
    7.7779  -14.1483   24.0355 C   0  0  2  0  0  0  0  0  0  0  0  0
    7.3051  -14.4926   22.7194 N   0  0  0  0  0  0  0  0  0  0  0  0
    8.0815  -15.4117   24.7539 C   0  0  0  0  0  0  0  0  0  0  0  0
    7.2642  -16.3588   24.7187 O   0  0  0  0  0  0  0  0  0  0  0  0
   12.8273  -18.5960   25.4048 N   0  0  0  0  0  0  0  0  0  0  0  0
   11.4374  -18.5017   25.0575 C   0  0  0  0  0  0  0  0  0  0  0  0
   10.7739  -19.5530   25.0248 O   0  0  0  0  0  0  0  0  0  0  0  0
   10.8936  -17.1611   24.7634 C   0  0  0  0  0  0  0  0  0  0  0  0
    9.8071  -16.8395   25.7448 C   0  0  2  0  0  0  0  0  0  0  0  0
    9.3044  -15.5220   25.4734 N   0  0  0  0  0  0  0  0  0  0  0  0
   10.2644  -16.9078   27.1578 C   0  0  0  0  0  0  0  0  0  0  0  0
   10.0737  -17.9328   27.8753 O   0  0  0  0  0  0  0  0  0  0  0  0
   10.9256  -15.8463   27.7615 O   0  0  0  0  0  0  0  0  0  0  0  0
  2  1  1  0
  3  4  1  6
  3  2  1  0
  5  3  1  0
  6  5  2  0
  8  7  1  6
  8 10  1  0
  9  8  1  0
 11 10  1  1
 11 12  1  0
 11 13  1  0
 12  5  1  0
 13 20  1  0
 14 13  2  0
 16 18  1  0
 16 15  1  0
 17 16  2  0
 19 21  1  0
 19 18  1  6
 20 19  1  0
 21 23  1  0
 22 21  2  0
M  END
$$$$
