SLN.pdb
     RDKit          3D

 23 22  0  0  1  0  0  0  0  0999 V2000
    7.3343  -16.8532   21.0042 O   0  0  0  0  0  0  0  0  0  0  0  0
    6.3483  -15.8608   20.9992 C   0  0  0  0  0  0  0  0  0  0  0  0
    7.0004  -14.4868   21.1101 C   0  0  2  0  0  0  0  0  0  0  0  0
    7.8164  -14.2220   19.9500 N   0  0  0  0  0  0  0  0  0  0  0  0
    7.7633  -14.4642   22.3695 C   0  0  0  0  0  0  0  0  0  0  0  0
    9.0094  -14.6168   22.3086 O   0  0  0  0  0  0  0  0  0  0  0  0
    5.8404  -12.0584   27.1714 C   0  0  0  0  0  0  0  0  0  0  0  0
    6.6225  -12.3465   25.8795 C   0  0  1  0  0  0  0  0  0  0  0  0
    7.7563  -11.3132   25.8743 C   0  0  0  0  0  0  0  0  0  0  0  0
    7.2162  -13.7057   26.0556 C   0  0  0  0  0  0  0  0  0  0  0  0
    7.9659  -14.2254   24.8779 C   0  0  2  0  0  0  0  0  0  0  0  0
    7.1995  -14.2821   23.6598 N   0  0  0  0  0  0  0  0  0  0  0  0
    8.4081  -15.6055   25.2008 C   0  0  0  0  0  0  0  0  0  0  0  0
    7.5693  -16.5332   25.2433 O   0  0  0  0  0  0  0  0  0  0  0  0
   11.9061  -16.2753   23.0020 N   0  0  0  0  0  0  0  0  0  0  0  0
   11.3926  -17.4288   23.6855 C   0  0  0  0  0  0  0  0  0  0  0  0
   10.8717  -18.3263   23.0002 O   0  0  0  0  0  0  0  0  0  0  0  0
   11.5196  -17.4675   25.1558 C   0  0  0  0  0  0  0  0  0  0  0  0
   10.1838  -17.1907   25.7771 C   0  0  2  0  0  0  0  0  0  0  0  0
    9.7867  -15.8482   25.4575 N   0  0  0  0  0  0  0  0  0  0  0  0
   10.1853  -17.3626   27.2538 C   0  0  0  0  0  0  0  0  0  0  0  0
   10.0570  -16.3816   28.0430 O   0  0  0  0  0  0  0  0  0  0  0  0
   10.3281  -18.6128   27.8414 O   0  0  0  0  0  0  0  0  0  0  0  0
  2  1  1  0
  3  4  1  6
  3  2  1  0
  5  3  1  0
  6  5  2  0
  8  7  1  1
  8 10  1  0
  9  8  1  0
 11 10  1  1
 11 12  1  0
 11 13  1  0
 12  5  1  0
 13 20  1  0
 14 13  2  0
 16 18  1  0
 16 15  1  0
 17 16  2  0
 19 21  1  0
 19 18  1  1
 20 19  1  0
 21 23  1  0
 22 21  2  0
M  END
$$$$
