SLN.pdb
     RDKit          3D

 23 22  0  0  1  0  0  0  0  0999 V2000
    7.1075  -17.9991   21.4769 O   0  0  0  0  0  0  0  0  0  0  0  0
    8.2701  -17.3156   21.8489 C   0  0  0  0  0  0  0  0  0  0  0  0
    8.0408  -15.8121   21.7391 C   0  0  2  0  0  0  0  0  0  0  0  0
    8.6328  -15.3000   20.5270 N   0  0  0  0  0  0  0  0  0  0  0  0
    8.5928  -15.1945   22.9565 C   0  0  0  0  0  0  0  0  0  0  0  0
    9.7971  -14.8348   22.9430 O   0  0  0  0  0  0  0  0  0  0  0  0
    5.6659  -12.1274   26.7717 C   0  0  0  0  0  0  0  0  0  0  0  0
    6.6433  -12.5702   25.6707 C   0  0  1  0  0  0  0  0  0  0  0  0
    7.6111  -11.3903   25.5143 C   0  0  0  0  0  0  0  0  0  0  0  0
    7.3942  -13.7321   26.2337 C   0  0  0  0  0  0  0  0  0  0  0  0
    8.4128  -14.3271   25.3241 C   0  0  2  0  0  0  0  0  0  0  0  0
    7.8676  -14.9701   24.1564 N   0  0  0  0  0  0  0  0  0  0  0  0
    9.1622  -15.3495   26.0972 C   0  0  0  0  0  0  0  0  0  0  0  0
    9.6201  -15.0631   27.2261 O   0  0  0  0  0  0  0  0  0  0  0  0
    9.8442  -20.2083   28.4098 N   0  0  0  0  0  0  0  0  0  0  0  0
   10.1249  -19.9213   27.0313 C   0  0  0  0  0  0  0  0  0  0  0  0
   11.0370  -20.5610   26.4786 O   0  0  0  0  0  0  0  0  0  0  0  0
    9.3095  -18.8854   26.3668 C   0  0  0  0  0  0  0  0  0  0  0  0
   10.0896  -17.6072   26.2988 C   0  0  2  0  0  0  0  0  0  0  0  0
    9.3466  -16.6440   25.5356 N   0  0  0  0  0  0  0  0  0  0  0  0
   11.4349  -17.7816   25.6906 C   0  0  0  0  0  0  0  0  0  0  0  0
   11.6192  -17.7139   24.4403 O   0  0  0  0  0  0  0  0  0  0  0  0
   12.5591  -18.0284   26.4676 O   0  0  0  0  0  0  0  0  0  0  0  0
  2  1  1  0
  3  4  1  6
  3  2  1  0
  5  3  1  0
  6  5  2  0
  8  7  1  1
  8 10  1  0
  9  8  1  0
 11 10  1  1
 11 12  1  0
 11 13  1  0
 12  5  1  0
 13 20  1  0
 14 13  2  0
 16 18  1  0
 16 15  1  0
 17 16  2  0
 19 21  1  0
 19 18  1  6
 20 19  1  0
 21 23  1  0
 22 21  2  0
M  END
$$$$
