SLN.pdb
     RDKit          3D

 23 22  0  0  1  0  0  0  0  0999 V2000
    8.8227  -17.9329   22.2174 O   0  0  0  0  0  0  0  0  0  0  0  0
    7.7243  -17.2069   21.7446 C   0  0  0  0  0  0  0  0  0  0  0  0
    8.0989  -15.7347   21.6118 C   0  0  2  0  0  0  0  0  0  0  0  0
    9.0381  -15.5499   20.5321 N   0  0  0  0  0  0  0  0  0  0  0  0
    8.6251  -15.2971   22.9156 C   0  0  0  0  0  0  0  0  0  0  0  0
    9.8721  -15.2671   23.0699 O   0  0  0  0  0  0  0  0  0  0  0  0
    5.6057  -12.0911   26.5566 C   0  0  0  0  0  0  0  0  0  0  0  0
    6.6494  -12.5404   25.5210 C   0  0  1  0  0  0  0  0  0  0  0  0
    7.6381  -11.3707   25.4348 C   0  0  0  0  0  0  0  0  0  0  0  0
    7.3485  -13.7127   26.1273 C   0  0  0  0  0  0  0  0  0  0  0  0
    8.3599  -14.3678   25.2515 C   0  0  2  0  0  0  0  0  0  0  0  0
    7.8298  -14.9024   24.0236 N   0  0  0  0  0  0  0  0  0  0  0  0
    8.9550  -15.4924   26.0168 C   0  0  0  0  0  0  0  0  0  0  0  0
    8.3346  -16.5748   26.1150 O   0  0  0  0  0  0  0  0  0  0  0  0
   12.3199  -17.7954   25.0500 N   0  0  0  0  0  0  0  0  0  0  0  0
   12.5587  -16.5393   25.7030 C   0  0  0  0  0  0  0  0  0  0  0  0
   12.9962  -15.6004   25.0147 O   0  0  0  0  0  0  0  0  0  0  0  0
   12.2675  -16.4512   27.1476 C   0  0  0  0  0  0  0  0  0  0  0  0
   10.7830  -16.4242   27.3542 C   0  0  2  0  0  0  0  0  0  0  0  0
   10.2282  -15.3165   26.6279 N   0  0  0  0  0  0  0  0  0  0  0  0
   10.3997  -16.3122   28.7862 C   0  0  0  0  0  0  0  0  0  0  0  0
    9.7135  -15.3424   29.2226 O   0  0  0  0  0  0  0  0  0  0  0  0
   10.7773  -17.2698   29.7183 O   0  0  0  0  0  0  0  0  0  0  0  0
  2  1  1  0
  3  4  1  6
  3  2  1  0
  5  3  1  0
  6  5  2  0
  8  7  1  1
  8 10  1  0
  9  8  1  0
 11 10  1  1
 11 12  1  0
 11 13  1  0
 12  5  1  0
 13 20  1  0
 14 13  2  0
 16 18  1  0
 16 15  1  0
 17 16  2  0
 19 21  1  0
 19 18  1  1
 20 19  1  0
 21 23  1  0
 22 21  2  0
M  END
$$$$
