SLN.pdb
     RDKit          3D

 23 22  0  0  1  0  0  0  0  0999 V2000
    7.5890  -18.2104   21.4501 O   0  0  0  0  0  0  0  0  0  0  0  0
    6.4751  -17.4220   21.1423 C   0  0  0  0  0  0  0  0  0  0  0  0
    6.9207  -15.9931   20.8503 C   0  0  2  0  0  0  0  0  0  0  0  0
    7.7889  -15.9623   19.6983 N   0  0  0  0  0  0  0  0  0  0  0  0
    7.5625  -15.4762   22.0706 C   0  0  0  0  0  0  0  0  0  0  0  0
    8.8119  -15.5728   22.1677 O   0  0  0  0  0  0  0  0  0  0  0  0
    8.2672  -11.7826   25.8875 C   0  0  0  0  0  0  0  0  0  0  0  0
    7.3428  -12.9060   26.3843 C   0  0  1  0  0  0  0  0  0  0  0  0
    6.2871  -12.1905   27.2369 C   0  0  0  0  0  0  0  0  0  0  0  0
    6.6783  -13.4576   25.1657 C   0  0  0  0  0  0  0  0  0  0  0  0
    7.5232  -14.3666   24.3416 C   0  0  2  0  0  0  0  0  0  0  0  0
    6.8775  -14.8717   23.1574 N   0  0  0  0  0  0  0  0  0  0  0  0
    7.8906  -15.5289   25.1893 C   0  0  0  0  0  0  0  0  0  0  0  0
    7.0316  -16.3981   25.4588 O   0  0  0  0  0  0  0  0  0  0  0  0
   12.7138  -18.8828   25.2563 N   0  0  0  0  0  0  0  0  0  0  0  0
   11.3108  -18.6632   25.4675 C   0  0  0  0  0  0  0  0  0  0  0  0
   10.6499  -19.5818   25.9832 O   0  0  0  0  0  0  0  0  0  0  0  0
   10.7513  -17.3602   25.0566 C   0  0  0  0  0  0  0  0  0  0  0  0
    9.7044  -16.9363   26.0422 C   0  0  2  0  0  0  0  0  0  0  0  0
    9.2216  -15.6325   25.6823 N   0  0  0  0  0  0  0  0  0  0  0  0
   10.2058  -16.9038   27.4414 C   0  0  0  0  0  0  0  0  0  0  0  0
   10.1513  -17.9178   28.1967 O   0  0  0  0  0  0  0  0  0  0  0  0
   10.7604  -15.7548   27.9899 O   0  0  0  0  0  0  0  0  0  0  0  0
  2  1  1  0
  3  4  1  6
  3  2  1  0
  5  3  1  0
  6  5  2  0
  8  7  1  6
  8 10  1  0
  9  8  1  0
 11 10  1  1
 11 12  1  0
 11 13  1  0
 12  5  1  0
 13 20  1  0
 14 13  2  0
 16 18  1  0
 16 15  1  0
 17 16  2  0
 19 21  1  0
 19 18  1  6
 20 19  1  0
 21 23  1  0
 22 21  2  0
M  END
$$$$
