SLN.pdb
     RDKit          3D

 23 22  0  0  1  0  0  0  0  0999 V2000
    7.6807  -16.2554   20.0953 O   0  0  0  0  0  0  0  0  0  0  0  0
    6.6737  -15.3085   20.3109 C   0  0  0  0  0  0  0  0  0  0  0  0
    7.2997  -13.9497   20.6064 C   0  0  2  0  0  0  0  0  0  0  0  0
    8.2208  -13.5815   19.5586 N   0  0  0  0  0  0  0  0  0  0  0  0
    7.9378  -14.0398   21.9304 C   0  0  0  0  0  0  0  0  0  0  0  0
    9.1827  -14.2071   21.9765 O   0  0  0  0  0  0  0  0  0  0  0  0
    5.5849  -12.2092   26.8248 C   0  0  0  0  0  0  0  0  0  0  0  0
    6.5700  -12.3097   25.6488 C   0  0  1  0  0  0  0  0  0  0  0  0
    7.7559  -11.4278   26.0602 C   0  0  0  0  0  0  0  0  0  0  0  0
    7.0225  -13.7327   25.6151 C   0  0  0  0  0  0  0  0  0  0  0  0
    7.8875  -14.0936   24.4572 C   0  0  2  0  0  0  0  0  0  0  0  0
    7.2539  -13.9523   23.1716 N   0  0  0  0  0  0  0  0  0  0  0  0
    8.2794  -15.5169   24.6163 C   0  0  0  0  0  0  0  0  0  0  0  0
    7.9386  -16.3559   23.7525 O   0  0  0  0  0  0  0  0  0  0  0  0
   10.6033  -17.4065   22.1629 N   0  0  0  0  0  0  0  0  0  0  0  0
   10.6416  -17.8918   23.5136 C   0  0  0  0  0  0  0  0  0  0  0  0
   10.4810  -19.1111   23.6978 O   0  0  0  0  0  0  0  0  0  0  0  0
   10.8693  -16.9071   24.5897 C   0  0  0  0  0  0  0  0  0  0  0  0
    9.8363  -17.0933   25.6599 C   0  0  2  0  0  0  0  0  0  0  0  0
    9.0400  -15.9020   25.7558 N   0  0  0  0  0  0  0  0  0  0  0  0
   10.4283  -17.3950   26.9898 C   0  0  0  0  0  0  0  0  0  0  0  0
   10.5178  -18.5778   27.4310 O   0  0  0  0  0  0  0  0  0  0  0  0
   10.9137  -16.3898   27.8160 O   0  0  0  0  0  0  0  0  0  0  0  0
  2  1  1  0
  3  4  1  6
  3  2  1  0
  5  3  1  0
  6  5  2  0
  8  7  1  1
  8 10  1  0
  9  8  1  0
 11 10  1  1
 11 12  1  0
 11 13  1  0
 12  5  1  0
 13 20  1  0
 14 13  2  0
 16 18  1  0
 16 15  1  0
 17 16  2  0
 19 21  1  0
 19 18  1  6
 20 19  1  0
 21 23  1  0
 22 21  2  0
M  END
$$$$
