SLN.pdb
     RDKit          3D

 23 22  0  0  1  0  0  0  0  0999 V2000
    7.2565  -16.9639   21.3757 O   0  0  0  0  0  0  0  0  0  0  0  0
    7.6873  -15.9474   20.5165 C   0  0  0  0  0  0  0  0  0  0  0  0
    7.3746  -14.5872   21.1308 C   0  0  2  0  0  0  0  0  0  0  0  0
    7.7351  -13.5285   20.2191 N   0  0  0  0  0  0  0  0  0  0  0  0
    8.0908  -14.5114   22.4152 C   0  0  0  0  0  0  0  0  0  0  0  0
    9.3472  -14.4882   22.3911 O   0  0  0  0  0  0  0  0  0  0  0  0
    5.8757  -12.1659   27.0517 C   0  0  0  0  0  0  0  0  0  0  0  0
    6.7837  -12.4360   25.8409 C   0  0  1  0  0  0  0  0  0  0  0  0
    7.9059  -11.3968   25.9587 C   0  0  0  0  0  0  0  0  0  0  0  0
    7.3655  -13.7939   26.0611 C   0  0  0  0  0  0  0  0  0  0  0  0
    8.1849  -14.3209   24.9342 C   0  0  2  0  0  0  0  0  0  0  0  0
    7.4706  -14.4619   23.6915 N   0  0  0  0  0  0  0  0  0  0  0  0
    8.6795  -15.6641   25.3287 C   0  0  0  0  0  0  0  0  0  0  0  0
    7.8783  -16.6219   25.4116 O   0  0  0  0  0  0  0  0  0  0  0  0
   12.8151  -16.3994   23.3895 N   0  0  0  0  0  0  0  0  0  0  0  0
   11.8616  -17.2748   24.0107 C   0  0  0  0  0  0  0  0  0  0  0  0
   11.0723  -17.8913   23.2735 O   0  0  0  0  0  0  0  0  0  0  0  0
   11.8860  -17.3811   25.4829 C   0  0  0  0  0  0  0  0  0  0  0  0
   10.5080  -17.1389   26.0212 C   0  0  2  0  0  0  0  0  0  0  0  0
   10.0644  -15.8374   25.6068 N   0  0  0  0  0  0  0  0  0  0  0  0
   10.4411  -17.2302   27.5035 C   0  0  0  0  0  0  0  0  0  0  0  0
   10.8341  -18.2570   28.1303 O   0  0  0  0  0  0  0  0  0  0  0  0
    9.9422  -16.1893   28.2756 O   0  0  0  0  0  0  0  0  0  0  0  0
  2  1  1  0
  3  4  1  6
  3  2  1  0
  5  3  1  0
  6  5  2  0
  8  7  1  1
  8 10  1  0
  9  8  1  0
 11 10  1  1
 11 12  1  0
 11 13  1  0
 12  5  1  0
 13 20  1  0
 14 13  2  0
 16 18  1  0
 16 15  1  0
 17 16  2  0
 19 21  1  0
 19 18  1  1
 20 19  1  0
 21 23  1  0
 22 21  2  0
M  END
$$$$
