SLN.pdb
     RDKit          3D

 23 22  0  0  1  0  0  0  0  0999 V2000
    4.4116  -18.8001   20.1462 O   0  0  0  0  0  0  0  0  0  0  0  0
    5.1324  -17.7389   20.7044 C   0  0  0  0  0  0  0  0  0  0  0  0
    6.2793  -18.2835   21.5490 C   0  0  2  0  0  0  0  0  0  0  0  0
    5.9179  -18.2869   22.9459 N   0  0  0  0  0  0  0  0  0  0  0  0
    7.4650  -17.4589   21.2618 C   0  0  0  0  0  0  0  0  0  0  0  0
    7.9466  -17.4999   20.1016 O   0  0  0  0  0  0  0  0  0  0  0  0
    6.9431  -12.4823   21.1477 C   0  0  0  0  0  0  0  0  0  0  0  0
    7.5517  -13.8451   20.7790 C   0  0  1  0  0  0  0  0  0  0  0  0
    8.3834  -13.5700   19.5197 C   0  0  0  0  0  0  0  0  0  0  0  0
    8.4789  -14.1946   21.8965 C   0  0  0  0  0  0  0  0  0  0  0  0
    9.0439  -15.5719   21.8418 C   0  0  2  0  0  0  0  0  0  0  0  0
    8.1148  -16.6130   22.1988 N   0  0  0  0  0  0  0  0  0  0  0  0
   10.1793  -15.6294   22.7969 C   0  0  0  0  0  0  0  0  0  0  0  0
   11.1094  -14.7970   22.7078 O   0  0  0  0  0  0  0  0  0  0  0  0
   10.7819  -21.1117   22.8408 N   0  0  0  0  0  0  0  0  0  0  0  0
   10.1994  -19.8548   23.2180 C   0  0  0  0  0  0  0  0  0  0  0  0
    9.2594  -19.8709   24.0320 O   0  0  0  0  0  0  0  0  0  0  0  0
   10.7587  -18.6305   22.6117 C   0  0  0  0  0  0  0  0  0  0  0  0
   11.1681  -17.6812   23.6972 C   0  0  2  0  0  0  0  0  0  0  0  0
   10.1877  -16.6370   23.8019 N   0  0  0  0  0  0  0  0  0  0  0  0
   12.5055  -17.0756   23.4629 C   0  0  0  0  0  0  0  0  0  0  0  0
   13.3763  -16.9988   24.3780 O   0  0  0  0  0  0  0  0  0  0  0  0
   12.8657  -16.5627   22.2236 O   0  0  0  0  0  0  0  0  0  0  0  0
  2  1  1  0
  3  4  1  1
  3  2  1  0
  5  3  1  0
  6  5  2  0
  8  7  1  1
  8 10  1  0
  9  8  1  0
 11 10  1  1
 11 12  1  0
 11 13  1  0
 12  5  1  0
 13 20  1  0
 14 13  2  0
 16 18  1  0
 16 15  1  0
 17 16  2  0
 19 21  1  0
 19 18  1  6
 20 19  1  0
 21 23  1  0
 22 21  2  0
M  END
$$$$
