SLN.pdb
     RDKit          3D

 23 22  0  0  1  0  0  0  0  0999 V2000
    7.0756  -15.2513   19.3960 O   0  0  0  0  0  0  0  0  0  0  0  0
    7.8432  -14.7700   20.4620 C   0  0  0  0  0  0  0  0  0  0  0  0
    8.0422  -15.8755   21.4934 C   0  0  2  0  0  0  0  0  0  0  0  0
    6.8140  -16.6064   21.6908 N   0  0  0  0  0  0  0  0  0  0  0  0
    8.5405  -15.2410   22.7252 C   0  0  0  0  0  0  0  0  0  0  0  0
    9.6405  -14.6350   22.6748 O   0  0  0  0  0  0  0  0  0  0  0  0
    5.5176  -12.4184   26.3290 C   0  0  0  0  0  0  0  0  0  0  0  0
    6.5979  -12.8700   25.3328 C   0  0  1  0  0  0  0  0  0  0  0  0
    7.5281  -11.6581   25.1942 C   0  0  0  0  0  0  0  0  0  0  0  0
    7.3456  -13.9705   26.0116 C   0  0  0  0  0  0  0  0  0  0  0  0
    8.3805  -14.6409   25.1757 C   0  0  2  0  0  0  0  0  0  0  0  0
    7.8723  -15.2585   23.9779 N   0  0  0  0  0  0  0  0  0  0  0  0
    9.0071  -15.7025   26.0032 C   0  0  0  0  0  0  0  0  0  0  0  0
    9.4405  -15.4267   27.1444 O   0  0  0  0  0  0  0  0  0  0  0  0
    6.4921  -19.0231   26.1345 N   0  0  0  0  0  0  0  0  0  0  0  0
    7.6799  -19.0523   26.9404 C   0  0  0  0  0  0  0  0  0  0  0  0
    7.5547  -18.8849   28.1664 O   0  0  0  0  0  0  0  0  0  0  0  0
    8.9679  -19.2793   26.2555 C   0  0  0  0  0  0  0  0  0  0  0  0
    9.7708  -18.0136   26.2752 C   0  0  2  0  0  0  0  0  0  0  0  0
    9.1034  -17.0221   25.4790 N   0  0  0  0  0  0  0  0  0  0  0  0
   11.1557  -18.1985   25.7675 C   0  0  0  0  0  0  0  0  0  0  0  0
   11.9871  -18.9558   26.3481 O   0  0  0  0  0  0  0  0  0  0  0  0
   11.6066  -17.5467   24.6271 O   0  0  0  0  0  0  0  0  0  0  0  0
  2  1  1  0
  3  4  1  1
  3  2  1  0
  5  3  1  0
  6  5  2  0
  8  7  1  1
  8 10  1  0
  9  8  1  0
 11 10  1  1
 11 12  1  0
 11 13  1  0
 12  5  1  0
 13 20  1  0
 14 13  2  0
 16 18  1  0
 16 15  1  0
 17 16  2  0
 19 21  1  0
 19 18  1  6
 20 19  1  0
 21 23  1  0
 22 21  2  0
M  END
$$$$
