SLN.pdb
     RDKit          3D

 23 22  0  0  1  0  0  0  0  0999 V2000
    8.4960  -18.2679   22.4438 O   0  0  0  0  0  0  0  0  0  0  0  0
    7.5389  -17.7217   21.5818 C   0  0  0  0  0  0  0  0  0  0  0  0
    7.9531  -16.3099   21.1810 C   0  0  2  0  0  0  0  0  0  0  0  0
    9.0066  -16.3552   20.1962 N   0  0  0  0  0  0  0  0  0  0  0  0
    8.3436  -15.6018   22.4116 C   0  0  0  0  0  0  0  0  0  0  0  0
    9.5539  -15.2969   22.5595 O   0  0  0  0  0  0  0  0  0  0  0  0
    7.8146  -11.5603   25.7110 C   0  0  0  0  0  0  0  0  0  0  0  0
    7.0846  -12.7636   26.3295 C   0  0  1  0  0  0  0  0  0  0  0  0
    5.8065  -12.1711   26.9367 C   0  0  0  0  0  0  0  0  0  0  0  0
    6.7052  -13.6444   25.1844 C   0  0  0  0  0  0  0  0  0  0  0  0
    7.8263  -14.4223   24.5868 C   0  0  2  0  0  0  0  0  0  0  0  0
    7.4546  -15.2319   23.4551 N   0  0  0  0  0  0  0  0  0  0  0  0
    8.3551  -15.3273   25.6384 C   0  0  0  0  0  0  0  0  0  0  0  0
    8.7153  -14.8564   26.7405 O   0  0  0  0  0  0  0  0  0  0  0  0
    6.3930  -17.8076   25.9806 N   0  0  0  0  0  0  0  0  0  0  0  0
    7.1298  -19.0354   25.8769 C   0  0  0  0  0  0  0  0  0  0  0  0
    6.5013  -20.0672   25.5822 O   0  0  0  0  0  0  0  0  0  0  0  0
    8.5838  -18.9858   26.1278 C   0  0  0  0  0  0  0  0  0  0  0  0
    8.9941  -17.5684   26.3918 C   0  0  2  0  0  0  0  0  0  0  0  0
    8.4428  -16.7223   25.3707 N   0  0  0  0  0  0  0  0  0  0  0  0
   10.4695  -17.3905   26.4314 C   0  0  0  0  0  0  0  0  0  0  0  0
   11.0888  -16.7279   25.5487 O   0  0  0  0  0  0  0  0  0  0  0  0
   11.2431  -17.9450   27.4427 O   0  0  0  0  0  0  0  0  0  0  0  0
  2  1  1  0
  3  4  1  6
  3  2  1  0
  5  3  1  0
  6  5  2  0
  8  7  1  6
  8 10  1  0
  9  8  1  0
 11 10  1  1
 11 12  1  0
 11 13  1  0
 12  5  1  0
 13 20  1  0
 14 13  2  0
 16 18  1  0
 16 15  1  0
 17 16  2  0
 19 21  1  0
 19 18  1  6
 20 19  1  0
 21 23  1  0
 22 21  2  0
M  END
$$$$
