NMN.pdb
     RDKit          3D

 25 24  0  0  1  0  0  0  0  0999 V2000
    5.2606  -17.7310   18.3725 N   0  0  0  0  0  0  0  0  0  0  0  0
    6.6363  -17.9364   18.6328 C   0  0  0  0  0  0  0  0  0  0  0  0
    7.2050  -19.0393   18.3242 O   0  0  0  0  0  0  0  0  0  0  0  0
    7.4330  -16.8525   19.2756 C   0  0  0  0  0  0  0  0  0  0  0  0
    8.0704  -17.3567   20.5779 C   0  0  2  0  0  0  0  0  0  0  0  0
    7.0863  -18.0425   21.3747 N   0  0  0  0  0  0  0  0  0  0  0  0
    8.5457  -16.1475   21.3092 C   0  0  0  0  0  0  0  0  0  0  0  0
    9.4776  -15.4673   20.8064 O   0  0  0  0  0  0  0  0  0  0  0  0
    5.8742  -12.5121   27.1019 C   0  0  0  0  0  0  0  0  0  0  0  0
    6.2307  -11.9479   25.4371 S   0  0  0  0  0  0  0  0  0  0  0  0
    7.7761  -12.7447   24.8463 C   0  0  0  0  0  0  0  0  0  0  0  0
    7.3656  -13.8472   23.9242 C   0  0  0  0  0  0  0  0  0  0  0  0
    8.4992  -14.6406   23.3424 C   0  0  2  0  0  0  0  0  0  0  0  0
    8.0089  -15.7200   22.5368 N   0  0  0  0  0  0  0  0  0  0  0  0
    9.5321  -15.0352   24.3337 C   0  0  0  0  0  0  0  0  0  0  0  0
    9.1827  -14.9659   25.5404 O   0  0  0  0  0  0  0  0  0  0  0  0
   11.0220  -18.1339   27.1481 N   0  0  0  0  0  0  0  0  0  0  0  0
   11.0086  -18.6327   25.8400 C   0  0  0  0  0  0  0  0  0  0  0  0
   11.2624  -19.8778   25.6601 O   0  0  0  0  0  0  0  0  0  0  0  0
   10.7088  -17.7569   24.6979 C   0  0  0  0  0  0  0  0  0  0  0  0
   11.5233  -16.5097   24.7207 C   0  0  2  0  0  0  0  0  0  0  0  0
   10.8172  -15.4594   24.0023 N   0  0  0  0  0  0  0  0  0  0  0  0
   12.8205  -16.7152   24.0289 C   0  0  0  0  0  0  0  0  0  0  0  0
   14.0135  -16.4375   24.7127 O   0  0  0  0  0  0  0  0  0  0  0  0
   12.9537  -17.1285   22.8521 O   0  0  0  0  0  0  0  0  0  0  0  0
  1  2  1  0
  2  3  2  0
  4  2  1  0
  5  4  1  0
  5  6  1  1
  7  8  2  0
  7  5  1  0
  9 10  1  0
 10 11  1  0
 11 12  1  0
 13 12  1  1
 13 14  1  0
 14  7  1  0
 15 13  1  0
 15 22  1  0
 16 15  2  0
 18 17  1  0
 18 20  1  0
 19 18  2  0
 21 22  1  0
 21 20  1  6
 23 21  1  0
 24 23  1  0
 25 23  2  0
M  END
$$$$
