NMN.pdb
     RDKit          3D

 25 24  0  0  1  0  0  0  0  0999 V2000
    7.9816  -15.5216   17.2652 N   0  0  0  0  0  0  0  0  0  0  0  0
    7.5941  -14.2627   17.7826 C   0  0  0  0  0  0  0  0  0  0  0  0
    7.2181  -13.3208   17.0039 O   0  0  0  0  0  0  0  0  0  0  0  0
    7.6247  -14.0318   19.2552 C   0  0  0  0  0  0  0  0  0  0  0  0
    8.0144  -15.3213   19.9914 C   0  0  2  0  0  0  0  0  0  0  0  0
    6.8631  -16.1747   20.1331 N   0  0  0  0  0  0  0  0  0  0  0  0
    8.4934  -14.9066   21.3410 C   0  0  0  0  0  0  0  0  0  0  0  0
    9.6263  -14.3671   21.4383 O   0  0  0  0  0  0  0  0  0  0  0  0
    6.5264  -11.2467   26.9164 C   0  0  0  0  0  0  0  0  0  0  0  0
    6.0464  -12.9721   26.8174 S   0  0  0  0  0  0  0  0  0  0  0  0
    7.4295  -13.9446   26.1006 C   0  0  0  0  0  0  0  0  0  0  0  0
    7.1131  -14.1387   24.6527 C   0  0  0  0  0  0  0  0  0  0  0  0
    8.1946  -14.8042   23.8524 C   0  0  2  0  0  0  0  0  0  0  0  0
    7.7473  -15.0844   22.5198 N   0  0  0  0  0  0  0  0  0  0  0  0
    8.8336  -15.9552   24.5395 C   0  0  0  0  0  0  0  0  0  0  0  0
    8.1072  -16.9717   24.6882 O   0  0  0  0  0  0  0  0  0  0  0  0
   12.1737  -17.6895   23.1626 N   0  0  0  0  0  0  0  0  0  0  0  0
   12.7181  -16.8841   24.1701 C   0  0  0  0  0  0  0  0  0  0  0  0
   13.6394  -16.0493   23.8515 O   0  0  0  0  0  0  0  0  0  0  0  0
   12.2474  -16.9860   25.5592 C   0  0  0  0  0  0  0  0  0  0  0  0
   10.7655  -17.1158   25.6393 C   0  0  2  0  0  0  0  0  0  0  0  0
   10.1454  -15.9599   25.0088 N   0  0  0  0  0  0  0  0  0  0  0  0
   10.3143  -17.1358   27.0534 C   0  0  0  0  0  0  0  0  0  0  0  0
   10.2898  -18.3543   27.7478 O   0  0  0  0  0  0  0  0  0  0  0  0
    9.9419  -16.1318   27.7067 O   0  0  0  0  0  0  0  0  0  0  0  0
  1  2  1  0
  2  3  2  0
  4  2  1  0
  5  4  1  0
  5  6  1  1
  7  8  2  0
  7  5  1  0
  9 10  1  0
 10 11  1  0
 11 12  1  0
 13 12  1  1
 13 14  1  0
 14  7  1  0
 15 13  1  0
 15 22  1  0
 16 15  2  0
 18 17  1  0
 18 20  1  0
 19 18  2  0
 21 22  1  0
 21 20  1  1
 23 21  1  0
 24 23  1  0
 25 23  2  0
M  END
$$$$
