NMN.pdb
     RDKit          3D

 25 24  0  0  1  0  0  0  0  0999 V2000
    7.9514  -16.9760   18.4537 N   0  0  0  0  0  0  0  0  0  0  0  0
    8.4381  -15.6471   18.4472 C   0  0  0  0  0  0  0  0  0  0  0  0
    8.5560  -14.9969   17.3525 O   0  0  0  0  0  0  0  0  0  0  0  0
    8.8183  -14.9969   19.7338 C   0  0  0  0  0  0  0  0  0  0  0  0
    8.7623  -16.0120   20.8839 C   0  0  2  0  0  0  0  0  0  0  0  0
    7.4470  -16.5928   20.9648 N   0  0  0  0  0  0  0  0  0  0  0  0
    9.0449  -15.2485   22.1329 C   0  0  0  0  0  0  0  0  0  0  0  0
   10.2353  -14.9274   22.3860 O   0  0  0  0  0  0  0  0  0  0  0  0
    6.1609  -10.8253   27.9727 C   0  0  0  0  0  0  0  0  0  0  0  0
    5.9712  -11.6505   26.3915 S   0  0  0  0  0  0  0  0  0  0  0  0
    7.3590  -12.8295   26.1540 C   0  0  0  0  0  0  0  0  0  0  0  0
    7.2081  -13.3996   24.7805 C   0  0  0  0  0  0  0  0  0  0  0  0
    8.2736  -14.3786   24.3813 C   0  0  2  0  0  0  0  0  0  0  0  0
    8.0515  -14.8634   23.0508 N   0  0  0  0  0  0  0  0  0  0  0  0
    8.5254  -15.4415   25.3873 C   0  0  0  0  0  0  0  0  0  0  0  0
    8.7253  -15.0413   26.5632 O   0  0  0  0  0  0  0  0  0  0  0  0
    6.3126  -19.0875   23.8226 N   0  0  0  0  0  0  0  0  0  0  0  0
    6.6478  -18.7702   25.1443 C   0  0  0  0  0  0  0  0  0  0  0  0
    5.7568  -18.2146   25.8823 O   0  0  0  0  0  0  0  0  0  0  0  0
    7.9846  -19.0668   25.6793 C   0  0  0  0  0  0  0  0  0  0  0  0
    8.6975  -17.8343   26.1178 C   0  0  2  0  0  0  0  0  0  0  0  0
    8.5510  -16.8045   25.0999 N   0  0  0  0  0  0  0  0  0  0  0  0
   10.1512  -18.0929   26.2706 C   0  0  0  0  0  0  0  0  0  0  0  0
   11.0563  -17.4420   25.4193 O   0  0  0  0  0  0  0  0  0  0  0  0
   10.6623  -18.8633   27.1184 O   0  0  0  0  0  0  0  0  0  0  0  0
  1  2  1  0
  2  3  2  0
  4  2  1  0
  5  4  1  0
  5  6  1  1
  7  8  2  0
  7  5  1  0
  9 10  1  0
 10 11  1  0
 11 12  1  0
 13 12  1  1
 13 14  1  0
 14  7  1  0
 15 13  1  0
 15 22  1  0
 16 15  2  0
 18 17  1  0
 18 20  1  0
 19 18  2  0
 21 22  1  0
 21 20  1  6
 23 21  1  0
 24 23  1  0
 25 23  2  0
M  END
$$$$
