NMN.pdb
     RDKit          3D

 25 24  0  0  1  0  0  0  0  0999 V2000
  -10.9551  -22.3359   30.1493 N   0  0  0  0  0  0  0  0  0  0  0  0
   -9.6979  -22.9854   30.1665 C   0  0  0  0  0  0  0  0  0  0  0  0
   -9.4842  -23.9812   30.9397 O   0  0  0  0  0  0  0  0  0  0  0  0
   -8.6081  -22.5019   29.2713 C   0  0  0  0  0  0  0  0  0  0  0  0
   -7.7332  -23.6761   28.8103 C   0  0  2  0  0  0  0  0  0  0  0  0
   -7.1431  -24.3281   29.9506 N   0  0  0  0  0  0  0  0  0  0  0  0
   -6.6564  -23.0904   27.9616 C   0  0  0  0  0  0  0  0  0  0  0  0
   -6.9816  -22.4999   26.8988 O   0  0  0  0  0  0  0  0  0  0  0  0
   -2.9490  -20.6276   31.6028 C   0  0  0  0  0  0  0  0  0  0  0  0
   -3.0162  -19.6717   30.0866 S   0  0  0  0  0  0  0  0  0  0  0  0
   -4.1415  -20.5027   28.8969 C   0  0  0  0  0  0  0  0  0  0  0  0
   -3.3890  -21.6652   28.3341 C   0  0  0  0  0  0  0  0  0  0  0  0
   -4.2120  -22.6128   27.5108 C   0  0  2  0  0  0  0  0  0  0  0  0
   -5.2889  -23.1598   28.2824 N   0  0  0  0  0  0  0  0  0  0  0  0
   -3.4122  -23.6227   26.7719 C   0  0  0  0  0  0  0  0  0  0  0  0
   -2.3372  -23.2041   26.2700 O   0  0  0  0  0  0  0  0  0  0  0  0
    0.3294  -27.1682   27.9496 N   0  0  0  0  0  0  0  0  0  0  0  0
   -0.5270  -26.7204   26.9366 C   0  0  0  0  0  0  0  0  0  0  0  0
   -0.3530  -27.1721   25.7479 O   0  0  0  0  0  0  0  0  0  0  0  0
   -1.6021  -25.7595   27.2227 C   0  0  0  0  0  0  0  0  0  0  0  0
   -2.8269  -26.0358   26.4209 C   0  0  2  0  0  0  0  0  0  0  0  0
   -3.7836  -24.9563   26.6144 N   0  0  0  0  0  0  0  0  0  0  0  0
   -3.4832  -27.2871   26.8761 C   0  0  0  0  0  0  0  0  0  0  0  0
   -3.4681  -28.4126   26.0391 O   0  0  0  0  0  0  0  0  0  0  0  0
   -4.0681  -27.4368   27.9756 O   0  0  0  0  0  0  0  0  0  0  0  0
  1  2  1  0
  2  3  2  0
  4  2  1  0
  5  4  1  0
  5  6  1  1
  7  8  2  0
  7  5  1  0
  9 10  1  0
 10 11  1  0
 11 12  1  0
 13 12  1  1
 13 14  1  0
 14  7  1  0
 15 13  1  0
 15 22  1  0
 16 15  2  0
 18 17  1  0
 18 20  1  0
 19 18  2  0
 21 22  1  0
 21 20  1  1
 23 21  1  0
 24 23  1  0
 25 23  2  0
M  END
$$$$
