NMN.pdb
     RDKit          3D

 25 24  0  0  1  0  0  0  0  0999 V2000
    7.9755  -15.6279   18.4304 N   0  0  0  0  0  0  0  0  0  0  0  0
    8.0598  -14.2795   18.8516 C   0  0  0  0  0  0  0  0  0  0  0  0
    7.9236  -13.3212   18.0160 O   0  0  0  0  0  0  0  0  0  0  0  0
    8.3106  -13.9723   20.2887 C   0  0  0  0  0  0  0  0  0  0  0  0
    8.4765  -15.2695   21.0926 C   0  0  2  0  0  0  0  0  0  0  0  0
    7.2361  -16.0008   21.1092 N   0  0  0  0  0  0  0  0  0  0  0  0
    8.8300  -14.8609   22.4822 C   0  0  0  0  0  0  0  0  0  0  0  0
    9.9503  -14.3245   22.6855 O   0  0  0  0  0  0  0  0  0  0  0  0
    6.9187  -11.0255   27.3764 C   0  0  0  0  0  0  0  0  0  0  0  0
    5.8632  -11.7574   26.1244 S   0  0  0  0  0  0  0  0  0  0  0  0
    6.8956  -12.7218   24.9513 C   0  0  0  0  0  0  0  0  0  0  0  0
    7.2564  -13.9963   25.6440 C   0  0  0  0  0  0  0  0  0  0  0  0
    8.3161  -14.8101   24.9601 C   0  0  2  0  0  0  0  0  0  0  0  0
    7.9781  -15.0412   23.5865 N   0  0  0  0  0  0  0  0  0  0  0  0
    8.7172  -16.0297   25.7064 C   0  0  0  0  0  0  0  0  0  0  0  0
    8.9975  -15.8569   26.9207 O   0  0  0  0  0  0  0  0  0  0  0  0
    6.3989  -19.4556   23.9915 N   0  0  0  0  0  0  0  0  0  0  0  0
    7.0192  -19.3886   25.2448 C   0  0  0  0  0  0  0  0  0  0  0  0
    6.3025  -19.0788   26.2635 O   0  0  0  0  0  0  0  0  0  0  0  0
    8.4545  -19.6684   25.3961 C   0  0  0  0  0  0  0  0  0  0  0  0
    9.2059  -18.4822   25.8938 C   0  0  2  0  0  0  0  0  0  0  0  0
    8.7956  -17.3030   25.1462 N   0  0  0  0  0  0  0  0  0  0  0  0
   10.6642  -18.6524   25.6741 C   0  0  0  0  0  0  0  0  0  0  0  0
   11.2239  -18.2550   24.4508 O   0  0  0  0  0  0  0  0  0  0  0  0
   11.4687  -19.1330   26.5078 O   0  0  0  0  0  0  0  0  0  0  0  0
  1  2  1  0
  2  3  2  0
  4  2  1  0
  5  4  1  0
  5  6  1  1
  7  8  2  0
  7  5  1  0
  9 10  1  0
 10 11  1  0
 11 12  1  0
 13 12  1  1
 13 14  1  0
 14  7  1  0
 15 13  1  0
 15 22  1  0
 16 15  2  0
 18 17  1  0
 18 20  1  0
 19 18  2  0
 21 22  1  0
 21 20  1  6
 23 21  1  0
 24 23  1  0
 25 23  2  0
M  END
$$$$
