NMN.pdb
     RDKit          3D

 25 24  0  0  1  0  0  0  0  0999 V2000
    7.9513  -15.3047   17.6806 N   0  0  0  0  0  0  0  0  0  0  0  0
    7.9401  -13.9969   18.2211 C   0  0  0  0  0  0  0  0  0  0  0  0
    7.7901  -12.9760   17.4659 O   0  0  0  0  0  0  0  0  0  0  0  0
    8.1056  -13.8070   19.6906 C   0  0  0  0  0  0  0  0  0  0  0  0
    8.2664  -15.1635   20.3910 C   0  0  2  0  0  0  0  0  0  0  0  0
    7.0114  -15.8697   20.3912 N   0  0  0  0  0  0  0  0  0  0  0  0
    8.6685  -14.8665   21.7957 C   0  0  0  0  0  0  0  0  0  0  0  0
    9.8266  -14.4225   22.0093 O   0  0  0  0  0  0  0  0  0  0  0  0
    6.2032  -10.6045   26.3763 C   0  0  0  0  0  0  0  0  0  0  0  0
    6.6826  -12.3220   26.5704 S   0  0  0  0  0  0  0  0  0  0  0  0
    6.6594  -13.1457   24.9293 C   0  0  0  0  0  0  0  0  0  0  0  0
    7.0866  -14.5606   25.1527 C   0  0  0  0  0  0  0  0  0  0  0  0
    8.2166  -15.0255   24.2811 C   0  0  2  0  0  0  0  0  0  0  0  0
    7.8226  -15.0547   22.9033 N   0  0  0  0  0  0  0  0  0  0  0  0
    8.8751  -16.2686   24.7570 C   0  0  0  0  0  0  0  0  0  0  0  0
    8.1653  -17.3068   24.7252 O   0  0  0  0  0  0  0  0  0  0  0  0
   13.0843  -16.5275   23.3007 N   0  0  0  0  0  0  0  0  0  0  0  0
   12.4736  -17.6007   23.9605 C   0  0  0  0  0  0  0  0  0  0  0  0
   12.1215  -18.6215   23.2668 O   0  0  0  0  0  0  0  0  0  0  0  0
   12.2422  -17.5656   25.4118 C   0  0  0  0  0  0  0  0  0  0  0  0
   10.7906  -17.5496   25.7464 C   0  0  2  0  0  0  0  0  0  0  0  0
   10.1878  -16.3342   25.2195 N   0  0  0  0  0  0  0  0  0  0  0  0
   10.5892  -17.5343   27.2170 C   0  0  0  0  0  0  0  0  0  0  0  0
   11.0313  -18.6247   27.9807 O   0  0  0  0  0  0  0  0  0  0  0  0
   10.0438  -16.6065   27.8614 O   0  0  0  0  0  0  0  0  0  0  0  0
  1  2  1  0
  2  3  2  0
  4  2  1  0
  5  4  1  0
  5  6  1  1
  7  8  2  0
  7  5  1  0
  9 10  1  0
 10 11  1  0
 11 12  1  0
 13 12  1  1
 13 14  1  0
 14  7  1  0
 15 13  1  0
 15 22  1  0
 16 15  2  0
 18 17  1  0
 18 20  1  0
 19 18  2  0
 21 22  1  0
 21 20  1  1
 23 21  1  0
 24 23  1  0
 25 23  2  0
M  END
$$$$
