NMN.pdb
     RDKit          3D

 25 24  0  0  1  0  0  0  0  0999 V2000
    7.6829  -17.3927   18.8924 N   0  0  0  0  0  0  0  0  0  0  0  0
    8.0796  -16.0355   18.8352 C   0  0  0  0  0  0  0  0  0  0  0  0
    8.0671  -15.3942   17.7290 O   0  0  0  0  0  0  0  0  0  0  0  0
    8.5180  -15.3443   20.0813 C   0  0  0  0  0  0  0  0  0  0  0  0
    8.6883  -16.3560   21.2233 C   0  0  2  0  0  0  0  0  0  0  0  0
    7.4281  -16.9908   21.5109 N   0  0  0  0  0  0  0  0  0  0  0  0
    9.1337  -15.5760   22.4133 C   0  0  0  0  0  0  0  0  0  0  0  0
   10.2892  -15.0774   22.4082 O   0  0  0  0  0  0  0  0  0  0  0  0
    6.4933  -12.4133   27.5091 C   0  0  0  0  0  0  0  0  0  0  0  0
    6.1630  -11.8832   25.8278 S   0  0  0  0  0  0  0  0  0  0  0  0
    6.9531  -13.0570   24.6572 C   0  0  0  0  0  0  0  0  0  0  0  0
    7.6417  -14.0926   25.4865 C   0  0  0  0  0  0  0  0  0  0  0  0
    8.7659  -14.8100   24.7975 C   0  0  2  0  0  0  0  0  0  0  0  0
    8.3316  -15.3636   23.5487 N   0  0  0  0  0  0  0  0  0  0  0  0
    9.4987  -15.7632   25.6691 C   0  0  0  0  0  0  0  0  0  0  0  0
    9.8546  -15.3134   26.7888 O   0  0  0  0  0  0  0  0  0  0  0  0
   10.3062  -18.4278   28.8666 N   0  0  0  0  0  0  0  0  0  0  0  0
    9.6626  -19.3188   27.9994 C   0  0  0  0  0  0  0  0  0  0  0  0
    9.0016  -20.2940   28.5084 O   0  0  0  0  0  0  0  0  0  0  0  0
    9.7365  -19.1442   26.5415 C   0  0  0  0  0  0  0  0  0  0  0  0
   10.5758  -17.9740   26.1603 C   0  0  2  0  0  0  0  0  0  0  0  0
    9.7989  -17.0775   25.3173 N   0  0  0  0  0  0  0  0  0  0  0  0
   11.7539  -18.4067   25.3675 C   0  0  0  0  0  0  0  0  0  0  0  0
   11.6601  -18.4500   23.9685 O   0  0  0  0  0  0  0  0  0  0  0  0
   12.8616  -18.7473   25.8475 O   0  0  0  0  0  0  0  0  0  0  0  0
  1  2  1  0
  2  3  2  0
  4  2  1  0
  5  4  1  0
  5  6  1  1
  7  8  2  0
  7  5  1  0
  9 10  1  0
 10 11  1  0
 11 12  1  0
 13 12  1  1
 13 14  1  0
 14  7  1  0
 15 13  1  0
 15 22  1  0
 16 15  2  0
 18 17  1  0
 18 20  1  0
 19 18  2  0
 21 22  1  0
 21 20  1  6
 23 21  1  0
 24 23  1  0
 25 23  2  0
M  END
$$$$
