NMN.pdb
     RDKit          3D

 25 24  0  0  1  0  0  0  0  0999 V2000
    7.1458  -13.0692   17.3256 N   0  0  0  0  0  0  0  0  0  0  0  0
    7.9995  -14.0421   17.8979 C   0  0  0  0  0  0  0  0  0  0  0  0
    8.2969  -15.1103   17.2610 O   0  0  0  0  0  0  0  0  0  0  0  0
    8.5594  -13.8185   19.2614 C   0  0  0  0  0  0  0  0  0  0  0  0
    8.3721  -15.0708   20.1293 C   0  0  2  0  0  0  0  0  0  0  0  0
    6.9851  -15.4580   20.1425 N   0  0  0  0  0  0  0  0  0  0  0  0
    8.7950  -14.6939   21.5084 C   0  0  0  0  0  0  0  0  0  0  0  0
    9.9997  -14.3879   21.7062 O   0  0  0  0  0  0  0  0  0  0  0  0
    6.3798  -11.2654   28.0961 C   0  0  0  0  0  0  0  0  0  0  0  0
    6.0648  -11.9320   26.4611 S   0  0  0  0  0  0  0  0  0  0  0  0
    7.4408  -13.0530   25.9895 C   0  0  0  0  0  0  0  0  0  0  0  0
    7.1511  -13.5289   24.6024 C   0  0  0  0  0  0  0  0  0  0  0  0
    8.2647  -14.2962   23.9512 C   0  0  2  0  0  0  0  0  0  0  0  0
    7.9195  -14.6601   22.6085 N   0  0  0  0  0  0  0  0  0  0  0  0
    8.7896  -15.4153   24.7742 C   0  0  0  0  0  0  0  0  0  0  0  0
    9.0959  -15.1224   25.9588 O   0  0  0  0  0  0  0  0  0  0  0  0
   11.6585  -19.3602   26.1588 N   0  0  0  0  0  0  0  0  0  0  0  0
   12.0597  -18.6411   25.0266 C   0  0  0  0  0  0  0  0  0  0  0  0
   13.2418  -18.8379   24.5671 O   0  0  0  0  0  0  0  0  0  0  0  0
   11.1524  -17.6855   24.3748 C   0  0  0  0  0  0  0  0  0  0  0  0
    9.7911  -17.7052   24.9797 C   0  0  2  0  0  0  0  0  0  0  0  0
    8.9529  -16.7198   24.3130 N   0  0  0  0  0  0  0  0  0  0  0  0
    9.8472  -17.3306   26.4150 C   0  0  0  0  0  0  0  0  0  0  0  0
    9.5084  -18.2845   27.3861 O   0  0  0  0  0  0  0  0  0  0  0  0
   10.1812  -16.2043   26.8547 O   0  0  0  0  0  0  0  0  0  0  0  0
  1  2  1  0
  2  3  2  0
  4  2  1  0
  5  4  1  0
  5  6  1  1
  7  8  2  0
  7  5  1  0
  9 10  1  0
 10 11  1  0
 11 12  1  0
 13 12  1  1
 13 14  1  0
 14  7  1  0
 15 13  1  0
 15 22  1  0
 16 15  2  0
 18 17  1  0
 18 20  1  0
 19 18  2  0
 21 22  1  0
 21 20  1  6
 23 21  1  0
 24 23  1  0
 25 23  2  0
M  END
$$$$
