NMN.pdb
     RDKit          3D

 25 24  0  0  1  0  0  0  0  0999 V2000
    9.6300  -16.6885   16.7359 N   0  0  0  0  0  0  0  0  0  0  0  0
    8.5618  -16.3300   17.5921 C   0  0  0  0  0  0  0  0  0  0  0  0
    7.3488  -16.5610   17.2601 O   0  0  0  0  0  0  0  0  0  0  0  0
    8.8548  -15.6743   18.8986 C   0  0  0  0  0  0  0  0  0  0  0  0
    8.4254  -16.5806   20.0609 C   0  0  2  0  0  0  0  0  0  0  0  0
    6.9923  -16.7218   20.0719 N   0  0  0  0  0  0  0  0  0  0  0  0
    8.8661  -15.8984   21.3112 C   0  0  0  0  0  0  0  0  0  0  0  0
   10.0925  -15.6637   21.4687 O   0  0  0  0  0  0  0  0  0  0  0  0
    6.7984  -11.2721   27.2210 C   0  0  0  0  0  0  0  0  0  0  0  0
    6.2279  -12.4484   25.9930 S   0  0  0  0  0  0  0  0  0  0  0  0
    7.6012  -13.5900   25.5649 C   0  0  0  0  0  0  0  0  0  0  0  0
    7.2966  -14.1387   24.2084 C   0  0  0  0  0  0  0  0  0  0  0  0
    8.3574  -15.0323   23.6345 C   0  0  2  0  0  0  0  0  0  0  0  0
    7.9846  -15.4989   22.3315 N   0  0  0  0  0  0  0  0  0  0  0  0
    8.8146  -16.0994   24.5604 C   0  0  0  0  0  0  0  0  0  0  0  0
    8.0181  -17.0603   24.7189 O   0  0  0  0  0  0  0  0  0  0  0  0
   13.9635  -18.4137   26.3164 N   0  0  0  0  0  0  0  0  0  0  0  0
   12.7739  -18.5767   25.5964 C   0  0  0  0  0  0  0  0  0  0  0  0
   12.3446  -19.7686   25.3909 O   0  0  0  0  0  0  0  0  0  0  0  0
   12.0297  -17.4148   25.0891 C   0  0  0  0  0  0  0  0  0  0  0  0
   10.6900  -17.2865   25.7278 C   0  0  2  0  0  0  0  0  0  0  0  0
   10.0338  -16.0847   25.2347 N   0  0  0  0  0  0  0  0  0  0  0  0
   10.8199  -17.1401   27.1993 C   0  0  0  0  0  0  0  0  0  0  0  0
   10.9016  -15.8550   27.7556 O   0  0  0  0  0  0  0  0  0  0  0  0
   10.8638  -18.0893   28.0182 O   0  0  0  0  0  0  0  0  0  0  0  0
  1  2  1  0
  2  3  2  0
  4  2  1  0
  5  4  1  0
  5  6  1  1
  7  8  2  0
  7  5  1  0
  9 10  1  0
 10 11  1  0
 11 12  1  0
 13 12  1  1
 13 14  1  0
 14  7  1  0
 15 13  1  0
 15 22  1  0
 16 15  2  0
 18 17  1  0
 18 20  1  0
 19 18  2  0
 21 22  1  0
 21 20  1  6
 23 21  1  0
 24 23  1  0
 25 23  2  0
M  END
$$$$
