NMN.pdb
     RDKit          3D

 25 24  0  0  1  0  0  0  0  0999 V2000
   10.5158  -17.4354   17.8325 N   0  0  0  0  0  0  0  0  0  0  0  0
    9.8333  -16.3298   18.3934 C   0  0  0  0  0  0  0  0  0  0  0  0
    8.9854  -15.6642   17.7055 O   0  0  0  0  0  0  0  0  0  0  0  0
   10.1066  -15.9360   19.8051 C   0  0  0  0  0  0  0  0  0  0  0  0
    9.0386  -16.5200   20.7404 C   0  0  2  0  0  0  0  0  0  0  0  0
    7.7252  -16.1483   20.2813 N   0  0  0  0  0  0  0  0  0  0  0  0
    9.2825  -15.9206   22.0836 C   0  0  0  0  0  0  0  0  0  0  0  0
   10.4455  -15.9689   22.5622 O   0  0  0  0  0  0  0  0  0  0  0  0
    7.0534  -10.8028   26.3900 C   0  0  0  0  0  0  0  0  0  0  0  0
    6.0784  -12.3058   26.3042 S   0  0  0  0  0  0  0  0  0  0  0  0
    7.2023  -13.7460   26.1171 C   0  0  0  0  0  0  0  0  0  0  0  0
    7.2500  -14.0669   24.6580 C   0  0  0  0  0  0  0  0  0  0  0  0
    8.3580  -14.9937   24.2499 C   0  0  2  0  0  0  0  0  0  0  0  0
    8.2813  -15.2998   22.8517 N   0  0  0  0  0  0  0  0  0  0  0  0
    8.5086  -16.1802   25.1301 C   0  0  0  0  0  0  0  0  0  0  0  0
    7.5184  -16.9552   25.1726 O   0  0  0  0  0  0  0  0  0  0  0  0
   10.0266  -20.5507   27.2060 N   0  0  0  0  0  0  0  0  0  0  0  0
   11.0097  -19.8734   26.4747 C   0  0  0  0  0  0  0  0  0  0  0  0
   12.1892  -20.3770   26.4274 O   0  0  0  0  0  0  0  0  0  0  0  0
   10.7028  -18.6180   25.7738 C   0  0  0  0  0  0  0  0  0  0  0  0
    9.8475  -17.7147   26.5935 C   0  0  2  0  0  0  0  0  0  0  0  0
    9.6481  -16.4616   25.8807 N   0  0  0  0  0  0  0  0  0  0  0  0
   10.5115  -17.3843   27.8794 C   0  0  0  0  0  0  0  0  0  0  0  0
   10.9064  -16.0612   28.1267 O   0  0  0  0  0  0  0  0  0  0  0  0
   10.7593  -18.2044   28.7956 O   0  0  0  0  0  0  0  0  0  0  0  0
  1  2  1  0
  2  3  2  0
  4  2  1  0
  5  4  1  0
  5  6  1  6
  7  8  2  0
  7  5  1  0
  9 10  1  0
 10 11  1  0
 11 12  1  0
 13 12  1  1
 13 14  1  0
 14  7  1  0
 15 13  1  0
 15 22  1  0
 16 15  2  0
 18 17  1  0
 18 20  1  0
 19 18  2  0
 21 22  1  0
 21 20  1  6
 23 21  1  0
 24 23  1  0
 25 23  2  0
M  END
$$$$
