NMN.pdb
     RDKit          3D

 25 24  0  0  1  0  0  0  0  0999 V2000
    6.4112  -18.1245   19.6201 N   0  0  0  0  0  0  0  0  0  0  0  0
    7.8118  -17.9295   19.5636 C   0  0  0  0  0  0  0  0  0  0  0  0
    8.4530  -18.0903   18.4691 O   0  0  0  0  0  0  0  0  0  0  0  0
    8.5492  -17.5315   20.7967 C   0  0  0  0  0  0  0  0  0  0  0  0
    8.7051  -16.0055   20.8583 C   0  0  2  0  0  0  0  0  0  0  0  0
    9.7967  -15.5875   20.0172 N   0  0  0  0  0  0  0  0  0  0  0  0
    9.0165  -15.6716   22.2776 C   0  0  0  0  0  0  0  0  0  0  0  0
   10.2166  -15.4715   22.5997 O   0  0  0  0  0  0  0  0  0  0  0  0
    6.0954  -11.6599   26.9892 C   0  0  0  0  0  0  0  0  0  0  0  0
    7.4674  -11.7015   25.8346 S   0  0  0  0  0  0  0  0  0  0  0  0
    7.0921  -12.8969   24.4920 C   0  0  0  0  0  0  0  0  0  0  0  0
    7.1345  -14.2592   25.1056 C   0  0  0  0  0  0  0  0  0  0  0  0
    8.2604  -15.1316   24.6321 C   0  0  2  0  0  0  0  0  0  0  0  0
    8.0400  -15.5663   23.2842 N   0  0  0  0  0  0  0  0  0  0  0  0
    8.6200  -16.2199   25.5763 C   0  0  0  0  0  0  0  0  0  0  0  0
    8.8151  -15.8645   26.7673 O   0  0  0  0  0  0  0  0  0  0  0  0
   12.4484  -20.0187   24.5117 N   0  0  0  0  0  0  0  0  0  0  0  0
   12.2786  -18.6653   24.8269 C   0  0  0  0  0  0  0  0  0  0  0  0
   13.2565  -18.0399   25.3743 O   0  0  0  0  0  0  0  0  0  0  0  0
   11.0148  -17.9723   24.5373 C   0  0  0  0  0  0  0  0  0  0  0  0
    9.9369  -18.3524   25.4928 C   0  0  2  0  0  0  0  0  0  0  0  0
    8.7474  -17.5603   25.2180 N   0  0  0  0  0  0  0  0  0  0  0  0
   10.3438  -18.0582   26.8898 C   0  0  0  0  0  0  0  0  0  0  0  0
   10.8815  -16.7994   27.1964 O   0  0  0  0  0  0  0  0  0  0  0  0
   10.2473  -18.8558   27.8531 O   0  0  0  0  0  0  0  0  0  0  0  0
  1  2  1  0
  2  3  2  0
  4  2  1  0
  5  4  1  0
  5  6  1  6
  7  8  2  0
  7  5  1  0
  9 10  1  0
 10 11  1  0
 11 12  1  0
 13 12  1  1
 13 14  1  0
 14  7  1  0
 15 13  1  0
 15 22  1  0
 16 15  2  0
 18 17  1  0
 18 20  1  0
 19 18  2  0
 21 22  1  0
 21 20  1  6
 23 21  1  0
 24 23  1  0
 25 23  2  0
M  END
$$$$
