ALF.pdb
     RDKit          3D

 25 25  0  0  1  0  0  0  0  0999 V2000
   23.0316  -32.9889  -13.2322 C   0  0  0  0  0  0  0  0  0  0  0  0
   24.3283  -33.4863  -12.6808 C   0  0  2  0  0  0  0  0  0  0  0  0
   24.7947  -34.6457  -13.4239 N   0  0  0  0  0  0  0  0  0  0  0  0
   24.2542  -33.7754  -11.2229 C   0  0  0  0  0  0  0  0  0  0  0  0
   23.9018  -34.9219  -10.8706 O   0  0  0  0  0  0  0  0  0  0  0  0
   28.2806  -33.0676   -7.8866 C   0  0  0  0  0  0  0  0  0  0  0  0
   27.0015  -33.5678   -8.5346 C   0  0  1  0  0  0  0  0  0  0  0  0
   26.7473  -34.9372   -7.8830 C   0  0  0  0  0  0  0  0  0  0  0  0
   25.8694  -32.6308   -8.2135 C   0  0  0  0  0  0  0  0  0  0  0  0
   24.5805  -33.0636   -8.8178 C   0  0  2  0  0  0  0  0  0  0  0  0
   24.5650  -32.8092  -10.2632 N   0  0  0  0  0  0  0  0  0  0  0  0
   23.3895  -32.4322   -8.1878 C   0  0  0  0  0  0  0  0  0  0  0  0
   23.2021  -31.2144   -8.1825 O   0  0  0  0  0  0  0  0  0  0  0  0
   22.3910  -33.2474   -7.5474 N   0  0  0  0  0  0  0  0  0  0  0  0
   21.2273  -32.6634   -6.9112 C   0  0  1  0  0  0  0  0  0  0  0  0
   20.0002  -33.1700   -7.5952 C   0  0  0  0  0  0  0  0  0  0  0  0
   18.7329  -32.7156   -7.0380 C   0  0  0  0  0  0  0  0  0  0  0  0
   18.0285  -33.4599   -6.0917 C   0  0  0  0  0  0  0  0  0  0  0  0
   16.8488  -32.9419   -5.6327 C   0  0  0  0  0  0  0  0  0  0  0  0
   16.3676  -31.7270   -6.0860 C   0  0  0  0  0  0  0  0  0  0  0  0
   17.0444  -30.9815   -7.0146 C   0  0  0  0  0  0  0  0  0  0  0  0
   18.2357  -31.4946   -7.4844 C   0  0  0  0  0  0  0  0  0  0  0  0
   21.2832  -32.9247   -5.4770 C   0  0  0  0  0  0  0  0  0  0  0  0
   20.6052  -32.1631   -4.5322 O   0  0  0  0  0  0  0  0  0  0  0  0
   21.9690  -33.8790   -5.0314 O   0  0  0  0  0  0  0  0  0  0  0  0
  2  1  1  6
  2  4  1  0
  3  2  1  0
  4 11  1  0
  4  5  2  0
  7  6  1  1
  7  8  1  0
  9  7  1  0
 10  9  1  1
 11 10  1  0
 12 10  1  0
 12 13  2  0
 14 12  1  0
 15 14  1  0
 15 16  1  6
 17 16  1  0
 17 18  2  0
 19 18  1  0
 20 19  2  0
 21 22  2  0
 21 20  1  0
 22 17  1  0
 23 15  1  0
 24 23  1  0
 25 23  2  0
M  END
$$$$
