ALF.pdb
     RDKit          3D

 25 25  0  0  1  0  0  0  0  0999 V2000
   21.1211  -21.3549  -12.8130 C   0  0  0  0  0  0  0  0  0  0  0  0
   22.3540  -21.3249  -13.6567 C   0  0  2  0  0  0  0  0  0  0  0  0
   22.2849  -22.3269  -14.7079 N   0  0  0  0  0  0  0  0  0  0  0  0
   23.5980  -21.4720  -12.8534 C   0  0  0  0  0  0  0  0  0  0  0  0
   23.7949  -22.5619  -12.2736 O   0  0  0  0  0  0  0  0  0  0  0  0
   28.1220  -18.9927  -14.6650 C   0  0  0  0  0  0  0  0  0  0  0  0
   27.1118  -19.9790  -14.1056 C   0  0  1  0  0  0  0  0  0  0  0  0
   27.8050  -21.3472  -14.2152 C   0  0  0  0  0  0  0  0  0  0  0  0
   26.8361  -19.6598  -12.6618 C   0  0  0  0  0  0  0  0  0  0  0  0
   25.8225  -20.5673  -12.0593 C   0  0  2  0  0  0  0  0  0  0  0  0
   24.5283  -20.4364  -12.7392 N   0  0  0  0  0  0  0  0  0  0  0  0
   25.6400  -20.3637  -10.5967 C   0  0  0  0  0  0  0  0  0  0  0  0
   24.7675  -19.6314  -10.1270 O   0  0  0  0  0  0  0  0  0  0  0  0
   26.5010  -21.0348   -9.6588 N   0  0  0  0  0  0  0  0  0  0  0  0
   26.5427  -20.6562   -8.2606 C   0  0  1  0  0  0  0  0  0  0  0  0
   27.6765  -21.3714   -7.6022 C   0  0  0  0  0  0  0  0  0  0  0  0
   28.0340  -20.8991   -6.2710 C   0  0  0  0  0  0  0  0  0  0  0  0
   27.4763  -21.4452   -5.1149 C   0  0  0  0  0  0  0  0  0  0  0  0
   27.8814  -20.9291   -3.9148 C   0  0  0  0  0  0  0  0  0  0  0  0
   28.8083  -19.9049   -3.8439 C   0  0  0  0  0  0  0  0  0  0  0  0
   29.3671  -19.3556   -4.9674 C   0  0  0  0  0  0  0  0  0  0  0  0
   28.9656  -19.8687   -6.1835 C   0  0  0  0  0  0  0  0  0  0  0  0
   26.5924  -19.2017   -8.1590 C   0  0  0  0  0  0  0  0  0  0  0  0
   25.9460  -18.4805   -7.1618 O   0  0  0  0  0  0  0  0  0  0  0  0
   27.2429  -18.5282   -8.9974 O   0  0  0  0  0  0  0  0  0  0  0  0
  2  1  1  1
  2  4  1  0
  3  2  1  0
  4 11  1  0
  4  5  2  0
  7  6  1  1
  7  8  1  0
  9  7  1  0
 10  9  1  6
 11 10  1  0
 12 10  1  0
 12 13  2  0
 14 12  1  0
 15 14  1  0
 15 16  1  6
 17 16  1  0
 17 18  2  0
 19 18  1  0
 20 19  2  0
 21 22  2  0
 21 20  1  0
 22 17  1  0
 23 15  1  0
 24 23  1  0
 25 23  2  0
M  END
$$$$
