ALF.pdb
     RDKit          3D

 25 25  0  0  1  0  0  0  0  0999 V2000
   25.0376  -10.9556  -15.1767 C   0  0  0  0  0  0  0  0  0  0  0  0
   23.9142  -11.6359  -15.8894 C   0  0  2  0  0  0  0  0  0  0  0  0
   24.3702  -12.2059  -17.1468 N   0  0  0  0  0  0  0  0  0  0  0  0
   22.7449  -10.7391  -16.0973 C   0  0  0  0  0  0  0  0  0  0  0  0
   22.8116   -9.8939  -17.0160 O   0  0  0  0  0  0  0  0  0  0  0  0
   17.5511  -12.4870  -15.3294 C   0  0  0  0  0  0  0  0  0  0  0  0
   18.7599  -11.7775  -15.9139 C   0  0  1  0  0  0  0  0  0  0  0  0
   18.2595  -11.1936  -17.2455 C   0  0  0  0  0  0  0  0  0  0  0  0
   19.1884  -10.6649  -14.9968 C   0  0  0  0  0  0  0  0  0  0  0  0
   20.4167   -9.9731  -15.4727 C   0  0  2  0  0  0  0  0  0  0  0  0
   21.6002  -10.8242  -15.3015 N   0  0  0  0  0  0  0  0  0  0  0  0
   20.6488   -8.6587  -14.8150 C   0  0  0  0  0  0  0  0  0  0  0  0
   21.0174   -8.5524  -13.6441 O   0  0  0  0  0  0  0  0  0  0  0  0
   20.4443   -7.4363  -15.5467 N   0  0  0  0  0  0  0  0  0  0  0  0
   20.6617   -6.1402  -14.9363 C   0  0  1  0  0  0  0  0  0  0  0  0
   21.8484   -5.4993  -15.5777 C   0  0  0  0  0  0  0  0  0  0  0  0
   22.0309   -4.0816  -15.2951 C   0  0  0  0  0  0  0  0  0  0  0  0
   22.5258   -3.6259  -14.0732 C   0  0  0  0  0  0  0  0  0  0  0  0
   22.6591   -2.2742  -13.9113 C   0  0  0  0  0  0  0  0  0  0  0  0
   22.3178   -1.3884  -14.9172 C   0  0  0  0  0  0  0  0  0  0  0  0
   21.8303   -1.8162  -16.1237 C   0  0  0  0  0  0  0  0  0  0  0  0
   21.6918   -3.1777  -16.2978 C   0  0  0  0  0  0  0  0  0  0  0  0
   19.4293   -5.3628  -15.0099 C   0  0  0  0  0  0  0  0  0  0  0  0
   19.0755   -4.3967  -14.0750 O   0  0  0  0  0  0  0  0  0  0  0  0
   18.6181   -5.5459  -15.9522 O   0  0  0  0  0  0  0  0  0  0  0  0
  2  1  1  6
  2  4  1  0
  3  2  1  0
  4 11  1  0
  4  5  2  0
  7  6  1  1
  7  8  1  0
  9  7  1  0
 10  9  1  1
 11 10  1  0
 12 10  1  0
 12 13  2  0
 14 12  1  0
 15 14  1  0
 15 16  1  6
 17 16  1  0
 17 18  2  0
 19 18  1  0
 20 19  2  0
 21 22  2  0
 21 20  1  0
 22 17  1  0
 23 15  1  0
 24 23  1  0
 25 23  2  0
M  END
$$$$
