ALF.pdb
     RDKit          3D

 25 25  0  0  1  0  0  0  0  0999 V2000
   26.1783  -15.9411  -14.9298 C   0  0  0  0  0  0  0  0  0  0  0  0
   26.1508  -16.3898  -16.3548 C   0  0  2  0  0  0  0  0  0  0  0  0
   26.3616  -15.2669  -17.2540 N   0  0  0  0  0  0  0  0  0  0  0  0
   24.9038  -17.1265  -16.6965 C   0  0  0  0  0  0  0  0  0  0  0  0
   23.8470  -16.4680  -16.8085 O   0  0  0  0  0  0  0  0  0  0  0  0
   24.7751  -21.3872  -20.2035 C   0  0  0  0  0  0  0  0  0  0  0  0
   24.4348  -20.1244  -19.4316 C   0  0  1  0  0  0  0  0  0  0  0  0
   23.2387  -19.5203  -20.1857 C   0  0  0  0  0  0  0  0  0  0  0  0
   24.0272  -20.4812  -18.0284 C   0  0  0  0  0  0  0  0  0  0  0  0
   23.6901  -19.2854  -17.2097 C   0  0  2  0  0  0  0  0  0  0  0  0
   24.8944  -18.5098  -16.8898 N   0  0  0  0  0  0  0  0  0  0  0  0
   22.9605  -19.6131  -15.9549 C   0  0  0  0  0  0  0  0  0  0  0  0
   23.5213  -20.0564  -14.9514 O   0  0  0  0  0  0  0  0  0  0  0  0
   21.5371  -19.4168  -15.8721 N   0  0  0  0  0  0  0  0  0  0  0  0
   20.7938  -19.7434  -14.6718 C   0  0  1  0  0  0  0  0  0  0  0  0
   20.3782  -18.4743  -14.0031 C   0  0  0  0  0  0  0  0  0  0  0  0
   19.4647  -17.6300  -14.7619 C   0  0  0  0  0  0  0  0  0  0  0  0
   19.9190  -16.6309  -15.6227 C   0  0  0  0  0  0  0  0  0  0  0  0
   18.9772  -15.8954  -16.2881 C   0  0  0  0  0  0  0  0  0  0  0  0
   17.6246  -16.1288  -16.1179 C   0  0  0  0  0  0  0  0  0  0  0  0
   17.1587  -17.1048  -15.2773 C   0  0  0  0  0  0  0  0  0  0  0  0
   18.1002  -17.8529  -14.6011 C   0  0  0  0  0  0  0  0  0  0  0  0
   19.6984  -20.6433  -15.0162 C   0  0  0  0  0  0  0  0  0  0  0  0
   18.9348  -21.3181  -14.0707 O   0  0  0  0  0  0  0  0  0  0  0  0
   19.3975  -20.8463  -16.2194 O   0  0  0  0  0  0  0  0  0  0  0  0
  2  1  1  1
  2  4  1  0
  3  2  1  0
  4 11  1  0
  4  5  2  0
  7  6  1  6
  7  8  1  0
  9  7  1  0
 10  9  1  1
 11 10  1  0
 12 10  1  0
 12 13  2  0
 14 12  1  0
 15 14  1  0
 15 16  1  6
 17 16  1  0
 17 18  2  0
 19 18  1  0
 20 19  2  0
 21 22  2  0
 21 20  1  0
 22 17  1  0
 23 15  1  0
 24 23  1  0
 25 23  2  0
M  END
$$$$
