ALF.pdb
     RDKit          3D

 25 25  0  0  1  0  0  0  0  0999 V2000
   13.2003  -11.3192  -17.1959 C   0  0  0  0  0  0  0  0  0  0  0  0
   14.3482  -11.1438  -16.2555 C   0  0  2  0  0  0  0  0  0  0  0  0
   14.1230  -11.8806  -15.0225 N   0  0  0  0  0  0  0  0  0  0  0  0
   14.6458   -9.7119  -15.9803 C   0  0  0  0  0  0  0  0  0  0  0  0
   15.0804   -9.0130  -16.9213 O   0  0  0  0  0  0  0  0  0  0  0  0
   11.3505   -6.1186  -13.3672 C   0  0  0  0  0  0  0  0  0  0  0  0
   12.4488   -6.5646  -14.3164 C   0  0  1  0  0  0  0  0  0  0  0  0
   12.9522   -5.2640  -14.9643 C   0  0  0  0  0  0  0  0  0  0  0  0
   13.5612   -7.2117  -13.5378 C   0  0  0  0  0  0  0  0  0  0  0  0
   14.6483   -7.7258  -14.4141 C   0  0  2  0  0  0  0  0  0  0  0  0
   14.4520   -9.1485  -14.7169 N   0  0  0  0  0  0  0  0  0  0  0  0
   16.0102   -7.5193  -13.8515 C   0  0  0  0  0  0  0  0  0  0  0  0
   16.5614   -8.3395  -13.1156 O   0  0  0  0  0  0  0  0  0  0  0  0
   16.7469   -6.3216  -14.1583 N   0  0  0  0  0  0  0  0  0  0  0  0
   18.1098   -6.1307  -13.7044 C   0  0  1  0  0  0  0  0  0  0  0  0
   18.9660   -7.2067  -14.2870 C   0  0  0  0  0  0  0  0  0  0  0  0
   20.3998   -7.0580  -14.0746 C   0  0  0  0  0  0  0  0  0  0  0  0
   21.1312   -6.0176  -14.6475 C   0  0  0  0  0  0  0  0  0  0  0  0
   22.4724   -5.9696  -14.3837 C   0  0  0  0  0  0  0  0  0  0  0  0
   23.0855   -6.9137  -13.5802 C   0  0  0  0  0  0  0  0  0  0  0  0
   22.3847   -7.9426  -13.0086 C   0  0  0  0  0  0  0  0  0  0  0  0
   21.0311   -8.0006  -13.2682 C   0  0  0  0  0  0  0  0  0  0  0  0
   18.5339   -4.7707  -14.0188 C   0  0  0  0  0  0  0  0  0  0  0  0
   19.5058   -4.0852  -13.2992 O   0  0  0  0  0  0  0  0  0  0  0  0
   18.0179   -4.1513  -14.9830 O   0  0  0  0  0  0  0  0  0  0  0  0
  2  1  1  6
  2  4  1  0
  3  2  1  0
  4 11  1  0
  4  5  2  0
  7  6  1  1
  7  8  1  0
  9  7  1  0
 10  9  1  1
 11 10  1  0
 12 10  1  0
 12 13  2  0
 14 12  1  0
 15 14  1  0
 15 16  1  6
 17 16  1  0
 17 18  2  0
 19 18  1  0
 20 19  2  0
 21 22  2  0
 21 20  1  0
 22 17  1  0
 23 15  1  0
 24 23  1  0
 25 23  2  0
M  END
$$$$
