ALF.pdb
     RDKit          3D

 25 25  0  0  1  0  0  0  0  0999 V2000
   25.8786  -22.0359  -16.6999 C   0  0  0  0  0  0  0  0  0  0  0  0
   26.5443  -22.7873  -15.5931 C   0  0  2  0  0  0  0  0  0  0  0  0
   26.7376  -24.1813  -15.9585 N   0  0  0  0  0  0  0  0  0  0  0  0
   25.8146  -22.6654  -14.3019 C   0  0  0  0  0  0  0  0  0  0  0  0
   25.0320  -23.5864  -13.9826 O   0  0  0  0  0  0  0  0  0  0  0  0
   25.6084  -21.5708   -9.0818 C   0  0  0  0  0  0  0  0  0  0  0  0
   25.4396  -20.3202   -9.9266 C   0  0  1  0  0  0  0  0  0  0  0  0
   26.1701  -19.2197   -9.1392 C   0  0  0  0  0  0  0  0  0  0  0  0
   26.1006  -20.5170  -11.2632 C   0  0  0  0  0  0  0  0  0  0  0  0
   25.3229  -21.4154  -12.1587 C   0  0  2  0  0  0  0  0  0  0  0  0
   25.9856  -21.5642  -13.4598 N   0  0  0  0  0  0  0  0  0  0  0  0
   23.9164  -20.9750  -12.3632 C   0  0  0  0  0  0  0  0  0  0  0  0
   23.1574  -20.7058  -11.4307 O   0  0  0  0  0  0  0  0  0  0  0  0
   23.3839  -20.8461  -13.6941 N   0  0  0  0  0  0  0  0  0  0  0  0
   22.0328  -20.3781  -13.9296 C   0  0  1  0  0  0  0  0  0  0  0  0
   21.9588  -19.7926  -15.3016 C   0  0  0  0  0  0  0  0  0  0  0  0
   22.7395  -18.5809  -15.5145 C   0  0  0  0  0  0  0  0  0  0  0  0
   24.0874  -18.6193  -15.8714 C   0  0  0  0  0  0  0  0  0  0  0  0
   24.7275  -17.4235  -16.0477 C   0  0  0  0  0  0  0  0  0  0  0  0
   24.0686  -16.2191  -15.8801 C   0  0  0  0  0  0  0  0  0  0  0  0
   22.7456  -16.1605  -15.5300 C   0  0  0  0  0  0  0  0  0  0  0  0
   22.0901  -17.3609  -15.3495 C   0  0  0  0  0  0  0  0  0  0  0  0
   21.0968  -21.4681  -13.6759 C   0  0  0  0  0  0  0  0  0  0  0  0
   19.7291  -21.2813  -13.5116 O   0  0  0  0  0  0  0  0  0  0  0  0
   21.5084  -22.6527  -13.5942 O   0  0  0  0  0  0  0  0  0  0  0  0
  2  1  1  6
  2  4  1  0
  3  2  1  0
  4 11  1  0
  4  5  2  0
  7  6  1  1
  7  8  1  0
  9  7  1  0
 10  9  1  1
 11 10  1  0
 12 10  1  0
 12 13  2  0
 14 12  1  0
 15 14  1  0
 15 16  1  6
 17 16  1  0
 17 18  2  0
 19 18  1  0
 20 19  2  0
 21 22  2  0
 21 20  1  0
 22 17  1  0
 23 15  1  0
 24 23  1  0
 25 23  2  0
M  END
$$$$
