ALF.pdb
     RDKit          3D

 25 25  0  0  1  0  0  0  0  0999 V2000
   27.7822  -19.8355  -16.8219 C   0  0  0  0  0  0  0  0  0  0  0  0
   28.1340  -20.9800  -15.9281 C   0  0  2  0  0  0  0  0  0  0  0  0
   28.4236  -22.1733  -16.7067 N   0  0  0  0  0  0  0  0  0  0  0  0
   27.0876  -21.2462  -14.9041 C   0  0  0  0  0  0  0  0  0  0  0  0
   26.1221  -21.9709  -15.2285 O   0  0  0  0  0  0  0  0  0  0  0  0
   25.3046  -21.8455   -9.7878 C   0  0  0  0  0  0  0  0  0  0  0  0
   25.4795  -20.4063  -10.2399 C   0  0  1  0  0  0  0  0  0  0  0  0
   25.9276  -19.6550   -8.9752 C   0  0  0  0  0  0  0  0  0  0  0  0
   26.5556  -20.3302  -11.2880 C   0  0  0  0  0  0  0  0  0  0  0  0
   26.1009  -20.8350  -12.6117 C   0  0  2  0  0  0  0  0  0  0  0  0
   27.1644  -20.7120  -13.6157 N   0  0  0  0  0  0  0  0  0  0  0  0
   24.8672  -20.1675  -13.1083 C   0  0  0  0  0  0  0  0  0  0  0  0
   24.8621  -19.0205  -13.5585 O   0  0  0  0  0  0  0  0  0  0  0  0
   23.6061  -20.8603  -13.0774 N   0  0  0  0  0  0  0  0  0  0  0  0
   22.4020  -20.2711  -13.6278 C   0  0  1  0  0  0  0  0  0  0  0  0
   22.5159  -20.2460  -15.1167 C   0  0  0  0  0  0  0  0  0  0  0  0
   21.3138  -19.8449  -15.8358 C   0  0  0  0  0  0  0  0  0  0  0  0
   20.3323  -20.7622  -16.2111 C   0  0  0  0  0  0  0  0  0  0  0  0
   19.2424  -20.2804  -16.8825 C   0  0  0  0  0  0  0  0  0  0  0  0
   19.1129  -18.9360  -17.1806 C   0  0  0  0  0  0  0  0  0  0  0  0
   20.0655  -18.0199  -16.8207 C   0  0  0  0  0  0  0  0  0  0  0  0
   21.1692  -18.4950  -16.1430 C   0  0  0  0  0  0  0  0  0  0  0  0
   21.2395  -20.9866  -13.1128 C   0  0  0  0  0  0  0  0  0  0  0  0
   21.1447  -22.3731  -13.0817 O   0  0  0  0  0  0  0  0  0  0  0  0
   20.2508  -20.3530  -12.6649 O   0  0  0  0  0  0  0  0  0  0  0  0
  2  1  1  6
  2  4  1  0
  3  2  1  0
  4 11  1  0
  4  5  2  0
  7  6  1  1
  7  8  1  0
  9  7  1  0
 10  9  1  1
 11 10  1  0
 12 10  1  0
 12 13  2  0
 14 12  1  0
 15 14  1  0
 15 16  1  6
 17 16  1  0
 17 18  2  0
 19 18  1  0
 20 19  2  0
 21 22  2  0
 21 20  1  0
 22 17  1  0
 23 15  1  0
 24 23  1  0
 25 23  2  0
M  END
$$$$
