ALF.pdb
     RDKit          3D

 25 25  0  0  1  0  0  0  0  0999 V2000
   32.6506  -26.0971   12.0163 C   0  0  0  0  0  0  0  0  0  0  0  0
   33.0618  -26.1353   10.5803 C   0  0  2  0  0  0  0  0  0  0  0  0
   33.9103  -27.2862   10.3165 N   0  0  0  0  0  0  0  0  0  0  0  0
   33.7152  -24.8727   10.1406 C   0  0  0  0  0  0  0  0  0  0  0  0
   34.6394  -24.4150   10.8472 O   0  0  0  0  0  0  0  0  0  0  0  0
   35.0988  -24.5901    5.1728 C   0  0  0  0  0  0  0  0  0  0  0  0
   34.9776  -24.4383    6.6790 C   0  0  1  0  0  0  0  0  0  0  0  0
   36.4301  -24.3897    7.1813 C   0  0  0  0  0  0  0  0  0  0  0  0
   34.2804  -23.1459    7.0047 C   0  0  0  0  0  0  0  0  0  0  0  0
   33.9867  -23.0051    8.4565 C   0  0  2  0  0  0  0  0  0  0  0  0
   33.3223  -24.2055    8.9781 N   0  0  0  0  0  0  0  0  0  0  0  0
   33.1720  -21.8034    8.7823 C   0  0  0  0  0  0  0  0  0  0  0  0
   33.5678  -20.6533    8.5849 O   0  0  0  0  0  0  0  0  0  0  0  0
   31.8594  -21.9511    9.3539 N   0  0  0  0  0  0  0  0  0  0  0  0
   31.0584  -20.8016    9.7241 C   0  0  1  0  0  0  0  0  0  0  0  0
   29.8758  -20.7265    8.8151 C   0  0  0  0  0  0  0  0  0  0  0  0
   28.9028  -19.6883    9.1285 C   0  0  0  0  0  0  0  0  0  0  0  0
   29.0032  -18.3965    8.6119 C   0  0  0  0  0  0  0  0  0  0  0  0
   28.0359  -17.4976    8.9686 C   0  0  0  0  0  0  0  0  0  0  0  0
   26.9956  -17.8503    9.8090 C   0  0  0  0  0  0  0  0  0  0  0  0
   26.8796  -19.1133   10.3264 C   0  0  0  0  0  0  0  0  0  0  0  0
   27.8499  -20.0281    9.9730 C   0  0  0  0  0  0  0  0  0  0  0  0
   30.7368  -20.8789   11.1450 C   0  0  0  0  0  0  0  0  0  0  0  0
   30.4104  -19.7708   11.9184 O   0  0  0  0  0  0  0  0  0  0  0  0
   30.7442  -21.9867   11.7386 O   0  0  0  0  0  0  0  0  0  0  0  0
  2  1  1  1
  2  4  1  0
  3  2  1  0
  4 11  1  0
  4  5  2  0
  7  6  1  6
  7  8  1  0
  9  7  1  0
 10  9  1  6
 11 10  1  0
 12 10  1  0
 12 13  2  0
 14 12  1  0
 15 14  1  0
 15 16  1  6
 17 16  1  0
 17 18  2  0
 19 18  1  0
 20 19  2  0
 21 22  2  0
 21 20  1  0
 22 17  1  0
 23 15  1  0
 24 23  1  0
 25 23  2  0
M  END
$$$$
