ALF.pdb
     RDKit          3D

 25 25  0  0  1  0  0  0  0  0999 V2000
   32.2048  -22.6967  -10.2139 C   0  0  0  0  0  0  0  0  0  0  0  0
   31.6426  -22.3658  -11.5582 C   0  0  2  0  0  0  0  0  0  0  0  0
   32.6961  -21.9535  -12.4714 N   0  0  0  0  0  0  0  0  0  0  0  0
   30.5609  -21.3461  -11.4884 C   0  0  0  0  0  0  0  0  0  0  0  0
   30.8905  -20.1553  -11.2981 O   0  0  0  0  0  0  0  0  0  0  0  0
   27.3550  -19.8898  -15.1536 C   0  0  0  0  0  0  0  0  0  0  0  0
   28.1443  -19.9029  -13.8562 C   0  0  1  0  0  0  0  0  0  0  0  0
   28.2987  -18.4194  -13.4820 C   0  0  0  0  0  0  0  0  0  0  0  0
   27.3599  -20.6197  -12.7917 C   0  0  0  0  0  0  0  0  0  0  0  0
   28.1071  -20.7332  -11.5100 C   0  0  2  0  0  0  0  0  0  0  0  0
   29.2143  -21.6894  -11.6289 N   0  0  0  0  0  0  0  0  0  0  0  0
   27.2476  -21.1071  -10.3544 C   0  0  0  0  0  0  0  0  0  0  0  0
   26.9608  -22.2746  -10.0841 O   0  0  0  0  0  0  0  0  0  0  0  0
   26.7095  -20.0882   -9.4920 N   0  0  0  0  0  0  0  0  0  0  0  0
   25.9003  -20.4204   -8.3367 C   0  0  1  0  0  0  0  0  0  0  0  0
   26.1171  -19.3839   -7.2835 C   0  0  0  0  0  0  0  0  0  0  0  0
   27.2311  -19.6278   -6.3765 C   0  0  0  0  0  0  0  0  0  0  0  0
   27.0802  -20.3502   -5.1929 C   0  0  0  0  0  0  0  0  0  0  0  0
   28.1907  -20.5223   -4.4131 C   0  0  0  0  0  0  0  0  0  0  0  0
   29.4189  -20.0022   -4.7791 C   0  0  0  0  0  0  0  0  0  0  0  0
   29.5873  -19.2903   -5.9372 C   0  0  0  0  0  0  0  0  0  0  0  0
   28.4736  -19.1107   -6.7313 C   0  0  0  0  0  0  0  0  0  0  0  0
   24.5131  -20.5894   -8.7556 C   0  0  0  0  0  0  0  0  0  0  0  0
   23.5788  -21.3240   -8.0346 O   0  0  0  0  0  0  0  0  0  0  0  0
   24.1013  -20.0592   -9.8180 O   0  0  0  0  0  0  0  0  0  0  0  0
  2  1  1  1
  2  4  1  0
  3  2  1  0
  4 11  1  0
  4  5  2  0
  7  6  1  6
  7  8  1  0
  9  7  1  0
 10  9  1  6
 11 10  1  0
 12 10  1  0
 12 13  2  0
 14 12  1  0
 15 14  1  0
 15 16  1  1
 17 16  1  0
 17 18  2  0
 19 18  1  0
 20 19  2  0
 21 22  2  0
 21 20  1  0
 22 17  1  0
 23 15  1  0
 24 23  1  0
 25 23  2  0
M  END
$$$$
