ALF.pdb
     RDKit          3D

 25 25  0  0  1  0  0  0  0  0999 V2000
   21.0935   -9.3510  -20.2337 C   0  0  0  0  0  0  0  0  0  0  0  0
   22.1375  -10.2159  -19.6053 C   0  0  2  0  0  0  0  0  0  0  0  0
   21.7077  -11.6045  -19.5744 N   0  0  0  0  0  0  0  0  0  0  0  0
   22.5289   -9.7432  -18.2496 C   0  0  0  0  0  0  0  0  0  0  0  0
   21.6373   -9.6652  -17.3769 O   0  0  0  0  0  0  0  0  0  0  0  0
   27.0904  -11.2481  -15.7669 C   0  0  0  0  0  0  0  0  0  0  0  0
   25.6662  -10.8128  -16.0639 C   0  0  1  0  0  0  0  0  0  0  0  0
   24.8769  -11.1796  -14.7962 C   0  0  0  0  0  0  0  0  0  0  0  0
   25.6244   -9.3247  -16.2795 C   0  0  0  0  0  0  0  0  0  0  0  0
   24.2680   -8.8389  -16.6511 C   0  0  2  0  0  0  0  0  0  0  0  0
   23.8459   -9.3932  -17.9430 N   0  0  0  0  0  0  0  0  0  0  0  0
   24.1591   -7.3554  -16.6858 C   0  0  0  0  0  0  0  0  0  0  0  0
   24.8312   -6.6528  -17.4426 O   0  0  0  0  0  0  0  0  0  0  0  0
   23.2392   -6.6758  -15.8120 N   0  0  0  0  0  0  0  0  0  0  0  0
   23.0483   -5.2409  -15.8777 C   0  0  1  0  0  0  0  0  0  0  0  0
   22.1711   -4.9253  -17.0446 C   0  0  0  0  0  0  0  0  0  0  0  0
   20.7692   -5.2947  -16.8995 C   0  0  0  0  0  0  0  0  0  0  0  0
   19.8604   -4.4999  -16.2010 C   0  0  0  0  0  0  0  0  0  0  0  0
   18.5671   -4.9384  -16.1251 C   0  0  0  0  0  0  0  0  0  0  0  0
   18.1697   -6.1239  -16.7165 C   0  0  0  0  0  0  0  0  0  0  0  0
   19.0468   -6.9181  -17.4065 C   0  0  0  0  0  0  0  0  0  0  0  0
   20.3541   -6.4852  -17.4893 C   0  0  0  0  0  0  0  0  0  0  0  0
   22.5537   -4.7636  -14.5909 C   0  0  0  0  0  0  0  0  0  0  0  0
   22.4624   -3.4174  -14.2563 O   0  0  0  0  0  0  0  0  0  0  0  0
   22.1808   -5.5801  -13.7112 O   0  0  0  0  0  0  0  0  0  0  0  0
  2  1  1  1
  2  4  1  0
  3  2  1  0
  4 11  1  0
  4  5  2  0
  7  6  1  1
  7  8  1  0
  9  7  1  0
 10  9  1  6
 11 10  1  0
 12 10  1  0
 12 13  2  0
 14 12  1  0
 15 14  1  0
 15 16  1  6
 17 16  1  0
 17 18  2  0
 19 18  1  0
 20 19  2  0
 21 22  2  0
 21 20  1  0
 22 17  1  0
 23 15  1  0
 24 23  1  0
 25 23  2  0
M  END
$$$$
