ALF.pdb
     RDKit          3D

 25 25  0  0  1  0  0  0  0  0999 V2000
   25.8814  -16.6696  -15.5533 C   0  0  0  0  0  0  0  0  0  0  0  0
   26.4293  -18.0153  -15.2047 C   0  0  2  0  0  0  0  0  0  0  0  0
   27.1911  -18.5659  -16.3140 N   0  0  0  0  0  0  0  0  0  0  0  0
   25.3728  -18.9618  -14.7547 C   0  0  0  0  0  0  0  0  0  0  0  0
   24.7960  -19.6512  -15.6233 O   0  0  0  0  0  0  0  0  0  0  0  0
   25.9812  -21.0797   -9.8135 C   0  0  0  0  0  0  0  0  0  0  0  0
   25.7429  -20.7842  -11.2839 C   0  0  1  0  0  0  0  0  0  0  0  0
   26.0648  -22.1056  -12.0014 C   0  0  0  0  0  0  0  0  0  0  0  0
   24.2993  -20.4226  -11.5019 C   0  0  0  0  0  0  0  0  0  0  0  0
   24.0141  -20.0317  -12.9089 C   0  0  2  0  0  0  0  0  0  0  0  0
   25.0230  -19.0899  -13.4085 N   0  0  0  0  0  0  0  0  0  0  0  0
   22.6559  -19.4547  -13.0998 C   0  0  0  0  0  0  0  0  0  0  0  0
   22.3032  -18.3907  -12.5882 O   0  0  0  0  0  0  0  0  0  0  0  0
   21.6848  -20.1406  -13.9108 N   0  0  0  0  0  0  0  0  0  0  0  0
   20.3447  -19.6206  -14.0940 C   0  0  1  0  0  0  0  0  0  0  0  0
   20.3962  -18.4911  -15.0697 C   0  0  0  0  0  0  0  0  0  0  0  0
   20.8922  -18.8257  -16.3983 C   0  0  0  0  0  0  0  0  0  0  0  0
   20.1878  -19.6613  -17.2650 C   0  0  0  0  0  0  0  0  0  0  0  0
   20.7422  -19.9107  -18.4902 C   0  0  0  0  0  0  0  0  0  0  0  0
   21.9548  -19.3583  -18.8611 C   0  0  0  0  0  0  0  0  0  0  0  0
   22.6614  -18.5356  -18.0244 C   0  0  0  0  0  0  0  0  0  0  0  0
   22.1113  -18.2772  -16.7860 C   0  0  0  0  0  0  0  0  0  0  0  0
   19.4530  -20.7136  -14.4665 C   0  0  0  0  0  0  0  0  0  0  0  0
   19.8922  -22.0069  -14.7250 O   0  0  0  0  0  0  0  0  0  0  0  0
   18.2160  -20.5170  -14.5701 O   0  0  0  0  0  0  0  0  0  0  0  0
  2  1  1  6
  2  4  1  0
  3  2  1  0
  4 11  1  0
  4  5  2  0
  7  6  1  1
  7  8  1  0
  9  7  1  0
 10  9  1  1
 11 10  1  0
 12 10  1  0
 12 13  2  0
 14 12  1  0
 15 14  1  0
 15 16  1  6
 17 16  1  0
 17 18  2  0
 19 18  1  0
 20 19  2  0
 21 22  2  0
 21 20  1  0
 22 17  1  0
 23 15  1  0
 24 23  1  0
 25 23  2  0
M  END
$$$$
