ALF.pdb
     RDKit          3D

 25 25  0  0  1  0  0  0  0  0999 V2000
   40.0238  -25.5881  -18.9940 C   0  0  0  0  0  0  0  0  0  0  0  0
   40.0154  -25.6174  -17.5000 C   0  0  2  0  0  0  0  0  0  0  0  0
   41.3088  -26.0358  -16.9844 N   0  0  0  0  0  0  0  0  0  0  0  0
   38.9189  -26.4616  -16.9527 C   0  0  0  0  0  0  0  0  0  0  0  0
   39.0809  -27.7012  -16.9484 O   0  0  0  0  0  0  0  0  0  0  0  0
   35.4088  -24.6642  -12.9187 C   0  0  0  0  0  0  0  0  0  0  0  0
   36.3765  -25.4910  -13.7471 C   0  0  1  0  0  0  0  0  0  0  0  0
   36.6105  -26.7623  -12.9144 C   0  0  0  0  0  0  0  0  0  0  0  0
   35.7407  -25.8509  -15.0619 C   0  0  0  0  0  0  0  0  0  0  0  0
   36.6247  -26.6923  -15.9129 C   0  0  2  0  0  0  0  0  0  0  0  0
   37.7385  -25.9049  -16.4549 N   0  0  0  0  0  0  0  0  0  0  0  0
   35.9057  -27.3700  -17.0255 C   0  0  0  0  0  0  0  0  0  0  0  0
   35.7557  -26.8570  -18.1357 O   0  0  0  0  0  0  0  0  0  0  0  0
   35.3474  -28.6827  -16.8340 N   0  0  0  0  0  0  0  0  0  0  0  0
   34.6557  -29.3770  -17.9014 C   0  0  1  0  0  0  0  0  0  0  0  0
   34.4202  -30.7909  -17.4822 C   0  0  0  0  0  0  0  0  0  0  0  0
   33.7058  -31.6238  -18.4408 C   0  0  0  0  0  0  0  0  0  0  0  0
   32.3149  -31.6109  -18.5438 C   0  0  0  0  0  0  0  0  0  0  0  0
   31.7439  -32.4311  -19.4777 C   0  0  0  0  0  0  0  0  0  0  0  0
   32.5114  -33.2443  -20.2917 C   0  0  0  0  0  0  0  0  0  0  0  0
   33.8782  -33.2712  -20.2059 C   0  0  0  0  0  0  0  0  0  0  0  0
   34.4646  -32.4477  -19.2671 C   0  0  0  0  0  0  0  0  0  0  0  0
   33.4518  -28.6331  -18.2560 C   0  0  0  0  0  0  0  0  0  0  0  0
   32.6371  -28.0032  -17.3222 O   0  0  0  0  0  0  0  0  0  0  0  0
   33.0980  -28.5328  -19.4578 O   0  0  0  0  0  0  0  0  0  0  0  0
  2  1  1  6
  2  4  1  0
  3  2  1  0
  4 11  1  0
  4  5  2  0
  7  6  1  1
  7  8  1  0
  9  7  1  0
 10  9  1  6
 11 10  1  0
 12 10  1  0
 12 13  2  0
 14 12  1  0
 15 14  1  0
 15 16  1  1
 17 16  1  0
 17 18  2  0
 19 18  1  0
 20 19  2  0
 21 22  2  0
 21 20  1  0
 22 17  1  0
 23 15  1  0
 24 23  1  0
 25 23  2  0
M  END
$$$$
