KNW.pdb
     RDKit          3D

 32 33  0  0  1  0  0  0  0  0999 V2000
    9.2872  -13.3408   19.5045 N   0  0  0  0  0  0  0  0  0  0  0  0
    8.1277  -14.0399   19.9624 C   0  0  1  0  0  0  0  0  0  0  0  0
    7.2317  -14.5119   18.8594 C   0  0  0  0  0  0  0  0  0  0  0  0
    7.5151  -13.8942   17.5297 C   0  0  0  0  0  0  0  0  0  0  0  0
    8.2371  -14.8180   16.5815 C   0  0  0  0  0  0  0  0  0  0  0  0
    8.3351  -14.1215   15.2335 C   0  0  0  0  0  0  0  0  0  0  0  0
    7.2917  -14.5231   14.3272 N   0  0  0  0  0  0  0  0  0  0  0  0
    8.5447  -15.2612   20.7418 C   0  0  0  0  0  0  0  0  0  0  0  0
    7.6924  -16.0712   21.1819 O   0  0  0  0  0  0  0  0  0  0  0  0
    9.5915  -19.0958   20.7190 N   0  0  0  0  0  0  0  0  0  0  0  0
   10.9821  -18.7510   20.6223 C   0  0  0  0  0  0  0  0  0  0  0  0
   11.7708  -19.5661   20.0611 O   0  0  0  0  0  0  0  0  0  0  0  0
   11.3914  -17.4596   21.1890 C   0  0  0  0  0  0  0  0  0  0  0  0
   10.2356  -16.7372   21.7870 C   0  0  2  0  0  0  0  0  0  0  0  0
    9.9028  -15.5453   21.0084 N   0  0  0  0  0  0  0  0  0  0  0  0
   10.5177  -16.2637   23.1875 C   0  0  0  0  0  0  0  0  0  0  0  0
   11.3606  -15.3070   23.2798 O   0  0  0  0  0  0  0  0  0  0  0  0
    9.8969  -16.8293   24.3046 N   0  0  0  0  0  0  0  0  0  0  0  0
   10.1491  -16.4302   25.6440 C   0  0  1  0  0  0  0  0  0  0  0  0
    9.8879  -14.9633   25.8589 C   0  0  0  0  0  0  0  0  0  0  0  0
    8.4164  -14.7369   25.8572 C   0  0  0  0  0  0  0  0  0  0  0  0
    7.4268  -15.6176   25.5157 C   0  0  0  0  0  0  0  0  0  0  0  0
    6.2404  -14.9730   25.6706 N   0  0  0  0  0  0  0  0  0  0  0  0
    6.4354  -13.7175   26.0973 C   0  0  0  0  0  0  0  0  0  0  0  0
    5.5710  -12.6649   26.4051 C   0  0  0  0  0  0  0  0  0  0  0  0
    6.0621  -11.4560   26.8328 C   0  0  0  0  0  0  0  0  0  0  0  0
    7.4087  -11.2742   26.9608 C   0  0  0  0  0  0  0  0  0  0  0  0
    8.2564  -12.3349   26.6495 C   0  0  0  0  0  0  0  0  0  0  0  0
    7.7848  -13.5565   26.2182 C   0  0  0  0  0  0  0  0  0  0  0  0
    9.4084  -17.2476   26.6372 C   0  0  0  0  0  0  0  0  0  0  0  0
    9.4221  -17.0502   27.8563 O   0  0  0  0  0  0  0  0  0  0  0  0
    8.6478  -18.3098   26.1433 O   0  0  0  0  0  0  0  0  0  0  0  0
  2  1  1  6
  2  3  1  0
  3  4  1  0
  4  5  1  0
  6  5  1  0
  7  6  1  0
  8  9  2  0
  8  2  1  0
 10 11  1  0
 11 13  1  0
 12 11  2  0
 14 13  1  6
 14 15  1  0
 15  8  1  0
 16 14  1  0
 16 18  1  0
 17 16  2  0
 19 18  1  0
 19 30  1  0
 20 21  1  0
 19 20  1  6
 21 29  1  0
 22 21  2  0
 22 23  1  0
 23 24  1  0
 24 25  1  0
 25 26  2  0
 27 26  1  0
 28 27  2  0
 29 24  2  0
 29 28  1  0
 30 31  2  0
 30 32  1  0
M  END
$$$$
