KNW.pdb
     RDKit          3D

 32 33  0  0  1  0  0  0  0  0999 V2000
    9.6931  -19.2400   20.4305 N   0  0  0  0  0  0  0  0  0  0  0  0
   10.6737  -18.3126   19.9602 C   0  0  1  0  0  0  0  0  0  0  0  0
   10.8124  -18.2838   18.4695 C   0  0  0  0  0  0  0  0  0  0  0  0
   11.2662  -19.5735   17.8689 C   0  0  0  0  0  0  0  0  0  0  0  0
   11.3143  -19.5486   16.3620 C   0  0  0  0  0  0  0  0  0  0  0  0
   11.8689  -20.8832   15.8895 C   0  0  0  0  0  0  0  0  0  0  0  0
   12.0555  -20.9299   14.4631 N   0  0  0  0  0  0  0  0  0  0  0  0
   10.3032  -16.9169   20.3933 C   0  0  0  0  0  0  0  0  0  0  0  0
   10.9365  -15.9182   19.9719 O   0  0  0  0  0  0  0  0  0  0  0  0
    8.3652  -14.4054   19.2103 N   0  0  0  0  0  0  0  0  0  0  0  0
    7.2273  -14.5633   20.0718 C   0  0  0  0  0  0  0  0  0  0  0  0
    6.0753  -14.3302   19.6028 O   0  0  0  0  0  0  0  0  0  0  0  0
    7.4885  -14.9902   21.4524 C   0  0  0  0  0  0  0  0  0  0  0  0
    8.9299  -15.2953   21.6639 C   0  0  2  0  0  0  0  0  0  0  0  0
    9.2348  -16.6742   21.2855 N   0  0  0  0  0  0  0  0  0  0  0  0
    9.3413  -15.1500   23.1044 C   0  0  0  0  0  0  0  0  0  0  0  0
    9.4284  -13.9469   23.5275 O   0  0  0  0  0  0  0  0  0  0  0  0
    9.6042  -16.2545   23.9192 N   0  0  0  0  0  0  0  0  0  0  0  0
   10.1910  -16.1712   25.2098 C   0  0  1  0  0  0  0  0  0  0  0  0
    9.2151  -16.5200   26.3017 C   0  0  0  0  0  0  0  0  0  0  0  0
    7.9601  -15.7498   26.0819 C   0  0  0  0  0  0  0  0  0  0  0  0
    6.7996  -16.1754   25.4955 C   0  0  0  0  0  0  0  0  0  0  0  0
    5.9286  -15.1325   25.5185 N   0  0  0  0  0  0  0  0  0  0  0  0
    6.4880  -14.0603   26.0964 C   0  0  0  0  0  0  0  0  0  0  0  0
    6.0314  -12.7681   26.3634 C   0  0  0  0  0  0  0  0  0  0  0  0
    6.8430  -11.8519   26.9860 C   0  0  0  0  0  0  0  0  0  0  0  0
    8.1109  -12.2013   27.3506 C   0  0  0  0  0  0  0  0  0  0  0  0
    8.5501  -13.4947   27.0765 C   0  0  0  0  0  0  0  0  0  0  0  0
    7.7522  -14.4298   26.4523 C   0  0  0  0  0  0  0  0  0  0  0  0
   11.4291  -16.9807   25.3324 C   0  0  0  0  0  0  0  0  0  0  0  0
   11.9113  -17.6647   24.4241 O   0  0  0  0  0  0  0  0  0  0  0  0
   12.0825  -16.9570   26.5666 O   0  0  0  0  0  0  0  0  0  0  0  0
  2  1  1  6
  2  3  1  0
  3  4  1  0
  4  5  1  0
  6  5  1  0
  7  6  1  0
  8  9  2  0
  8  2  1  0
 10 11  1  0
 11 13  1  0
 12 11  2  0
 14 13  1  1
 14 15  1  0
 15  8  1  0
 16 14  1  0
 16 18  1  0
 17 16  2  0
 19 18  1  0
 19 30  1  0
 20 21  1  0
 19 20  1  1
 21 29  1  0
 22 21  2  0
 22 23  1  0
 23 24  1  0
 24 25  1  0
 25 26  2  0
 27 26  1  0
 28 27  2  0
 29 24  2  0
 29 28  1  0
 30 31  2  0
 30 32  1  0
M  END
$$$$
