KNW.pdb
     RDKit          3D

 32 33  0  0  1  0  0  0  0  0999 V2000
   10.1438  -13.5625   19.3325 N   0  0  0  0  0  0  0  0  0  0  0  0
    8.8616  -13.8610   19.8888 C   0  0  1  0  0  0  0  0  0  0  0  0
    7.8001  -14.1086   18.8621 C   0  0  0  0  0  0  0  0  0  0  0  0
    8.0610  -13.4652   17.5400 C   0  0  0  0  0  0  0  0  0  0  0  0
    7.5148  -14.2494   16.3737 C   0  0  0  0  0  0  0  0  0  0  0  0
    7.7172  -13.4195   15.1159 C   0  0  0  0  0  0  0  0  0  0  0  0
    7.4450  -14.1628   13.9139 N   0  0  0  0  0  0  0  0  0  0  0  0
    8.9514  -15.1050   20.7357 C   0  0  0  0  0  0  0  0  0  0  0  0
    7.9203  -15.6418   21.2099 O   0  0  0  0  0  0  0  0  0  0  0  0
   10.2459  -19.2660   19.9056 N   0  0  0  0  0  0  0  0  0  0  0  0
   11.2714  -18.2969   20.1724 C   0  0  0  0  0  0  0  0  0  0  0  0
   12.0303  -17.9410   19.2243 O   0  0  0  0  0  0  0  0  0  0  0  0
   11.3643  -17.7829   21.5449 C   0  0  0  0  0  0  0  0  0  0  0  0
   10.2073  -16.9076   21.8774 C   0  0  2  0  0  0  0  0  0  0  0  0
   10.1908  -15.7163   21.0299 N   0  0  0  0  0  0  0  0  0  0  0  0
   10.2501  -16.4160   23.2992 C   0  0  0  0  0  0  0  0  0  0  0  0
   10.9906  -15.3934   23.5001 O   0  0  0  0  0  0  0  0  0  0  0  0
    9.5270  -17.0335   24.3233 N   0  0  0  0  0  0  0  0  0  0  0  0
    9.5227  -16.5932   25.6735 C   0  0  1  0  0  0  0  0  0  0  0  0
    8.1369  -16.5753   26.2613 C   0  0  0  0  0  0  0  0  0  0  0  0
    7.3421  -15.5207   25.5738 C   0  0  0  0  0  0  0  0  0  0  0  0
    6.5298  -15.6529   24.4809 C   0  0  0  0  0  0  0  0  0  0  0  0
    6.0107  -14.4261   24.2119 N   0  0  0  0  0  0  0  0  0  0  0  0
    6.4598  -13.5184   25.0899 C   0  0  0  0  0  0  0  0  0  0  0  0
    6.2366  -12.1496   25.2519 C   0  0  0  0  0  0  0  0  0  0  0  0
    6.8449  -11.4550   26.2684 C   0  0  0  0  0  0  0  0  0  0  0  0
    7.6778  -12.1033   27.1336 C   0  0  0  0  0  0  0  0  0  0  0  0
    7.8892  -13.4690   26.9573 C   0  0  0  0  0  0  0  0  0  0  0  0
    7.2891  -14.1853   25.9437 C   0  0  0  0  0  0  0  0  0  0  0  0
   10.4496  -17.3692   26.5348 C   0  0  0  0  0  0  0  0  0  0  0  0
   10.6128  -17.1723   27.7432 O   0  0  0  0  0  0  0  0  0  0  0  0
   11.1805  -18.3892   25.9218 O   0  0  0  0  0  0  0  0  0  0  0  0
  2  1  1  6
  2  3  1  0
  3  4  1  0
  4  5  1  0
  6  5  1  0
  7  6  1  0
  8  9  2  0
  8  2  1  0
 10 11  1  0
 11 13  1  0
 12 11  2  0
 14 13  1  6
 14 15  1  0
 15  8  1  0
 16 14  1  0
 16 18  1  0
 17 16  2  0
 19 18  1  0
 19 30  1  0
 20 21  1  0
 19 20  1  1
 21 29  1  0
 22 21  2  0
 22 23  1  0
 23 24  1  0
 24 25  1  0
 25 26  2  0
 27 26  1  0
 28 27  2  0
 29 24  2  0
 29 28  1  0
 30 31  2  0
 30 32  1  0
M  END
$$$$
