KNW.pdb
     RDKit          3D

 32 33  0  0  1  0  0  0  0  0999 V2000
    6.3363  -16.4627   20.3886 N   0  0  0  0  0  0  0  0  0  0  0  0
    7.5848  -15.8306   20.6795 C   0  0  1  0  0  0  0  0  0  0  0  0
    7.4468  -14.4461   21.2332 C   0  0  0  0  0  0  0  0  0  0  0  0
    7.9459  -13.3688   20.3275 C   0  0  0  0  0  0  0  0  0  0  0  0
    7.9519  -13.7643   18.8724 C   0  0  0  0  0  0  0  0  0  0  0  0
    8.5804  -12.6280   18.0814 C   0  0  0  0  0  0  0  0  0  0  0  0
    8.6705  -12.9181   16.6746 N   0  0  0  0  0  0  0  0  0  0  0  0
    8.3383  -16.6398   21.7043 C   0  0  0  0  0  0  0  0  0  0  0  0
    7.7481  -17.1530   22.6863 O   0  0  0  0  0  0  0  0  0  0  0  0
   13.7602  -19.2212   23.0104 N   0  0  0  0  0  0  0  0  0  0  0  0
   12.3432  -19.0342   23.1494 C   0  0  0  0  0  0  0  0  0  0  0  0
   11.7550  -19.5702   24.1333 O   0  0  0  0  0  0  0  0  0  0  0  0
   11.6726  -18.2229   22.1254 C   0  0  0  0  0  0  0  0  0  0  0  0
   10.4001  -17.6446   22.6369 C   0  0  2  0  0  0  0  0  0  0  0  0
    9.7313  -16.8542   21.6046 N   0  0  0  0  0  0  0  0  0  0  0  0
   10.6188  -16.7197   23.8039 C   0  0  0  0  0  0  0  0  0  0  0  0
   11.3429  -15.6951   23.5588 O   0  0  0  0  0  0  0  0  0  0  0  0
   10.0643  -16.9648   25.0630 N   0  0  0  0  0  0  0  0  0  0  0  0
   10.4870  -16.3251   26.2584 C   0  0  1  0  0  0  0  0  0  0  0  0
   10.1296  -14.8628   26.2777 C   0  0  0  0  0  0  0  0  0  0  0  0
    8.6475  -14.7346   26.2185 C   0  0  0  0  0  0  0  0  0  0  0  0
    7.7140  -15.7341   26.1829 C   0  0  0  0  0  0  0  0  0  0  0  0
    6.4907  -15.1437   26.1372 N   0  0  0  0  0  0  0  0  0  0  0  0
    6.6083  -13.8086   26.1427 C   0  0  0  0  0  0  0  0  0  0  0  0
    5.6813  -12.7649   26.1098 C   0  0  0  0  0  0  0  0  0  0  0  0
    6.0972  -11.4563   26.1281 C   0  0  0  0  0  0  0  0  0  0  0  0
    7.4297  -11.1654   26.1791 C   0  0  0  0  0  0  0  0  0  0  0  0
    8.3406  -12.2189   26.2114 C   0  0  0  0  0  0  0  0  0  0  0  0
    7.9449  -13.5394   26.1935 C   0  0  0  0  0  0  0  0  0  0  0  0
    9.9904  -17.0042   27.4812 C   0  0  0  0  0  0  0  0  0  0  0  0
   10.1011  -16.5542   28.6260 O   0  0  0  0  0  0  0  0  0  0  0  0
    9.3562  -18.2366   27.3088 O   0  0  0  0  0  0  0  0  0  0  0  0
  2  1  1  1
  2  3  1  0
  3  4  1  0
  4  5  1  0
  6  5  1  0
  7  6  1  0
  8  9  2  0
  8  2  1  0
 10 11  1  0
 11 13  1  0
 12 11  2  0
 14 13  1  6
 14 15  1  0
 15  8  1  0
 16 14  1  0
 16 18  1  0
 17 16  2  0
 19 18  1  0
 19 30  1  0
 20 21  1  0
 19 20  1  6
 21 29  1  0
 22 21  2  0
 22 23  1  0
 23 24  1  0
 24 25  1  0
 25 26  2  0
 27 26  1  0
 28 27  2  0
 29 24  2  0
 29 28  1  0
 30 31  2  0
 30 32  1  0
M  END
$$$$
