KNW.pdb
     RDKit          3D

 32 33  0  0  1  0  0  0  0  0999 V2000
    6.6026  -18.1867   19.4554 N   0  0  0  0  0  0  0  0  0  0  0  0
    8.0137  -18.3092   19.2639 C   0  0  1  0  0  0  0  0  0  0  0  0
    8.4199  -18.4365   17.8282 C   0  0  0  0  0  0  0  0  0  0  0  0
    7.4525  -17.8393   16.8599 C   0  0  0  0  0  0  0  0  0  0  0  0
    7.8646  -18.0091   15.4194 C   0  0  0  0  0  0  0  0  0  0  0  0
    6.7836  -17.3902   14.5475 C   0  0  0  0  0  0  0  0  0  0  0  0
    7.0397  -17.5658   13.1422 N   0  0  0  0  0  0  0  0  0  0  0  0
    8.7093  -17.0883   19.8099 C   0  0  0  0  0  0  0  0  0  0  0  0
    9.9565  -16.9653   19.7350 O   0  0  0  0  0  0  0  0  0  0  0  0
    7.0007  -13.1971   18.3776 N   0  0  0  0  0  0  0  0  0  0  0  0
    8.2202  -13.3858   19.1119 C   0  0  0  0  0  0  0  0  0  0  0  0
    9.3179  -13.3476   18.4835 O   0  0  0  0  0  0  0  0  0  0  0  0
    8.1013  -13.6115   20.5581 C   0  0  0  0  0  0  0  0  0  0  0  0
    8.7340  -14.8968   20.9618 C   0  0  2  0  0  0  0  0  0  0  0  0
    7.9930  -16.0371   20.4249 N   0  0  0  0  0  0  0  0  0  0  0  0
    8.7645  -15.0765   22.4558 C   0  0  0  0  0  0  0  0  0  0  0  0
    7.6671  -14.8177   23.0583 O   0  0  0  0  0  0  0  0  0  0  0  0
    9.9117  -15.5005   23.1320 N   0  0  0  0  0  0  0  0  0  0  0  0
   10.0198  -15.5803   24.5458 C   0  0  1  0  0  0  0  0  0  0  0  0
    8.8847  -16.3551   25.1600 C   0  0  0  0  0  0  0  0  0  0  0  0
    7.7084  -15.4520   25.2915 C   0  0  0  0  0  0  0  0  0  0  0  0
    6.4524  -15.6204   24.7758 C   0  0  0  0  0  0  0  0  0  0  0  0
    5.7117  -14.5463   25.1559 N   0  0  0  0  0  0  0  0  0  0  0  0
    6.4458  -13.7012   25.8931 C   0  0  0  0  0  0  0  0  0  0  0  0
    6.1681  -12.4816   26.5137 C   0  0  0  0  0  0  0  0  0  0  0  0
    7.1384  -11.8193   27.2248 C   0  0  0  0  0  0  0  0  0  0  0  0
    8.3900  -12.3533   27.3304 C   0  0  0  0  0  0  0  0  0  0  0  0
    8.6495  -13.5708   26.7050 C   0  0  0  0  0  0  0  0  0  0  0  0
    7.6905  -14.2521   25.9861 C   0  0  0  0  0  0  0  0  0  0  0  0
   11.3281  -16.1201   24.9934 C   0  0  0  0  0  0  0  0  0  0  0  0
   12.2407  -16.4625   24.2348 O   0  0  0  0  0  0  0  0  0  0  0  0
   11.5256  -16.2431   26.3705 O   0  0  0  0  0  0  0  0  0  0  0  0
  2  1  1  6
  2  3  1  0
  3  4  1  0
  4  5  1  0
  6  5  1  0
  7  6  1  0
  8  9  2  0
  8  2  1  0
 10 11  1  0
 11 13  1  0
 12 11  2  0
 14 13  1  1
 14 15  1  0
 15  8  1  0
 16 14  1  0
 16 18  1  0
 17 16  2  0
 19 18  1  0
 19 30  1  0
 20 21  1  0
 19 20  1  6
 21 29  1  0
 22 21  2  0
 22 23  1  0
 23 24  1  0
 24 25  1  0
 25 26  2  0
 27 26  1  0
 28 27  2  0
 29 24  2  0
 29 28  1  0
 30 31  2  0
 30 32  1  0
M  END
$$$$
