KNW.pdb
     RDKit          3D

 32 33  0  0  1  0  0  0  0  0999 V2000
    8.8817  -20.5588   21.9252 N   0  0  0  0  0  0  0  0  0  0  0  0
   10.3042  -20.4886   21.8051 C   0  0  1  0  0  0  0  0  0  0  0  0
   10.8422  -21.1720   20.5861 C   0  0  0  0  0  0  0  0  0  0  0  0
   10.2448  -22.5144   20.3194 C   0  0  0  0  0  0  0  0  0  0  0  0
   10.8759  -23.2298   19.1516 C   0  0  0  0  0  0  0  0  0  0  0  0
   10.0844  -24.5034   18.9000 C   0  0  0  0  0  0  0  0  0  0  0  0
   10.6723  -25.3257   17.8754 N   0  0  0  0  0  0  0  0  0  0  0  0
   10.7378  -19.0469   21.7270 C   0  0  0  0  0  0  0  0  0  0  0  0
   11.9260  -18.7411   21.4605 O   0  0  0  0  0  0  0  0  0  0  0  0
   10.1027  -17.1459   19.2033 N   0  0  0  0  0  0  0  0  0  0  0  0
    9.2226  -16.1150   19.6771 C   0  0  0  0  0  0  0  0  0  0  0  0
    8.4314  -15.5684   18.8545 O   0  0  0  0  0  0  0  0  0  0  0  0
    9.3065  -15.7671   21.1014 C   0  0  0  0  0  0  0  0  0  0  0  0
   10.3087  -16.6098   21.8090 C   0  0  2  0  0  0  0  0  0  0  0  0
    9.8323  -17.9850   21.9483 N   0  0  0  0  0  0  0  0  0  0  0  0
   10.5918  -16.1159   23.2022 C   0  0  0  0  0  0  0  0  0  0  0  0
   11.3218  -15.0687   23.2713 O   0  0  0  0  0  0  0  0  0  0  0  0
   10.0870  -16.7567   24.3369 N   0  0  0  0  0  0  0  0  0  0  0  0
   10.3827  -16.3671   25.6702 C   0  0  1  0  0  0  0  0  0  0  0  0
    9.9660  -14.9486   25.9537 C   0  0  0  0  0  0  0  0  0  0  0  0
    8.4807  -14.8674   25.8906 C   0  0  0  0  0  0  0  0  0  0  0  0
    7.5892  -15.8768   25.6492 C   0  0  0  0  0  0  0  0  0  0  0  0
    6.3436  -15.3349   25.6914 N   0  0  0  0  0  0  0  0  0  0  0  0
    6.4066  -14.0214   25.9502 C   0  0  0  0  0  0  0  0  0  0  0  0
    5.4383  -13.0259   26.0960 C   0  0  0  0  0  0  0  0  0  0  0  0
    5.8003  -11.7296   26.3683 C   0  0  0  0  0  0  0  0  0  0  0  0
    7.1191  -11.4035   26.4993 C   0  0  0  0  0  0  0  0  0  0  0  0
    8.0717  -12.4090   26.3507 C   0  0  0  0  0  0  0  0  0  0  0  0
    7.7303  -13.7164   26.0770 C   0  0  0  0  0  0  0  0  0  0  0  0
    9.8141  -17.2943   26.6803 C   0  0  0  0  0  0  0  0  0  0  0  0
    9.9211  -17.1497   27.9022 O   0  0  0  0  0  0  0  0  0  0  0  0
    9.1123  -18.4022   26.1999 O   0  0  0  0  0  0  0  0  0  0  0  0
  2  1  1  6
  2  3  1  0
  3  4  1  0
  4  5  1  0
  6  5  1  0
  7  6  1  0
  8  9  2  0
  8  2  1  0
 10 11  1  0
 11 13  1  0
 12 11  2  0
 14 13  1  1
 14 15  1  0
 15  8  1  0
 16 14  1  0
 16 18  1  0
 17 16  2  0
 19 18  1  0
 19 30  1  0
 20 21  1  0
 19 20  1  1
 21 29  1  0
 22 21  2  0
 22 23  1  0
 23 24  1  0
 24 25  1  0
 25 26  2  0
 27 26  1  0
 28 27  2  0
 29 24  2  0
 29 28  1  0
 30 31  2  0
 30 32  1  0
M  END
$$$$
