KNW.pdb
     RDKit          3D

 32 33  0  0  1  0  0  0  0  0999 V2000
    7.9219  -17.0937   19.4729 N   0  0  0  0  0  0  0  0  0  0  0  0
    8.3521  -16.2691   20.5582 C   0  0  1  0  0  0  0  0  0  0  0  0
    7.3902  -15.1748   20.9040 C   0  0  0  0  0  0  0  0  0  0  0  0
    7.2281  -14.1394   19.8403 C   0  0  0  0  0  0  0  0  0  0  0  0
    8.2087  -13.0000   19.9586 C   0  0  0  0  0  0  0  0  0  0  0  0
    8.0308  -12.1017   18.7449 C   0  0  0  0  0  0  0  0  0  0  0  0
    8.9027  -10.9569   18.7724 N   0  0  0  0  0  0  0  0  0  0  0  0
    8.5251  -17.1091   21.7980 C   0  0  0  0  0  0  0  0  0  0  0  0
    8.0108  -18.2511   21.8840 O   0  0  0  0  0  0  0  0  0  0  0  0
   10.3314  -19.5794   25.6119 N   0  0  0  0  0  0  0  0  0  0  0  0
   10.9243  -19.6908   24.3088 C   0  0  0  0  0  0  0  0  0  0  0  0
   11.6842  -20.6743   24.0709 O   0  0  0  0  0  0  0  0  0  0  0  0
   10.5996  -18.6407   23.3349 C   0  0  0  0  0  0  0  0  0  0  0  0
    9.6931  -17.6163   23.9214 C   0  0  2  0  0  0  0  0  0  0  0  0
    9.2684  -16.6509   22.9089 N   0  0  0  0  0  0  0  0  0  0  0  0
   10.3568  -16.8211   25.0135 C   0  0  0  0  0  0  0  0  0  0  0  0
   11.5043  -16.3416   24.7178 O   0  0  0  0  0  0  0  0  0  0  0  0
    9.7560  -16.6199   26.2590 N   0  0  0  0  0  0  0  0  0  0  0  0
   10.3478  -15.8843   27.3200 C   0  0  1  0  0  0  0  0  0  0  0  0
    9.3210  -15.1768   28.1634 C   0  0  0  0  0  0  0  0  0  0  0  0
    8.1079  -14.9369   27.3343 C   0  0  0  0  0  0  0  0  0  0  0  0
    7.1004  -15.8139   27.0379 C   0  0  0  0  0  0  0  0  0  0  0  0
    6.2065  -15.1537   26.2556 N   0  0  0  0  0  0  0  0  0  0  0  0
    6.6044  -13.8917   26.0425 C   0  0  0  0  0  0  0  0  0  0  0  0
    6.0601  -12.8232   25.3272 C   0  0  0  0  0  0  0  0  0  0  0  0
    6.7017  -11.6098   25.2820 C   0  0  0  0  0  0  0  0  0  0  0  0
    7.8845  -11.4394   25.9411 C   0  0  0  0  0  0  0  0  0  0  0  0
    8.4132  -12.5160   26.6497 C   0  0  0  0  0  0  0  0  0  0  0  0
    7.7860  -13.7424   26.7081 C   0  0  0  0  0  0  0  0  0  0  0  0
   11.2427  -16.7132   28.1658 C   0  0  0  0  0  0  0  0  0  0  0  0
   11.8965  -16.2852   29.1222 O   0  0  0  0  0  0  0  0  0  0  0  0
   11.3416  -18.0689   27.8452 O   0  0  0  0  0  0  0  0  0  0  0  0
  2  1  1  6
  2  3  1  0
  3  4  1  0
  4  5  1  0
  6  5  1  0
  7  6  1  0
  8  9  2  0
  8  2  1  0
 10 11  1  0
 11 13  1  0
 12 11  2  0
 14 13  1  6
 14 15  1  0
 15  8  1  0
 16 14  1  0
 16 18  1  0
 17 16  2  0
 19 18  1  0
 19 30  1  0
 20 21  1  0
 19 20  1  1
 21 29  1  0
 22 21  2  0
 22 23  1  0
 23 24  1  0
 24 25  1  0
 25 26  2  0
 27 26  1  0
 28 27  2  0
 29 24  2  0
 29 28  1  0
 30 31  2  0
 30 32  1  0
M  END
$$$$
