KNW.pdb
     RDKit          3D

 32 33  0  0  1  0  0  0  0  0999 V2000
    9.0995  -19.3078   21.0769 N   0  0  0  0  0  0  0  0  0  0  0  0
   10.2223  -18.6358   20.5020 C   0  0  1  0  0  0  0  0  0  0  0  0
   10.2769  -18.7198   19.0079 C   0  0  0  0  0  0  0  0  0  0  0  0
   10.8496  -19.9955   18.4840 C   0  0  0  0  0  0  0  0  0  0  0  0
   10.9047  -20.0539   16.9783 C   0  0  0  0  0  0  0  0  0  0  0  0
   11.3778  -21.4431   16.5809 C   0  0  0  0  0  0  0  0  0  0  0  0
   11.6310  -21.5575   15.1687 N   0  0  0  0  0  0  0  0  0  0  0  0
   10.1757  -17.1715   20.8575 C   0  0  0  0  0  0  0  0  0  0  0  0
   11.1447  -16.4131   20.6084 O   0  0  0  0  0  0  0  0  0  0  0  0
    5.5743  -15.3858   20.8772 N   0  0  0  0  0  0  0  0  0  0  0  0
    6.9835  -15.2931   20.6170 C   0  0  0  0  0  0  0  0  0  0  0  0
    7.4511  -15.8780   19.5969 O   0  0  0  0  0  0  0  0  0  0  0  0
    7.7886  -14.5147   21.5670 C   0  0  0  0  0  0  0  0  0  0  0  0
    9.0906  -15.1786   21.8483 C   0  0  2  0  0  0  0  0  0  0  0  0
    9.0476  -16.5933   21.4817 N   0  0  0  0  0  0  0  0  0  0  0  0
    9.4558  -15.1297   23.3075 C   0  0  0  0  0  0  0  0  0  0  0  0
    9.6494  -13.9584   23.7817 O   0  0  0  0  0  0  0  0  0  0  0  0
    9.5698  -16.2844   24.0863 N   0  0  0  0  0  0  0  0  0  0  0  0
   10.0369  -16.2985   25.4274 C   0  0  1  0  0  0  0  0  0  0  0  0
    8.9478  -16.6503   26.4052 C   0  0  0  0  0  0  0  0  0  0  0  0
    7.7539  -15.8113   26.1096 C   0  0  0  0  0  0  0  0  0  0  0  0
    6.5976  -16.1803   25.4783 C   0  0  0  0  0  0  0  0  0  0  0  0
    5.7922  -15.0864   25.4375 N   0  0  0  0  0  0  0  0  0  0  0  0
    6.3894  -14.0362   26.0178 C   0  0  0  0  0  0  0  0  0  0  0  0
    6.0014  -12.7125   26.2348 C   0  0  0  0  0  0  0  0  0  0  0  0
    6.8383  -11.8320   26.8751 C   0  0  0  0  0  0  0  0  0  0  0  0
    8.0643  -12.2484   27.3068 C   0  0  0  0  0  0  0  0  0  0  0  0
    8.4352  -13.5723   27.0819 C   0  0  0  0  0  0  0  0  0  0  0  0
    7.6108  -14.4725   26.4411 C   0  0  0  0  0  0  0  0  0  0  0  0
   11.2177  -17.1780   25.6162 C   0  0  0  0  0  0  0  0  0  0  0  0
   11.7124  -17.8852   24.7327 O   0  0  0  0  0  0  0  0  0  0  0  0
   11.7982  -17.1959   26.8864 O   0  0  0  0  0  0  0  0  0  0  0  0
  2  1  1  6
  2  3  1  0
  3  4  1  0
  4  5  1  0
  6  5  1  0
  7  6  1  0
  8  9  2  0
  8  2  1  0
 10 11  1  0
 11 13  1  0
 12 11  2  0
 14 13  1  1
 14 15  1  0
 15  8  1  0
 16 14  1  0
 16 18  1  0
 17 16  2  0
 19 18  1  0
 19 30  1  0
 20 21  1  0
 19 20  1  1
 21 29  1  0
 22 21  2  0
 22 23  1  0
 23 24  1  0
 24 25  1  0
 25 26  2  0
 27 26  1  0
 28 27  2  0
 29 24  2  0
 29 28  1  0
 30 31  2  0
 30 32  1  0
M  END
$$$$
