KNW.pdb
     RDKit          3D

 32 33  0  0  1  0  0  0  0  0999 V2000
    8.7362  -15.7096   19.2229 N   0  0  0  0  0  0  0  0  0  0  0  0
    8.4016  -14.6329   20.1014 C   0  0  1  0  0  0  0  0  0  0  0  0
    7.5211  -13.5949   19.4772 C   0  0  0  0  0  0  0  0  0  0  0  0
    7.2061  -13.8400   18.0383 C   0  0  0  0  0  0  0  0  0  0  0  0
    8.2779  -13.3489   17.0982 C   0  0  0  0  0  0  0  0  0  0  0  0
    7.8348  -13.6638   15.6781 C   0  0  0  0  0  0  0  0  0  0  0  0
    8.8790  -13.4442   14.7123 N   0  0  0  0  0  0  0  0  0  0  0  0
    7.6656  -15.1671   21.3038 C   0  0  0  0  0  0  0  0  0  0  0  0
    6.4411  -14.9425   21.4665 O   0  0  0  0  0  0  0  0  0  0  0  0
    5.1877  -19.2012   22.7629 N   0  0  0  0  0  0  0  0  0  0  0  0
    6.5775  -19.2396   22.4040 C   0  0  0  0  0  0  0  0  0  0  0  0
    7.2259  -20.3076   22.6048 O   0  0  0  0  0  0  0  0  0  0  0  0
    7.1513  -18.0196   21.8217 C   0  0  0  0  0  0  0  0  0  0  0  0
    7.6123  -17.0776   22.8777 C   0  0  2  0  0  0  0  0  0  0  0  0
    8.3171  -15.9382   22.2923 N   0  0  0  0  0  0  0  0  0  0  0  0
    8.5733  -17.7214   23.8407 C   0  0  0  0  0  0  0  0  0  0  0  0
    8.1466  -18.7853   24.4068 O   0  0  0  0  0  0  0  0  0  0  0  0
    9.8425  -17.1932   24.0919 N   0  0  0  0  0  0  0  0  0  0  0  0
   10.1023  -16.1501   25.0199 C   0  0  1  0  0  0  0  0  0  0  0  0
    9.6433  -14.8095   24.5116 C   0  0  0  0  0  0  0  0  0  0  0  0
    8.3135  -14.5046   25.1076 C   0  0  0  0  0  0  0  0  0  0  0  0
    7.3037  -15.3765   25.4103 C   0  0  0  0  0  0  0  0  0  0  0  0
    6.2850  -14.6481   25.9384 N   0  0  0  0  0  0  0  0  0  0  0  0
    6.6062  -13.3477   25.9842 C   0  0  0  0  0  0  0  0  0  0  0  0
    5.9305  -12.2088   26.4268 C   0  0  0  0  0  0  0  0  0  0  0  0
    6.5197  -10.9705   26.3534 C   0  0  0  0  0  0  0  0  0  0  0  0
    7.7794  -10.8444   25.8435 C   0  0  0  0  0  0  0  0  0  0  0  0
    8.4389  -11.9911   25.4065 C   0  0  0  0  0  0  0  0  0  0  0  0
    7.8660  -13.2434   25.4708 C   0  0  0  0  0  0  0  0  0  0  0  0
    9.5389  -16.4235   26.3657 C   0  0  0  0  0  0  0  0  0  0  0  0
    8.6759  -17.2743   26.6038 O   0  0  0  0  0  0  0  0  0  0  0  0
   10.0288  -15.6574   27.4257 O   0  0  0  0  0  0  0  0  0  0  0  0
  2  1  1  6
  2  3  1  0
  3  4  1  0
  4  5  1  0
  6  5  1  0
  7  6  1  0
  8  9  2  0
  8  2  1  0
 10 11  1  0
 11 13  1  0
 12 11  2  0
 14 13  1  6
 14 15  1  0
 15  8  1  0
 16 14  1  0
 16 18  1  0
 17 16  2  0
 19 18  1  0
 19 30  1  0
 20 21  1  0
 19 20  1  6
 21 29  1  0
 22 21  2  0
 22 23  1  0
 23 24  1  0
 24 25  1  0
 25 26  2  0
 27 26  1  0
 28 27  2  0
 29 24  2  0
 29 28  1  0
 30 31  2  0
 30 32  1  0
M  END
$$$$
