KNW.pdb
     RDKit          3D

 32 33  0  0  1  0  0  0  0  0999 V2000
    8.4108  -17.7349   19.3982 N   0  0  0  0  0  0  0  0  0  0  0  0
    8.7622  -16.7647   20.3872 C   0  0  1  0  0  0  0  0  0  0  0  0
    8.1928  -15.4042   20.1283 C   0  0  0  0  0  0  0  0  0  0  0  0
    8.5596  -14.8261   18.8013 C   0  0  0  0  0  0  0  0  0  0  0  0
    7.9722  -13.4584   18.5604 C   0  0  0  0  0  0  0  0  0  0  0  0
    8.4395  -12.9825   17.1940 C   0  0  0  0  0  0  0  0  0  0  0  0
    7.9285  -11.6795   16.8584 N   0  0  0  0  0  0  0  0  0  0  0  0
    8.2515  -17.2046   21.7357 C   0  0  0  0  0  0  0  0  0  0  0  0
    7.2451  -17.9484   21.8364 O   0  0  0  0  0  0  0  0  0  0  0  0
   12.7218  -19.5827   23.6506 N   0  0  0  0  0  0  0  0  0  0  0  0
   11.2861  -19.5630   23.6687 C   0  0  0  0  0  0  0  0  0  0  0  0
   10.6762  -20.4524   24.3308 O   0  0  0  0  0  0  0  0  0  0  0  0
   10.6227  -18.4968   22.9073 C   0  0  0  0  0  0  0  0  0  0  0  0
    9.5947  -17.8009   23.7284 C   0  0  2  0  0  0  0  0  0  0  0  0
    8.8791  -16.8021   22.9360 N   0  0  0  0  0  0  0  0  0  0  0  0
   10.1950  -17.0652   24.8960 C   0  0  0  0  0  0  0  0  0  0  0  0
   11.3115  -16.4886   24.6609 O   0  0  0  0  0  0  0  0  0  0  0  0
    9.5710  -17.0145   26.1454 N   0  0  0  0  0  0  0  0  0  0  0  0
   10.0920  -16.3195   27.2690 C   0  0  1  0  0  0  0  0  0  0  0  0
    9.0098  -15.6601   28.0816 C   0  0  0  0  0  0  0  0  0  0  0  0
    7.9314  -15.2084   27.1600 C   0  0  0  0  0  0  0  0  0  0  0  0
    6.9460  -15.9599   26.5803 C   0  0  0  0  0  0  0  0  0  0  0  0
    6.1910  -15.1218   25.8224 N   0  0  0  0  0  0  0  0  0  0  0  0
    6.6560  -13.8670   25.8968 C   0  0  0  0  0  0  0  0  0  0  0  0
    6.2513  -12.6595   25.3241 C   0  0  0  0  0  0  0  0  0  0  0  0
    6.9328  -11.4961   25.5847 C   0  0  0  0  0  0  0  0  0  0  0  0
    8.0184  -11.5129   26.4117 C   0  0  0  0  0  0  0  0  0  0  0  0
    8.4082  -12.7263   26.9744 C   0  0  0  0  0  0  0  0  0  0  0  0
    7.7388  -13.9056   26.7260 C   0  0  0  0  0  0  0  0  0  0  0  0
   10.9481  -17.1749   28.1286 C   0  0  0  0  0  0  0  0  0  0  0  0
   11.1340  -18.3828   27.9504 O   0  0  0  0  0  0  0  0  0  0  0  0
   11.5801  -16.5563   29.2095 O   0  0  0  0  0  0  0  0  0  0  0  0
  2  1  1  6
  2  3  1  0
  3  4  1  0
  4  5  1  0
  6  5  1  0
  7  6  1  0
  8  9  2  0
  8  2  1  0
 10 11  1  0
 11 13  1  0
 12 11  2  0
 14 13  1  6
 14 15  1  0
 15  8  1  0
 16 14  1  0
 16 18  1  0
 17 16  2  0
 19 18  1  0
 19 30  1  0
 20 21  1  0
 19 20  1  1
 21 29  1  0
 22 21  2  0
 22 23  1  0
 23 24  1  0
 24 25  1  0
 25 26  2  0
 27 26  1  0
 28 27  2  0
 29 24  2  0
 29 28  1  0
 30 31  2  0
 30 32  1  0
M  END
$$$$
