KNW.pdb
     RDKit          3D

 32 33  0  0  1  0  0  0  0  0999 V2000
    8.8731  -12.6697   19.1488 N   0  0  0  0  0  0  0  0  0  0  0  0
    8.0280  -13.7970   19.3894 C   0  0  1  0  0  0  0  0  0  0  0  0
    7.3691  -14.3325   18.1560 C   0  0  0  0  0  0  0  0  0  0  0  0
    8.2455  -14.3463   16.9469 C   0  0  0  0  0  0  0  0  0  0  0  0
    7.5545  -14.8669   15.7119 C   0  0  0  0  0  0  0  0  0  0  0  0
    8.5798  -14.9224   14.5905 C   0  0  0  0  0  0  0  0  0  0  0  0
    8.0085  -15.3495   13.3404 N   0  0  0  0  0  0  0  0  0  0  0  0
    8.8380  -14.9238   19.9784 C   0  0  0  0  0  0  0  0  0  0  0  0
    8.2881  -15.9844   20.3643 O   0  0  0  0  0  0  0  0  0  0  0  0
   11.0796  -17.5005   18.5189 N   0  0  0  0  0  0  0  0  0  0  0  0
   12.2717  -16.7639   18.8324 C   0  0  0  0  0  0  0  0  0  0  0  0
   13.2043  -16.7284   17.9778 O   0  0  0  0  0  0  0  0  0  0  0  0
   12.3205  -16.0963   20.1395 C   0  0  0  0  0  0  0  0  0  0  0  0
   10.9611  -15.9537   20.7284 C   0  0  2  0  0  0  0  0  0  0  0  0
   10.2411  -14.8359   20.1203 N   0  0  0  0  0  0  0  0  0  0  0  0
   11.0030  -15.6768   22.2072 C   0  0  0  0  0  0  0  0  0  0  0  0
   11.8292  -14.7707   22.5687 O   0  0  0  0  0  0  0  0  0  0  0  0
   10.1916  -16.3606   23.1166 N   0  0  0  0  0  0  0  0  0  0  0  0
   10.1308  -16.0703   24.5055 C   0  0  1  0  0  0  0  0  0  0  0  0
    9.8102  -14.6235   24.7704 C   0  0  0  0  0  0  0  0  0  0  0  0
    8.3796  -14.5185   25.1692 C   0  0  0  0  0  0  0  0  0  0  0  0
    7.4187  -15.4918   25.1317 C   0  0  0  0  0  0  0  0  0  0  0  0
    6.2659  -14.9400   25.5938 N   0  0  0  0  0  0  0  0  0  0  0  0
    6.4547  -13.6549   25.9244 C   0  0  0  0  0  0  0  0  0  0  0  0
    5.6148  -12.6639   26.4363 C   0  0  0  0  0  0  0  0  0  0  0  0
    6.0918  -11.4008   26.6872 C   0  0  0  0  0  0  0  0  0  0  0  0
    7.3999  -11.1039   26.4358 C   0  0  0  0  0  0  0  0  0  0  0  0
    8.2236  -12.1046   25.9251 C   0  0  0  0  0  0  0  0  0  0  0  0
    7.7655  -13.3788   25.6657 C   0  0  0  0  0  0  0  0  0  0  0  0
    9.1952  -16.9593   25.2388 C   0  0  0  0  0  0  0  0  0  0  0  0
    8.3099  -17.6360   24.7062 O   0  0  0  0  0  0  0  0  0  0  0  0
    9.3389  -17.0244   26.6265 O   0  0  0  0  0  0  0  0  0  0  0  0
  2  1  1  6
  2  3  1  0
  3  4  1  0
  4  5  1  0
  6  5  1  0
  7  6  1  0
  8  9  2  0
  8  2  1  0
 10 11  1  0
 11 13  1  0
 12 11  2  0
 14 13  1  6
 14 15  1  0
 15  8  1  0
 16 14  1  0
 16 18  1  0
 17 16  2  0
 19 18  1  0
 19 30  1  0
 20 21  1  0
 19 20  1  6
 21 29  1  0
 22 21  2  0
 22 23  1  0
 23 24  1  0
 24 25  1  0
 25 26  2  0
 27 26  1  0
 28 27  2  0
 29 24  2  0
 29 28  1  0
 30 31  2  0
 30 32  1  0
M  END
$$$$
