KNW.pdb
     RDKit          3D

 32 33  0  0  1  0  0  0  0  0999 V2000
    6.3782  -18.5157   20.2833 N   0  0  0  0  0  0  0  0  0  0  0  0
    7.7520  -18.5361   19.8896 C   0  0  1  0  0  0  0  0  0  0  0  0
    7.9610  -18.8549   18.4415 C   0  0  0  0  0  0  0  0  0  0  0  0
    7.3578  -20.1487   18.0032 C   0  0  0  0  0  0  0  0  0  0  0  0
    7.5192  -20.4158   16.5280 C   0  0  0  0  0  0  0  0  0  0  0  0
    6.9785  -21.8080   16.2426 C   0  0  0  0  0  0  0  0  0  0  0  0
    6.8972  -22.0909   14.8338 N   0  0  0  0  0  0  0  0  0  0  0  0
    8.3719  -17.1839   20.1349 C   0  0  0  0  0  0  0  0  0  0  0  0
    8.4692  -16.3386   19.2118 O   0  0  0  0  0  0  0  0  0  0  0  0
    6.3956  -14.5193   19.7633 N   0  0  0  0  0  0  0  0  0  0  0  0
    7.8039  -14.4014   20.0181 C   0  0  0  0  0  0  0  0  0  0  0  0
    8.5870  -14.2518   19.0354 O   0  0  0  0  0  0  0  0  0  0  0  0
    8.2368  -14.4632   21.4200 C   0  0  0  0  0  0  0  0  0  0  0  0
    9.3410  -15.4437   21.6056 C   0  0  2  0  0  0  0  0  0  0  0  0
    8.8662  -16.8119   21.4052 N   0  0  0  0  0  0  0  0  0  0  0  0
    9.9234  -15.3958   22.9925 C   0  0  0  0  0  0  0  0  0  0  0  0
   10.6911  -14.4008   23.2271 O   0  0  0  0  0  0  0  0  0  0  0  0
    9.6392  -16.3693   23.9541 N   0  0  0  0  0  0  0  0  0  0  0  0
   10.2148  -16.3995   25.2520 C   0  0  1  0  0  0  0  0  0  0  0  0
    9.9584  -15.1289   26.0175 C   0  0  0  0  0  0  0  0  0  0  0  0
    8.4882  -14.9051   26.0891 C   0  0  0  0  0  0  0  0  0  0  0  0
    7.4846  -15.8056   25.8576 C   0  0  0  0  0  0  0  0  0  0  0  0
    6.3062  -15.1548   26.0444 N   0  0  0  0  0  0  0  0  0  0  0  0
    6.5197  -13.8764   26.3857 C   0  0  0  0  0  0  0  0  0  0  0  0
    5.6697  -12.8090   26.6824 C   0  0  0  0  0  0  0  0  0  0  0  0
    6.1792  -11.5766   27.0100 C   0  0  0  0  0  0  0  0  0  0  0  0
    7.5300  -11.3858   27.0481 C   0  0  0  0  0  0  0  0  0  0  0  0
    8.3632  -12.4615   26.7494 C   0  0  0  0  0  0  0  0  0  0  0  0
    7.8730  -13.7067   26.4178 C   0  0  0  0  0  0  0  0  0  0  0  0
    9.7926  -17.5836   26.0413 C   0  0  0  0  0  0  0  0  0  0  0  0
    8.9465  -18.4048   25.6736 O   0  0  0  0  0  0  0  0  0  0  0  0
   10.4036  -17.7682   27.2836 O   0  0  0  0  0  0  0  0  0  0  0  0
  2  1  1  6
  2  3  1  0
  3  4  1  0
  4  5  1  0
  6  5  1  0
  7  6  1  0
  8  9  2  0
  8  2  1  0
 10 11  1  0
 11 13  1  0
 12 11  2  0
 14 13  1  1
 14 15  1  0
 15  8  1  0
 16 14  1  0
 16 18  1  0
 17 16  2  0
 19 18  1  0
 19 30  1  0
 20 21  1  0
 19 20  1  1
 21 29  1  0
 22 21  2  0
 22 23  1  0
 23 24  1  0
 24 25  1  0
 25 26  2  0
 27 26  1  0
 28 27  2  0
 29 24  2  0
 29 28  1  0
 30 31  2  0
 30 32  1  0
M  END
$$$$
