KNW.pdb
     RDKit          3D

 32 33  0  0  1  0  0  0  0  0999 V2000
    9.7925  -12.9517   19.3636 N   0  0  0  0  0  0  0  0  0  0  0  0
    8.5026  -13.4617   19.7085 C   0  0  1  0  0  0  0  0  0  0  0  0
    7.6151  -13.7092   18.5281 C   0  0  0  0  0  0  0  0  0  0  0  0
    8.2740  -14.4414   17.4058 C   0  0  0  0  0  0  0  0  0  0  0  0
    7.4247  -14.5221   16.1625 C   0  0  0  0  0  0  0  0  0  0  0  0
    8.2713  -15.1316   15.0563 C   0  0  0  0  0  0  0  0  0  0  0  0
    7.5852  -15.1673   13.7916 N   0  0  0  0  0  0  0  0  0  0  0  0
    8.6516  -14.7777   20.4288 C   0  0  0  0  0  0  0  0  0  0  0  0
    7.6493  -15.3936   20.8672 O   0  0  0  0  0  0  0  0  0  0  0  0
   11.3433  -17.8648   18.3007 N   0  0  0  0  0  0  0  0  0  0  0  0
   10.4954  -18.0645   19.4422 C   0  0  0  0  0  0  0  0  0  0  0  0
    9.3910  -18.6607   19.2798 O   0  0  0  0  0  0  0  0  0  0  0  0
   10.9799  -17.5557   20.7318 C   0  0  0  0  0  0  0  0  0  0  0  0
    9.9901  -16.6400   21.3618 C   0  0  2  0  0  0  0  0  0  0  0  0
    9.9166  -15.3708   20.6398 N   0  0  0  0  0  0  0  0  0  0  0  0
   10.3481  -16.2990   22.7833 C   0  0  0  0  0  0  0  0  0  0  0  0
   11.2728  -15.4267   22.9181 O   0  0  0  0  0  0  0  0  0  0  0  0
    9.7097  -16.8928   23.8755 N   0  0  0  0  0  0  0  0  0  0  0  0
   10.0035  -16.5903   25.2316 C   0  0  1  0  0  0  0  0  0  0  0  0
    9.8216  -15.1282   25.5403 C   0  0  0  0  0  0  0  0  0  0  0  0
    8.3776  -14.8721   25.7967 C   0  0  0  0  0  0  0  0  0  0  0  0
    7.3170  -15.7024   25.5565 C   0  0  0  0  0  0  0  0  0  0  0  0
    6.1934  -15.0479   25.9518 N   0  0  0  0  0  0  0  0  0  0  0  0
    6.4964  -13.8346   26.4341 C   0  0  0  0  0  0  0  0  0  0  0  0
    5.7287  -12.7924   26.9576 C   0  0  0  0  0  0  0  0  0  0  0  0
    6.3224  -11.6317   27.3888 C   0  0  0  0  0  0  0  0  0  0  0  0
    7.6773  -11.4884   27.3079 C   0  0  0  0  0  0  0  0  0  0  0  0
    8.4278  -12.5382   26.7830 C   0  0  0  0  0  0  0  0  0  0  0  0
    7.8522  -13.7115   26.3441 C   0  0  0  0  0  0  0  0  0  0  0  0
    9.2377  -17.4291   26.1873 C   0  0  0  0  0  0  0  0  0  0  0  0
    8.2990  -18.1681   25.8739 O   0  0  0  0  0  0  0  0  0  0  0  0
    9.6168  -17.3674   27.5301 O   0  0  0  0  0  0  0  0  0  0  0  0
  2  1  1  6
  2  3  1  0
  3  4  1  0
  4  5  1  0
  6  5  1  0
  7  6  1  0
  8  9  2  0
  8  2  1  0
 10 11  1  0
 11 13  1  0
 12 11  2  0
 14 13  1  6
 14 15  1  0
 15  8  1  0
 16 14  1  0
 16 18  1  0
 17 16  2  0
 19 18  1  0
 19 30  1  0
 20 21  1  0
 19 20  1  1
 21 29  1  0
 22 21  2  0
 22 23  1  0
 23 24  1  0
 24 25  1  0
 25 26  2  0
 27 26  1  0
 28 27  2  0
 29 24  2  0
 29 28  1  0
 30 31  2  0
 30 32  1  0
M  END
$$$$
