VRM.pdb
     RDKit          3D

 27 26  0  0  1  0  0  0  0  0999 V2000
    7.5127  -13.0419   27.3306 C   0  0  0  0  0  0  0  0  0  0  0  0
    6.4012  -12.7392   26.3637 C   0  0  1  0  0  0  0  0  0  0  0  0
    6.9990  -11.8922   25.2391 C   0  0  0  0  0  0  0  0  0  0  0  0
    5.8594  -13.9830   25.7285 C   0  0  2  0  0  0  0  0  0  0  0  0
    5.3084  -14.8591   26.7910 N   0  0  0  0  0  0  0  0  0  0  0  0
    6.8407  -14.7989   24.9890 C   0  0  0  0  0  0  0  0  0  0  0  0
    7.4604  -15.6764   25.6634 O   0  0  0  0  0  0  0  0  0  0  0  0
    8.6214  -19.4721   19.9191 N   0  0  0  0  0  0  0  0  0  0  0  0
    9.3312  -18.8721   18.8491 C   0  0  0  0  0  0  0  0  0  0  0  0
   10.1794  -19.5878   18.1299 N   0  0  0  0  0  0  0  0  0  0  0  0
    9.1996  -17.5190   18.4791 N   0  0  0  0  0  0  0  0  0  0  0  0
    8.4841  -16.5598   19.2326 C   0  0  0  0  0  0  0  0  0  0  0  0
    8.8181  -16.5287   20.7054 C   0  0  0  0  0  0  0  0  0  0  0  0
    7.9478  -15.5007   21.3927 C   0  0  0  0  0  0  0  0  0  0  0  0
    8.1041  -15.4701   22.8915 C   0  0  2  0  0  0  0  0  0  0  0  0
    7.1642  -14.7174   23.6310 N   0  0  0  0  0  0  0  0  0  0  0  0
    9.4828  -15.1332   23.2423 C   0  0  0  0  0  0  0  0  0  0  0  0
    9.8842  -13.9218   23.3263 O   0  0  0  0  0  0  0  0  0  0  0  0
   10.7436  -19.0354   17.4517 C   0  0  0  0  0  0  0  0  0  0  0  0
   10.7676  -13.1035   28.2287 S   0  0  0  0  0  0  0  0  0  0  0  0
   10.9701  -14.8560   28.4745 C   0  0  0  0  0  0  0  0  0  0  0  0
   11.5499  -15.7578   27.0663 C   0  0  0  0  0  0  0  0  0  0  0  0
   10.6748  -15.7199   25.8643 C   0  0  1  0  0  0  0  0  0  0  0  0
   11.3403  -16.1039   24.6007 N   0  0  0  0  0  0  0  0  0  0  0  0
   10.3806  -16.2084   23.4909 C   0  0  0  0  0  0  0  0  0  0  0  0
   12.0184  -17.4293   24.6462 O   0  0  0  0  0  0  0  0  0  0  0  0
   11.2917  -18.4583   24.7200 O   0  0  0  0  0  0  0  0  0  0  0  0
  2  3  1  6
  2  1  1  0
  4  2  1  0
  4  5  1  1
  6  4  1  0
  6  7  2  0
  9  8  1  0
 10  9  2  0
 11  9  1  0
 12 11  1  0
 13 14  1  0
 13 12  1  0
 15 16  1  0
 15 14  1  6
 16  6  1  0
 17 15  1  0
 18 17  2  0
 19 20  1  0
 20 21  1  0
 23 22  1  6
 22 21  1  0
 23 24  1  0
 24 17  1  0
 25 23  1  0
 25 27  1  0
 26 25  2  0
M  END
$$$$
