VRM.pdb
     RDKit          3D

 27 26  0  0  1  0  0  0  0  0999 V2000
    7.7040  -12.6470   17.9081 C   0  0  0  0  0  0  0  0  0  0  0  0
    7.5438  -13.4892   19.1438 C   0  0  1  0  0  0  0  0  0  0  0  0
    7.0766  -14.8731   18.6898 C   0  0  0  0  0  0  0  0  0  0  0  0
    8.8455  -13.6843   19.8592 C   0  0  2  0  0  0  0  0  0  0  0  0
    9.8192  -14.2908   18.9190 N   0  0  0  0  0  0  0  0  0  0  0  0
    8.7982  -14.5740   21.0346 C   0  0  0  0  0  0  0  0  0  0  0  0
    7.9899  -14.2433   21.9545 O   0  0  0  0  0  0  0  0  0  0  0  0
   13.4993  -19.9033   21.3899 N   0  0  0  0  0  0  0  0  0  0  0  0
   12.3468  -20.7112   21.2230 C   0  0  0  0  0  0  0  0  0  0  0  0
   12.3219  -21.6493   20.2911 N   0  0  0  0  0  0  0  0  0  0  0  0
   11.1794  -20.5861   22.0018 N   0  0  0  0  0  0  0  0  0  0  0  0
   11.1414  -19.9737   23.2759 C   0  0  0  0  0  0  0  0  0  0  0  0
   10.1608  -18.8320   23.4047 C   0  0  0  0  0  0  0  0  0  0  0  0
   10.4140  -17.8299   22.3011 C   0  0  0  0  0  0  0  0  0  0  0  0
    9.5167  -16.6201   22.3550 C   0  0  2  0  0  0  0  0  0  0  0  0
    9.5398  -15.7399   21.2499 N   0  0  0  0  0  0  0  0  0  0  0  0
    9.6998  -15.9195   23.6251 C   0  0  0  0  0  0  0  0  0  0  0  0
   10.8351  -15.4530   23.9844 O   0  0  0  0  0  0  0  0  0  0  0  0
   11.4426  -22.2056   20.2619 C   0  0  0  0  0  0  0  0  0  0  0  0
    6.7993  -10.4139   26.4974 S   0  0  0  0  0  0  0  0  0  0  0  0
    6.2980  -11.9693   27.2059 C   0  0  0  0  0  0  0  0  0  0  0  0
    7.4932  -13.2706   27.1028 C   0  0  0  0  0  0  0  0  0  0  0  0
    7.5607  -13.9902   25.8028 C   0  0  1  0  0  0  0  0  0  0  0  0
    8.6698  -14.9619   25.6891 N   0  0  0  0  0  0  0  0  0  0  0  0
    8.5611  -15.7697   24.4647 C   0  0  0  0  0  0  0  0  0  0  0  0
    8.7281  -15.9542   26.7983 O   0  0  0  0  0  0  0  0  0  0  0  0
    8.2283  -17.0945   26.5927 O   0  0  0  0  0  0  0  0  0  0  0  0
  2  3  1  6
  2  1  1  0
  4  2  1  0
  4  5  1  6
  6  4  1  0
  6  7  2  0
  9  8  1  0
 10  9  2  0
 11  9  1  0
 12 11  1  0
 13 14  1  0
 13 12  1  0
 15 16  1  0
 15 14  1  6
 16  6  1  0
 17 15  1  0
 18 17  2  0
 19 20  1  0
 20 21  1  0
 23 22  1  6
 22 21  1  0
 23 24  1  0
 24 17  1  0
 25 23  1  0
 25 27  1  0
 26 25  2  0
M  END
$$$$
