VRM.pdb
     RDKit          3D

 27 26  0  0  1  0  0  0  0  0999 V2000
    8.4192  -20.0087   26.4056 C   0  0  0  0  0  0  0  0  0  0  0  0
    7.0765  -19.4386   26.0394 C   0  0  1  0  0  0  0  0  0  0  0  0
    6.9955  -18.0414   26.6566 C   0  0  0  0  0  0  0  0  0  0  0  0
    6.9276  -19.2675   24.5586 C   0  0  2  0  0  0  0  0  0  0  0  0
    6.9336  -20.6070   23.9216 N   0  0  0  0  0  0  0  0  0  0  0  0
    7.9935  -18.4917   23.8974 C   0  0  0  0  0  0  0  0  0  0  0  0
    9.0765  -19.1109   23.6684 O   0  0  0  0  0  0  0  0  0  0  0  0
    8.1837  -14.4506   18.0325 N   0  0  0  0  0  0  0  0  0  0  0  0
    7.9459  -13.3399   18.8801 C   0  0  0  0  0  0  0  0  0  0  0  0
    8.3564  -12.1336   18.5260 N   0  0  0  0  0  0  0  0  0  0  0  0
    7.2821  -13.4249   20.1200 N   0  0  0  0  0  0  0  0  0  0  0  0
    6.7172  -14.6151   20.6338 C   0  0  0  0  0  0  0  0  0  0  0  0
    7.7102  -15.7120   20.9374 C   0  0  0  0  0  0  0  0  0  0  0  0
    8.6437  -15.2505   22.0339 C   0  0  0  0  0  0  0  0  0  0  0  0
    8.9933  -16.3240   23.0323 C   0  0  2  0  0  0  0  0  0  0  0  0
    7.9463  -17.1538   23.4928 N   0  0  0  0  0  0  0  0  0  0  0  0
    9.7690  -15.7501   24.1306 C   0  0  0  0  0  0  0  0  0  0  0  0
    9.5913  -14.5484   24.5304 O   0  0  0  0  0  0  0  0  0  0  0  0
    8.0874  -11.3750   19.1861 C   0  0  0  0  0  0  0  0  0  0  0  0
    8.4597  -13.6665   28.6145 S   0  0  0  0  0  0  0  0  0  0  0  0
   10.0888  -14.0270   29.2377 C   0  0  0  0  0  0  0  0  0  0  0  0
   11.0942  -15.0410   28.1920 C   0  0  0  0  0  0  0  0  0  0  0  0
   10.5306  -15.3523   26.8512 C   0  0  1  0  0  0  0  0  0  0  0  0
   11.4409  -16.0958   25.9535 N   0  0  0  0  0  0  0  0  0  0  0  0
   10.7440  -16.5792   24.7519 C   0  0  0  0  0  0  0  0  0  0  0  0
   12.0399  -17.3147   26.5649 O   0  0  0  0  0  0  0  0  0  0  0  0
   11.7878  -17.5468   27.7794 O   0  0  0  0  0  0  0  0  0  0  0  0
  2  3  1  1
  2  1  1  0
  4  2  1  0
  4  5  1  6
  6  4  1  0
  6  7  2  0
  9  8  1  0
 10  9  2  0
 11  9  1  0
 12 11  1  0
 13 14  1  0
 13 12  1  0
 15 16  1  0
 15 14  1  1
 16  6  1  0
 17 15  1  0
 18 17  2  0
 19 20  1  0
 20 21  1  0
 23 22  1  6
 22 21  1  0
 23 24  1  0
 24 17  1  0
 25 23  1  0
 25 27  1  0
 26 25  2  0
M  END
$$$$
