VRM.pdb
     RDKit          3D

 27 26  0  0  1  0  0  0  0  0999 V2000
    8.6435  -12.6011   20.6588 C   0  0  0  0  0  0  0  0  0  0  0  0
    7.5350  -13.2738   19.8969 C   0  0  1  0  0  0  0  0  0  0  0  0
    7.4148  -12.5596   18.5497 C   0  0  0  0  0  0  0  0  0  0  0  0
    7.8511  -14.7078   19.6007 C   0  0  2  0  0  0  0  0  0  0  0  0
    6.7021  -15.3099   18.8814 N   0  0  0  0  0  0  0  0  0  0  0  0
    8.0939  -15.5621   20.7782 C   0  0  0  0  0  0  0  0  0  0  0  0
    7.0972  -15.7682   21.5351 O   0  0  0  0  0  0  0  0  0  0  0  0
   11.0956  -23.0272   24.0868 N   0  0  0  0  0  0  0  0  0  0  0  0
   11.5149  -22.2339   22.9897 C   0  0  0  0  0  0  0  0  0  0  0  0
   12.6111  -22.5505   22.3210 N   0  0  0  0  0  0  0  0  0  0  0  0
   10.8289  -21.0884   22.5401 N   0  0  0  0  0  0  0  0  0  0  0  0
   10.1327  -20.1993   23.3914 C   0  0  0  0  0  0  0  0  0  0  0  0
   10.7396  -18.8209   23.5059 C   0  0  0  0  0  0  0  0  0  0  0  0
   10.5246  -18.0719   22.2101 C   0  0  0  0  0  0  0  0  0  0  0  0
    9.6007  -16.8875   22.3336 C   0  0  2  0  0  0  0  0  0  0  0  0
    9.2950  -16.1717   21.1542 N   0  0  0  0  0  0  0  0  0  0  0  0
   10.0553  -16.0107   23.4115 C   0  0  0  0  0  0  0  0  0  0  0  0
   11.0032  -15.1682   23.2459 O   0  0  0  0  0  0  0  0  0  0  0  0
   12.8390  -21.9063   21.5358 C   0  0  0  0  0  0  0  0  0  0  0  0
    5.7961  -12.0045   27.4273 S   0  0  0  0  0  0  0  0  0  0  0  0
    7.4983  -12.2271   26.9525 C   0  0  0  0  0  0  0  0  0  0  0  0
    7.8353  -13.6754   25.9927 C   0  0  0  0  0  0  0  0  0  0  0  0
    9.2474  -13.8562   25.5620 C   0  0  1  0  0  0  0  0  0  0  0  0
    9.7878  -15.2179   25.7648 N   0  0  0  0  0  0  0  0  0  0  0  0
    9.4037  -16.1233   24.6712 C   0  0  0  0  0  0  0  0  0  0  0  0
    9.3046  -15.8881   27.0040 O   0  0  0  0  0  0  0  0  0  0  0  0
    9.5625  -15.3358   28.1089 O   0  0  0  0  0  0  0  0  0  0  0  0
  2  3  1  6
  2  1  1  0
  4  2  1  0
  4  5  1  1
  6  4  1  0
  6  7  2  0
  9  8  1  0
 10  9  2  0
 11  9  1  0
 12 11  1  0
 13 14  1  0
 13 12  1  0
 15 16  1  0
 15 14  1  6
 16  6  1  0
 17 15  1  0
 18 17  2  0
 19 20  1  0
 20 21  1  0
 23 22  1  6
 22 21  1  0
 23 24  1  0
 24 17  1  0
 25 23  1  0
 25 27  1  0
 26 25  2  0
M  END
$$$$
