VRM.pdb
     RDKit          3D

 27 26  0  0  1  0  0  0  0  0999 V2000
    7.9155  -12.0426   18.1286 C   0  0  0  0  0  0  0  0  0  0  0  0
    7.7273  -13.0866   19.1947 C   0  0  1  0  0  0  0  0  0  0  0  0
    7.2885  -14.3736   18.4942 C   0  0  0  0  0  0  0  0  0  0  0  0
    9.0089  -13.3956   19.9061 C   0  0  2  0  0  0  0  0  0  0  0  0
    9.9881  -13.9134   18.9196 N   0  0  0  0  0  0  0  0  0  0  0  0
    8.9168  -14.4138   20.9691 C   0  0  0  0  0  0  0  0  0  0  0  0
    8.1028  -14.1682   21.9103 O   0  0  0  0  0  0  0  0  0  0  0  0
    9.1630  -22.2023   20.2302 N   0  0  0  0  0  0  0  0  0  0  0  0
    9.9447  -21.7236   19.1492 C   0  0  0  0  0  0  0  0  0  0  0  0
    9.9803  -22.3909   18.0079 N   0  0  0  0  0  0  0  0  0  0  0  0
   10.7185  -20.5472   19.1988 N   0  0  0  0  0  0  0  0  0  0  0  0
   10.9285  -19.7886   20.3736 C   0  0  0  0  0  0  0  0  0  0  0  0
   10.0006  -18.6089   20.5443 C   0  0  0  0  0  0  0  0  0  0  0  0
   10.3485  -17.8815   21.8235 C   0  0  0  0  0  0  0  0  0  0  0  0
    9.5506  -16.6229   22.0484 C   0  0  2  0  0  0  0  0  0  0  0  0
    9.6217  -15.6185   21.0570 N   0  0  0  0  0  0  0  0  0  0  0  0
    9.8130  -16.0987   23.3878 C   0  0  0  0  0  0  0  0  0  0  0  0
   10.8712  -15.4343   23.6604 O   0  0  0  0  0  0  0  0  0  0  0  0
   10.6571  -22.0177   17.3106 C   0  0  0  0  0  0  0  0  0  0  0  0
    7.0917  -10.9750   26.7995 S   0  0  0  0  0  0  0  0  0  0  0  0
    6.5100  -12.6179   27.1669 C   0  0  0  0  0  0  0  0  0  0  0  0
    7.7296  -13.8962   27.0608 C   0  0  0  0  0  0  0  0  0  0  0  0
    7.7849  -14.6370   25.7723 C   0  0  1  0  0  0  0  0  0  0  0  0
    8.9007  -15.6010   25.6589 N   0  0  0  0  0  0  0  0  0  0  0  0
    8.8425  -16.3535   24.3965 C   0  0  0  0  0  0  0  0  0  0  0  0
    8.9187  -16.6418   26.7242 O   0  0  0  0  0  0  0  0  0  0  0  0
    8.5659  -17.8114   26.4083 O   0  0  0  0  0  0  0  0  0  0  0  0
  2  3  1  6
  2  1  1  0
  4  2  1  0
  4  5  1  6
  6  4  1  0
  6  7  2  0
  9  8  1  0
 10  9  2  0
 11  9  1  0
 12 11  1  0
 13 14  1  0
 13 12  1  0
 15 16  1  0
 15 14  1  6
 16  6  1  0
 17 15  1  0
 18 17  2  0
 19 20  1  0
 20 21  1  0
 23 22  1  6
 22 21  1  0
 23 24  1  0
 24 17  1  0
 25 23  1  0
 25 27  1  0
 26 25  2  0
M  END
$$$$
