VRM.pdb
     RDKit          3D

 27 26  0  0  1  0  0  0  0  0999 V2000
    7.6977  -12.5370   17.8011 C   0  0  0  0  0  0  0  0  0  0  0  0
    7.5289  -13.3229   19.0722 C   0  0  1  0  0  0  0  0  0  0  0  0
    6.7163  -14.5718   18.7266 C   0  0  0  0  0  0  0  0  0  0  0  0
    8.8425  -13.7968   19.6145 C   0  0  2  0  0  0  0  0  0  0  0  0
    9.5208  -14.6099   18.5758 N   0  0  0  0  0  0  0  0  0  0  0  0
    8.7649  -14.6463   20.8176 C   0  0  0  0  0  0  0  0  0  0  0  0
    8.1936  -14.1347   21.8279 O   0  0  0  0  0  0  0  0  0  0  0  0
   12.3703  -22.6347   23.0147 N   0  0  0  0  0  0  0  0  0  0  0  0
   11.9172  -21.9689   24.1810 C   0  0  0  0  0  0  0  0  0  0  0  0
   12.1922  -22.4619   25.3770 N   0  0  0  0  0  0  0  0  0  0  0  0
   11.1656  -20.7773   24.1642 N   0  0  0  0  0  0  0  0  0  0  0  0
   10.4814  -20.2906   23.0264 C   0  0  0  0  0  0  0  0  0  0  0  0
    9.7423  -18.9901   23.2356 C   0  0  0  0  0  0  0  0  0  0  0  0
    9.9516  -18.0980   22.0328 C   0  0  0  0  0  0  0  0  0  0  0  0
    9.2286  -16.7783   22.1161 C   0  0  2  0  0  0  0  0  0  0  0  0
    9.2464  -15.9502   20.9712 N   0  0  0  0  0  0  0  0  0  0  0  0
    9.6353  -16.0621   23.3240 C   0  0  0  0  0  0  0  0  0  0  0  0
   10.7289  -15.4019   23.3848 O   0  0  0  0  0  0  0  0  0  0  0  0
   11.8067  -21.9095   26.1706 C   0  0  0  0  0  0  0  0  0  0  0  0
    6.4595  -11.0192   28.2180 S   0  0  0  0  0  0  0  0  0  0  0  0
    6.4517  -12.1089   26.8091 C   0  0  0  0  0  0  0  0  0  0  0  0
    7.7786  -13.2786   26.7470 C   0  0  0  0  0  0  0  0  0  0  0  0
    7.7975  -14.1784   25.5629 C   0  0  1  0  0  0  0  0  0  0  0  0
    8.9214  -15.1391   25.5323 N   0  0  0  0  0  0  0  0  0  0  0  0
    8.7667  -16.1222   24.4492 C   0  0  0  0  0  0  0  0  0  0  0  0
    9.0619  -15.9538   26.7712 O   0  0  0  0  0  0  0  0  0  0  0  0
    9.2289  -15.3405   27.8613 O   0  0  0  0  0  0  0  0  0  0  0  0
  2  3  1  6
  2  1  1  0
  4  2  1  0
  4  5  1  6
  6  4  1  0
  6  7  2  0
  9  8  1  0
 10  9  2  0
 11  9  1  0
 12 11  1  0
 13 14  1  0
 13 12  1  0
 15 16  1  0
 15 14  1  6
 16  6  1  0
 17 15  1  0
 18 17  2  0
 19 20  1  0
 20 21  1  0
 23 22  1  6
 22 21  1  0
 23 24  1  0
 24 17  1  0
 25 23  1  0
 25 27  1  0
 26 25  2  0
M  END
$$$$
