VRM.pdb
     RDKit          3D

 27 26  0  0  1  0  0  0  0  0999 V2000
    8.7014  -12.4352   18.0342 C   0  0  0  0  0  0  0  0  0  0  0  0
    8.7607  -13.2050   19.3249 C   0  0  1  0  0  0  0  0  0  0  0  0
    7.6844  -12.6272   20.2453 C   0  0  0  0  0  0  0  0  0  0  0  0
    8.4305  -14.6527   19.1273 C   0  0  2  0  0  0  0  0  0  0  0  0
    7.2804  -14.7560   18.1964 N   0  0  0  0  0  0  0  0  0  0  0  0
    8.0426  -15.3887   20.3452 C   0  0  0  0  0  0  0  0  0  0  0  0
    6.9638  -15.0207   20.9016 O   0  0  0  0  0  0  0  0  0  0  0  0
    6.1211  -20.2622   24.9044 N   0  0  0  0  0  0  0  0  0  0  0  0
    7.1411  -21.1602   25.3068 C   0  0  0  0  0  0  0  0  0  0  0  0
    7.1122  -21.7016   26.5131 N   0  0  0  0  0  0  0  0  0  0  0  0
    8.2269  -21.5336   24.4903 N   0  0  0  0  0  0  0  0  0  0  0  0
    8.7429  -20.7316   23.4462 C   0  0  0  0  0  0  0  0  0  0  0  0
    8.2998  -19.2878   23.4738 C   0  0  0  0  0  0  0  0  0  0  0  0
    8.8327  -18.5789   22.2490 C   0  0  0  0  0  0  0  0  0  0  0  0
    8.4213  -17.1322   22.1516 C   0  0  2  0  0  0  0  0  0  0  0  0
    8.7260  -16.4457   20.9547 N   0  0  0  0  0  0  0  0  0  0  0  0
    8.8711  -16.4049   23.3373 C   0  0  0  0  0  0  0  0  0  0  0  0
   10.0361  -15.8824   23.4106 O   0  0  0  0  0  0  0  0  0  0  0  0
    7.9077  -22.3408   26.7185 C   0  0  0  0  0  0  0  0  0  0  0  0
    6.8624  -10.7716   26.3461 S   0  0  0  0  0  0  0  0  0  0  0  0
    6.4577  -12.2225   27.2967 C   0  0  0  0  0  0  0  0  0  0  0  0
    7.5358  -13.6069   27.0647 C   0  0  0  0  0  0  0  0  0  0  0  0
    7.3144  -14.4037   25.8285 C   0  0  1  0  0  0  0  0  0  0  0  0
    8.3212  -15.4587   25.5824 N   0  0  0  0  0  0  0  0  0  0  0  0
    7.9619  -16.2935   24.4259 C   0  0  0  0  0  0  0  0  0  0  0  0
    8.4882  -16.4178   26.7095 O   0  0  0  0  0  0  0  0  0  0  0  0
    7.8308  -17.4941   26.6669 O   0  0  0  0  0  0  0  0  0  0  0  0
  2  3  1  1
  2  1  1  0
  4  2  1  0
  4  5  1  6
  6  4  1  0
  6  7  2  0
  9  8  1  0
 10  9  2  0
 11  9  1  0
 12 11  1  0
 13 14  1  0
 13 12  1  0
 15 16  1  0
 15 14  1  6
 16  6  1  0
 17 15  1  0
 18 17  2  0
 19 20  1  0
 20 21  1  0
 23 22  1  6
 22 21  1  0
 23 24  1  0
 24 17  1  0
 25 23  1  0
 25 27  1  0
 26 25  2  0
M  END
$$$$
