VRM.pdb
     RDKit          3D

 27 26  0  0  1  0  0  0  0  0999 V2000
   10.3711  -23.2936   21.7646 C   0  0  0  0  0  0  0  0  0  0  0  0
   10.7303  -21.8996   21.3289 C   0  0  1  0  0  0  0  0  0  0  0  0
    9.7924  -21.5301   20.1785 C   0  0  0  0  0  0  0  0  0  0  0  0
   10.4972  -20.8969   22.4172 C   0  0  2  0  0  0  0  0  0  0  0  0
    9.1263  -21.0842   22.9516 N   0  0  0  0  0  0  0  0  0  0  0  0
   10.5912  -19.4825   22.0099 C   0  0  0  0  0  0  0  0  0  0  0  0
   11.7419  -19.0746   21.6656 O   0  0  0  0  0  0  0  0  0  0  0  0
    8.6717  -12.7128   17.3285 N   0  0  0  0  0  0  0  0  0  0  0  0
    8.1511  -12.8823   18.6357 C   0  0  0  0  0  0  0  0  0  0  0  0
    8.4696  -12.0284   19.5940 N   0  0  0  0  0  0  0  0  0  0  0  0
    7.2885  -13.9322   19.0084 N   0  0  0  0  0  0  0  0  0  0  0  0
    7.2289  -14.4815   20.3101 C   0  0  0  0  0  0  0  0  0  0  0  0
    8.5363  -15.0308   20.8300 C   0  0  0  0  0  0  0  0  0  0  0  0
    8.3736  -16.5033   21.1330 C   0  0  0  0  0  0  0  0  0  0  0  0
    9.6229  -17.1617   21.6595 C   0  0  2  0  0  0  0  0  0  0  0  0
    9.5581  -18.5414   21.9578 N   0  0  0  0  0  0  0  0  0  0  0  0
   10.1692  -16.3804   22.7678 C   0  0  0  0  0  0  0  0  0  0  0  0
   10.5558  -15.1705   22.6185 O   0  0  0  0  0  0  0  0  0  0  0  0
    8.2122  -12.3403   20.5533 C   0  0  0  0  0  0  0  0  0  0  0  0
    9.5306  -12.3689   28.4900 S   0  0  0  0  0  0  0  0  0  0  0  0
    8.8452  -13.9076   27.9109 C   0  0  0  0  0  0  0  0  0  0  0  0
   10.0205  -15.0751   27.2877 C   0  0  0  0  0  0  0  0  0  0  0  0
    9.6145  -15.8166   26.0640 C   0  0  1  0  0  0  0  0  0  0  0  0
   10.7344  -16.2417   25.1967 N   0  0  0  0  0  0  0  0  0  0  0  0
   10.2614  -17.0145   24.0381 C   0  0  0  0  0  0  0  0  0  0  0  0
   11.7249  -17.1278   25.8691 O   0  0  0  0  0  0  0  0  0  0  0  0
   12.2847  -16.6957   26.9142 O   0  0  0  0  0  0  0  0  0  0  0  0
  2  3  1  6
  2  1  1  0
  4  2  1  0
  4  5  1  6
  6  4  1  0
  6  7  2  0
  9  8  1  0
 10  9  2  0
 11  9  1  0
 12 11  1  0
 13 14  1  0
 13 12  1  0
 15 16  1  0
 15 14  1  1
 16  6  1  0
 17 15  1  0
 18 17  2  0
 19 20  1  0
 20 21  1  0
 23 22  1  6
 22 21  1  0
 23 24  1  0
 24 17  1  0
 25 23  1  0
 25 27  1  0
 26 25  2  0
M  END
$$$$
