IRM.pdb
     RDKit          3D

 28 27  0  0  1  0  0  0  0  0999 V2000
    6.1008  -11.1562   26.8070 C   0  0  0  0  0  0  0  0  0  0  0  0
    5.5763  -12.4772   26.3220 C   0  0  0  0  0  0  0  0  0  0  0  0
    6.7432  -13.3191   25.7636 C   0  0  2  0  0  0  0  0  0  0  0  0
    7.2390  -12.4958   24.5794 C   0  0  0  0  0  0  0  0  0  0  0  0
    6.2082  -14.6394   25.3248 C   0  0  2  0  0  0  0  0  0  0  0  0
    5.2137  -15.0305   26.3349 N   0  0  0  0  0  0  0  0  0  0  0  0
    7.1584  -15.7305   25.1803 C   0  0  0  0  0  0  0  0  0  0  0  0
    6.7302  -16.9345   25.0342 O   0  0  0  0  0  0  0  0  0  0  0  0
   13.5240  -15.6109   19.8383 N   0  0  0  0  0  0  0  0  0  0  0  0
   12.2826  -15.2718   19.2248 C   0  0  0  0  0  0  0  0  0  0  0  0
   12.2823  -14.2683   18.4152 N   0  0  0  0  0  0  0  0  0  0  0  0
   11.0767  -15.9840   19.4688 N   0  0  0  0  0  0  0  0  0  0  0  0
   10.0157  -15.4095   20.3239 C   0  0  0  0  0  0  0  0  0  0  0  0
   10.1797  -15.9043   21.6952 C   0  0  0  0  0  0  0  0  0  0  0  0
    9.2378  -15.5105   22.7583 C   0  0  0  0  0  0  0  0  0  0  0  0
    9.4501  -16.0547   24.1290 C   0  0  2  0  0  0  0  0  0  0  0  0
    8.5812  -15.6579   25.1746 N   0  0  0  0  0  0  0  0  0  0  0  0
   10.8855  -16.0073   24.4748 C   0  0  0  0  0  0  0  0  0  0  0  0
   11.4606  -14.8643   24.4364 O   0  0  0  0  0  0  0  0  0  0  0  0
   11.4160  -13.7759   18.1171 C   0  0  0  0  0  0  0  0  0  0  0  0
    8.7893  -14.6710   28.4529 S   0  0  0  0  0  0  0  0  0  0  0  0
   10.5404  -14.4815   28.9977 C   0  0  0  0  0  0  0  0  0  0  0  0
   11.4995  -15.8210   28.3477 C   0  0  0  0  0  0  0  0  0  0  0  0
   11.4692  -16.0551   26.9167 C   0  0  1  0  0  0  0  0  0  0  0  0
   12.2793  -17.0822   26.2147 N   0  0  0  0  0  0  0  0  0  0  0  0
   11.6501  -17.1130   24.8379 C   0  0  0  0  0  0  0  0  0  0  0  0
   11.9689  -18.4939   26.7043 O   0  0  0  0  0  0  0  0  0  0  0  0
   11.0405  -19.1958   26.3257 O   0  0  0  0  0  0  0  0  0  0  0  0
  1  2  1  0
  2  3  1  0
  3  5  1  0
  3  4  1  6
  5  7  1  0
  5  6  1  1
  7  8  2  0
 10 12  1  0
 10  9  1  0
 11 10  2  0
 13 12  1  0
 13 14  1  0
 15 14  1  0
 16 15  1  6
 17 16  1  0
 17  7  1  0
 18 25  1  0
 18 16  1  0
 19 18  2  0
 20 21  1  0
 21 22  1  0
 22 23  1  0
 24 23  1  6
 24 25  1  0
 24 26  1  0
 26 28  1  0
 27 26  2  0
M  END
$$$$
