IRM.pdb
     RDKit          3D

 28 27  0  0  1  0  0  0  0  0999 V2000
    6.0456  -10.8464   26.6601 C   0  0  0  0  0  0  0  0  0  0  0  0
    5.5579  -12.1660   26.1343 C   0  0  0  0  0  0  0  0  0  0  0  0
    6.7646  -13.0175   25.6861 C   0  0  2  0  0  0  0  0  0  0  0  0
    7.2701  -12.2898   24.4448 C   0  0  0  0  0  0  0  0  0  0  0  0
    6.2815  -14.3885   25.3563 C   0  0  2  0  0  0  0  0  0  0  0  0
    5.6395  -14.8974   26.5775 N   0  0  0  0  0  0  0  0  0  0  0  0
    7.2738  -15.3615   24.9285 C   0  0  0  0  0  0  0  0  0  0  0  0
    7.9976  -15.9625   25.8056 O   0  0  0  0  0  0  0  0  0  0  0  0
    8.0747  -14.6612   17.2587 N   0  0  0  0  0  0  0  0  0  0  0  0
    8.7300  -13.7792   18.1670 C   0  0  0  0  0  0  0  0  0  0  0  0
    8.6309  -12.5151   17.9330 N   0  0  0  0  0  0  0  0  0  0  0  0
    9.4694  -14.2342   19.2927 N   0  0  0  0  0  0  0  0  0  0  0  0
    9.4811  -15.6654   19.6650 C   0  0  0  0  0  0  0  0  0  0  0  0
    8.5574  -15.8809   20.7841 C   0  0  0  0  0  0  0  0  0  0  0  0
    8.7842  -16.9690   21.7521 C   0  0  0  0  0  0  0  0  0  0  0  0
    8.5950  -16.6777   23.2011 C   0  0  2  0  0  0  0  0  0  0  0  0
    7.5803  -15.7738   23.5997 N   0  0  0  0  0  0  0  0  0  0  0  0
    9.9045  -16.4512   23.8463 C   0  0  0  0  0  0  0  0  0  0  0  0
   10.3371  -15.2472   23.8883 O   0  0  0  0  0  0  0  0  0  0  0  0
    9.0515  -11.7868   18.5449 C   0  0  0  0  0  0  0  0  0  0  0  0
    9.6722  -14.0384   28.3221 S   0  0  0  0  0  0  0  0  0  0  0  0
   11.2512  -14.8893   28.7487 C   0  0  0  0  0  0  0  0  0  0  0  0
   11.3008  -16.4630   27.9376 C   0  0  0  0  0  0  0  0  0  0  0  0
   10.8705  -16.5356   26.5545 C   0  0  1  0  0  0  0  0  0  0  0  0
   11.7190  -17.0118   25.4332 N   0  0  0  0  0  0  0  0  0  0  0  0
   10.6944  -17.4506   24.4086 C   0  0  0  0  0  0  0  0  0  0  0  0
   12.3976  -18.3417   25.7491 O   0  0  0  0  0  0  0  0  0  0  0  0
   11.9317  -19.4528   25.5342 O   0  0  0  0  0  0  0  0  0  0  0  0
  1  2  1  0
  2  3  1  0
  3  5  1  0
  3  4  1  6
  5  7  1  0
  5  6  1  1
  7  8  2  0
 10 12  1  0
 10  9  1  0
 11 10  2  0
 13 12  1  0
 13 14  1  0
 15 14  1  0
 16 15  1  6
 17 16  1  0
 17  7  1  0
 18 25  1  0
 18 16  1  0
 19 18  2  0
 20 21  1  0
 21 22  1  0
 22 23  1  0
 24 23  1  6
 24 25  1  0
 24 26  1  0
 26 28  1  0
 27 26  2  0
M  END
$$$$
