IRM.pdb
     RDKit          3D

 28 27  0  0  1  0  0  0  0  0999 V2000
    7.3708  -11.7149   18.5720 C   0  0  0  0  0  0  0  0  0  0  0  0
    7.9289  -13.0847   18.3117 C   0  0  0  0  0  0  0  0  0  0  0  0
    8.0368  -13.8566   19.6439 C   0  0  2  0  0  0  0  0  0  0  0  0
    9.0934  -13.0775   20.4201 C   0  0  0  0  0  0  0  0  0  0  0  0
    8.4886  -15.2467   19.3515 C   0  0  2  0  0  0  0  0  0  0  0  0
    7.4755  -15.8227   18.4548 N   0  0  0  0  0  0  0  0  0  0  0  0
    8.6556  -16.1464   20.4816 C   0  0  0  0  0  0  0  0  0  0  0  0
    7.6319  -16.4896   21.1805 O   0  0  0  0  0  0  0  0  0  0  0  0
   12.8756  -18.2311   18.7214 N   0  0  0  0  0  0  0  0  0  0  0  0
   12.9802  -19.6502   18.6339 C   0  0  0  0  0  0  0  0  0  0  0  0
   12.9879  -20.1668   17.4524 N   0  0  0  0  0  0  0  0  0  0  0  0
   13.0740  -20.4929   19.7748 N   0  0  0  0  0  0  0  0  0  0  0  0
   12.8126  -19.9654   21.1315 C   0  0  0  0  0  0  0  0  0  0  0  0
   11.6571  -19.0627   21.0844 C   0  0  0  0  0  0  0  0  0  0  0  0
   11.1595  -18.4081   22.3076 C   0  0  0  0  0  0  0  0  0  0  0  0
   10.0443  -17.4280   22.1819 C   0  0  2  0  0  0  0  0  0  0  0  0
    9.8595  -16.7414   20.9571 N   0  0  0  0  0  0  0  0  0  0  0  0
    9.9912  -16.5663   23.3806 C   0  0  0  0  0  0  0  0  0  0  0  0
   10.8249  -15.5969   23.4433 O   0  0  0  0  0  0  0  0  0  0  0  0
   13.0503  -21.1902   17.2776 C   0  0  0  0  0  0  0  0  0  0  0  0
    6.8268  -11.4268   27.5404 S   0  0  0  0  0  0  0  0  0  0  0  0
    7.3154  -12.3893   26.0457 C   0  0  0  0  0  0  0  0  0  0  0  0
    7.3255  -14.1151   26.4434 C   0  0  0  0  0  0  0  0  0  0  0  0
    7.8494  -15.0427   25.4592 C   0  0  1  0  0  0  0  0  0  0  0  0
    9.1708  -15.7126   25.5539 N   0  0  0  0  0  0  0  0  0  0  0  0
    9.1022  -16.7347   24.4390 C   0  0  0  0  0  0  0  0  0  0  0  0
    9.2681  -16.6242   26.7740 O   0  0  0  0  0  0  0  0  0  0  0  0
    9.4313  -16.2585   27.9305 O   0  0  0  0  0  0  0  0  0  0  0  0
  1  2  1  0
  2  3  1  0
  3  5  1  0
  3  4  1  1
  5  7  1  0
  5  6  1  6
  7  8  2  0
 10 12  1  0
 10  9  1  0
 11 10  2  0
 13 12  1  0
 13 14  1  0
 15 14  1  0
 16 15  1  6
 17 16  1  0
 17  7  1  0
 18 25  1  0
 18 16  1  0
 19 18  2  0
 20 21  1  0
 21 22  1  0
 22 23  1  0
 24 23  1  6
 24 25  1  0
 24 26  1  0
 26 28  1  0
 27 26  2  0
M  END
$$$$
