IRM.pdb
     RDKit          3D

 28 27  0  0  1  0  0  0  0  0999 V2000
    7.5997  -11.2072   26.3983 C   0  0  0  0  0  0  0  0  0  0  0  0
    7.2802  -12.6746   26.3990 C   0  0  0  0  0  0  0  0  0  0  0  0
    6.3422  -12.9963   25.2162 C   0  0  2  0  0  0  0  0  0  0  0  0
    5.0103  -12.3896   25.6453 C   0  0  0  0  0  0  0  0  0  0  0  0
    6.2472  -14.4771   25.0751 C   0  0  2  0  0  0  0  0  0  0  0  0
    5.9416  -14.9941   26.4174 N   0  0  0  0  0  0  0  0  0  0  0  0
    7.4205  -15.1773   24.5776 C   0  0  0  0  0  0  0  0  0  0  0  0
    8.0740  -15.9626   25.3591 O   0  0  0  0  0  0  0  0  0  0  0  0
    8.6143  -12.3954   18.0796 N   0  0  0  0  0  0  0  0  0  0  0  0
    8.3324  -13.7062   17.5951 C   0  0  0  0  0  0  0  0  0  0  0  0
    7.4014  -13.8176   16.7098 N   0  0  0  0  0  0  0  0  0  0  0  0
    9.0248  -14.8642   18.0427 N   0  0  0  0  0  0  0  0  0  0  0  0
    8.4592  -15.7233   19.1054 C   0  0  0  0  0  0  0  0  0  0  0  0
    8.6480  -15.0707   20.4056 C   0  0  0  0  0  0  0  0  0  0  0  0
    9.5801  -15.6278   21.4023 C   0  0  0  0  0  0  0  0  0  0  0  0
    9.0732  -15.8835   22.7798 C   0  0  2  0  0  0  0  0  0  0  0  0
    7.9868  -15.1195   23.2716 N   0  0  0  0  0  0  0  0  0  0  0  0
   10.2058  -16.0123   23.7194 C   0  0  0  0  0  0  0  0  0  0  0  0
   10.8870  -14.9567   23.9650 O   0  0  0  0  0  0  0  0  0  0  0  0
    7.0683  -14.7325   16.3442 C   0  0  0  0  0  0  0  0  0  0  0  0
   10.0964  -13.7803   28.6601 S   0  0  0  0  0  0  0  0  0  0  0  0
   11.4259  -15.0575   28.6440 C   0  0  0  0  0  0  0  0  0  0  0  0
   10.7567  -16.5855   28.0487 C   0  0  0  0  0  0  0  0  0  0  0  0
   10.4543  -16.6971   26.6347 C   0  0  1  0  0  0  0  0  0  0  0  0
   11.4432  -17.0608   25.5888 N   0  0  0  0  0  0  0  0  0  0  0  0
   10.5800  -17.1949   24.3522 C   0  0  0  0  0  0  0  0  0  0  0  0
   11.9462  -18.4931   25.7451 O   0  0  0  0  0  0  0  0  0  0  0  0
   11.3625  -19.5023   25.3728 O   0  0  0  0  0  0  0  0  0  0  0  0
  1  2  1  0
  2  3  1  0
  3  5  1  0
  3  4  1  1
  5  7  1  0
  5  6  1  1
  7  8  2  0
 10 12  1  0
 10  9  1  0
 11 10  2  0
 13 12  1  0
 13 14  1  0
 15 14  1  0
 16 15  1  6
 17 16  1  0
 17  7  1  0
 18 25  1  0
 18 16  1  0
 19 18  2  0
 20 21  1  0
 21 22  1  0
 22 23  1  0
 24 23  1  6
 24 25  1  0
 24 26  1  0
 26 28  1  0
 27 26  2  0
M  END
$$$$
