IRM.pdb
     RDKit          3D

 28 27  0  0  1  0  0  0  0  0999 V2000
    5.6745  -11.9008   27.9200 C   0  0  0  0  0  0  0  0  0  0  0  0
    5.4299  -13.3373   27.5564 C   0  0  0  0  0  0  0  0  0  0  0  0
    6.5489  -13.8255   26.6122 C   0  0  2  0  0  0  0  0  0  0  0  0
    6.6571  -12.7057   25.5824 C   0  0  0  0  0  0  0  0  0  0  0  0
    6.1145  -15.1052   25.9835 C   0  0  2  0  0  0  0  0  0  0  0  0
    6.1267  -16.1098   27.0573 N   0  0  0  0  0  0  0  0  0  0  0  0
    6.9147  -15.6131   24.8806 C   0  0  0  0  0  0  0  0  0  0  0  0
    7.8823  -16.4270   25.1162 O   0  0  0  0  0  0  0  0  0  0  0  0
   10.9799  -13.9668   18.7416 N   0  0  0  0  0  0  0  0  0  0  0  0
    9.8795  -13.1153   18.4311 C   0  0  0  0  0  0  0  0  0  0  0  0
   10.1426  -11.8723   18.2108 N   0  0  0  0  0  0  0  0  0  0  0  0
    8.5373  -13.5778   18.3576 N   0  0  0  0  0  0  0  0  0  0  0  0
    8.2041  -14.9892   18.6476 C   0  0  0  0  0  0  0  0  0  0  0  0
    8.4876  -15.2723   20.0588 C   0  0  0  0  0  0  0  0  0  0  0  0
    7.4578  -15.0650   21.0927 C   0  0  0  0  0  0  0  0  0  0  0  0
    7.7420  -15.5333   22.4783 C   0  0  2  0  0  0  0  0  0  0  0  0
    6.7753  -15.3256   23.4922 N   0  0  0  0  0  0  0  0  0  0  0  0
    9.1206  -15.1672   22.8628 C   0  0  0  0  0  0  0  0  0  0  0  0
    9.3585  -13.9289   23.0836 O   0  0  0  0  0  0  0  0  0  0  0  0
    9.4152  -11.1693   17.9690 C   0  0  0  0  0  0  0  0  0  0  0  0
    9.9782  -13.2547   27.7573 S   0  0  0  0  0  0  0  0  0  0  0  0
   10.6205  -14.9756   27.9158 C   0  0  0  0  0  0  0  0  0  0  0  0
   11.4895  -15.4103   26.4350 C   0  0  0  0  0  0  0  0  0  0  0  0
   10.7357  -15.5020   25.1993 C   0  0  1  0  0  0  0  0  0  0  0  0
   11.3431  -15.6256   23.8503 N   0  0  0  0  0  0  0  0  0  0  0  0
   10.1712  -16.0705   23.0012 C   0  0  0  0  0  0  0  0  0  0  0  0
   12.2569  -16.8429   23.7396 O   0  0  0  0  0  0  0  0  0  0  0  0
   11.9387  -17.9403   23.3012 O   0  0  0  0  0  0  0  0  0  0  0  0
  1  2  1  0
  2  3  1  0
  3  5  1  0
  3  4  1  6
  5  7  1  0
  5  6  1  1
  7  8  2  0
 10 12  1  0
 10  9  1  0
 11 10  2  0
 13 12  1  0
 13 14  1  0
 15 14  1  0
 16 15  1  6
 17 16  1  0
 17  7  1  0
 18 25  1  0
 18 16  1  0
 19 18  2  0
 20 21  1  0
 21 22  1  0
 22 23  1  0
 24 23  1  6
 24 25  1  0
 24 26  1  0
 26 28  1  0
 27 26  2  0
M  END
$$$$
