IRM.pdb
     RDKit          3D

 28 27  0  0  1  0  0  0  0  0999 V2000
    6.0959  -11.1479   27.2266 C   0  0  0  0  0  0  0  0  0  0  0  0
    5.5320  -12.2603   26.3897 C   0  0  0  0  0  0  0  0  0  0  0  0
    6.6807  -13.1676   25.9005 C   0  0  2  0  0  0  0  0  0  0  0  0
    7.5352  -12.2311   25.0526 C   0  0  0  0  0  0  0  0  0  0  0  0
    6.0995  -14.2685   25.0808 C   0  0  2  0  0  0  0  0  0  0  0  0
    5.2383  -15.0401   25.9893 N   0  0  0  0  0  0  0  0  0  0  0  0
    7.0278  -15.1906   24.4464 C   0  0  0  0  0  0  0  0  0  0  0  0
    7.6177  -16.0890   25.1530 O   0  0  0  0  0  0  0  0  0  0  0  0
   11.8733  -19.1803   19.4871 N   0  0  0  0  0  0  0  0  0  0  0  0
   10.6242  -19.5665   18.9188 C   0  0  0  0  0  0  0  0  0  0  0  0
   10.4934  -20.8017   18.5723 N   0  0  0  0  0  0  0  0  0  0  0  0
    9.5461  -18.6601   18.7265 N   0  0  0  0  0  0  0  0  0  0  0  0
    9.7058  -17.2186   19.0158 C   0  0  0  0  0  0  0  0  0  0  0  0
    9.6025  -17.0021   20.4631 C   0  0  0  0  0  0  0  0  0  0  0  0
    8.5289  -16.1644   21.0270 C   0  0  0  0  0  0  0  0  0  0  0  0
    8.4469  -16.0214   22.5079 C   0  0  2  0  0  0  0  0  0  0  0  0
    7.4021  -15.2503   23.0731 N   0  0  0  0  0  0  0  0  0  0  0  0
    9.7862  -15.7380   23.0631 C   0  0  0  0  0  0  0  0  0  0  0  0
   10.1545  -14.5129   23.1094 O   0  0  0  0  0  0  0  0  0  0  0  0
    9.6182  -21.1909   18.1667 C   0  0  0  0  0  0  0  0  0  0  0  0
   11.4965  -13.6078   29.3435 S   0  0  0  0  0  0  0  0  0  0  0  0
   10.4995  -14.4801   28.0612 C   0  0  0  0  0  0  0  0  0  0  0  0
   11.5823  -15.0926   26.8005 C   0  0  0  0  0  0  0  0  0  0  0  0
   10.9913  -15.7244   25.6364 C   0  0  2  0  0  0  0  0  0  0  0  0
   11.7607  -16.2299   24.4717 N   0  0  0  0  0  0  0  0  0  0  0  0
   10.6686  -16.7053   23.5371 C   0  0  0  0  0  0  0  0  0  0  0  0
   12.4703  -17.5459   24.7778 O   0  0  0  0  0  0  0  0  0  0  0  0
   11.9734  -18.6620   24.7038 O   0  0  0  0  0  0  0  0  0  0  0  0
  1  2  1  0
  2  3  1  0
  3  5  1  0
  3  4  1  6
  5  7  1  0
  5  6  1  1
  7  8  2  0
 10 12  1  0
 10  9  1  0
 11 10  2  0
 13 12  1  0
 13 14  1  0
 15 14  1  0
 16 15  1  6
 17 16  1  0
 17  7  1  0
 18 25  1  0
 18 16  1  0
 19 18  2  0
 20 21  1  0
 21 22  1  0
 22 23  1  0
 24 23  1  6
 24 25  1  0
 24 26  1  0
 26 28  1  0
 27 26  2  0
M  END
$$$$
