IRM.pdb
     RDKit          3D

 28 27  0  0  1  0  0  0  0  0999 V2000
    5.6575  -11.3332   26.8594 C   0  0  0  0  0  0  0  0  0  0  0  0
    5.3331  -12.6830   26.2863 C   0  0  0  0  0  0  0  0  0  0  0  0
    6.6215  -13.3299   25.7353 C   0  0  2  0  0  0  0  0  0  0  0  0
    7.0342  -12.3912   24.6062 C   0  0  0  0  0  0  0  0  0  0  0  0
    6.2879  -14.6886   25.2210 C   0  0  2  0  0  0  0  0  0  0  0  0
    5.7543  -15.4373   26.3687 N   0  0  0  0  0  0  0  0  0  0  0  0
    7.3693  -15.4661   24.6377 C   0  0  0  0  0  0  0  0  0  0  0  0
    8.1234  -16.1799   25.3967 O   0  0  0  0  0  0  0  0  0  0  0  0
    8.0142  -13.9960   16.8174 N   0  0  0  0  0  0  0  0  0  0  0  0
    8.9502  -14.0616   17.8908 C   0  0  0  0  0  0  0  0  0  0  0  0
    9.4777  -12.9508   18.2789 N   0  0  0  0  0  0  0  0  0  0  0  0
    9.3120  -15.2781   18.5311 N   0  0  0  0  0  0  0  0  0  0  0  0
    8.2877  -16.2863   18.8795 C   0  0  0  0  0  0  0  0  0  0  0  0
    8.0471  -16.2504   20.3262 C   0  0  0  0  0  0  0  0  0  0  0  0
    9.1656  -16.1029   21.2747 C   0  0  0  0  0  0  0  0  0  0  0  0
    8.8766  -16.2139   22.7322 C   0  0  2  0  0  0  0  0  0  0  0  0
    7.7383  -15.5610   23.2649 N   0  0  0  0  0  0  0  0  0  0  0  0
   10.1166  -16.0144   23.5099 C   0  0  0  0  0  0  0  0  0  0  0  0
   10.7799  -14.9416   23.2910 O   0  0  0  0  0  0  0  0  0  0  0  0
   10.1953  -12.8915   19.0294 C   0  0  0  0  0  0  0  0  0  0  0  0
   10.3569  -13.5660   29.0271 S   0  0  0  0  0  0  0  0  0  0  0  0
   10.5736  -15.3879   28.8455 C   0  0  0  0  0  0  0  0  0  0  0  0
   11.8222  -15.7065   27.6304 C   0  0  0  0  0  0  0  0  0  0  0  0
   11.5380  -16.6804   26.5940 C   0  0  2  0  0  0  0  0  0  0  0  0
   11.8909  -16.5125   25.1618 N   0  0  0  0  0  0  0  0  0  0  0  0
   10.6093  -16.9066   24.4587 C   0  0  0  0  0  0  0  0  0  0  0  0
   12.8364  -17.6047   24.6698 O   0  0  0  0  0  0  0  0  0  0  0  0
   14.0274  -17.6951   24.9364 O   0  0  0  0  0  0  0  0  0  0  0  0
  1  2  1  0
  2  3  1  0
  3  5  1  0
  3  4  1  6
  5  7  1  0
  5  6  1  1
  7  8  2  0
 10 12  1  0
 10  9  1  0
 11 10  2  0
 13 12  1  0
 13 14  1  0
 15 14  1  0
 16 15  1  6
 17 16  1  0
 17  7  1  0
 18 25  1  0
 18 16  1  0
 19 18  2  0
 20 21  1  0
 21 22  1  0
 22 23  1  0
 24 23  1  1
 24 25  1  0
 24 26  1  0
 26 28  1  0
 27 26  2  0
M  END
$$$$
