IRM.pdb
     RDKit          3D

 28 27  0  0  1  0  0  0  0  0999 V2000
    7.7630  -11.8196   21.3274 C   0  0  0  0  0  0  0  0  0  0  0  0
    7.4844  -13.2640   21.0248 C   0  0  0  0  0  0  0  0  0  0  0  0
    8.4651  -13.7597   19.9409 C   0  0  2  0  0  0  0  0  0  0  0  0
    8.0857  -12.9345   18.7158 C   0  0  0  0  0  0  0  0  0  0  0  0
    8.2270  -15.2137   19.7148 C   0  0  2  0  0  0  0  0  0  0  0  0
    6.8474  -15.3267   19.2184 N   0  0  0  0  0  0  0  0  0  0  0  0
    8.3695  -16.0997   20.8589 C   0  0  0  0  0  0  0  0  0  0  0  0
    7.3868  -16.2514   21.6748 O   0  0  0  0  0  0  0  0  0  0  0  0
   10.3549  -21.9365   18.1825 N   0  0  0  0  0  0  0  0  0  0  0  0
   11.1111  -21.3996   19.2653 C   0  0  0  0  0  0  0  0  0  0  0  0
   12.0627  -20.5816   18.9685 N   0  0  0  0  0  0  0  0  0  0  0  0
   10.8581  -21.7267   20.6254 N   0  0  0  0  0  0  0  0  0  0  0  0
    9.5433  -21.4460   21.2415 C   0  0  0  0  0  0  0  0  0  0  0  0
    9.3190  -19.9964   21.2618 C   0  0  0  0  0  0  0  0  0  0  0  0
   10.0860  -19.1258   22.1707 C   0  0  0  0  0  0  0  0  0  0  0  0
    9.6271  -17.7209   22.3597 C   0  0  2  0  0  0  0  0  0  0  0  0
    9.5063  -16.8734   21.2314 N   0  0  0  0  0  0  0  0  0  0  0  0
   10.3246  -17.1119   23.5107 C   0  0  0  0  0  0  0  0  0  0  0  0
   11.4907  -16.6275   23.3005 O   0  0  0  0  0  0  0  0  0  0  0  0
   12.7067  -20.1745   19.6765 C   0  0  0  0  0  0  0  0  0  0  0  0
   10.6828  -12.0994   28.2916 S   0  0  0  0  0  0  0  0  0  0  0  0
    9.3497  -13.3716   28.2345 C   0  0  0  0  0  0  0  0  0  0  0  0
   10.0721  -14.9564   27.9128 C   0  0  0  0  0  0  0  0  0  0  0  0
    9.7403  -15.6214   26.6674 C   0  0  1  0  0  0  0  0  0  0  0  0
   10.6976  -16.4145   25.8559 N   0  0  0  0  0  0  0  0  0  0  0  0
    9.8036  -17.0285   24.7994 C   0  0  0  0  0  0  0  0  0  0  0  0
   11.1766  -17.6643   26.5890 O   0  0  0  0  0  0  0  0  0  0  0  0
   12.0403  -17.7001   27.4554 O   0  0  0  0  0  0  0  0  0  0  0  0
  1  2  1  0
  2  3  1  0
  3  5  1  0
  3  4  1  6
  5  7  1  0
  5  6  1  1
  7  8  2  0
 10 12  1  0
 10  9  1  0
 11 10  2  0
 13 12  1  0
 13 14  1  0
 15 14  1  0
 16 15  1  6
 17 16  1  0
 17  7  1  0
 18 25  1  0
 18 16  1  0
 19 18  2  0
 20 21  1  0
 21 22  1  0
 22 23  1  0
 24 23  1  6
 24 25  1  0
 24 26  1  0
 26 28  1  0
 27 26  2  0
M  END
$$$$
