IRM.pdb
     RDKit          3D

 28 27  0  0  1  0  0  0  0  0999 V2000
    5.7608  -11.4089   27.4774 C   0  0  0  0  0  0  0  0  0  0  0  0
    5.3672  -12.5460   26.5787 C   0  0  0  0  0  0  0  0  0  0  0  0
    6.6373  -13.2203   26.0179 C   0  0  2  0  0  0  0  0  0  0  0  0
    7.2978  -12.1113   25.2055 C   0  0  0  0  0  0  0  0  0  0  0  0
    6.2256  -14.3608   25.1510 C   0  0  2  0  0  0  0  0  0  0  0  0
    5.5909  -15.3413   26.0444 N   0  0  0  0  0  0  0  0  0  0  0  0
    7.2697  -15.0415   24.4022 C   0  0  0  0  0  0  0  0  0  0  0  0
    7.7705  -16.1358   24.8562 O   0  0  0  0  0  0  0  0  0  0  0  0
    6.8000  -16.7939   17.7512 N   0  0  0  0  0  0  0  0  0  0  0  0
    7.8731  -16.0622   17.1634 C   0  0  0  0  0  0  0  0  0  0  0  0
    8.3801  -16.5349   16.0760 N   0  0  0  0  0  0  0  0  0  0  0  0
    8.3894  -14.8605   17.7204 N   0  0  0  0  0  0  0  0  0  0  0  0
    7.7904  -14.2690   18.9362 C   0  0  0  0  0  0  0  0  0  0  0  0
    7.9778  -15.1887   20.0636 C   0  0  0  0  0  0  0  0  0  0  0  0
    9.0927  -15.0062   21.0103 C   0  0  0  0  0  0  0  0  0  0  0  0
    8.8643  -15.3382   22.4448 C   0  0  2  0  0  0  0  0  0  0  0  0
    7.8547  -14.6521   23.1629 N   0  0  0  0  0  0  0  0  0  0  0  0
   10.1572  -15.4394   23.1522 C   0  0  0  0  0  0  0  0  0  0  0  0
   10.9403  -14.4288   23.0900 O   0  0  0  0  0  0  0  0  0  0  0  0
    9.1511  -16.0689   15.5563 C   0  0  0  0  0  0  0  0  0  0  0  0
   11.3092  -13.6228   28.2828 S   0  0  0  0  0  0  0  0  0  0  0  0
   10.3094  -15.1690   28.3763 C   0  0  0  0  0  0  0  0  0  0  0  0
   10.7504  -16.2287   27.0275 C   0  0  0  0  0  0  0  0  0  0  0  0
   11.3926  -15.6351   25.8706 C   0  0  1  0  0  0  0  0  0  0  0  0
   11.8526  -16.3951   24.6811 N   0  0  0  0  0  0  0  0  0  0  0  0
   10.5789  -16.5508   23.8774 C   0  0  0  0  0  0  0  0  0  0  0  0
   12.1629  -17.8519   25.0132 O   0  0  0  0  0  0  0  0  0  0  0  0
   11.4125  -18.8026   24.8373 O   0  0  0  0  0  0  0  0  0  0  0  0
  1  2  1  0
  2  3  1  0
  3  5  1  0
  3  4  1  6
  5  7  1  0
  5  6  1  1
  7  8  2  0
 10 12  1  0
 10  9  1  0
 11 10  2  0
 13 12  1  0
 13 14  1  0
 15 14  1  0
 16 15  1  6
 17 16  1  0
 17  7  1  0
 18 25  1  0
 18 16  1  0
 19 18  2  0
 20 21  1  0
 21 22  1  0
 22 23  1  0
 24 23  1  6
 24 25  1  0
 24 26  1  0
 26 28  1  0
 27 26  2  0
M  END
$$$$
