IRM.pdb
     RDKit          3D

 28 27  0  0  1  0  0  0  0  0999 V2000
    5.8451  -11.1184   26.6861 C   0  0  0  0  0  0  0  0  0  0  0  0
    5.4659  -12.3732   25.9533 C   0  0  0  0  0  0  0  0  0  0  0  0
    6.7361  -13.1983   25.6568 C   0  0  2  0  0  0  0  0  0  0  0  0
    7.5075  -12.3210   24.6763 C   0  0  0  0  0  0  0  0  0  0  0  0
    6.3287  -14.4883   25.0310 C   0  0  2  0  0  0  0  0  0  0  0  0
    5.5177  -15.1895   26.0375 N   0  0  0  0  0  0  0  0  0  0  0  0
    7.3885  -15.3857   24.5999 C   0  0  0  0  0  0  0  0  0  0  0  0
    8.0250  -16.0863   25.4707 O   0  0  0  0  0  0  0  0  0  0  0  0
   10.7808  -20.9811   18.9505 N   0  0  0  0  0  0  0  0  0  0  0  0
    9.8789  -19.8857   18.8126 C   0  0  0  0  0  0  0  0  0  0  0  0
    9.4824  -19.5979   17.6199 N   0  0  0  0  0  0  0  0  0  0  0  0
    9.4138  -19.1201   19.9165 N   0  0  0  0  0  0  0  0  0  0  0  0
   10.3218  -18.7607   21.0271 C   0  0  0  0  0  0  0  0  0  0  0  0
   10.4927  -17.3040   21.0591 C   0  0  0  0  0  0  0  0  0  0  0  0
    9.3798  -16.4212   21.4521 C   0  0  0  0  0  0  0  0  0  0  0  0
    8.9900  -16.3711   22.8893 C   0  0  2  0  0  0  0  0  0  0  0  0
    7.8533  -15.6188   23.2735 N   0  0  0  0  0  0  0  0  0  0  0  0
   10.1844  -16.1477   23.7294 C   0  0  0  0  0  0  0  0  0  0  0  0
   11.0085  -15.2450   23.3489 O   0  0  0  0  0  0  0  0  0  0  0  0
    8.8200  -18.8240   17.4100 C   0  0  0  0  0  0  0  0  0  0  0  0
   12.1531  -13.3143   28.2206 S   0  0  0  0  0  0  0  0  0  0  0  0
   10.9000  -14.5515   28.7667 C   0  0  0  0  0  0  0  0  0  0  0  0
   10.5455  -15.6511   27.4243 C   0  0  0  0  0  0  0  0  0  0  0  0
   11.6271  -16.4606   26.8969 C   0  0  2  0  0  0  0  0  0  0  0  0
   11.8741  -16.6971   25.4522 N   0  0  0  0  0  0  0  0  0  0  0  0
   10.4727  -16.8463   24.8989 C   0  0  0  0  0  0  0  0  0  0  0  0
   12.4386  -18.0895   25.1849 O   0  0  0  0  0  0  0  0  0  0  0  0
   11.7914  -19.0732   24.8513 O   0  0  0  0  0  0  0  0  0  0  0  0
  1  2  1  0
  2  3  1  0
  3  5  1  0
  3  4  1  6
  5  7  1  0
  5  6  1  1
  7  8  2  0
 10 12  1  0
 10  9  1  0
 11 10  2  0
 13 12  1  0
 13 14  1  0
 15 14  1  0
 16 15  1  6
 17 16  1  0
 17  7  1  0
 18 25  1  0
 18 16  1  0
 19 18  2  0
 20 21  1  0
 21 22  1  0
 22 23  1  0
 24 23  1  6
 24 25  1  0
 24 26  1  0
 26 28  1  0
 27 26  2  0
M  END
$$$$
