IRM.pdb
     RDKit          3D

 28 27  0  0  1  0  0  0  0  0999 V2000
    5.6119  -11.6769   28.0432 C   0  0  0  0  0  0  0  0  0  0  0  0
    5.2252  -12.9034   27.2674 C   0  0  0  0  0  0  0  0  0  0  0  0
    6.4407  -13.4031   26.4580 C   0  0  2  0  0  0  0  0  0  0  0  0
    6.7919  -12.2110   25.5739 C   0  0  0  0  0  0  0  0  0  0  0  0
    6.0185  -14.5795   25.6457 C   0  0  2  0  0  0  0  0  0  0  0  0
    5.9021  -15.7026   26.5877 N   0  0  0  0  0  0  0  0  0  0  0  0
    6.8937  -14.9898   24.5594 C   0  0  0  0  0  0  0  0  0  0  0  0
    7.8727  -15.7897   24.7962 O   0  0  0  0  0  0  0  0  0  0  0  0
    7.9799  -15.4474   16.8450 N   0  0  0  0  0  0  0  0  0  0  0  0
    9.3049  -14.9212   16.8513 C   0  0  0  0  0  0  0  0  0  0  0  0
   10.1357  -15.4119   15.9959 N   0  0  0  0  0  0  0  0  0  0  0  0
    9.7299  -13.9007   17.7449 N   0  0  0  0  0  0  0  0  0  0  0  0
    8.7885  -13.3008   18.7150 C   0  0  0  0  0  0  0  0  0  0  0  0
    8.8280  -14.0685   19.9644 C   0  0  0  0  0  0  0  0  0  0  0  0
    7.8240  -13.8455   21.0202 C   0  0  0  0  0  0  0  0  0  0  0  0
    7.8459  -14.7336   22.2164 C   0  0  2  0  0  0  0  0  0  0  0  0
    6.8214  -14.6147   23.1869 N   0  0  0  0  0  0  0  0  0  0  0  0
    9.2125  -14.7971   22.7737 C   0  0  0  0  0  0  0  0  0  0  0  0
    9.6071  -13.8010   23.4742 O   0  0  0  0  0  0  0  0  0  0  0  0
   11.1370  -15.1343   15.9492 C   0  0  0  0  0  0  0  0  0  0  0  0
   10.5276  -13.9664   28.4064 S   0  0  0  0  0  0  0  0  0  0  0  0
   10.9591  -15.4327   27.3754 C   0  0  0  0  0  0  0  0  0  0  0  0
   11.0504  -14.9417   25.6761 C   0  0  0  0  0  0  0  0  0  0  0  0
   11.1647  -15.9781   24.6680 C   0  0  2  0  0  0  0  0  0  0  0  0
   11.4587  -15.7287   23.2343 N   0  0  0  0  0  0  0  0  0  0  0  0
   10.0943  -15.8593   22.5911 C   0  0  0  0  0  0  0  0  0  0  0  0
   12.1953  -16.8974   22.5858 O   0  0  0  0  0  0  0  0  0  0  0  0
   11.6732  -17.8435   22.0113 O   0  0  0  0  0  0  0  0  0  0  0  0
  1  2  1  0
  2  3  1  0
  3  5  1  0
  3  4  1  6
  5  7  1  0
  5  6  1  1
  7  8  2  0
 10 12  1  0
 10  9  1  0
 11 10  2  0
 13 12  1  0
 13 14  1  0
 15 14  1  0
 16 15  1  6
 17 16  1  0
 17  7  1  0
 18 25  1  0
 18 16  1  0
 19 18  2  0
 20 21  1  0
 21 22  1  0
 22 23  1  0
 24 23  1  1
 24 25  1  0
 24 26  1  0
 26 28  1  0
 27 26  2  0
M  END
$$$$
