IRM.pdb
     RDKit          3D

 28 27  0  0  1  0  0  0  0  0999 V2000
    6.4148  -11.2228   26.8931 C   0  0  0  0  0  0  0  0  0  0  0  0
    5.8767  -12.4183   26.1604 C   0  0  0  0  0  0  0  0  0  0  0  0
    7.0467  -13.3346   25.7439 C   0  0  2  0  0  0  0  0  0  0  0  0
    7.8444  -12.4710   24.7723 C   0  0  0  0  0  0  0  0  0  0  0  0
    6.4880  -14.5409   25.0698 C   0  0  2  0  0  0  0  0  0  0  0  0
    5.7443  -15.2759   26.1037 N   0  0  0  0  0  0  0  0  0  0  0  0
    7.4321  -15.4592   24.4535 C   0  0  0  0  0  0  0  0  0  0  0  0
    7.8775  -16.4620   25.1247 O   0  0  0  0  0  0  0  0  0  0  0  0
   11.8098  -17.9709   17.7853 N   0  0  0  0  0  0  0  0  0  0  0  0
   10.9022  -19.0457   18.0169 C   0  0  0  0  0  0  0  0  0  0  0  0
   10.4384  -19.6566   16.9803 N   0  0  0  0  0  0  0  0  0  0  0  0
   10.5019  -19.4563   19.3177 N   0  0  0  0  0  0  0  0  0  0  0  0
    9.3826  -18.7861   20.0141 C   0  0  0  0  0  0  0  0  0  0  0  0
    9.8238  -17.4666   20.4792 C   0  0  0  0  0  0  0  0  0  0  0  0
    8.8658  -16.5143   21.0690 C   0  0  0  0  0  0  0  0  0  0  0  0
    8.8716  -16.3292   22.5475 C   0  0  2  0  0  0  0  0  0  0  0  0
    7.9682  -15.4099   23.1345 N   0  0  0  0  0  0  0  0  0  0  0  0
   10.2608  -16.2200   23.0378 C   0  0  0  0  0  0  0  0  0  0  0  0
   11.0750  -17.1499   22.7047 O   0  0  0  0  0  0  0  0  0  0  0  0
    9.7863  -20.4647   17.0386 C   0  0  0  0  0  0  0  0  0  0  0  0
   11.0835  -13.6012   28.4497 S   0  0  0  0  0  0  0  0  0  0  0  0
   10.5767  -15.3493   28.7443 C   0  0  0  0  0  0  0  0  0  0  0  0
   11.1081  -16.3461   27.3802 C   0  0  0  0  0  0  0  0  0  0  0  0
   10.7172  -15.9432   26.0429 C   0  0  2  0  0  0  0  0  0  0  0  0
   11.6671  -15.5657   24.9663 N   0  0  0  0  0  0  0  0  0  0  0  0
   10.7420  -15.1816   23.8310 C   0  0  0  0  0  0  0  0  0  0  0  0
   12.3697  -16.7803   24.3663 O   0  0  0  0  0  0  0  0  0  0  0  0
   11.8569  -17.6150   23.6328 O   0  0  0  0  0  0  0  0  0  0  0  0
  1  2  1  0
  2  3  1  0
  3  5  1  0
  3  4  1  6
  5  7  1  0
  5  6  1  1
  7  8  2  0
 10 12  1  0
 10  9  1  0
 11 10  2  0
 13 12  1  0
 13 14  1  0
 15 14  1  0
 16 15  1  6
 17 16  1  0
 17  7  1  0
 18 25  1  0
 18 16  1  0
 19 18  2  0
 20 21  1  0
 21 22  1  0
 22 23  1  0
 24 23  1  1
 24 25  1  0
 24 26  1  0
 26 28  1  0
 27 26  2  0
M  END
$$$$
