IRM.pdb
     RDKit          3D

 28 27  0  0  1  0  0  0  0  0999 V2000
    5.9574  -10.7539   26.7007 C   0  0  0  0  0  0  0  0  0  0  0  0
    5.4141  -12.0761   26.2402 C   0  0  0  0  0  0  0  0  0  0  0  0
    6.5749  -12.9618   25.7398 C   0  0  2  0  0  0  0  0  0  0  0  0
    7.2267  -12.1116   24.6544 C   0  0  0  0  0  0  0  0  0  0  0  0
    6.0043  -14.2195   25.1790 C   0  0  2  0  0  0  0  0  0  0  0  0
    5.3540  -14.9074   26.3043 N   0  0  0  0  0  0  0  0  0  0  0  0
    6.9286  -15.1514   24.5532 C   0  0  0  0  0  0  0  0  0  0  0  0
    7.5838  -15.9857   25.2805 O   0  0  0  0  0  0  0  0  0  0  0  0
   12.2902  -17.6638   19.3933 N   0  0  0  0  0  0  0  0  0  0  0  0
   11.4904  -18.7233   18.8735 C   0  0  0  0  0  0  0  0  0  0  0  0
   12.1087  -19.7733   18.4515 N   0  0  0  0  0  0  0  0  0  0  0  0
   10.0717  -18.6632   18.8065 N   0  0  0  0  0  0  0  0  0  0  0  0
    9.3514  -17.4020   19.0852 C   0  0  0  0  0  0  0  0  0  0  0  0
    9.2497  -17.2145   20.5366 C   0  0  0  0  0  0  0  0  0  0  0  0
    8.2855  -16.2578   21.1090 C   0  0  0  0  0  0  0  0  0  0  0  0
    8.2269  -16.1135   22.5908 C   0  0  2  0  0  0  0  0  0  0  0  0
    7.2331  -15.2858   23.1679 N   0  0  0  0  0  0  0  0  0  0  0  0
    9.5857  -15.9071   23.1326 C   0  0  0  0  0  0  0  0  0  0  0  0
   10.0066  -14.7011   23.2165 O   0  0  0  0  0  0  0  0  0  0  0  0
   11.6219  -20.5952   18.0401 C   0  0  0  0  0  0  0  0  0  0  0  0
    9.9954  -13.8288   28.5420 S   0  0  0  0  0  0  0  0  0  0  0  0
   10.2994  -15.6440   28.4335 C   0  0  0  0  0  0  0  0  0  0  0  0
   11.3691  -15.9731   27.0608 C   0  0  0  0  0  0  0  0  0  0  0  0
   10.7648  -16.2618   25.7743 C   0  0  1  0  0  0  0  0  0  0  0  0
   11.5260  -16.5428   24.5311 N   0  0  0  0  0  0  0  0  0  0  0  0
   10.4335  -16.9273   23.5560 C   0  0  0  0  0  0  0  0  0  0  0  0
   12.3076  -17.8508   24.6177 O   0  0  0  0  0  0  0  0  0  0  0  0
   11.8949  -18.9552   24.2894 O   0  0  0  0  0  0  0  0  0  0  0  0
  1  2  1  0
  2  3  1  0
  3  5  1  0
  3  4  1  6
  5  7  1  0
  5  6  1  1
  7  8  2  0
 10 12  1  0
 10  9  1  0
 11 10  2  0
 13 12  1  0
 13 14  1  0
 15 14  1  0
 16 15  1  6
 17 16  1  0
 17  7  1  0
 18 25  1  0
 18 16  1  0
 19 18  2  0
 20 21  1  0
 21 22  1  0
 22 23  1  0
 24 23  1  6
 24 25  1  0
 24 26  1  0
 26 28  1  0
 27 26  2  0
M  END
$$$$
