IRM.pdb
     RDKit          3D

 28 27  0  0  1  0  0  0  0  0999 V2000
    6.0612  -11.4069   27.8781 C   0  0  0  0  0  0  0  0  0  0  0  0
    5.5666  -12.4583   26.9264 C   0  0  0  0  0  0  0  0  0  0  0  0
    6.7615  -13.0498   26.1488 C   0  0  2  0  0  0  0  0  0  0  0  0
    7.2965  -11.8582   25.3615 C   0  0  0  0  0  0  0  0  0  0  0  0
    6.2551  -14.1197   25.2428 C   0  0  2  0  0  0  0  0  0  0  0  0
    5.7962  -15.2089   26.1177 N   0  0  0  0  0  0  0  0  0  0  0  0
    7.1908  -14.6776   24.2797 C   0  0  0  0  0  0  0  0  0  0  0  0
    7.8216  -15.7634   24.5582 O   0  0  0  0  0  0  0  0  0  0  0  0
    9.9318  -15.2800   17.2231 N   0  0  0  0  0  0  0  0  0  0  0  0
    8.6370  -14.9335   16.7375 C   0  0  0  0  0  0  0  0  0  0  0  0
    8.2295  -15.5335   15.6713 N   0  0  0  0  0  0  0  0  0  0  0  0
    7.8016  -13.9744   17.3723 N   0  0  0  0  0  0  0  0  0  0  0  0
    8.2570  -13.2519   18.5796 C   0  0  0  0  0  0  0  0  0  0  0  0
    8.5237  -14.2195   19.6496 C   0  0  0  0  0  0  0  0  0  0  0  0
    8.9730  -13.7703   20.9796 C   0  0  0  0  0  0  0  0  0  0  0  0
    8.6009  -14.5908   22.1664 C   0  0  2  0  0  0  0  0  0  0  0  0
    7.5318  -14.1684   22.9936 N   0  0  0  0  0  0  0  0  0  0  0  0
    9.8167  -15.0002   22.8990 C   0  0  0  0  0  0  0  0  0  0  0  0
   10.6175  -14.0733   23.2706 O   0  0  0  0  0  0  0  0  0  0  0  0
    7.3012  -15.3571   15.2368 C   0  0  0  0  0  0  0  0  0  0  0  0
   10.4426  -13.7777   28.2729 S   0  0  0  0  0  0  0  0  0  0  0  0
   10.1310  -15.5936   28.2053 C   0  0  0  0  0  0  0  0  0  0  0  0
   11.0334  -16.2880   26.8486 C   0  0  0  0  0  0  0  0  0  0  0  0
   10.5301  -16.0687   25.5062 C   0  0  1  0  0  0  0  0  0  0  0  0
   11.2147  -16.5162   24.2673 N   0  0  0  0  0  0  0  0  0  0  0  0
   10.1483  -16.3160   23.2114 C   0  0  0  0  0  0  0  0  0  0  0  0
   11.3859  -18.0319   24.2194 O   0  0  0  0  0  0  0  0  0  0  0  0
   10.6345  -18.8207   23.6617 O   0  0  0  0  0  0  0  0  0  0  0  0
  1  2  1  0
  2  3  1  0
  3  5  1  0
  3  4  1  6
  5  7  1  0
  5  6  1  1
  7  8  2  0
 10 12  1  0
 10  9  1  0
 11 10  2  0
 13 12  1  0
 13 14  1  0
 15 14  1  0
 16 15  1  6
 17 16  1  0
 17  7  1  0
 18 25  1  0
 18 16  1  0
 19 18  2  0
 20 21  1  0
 21 22  1  0
 22 23  1  0
 24 23  1  6
 24 25  1  0
 24 26  1  0
 26 28  1  0
 27 26  2  0
M  END
$$$$
