IRM.pdb
     RDKit          3D

 28 27  0  0  1  0  0  0  0  0999 V2000
    7.5005  -11.7983   18.8347 C   0  0  0  0  0  0  0  0  0  0  0  0
    8.2618  -13.0785   18.6420 C   0  0  0  0  0  0  0  0  0  0  0  0
    8.1159  -13.9571   19.9025 C   0  0  2  0  0  0  0  0  0  0  0  0
    8.6703  -13.0743   21.0157 C   0  0  0  0  0  0  0  0  0  0  0  0
    8.9378  -15.1874   19.7211 C   0  0  2  0  0  0  0  0  0  0  0  0
    8.3646  -15.8915   18.5644 N   0  0  0  0  0  0  0  0  0  0  0  0
    8.9974  -16.1210   20.8342 C   0  0  0  0  0  0  0  0  0  0  0  0
    8.0100  -16.9152   21.0544 O   0  0  0  0  0  0  0  0  0  0  0  0
   10.3642  -20.0236   19.1335 N   0  0  0  0  0  0  0  0  0  0  0  0
   11.7739  -20.2318   19.0887 C   0  0  0  0  0  0  0  0  0  0  0  0
   12.3202  -20.3036   17.9228 N   0  0  0  0  0  0  0  0  0  0  0  0
   12.5766  -20.3593   20.2549 N   0  0  0  0  0  0  0  0  0  0  0  0
   11.9905  -20.1895   21.6020 C   0  0  0  0  0  0  0  0  0  0  0  0
   11.3132  -18.8903   21.6738 C   0  0  0  0  0  0  0  0  0  0  0  0
   10.6838  -18.4345   22.9263 C   0  0  0  0  0  0  0  0  0  0  0  0
   10.0290  -17.0963   22.9430 C   0  0  2  0  0  0  0  0  0  0  0  0
   10.0538  -16.2977   21.7736 N   0  0  0  0  0  0  0  0  0  0  0  0
   10.3822  -16.3762   24.1835 C   0  0  0  0  0  0  0  0  0  0  0  0
   11.1817  -15.3821   24.0771 O   0  0  0  0  0  0  0  0  0  0  0  0
   13.3252  -20.5277   17.7765 C   0  0  0  0  0  0  0  0  0  0  0  0
    5.9232  -12.7731   27.6431 S   0  0  0  0  0  0  0  0  0  0  0  0
    7.2631  -12.5203   26.4021 C   0  0  0  0  0  0  0  0  0  0  0  0
    8.6840  -13.4630   26.8808 C   0  0  0  0  0  0  0  0  0  0  0  0
    8.8874  -14.7590   26.2624 C   0  0  2  0  0  0  0  0  0  0  0  0
   10.0511  -15.6429   26.5239 N   0  0  0  0  0  0  0  0  0  0  0  0
    9.9077  -16.7019   25.4514 C   0  0  0  0  0  0  0  0  0  0  0  0
    9.8644  -16.4829   27.7843 O   0  0  0  0  0  0  0  0  0  0  0  0
    9.2705  -17.5508   27.8522 O   0  0  0  0  0  0  0  0  0  0  0  0
  1  2  1  0
  2  3  1  0
  3  5  1  0
  3  4  1  1
  5  7  1  0
  5  6  1  6
  7  8  2  0
 10 12  1  0
 10  9  1  0
 11 10  2  0
 13 12  1  0
 13 14  1  0
 15 14  1  0
 16 15  1  6
 17 16  1  0
 17  7  1  0
 18 25  1  0
 18 16  1  0
 19 18  2  0
 20 21  1  0
 21 22  1  0
 22 23  1  0
 24 23  1  6
 24 25  1  0
 24 26  1  0
 26 28  1  0
 27 26  2  0
M  END
$$$$
