TCS.pdb
     RDKit          3D

 20 19  0  0  1  0  0  0  0  0999 V2000
   15.9736  -10.5005  -17.7559 C   0  0  0  0  0  0  0  0  0  0  0  0
   16.6945   -9.6297  -16.7993 C   0  0  1  0  0  0  0  0  0  0  0  0
   15.7589   -8.8640  -16.1026 O   0  0  0  0  0  0  0  0  0  0  0  0
   17.5487  -10.3364  -15.7992 C   0  0  2  0  0  0  0  0  0  0  0  0
   16.6831  -11.2149  -15.0346 N   0  0  0  0  0  0  0  0  0  0  0  0
   18.2877   -9.4700  -14.8919 C   0  0  0  0  0  0  0  0  0  0  0  0
   17.7979   -9.1425  -13.7844 O   0  0  0  0  0  0  0  0  0  0  0  0
   19.5670   -8.9878  -15.2499 N   0  0  0  0  0  0  0  0  0  0  0  0
   20.2666   -8.0366  -14.3481 C   0  0  1  0  0  0  0  0  0  0  0  0
   21.6984   -8.5372  -14.3247 C   0  0  0  0  0  0  0  0  0  0  0  0
   22.7556   -7.4549  -13.3763 S   0  0  0  0  0  0  0  0  0  0  0  0
   20.2553   -6.7007  -14.9692 C   0  0  0  0  0  0  0  0  0  0  0  0
   20.4139   -6.5388  -16.2289 O   0  0  0  0  0  0  0  0  0  0  0  0
   17.6759   -3.9730  -14.7250 O   0  0  0  0  0  0  0  0  0  0  0  0
   18.8649   -3.3915  -14.2917 C   0  0  0  0  0  0  0  0  0  0  0  0
   20.0319   -4.1947  -14.8331 C   0  0  2  0  0  0  0  0  0  0  0  0
   20.0689   -5.5192  -14.2281 N   0  0  0  0  0  0  0  0  0  0  0  0
   21.3246   -3.5214  -14.5492 C   0  0  0  0  0  0  0  0  0  0  0  0
   22.0410   -3.8760  -13.5816 O   0  0  0  0  0  0  0  0  0  0  0  0
   21.8099   -2.4748  -15.3266 O   0  0  0  0  0  0  0  0  0  0  0  0
  2  3  1  0
  2  1  1  6
  4  5  1  1
  4  2  1  0
  6  4  1  0
  7  6  2  0
  8  6  1  0
  9  8  1  0
  9 12  1  0
  9 10  1  6
 11 10  1  0
 12 17  1  0
 13 12  2  0
 14 15  1  0
 16 15  1  1
 16 18  1  0
 17 16  1  0
 18 20  1  0
 19 18  2  0
M  END
$$$$
