TCS.pdb
     RDKit          3D

 20 19  0  0  1  0  0  0  0  0999 V2000
   17.9648  -10.4580  -17.8748 C   0  0  0  0  0  0  0  0  0  0  0  0
   18.2309   -9.3598  -16.9176 C   0  0  1  0  0  0  0  0  0  0  0  0
   17.0155   -8.9324  -16.3818 O   0  0  0  0  0  0  0  0  0  0  0  0
   19.1417   -9.6974  -15.7837 C   0  0  2  0  0  0  0  0  0  0  0  0
   18.5153  -10.7668  -15.0290 N   0  0  0  0  0  0  0  0  0  0  0  0
   19.4572   -8.5912  -14.8910 C   0  0  0  0  0  0  0  0  0  0  0  0
   18.7772   -8.3955  -13.8551 O   0  0  0  0  0  0  0  0  0  0  0  0
   20.5348   -7.7246  -15.1825 N   0  0  0  0  0  0  0  0  0  0  0  0
   20.7254   -6.4976  -14.3666 C   0  0  1  0  0  0  0  0  0  0  0  0
   22.1950   -6.5294  -13.9921 C   0  0  0  0  0  0  0  0  0  0  0  0
   22.6826   -5.0464  -13.1252 S   0  0  0  0  0  0  0  0  0  0  0  0
   20.4928   -5.3204  -15.2215 C   0  0  0  0  0  0  0  0  0  0  0  0
   21.0453   -5.1980  -16.3694 O   0  0  0  0  0  0  0  0  0  0  0  0
   17.0904   -3.4773  -15.5126 O   0  0  0  0  0  0  0  0  0  0  0  0
   18.0587   -2.4846  -15.3836 C   0  0  0  0  0  0  0  0  0  0  0  0
   19.4212   -3.0851  -15.6722 C   0  0  2  0  0  0  0  0  0  0  0  0
   19.6526   -4.2581  -14.8402 N   0  0  0  0  0  0  0  0  0  0  0  0
   20.5063   -2.1076  -15.4040 C   0  0  0  0  0  0  0  0  0  0  0  0
   20.5240   -0.9877  -15.9704 O   0  0  0  0  0  0  0  0  0  0  0  0
   21.5504   -2.3713  -14.5234 O   0  0  0  0  0  0  0  0  0  0  0  0
  2  3  1  0
  2  1  1  6
  4  5  1  1
  4  2  1  0
  6  4  1  0
  7  6  2  0
  8  6  1  0
  9  8  1  0
  9 12  1  0
  9 10  1  6
 11 10  1  0
 12 17  1  0
 13 12  2  0
 14 15  1  0
 16 15  1  1
 16 18  1  0
 17 16  1  0
 18 20  1  0
 19 18  2  0
M  END
$$$$
