TCS.pdb
     RDKit          3D

 20 19  0  0  1  0  0  0  0  0999 V2000
   19.7075  -10.3801  -18.6494 C   0  0  0  0  0  0  0  0  0  0  0  0
   19.5395   -9.2417  -17.7173 C   0  0  1  0  0  0  0  0  0  0  0  0
   18.1894   -9.1383  -17.3801 O   0  0  0  0  0  0  0  0  0  0  0  0
   20.3264   -9.3215  -16.4510 C   0  0  2  0  0  0  0  0  0  0  0  0
   19.8550  -10.4837  -15.7211 N   0  0  0  0  0  0  0  0  0  0  0  0
   20.2482   -8.1450  -15.5968 C   0  0  0  0  0  0  0  0  0  0  0  0
   19.3149   -8.0214  -14.7676 O   0  0  0  0  0  0  0  0  0  0  0  0
   21.2246   -7.1278  -15.6928 N   0  0  0  0  0  0  0  0  0  0  0  0
   21.0550   -5.8775  -14.9082 C   0  0  1  0  0  0  0  0  0  0  0  0
   22.4300   -5.6225  -14.3206 C   0  0  0  0  0  0  0  0  0  0  0  0
   22.3540   -4.4891  -12.9428 S   0  0  0  0  0  0  0  0  0  0  0  0
   20.7383   -4.7769  -15.8351 C   0  0  0  0  0  0  0  0  0  0  0  0
   21.3414   -4.6414  -16.9559 O   0  0  0  0  0  0  0  0  0  0  0  0
   17.6975   -2.1490  -14.9554 O   0  0  0  0  0  0  0  0  0  0  0  0
   17.9744   -2.3128  -16.3104 C   0  0  0  0  0  0  0  0  0  0  0  0
   19.4260   -2.7221  -16.4705 C   0  0  2  0  0  0  0  0  0  0  0  0
   19.7579   -3.8068  -15.5567 N   0  0  0  0  0  0  0  0  0  0  0  0
   20.3385   -1.5853  -16.1881 C   0  0  0  0  0  0  0  0  0  0  0  0
   20.9950   -1.5315  -15.1198 O   0  0  0  0  0  0  0  0  0  0  0  0
   20.5165   -0.5299  -17.0767 O   0  0  0  0  0  0  0  0  0  0  0  0
  2  3  1  0
  2  1  1  6
  4  5  1  1
  4  2  1  0
  6  4  1  0
  7  6  2  0
  8  6  1  0
  9  8  1  0
  9 12  1  0
  9 10  1  6
 11 10  1  0
 12 17  1  0
 13 12  2  0
 14 15  1  0
 16 15  1  1
 16 18  1  0
 17 16  1  0
 18 20  1  0
 19 18  2  0
M  END
$$$$
