TCS.pdb
     RDKit          3D

 20 19  0  0  1  0  0  0  0  0999 V2000
   19.2557   -8.9871  -19.7558 C   0  0  0  0  0  0  0  0  0  0  0  0
   18.6634  -10.3172  -19.4854 C   0  0  1  0  0  0  0  0  0  0  0  0
   18.4750  -10.9757  -20.7011 O   0  0  0  0  0  0  0  0  0  0  0  0
   19.4618  -11.2113  -18.5954 C   0  0  2  0  0  0  0  0  0  0  0  0
   18.7258  -12.4543  -18.4580 N   0  0  0  0  0  0  0  0  0  0  0  0
   19.7560  -10.6709  -17.2757 C   0  0  0  0  0  0  0  0  0  0  0  0
   18.8542  -10.5838  -16.4081 O   0  0  0  0  0  0  0  0  0  0  0  0
   21.0632  -10.2380  -16.9577 N   0  0  0  0  0  0  0  0  0  0  0  0
   21.3206   -9.6026  -15.6395 C   0  0  1  0  0  0  0  0  0  0  0  0
   22.5929  -10.2692  -15.1519 C   0  0  0  0  0  0  0  0  0  0  0  0
   23.1715   -9.5410  -13.6275 S   0  0  0  0  0  0  0  0  0  0  0  0
   21.6015   -8.1718  -15.8511 C   0  0  0  0  0  0  0  0  0  0  0  0
   22.3767   -7.7653  -16.7848 O   0  0  0  0  0  0  0  0  0  0  0  0
   19.3299   -5.2935  -16.4403 O   0  0  0  0  0  0  0  0  0  0  0  0
   20.0335   -4.9448  -15.2900 C   0  0  0  0  0  0  0  0  0  0  0  0
   21.3216   -5.7437  -15.2394 C   0  0  2  0  0  0  0  0  0  0  0  0
   21.0407   -7.1603  -15.0497 N   0  0  0  0  0  0  0  0  0  0  0  0
   22.1900   -5.2918  -14.1229 C   0  0  0  0  0  0  0  0  0  0  0  0
   22.3606   -6.0059  -13.1049 O   0  0  0  0  0  0  0  0  0  0  0  0
   22.8549   -4.0700  -14.1392 O   0  0  0  0  0  0  0  0  0  0  0  0
  2  3  1  0
  2  1  1  6
  4  5  1  1
  4  2  1  0
  6  4  1  0
  7  6  2  0
  8  6  1  0
  9  8  1  0
  9 12  1  0
  9 10  1  6
 11 10  1  0
 12 17  1  0
 13 12  2  0
 14 15  1  0
 16 15  1  1
 16 18  1  0
 17 16  1  0
 18 20  1  0
 19 18  2  0
M  END
$$$$
