TCS.pdb
     RDKit          3D

 20 19  0  0  1  0  0  0  0  0999 V2000
   19.2727   -9.0548  -18.5103 C   0  0  0  0  0  0  0  0  0  0  0  0
   19.5564  -10.2505  -17.6839 C   0  0  1  0  0  0  0  0  0  0  0  0
   19.8311  -11.3231  -18.5330 O   0  0  0  0  0  0  0  0  0  0  0  0
   20.6932  -10.1185  -16.7250 C   0  0  2  0  0  0  0  0  0  0  0  0
   20.8378  -11.3934  -16.0471 N   0  0  0  0  0  0  0  0  0  0  0  0
   20.5533   -9.0559  -15.7395 C   0  0  0  0  0  0  0  0  0  0  0  0
   19.6455   -9.1049  -14.8751 O   0  0  0  0  0  0  0  0  0  0  0  0
   21.4404   -7.9558  -15.7462 N   0  0  0  0  0  0  0  0  0  0  0  0
   21.2159   -6.8319  -14.8007 C   0  0  1  0  0  0  0  0  0  0  0  0
   22.5843   -6.5805  -14.1963 C   0  0  0  0  0  0  0  0  0  0  0  0
   22.5576   -5.1986  -13.0658 S   0  0  0  0  0  0  0  0  0  0  0  0
   20.8251   -5.6376  -15.5700 C   0  0  0  0  0  0  0  0  0  0  0  0
   21.4527   -5.2776  -16.6257 O   0  0  0  0  0  0  0  0  0  0  0  0
   17.0623   -4.4119  -15.8711 O   0  0  0  0  0  0  0  0  0  0  0  0
   17.8757   -3.3029  -15.6518 C   0  0  0  0  0  0  0  0  0  0  0  0
   19.3088   -3.6691  -15.9870 C   0  0  2  0  0  0  0  0  0  0  0  0
   19.7428   -4.8170  -15.2024 N   0  0  0  0  0  0  0  0  0  0  0  0
   20.2315   -2.5408  -15.7035 C   0  0  0  0  0  0  0  0  0  0  0  0
   21.0200   -2.5783  -14.7278 O   0  0  0  0  0  0  0  0  0  0  0  0
   20.2756   -1.3943  -16.4901 O   0  0  0  0  0  0  0  0  0  0  0  0
  2  3  1  0
  2  1  1  6
  4  5  1  1
  4  2  1  0
  6  4  1  0
  7  6  2  0
  8  6  1  0
  9  8  1  0
  9 12  1  0
  9 10  1  6
 11 10  1  0
 12 17  1  0
 13 12  2  0
 14 15  1  0
 16 15  1  1
 16 18  1  0
 17 16  1  0
 18 20  1  0
 19 18  2  0
M  END
$$$$
