TCS.pdb
     RDKit          3D

 20 19  0  0  1  0  0  0  0  0999 V2000
   19.5374   -6.7357  -19.4569 C   0  0  0  0  0  0  0  0  0  0  0  0
   19.5370   -8.0181  -18.7163 C   0  0  1  0  0  0  0  0  0  0  0  0
   19.7882   -9.0528  -19.6181 O   0  0  0  0  0  0  0  0  0  0  0  0
   20.5292   -8.1233  -17.6055 C   0  0  2  0  0  0  0  0  0  0  0  0
   20.4464   -9.4724  -17.0776 N   0  0  0  0  0  0  0  0  0  0  0  0
   20.3531   -7.1650  -16.5235 C   0  0  0  0  0  0  0  0  0  0  0  0
   19.3892   -7.2734  -15.7280 O   0  0  0  0  0  0  0  0  0  0  0  0
   21.2678   -6.1006  -16.3577 N   0  0  0  0  0  0  0  0  0  0  0  0
   20.9515   -5.0095  -15.4000 C   0  0  1  0  0  0  0  0  0  0  0  0
   22.2676   -4.7480  -14.6925 C   0  0  0  0  0  0  0  0  0  0  0  0
   22.3536   -5.6075  -13.1297 S   0  0  0  0  0  0  0  0  0  0  0  0
   20.5897   -3.8016  -16.1621 C   0  0  0  0  0  0  0  0  0  0  0  0
   21.2277   -3.4489  -17.2141 O   0  0  0  0  0  0  0  0  0  0  0  0
   17.1351   -0.8604  -17.5884 O   0  0  0  0  0  0  0  0  0  0  0  0
   17.5465   -1.9206  -16.7845 C   0  0  0  0  0  0  0  0  0  0  0  0
   19.0529   -1.8582  -16.6198 C   0  0  2  0  0  0  0  0  0  0  0  0
   19.5254   -2.9592  -15.7914 N   0  0  0  0  0  0  0  0  0  0  0  0
   19.4705   -0.5858  -15.9783 C   0  0  0  0  0  0  0  0  0  0  0  0
   19.4624   -0.4565  -14.7300 O   0  0  0  0  0  0  0  0  0  0  0  0
   19.8887    0.5200  -16.7115 O   0  0  0  0  0  0  0  0  0  0  0  0
  2  3  1  0
  2  1  1  6
  4  5  1  1
  4  2  1  0
  6  4  1  0
  7  6  2  0
  8  6  1  0
  9  8  1  0
  9 12  1  0
  9 10  1  6
 11 10  1  0
 12 17  1  0
 13 12  2  0
 14 15  1  0
 16 15  1  1
 16 18  1  0
 17 16  1  0
 18 20  1  0
 19 18  2  0
M  END
$$$$
