TCS.pdb
     RDKit          3D

 20 19  0  0  1  0  0  0  0  0999 V2000
   16.8379  -12.8953  -15.8886 C   0  0  0  0  0  0  0  0  0  0  0  0
   16.9959  -11.4643  -15.5417 C   0  0  1  0  0  0  0  0  0  0  0  0
   16.6262  -10.6955  -16.6458 O   0  0  0  0  0  0  0  0  0  0  0  0
   16.2053  -10.9932  -14.3660 C   0  0  2  0  0  0  0  0  0  0  0  0
   14.8028  -11.1965  -14.6779 N   0  0  0  0  0  0  0  0  0  0  0  0
   16.4239   -9.6043  -13.9877 C   0  0  0  0  0  0  0  0  0  0  0  0
   15.6532   -8.7039  -14.3989 O   0  0  0  0  0  0  0  0  0  0  0  0
   17.5086   -9.2551  -13.1519 N   0  0  0  0  0  0  0  0  0  0  0  0
   17.7908   -7.8211  -12.8840 C   0  0  1  0  0  0  0  0  0  0  0  0
   17.4126   -7.6377  -11.4265 C   0  0  0  0  0  0  0  0  0  0  0  0
   17.9123   -9.0386  -10.4384 S   0  0  0  0  0  0  0  0  0  0  0  0
   19.2402   -7.5916  -13.0166 C   0  0  0  0  0  0  0  0  0  0  0  0
   20.1000   -8.4667  -12.6518 O   0  0  0  0  0  0  0  0  0  0  0  0
   20.7320   -5.2047  -15.8436 O   0  0  0  0  0  0  0  0  0  0  0  0
   21.5462   -6.1459  -15.2185 C   0  0  0  0  0  0  0  0  0  0  0  0
   21.2042   -6.1898  -13.7416 C   0  0  2  0  0  0  0  0  0  0  0  0
   19.7763   -6.4055  -13.5509 N   0  0  0  0  0  0  0  0  0  0  0  0
   21.5731   -4.9193  -13.0672 C   0  0  0  0  0  0  0  0  0  0  0  0
   22.7749   -4.5872  -12.9240 O   0  0  0  0  0  0  0  0  0  0  0  0
   20.6236   -4.0367  -12.5626 O   0  0  0  0  0  0  0  0  0  0  0  0
  2  3  1  0
  2  1  1  6
  4  5  1  6
  4  2  1  0
  6  4  1  0
  7  6  2  0
  8  6  1  0
  9  8  1  0
  9 12  1  0
  9 10  1  1
 11 10  1  0
 12 17  1  0
 13 12  2  0
 14 15  1  0
 16 15  1  6
 16 18  1  0
 17 16  1  0
 18 20  1  0
 19 18  2  0
M  END
$$$$
