TCS.pdb
     RDKit          3D

 20 19  0  0  1  0  0  0  0  0999 V2000
   17.2858  -12.7656  -18.9740 C   0  0  0  0  0  0  0  0  0  0  0  0
   17.8385  -12.1107  -17.7663 C   0  0  1  0  0  0  0  0  0  0  0  0
   18.5412  -13.0624  -17.0263 O   0  0  0  0  0  0  0  0  0  0  0  0
   18.7510  -10.9560  -18.0175 C   0  0  2  0  0  0  0  0  0  0  0  0
   19.7872  -11.4127  -18.9250 N   0  0  0  0  0  0  0  0  0  0  0  0
   19.3636  -10.3793  -16.8291 C   0  0  0  0  0  0  0  0  0  0  0  0
   18.6509   -9.9470  -15.8917 O   0  0  0  0  0  0  0  0  0  0  0  0
   20.7704  -10.3004  -16.7189 N   0  0  0  0  0  0  0  0  0  0  0  0
   21.3742   -9.7086  -15.4971 C   0  0  1  0  0  0  0  0  0  0  0  0
   22.7310  -10.3791  -15.3955 C   0  0  0  0  0  0  0  0  0  0  0  0
   23.7083   -9.6836  -14.0727 S   0  0  0  0  0  0  0  0  0  0  0  0
   21.5873   -8.2687  -15.7248 C   0  0  0  0  0  0  0  0  0  0  0  0
   22.1445   -7.8271  -16.7890 O   0  0  0  0  0  0  0  0  0  0  0  0
   19.2505   -5.4098  -14.1565 O   0  0  0  0  0  0  0  0  0  0  0  0
   20.1011   -5.1411  -15.2260 C   0  0  0  0  0  0  0  0  0  0  0  0
   21.4170   -5.8611  -15.0018 C   0  0  2  0  0  0  0  0  0  0  0  0
   21.1948   -7.2860  -14.7973 N   0  0  0  0  0  0  0  0  0  0  0  0
   22.1239   -5.3284  -13.8096 C   0  0  0  0  0  0  0  0  0  0  0  0
   22.3523   -6.0562  -12.8130 O   0  0  0  0  0  0  0  0  0  0  0  0
   22.5677   -4.0124  -13.7286 O   0  0  0  0  0  0  0  0  0  0  0  0
  2  3  1  0
  2  1  1  6
  4  5  1  6
  4  2  1  0
  6  4  1  0
  7  6  2  0
  8  6  1  0
  9  8  1  0
  9 12  1  0
  9 10  1  6
 11 10  1  0
 12 17  1  0
 13 12  2  0
 14 15  1  0
 16 15  1  1
 16 18  1  0
 17 16  1  0
 18 20  1  0
 19 18  2  0
M  END
$$$$
