TCS.pdb
     RDKit          3D

 20 19  0  0  1  0  0  0  0  0999 V2000
   27.8579  -11.3517  -16.1379 C   0  0  0  0  0  0  0  0  0  0  0  0
   26.3866  -11.3253  -15.9723 C   0  0  1  0  0  0  0  0  0  0  0  0
   26.0250  -10.1047  -15.4009 O   0  0  0  0  0  0  0  0  0  0  0  0
   25.5920  -11.5020  -17.2239 C   0  0  2  0  0  0  0  0  0  0  0  0
   25.8246  -12.8540  -17.6970 N   0  0  0  0  0  0  0  0  0  0  0  0
   25.8923  -10.5550  -18.2883 C   0  0  0  0  0  0  0  0  0  0  0  0
   26.8987  -10.7174  -19.0194 O   0  0  0  0  0  0  0  0  0  0  0  0
   25.0517   -9.4407  -18.5096 N   0  0  0  0  0  0  0  0  0  0  0  0
   25.3717   -8.4922  -19.6076 C   0  0  1  0  0  0  0  0  0  0  0  0
   24.0790   -8.3911  -20.3948 C   0  0  0  0  0  0  0  0  0  0  0  0
   23.6980   -9.9236  -21.2286 S   0  0  0  0  0  0  0  0  0  0  0  0
   25.6596   -7.1711  -19.0223 C   0  0  0  0  0  0  0  0  0  0  0  0
   25.3974   -6.9013  -17.7990 O   0  0  0  0  0  0  0  0  0  0  0  0
   27.8451   -2.8501  -19.5245 O   0  0  0  0  0  0  0  0  0  0  0  0
   27.4475   -4.0315  -20.1456 C   0  0  0  0  0  0  0  0  0  0  0  0
   26.6204   -4.8466  -19.1701 C   0  0  2  0  0  0  0  0  0  0  0  0
   26.2399   -6.1229  -19.7601 N   0  0  0  0  0  0  0  0  0  0  0  0
   25.3794   -4.1271  -18.7866 C   0  0  0  0  0  0  0  0  0  0  0  0
   24.3217   -4.2615  -19.4488 O   0  0  0  0  0  0  0  0  0  0  0  0
   25.3170   -3.2754  -17.6885 O   0  0  0  0  0  0  0  0  0  0  0  0
  2  3  1  0
  2  1  1  6
  4  5  1  6
  4  2  1  0
  6  4  1  0
  7  6  2  0
  8  6  1  0
  9  8  1  0
  9 12  1  0
  9 10  1  6
 11 10  1  0
 12 17  1  0
 13 12  2  0
 14 15  1  0
 16 15  1  6
 16 18  1  0
 17 16  1  0
 18 20  1  0
 19 18  2  0
M  END
$$$$
