TCS.pdb
     RDKit          3D

 20 19  0  0  1  0  0  0  0  0999 V2000
   23.2336   -9.8894  -19.3243 C   0  0  0  0  0  0  0  0  0  0  0  0
   22.4027  -11.1143  -19.2773 C   0  0  1  0  0  0  0  0  0  0  0  0
   23.0966  -12.1471  -19.9090 O   0  0  0  0  0  0  0  0  0  0  0  0
   22.0193  -11.5832  -17.9127 C   0  0  2  0  0  0  0  0  0  0  0  0
   21.3154  -12.8424  -18.0696 N   0  0  0  0  0  0  0  0  0  0  0  0
   21.1968  -10.6575  -17.1468 C   0  0  0  0  0  0  0  0  0  0  0  0
   20.0956  -10.2614  -17.5984 O   0  0  0  0  0  0  0  0  0  0  0  0
   21.6313  -10.1945  -15.8842 N   0  0  0  0  0  0  0  0  0  0  0  0
   20.8310   -9.1668  -15.1693 C   0  0  1  0  0  0  0  0  0  0  0  0
   20.7165   -9.7069  -13.7565 C   0  0  0  0  0  0  0  0  0  0  0  0
   19.5373   -8.7751  -12.7922 S   0  0  0  0  0  0  0  0  0  0  0  0
   21.6042   -7.9135  -15.1227 C   0  0  0  0  0  0  0  0  0  0  0  0
   22.8591   -7.9016  -14.8717 O   0  0  0  0  0  0  0  0  0  0  0  0
   21.7285   -3.1162  -15.9332 O   0  0  0  0  0  0  0  0  0  0  0  0
   20.9982   -4.2993  -16.0153 C   0  0  0  0  0  0  0  0  0  0  0  0
   21.7828   -5.4101  -15.3440 C   0  0  2  0  0  0  0  0  0  0  0  0
   21.0227   -6.6526  -15.3507 N   0  0  0  0  0  0  0  0  0  0  0  0
   22.0968   -5.0687  -13.9335 C   0  0  0  0  0  0  0  0  0  0  0  0
   21.3074   -5.3653  -13.0039 O   0  0  0  0  0  0  0  0  0  0  0  0
   23.2658   -4.4105  -13.5651 O   0  0  0  0  0  0  0  0  0  0  0  0
  2  3  1  0
  2  1  1  1
  4  5  1  6
  4  2  1  0
  6  4  1  0
  7  6  2  0
  8  6  1  0
  9  8  1  0
  9 12  1  0
  9 10  1  1
 11 10  1  0
 12 17  1  0
 13 12  2  0
 14 15  1  0
 16 15  1  1
 16 18  1  0
 17 16  1  0
 18 20  1  0
 19 18  2  0
M  END
$$$$
