TCS.pdb
     RDKit          3D

 20 19  0  0  1  0  0  0  0  0999 V2000
   22.8982  -10.1010  -19.7090 C   0  0  0  0  0  0  0  0  0  0  0  0
   21.8417  -11.1387  -19.7079 C   0  0  1  0  0  0  0  0  0  0  0  0
   22.3654  -12.3073  -20.2620 O   0  0  0  0  0  0  0  0  0  0  0  0
   21.2705  -11.4780  -18.3708 C   0  0  2  0  0  0  0  0  0  0  0  0
   20.4110  -12.6337  -18.5479 N   0  0  0  0  0  0  0  0  0  0  0  0
   20.5218  -10.4083  -17.7264 C   0  0  0  0  0  0  0  0  0  0  0  0
   19.5033   -9.9240  -18.2758 O   0  0  0  0  0  0  0  0  0  0  0  0
   20.9352   -9.9035  -16.4729 N   0  0  0  0  0  0  0  0  0  0  0  0
   20.1909   -8.7727  -15.8605 C   0  0  1  0  0  0  0  0  0  0  0  0
   19.5463   -9.3803  -14.6291 C   0  0  0  0  0  0  0  0  0  0  0  0
   18.0674  -10.2904  -15.0450 S   0  0  0  0  0  0  0  0  0  0  0  0
   21.1587   -7.7533  -15.4190 C   0  0  0  0  0  0  0  0  0  0  0  0
   22.3201   -8.0673  -14.9822 O   0  0  0  0  0  0  0  0  0  0  0  0
   21.3026   -3.9980  -16.9169 O   0  0  0  0  0  0  0  0  0  0  0  0
   21.3946   -3.9860  -15.5274 C   0  0  0  0  0  0  0  0  0  0  0  0
   21.8394   -5.3555  -15.0513 C   0  0  2  0  0  0  0  0  0  0  0  0
   20.8776   -6.3749  -15.4480 N   0  0  0  0  0  0  0  0  0  0  0  0
   21.9690   -5.3938  -13.5726 C   0  0  0  0  0  0  0  0  0  0  0  0
   22.8970   -4.7841  -12.9876 O   0  0  0  0  0  0  0  0  0  0  0  0
   21.0837   -6.0964  -12.7616 O   0  0  0  0  0  0  0  0  0  0  0  0
  2  3  1  0
  2  1  1  1
  4  5  1  6
  4  2  1  0
  6  4  1  0
  7  6  2  0
  8  6  1  0
  9  8  1  0
  9 12  1  0
  9 10  1  1
 11 10  1  0
 12 17  1  0
 13 12  2  0
 14 15  1  0
 16 15  1  1
 16 18  1  0
 17 16  1  0
 18 20  1  0
 19 18  2  0
M  END
$$$$
