TCS.pdb
     RDKit          3D

 20 19  0  0  1  0  0  0  0  0999 V2000
   22.3427   -8.5082  -19.7340 C   0  0  0  0  0  0  0  0  0  0  0  0
   22.3042   -9.9673  -19.4839 C   0  0  1  0  0  0  0  0  0  0  0  0
   23.3079  -10.5748  -20.2393 O   0  0  0  0  0  0  0  0  0  0  0  0
   22.4815  -10.3840  -18.0612 C   0  0  2  0  0  0  0  0  0  0  0  0
   22.5409  -11.8337  -18.0391 N   0  0  0  0  0  0  0  0  0  0  0  0
   21.4458   -9.9249  -17.1466 C   0  0  0  0  0  0  0  0  0  0  0  0
   20.2625  -10.3215  -17.2742 O   0  0  0  0  0  0  0  0  0  0  0  0
   21.7631   -9.0259  -16.1034 N   0  0  0  0  0  0  0  0  0  0  0  0
   20.6781   -8.5127  -15.2275 C   0  0  1  0  0  0  0  0  0  0  0  0
   21.2669   -8.5854  -13.8314 C   0  0  0  0  0  0  0  0  0  0  0  0
   20.1094   -8.0064  -12.6011 S   0  0  0  0  0  0  0  0  0  0  0  0
   20.4376   -7.0961  -15.5534 C   0  0  0  0  0  0  0  0  0  0  0  0
   21.3944   -6.2509  -15.6451 O   0  0  0  0  0  0  0  0  0  0  0  0
   17.7366   -5.7761  -18.1003 O   0  0  0  0  0  0  0  0  0  0  0  0
   17.6169   -5.0465  -16.9200 C   0  0  0  0  0  0  0  0  0  0  0  0
   18.9009   -5.1828  -16.1244 C   0  0  2  0  0  0  0  0  0  0  0  0
   19.1505   -6.5775  -15.7865 N   0  0  0  0  0  0  0  0  0  0  0  0
   18.8340   -4.4065  -14.8603 C   0  0  0  0  0  0  0  0  0  0  0  0
   18.7527   -3.1542  -14.8727 O   0  0  0  0  0  0  0  0  0  0  0  0
   18.8572   -5.0120  -13.6081 O   0  0  0  0  0  0  0  0  0  0  0  0
  2  3  1  0
  2  1  1  1
  4  5  1  6
  4  2  1  0
  6  4  1  0
  7  6  2  0
  8  6  1  0
  9  8  1  0
  9 12  1  0
  9 10  1  1
 11 10  1  0
 12 17  1  0
 13 12  2  0
 14 15  1  0
 16 15  1  1
 16 18  1  0
 17 16  1  0
 18 20  1  0
 19 18  2  0
M  END
$$$$
