MEQ.pdb
     RDKit          3D

 27 26  0  0  1  0  0  0  0  0999 V2000
   27.4038  -15.5543  -15.4743 C   0  0  0  0  0  0  0  0  0  0  0  0
   27.2435  -13.8436  -14.9080 S   0  0  0  0  0  0  0  0  0  0  0  0
   25.7388  -13.1536  -15.6043 C   0  0  0  0  0  0  0  0  0  0  0  0
   25.5896  -11.6923  -15.3796 C   0  0  0  0  0  0  0  0  0  0  0  0
   24.3699  -11.0694  -15.9675 C   0  0  2  0  0  0  0  0  0  0  0  0
   24.4378  -11.4454  -17.4202 N   0  0  0  0  0  0  0  0  0  0  0  0
   24.3146   -9.5984  -15.8781 C   0  0  0  0  0  0  0  0  0  0  0  0
   24.1846   -8.9532  -14.7947 O   0  0  0  0  0  0  0  0  0  0  0  0
   24.4060   -8.7836  -17.0357 N   0  0  0  0  0  0  0  0  0  0  0  0
   24.3179   -7.3211  -16.9169 C   0  0  1  0  0  0  0  0  0  0  0  0
   25.3682   -6.8469  -17.9033 C   0  0  0  0  0  0  0  0  0  0  0  0
   25.4725   -5.3957  -18.1273 C   0  0  0  0  0  0  0  0  0  0  0  0
   26.5574   -4.9752  -19.0192 C   0  0  0  0  0  0  0  0  0  0  0  0
   26.3744   -4.0847  -19.8768 O   0  0  0  0  0  0  0  0  0  0  0  0
   22.9978   -6.8524  -17.3827 C   0  0  0  0  0  0  0  0  0  0  0  0
   22.5501   -7.1787  -18.5076 O   0  0  0  0  0  0  0  0  0  0  0  0
   27.8071   -5.5545  -18.9316 O   0  0  0  0  0  0  0  0  0  0  0  0
   17.7604   -7.6943  -15.3759 N   0  0  0  0  0  0  0  0  0  0  0  0
   17.4186   -6.6825  -16.3078 C   0  0  0  0  0  0  0  0  0  0  0  0
   16.2347   -6.5080  -16.6449 O   0  0  0  0  0  0  0  0  0  0  0  0
   18.4867   -5.8371  -16.8741 C   0  0  0  0  0  0  0  0  0  0  0  0
   19.8251   -6.3460  -16.4231 C   0  0  0  0  0  0  0  0  0  0  0  0
   20.9111   -5.4943  -17.0695 C   0  0  2  0  0  0  0  0  0  0  0  0
   22.2002   -6.0268  -16.5704 N   0  0  0  0  0  0  0  0  0  0  0  0
   20.6755   -4.1108  -16.6115 C   0  0  0  0  0  0  0  0  0  0  0  0
   21.3692   -3.6417  -15.5118 O   0  0  0  0  0  0  0  0  0  0  0  0
   19.8705   -3.3431  -17.1806 O   0  0  0  0  0  0  0  0  0  0  0  0
  2  3  1  0
  2  1  1  0
  4  5  1  0
  4  3  1  0
  5  6  1  6
  7  5  1  0
  7  8  2  0
  9  7  1  0
 10  9  1  0
 10 11  1  6
 12 11  1  0
 13 12  1  0
 14 13  2  0
 15 10  1  0
 16 15  2  0
 17 13  1  0
 19 18  1  0
 20 19  2  0
 21 19  1  0
 22 21  1  0
 23 22  1  1
 23 24  1  0
 24 15  1  0
 25 23  1  0
 26 25  1  0
 27 25  2  0
M  END
$$$$
