MEQ.pdb
     RDKit          3D

 27 26  0  0  1  0  0  0  0  0999 V2000
   28.4183  -14.5677  -15.2083 C   0  0  0  0  0  0  0  0  0  0  0  0
   26.9891  -13.5313  -15.6035 S   0  0  0  0  0  0  0  0  0  0  0  0
   27.4972  -12.2976  -16.8054 C   0  0  0  0  0  0  0  0  0  0  0  0
   26.4688  -11.2575  -17.0681 C   0  0  0  0  0  0  0  0  0  0  0  0
   25.0522  -11.7044  -16.9467 C   0  0  2  0  0  0  0  0  0  0  0  0
   24.8683  -12.6388  -18.1083 N   0  0  0  0  0  0  0  0  0  0  0  0
   24.0468  -10.6314  -17.0593 C   0  0  0  0  0  0  0  0  0  0  0  0
   24.0811   -9.7089  -17.9281 O   0  0  0  0  0  0  0  0  0  0  0  0
   22.9403  -10.5595  -16.1745 N   0  0  0  0  0  0  0  0  0  0  0  0
   21.9227   -9.5133  -16.3499 C   0  0  1  0  0  0  0  0  0  0  0  0
   20.6873  -10.1509  -15.7431 C   0  0  0  0  0  0  0  0  0  0  0  0
   19.9834  -11.1572  -16.5548 C   0  0  0  0  0  0  0  0  0  0  0  0
   19.2643  -12.1843  -15.7952 C   0  0  0  0  0  0  0  0  0  0  0  0
   19.0487  -12.0448  -14.5720 O   0  0  0  0  0  0  0  0  0  0  0  0
   22.2734   -8.3244  -15.5481 C   0  0  0  0  0  0  0  0  0  0  0  0
   22.8950   -8.4295  -14.4642 O   0  0  0  0  0  0  0  0  0  0  0  0
   18.8084  -13.3303  -16.4149 O   0  0  0  0  0  0  0  0  0  0  0  0
   22.2191   -2.4915  -17.7642 N   0  0  0  0  0  0  0  0  0  0  0  0
   22.7095   -2.2881  -16.4499 C   0  0  0  0  0  0  0  0  0  0  0  0
   23.0324   -1.1508  -16.0651 O   0  0  0  0  0  0  0  0  0  0  0  0
   22.8323   -3.4445  -15.5423 C   0  0  0  0  0  0  0  0  0  0  0  0
   22.3002   -4.6748  -16.2182 C   0  0  0  0  0  0  0  0  0  0  0  0
   22.3668   -5.8365  -15.2340 C   0  0  2  0  0  0  0  0  0  0  0  0
   21.9220   -7.0342  -15.9836 N   0  0  0  0  0  0  0  0  0  0  0  0
   21.4376   -5.5000  -14.1374 C   0  0  0  0  0  0  0  0  0  0  0  0
   21.9296   -4.8619  -13.0142 O   0  0  0  0  0  0  0  0  0  0  0  0
   20.2185   -5.7699  -14.1838 O   0  0  0  0  0  0  0  0  0  0  0  0
  2  3  1  0
  2  1  1  0
  4  5  1  0
  4  3  1  0
  5  6  1  6
  7  5  1  0
  7  8  2  0
  9  7  1  0
 10  9  1  0
 10 11  1  1
 12 11  1  0
 13 12  1  0
 14 13  2  0
 15 10  1  0
 16 15  2  0
 17 13  1  0
 19 18  1  0
 20 19  2  0
 21 19  1  0
 22 21  1  0
 23 22  1  6
 23 24  1  0
 24 15  1  0
 25 23  1  0
 26 25  1  0
 27 25  2  0
M  END
$$$$
