MEQ.pdb
     RDKit          3D

 27 26  0  0  1  0  0  0  0  0999 V2000
   29.0848  -19.9804   -5.5970 C   0  0  0  0  0  0  0  0  0  0  0  0
   27.7052  -19.3073   -6.5544 S   0  0  0  0  0  0  0  0  0  0  0  0
   27.2246  -20.5205   -7.7881 C   0  0  0  0  0  0  0  0  0  0  0  0
   26.1904  -20.0329   -8.7372 C   0  0  0  0  0  0  0  0  0  0  0  0
   25.8256  -20.9733   -9.8344 C   0  0  2  0  0  0  0  0  0  0  0  0
   27.1269  -21.2241  -10.5415 N   0  0  0  0  0  0  0  0  0  0  0  0
   24.8651  -20.4419  -10.8192 C   0  0  0  0  0  0  0  0  0  0  0  0
   23.6643  -20.1358  -10.5522 O   0  0  0  0  0  0  0  0  0  0  0  0
   25.2342  -20.2320  -12.1727 N   0  0  0  0  0  0  0  0  0  0  0  0
   24.2379  -19.7568  -13.1435 C   0  0  1  0  0  0  0  0  0  0  0  0
   25.0665  -19.5691  -14.4002 C   0  0  0  0  0  0  0  0  0  0  0  0
   24.3636  -19.0938  -15.6032 C   0  0  0  0  0  0  0  0  0  0  0  0
   25.1994  -18.9390  -16.7977 C   0  0  0  0  0  0  0  0  0  0  0  0
   24.7122  -18.5292  -17.8732 O   0  0  0  0  0  0  0  0  0  0  0  0
   23.2364  -20.8105  -13.4003 C   0  0  0  0  0  0  0  0  0  0  0  0
   23.5031  -22.0218  -13.2162 O   0  0  0  0  0  0  0  0  0  0  0  0
   26.5453  -19.2428  -16.7610 O   0  0  0  0  0  0  0  0  0  0  0  0
   18.3699  -23.0402  -11.3802 N   0  0  0  0  0  0  0  0  0  0  0  0
   18.2931  -21.6262  -11.4401 C   0  0  0  0  0  0  0  0  0  0  0  0
   17.3444  -21.0221  -10.9102 O   0  0  0  0  0  0  0  0  0  0  0  0
   19.3546  -20.8782  -12.1400 C   0  0  0  0  0  0  0  0  0  0  0  0
   20.4682  -21.8133  -12.5133 C   0  0  0  0  0  0  0  0  0  0  0  0
   20.8913  -21.5164  -13.9470 C   0  0  2  0  0  0  0  0  0  0  0  0
   21.9474  -20.4816  -13.8562 N   0  0  0  0  0  0  0  0  0  0  0  0
   19.6868  -21.0112  -14.6347 C   0  0  0  0  0  0  0  0  0  0  0  0
   18.7207  -21.9117  -15.0428 O   0  0  0  0  0  0  0  0  0  0  0  0
   19.5043  -19.7965  -14.8640 O   0  0  0  0  0  0  0  0  0  0  0  0
  2  3  1  0
  2  1  1  0
  4  5  1  0
  4  3  1  0
  5  6  1  6
  7  5  1  0
  7  8  2  0
  9  7  1  0
 10  9  1  0
 10 11  1  6
 12 11  1  0
 13 12  1  0
 14 13  2  0
 15 10  1  0
 16 15  2  0
 17 13  1  0
 19 18  1  0
 20 19  2  0
 21 19  1  0
 22 21  1  0
 23 22  1  1
 23 24  1  0
 24 15  1  0
 25 23  1  0
 26 25  1  0
 27 25  2  0
M  END
$$$$
