MEQ.pdb
     RDKit          3D

 27 26  0  0  1  0  0  0  0  0999 V2000
   25.2305  -19.8226  -20.7711 C   0  0  0  0  0  0  0  0  0  0  0  0
   26.5248  -18.5727  -20.5826 S   0  0  0  0  0  0  0  0  0  0  0  0
   27.3842  -18.8740  -19.0349 C   0  0  0  0  0  0  0  0  0  0  0  0
   26.5099  -18.7848  -17.8366 C   0  0  0  0  0  0  0  0  0  0  0  0
   25.7502  -17.5115  -17.6846 C   0  0  2  0  0  0  0  0  0  0  0  0
   26.8106  -16.4943  -17.3730 N   0  0  0  0  0  0  0  0  0  0  0  0
   24.7668  -17.4982  -16.5856 C   0  0  0  0  0  0  0  0  0  0  0  0
   25.0483  -17.7355  -15.3725 O   0  0  0  0  0  0  0  0  0  0  0  0
   23.3982  -17.2098  -16.8220 N   0  0  0  0  0  0  0  0  0  0  0  0
   22.4541  -17.1412  -15.6973 C   0  0  1  0  0  0  0  0  0  0  0  0
   21.7067  -15.8505  -15.9732 C   0  0  0  0  0  0  0  0  0  0  0  0
   20.2593  -15.9526  -16.2221 C   0  0  0  0  0  0  0  0  0  0  0  0
   19.5677  -14.6773  -16.4327 C   0  0  0  0  0  0  0  0  0  0  0  0
   19.6323  -14.0860  -17.5319 O   0  0  0  0  0  0  0  0  0  0  0  0
   21.4934  -18.2596  -15.7720 C   0  0  0  0  0  0  0  0  0  0  0  0
   21.3146  -18.8950  -16.8382 O   0  0  0  0  0  0  0  0  0  0  0  0
   18.8286  -14.1001  -15.4199 O   0  0  0  0  0  0  0  0  0  0  0  0
   16.8818  -22.3692  -11.6754 N   0  0  0  0  0  0  0  0  0  0  0  0
   17.6378  -21.2098  -11.9808 C   0  0  0  0  0  0  0  0  0  0  0  0
   17.7543  -20.2941  -11.1479 O   0  0  0  0  0  0  0  0  0  0  0  0
   18.2861  -21.1024  -13.3016 C   0  0  0  0  0  0  0  0  0  0  0  0
   19.1533  -19.8776  -13.3395 C   0  0  0  0  0  0  0  0  0  0  0  0
   19.8213  -19.7980  -14.7070 C   0  0  2  0  0  0  0  0  0  0  0  0
   20.7523  -18.6477  -14.6416 N   0  0  0  0  0  0  0  0  0  0  0  0
   18.7363  -19.5701  -15.6817 C   0  0  0  0  0  0  0  0  0  0  0  0
   18.1356  -18.3264  -15.7372 O   0  0  0  0  0  0  0  0  0  0  0  0
   18.3370  -20.4603  -16.4623 O   0  0  0  0  0  0  0  0  0  0  0  0
  2  3  1  0
  2  1  1  0
  4  5  1  0
  4  3  1  0
  5  6  1  1
  7  5  1  0
  7  8  2  0
  9  7  1  0
 10  9  1  0
 10 11  1  6
 12 11  1  0
 13 12  1  0
 14 13  2  0
 15 10  1  0
 16 15  2  0
 17 13  1  0
 19 18  1  0
 20 19  2  0
 21 19  1  0
 22 21  1  0
 23 22  1  1
 23 24  1  0
 24 15  1  0
 25 23  1  0
 26 25  1  0
 27 25  2  0
M  END
$$$$
