MEQ.pdb
     RDKit          3D

 27 26  0  0  1  0  0  0  0  0999 V2000
   27.2287  -14.7895  -14.6503 C   0  0  0  0  0  0  0  0  0  0  0  0
   26.4978  -16.1065  -15.6525 S   0  0  0  0  0  0  0  0  0  0  0  0
   26.3321  -15.5115  -17.3387 C   0  0  0  0  0  0  0  0  0  0  0  0
   25.3136  -14.4414  -17.4994 C   0  0  0  0  0  0  0  0  0  0  0  0
   24.0125  -14.8707  -18.0861 C   0  0  2  0  0  0  0  0  0  0  0  0
   24.3595  -15.2415  -19.4997 N   0  0  0  0  0  0  0  0  0  0  0  0
   22.9720  -13.8265  -18.1296 C   0  0  0  0  0  0  0  0  0  0  0  0
   22.8921  -12.9349  -19.0272 O   0  0  0  0  0  0  0  0  0  0  0  0
   21.9604  -13.7494  -17.1381 N   0  0  0  0  0  0  0  0  0  0  0  0
   21.0175  -12.6216  -17.1328 C   0  0  1  0  0  0  0  0  0  0  0  0
   19.6910  -13.3030  -16.8552 C   0  0  0  0  0  0  0  0  0  0  0  0
   19.3928  -13.6471  -15.4553 C   0  0  0  0  0  0  0  0  0  0  0  0
   18.0875  -14.2746  -15.2282 C   0  0  0  0  0  0  0  0  0  0  0  0
   17.3506  -14.5883  -16.1877 O   0  0  0  0  0  0  0  0  0  0  0  0
   21.3179  -11.7139  -16.0081 C   0  0  0  0  0  0  0  0  0  0  0  0
   21.4117  -12.1413  -14.8329 O   0  0  0  0  0  0  0  0  0  0  0  0
   17.6426  -14.5336  -13.9475 O   0  0  0  0  0  0  0  0  0  0  0  0
   25.9986  -10.4400  -14.6384 N   0  0  0  0  0  0  0  0  0  0  0  0
   25.6625   -9.6166  -15.7421 C   0  0  0  0  0  0  0  0  0  0  0  0
   26.5424   -9.2219  -16.5268 O   0  0  0  0  0  0  0  0  0  0  0  0
   24.2532   -9.2328  -15.9490 C   0  0  0  0  0  0  0  0  0  0  0  0
   23.4075   -9.8078  -14.8500 C   0  0  0  0  0  0  0  0  0  0  0  0
   21.9506   -9.4529  -15.1225 C   0  0  2  0  0  0  0  0  0  0  0  0
   21.5130  -10.3384  -16.2264 N   0  0  0  0  0  0  0  0  0  0  0  0
   21.9417   -8.0321  -15.5233 C   0  0  0  0  0  0  0  0  0  0  0  0
   22.1849   -7.0644  -14.5667 O   0  0  0  0  0  0  0  0  0  0  0  0
   21.7222   -7.6673  -16.6980 O   0  0  0  0  0  0  0  0  0  0  0  0
  2  3  1  0
  2  1  1  0
  4  5  1  0
  4  3  1  0
  5  6  1  6
  7  5  1  0
  7  8  2  0
  9  7  1  0
 10  9  1  0
 10 11  1  1
 12 11  1  0
 13 12  1  0
 14 13  2  0
 15 10  1  0
 16 15  2  0
 17 13  1  0
 19 18  1  0
 20 19  2  0
 21 19  1  0
 22 21  1  0
 23 22  1  6
 23 24  1  0
 24 15  1  0
 25 23  1  0
 26 25  1  0
 27 25  2  0
M  END
$$$$
