MEQ.pdb
     RDKit          3D

 27 26  0  0  1  0  0  0  0  0999 V2000
   27.6492  -13.5355  -14.5911 C   0  0  0  0  0  0  0  0  0  0  0  0
   27.7669  -13.8459  -16.3695 S   0  0  0  0  0  0  0  0  0  0  0  0
   28.3994  -12.3648  -17.1639 C   0  0  0  0  0  0  0  0  0  0  0  0
   27.3584  -11.3404  -17.4378 C   0  0  0  0  0  0  0  0  0  0  0  0
   26.0755  -11.8557  -17.9945 C   0  0  2  0  0  0  0  0  0  0  0  0
   26.4131  -12.2020  -19.4166 N   0  0  0  0  0  0  0  0  0  0  0  0
   24.9666  -10.8837  -18.0114 C   0  0  0  0  0  0  0  0  0  0  0  0
   24.8936   -9.8973  -18.8044 O   0  0  0  0  0  0  0  0  0  0  0  0
   23.8744  -10.9927  -17.1128 N   0  0  0  0  0  0  0  0  0  0  0  0
   22.8003   -9.9893  -17.1324 C   0  0  1  0  0  0  0  0  0  0  0  0
   21.6637  -10.7101  -16.4328 C   0  0  0  0  0  0  0  0  0  0  0  0
   20.3900   -9.9844  -16.2984 C   0  0  0  0  0  0  0  0  0  0  0  0
   19.3320  -10.7022  -15.5809 C   0  0  0  0  0  0  0  0  0  0  0  0
   19.4886  -11.8907  -15.2276 O   0  0  0  0  0  0  0  0  0  0  0  0
   23.1823   -8.8207  -16.3152 C   0  0  0  0  0  0  0  0  0  0  0  0
   23.9715   -8.9323  -15.3472 O   0  0  0  0  0  0  0  0  0  0  0  0
   18.1373  -10.0802  -15.2791 O   0  0  0  0  0  0  0  0  0  0  0  0
   24.8407   -3.6738  -18.6557 N   0  0  0  0  0  0  0  0  0  0  0  0
   24.8252   -3.2709  -17.2968 C   0  0  0  0  0  0  0  0  0  0  0  0
   25.2750   -2.1613  -16.9617 O   0  0  0  0  0  0  0  0  0  0  0  0
   24.2679   -4.1859  -16.2827 C   0  0  0  0  0  0  0  0  0  0  0  0
   23.7597   -5.4303  -16.9513 C   0  0  0  0  0  0  0  0  0  0  0  0
   23.1724   -6.3483  -15.8859 C   0  0  2  0  0  0  0  0  0  0  0  0
   22.6721   -7.5427  -16.6053 N   0  0  0  0  0  0  0  0  0  0  0  0
   22.0755   -5.5917  -15.2508 C   0  0  0  0  0  0  0  0  0  0  0  0
   22.3122   -4.9488  -14.0503 O   0  0  0  0  0  0  0  0  0  0  0  0
   20.9361   -5.5087  -15.7570 O   0  0  0  0  0  0  0  0  0  0  0  0
  2  3  1  0
  2  1  1  0
  4  5  1  0
  4  3  1  0
  5  6  1  6
  7  5  1  0
  7  8  2  0
  9  7  1  0
 10  9  1  0
 10 11  1  1
 12 11  1  0
 13 12  1  0
 14 13  2  0
 15 10  1  0
 16 15  2  0
 17 13  1  0
 19 18  1  0
 20 19  2  0
 21 19  1  0
 22 21  1  0
 23 22  1  6
 23 24  1  0
 24 15  1  0
 25 23  1  0
 26 25  1  0
 27 25  2  0
M  END
$$$$
