MEQ.pdb
     RDKit          3D

 27 26  0  0  1  0  0  0  0  0999 V2000
   15.2888  -11.1421  -18.1722 C   0  0  0  0  0  0  0  0  0  0  0  0
   16.5086  -10.0846  -17.3555 S   0  0  0  0  0  0  0  0  0  0  0  0
   15.6591   -9.0720  -16.1399 C   0  0  0  0  0  0  0  0  0  0  0  0
   16.5355   -8.0741  -15.4733 C   0  0  0  0  0  0  0  0  0  0  0  0
   17.7648   -8.6203  -14.8316 C   0  0  2  0  0  0  0  0  0  0  0  0
   17.2778   -9.1511  -13.5135 N   0  0  0  0  0  0  0  0  0  0  0  0
   18.8225   -7.6285  -14.5624 C   0  0  0  0  0  0  0  0  0  0  0  0
   18.7738   -6.7668  -13.6339 O   0  0  0  0  0  0  0  0  0  0  0  0
   20.0008   -7.5723  -15.3502 N   0  0  0  0  0  0  0  0  0  0  0  0
   21.0219   -6.5504  -15.0780 C   0  0  1  0  0  0  0  0  0  0  0  0
   22.2742   -7.1714  -15.6670 C   0  0  0  0  0  0  0  0  0  0  0  0
   23.5248   -6.4043  -15.5461 C   0  0  0  0  0  0  0  0  0  0  0  0
   24.7271   -7.0834  -16.0385 C   0  0  0  0  0  0  0  0  0  0  0  0
   25.4231   -7.7889  -15.2770 O   0  0  0  0  0  0  0  0  0  0  0  0
   20.7179   -5.3163  -15.8289 C   0  0  0  0  0  0  0  0  0  0  0  0
   19.9878   -5.3368  -16.8482 O   0  0  0  0  0  0  0  0  0  0  0  0
   25.1179   -6.9587  -17.3565 O   0  0  0  0  0  0  0  0  0  0  0  0
   16.7830   -2.6895  -16.5509 N   0  0  0  0  0  0  0  0  0  0  0  0
   17.4859   -1.5152  -16.9199 C   0  0  0  0  0  0  0  0  0  0  0  0
   16.9057   -0.5943  -17.5207 O   0  0  0  0  0  0  0  0  0  0  0  0
   18.9171   -1.3987  -16.5819 C   0  0  0  0  0  0  0  0  0  0  0  0
   19.3687   -2.6387  -15.8662 C   0  0  0  0  0  0  0  0  0  0  0  0
   20.8602   -2.8276  -16.1167 C   0  0  2  0  0  0  0  0  0  0  0  0
   21.2380   -4.0768  -15.4158 N   0  0  0  0  0  0  0  0  0  0  0  0
   21.5277   -1.6478  -15.5321 C   0  0  0  0  0  0  0  0  0  0  0  0
   21.7399   -0.5361  -16.3256 O   0  0  0  0  0  0  0  0  0  0  0  0
   21.9105   -1.6135  -14.3431 O   0  0  0  0  0  0  0  0  0  0  0  0
  2  3  1  0
  2  1  1  0
  4  5  1  0
  4  3  1  0
  5  6  1  1
  7  5  1  0
  7  8  2  0
  9  7  1  0
 10  9  1  0
 10 11  1  6
 12 11  1  0
 13 12  1  0
 14 13  2  0
 15 10  1  0
 16 15  2  0
 17 13  1  0
 19 18  1  0
 20 19  2  0
 21 19  1  0
 22 21  1  0
 23 22  1  1
 23 24  1  0
 24 15  1  0
 25 23  1  0
 26 25  1  0
 27 25  2  0
M  END
$$$$
