MEQ.pdb
     RDKit          3D

 27 26  0  0  1  0  0  0  0  0999 V2000
   26.2559  -17.0367  -15.5800 C   0  0  0  0  0  0  0  0  0  0  0  0
   26.3000  -18.5386  -16.5876 S   0  0  0  0  0  0  0  0  0  0  0  0
   25.2854  -19.7875  -15.7901 C   0  0  0  0  0  0  0  0  0  0  0  0
   25.5838  -19.9694  -14.3458 C   0  0  0  0  0  0  0  0  0  0  0  0
   24.8749  -21.0969  -13.6767 C   0  0  2  0  0  0  0  0  0  0  0  0
   24.7145  -22.1188  -14.7658 N   0  0  0  0  0  0  0  0  0  0  0  0
   23.5347  -20.7706  -13.1549 C   0  0  0  0  0  0  0  0  0  0  0  0
   23.3173  -19.9741  -12.1930 O   0  0  0  0  0  0  0  0  0  0  0  0
   22.3641  -21.3451  -13.7135 N   0  0  0  0  0  0  0  0  0  0  0  0
   21.0388  -20.9496  -13.2155 C   0  0  1  0  0  0  0  0  0  0  0  0
   20.4142  -20.2899  -14.4302 C   0  0  0  0  0  0  0  0  0  0  0  0
   20.7433  -18.8751  -14.6697 C   0  0  0  0  0  0  0  0  0  0  0  0
   20.0544  -18.2546  -15.8052 C   0  0  0  0  0  0  0  0  0  0  0  0
   19.8105  -18.9075  -16.8426 O   0  0  0  0  0  0  0  0  0  0  0  0
   20.2450  -22.1475  -12.8778 C   0  0  0  0  0  0  0  0  0  0  0  0
   20.4160  -23.2338  -13.4805 O   0  0  0  0  0  0  0  0  0  0  0  0
   19.6591  -16.9331  -15.7539 O   0  0  0  0  0  0  0  0  0  0  0  0
   18.9257  -24.1148   -7.4209 N   0  0  0  0  0  0  0  0  0  0  0  0
   18.2000  -25.0585   -8.1903 C   0  0  0  0  0  0  0  0  0  0  0  0
   17.7226  -26.0750   -7.6570 O   0  0  0  0  0  0  0  0  0  0  0  0
   18.0177  -24.8195   -9.6346 C   0  0  0  0  0  0  0  0  0  0  0  0
   18.7335  -23.5612  -10.0318 C   0  0  0  0  0  0  0  0  0  0  0  0
   18.4882  -23.3107  -11.5150 C   0  0  2  0  0  0  0  0  0  0  0  0
   19.2737  -22.1036  -11.8618 N   0  0  0  0  0  0  0  0  0  0  0  0
   17.0372  -23.0801  -11.6583 C   0  0  0  0  0  0  0  0  0  0  0  0
   16.5459  -21.7954  -11.5205 O   0  0  0  0  0  0  0  0  0  0  0  0
   16.2312  -24.0038  -11.9002 O   0  0  0  0  0  0  0  0  0  0  0  0
  2  3  1  0
  2  1  1  0
  4  5  1  0
  4  3  1  0
  5  6  1  6
  7  5  1  0
  7  8  2  0
  9  7  1  0
 10  9  1  0
 10 11  1  6
 12 11  1  0
 13 12  1  0
 14 13  2  0
 15 10  1  0
 16 15  2  0
 17 13  1  0
 19 18  1  0
 20 19  2  0
 21 19  1  0
 22 21  1  0
 23 22  1  1
 23 24  1  0
 24 15  1  0
 25 23  1  0
 26 25  1  0
 27 25  2  0
M  END
$$$$
