MEQ.pdb
     RDKit          3D

 27 26  0  0  1  0  0  0  0  0999 V2000
   28.0751  -20.4516  -17.1092 C   0  0  0  0  0  0  0  0  0  0  0  0
   26.4229  -19.7233  -16.9970 S   0  0  0  0  0  0  0  0  0  0  0  0
   26.0347  -19.4603  -15.2636 C   0  0  0  0  0  0  0  0  0  0  0  0
   26.4449  -20.5828  -14.3804 C   0  0  0  0  0  0  0  0  0  0  0  0
   25.3874  -21.5898  -14.0821 C   0  0  2  0  0  0  0  0  0  0  0  0
   24.9657  -22.0817  -15.4372 N   0  0  0  0  0  0  0  0  0  0  0  0
   24.1944  -21.0586  -13.3969 C   0  0  0  0  0  0  0  0  0  0  0  0
   24.2081  -20.5328  -12.2435 O   0  0  0  0  0  0  0  0  0  0  0  0
   22.9127  -21.1030  -14.0033 N   0  0  0  0  0  0  0  0  0  0  0  0
   21.7240  -20.6844  -13.2466 C   0  0  1  0  0  0  0  0  0  0  0  0
   21.0788  -19.6763  -14.1785 C   0  0  0  0  0  0  0  0  0  0  0  0
   19.8405  -19.0294  -13.7145 C   0  0  0  0  0  0  0  0  0  0  0  0
   19.1724  -18.1743  -14.7002 C   0  0  0  0  0  0  0  0  0  0  0  0
   19.5092  -16.9796  -14.8465 O   0  0  0  0  0  0  0  0  0  0  0  0
   20.7995  -21.8235  -13.0824 C   0  0  0  0  0  0  0  0  0  0  0  0
   20.7523  -22.7511  -13.9248 O   0  0  0  0  0  0  0  0  0  0  0  0
   18.1548  -18.6703  -15.4899 O   0  0  0  0  0  0  0  0  0  0  0  0
   19.3062  -24.5415   -8.1412 N   0  0  0  0  0  0  0  0  0  0  0  0
   18.1767  -24.9879   -8.8719 C   0  0  0  0  0  0  0  0  0  0  0  0
   17.5611  -26.0096   -8.5214 O   0  0  0  0  0  0  0  0  0  0  0  0
   17.7395  -24.2241  -10.0558 C   0  0  0  0  0  0  0  0  0  0  0  0
   18.6881  -23.0867  -10.3007 C   0  0  0  0  0  0  0  0  0  0  0  0
   19.0532  -23.0691  -11.7802 C   0  0  2  0  0  0  0  0  0  0  0  0
   19.9455  -21.9016  -11.9679 N   0  0  0  0  0  0  0  0  0  0  0  0
   17.7828  -22.9115  -12.5152 C   0  0  0  0  0  0  0  0  0  0  0  0
   17.2325  -24.0116  -13.1459 O   0  0  0  0  0  0  0  0  0  0  0  0
   17.1818  -21.8186  -12.5906 O   0  0  0  0  0  0  0  0  0  0  0  0
  2  3  1  0
  2  1  1  0
  4  5  1  0
  4  3  1  0
  5  6  1  6
  7  5  1  0
  7  8  2  0
  9  7  1  0
 10  9  1  0
 10 11  1  6
 12 11  1  0
 13 12  1  0
 14 13  2  0
 15 10  1  0
 16 15  2  0
 17 13  1  0
 19 18  1  0
 20 19  2  0
 21 19  1  0
 22 21  1  0
 23 22  1  1
 23 24  1  0
 24 15  1  0
 25 23  1  0
 26 25  1  0
 27 25  2  0
M  END
$$$$
