MEQ.pdb
     RDKit          3D

 27 26  0  0  1  0  0  0  0  0999 V2000
   24.7788  -20.2287  -20.3674 C   0  0  0  0  0  0  0  0  0  0  0  0
   23.7570  -20.2877  -18.8756 S   0  0  0  0  0  0  0  0  0  0  0  0
   24.5572  -21.3638  -17.6813 C   0  0  0  0  0  0  0  0  0  0  0  0
   23.7609  -21.5859  -16.4465 C   0  0  0  0  0  0  0  0  0  0  0  0
   23.4555  -20.3659  -15.6466 C   0  0  2  0  0  0  0  0  0  0  0  0
   24.8042  -19.8869  -15.1910 N   0  0  0  0  0  0  0  0  0  0  0  0
   22.6236  -20.5951  -14.4506 C   0  0  0  0  0  0  0  0  0  0  0  0
   23.0833  -20.8918  -13.3071 O   0  0  0  0  0  0  0  0  0  0  0  0
   21.2096  -20.4953  -14.5037 N   0  0  0  0  0  0  0  0  0  0  0  0
   20.4117  -20.6677  -13.2811 C   0  0  1  0  0  0  0  0  0  0  0  0
   19.3929  -19.5495  -13.3927 C   0  0  0  0  0  0  0  0  0  0  0  0
   19.8850  -18.1729  -13.2200 C   0  0  0  0  0  0  0  0  0  0  0  0
   18.8554  -17.1299  -13.2550 C   0  0  0  0  0  0  0  0  0  0  0  0
   19.1644  -15.9206  -13.1897 O   0  0  0  0  0  0  0  0  0  0  0  0
   19.6933  -21.9567  -13.3213 C   0  0  0  0  0  0  0  0  0  0  0  0
   19.2049  -22.3976  -14.3888 O   0  0  0  0  0  0  0  0  0  0  0  0
   17.5195  -17.4607  -13.3611 O   0  0  0  0  0  0  0  0  0  0  0  0
   18.9185  -25.5936   -8.3131 N   0  0  0  0  0  0  0  0  0  0  0  0
   18.3302  -24.3112   -8.4490 C   0  0  0  0  0  0  0  0  0  0  0  0
   17.8788  -23.7148   -7.4559 O   0  0  0  0  0  0  0  0  0  0  0  0
   18.2600  -23.6912   -9.7857 C   0  0  0  0  0  0  0  0  0  0  0  0
   18.8936  -24.6014  -10.7976 C   0  0  0  0  0  0  0  0  0  0  0  0
   18.7370  -23.9757  -12.1785 C   0  0  2  0  0  0  0  0  0  0  0  0
   19.5407  -22.7315  -12.1577 N   0  0  0  0  0  0  0  0  0  0  0  0
   17.2970  -23.6952  -12.3418 C   0  0  0  0  0  0  0  0  0  0  0  0
   16.8366  -22.4090  -12.1314 O   0  0  0  0  0  0  0  0  0  0  0  0
   16.4734  -24.5779  -12.6640 O   0  0  0  0  0  0  0  0  0  0  0  0
  2  3  1  0
  2  1  1  0
  4  5  1  0
  4  3  1  0
  5  6  1  1
  7  5  1  0
  7  8  2  0
  9  7  1  0
 10  9  1  0
 10 11  1  6
 12 11  1  0
 13 12  1  0
 14 13  2  0
 15 10  1  0
 16 15  2  0
 17 13  1  0
 19 18  1  0
 20 19  2  0
 21 19  1  0
 22 21  1  0
 23 22  1  1
 23 24  1  0
 24 15  1  0
 25 23  1  0
 26 25  1  0
 27 25  2  0
M  END
$$$$
