MEQ.pdb
     RDKit          3D

 27 26  0  0  1  0  0  0  0  0999 V2000
   28.7878  -20.3345   -9.0879 C   0  0  0  0  0  0  0  0  0  0  0  0
   29.7720  -20.7337  -10.5524 S   0  0  0  0  0  0  0  0  0  0  0  0
   28.6802  -20.7703  -11.9776 C   0  0  0  0  0  0  0  0  0  0  0  0
   27.3453  -21.3588  -11.6951 C   0  0  0  0  0  0  0  0  0  0  0  0
   26.4136  -21.4341  -12.8560 C   0  0  2  0  0  0  0  0  0  0  0  0
   26.5370  -20.0852  -13.5052 N   0  0  0  0  0  0  0  0  0  0  0  0
   24.9964  -21.6457  -12.5070 C   0  0  0  0  0  0  0  0  0  0  0  0
   24.5671  -22.6252  -11.8264 O   0  0  0  0  0  0  0  0  0  0  0  0
   23.9892  -20.7377  -12.9235 N   0  0  0  0  0  0  0  0  0  0  0  0
   22.5719  -21.1175  -12.8353 C   0  0  1  0  0  0  0  0  0  0  0  0
   21.8815  -19.7767  -12.6721 C   0  0  0  0  0  0  0  0  0  0  0  0
   20.4105  -19.7674  -12.7296 C   0  0  0  0  0  0  0  0  0  0  0  0
   19.7895  -18.4403  -12.6824 C   0  0  0  0  0  0  0  0  0  0  0  0
   20.1334  -17.5421  -13.4806 O   0  0  0  0  0  0  0  0  0  0  0  0
   22.1268  -21.7173  -14.1086 C   0  0  0  0  0  0  0  0  0  0  0  0
   22.4775  -21.2375  -15.2128 O   0  0  0  0  0  0  0  0  0  0  0  0
   18.8095  -18.1526  -11.7539 O   0  0  0  0  0  0  0  0  0  0  0  0
   21.8672  -27.5814  -14.9645 N   0  0  0  0  0  0  0  0  0  0  0  0
   20.8746  -27.0523  -14.1020 C   0  0  0  0  0  0  0  0  0  0  0  0
   20.3218  -27.7763  -13.2558 O   0  0  0  0  0  0  0  0  0  0  0  0
   20.5046  -25.6292  -14.2206 C   0  0  0  0  0  0  0  0  0  0  0  0
   21.3713  -24.9671  -15.2522 C   0  0  0  0  0  0  0  0  0  0  0  0
   20.9346  -23.5137  -15.3926 C   0  0  2  0  0  0  0  0  0  0  0  0
   21.2967  -22.8525  -14.1174 N   0  0  0  0  0  0  0  0  0  0  0  0
   19.4732  -23.5418  -15.5996 C   0  0  0  0  0  0  0  0  0  0  0  0
   18.9767  -23.9775  -16.8138 O   0  0  0  0  0  0  0  0  0  0  0  0
   18.6632  -23.1859  -14.7173 O   0  0  0  0  0  0  0  0  0  0  0  0
  2  3  1  0
  2  1  1  0
  4  5  1  0
  4  3  1  0
  5  6  1  1
  7  5  1  0
  7  8  2  0
  9  7  1  0
 10  9  1  0
 10 11  1  6
 12 11  1  0
 13 12  1  0
 14 13  2  0
 15 10  1  0
 16 15  2  0
 17 13  1  0
 19 18  1  0
 20 19  2  0
 21 19  1  0
 22 21  1  0
 23 22  1  1
 23 24  1  0
 24 15  1  0
 25 23  1  0
 26 25  1  0
 27 25  2  0
M  END
$$$$
