MEQ.pdb
     RDKit          3D

 27 26  0  0  1  0  0  0  0  0999 V2000
   23.4990  -11.5998  -24.4248 C   0  0  0  0  0  0  0  0  0  0  0  0
   23.4267   -9.8859  -23.8502 S   0  0  0  0  0  0  0  0  0  0  0  0
   22.4743   -9.8367  -22.3286 C   0  0  0  0  0  0  0  0  0  0  0  0
   22.1444   -8.4616  -21.8722 C   0  0  0  0  0  0  0  0  0  0  0  0
   21.3695   -8.3708  -20.6023 C   0  0  2  0  0  0  0  0  0  0  0  0
   19.9394   -8.3030  -21.0570 N   0  0  0  0  0  0  0  0  0  0  0  0
   21.6467   -7.1747  -19.7853 C   0  0  0  0  0  0  0  0  0  0  0  0
   22.7164   -6.9892  -19.1309 O   0  0  0  0  0  0  0  0  0  0  0  0
   20.7043   -6.1203  -19.6752 N   0  0  0  0  0  0  0  0  0  0  0  0
   21.0082   -4.9429  -18.8490 C   0  0  1  0  0  0  0  0  0  0  0  0
   19.9892   -3.9291  -19.3334 C   0  0  0  0  0  0  0  0  0  0  0  0
   19.9387   -2.6381  -18.6278 C   0  0  0  0  0  0  0  0  0  0  0  0
   18.9482   -1.6841  -19.1359 C   0  0  0  0  0  0  0  0  0  0  0  0
   18.9131   -0.5087  -18.7126 O   0  0  0  0  0  0  0  0  0  0  0  0
   20.7338   -5.2352  -17.4283 C   0  0  0  0  0  0  0  0  0  0  0  0
   19.7915   -5.9894  -17.0883 O   0  0  0  0  0  0  0  0  0  0  0  0
   18.0306   -2.0635  -20.0947 O   0  0  0  0  0  0  0  0  0  0  0  0
   22.6632   -9.1191  -14.7249 N   0  0  0  0  0  0  0  0  0  0  0  0
   22.1123   -8.5305  -13.5591 C   0  0  0  0  0  0  0  0  0  0  0  0
   21.9754   -9.1977  -12.5189 O   0  0  0  0  0  0  0  0  0  0  0  0
   21.7024   -7.1139  -13.5947 C   0  0  0  0  0  0  0  0  0  0  0  0
   21.8949   -6.5680  -14.9799 C   0  0  0  0  0  0  0  0  0  0  0  0
   21.3917   -5.1297  -15.0090 C   0  0  2  0  0  0  0  0  0  0  0  0
   21.5295   -4.6761  -16.4124 N   0  0  0  0  0  0  0  0  0  0  0  0
   22.2697   -4.3686  -14.0984 C   0  0  0  0  0  0  0  0  0  0  0  0
   23.5249   -3.9914  -14.5375 O   0  0  0  0  0  0  0  0  0  0  0  0
   21.9223   -4.0501  -12.9412 O   0  0  0  0  0  0  0  0  0  0  0  0
  2  3  1  0
  2  1  1  0
  4  5  1  0
  4  3  1  0
  5  6  1  6
  7  5  1  0
  7  8  2  0
  9  7  1  0
 10  9  1  0
 10 11  1  6
 12 11  1  0
 13 12  1  0
 14 13  2  0
 15 10  1  0
 16 15  2  0
 17 13  1  0
 19 18  1  0
 20 19  2  0
 21 19  1  0
 22 21  1  0
 23 22  1  6
 23 24  1  0
 24 15  1  0
 25 23  1  0
 26 25  1  0
 27 25  2  0
M  END
$$$$
