MEQ.pdb
     RDKit          3D

 27 26  0  0  1  0  0  0  0  0999 V2000
   27.4160  -18.2279   -7.0296 C   0  0  0  0  0  0  0  0  0  0  0  0
   28.1355  -19.8627   -6.7417 S   0  0  0  0  0  0  0  0  0  0  0  0
   27.5500  -20.9747   -8.0244 C   0  0  0  0  0  0  0  0  0  0  0  0
   26.5680  -20.3556   -8.9521 C   0  0  0  0  0  0  0  0  0  0  0  0
   26.0644  -21.2378  -10.0427 C   0  0  2  0  0  0  0  0  0  0  0  0
   27.3145  -21.7949  -10.6617 N   0  0  0  0  0  0  0  0  0  0  0  0
   25.2984  -20.5503  -11.0989 C   0  0  0  0  0  0  0  0  0  0  0  0
   24.6387  -19.4823  -10.9224 O   0  0  0  0  0  0  0  0  0  0  0  0
   25.2484  -21.0556  -12.4234 N   0  0  0  0  0  0  0  0  0  0  0  0
   24.5872  -20.2811  -13.4836 C   0  0  1  0  0  0  0  0  0  0  0  0
   25.5296  -20.4605  -14.6586 C   0  0  0  0  0  0  0  0  0  0  0  0
   26.7398  -19.6227  -14.6829 C   0  0  0  0  0  0  0  0  0  0  0  0
   27.6390  -19.8526  -15.8177 C   0  0  0  0  0  0  0  0  0  0  0  0
   28.7549  -20.3908  -15.6536 O   0  0  0  0  0  0  0  0  0  0  0  0
   23.2910  -20.8972  -13.8293 C   0  0  0  0  0  0  0  0  0  0  0  0
   23.0742  -22.1157  -13.6277 O   0  0  0  0  0  0  0  0  0  0  0  0
   27.2725  -19.4790  -17.0950 O   0  0  0  0  0  0  0  0  0  0  0  0
   19.6118  -20.4078  -10.2941 N   0  0  0  0  0  0  0  0  0  0  0  0
   18.6670  -20.8729  -11.2428 C   0  0  0  0  0  0  0  0  0  0  0  0
   17.5285  -21.2193  -10.8828 O   0  0  0  0  0  0  0  0  0  0  0  0
   19.0514  -20.9411  -12.6654 C   0  0  0  0  0  0  0  0  0  0  0  0
   20.4743  -20.4899  -12.8253 C   0  0  0  0  0  0  0  0  0  0  0  0
   20.8475  -20.5749  -14.3006 C   0  0  2  0  0  0  0  0  0  0  0  0
   22.2569  -20.1285  -14.3927 N   0  0  0  0  0  0  0  0  0  0  0  0
   19.9343  -19.6565  -15.0090 C   0  0  0  0  0  0  0  0  0  0  0  0
   20.3722  -18.3824  -15.3182 O   0  0  0  0  0  0  0  0  0  0  0  0
   18.7760  -19.9860  -15.3421 O   0  0  0  0  0  0  0  0  0  0  0  0
  2  3  1  0
  2  1  1  0
  4  5  1  0
  4  3  1  0
  5  6  1  6
  7  5  1  0
  7  8  2  0
  9  7  1  0
 10  9  1  0
 10 11  1  6
 12 11  1  0
 13 12  1  0
 14 13  2  0
 15 10  1  0
 16 15  2  0
 17 13  1  0
 19 18  1  0
 20 19  2  0
 21 19  1  0
 22 21  1  0
 23 22  1  1
 23 24  1  0
 24 15  1  0
 25 23  1  0
 26 25  1  0
 27 25  2  0
M  END
$$$$
