MEQ.pdb
     RDKit          3D

 27 26  0  0  1  0  0  0  0  0999 V2000
   28.1751  -17.9375   -7.5912 C   0  0  0  0  0  0  0  0  0  0  0  0
   27.4652  -19.4276   -6.8505 S   0  0  0  0  0  0  0  0  0  0  0  0
   27.5445  -20.7548   -8.0576 C   0  0  0  0  0  0  0  0  0  0  0  0
   26.8032  -20.4681   -9.3132 C   0  0  0  0  0  0  0  0  0  0  0  0
   26.8913  -21.5162  -10.3692 C   0  0  2  0  0  0  0  0  0  0  0  0
   28.3542  -21.5657  -10.7064 N   0  0  0  0  0  0  0  0  0  0  0  0
   26.1466  -21.2200  -11.6071 C   0  0  0  0  0  0  0  0  0  0  0  0
   26.5936  -20.5090  -12.5567 O   0  0  0  0  0  0  0  0  0  0  0  0
   24.8396  -21.7276  -11.8227 N   0  0  0  0  0  0  0  0  0  0  0  0
   24.1856  -21.5502  -13.1272 C   0  0  1  0  0  0  0  0  0  0  0  0
   23.8803  -22.9778  -13.5392 C   0  0  0  0  0  0  0  0  0  0  0  0
   25.0005  -23.7823  -14.0542 C   0  0  0  0  0  0  0  0  0  0  0  0
   25.5129  -23.3763  -15.3664 C   0  0  0  0  0  0  0  0  0  0  0  0
   24.9062  -22.5309  -16.0587 O   0  0  0  0  0  0  0  0  0  0  0  0
   22.9071  -20.8312  -12.9606 C   0  0  0  0  0  0  0  0  0  0  0  0
   22.2774  -20.8641  -11.8767 O   0  0  0  0  0  0  0  0  0  0  0  0
   26.6787  -23.9195  -15.8673 O   0  0  0  0  0  0  0  0  0  0  0  0
   20.7382  -17.0490  -17.3162 N   0  0  0  0  0  0  0  0  0  0  0  0
   21.7774  -16.7418  -16.4025 C   0  0  0  0  0  0  0  0  0  0  0  0
   22.5770  -15.8203  -16.6419 O   0  0  0  0  0  0  0  0  0  0  0  0
   21.8991  -17.5301  -15.1616 C   0  0  0  0  0  0  0  0  0  0  0  0
   20.8418  -18.5955  -15.1354 C   0  0  0  0  0  0  0  0  0  0  0  0
   21.0332  -19.4384  -13.8801 C   0  0  2  0  0  0  0  0  0  0  0  0
   22.3604  -20.0819  -14.0176 N   0  0  0  0  0  0  0  0  0  0  0  0
   19.9403  -20.4308  -13.8808 C   0  0  0  0  0  0  0  0  0  0  0  0
   20.1486  -21.6566  -14.4847 O   0  0  0  0  0  0  0  0  0  0  0  0
   18.8293  -20.2062  -13.3551 O   0  0  0  0  0  0  0  0  0  0  0  0
  2  3  1  0
  2  1  1  0
  4  5  1  0
  4  3  1  0
  5  6  1  6
  7  5  1  0
  7  8  2  0
  9  7  1  0
 10  9  1  0
 10 11  1  1
 12 11  1  0
 13 12  1  0
 14 13  2  0
 15 10  1  0
 16 15  2  0
 17 13  1  0
 19 18  1  0
 20 19  2  0
 21 19  1  0
 22 21  1  0
 23 22  1  6
 23 24  1  0
 24 15  1  0
 25 23  1  0
 26 25  1  0
 27 25  2  0
M  END
$$$$
