MEQ.pdb
     RDKit          3D

 27 26  0  0  1  0  0  0  0  0999 V2000
   30.2737  -17.4504  -19.0034 C   0  0  0  0  0  0  0  0  0  0  0  0
   28.6801  -17.9303  -18.2942 S   0  0  0  0  0  0  0  0  0  0  0  0
   28.9053  -19.4536  -17.3703 C   0  0  0  0  0  0  0  0  0  0  0  0
   27.6486  -19.9937  -16.7895 C   0  0  0  0  0  0  0  0  0  0  0  0
   27.8090  -21.1556  -15.8699 C   0  0  2  0  0  0  0  0  0  0  0  0
   28.1298  -22.3002  -16.7882 N   0  0  0  0  0  0  0  0  0  0  0  0
   26.6040  -21.5125  -15.0982 C   0  0  0  0  0  0  0  0  0  0  0  0
   25.6674  -22.2464  -15.5353 O   0  0  0  0  0  0  0  0  0  0  0  0
   26.4085  -21.0428  -13.7740 N   0  0  0  0  0  0  0  0  0  0  0  0
   25.1864  -21.3982  -13.0385 C   0  0  1  0  0  0  0  0  0  0  0  0
   25.5359  -21.0124  -11.6137 C   0  0  0  0  0  0  0  0  0  0  0  0
   24.4761  -21.1508  -10.6013 C   0  0  0  0  0  0  0  0  0  0  0  0
   24.8718  -20.8172   -9.2297 C   0  0  0  0  0  0  0  0  0  0  0  0
   26.0068  -20.3558   -8.9834 O   0  0  0  0  0  0  0  0  0  0  0  0
   24.0610  -20.5539  -13.4857 C   0  0  0  0  0  0  0  0  0  0  0  0
   24.2033  -19.3214  -13.6680 O   0  0  0  0  0  0  0  0  0  0  0  0
   23.9980  -21.0057   -8.1779 O   0  0  0  0  0  0  0  0  0  0  0  0
   20.6011  -21.1725  -18.0972 N   0  0  0  0  0  0  0  0  0  0  0  0
   19.9139  -20.1013  -17.4732 C   0  0  0  0  0  0  0  0  0  0  0  0
   19.0768  -19.4341  -18.1055 O   0  0  0  0  0  0  0  0  0  0  0  0
   20.2044  -19.7869  -16.0615 C   0  0  0  0  0  0  0  0  0  0  0  0
   21.3506  -20.6299  -15.5827 C   0  0  0  0  0  0  0  0  0  0  0  0
   21.6557  -20.2582  -14.1365 C   0  0  2  0  0  0  0  0  0  0  0  0
   22.7932  -21.1133  -13.7252 N   0  0  0  0  0  0  0  0  0  0  0  0
   20.4337  -20.5643  -13.3670 C   0  0  0  0  0  0  0  0  0  0  0  0
   19.4290  -19.6174  -13.3002 O   0  0  0  0  0  0  0  0  0  0  0  0
   20.2702  -21.6502  -12.7708 O   0  0  0  0  0  0  0  0  0  0  0  0
  2  3  1  0
  2  1  1  0
  4  5  1  0
  4  3  1  0
  5  6  1  6
  7  5  1  0
  7  8  2  0
  9  7  1  0
 10  9  1  0
 10 11  1  1
 12 11  1  0
 13 12  1  0
 14 13  2  0
 15 10  1  0
 16 15  2  0
 17 13  1  0
 19 18  1  0
 20 19  2  0
 21 19  1  0
 22 21  1  0
 23 22  1  6
 23 24  1  0
 24 15  1  0
 25 23  1  0
 26 25  1  0
 27 25  2  0
M  END
$$$$
