RLN.pdb
     RDKit          3D

 28 27  0  0  1  0  0  0  0  0999 V2000
   24.6152  -20.5673   -9.4814 N   0  0  0  0  0  0  0  0  0  0  0  0
   26.0046  -20.2671   -9.4804 C   0  0  0  0  0  0  0  0  0  0  0  0
   26.5199  -19.8969   -8.3561 N   0  0  0  0  0  0  0  0  0  0  0  0
   26.8145  -20.3610  -10.6566 N   0  0  0  0  0  0  0  0  0  0  0  0
   26.1679  -20.5758  -11.9282 C   0  0  0  0  0  0  0  0  0  0  0  0
   27.1911  -20.5460  -13.0742 C   0  0  0  0  0  0  0  0  0  0  0  0
   26.3974  -20.6872  -14.3350 C   0  0  0  0  0  0  0  0  0  0  0  0
   25.8298  -22.1003  -14.5042 C   0  0  2  0  0  0  0  0  0  0  0  0
   26.5015  -22.7899  -15.5798 N   0  0  0  0  0  0  0  0  0  0  0  0
   24.4121  -21.9153  -14.8657 C   0  0  0  0  0  0  0  0  0  0  0  0
   24.1213  -21.3963  -15.9593 O   0  0  0  0  0  0  0  0  0  0  0  0
   27.5280  -19.6595   -8.2301 C   0  0  0  0  0  0  0  0  0  0  0  0
   21.8632  -25.1635  -15.8936 C   0  0  2  0  0  0  0  0  0  0  0  0
   22.1304  -25.0047  -14.4154 C   0  0  0  0  0  0  0  0  0  0  0  0
   21.6705  -26.2298  -13.6410 C   0  0  0  0  0  0  0  0  0  0  0  0
   21.4835  -23.7544  -13.8725 C   0  0  2  0  0  0  0  0  0  0  0  0
   22.0582  -22.5441  -14.5271 N   0  0  0  0  0  0  0  0  0  0  0  0
   23.3860  -22.3185  -13.9897 C   0  0  0  0  0  0  0  0  0  0  0  0
   21.2368  -21.3318  -14.3278 O   0  0  0  0  0  0  0  0  0  0  0  0
   21.2248  -20.7600  -13.2165 N   0  0  0  0  0  0  0  0  0  0  0  0
   18.0322  -17.3850  -15.0433 C   0  0  0  0  0  0  0  0  0  0  0  0
   18.8227  -17.5640  -16.2129 O   0  0  0  0  0  0  0  0  0  0  0  0
   18.7013  -16.7221  -17.1128 C   0  0  0  0  0  0  0  0  0  0  0  0
   19.7156  -18.7005  -16.2967 C   0  0  1  0  0  0  0  0  0  0  0  0
   19.6351  -19.6316  -15.1208 N   0  0  0  0  0  0  0  0  0  0  0  0
   20.4694  -20.8185  -15.3771 C   0  0  0  0  0  0  0  0  0  0  0  0
   18.2638  -20.1819  -14.9044 O   0  0  0  0  0  0  0  0  0  0  0  0
   17.4291  -19.6999  -13.9077 O   0  0  0  0  0  0  0  0  0  0  0  0
  1  2  1  0
  2  4  1  0
  3  2  2  0
  4  5  1  0
  5  6  1  0
  7  6  1  0
  8  9  1  6
  8  7  1  0
 10  8  1  0
 11 10  2  0
 13 14  1  1
 13 12  1  0
 15 13  1  0
 16 15  1  6
 16 17  1  0
 17 10  1  0
 18 16  1  0
 18 19  2  0
 21 20  1  0
 21 22  2  0
 23 21  1  0
 24 23  1  1
 24 25  1  0
 25 18  1  0
 26 24  1  0
 27 26  1  0
 28 26  2  0
M  END
$$$$
