RLN.pdb
     RDKit          3D

 28 27  0  0  1  0  0  0  0  0999 V2000
   28.8957  -25.4377  -17.7550 N   0  0  0  0  0  0  0  0  0  0  0  0
   27.8121  -25.7498  -16.8897 C   0  0  0  0  0  0  0  0  0  0  0  0
   27.3009  -26.9303  -16.9986 N   0  0  0  0  0  0  0  0  0  0  0  0
   27.2932  -24.8169  -15.9365 N   0  0  0  0  0  0  0  0  0  0  0  0
   27.0903  -23.4484  -16.3454 C   0  0  0  0  0  0  0  0  0  0  0  0
   28.1226  -23.0357  -17.4062 C   0  0  0  0  0  0  0  0  0  0  0  0
   27.7854  -21.6259  -17.7782 C   0  0  0  0  0  0  0  0  0  0  0  0
   28.3697  -20.6126  -16.7885 C   0  0  2  0  0  0  0  0  0  0  0  0
   28.6956  -21.2565  -15.5384 N   0  0  0  0  0  0  0  0  0  0  0  0
   27.2979  -19.6271  -16.5543 C   0  0  0  0  0  0  0  0  0  0  0  0
   26.5206  -19.7836  -15.5946 O   0  0  0  0  0  0  0  0  0  0  0  0
   26.5801  -27.3126  -16.3483 C   0  0  0  0  0  0  0  0  0  0  0  0
   27.3665  -15.2262  -15.7646 C   0  0  2  0  0  0  0  0  0  0  0  0
   27.6278  -15.6127  -17.2012 C   0  0  0  0  0  0  0  0  0  0  0  0
   28.0591  -14.4081  -18.0227 C   0  0  0  0  0  0  0  0  0  0  0  0
   26.4220  -16.2773  -17.8183 C   0  0  2  0  0  0  0  0  0  0  0  0
   26.1047  -17.5475  -17.1044 N   0  0  0  0  0  0  0  0  0  0  0  0
   27.1445  -18.5133  -17.4023 C   0  0  0  0  0  0  0  0  0  0  0  0
   24.7910  -18.1109  -17.4795 O   0  0  0  0  0  0  0  0  0  0  0  0
   24.6891  -18.8435  -18.4869 N   0  0  0  0  0  0  0  0  0  0  0  0
   19.7580  -20.3763  -15.5550 C   0  0  0  0  0  0  0  0  0  0  0  0
   20.2069  -19.1835  -16.1881 O   0  0  0  0  0  0  0  0  0  0  0  0
   19.4225  -18.6263  -16.9676 C   0  0  0  0  0  0  0  0  0  0  0  0
   21.5349  -18.6850  -15.8984 C   0  0  1  0  0  0  0  0  0  0  0  0
   22.3707  -18.4218  -17.1184 N   0  0  0  0  0  0  0  0  0  0  0  0
   23.6569  -17.8286  -16.7130 C   0  0  0  0  0  0  0  0  0  0  0  0
   21.7663  -17.4075  -18.0327 O   0  0  0  0  0  0  0  0  0  0  0  0
   20.9353  -17.7691  -19.0822 O   0  0  0  0  0  0  0  0  0  0  0  0
  1  2  1  0
  2  4  1  0
  3  2  2  0
  4  5  1  0
  5  6  1  0
  7  6  1  0
  8  9  1  1
  8  7  1  0
 10  8  1  0
 11 10  2  0
 13 14  1  6
 13 12  1  0
 15 13  1  0
 16 15  1  1
 16 17  1  0
 17 10  1  0
 18 16  1  0
 18 19  2  0
 21 20  1  0
 21 22  2  0
 23 21  1  0
 24 23  1  1
 24 25  1  0
 25 18  1  0
 26 24  1  0
 27 26  1  0
 28 26  2  0
M  END
$$$$
