RLN.pdb
     RDKit          3D

 28 27  0  0  1  0  0  0  0  0999 V2000
   18.7147  -25.4616   -8.7016 N   0  0  0  0  0  0  0  0  0  0  0  0
   18.4270  -25.4294   -7.3100 C   0  0  0  0  0  0  0  0  0  0  0  0
   18.2705  -26.5675   -6.7209 N   0  0  0  0  0  0  0  0  0  0  0  0
   18.3094  -24.2070   -6.5750 N   0  0  0  0  0  0  0  0  0  0  0  0
   18.9569  -23.0245   -7.0884 C   0  0  0  0  0  0  0  0  0  0  0  0
   20.4663  -23.0593   -6.8023 C   0  0  0  0  0  0  0  0  0  0  0  0
   20.9884  -21.7133   -7.1961 C   0  0  0  0  0  0  0  0  0  0  0  0
   21.1664  -21.5846   -8.7125 C   0  0  2  0  0  0  0  0  0  0  0  0
   21.4358  -22.8746   -9.3015 N   0  0  0  0  0  0  0  0  0  0  0  0
   22.3447  -20.7176   -8.8991 C   0  0  0  0  0  0  0  0  0  0  0  0
   22.2457  -19.4950   -8.6868 O   0  0  0  0  0  0  0  0  0  0  0  0
   17.9653  -26.6699   -5.7284 C   0  0  0  0  0  0  0  0  0  0  0  0
   26.1306  -18.6866   -7.5916 C   0  0  2  0  0  0  0  0  0  0  0  0
   25.9697  -20.1793   -7.4255 C   0  0  0  0  0  0  0  0  0  0  0  0
   27.1052  -20.7641   -6.6004 C   0  0  0  0  0  0  0  0  0  0  0  0
   25.8677  -20.8719   -8.7621 C   0  0  2  0  0  0  0  0  0  0  0  0
   24.6957  -20.3576   -9.5273 N   0  0  0  0  0  0  0  0  0  0  0  0
   23.5780  -21.2565   -9.3136 C   0  0  0  0  0  0  0  0  0  0  0  0
   24.9571  -20.2372  -10.9768 O   0  0  0  0  0  0  0  0  0  0  0  0
   25.9905  -19.6618  -11.3805 N   0  0  0  0  0  0  0  0  0  0  0  0
   26.4582  -22.7173  -15.7052 C   0  0  0  0  0  0  0  0  0  0  0  0
   25.6030  -21.7097  -15.1775 O   0  0  0  0  0  0  0  0  0  0  0  0
   25.1626  -20.8678  -15.9716 C   0  0  0  0  0  0  0  0  0  0  0  0
   25.2928  -21.7138  -13.7634 C   0  0  1  0  0  0  0  0  0  0  0  0
   24.3552  -20.6201  -13.3381 N   0  0  0  0  0  0  0  0  0  0  0  0
   24.0529  -20.7637  -11.9035 C   0  0  0  0  0  0  0  0  0  0  0  0
   23.0227  -20.7000  -14.0078 O   0  0  0  0  0  0  0  0  0  0  0  0
   22.7196  -19.9445  -15.1303 O   0  0  0  0  0  0  0  0  0  0  0  0
  1  2  1  0
  2  4  1  0
  3  2  2  0
  4  5  1  0
  5  6  1  0
  7  6  1  0
  8  9  1  1
  8  7  1  0
 10  8  1  0
 11 10  2  0
 13 14  1  6
 13 12  1  0
 15 13  1  0
 16 15  1  1
 16 17  1  0
 17 10  1  0
 18 16  1  0
 18 19  2  0
 21 20  1  0
 21 22  2  0
 23 21  1  0
 24 23  1  1
 24 25  1  0
 25 18  1  0
 26 24  1  0
 27 26  1  0
 28 26  2  0
M  END
$$$$
