RLN.pdb
     RDKit          3D

 28 27  0  0  1  0  0  0  0  0999 V2000
   28.2486  -17.1492  -19.3301 N   0  0  0  0  0  0  0  0  0  0  0  0
   29.2915  -17.4710  -18.4194 C   0  0  0  0  0  0  0  0  0  0  0  0
   30.4697  -17.6407  -18.9191 N   0  0  0  0  0  0  0  0  0  0  0  0
   29.0711  -17.6078  -17.0119 N   0  0  0  0  0  0  0  0  0  0  0  0
   27.7286  -17.4649  -16.5033 C   0  0  0  0  0  0  0  0  0  0  0  0
   26.7384  -18.2990  -17.3309 C   0  0  0  0  0  0  0  0  0  0  0  0
   25.8195  -18.9436  -16.3411 C   0  0  0  0  0  0  0  0  0  0  0  0
   26.4480  -20.1805  -15.6909 C   0  0  2  0  0  0  0  0  0  0  0  0
   26.8103  -21.1514  -16.6958 N   0  0  0  0  0  0  0  0  0  0  0  0
   25.3951  -20.7519  -14.8308 C   0  0  0  0  0  0  0  0  0  0  0  0
   24.8942  -21.8530  -15.1247 O   0  0  0  0  0  0  0  0  0  0  0  0
   31.3102  -17.8873  -18.3524 C   0  0  0  0  0  0  0  0  0  0  0  0
   25.6735  -22.3224  -11.1257 C   0  0  2  0  0  0  0  0  0  0  0  0
   25.5832  -20.8212  -10.9840 C   0  0  0  0  0  0  0  0  0  0  0  0
   25.8905  -20.3860   -9.5599 C   0  0  0  0  0  0  0  0  0  0  0  0
   24.2325  -20.3096  -11.4203 C   0  0  2  0  0  0  0  0  0  0  0  0
   23.9598  -20.6985  -12.8338 N   0  0  0  0  0  0  0  0  0  0  0  0
   24.9513  -20.0673  -13.6830 C   0  0  0  0  0  0  0  0  0  0  0  0
   22.6078  -20.3140  -13.2904 O   0  0  0  0  0  0  0  0  0  0  0  0
   22.0894  -19.2514  -12.8854 N   0  0  0  0  0  0  0  0  0  0  0  0
   21.9527  -21.2104  -17.8629 C   0  0  0  0  0  0  0  0  0  0  0  0
   21.0952  -20.4681  -17.0033 O   0  0  0  0  0  0  0  0  0  0  0  0
   21.0672  -19.2394  -17.1547 C   0  0  0  0  0  0  0  0  0  0  0  0
   20.3100  -21.1691  -16.0094 C   0  0  2  0  0  0  0  0  0  0  0  0
   20.5555  -20.7120  -14.5998 N   0  0  0  0  0  0  0  0  0  0  0  0
   21.9016  -21.1339  -14.1750 C   0  0  0  0  0  0  0  0  0  0  0  0
   19.6372  -21.3507  -13.6104 O   0  0  0  0  0  0  0  0  0  0  0  0
   18.4284  -20.7732  -13.2528 O   0  0  0  0  0  0  0  0  0  0  0  0
  1  2  1  0
  2  4  1  0
  3  2  2  0
  4  5  1  0
  5  6  1  0
  7  6  1  0
  8  9  1  6
  8  7  1  0
 10  8  1  0
 11 10  2  0
 13 14  1  6
 13 12  1  0
 15 13  1  0
 16 15  1  1
 16 17  1  0
 17 10  1  0
 18 16  1  0
 18 19  2  0
 21 20  1  0
 21 22  2  0
 23 21  1  0
 24 23  1  6
 24 25  1  0
 25 18  1  0
 26 24  1  0
 27 26  1  0
 28 26  2  0
M  END
$$$$
