RLN.pdb
     RDKit          3D

 28 27  0  0  1  0  0  0  0  0999 V2000
   25.5582  -27.0127  -19.9061 N   0  0  0  0  0  0  0  0  0  0  0  0
   24.8808  -27.8567  -18.9846 C   0  0  0  0  0  0  0  0  0  0  0  0
   23.6055  -27.9840  -19.1399 N   0  0  0  0  0  0  0  0  0  0  0  0
   25.5571  -28.5419  -17.9257 N   0  0  0  0  0  0  0  0  0  0  0  0
   26.9980  -28.4909  -17.8760 C   0  0  0  0  0  0  0  0  0  0  0  0
   27.6009  -29.8954  -18.0344 C   0  0  0  0  0  0  0  0  0  0  0  0
   28.6559  -30.0090  -16.9791 C   0  0  0  0  0  0  0  0  0  0  0  0
   30.0484  -29.6612  -17.5155 C   0  0  2  0  0  0  0  0  0  0  0  0
   30.9798  -30.7274  -17.2340 N   0  0  0  0  0  0  0  0  0  0  0  0
   30.4651  -28.4542  -16.7778 C   0  0  0  0  0  0  0  0  0  0  0  0
   30.6601  -28.5231  -15.5503 O   0  0  0  0  0  0  0  0  0  0  0  0
   22.9939  -28.5295  -18.4941 C   0  0  0  0  0  0  0  0  0  0  0  0
   33.4359  -27.7761  -17.7083 C   0  0  2  0  0  0  0  0  0  0  0  0
   32.9201  -26.4080  -18.0876 C   0  0  0  0  0  0  0  0  0  0  0  0
   34.0006  -25.5857  -18.7720 C   0  0  0  0  0  0  0  0  0  0  0  0
   32.3710  -25.6769  -16.8874 C   0  0  1  0  0  0  0  0  0  0  0  0
   30.9434  -26.0440  -16.6620 N   0  0  0  0  0  0  0  0  0  0  0  0
   30.6446  -27.2272  -17.4453 C   0  0  0  0  0  0  0  0  0  0  0  0
   30.0025  -24.9645  -17.0273 O   0  0  0  0  0  0  0  0  0  0  0  0
   30.4079  -23.9723  -17.6702 N   0  0  0  0  0  0  0  0  0  0  0  0
   26.0023  -22.0637  -18.0289 C   0  0  0  0  0  0  0  0  0  0  0  0
   26.8053  -22.7627  -18.9731 O   0  0  0  0  0  0  0  0  0  0  0  0
   26.6447  -22.4847  -20.1690 C   0  0  0  0  0  0  0  0  0  0  0  0
   27.7550  -23.7487  -18.5022 C   0  0  1  0  0  0  0  0  0  0  0  0
   27.7640  -23.9282  -17.0109 N   0  0  0  0  0  0  0  0  0  0  0  0
   28.6573  -25.0450  -16.6569 C   0  0  0  0  0  0  0  0  0  0  0  0
   26.4339  -24.3290  -16.4629 O   0  0  0  0  0  0  0  0  0  0  0  0
   25.3724  -23.4399  -16.3907 O   0  0  0  0  0  0  0  0  0  0  0  0
  1  2  1  0
  2  4  1  0
  3  2  2  0
  4  5  1  0
  5  6  1  0
  7  6  1  0
  8  9  1  1
  8  7  1  0
 10  8  1  0
 11 10  2  0
 13 14  1  1
 13 12  1  0
 15 13  1  0
 16 15  1  1
 16 17  1  0
 17 10  1  0
 18 16  1  0
 18 19  2  0
 21 20  1  0
 21 22  2  0
 23 21  1  0
 24 23  1  1
 24 25  1  0
 25 18  1  0
 26 24  1  0
 27 26  1  0
 28 26  2  0
M  END
$$$$
