RLN.pdb
     RDKit          3D

 28 27  0  0  1  0  0  0  0  0999 V2000
   17.1279  -20.4497  -14.5541 N   0  0  0  0  0  0  0  0  0  0  0  0
   17.4958  -21.8205  -14.6314 C   0  0  0  0  0  0  0  0  0  0  0  0
   16.5674  -22.6554  -14.9595 N   0  0  0  0  0  0  0  0  0  0  0  0
   18.8245  -22.2786  -14.3611 N   0  0  0  0  0  0  0  0  0  0  0  0
   19.7665  -21.3616  -13.7670 C   0  0  0  0  0  0  0  0  0  0  0  0
   21.1378  -22.0298  -13.5817 C   0  0  0  0  0  0  0  0  0  0  0  0
   22.0386  -20.9689  -13.0316 C   0  0  0  0  0  0  0  0  0  0  0  0
   22.3412  -21.1829  -11.5449 C   0  0  2  0  0  0  0  0  0  0  0  0
   21.2808  -20.6403  -10.7296 N   0  0  0  0  0  0  0  0  0  0  0  0
   23.5808  -20.4286  -11.2822 C   0  0  0  0  0  0  0  0  0  0  0  0
   23.5190  -19.2040  -11.0670 O   0  0  0  0  0  0  0  0  0  0  0  0
   16.7200  -23.6826  -15.0606 C   0  0  0  0  0  0  0  0  0  0  0  0
   26.3058  -19.2379   -8.3229 C   0  0  2  0  0  0  0  0  0  0  0  0
   26.3463  -20.7285   -8.5643 C   0  0  0  0  0  0  0  0  0  0  0  0
   27.2102  -21.4280   -7.5268 C   0  0  0  0  0  0  0  0  0  0  0  0
   26.8242  -21.0451   -9.9599 C   0  0  2  0  0  0  0  0  0  0  0  0
   26.0173  -20.3000  -10.9685 N   0  0  0  0  0  0  0  0  0  0  0  0
   24.8309  -21.0768  -11.2717 C   0  0  0  0  0  0  0  0  0  0  0  0
   26.7580  -20.0293  -12.2184 O   0  0  0  0  0  0  0  0  0  0  0  0
   28.0001  -19.8927  -12.1924 N   0  0  0  0  0  0  0  0  0  0  0  0
   28.6783  -20.9919  -16.5604 C   0  0  0  0  0  0  0  0  0  0  0  0
   28.2203  -22.0072  -15.6747 O   0  0  0  0  0  0  0  0  0  0  0  0
   28.6533  -23.1533  -15.8548 C   0  0  0  0  0  0  0  0  0  0  0  0
   27.2866  -21.6615  -14.6238 C   0  0  2  0  0  0  0  0  0  0  0  0
   26.8038  -20.2400  -14.6757 N   0  0  0  0  0  0  0  0  0  0  0  0
   26.0766  -19.9235  -13.4341 C   0  0  0  0  0  0  0  0  0  0  0  0
   25.8061  -20.0014  -15.7609 O   0  0  0  0  0  0  0  0  0  0  0  0
   24.5891  -20.6649  -15.7971 O   0  0  0  0  0  0  0  0  0  0  0  0
  1  2  1  0
  2  4  1  0
  3  2  2  0
  4  5  1  0
  5  6  1  0
  7  6  1  0
  8  9  1  1
  8  7  1  0
 10  8  1  0
 11 10  2  0
 13 14  1  6
 13 12  1  0
 15 13  1  0
 16 15  1  1
 16 17  1  0
 17 10  1  0
 18 16  1  0
 18 19  2  0
 21 20  1  0
 21 22  2  0
 23 21  1  0
 24 23  1  1
 24 25  1  0
 25 18  1  0
 26 24  1  0
 27 26  1  0
 28 26  2  0
M  END
$$$$
