RLN.pdb
     RDKit          3D

 28 27  0  0  1  0  0  0  0  0999 V2000
   18.1711  -23.9226  -11.1629 N   0  0  0  0  0  0  0  0  0  0  0  0
   18.7409  -23.5746   -9.9080 C   0  0  0  0  0  0  0  0  0  0  0  0
   18.2546  -24.1596   -8.8649 N   0  0  0  0  0  0  0  0  0  0  0  0
   19.8020  -22.6227   -9.7804 N   0  0  0  0  0  0  0  0  0  0  0  0
   20.0335  -21.6939  -10.8597 C   0  0  0  0  0  0  0  0  0  0  0  0
   21.1200  -22.2198  -11.8105 C   0  0  0  0  0  0  0  0  0  0  0  0
   22.1090  -21.1063  -11.9572 C   0  0  0  0  0  0  0  0  0  0  0  0
   23.0071  -20.9661  -10.7237 C   0  0  2  0  0  0  0  0  0  0  0  0
   22.4422  -20.0196   -9.7916 N   0  0  0  0  0  0  0  0  0  0  0  0
   24.2882  -20.4364  -11.2267 C   0  0  0  0  0  0  0  0  0  0  0  0
   24.4537  -19.2051  -11.3048 O   0  0  0  0  0  0  0  0  0  0  0  0
   18.6370  -24.0402   -7.9016 C   0  0  0  0  0  0  0  0  0  0  0  0
   30.1573  -21.6884  -11.1591 C   0  0  1  0  0  0  0  0  0  0  0  0
   29.0231  -21.0269  -11.9059 C   0  0  0  0  0  0  0  0  0  0  0  0
   29.2107  -19.5191  -11.9630 C   0  0  0  0  0  0  0  0  0  0  0  0
   27.6877  -21.3773  -11.2971 C   0  0  2  0  0  0  0  0  0  0  0  0
   26.5811  -20.7377  -12.0651 N   0  0  0  0  0  0  0  0  0  0  0  0
   25.3241  -21.3062  -11.6184 C   0  0  0  0  0  0  0  0  0  0  0  0
   26.7088  -20.9192  -13.5262 O   0  0  0  0  0  0  0  0  0  0  0  0
   26.4460  -22.0257  -14.0445 N   0  0  0  0  0  0  0  0  0  0  0  0
   25.6704  -19.0430  -18.2112 C   0  0  0  0  0  0  0  0  0  0  0  0
   25.4188  -18.1070  -17.1693 O   0  0  0  0  0  0  0  0  0  0  0  0
   24.7879  -17.0839  -17.4672 C   0  0  0  0  0  0  0  0  0  0  0  0
   25.9027  -18.3871  -15.8339 C   0  0  1  0  0  0  0  0  0  0  0  0
   26.5445  -19.7370  -15.6849 N   0  0  0  0  0  0  0  0  0  0  0  0
   27.1239  -19.8583  -14.3359 C   0  0  0  0  0  0  0  0  0  0  0  0
   27.7031  -19.9376  -16.6056 O   0  0  0  0  0  0  0  0  0  0  0  0
   29.0131  -19.7707  -16.1829 O   0  0  0  0  0  0  0  0  0  0  0  0
  1  2  1  0
  2  4  1  0
  3  2  2  0
  4  5  1  0
  5  6  1  0
  7  6  1  0
  8  9  1  1
  8  7  1  0
 10  8  1  0
 11 10  2  0
 13 14  1  1
 13 12  1  0
 15 13  1  0
 16 15  1  1
 16 17  1  0
 17 10  1  0
 18 16  1  0
 18 19  2  0
 21 20  1  0
 21 22  2  0
 23 21  1  0
 24 23  1  1
 24 25  1  0
 25 18  1  0
 26 24  1  0
 27 26  1  0
 28 26  2  0
M  END
$$$$
