RLN.pdb
     RDKit          3D

 28 27  0  0  1  0  0  0  0  0999 V2000
   26.5287  -24.1514  -16.9638 N   0  0  0  0  0  0  0  0  0  0  0  0
   25.1184  -24.0682  -16.8064 C   0  0  0  0  0  0  0  0  0  0  0  0
   24.4099  -24.0814  -17.8856 N   0  0  0  0  0  0  0  0  0  0  0  0
   24.4901  -23.9716  -15.5242 N   0  0  0  0  0  0  0  0  0  0  0  0
   25.3021  -23.6458  -14.3771 C   0  0  0  0  0  0  0  0  0  0  0  0
   24.4783  -23.7284  -13.0826 C   0  0  0  0  0  0  0  0  0  0  0  0
   24.0042  -22.3354  -12.8100 C   0  0  0  0  0  0  0  0  0  0  0  0
   25.1671  -21.3660  -12.5738 C   0  0  2  0  0  0  0  0  0  0  0  0
   25.3225  -21.0963  -11.1643 N   0  0  0  0  0  0  0  0  0  0  0  0
   24.7860  -20.1181  -13.2609 C   0  0  0  0  0  0  0  0  0  0  0  0
   23.9476  -19.3616  -12.7370 O   0  0  0  0  0  0  0  0  0  0  0  0
   23.3698  -24.0007  -17.8978 C   0  0  0  0  0  0  0  0  0  0  0  0
   27.0474  -16.6638  -14.7592 C   0  0  1  0  0  0  0  0  0  0  0  0
   27.1721  -17.8673  -15.6635 C   0  0  0  0  0  0  0  0  0  0  0  0
   28.2078  -17.6302  -16.7511 C   0  0  0  0  0  0  0  0  0  0  0  0
   25.8400  -18.2411  -16.2654 C   0  0  2  0  0  0  0  0  0  0  0  0
   24.8663  -18.5993  -15.1943 N   0  0  0  0  0  0  0  0  0  0  0  0
   25.3590  -19.7733  -14.5002 C   0  0  0  0  0  0  0  0  0  0  0  0
   23.5087  -18.8702  -15.7117 O   0  0  0  0  0  0  0  0  0  0  0  0
   23.1469  -20.0456  -15.9337 N   0  0  0  0  0  0  0  0  0  0  0  0
   18.5589  -20.0035  -15.8001 C   0  0  0  0  0  0  0  0  0  0  0  0
   19.0538  -18.7494  -15.3447 O   0  0  0  0  0  0  0  0  0  0  0  0
   18.2259  -17.8475  -15.1590 C   0  0  0  0  0  0  0  0  0  0  0  0
   20.4754  -18.5874  -15.1239 C   0  0  1  0  0  0  0  0  0  0  0  0
   21.2376  -18.1396  -16.3384 N   0  0  0  0  0  0  0  0  0  0  0  0
   22.6232  -17.8168  -15.9562 C   0  0  0  0  0  0  0  0  0  0  0  0
   20.7095  -16.8717  -16.9246 O   0  0  0  0  0  0  0  0  0  0  0  0
   21.2617  -15.6370  -16.6196 O   0  0  0  0  0  0  0  0  0  0  0  0
  1  2  1  0
  2  4  1  0
  3  2  2  0
  4  5  1  0
  5  6  1  0
  7  6  1  0
  8  9  1  1
  8  7  1  0
 10  8  1  0
 11 10  2  0
 13 14  1  6
 13 12  1  0
 15 13  1  0
 16 15  1  1
 16 17  1  0
 17 10  1  0
 18 16  1  0
 18 19  2  0
 21 20  1  0
 21 22  2  0
 23 21  1  0
 24 23  1  6
 24 25  1  0
 25 18  1  0
 26 24  1  0
 27 26  1  0
 28 26  2  0
M  END
$$$$
