RLN.pdb
     RDKit          3D

 28 27  0  0  1  0  0  0  0  0999 V2000
   26.1993  -20.7924   -7.9482 N   0  0  0  0  0  0  0  0  0  0  0  0
   24.9815  -21.5231   -8.0065 C   0  0  0  0  0  0  0  0  0  0  0  0
   24.2889  -21.5891   -6.9190 N   0  0  0  0  0  0  0  0  0  0  0  0
   24.5242  -22.1655   -9.2009 N   0  0  0  0  0  0  0  0  0  0  0  0
   25.2865  -21.9970  -10.4140 C   0  0  0  0  0  0  0  0  0  0  0  0
   25.2495  -20.5348  -10.8848 C   0  0  0  0  0  0  0  0  0  0  0  0
   25.9957  -20.5037  -12.1817 C   0  0  0  0  0  0  0  0  0  0  0  0
   25.3572  -21.4132  -13.2366 C   0  0  2  0  0  0  0  0  0  0  0  0
   26.2498  -22.4947  -13.5792 N   0  0  0  0  0  0  0  0  0  0  0  0
   25.1593  -20.5614  -14.4240 C   0  0  0  0  0  0  0  0  0  0  0  0
   26.1395  -20.2513  -15.1260 O   0  0  0  0  0  0  0  0  0  0  0  0
   23.4120  -22.1461   -6.8225 C   0  0  0  0  0  0  0  0  0  0  0  0
   21.1273  -19.6388  -18.7706 C   0  0  1  0  0  0  0  0  0  0  0  0
   22.3803  -19.1784  -18.0637 C   0  0  0  0  0  0  0  0  0  0  0  0
   23.5940  -19.2885  -18.9730 C   0  0  0  0  0  0  0  0  0  0  0  0
   22.6001  -19.9446  -16.7827 C   0  0  2  0  0  0  0  0  0  0  0  0
   23.7172  -19.3418  -16.0002 N   0  0  0  0  0  0  0  0  0  0  0  0
   23.8765  -20.0961  -14.7720 C   0  0  0  0  0  0  0  0  0  0  0  0
   23.4947  -17.9175  -15.6747 O   0  0  0  0  0  0  0  0  0  0  0  0
   22.5638  -17.5890  -14.9082 N   0  0  0  0  0  0  0  0  0  0  0  0
   23.8327  -12.7969  -15.5121 C   0  0  0  0  0  0  0  0  0  0  0  0
   25.1027  -13.2817  -15.9330 O   0  0  0  0  0  0  0  0  0  0  0  0
   26.0010  -12.4459  -16.0998 C   0  0  0  0  0  0  0  0  0  0  0  0
   25.2838  -14.7025  -16.1437 C   0  0  1  0  0  0  0  0  0  0  0  0
   24.0547  -15.5236  -15.8762 N   0  0  0  0  0  0  0  0  0  0  0  0
   24.3207  -16.9311  -16.2207 C   0  0  0  0  0  0  0  0  0  0  0  0
   22.8982  -15.1423  -16.7407 O   0  0  0  0  0  0  0  0  0  0  0  0
   21.7335  -14.6062  -16.2129 O   0  0  0  0  0  0  0  0  0  0  0  0
  1  2  1  0
  2  4  1  0
  3  2  2  0
  4  5  1  0
  5  6  1  0
  7  6  1  0
  8  9  1  6
  8  7  1  0
 10  8  1  0
 11 10  2  0
 13 14  1  6
 13 12  1  0
 15 13  1  0
 16 15  1  6
 16 17  1  0
 17 10  1  0
 18 16  1  0
 18 19  2  0
 21 20  1  0
 21 22  2  0
 23 21  1  0
 24 23  1  1
 24 25  1  0
 25 18  1  0
 26 24  1  0
 27 26  1  0
 28 26  2  0
M  END
$$$$
