RLN.pdb
     RDKit          3D

 28 27  0  0  1  0  0  0  0  0999 V2000
   14.6089  -20.8561  -14.5470 N   0  0  0  0  0  0  0  0  0  0  0  0
   14.6218  -22.2283  -14.1766 C   0  0  0  0  0  0  0  0  0  0  0  0
   13.5135  -22.8774  -14.3068 N   0  0  0  0  0  0  0  0  0  0  0  0
   15.7939  -22.8816  -13.6788 N   0  0  0  0  0  0  0  0  0  0  0  0
   17.0088  -22.1159  -13.5416 C   0  0  0  0  0  0  0  0  0  0  0  0
   16.9210  -21.1610  -12.3409 C   0  0  0  0  0  0  0  0  0  0  0  0
   18.3015  -20.6158  -12.1501 C   0  0  0  0  0  0  0  0  0  0  0  0
   19.3615  -21.7221  -12.1333 C   0  0  2  0  0  0  0  0  0  0  0  0
   19.4009  -22.3654  -10.8417 N   0  0  0  0  0  0  0  0  0  0  0  0
   20.6476  -21.0396  -12.3676 C   0  0  0  0  0  0  0  0  0  0  0  0
   20.6663  -19.8049  -12.5251 O   0  0  0  0  0  0  0  0  0  0  0  0
   13.4061  -23.8919  -14.0881 C   0  0  0  0  0  0  0  0  0  0  0  0
   26.6554  -21.8636  -11.6233 C   0  0  1  0  0  0  0  0  0  0  0  0
   25.4225  -21.0251  -11.8651 C   0  0  0  0  0  0  0  0  0  0  0  0
   25.1438  -20.1080  -10.6847 C   0  0  0  0  0  0  0  0  0  0  0  0
   24.2226  -21.8887  -12.1667 C   0  0  2  0  0  0  0  0  0  0  0  0
   23.0901  -21.0532  -12.6598 N   0  0  0  0  0  0  0  0  0  0  0  0
   21.8522  -21.7676  -12.4148 C   0  0  0  0  0  0  0  0  0  0  0  0
   23.1919  -20.7290  -14.0980 O   0  0  0  0  0  0  0  0  0  0  0  0
   22.7688  -21.5366  -14.9529 N   0  0  0  0  0  0  0  0  0  0  0  0
   23.7856  -18.2469  -18.5380 C   0  0  0  0  0  0  0  0  0  0  0  0
   23.2361  -17.3905  -17.5432 O   0  0  0  0  0  0  0  0  0  0  0  0
   22.8312  -16.2801  -17.9128 C   0  0  0  0  0  0  0  0  0  0  0  0
   23.1766  -17.8467  -16.1706 C   0  0  1  0  0  0  0  0  0  0  0  0
   23.7738  -19.2073  -15.9503 N   0  0  0  0  0  0  0  0  0  0  0  0
   23.7611  -19.5211  -14.5109 C   0  0  0  0  0  0  0  0  0  0  0  0
   25.2152  -19.2815  -16.3334 O   0  0  0  0  0  0  0  0  0  0  0  0
   26.2037  -19.5935  -15.4125 O   0  0  0  0  0  0  0  0  0  0  0  0
  1  2  1  0
  2  4  1  0
  3  2  2  0
  4  5  1  0
  5  6  1  0
  7  6  1  0
  8  9  1  1
  8  7  1  0
 10  8  1  0
 11 10  2  0
 13 14  1  1
 13 12  1  0
 15 13  1  0
 16 15  1  1
 16 17  1  0
 17 10  1  0
 18 16  1  0
 18 19  2  0
 21 20  1  0
 21 22  2  0
 23 21  1  0
 24 23  1  6
 24 25  1  0
 25 18  1  0
 26 24  1  0
 27 26  1  0
 28 26  2  0
M  END
$$$$
