RLN.pdb
     RDKit          3D

 28 27  0  0  1  0  0  0  0  0999 V2000
   29.9577  -18.2294  -17.5604 N   0  0  0  0  0  0  0  0  0  0  0  0
   29.0791  -17.8486  -18.6110 C   0  0  0  0  0  0  0  0  0  0  0  0
   29.6228  -17.3818  -19.6849 N   0  0  0  0  0  0  0  0  0  0  0  0
   27.6566  -17.9654  -18.5069 N   0  0  0  0  0  0  0  0  0  0  0  0
   27.0861  -18.3937  -17.2529 C   0  0  0  0  0  0  0  0  0  0  0  0
   27.6468  -19.7621  -16.8358 C   0  0  0  0  0  0  0  0  0  0  0  0
   26.4669  -20.5709  -16.3963 C   0  0  0  0  0  0  0  0  0  0  0  0
   25.3629  -19.6984  -15.7900 C   0  0  2  0  0  0  0  0  0  0  0  0
   25.9329  -18.5511  -15.1248 N   0  0  0  0  0  0  0  0  0  0  0  0
   24.6934  -20.5488  -14.7884 C   0  0  0  0  0  0  0  0  0  0  0  0
   24.3765  -21.7148  -15.0880 O   0  0  0  0  0  0  0  0  0  0  0  0
   29.0842  -17.1020  -20.5334 C   0  0  0  0  0  0  0  0  0  0  0  0
   26.0415  -22.2703  -11.7619 C   0  0  2  0  0  0  0  0  0  0  0  0
   25.6218  -20.9061  -11.2674 C   0  0  0  0  0  0  0  0  0  0  0  0
   26.2140  -20.6139   -9.8978 C   0  0  0  0  0  0  0  0  0  0  0  0
   24.1193  -20.7710  -11.2407 C   0  0  2  0  0  0  0  0  0  0  0  0
   23.5648  -20.8456  -12.6229 N   0  0  0  0  0  0  0  0  0  0  0  0
   24.4096  -20.0577  -13.4995 C   0  0  0  0  0  0  0  0  0  0  0  0
   22.1727  -20.3582  -12.7163 O   0  0  0  0  0  0  0  0  0  0  0  0
   21.9463  -19.1415  -12.8909 N   0  0  0  0  0  0  0  0  0  0  0  0
   17.8560  -17.9380  -13.1489 C   0  0  0  0  0  0  0  0  0  0  0  0
   18.5369  -18.8885  -13.9600 O   0  0  0  0  0  0  0  0  0  0  0  0
   17.9869  -19.2295  -15.0158 C   0  0  0  0  0  0  0  0  0  0  0  0
   19.8170  -19.4045  -13.5228 C   0  0  1  0  0  0  0  0  0  0  0  0
   19.7407  -20.7470  -12.8533 N   0  0  0  0  0  0  0  0  0  0  0  0
   21.1032  -21.2515  -12.6096 C   0  0  0  0  0  0  0  0  0  0  0  0
   19.1060  -21.7920  -13.7107 O   0  0  0  0  0  0  0  0  0  0  0  0
   17.7292  -21.9046  -13.8316 O   0  0  0  0  0  0  0  0  0  0  0  0
  1  2  1  0
  2  4  1  0
  3  2  2  0
  4  5  1  0
  5  6  1  0
  7  6  1  0
  8  9  1  1
  8  7  1  0
 10  8  1  0
 11 10  2  0
 13 14  1  6
 13 12  1  0
 15 13  1  0
 16 15  1  6
 16 17  1  0
 17 10  1  0
 18 16  1  0
 18 19  2  0
 21 20  1  0
 21 22  2  0
 23 21  1  0
 24 23  1  1
 24 25  1  0
 25 18  1  0
 26 24  1  0
 27 26  1  0
 28 26  2  0
M  END
$$$$
