RLN.pdb
     RDKit          3D

 28 27  0  0  1  0  0  0  0  0999 V2000
   29.6818  -19.2042  -18.9001 N   0  0  0  0  0  0  0  0  0  0  0  0
   28.6339  -20.1611  -18.9809 C   0  0  0  0  0  0  0  0  0  0  0  0
   28.9239  -21.2990  -19.5173 N   0  0  0  0  0  0  0  0  0  0  0  0
   27.3118  -19.8992  -18.4996 N   0  0  0  0  0  0  0  0  0  0  0  0
   27.0597  -18.6600  -17.8051 C   0  0  0  0  0  0  0  0  0  0  0  0
   27.6011  -18.7182  -16.3682 C   0  0  0  0  0  0  0  0  0  0  0  0
   26.5493  -19.4143  -15.5628 C   0  0  0  0  0  0  0  0  0  0  0  0
   27.1513  -20.4070  -14.5628 C   0  0  2  0  0  0  0  0  0  0  0  0
   27.6942  -21.5531  -15.2522 N   0  0  0  0  0  0  0  0  0  0  0  0
   26.0259  -20.8461  -13.7169 C   0  0  0  0  0  0  0  0  0  0  0  0
   25.3118  -21.7947  -14.0910 O   0  0  0  0  0  0  0  0  0  0  0  0
   28.2437  -22.0839  -19.6166 C   0  0  0  0  0  0  0  0  0  0  0  0
   26.1263  -22.1350   -9.6495 C   0  0  2  0  0  0  0  0  0  0  0  0
   26.0806  -20.6282   -9.7451 C   0  0  0  0  0  0  0  0  0  0  0  0
   26.3405  -19.9853   -8.3919 C   0  0  0  0  0  0  0  0  0  0  0  0
   24.7680  -20.1548  -10.3192 C   0  0  2  0  0  0  0  0  0  0  0  0
   24.6054  -20.6427  -11.7189 N   0  0  0  0  0  0  0  0  0  0  0  0
   25.7509  -20.2056  -12.4933 C   0  0  0  0  0  0  0  0  0  0  0  0
   23.3660  -20.1579  -12.3616 O   0  0  0  0  0  0  0  0  0  0  0  0
   23.4074  -19.1869  -13.1475 N   0  0  0  0  0  0  0  0  0  0  0  0
   21.0386  -21.7413  -16.7633 C   0  0  0  0  0  0  0  0  0  0  0  0
   20.7307  -21.1050  -15.5283 O   0  0  0  0  0  0  0  0  0  0  0  0
   19.7847  -20.3058  -15.5234 C   0  0  0  0  0  0  0  0  0  0  0  0
   21.5219  -21.4141  -14.3560 C   0  0  2  0  0  0  0  0  0  0  0  0
   21.0792  -20.6991  -13.1114 N   0  0  0  0  0  0  0  0  0  0  0  0
   22.1429  -20.7793  -12.0952 C   0  0  0  0  0  0  0  0  0  0  0  0
   19.8960  -21.3372  -12.4610 O   0  0  0  0  0  0  0  0  0  0  0  0
   19.9880  -21.9702  -11.2307 O   0  0  0  0  0  0  0  0  0  0  0  0
  1  2  1  0
  2  4  1  0
  3  2  2  0
  4  5  1  0
  5  6  1  0
  7  6  1  0
  8  9  1  6
  8  7  1  0
 10  8  1  0
 11 10  2  0
 13 14  1  6
 13 12  1  0
 15 13  1  0
 16 15  1  1
 16 17  1  0
 17 10  1  0
 18 16  1  0
 18 19  2  0
 21 20  1  0
 21 22  2  0
 23 21  1  0
 24 23  1  6
 24 25  1  0
 25 18  1  0
 26 24  1  0
 27 26  1  0
 28 26  2  0
M  END
$$$$
