RLN.pdb
     RDKit          3D

 28 27  0  0  1  0  0  0  0  0999 V2000
   17.8158  -24.1461   -6.6701 N   0  0  0  0  0  0  0  0  0  0  0  0
   17.8448  -24.3805   -8.0718 C   0  0  0  0  0  0  0  0  0  0  0  0
   16.7218  -24.6740   -8.6369 N   0  0  0  0  0  0  0  0  0  0  0  0
   19.0487  -24.3029   -8.8417 N   0  0  0  0  0  0  0  0  0  0  0  0
   20.2720  -23.9211   -8.1790 C   0  0  0  0  0  0  0  0  0  0  0  0
   20.3080  -22.4056   -7.9277 C   0  0  0  0  0  0  0  0  0  0  0  0
   21.6054  -21.9270   -8.4997 C   0  0  0  0  0  0  0  0  0  0  0  0
   22.7561  -22.0407   -7.4943 C   0  0  2  0  0  0  0  0  0  0  0  0
   22.3049  -21.6940   -6.1677 N   0  0  0  0  0  0  0  0  0  0  0  0
   23.7608  -21.0536   -7.9314 C   0  0  0  0  0  0  0  0  0  0  0  0
   23.3851  -19.9740   -8.4243 O   0  0  0  0  0  0  0  0  0  0  0  0
   16.6303  -24.9432   -9.6408 C   0  0  0  0  0  0  0  0  0  0  0  0
   26.9496  -18.4554   -6.2972 C   0  0  2  0  0  0  0  0  0  0  0  0
   27.1546  -19.9519   -6.3054 C   0  0  0  0  0  0  0  0  0  0  0  0
   28.3118  -20.3512   -5.4035 C   0  0  0  0  0  0  0  0  0  0  0  0
   27.3657  -20.4687   -7.7072 C   0  0  2  0  0  0  0  0  0  0  0  0
   26.0837  -20.4482   -8.4686 N   0  0  0  0  0  0  0  0  0  0  0  0
   25.1374  -21.3182   -7.7975 C   0  0  0  0  0  0  0  0  0  0  0  0
   26.2365  -20.8818   -9.8731 O   0  0  0  0  0  0  0  0  0  0  0  0
   26.9073  -21.9010  -10.1438 N   0  0  0  0  0  0  0  0  0  0  0  0
   26.6991  -22.7991  -14.4359 C   0  0  0  0  0  0  0  0  0  0  0  0
   25.4543  -22.5002  -13.8144 O   0  0  0  0  0  0  0  0  0  0  0  0
   24.4297  -22.6672  -14.4896 C   0  0  0  0  0  0  0  0  0  0  0  0
   25.4419  -22.0233  -12.4476 C   0  0  1  0  0  0  0  0  0  0  0  0
   25.8652  -20.5903  -12.2943 N   0  0  0  0  0  0  0  0  0  0  0  0
   25.6345  -20.1568  -10.9053 C   0  0  0  0  0  0  0  0  0  0  0  0
   25.0486  -19.6489  -13.1172 O   0  0  0  0  0  0  0  0  0  0  0  0
   23.9884  -18.9352  -12.5795 O   0  0  0  0  0  0  0  0  0  0  0  0
  1  2  1  0
  2  4  1  0
  3  2  2  0
  4  5  1  0
  5  6  1  0
  7  6  1  0
  8  9  1  1
  8  7  1  0
 10  8  1  0
 11 10  2  0
 13 14  1  6
 13 12  1  0
 15 13  1  0
 16 15  1  1
 16 17  1  0
 17 10  1  0
 18 16  1  0
 18 19  2  0
 21 20  1  0
 21 22  2  0
 23 21  1  0
 24 23  1  1
 24 25  1  0
 25 18  1  0
 26 24  1  0
 27 26  1  0
 28 26  2  0
M  END
$$$$
