PLY.pdb
     RDKit          3D

 28 29  0  0  1  0  0  0  0  0999 V2000
    7.1475  -16.9810   21.0855 N   0  0  0  0  0  0  0  0  0  0  0  0
    6.1443  -16.9736   20.0541 C   0  0  0  0  0  0  0  0  0  0  0  0
    6.7986  -16.4335   18.8054 C   0  0  0  0  0  0  0  0  0  0  0  0
    7.9505  -15.6033   19.3225 C   0  0  0  0  0  0  0  0  0  0  0  0
    8.2729  -16.2374   20.6326 C   0  0  1  0  0  0  0  0  0  0  0  0
    8.7124  -15.2780   21.6706 C   0  0  0  0  0  0  0  0  0  0  0  0
    9.8124  -14.6997   21.6074 O   0  0  0  0  0  0  0  0  0  0  0  0
    7.1612  -11.3807   25.0503 C   0  0  0  0  0  0  0  0  0  0  0  0
    6.9742  -12.7734   25.6986 C   0  0  1  0  0  0  0  0  0  0  0  0
    5.7901  -12.6633   26.5869 C   0  0  0  0  0  0  0  0  0  0  0  0
    6.9119  -13.7266   24.5756 C   0  0  0  0  0  0  0  0  0  0  0  0
    8.1387  -14.0147   23.7993 C   0  0  2  0  0  0  0  0  0  0  0  0
    7.8693  -14.9960   22.7777 N   0  0  0  0  0  0  0  0  0  0  0  0
    9.3098  -14.3482   24.6272 C   0  0  0  0  0  0  0  0  0  0  0  0
    9.9547  -13.4096   25.1473 O   0  0  0  0  0  0  0  0  0  0  0  0
   12.2117  -17.0170   32.1509 O   0  0  0  0  0  0  0  0  0  0  0  0
   11.5525  -16.7475   30.9601 C   0  0  0  0  0  0  0  0  0  0  0  0
   11.3910  -15.4483   30.5347 C   0  0  0  0  0  0  0  0  0  0  0  0
   10.7380  -15.1689   29.3534 C   0  0  0  0  0  0  0  0  0  0  0  0
   10.2170  -16.1837   28.5452 C   0  0  0  0  0  0  0  0  0  0  0  0
    9.5042  -15.8715   27.2881 C   0  0  0  0  0  0  0  0  0  0  0  0
   10.4197  -16.0666   26.1211 C   0  0  2  0  0  0  0  0  0  0  0  0
    9.7543  -15.6694   24.8732 N   0  0  0  0  0  0  0  0  0  0  0  0
   10.9106  -17.4358   25.9618 C   0  0  0  0  0  0  0  0  0  0  0  0
   12.2464  -17.7261   26.2652 O   0  0  0  0  0  0  0  0  0  0  0  0
   10.4023  -17.4717   29.0117 C   0  0  0  0  0  0  0  0  0  0  0  0
   11.0494  -17.7700   30.1843 C   0  0  0  0  0  0  0  0  0  0  0  0
   10.1981  -18.4033   25.5592 O   0  0  0  0  0  0  0  0  0  0  0  0
  1  2  1  0
  3  2  1  0
  4  5  1  0
  4  3  1  0
  5  6  1  1
  5  1  1  0
  6  7  2  0
  9  8  1  6
  9 10  1  0
 11  9  1  0
 12 11  1  1
 13 12  1  0
 13  6  1  0
 14 12  1  0
 14 15  2  0
 16 17  1  0
 17 18  2  0
 17 27  1  0
 18 19  1  0
 19 20  2  0
 20 21  1  0
 22 21  1  1
 22 23  1  0
 22 24  1  0
 23 14  1  0
 24 28  2  0
 24 25  1  0
 26 20  1  0
 27 26  2  0
M  END
$$$$
