PLY.pdb
     RDKit          3D

 28 29  0  0  1  0  0  0  0  0999 V2000
    7.6279  -18.8467   20.8864 N   0  0  0  0  0  0  0  0  0  0  0  0
    6.6834  -19.1566   19.8462 C   0  0  0  0  0  0  0  0  0  0  0  0
    7.4807  -19.4413   18.5962 C   0  0  0  0  0  0  0  0  0  0  0  0
    8.7818  -18.7038   18.8131 C   0  0  0  0  0  0  0  0  0  0  0  0
    8.9092  -18.6567   20.2976 C   0  0  1  0  0  0  0  0  0  0  0  0
    9.5346  -17.4152   20.8061 C   0  0  0  0  0  0  0  0  0  0  0  0
   10.7282  -17.1421   20.5842 O   0  0  0  0  0  0  0  0  0  0  0  0
    6.7689  -12.8280   20.5510 C   0  0  0  0  0  0  0  0  0  0  0  0
    7.7961  -13.9823   20.4638 C   0  0  1  0  0  0  0  0  0  0  0  0
    8.7572  -13.6043   19.3977 C   0  0  0  0  0  0  0  0  0  0  0  0
    8.3131  -14.1551   21.8336 C   0  0  0  0  0  0  0  0  0  0  0  0
    9.2592  -15.2569   22.1186 C   0  0  2  0  0  0  0  0  0  0  0  0
    8.7677  -16.4970   21.5708 N   0  0  0  0  0  0  0  0  0  0  0  0
    9.6487  -15.3641   23.5346 C   0  0  0  0  0  0  0  0  0  0  0  0
   10.3783  -14.4690   24.0180 O   0  0  0  0  0  0  0  0  0  0  0  0
    6.1530  -11.1708   26.3050 O   0  0  0  0  0  0  0  0  0  0  0  0
    6.6819  -12.4508   26.3893 C   0  0  0  0  0  0  0  0  0  0  0  0
    7.9037  -12.6589   26.9883 C   0  0  0  0  0  0  0  0  0  0  0  0
    8.4387  -13.9262   27.0778 C   0  0  0  0  0  0  0  0  0  0  0  0
    7.7692  -15.0429   26.5686 C   0  0  0  0  0  0  0  0  0  0  0  0
    8.3600  -16.3954   26.6557 C   0  0  0  0  0  0  0  0  0  0  0  0
    9.5947  -16.4674   25.8141 C   0  0  2  0  0  0  0  0  0  0  0  0
    9.2483  -16.4206   24.3873 N   0  0  0  0  0  0  0  0  0  0  0  0
   10.4148  -17.6567   26.0466 C   0  0  0  0  0  0  0  0  0  0  0  0
   10.8919  -17.9204   27.3364 O   0  0  0  0  0  0  0  0  0  0  0  0
    6.5469  -14.7864   25.9762 C   0  0  0  0  0  0  0  0  0  0  0  0
    5.9978  -13.5328   25.8776 C   0  0  0  0  0  0  0  0  0  0  0  0
   10.7335  -18.4872   25.1441 O   0  0  0  0  0  0  0  0  0  0  0  0
  1  2  1  0
  3  2  1  0
  4  5  1  0
  4  3  1  0
  5  6  1  6
  5  1  1  0
  6  7  2  0
  9  8  1  1
  9 10  1  0
 11  9  1  0
 12 11  1  1
 13 12  1  0
 13  6  1  0
 14 12  1  0
 14 15  2  0
 16 17  1  0
 17 18  2  0
 17 27  1  0
 18 19  1  0
 19 20  2  0
 20 21  1  0
 22 21  1  1
 22 23  1  0
 22 24  1  0
 23 14  1  0
 24 28  2  0
 24 25  1  0
 26 20  1  0
 27 26  2  0
M  END
$$$$
