PLY.pdb
     RDKit          3D

 28 29  0  0  1  0  0  0  0  0999 V2000
    7.0785  -15.2724   20.1072 N   0  0  0  0  0  0  0  0  0  0  0  0
    6.0950  -14.5952   19.3045 C   0  0  0  0  0  0  0  0  0  0  0  0
    6.8327  -13.5794   18.4660 C   0  0  0  0  0  0  0  0  0  0  0  0
    8.0956  -13.3029   19.2485 C   0  0  0  0  0  0  0  0  0  0  0  0
    8.3080  -14.5618   20.0180 C   0  0  1  0  0  0  0  0  0  0  0  0
    8.8837  -14.3505   21.3653 C   0  0  0  0  0  0  0  0  0  0  0  0
   10.0631  -13.9880   21.5265 O   0  0  0  0  0  0  0  0  0  0  0  0
    5.7932  -12.8671   25.9776 C   0  0  0  0  0  0  0  0  0  0  0  0
    6.8740  -12.8221   24.8709 C   0  0  1  0  0  0  0  0  0  0  0  0
    7.8000  -11.7216   25.2381 C   0  0  0  0  0  0  0  0  0  0  0  0
    7.4187  -14.1900   24.7949 C   0  0  0  0  0  0  0  0  0  0  0  0
    8.5483  -14.4716   23.8811 C   0  0  2  0  0  0  0  0  0  0  0  0
    8.0837  -14.5622   22.5191 N   0  0  0  0  0  0  0  0  0  0  0  0
    9.3785  -15.6181   24.2867 C   0  0  0  0  0  0  0  0  0  0  0  0
    9.0038  -16.7667   23.9586 O   0  0  0  0  0  0  0  0  0  0  0  0
    9.8020  -15.1742   31.2217 O   0  0  0  0  0  0  0  0  0  0  0  0
   10.4603  -15.4559   30.0333 C   0  0  0  0  0  0  0  0  0  0  0  0
   10.5617  -14.4962   29.0516 C   0  0  0  0  0  0  0  0  0  0  0  0
   11.2136  -14.7650   27.8671 C   0  0  0  0  0  0  0  0  0  0  0  0
   11.7937  -16.0118   27.6154 C   0  0  0  0  0  0  0  0  0  0  0  0
   12.4765  -16.2941   26.3347 C   0  0  0  0  0  0  0  0  0  0  0  0
   11.4684  -16.6430   25.2859 C   0  0  2  0  0  0  0  0  0  0  0  0
   10.5792  -15.5027   25.0275 N   0  0  0  0  0  0  0  0  0  0  0  0
   10.6397  -17.8050   25.6085 C   0  0  0  0  0  0  0  0  0  0  0  0
   10.4011  -18.7726   24.6248 O   0  0  0  0  0  0  0  0  0  0  0  0
   11.6672  -16.9437   28.6285 C   0  0  0  0  0  0  0  0  0  0  0  0
   11.0226  -16.6954   29.8140 C   0  0  0  0  0  0  0  0  0  0  0  0
   10.1083  -18.0059   26.7412 O   0  0  0  0  0  0  0  0  0  0  0  0
  1  2  1  0
  3  2  1  0
  4  5  1  0
  4  3  1  0
  5  6  1  1
  5  1  1  0
  6  7  2  0
  9  8  1  1
  9 10  1  0
 11  9  1  0
 12 11  1  1
 13 12  1  0
 13  6  1  0
 14 12  1  0
 14 15  2  0
 16 17  1  0
 17 18  2  0
 17 27  1  0
 18 19  1  0
 19 20  2  0
 20 21  1  0
 22 21  1  1
 22 23  1  0
 22 24  1  0
 23 14  1  0
 24 28  2  0
 24 25  1  0
 26 20  1  0
 27 26  2  0
M  END
$$$$
