PLY.pdb
     RDKit          3D

 28 29  0  0  1  0  0  0  0  0999 V2000
    6.7128  -15.9534   20.9319 N   0  0  0  0  0  0  0  0  0  0  0  0
    5.6492  -15.4522   20.1026 C   0  0  0  0  0  0  0  0  0  0  0  0
    6.2897  -14.6208   19.0174 C   0  0  0  0  0  0  0  0  0  0  0  0
    7.6099  -14.1904   19.6135 C   0  0  0  0  0  0  0  0  0  0  0  0
    7.9148  -15.2707   20.5945 C   0  0  1  0  0  0  0  0  0  0  0  0
    8.6011  -14.7942   21.8164 C   0  0  0  0  0  0  0  0  0  0  0  0
    9.6916  -14.1968   21.7670 O   0  0  0  0  0  0  0  0  0  0  0  0
    5.4884  -13.1328   26.1114 C   0  0  0  0  0  0  0  0  0  0  0  0
    6.5947  -13.0752   25.0308 C   0  0  1  0  0  0  0  0  0  0  0  0
    7.1947  -11.7206   25.1214 C   0  0  0  0  0  0  0  0  0  0  0  0
    7.4637  -14.2371   25.2930 C   0  0  0  0  0  0  0  0  0  0  0  0
    8.5554  -14.5552   24.3457 C   0  0  2  0  0  0  0  0  0  0  0  0
    8.0148  -15.0153   23.0905 N   0  0  0  0  0  0  0  0  0  0  0  0
    9.5861  -15.4519   24.8951 C   0  0  0  0  0  0  0  0  0  0  0  0
    9.4544  -16.6843   24.7193 O   0  0  0  0  0  0  0  0  0  0  0  0
   11.8272  -17.9970   32.7302 O   0  0  0  0  0  0  0  0  0  0  0  0
   11.4468  -17.3401   31.5687 C   0  0  0  0  0  0  0  0  0  0  0  0
   11.8415  -16.0404   31.3452 C   0  0  0  0  0  0  0  0  0  0  0  0
   11.4696  -15.3782   30.1949 C   0  0  0  0  0  0  0  0  0  0  0  0
   10.6832  -15.9929   29.2160 C   0  0  0  0  0  0  0  0  0  0  0  0
   10.2767  -15.2676   27.9935 C   0  0  0  0  0  0  0  0  0  0  0  0
   11.1766  -15.6390   26.8576 C   0  0  2  0  0  0  0  0  0  0  0  0
   10.7218  -15.0057   25.6126 N   0  0  0  0  0  0  0  0  0  0  0  0
   11.2895  -17.0789   26.6234 C   0  0  0  0  0  0  0  0  0  0  0  0
   10.1429  -17.8136   26.2975 O   0  0  0  0  0  0  0  0  0  0  0  0
   10.3104  -17.2971   29.4829 C   0  0  0  0  0  0  0  0  0  0  0  0
   10.6705  -17.9730   30.6214 C   0  0  0  0  0  0  0  0  0  0  0  0
   12.3761  -17.7271   26.6954 O   0  0  0  0  0  0  0  0  0  0  0  0
  1  2  1  0
  3  2  1  0
  4  5  1  0
  4  3  1  0
  5  6  1  1
  5  1  1  0
  6  7  2  0
  9  8  1  1
  9 10  1  0
 11  9  1  0
 12 11  1  1
 13 12  1  0
 13  6  1  0
 14 12  1  0
 14 15  2  0
 16 17  1  0
 17 18  2  0
 17 27  1  0
 18 19  1  0
 19 20  2  0
 20 21  1  0
 22 21  1  1
 22 23  1  0
 22 24  1  0
 23 14  1  0
 24 28  2  0
 24 25  1  0
 26 20  1  0
 27 26  2  0
M  END
$$$$
