PLY.pdb
     RDKit          3D

 28 29  0  0  1  0  0  0  0  0999 V2000
    7.2102  -17.3423   21.0281 N   0  0  0  0  0  0  0  0  0  0  0  0
    6.0589  -17.5177   20.1832 C   0  0  0  0  0  0  0  0  0  0  0  0
    6.3789  -16.8656   18.8597 C   0  0  0  0  0  0  0  0  0  0  0  0
    7.4344  -15.8391   19.2003 C   0  0  0  0  0  0  0  0  0  0  0  0
    8.0876  -16.4049   20.4150 C   0  0  1  0  0  0  0  0  0  0  0  0
    8.5202  -15.3824   21.3939 C   0  0  0  0  0  0  0  0  0  0  0  0
    9.5513  -14.7064   21.2259 O   0  0  0  0  0  0  0  0  0  0  0  0
    6.9984  -11.6199   24.9285 C   0  0  0  0  0  0  0  0  0  0  0  0
    6.9437  -13.0230   25.5793 C   0  0  1  0  0  0  0  0  0  0  0  0
    5.8223  -12.9875   26.5511 C   0  0  0  0  0  0  0  0  0  0  0  0
    6.8585  -13.9756   24.4573 C   0  0  0  0  0  0  0  0  0  0  0  0
    8.0128  -14.1253   23.5431 C   0  0  2  0  0  0  0  0  0  0  0  0
    7.7503  -15.1512   22.5643 N   0  0  0  0  0  0  0  0  0  0  0  0
    9.3047  -14.2968   24.2287 C   0  0  0  0  0  0  0  0  0  0  0  0
    9.9329  -13.2707   24.5747 O   0  0  0  0  0  0  0  0  0  0  0  0
   12.1049  -16.8088   31.8753 O   0  0  0  0  0  0  0  0  0  0  0  0
   11.4789  -16.5204   30.6712 C   0  0  0  0  0  0  0  0  0  0  0  0
   10.8629  -17.5197   29.9522 C   0  0  0  0  0  0  0  0  0  0  0  0
   10.2378  -17.2446   28.7548 C   0  0  0  0  0  0  0  0  0  0  0  0
   10.2034  -15.9512   28.2253 C   0  0  0  0  0  0  0  0  0  0  0  0
    9.5439  -15.6706   26.9321 C   0  0  0  0  0  0  0  0  0  0  0  0
   10.5179  -15.8579   25.8121 C   0  0  2  0  0  0  0  0  0  0  0  0
    9.8834  -15.5548   24.5224 N   0  0  0  0  0  0  0  0  0  0  0  0
   11.0955  -17.2000   25.7332 C   0  0  0  0  0  0  0  0  0  0  0  0
   12.3225  -17.4574   26.3569 O   0  0  0  0  0  0  0  0  0  0  0  0
   10.8344  -14.9806   28.9807 C   0  0  0  0  0  0  0  0  0  0  0  0
   11.4616  -15.2345   30.1744 C   0  0  0  0  0  0  0  0  0  0  0  0
   10.5537  -18.1718   25.1265 O   0  0  0  0  0  0  0  0  0  0  0  0
  1  2  1  0
  3  2  1  0
  4  5  1  0
  4  3  1  0
  5  6  1  1
  5  1  1  0
  6  7  2  0
  9  8  1  6
  9 10  1  0
 11  9  1  0
 12 11  1  1
 13 12  1  0
 13  6  1  0
 14 12  1  0
 14 15  2  0
 16 17  1  0
 17 18  2  0
 17 27  1  0
 18 19  1  0
 19 20  2  0
 20 21  1  0
 22 21  1  1
 22 23  1  0
 22 24  1  0
 23 14  1  0
 24 28  2  0
 24 25  1  0
 26 20  1  0
 27 26  2  0
M  END
$$$$
