PLY.pdb
     RDKit          3D

 28 29  0  0  1  0  0  0  0  0999 V2000
    7.1492  -16.9207   20.8129 N   0  0  0  0  0  0  0  0  0  0  0  0
    5.9755  -16.6639   20.0212 C   0  0  0  0  0  0  0  0  0  0  0  0
    6.4095  -15.8150   18.8506 C   0  0  0  0  0  0  0  0  0  0  0  0
    7.6648  -15.1292   19.3379 C   0  0  0  0  0  0  0  0  0  0  0  0
    8.1984  -16.0719   20.3620 C   0  0  1  0  0  0  0  0  0  0  0  0
    8.8532  -15.4030   21.5087 C   0  0  0  0  0  0  0  0  0  0  0  0
    9.8474  -14.6693   21.3613 O   0  0  0  0  0  0  0  0  0  0  0  0
    6.0675  -13.3149   25.7285 C   0  0  0  0  0  0  0  0  0  0  0  0
    7.0410  -13.5306   24.5450 C   0  0  1  0  0  0  0  0  0  0  0  0
    7.6253  -12.2009   24.2392 C   0  0  0  0  0  0  0  0  0  0  0  0
    7.9531  -14.6062   24.9749 C   0  0  0  0  0  0  0  0  0  0  0  0
    8.9733  -15.1134   24.0303 C   0  0  2  0  0  0  0  0  0  0  0  0
    8.3476  -15.5911   22.8221 N   0  0  0  0  0  0  0  0  0  0  0  0
    9.9090  -16.0853   24.6203 C   0  0  0  0  0  0  0  0  0  0  0  0
    9.4349  -17.0519   25.2591 O   0  0  0  0  0  0  0  0  0  0  0  0
   10.7948  -16.5826   31.8416 O   0  0  0  0  0  0  0  0  0  0  0  0
   11.1133  -16.1805   30.5524 C   0  0  0  0  0  0  0  0  0  0  0  0
   10.5731  -15.0263   30.0319 C   0  0  0  0  0  0  0  0  0  0  0  0
   10.8827  -14.6172   28.7524 C   0  0  0  0  0  0  0  0  0  0  0  0
   11.7500  -15.3504   27.9373 C   0  0  0  0  0  0  0  0  0  0  0  0
   12.0622  -14.9106   26.5607 C   0  0  0  0  0  0  0  0  0  0  0  0
   12.2153  -16.1011   25.6677 C   0  0  2  0  0  0  0  0  0  0  0  0
   11.3173  -15.9948   24.5101 N   0  0  0  0  0  0  0  0  0  0  0  0
   11.9642  -17.3842   26.3247 C   0  0  0  0  0  0  0  0  0  0  0  0
   13.0483  -18.1620   26.7495 O   0  0  0  0  0  0  0  0  0  0  0  0
   12.2679  -16.5014   28.5011 C   0  0  0  0  0  0  0  0  0  0  0  0
   11.9721  -16.9250   29.7722 C   0  0  0  0  0  0  0  0  0  0  0  0
   10.8085  -17.8560   26.5435 O   0  0  0  0  0  0  0  0  0  0  0  0
  1  2  1  0
  3  2  1  0
  4  5  1  0
  4  3  1  0
  5  6  1  1
  5  1  1  0
  6  7  2  0
  9  8  1  1
  9 10  1  0
 11  9  1  0
 12 11  1  1
 13 12  1  0
 13  6  1  0
 14 12  1  0
 14 15  2  0
 16 17  1  0
 17 18  2  0
 17 27  1  0
 18 19  1  0
 19 20  2  0
 20 21  1  0
 22 21  1  1
 22 23  1  0
 22 24  1  0
 23 14  1  0
 24 28  2  0
 24 25  1  0
 26 20  1  0
 27 26  2  0
M  END
$$$$
