PLY.pdb
     RDKit          3D

 28 29  0  0  1  0  0  0  0  0999 V2000
    7.0547  -14.6389   20.6203 N   0  0  0  0  0  0  0  0  0  0  0  0
    6.3126  -13.6680   19.8607 C   0  0  0  0  0  0  0  0  0  0  0  0
    7.3176  -12.7130   19.2631 C   0  0  0  0  0  0  0  0  0  0  0  0
    8.5134  -12.8139   20.1816 C   0  0  0  0  0  0  0  0  0  0  0  0
    8.3977  -14.1871   20.7500 C   0  0  1  0  0  0  0  0  0  0  0  0
    8.8468  -14.2931   22.1565 C   0  0  0  0  0  0  0  0  0  0  0  0
   10.0521  -14.2682   22.4651 O   0  0  0  0  0  0  0  0  0  0  0  0
    5.6304  -12.3334   26.3278 C   0  0  0  0  0  0  0  0  0  0  0  0
    6.9216  -12.5471   25.5018 C   0  0  1  0  0  0  0  0  0  0  0  0
    7.9786  -11.7448   26.1670 C   0  0  0  0  0  0  0  0  0  0  0  0
    7.1048  -14.0080   25.4261 C   0  0  0  0  0  0  0  0  0  0  0  0
    8.2013  -14.5601   24.5996 C   0  0  2  0  0  0  0  0  0  0  0  0
    7.8909  -14.4277   23.1976 N   0  0  0  0  0  0  0  0  0  0  0  0
    8.6097  -15.9239   24.9754 C   0  0  0  0  0  0  0  0  0  0  0  0
    7.7379  -16.8223   24.9848 O   0  0  0  0  0  0  0  0  0  0  0  0
   13.3539  -23.1631   26.5392 O   0  0  0  0  0  0  0  0  0  0  0  0
   12.9099  -21.9176   26.1187 C   0  0  0  0  0  0  0  0  0  0  0  0
   13.4051  -20.7718   26.6991 C   0  0  0  0  0  0  0  0  0  0  0  0
   12.9713  -19.5292   26.2891 C   0  0  0  0  0  0  0  0  0  0  0  0
   12.0192  -19.3819   25.2762 C   0  0  0  0  0  0  0  0  0  0  0  0
   11.5492  -18.0446   24.8557 C   0  0  0  0  0  0  0  0  0  0  0  0
   10.3269  -17.6668   25.6311 C   0  0  2  0  0  0  0  0  0  0  0  0
    9.9322  -16.2847   25.3283 N   0  0  0  0  0  0  0  0  0  0  0  0
   10.4696  -17.7941   27.0818 C   0  0  0  0  0  0  0  0  0  0  0  0
   10.9044  -16.6922   27.8284 O   0  0  0  0  0  0  0  0  0  0  0  0
   11.5502  -20.5587   24.7229 C   0  0  0  0  0  0  0  0  0  0  0  0
   11.9695  -21.8043   25.1170 C   0  0  0  0  0  0  0  0  0  0  0  0
   10.2224  -18.8550   27.7294 O   0  0  0  0  0  0  0  0  0  0  0  0
  1  2  1  0
  3  2  1  0
  4  5  1  0
  4  3  1  0
  5  6  1  1
  5  1  1  0
  6  7  2  0
  9  8  1  1
  9 10  1  0
 11  9  1  0
 12 11  1  1
 13 12  1  0
 13  6  1  0
 14 12  1  0
 14 15  2  0
 16 17  1  0
 17 18  2  0
 17 27  1  0
 18 19  1  0
 19 20  2  0
 20 21  1  0
 22 21  1  6
 22 23  1  0
 22 24  1  0
 23 14  1  0
 24 28  2  0
 24 25  1  0
 26 20  1  0
 27 26  2  0
M  END
$$$$
