PLY.pdb
     RDKit          3D

 28 29  0  0  1  0  0  0  0  0999 V2000
    7.1259  -14.8860   21.1634 N   0  0  0  0  0  0  0  0  0  0  0  0
    6.2943  -13.9752   20.4225 C   0  0  0  0  0  0  0  0  0  0  0  0
    7.2133  -12.9770   19.7604 C   0  0  0  0  0  0  0  0  0  0  0  0
    8.4542  -12.9902   20.6227 C   0  0  0  0  0  0  0  0  0  0  0  0
    8.4450  -14.3555   21.2209 C   0  0  1  0  0  0  0  0  0  0  0  0
    8.9643  -14.4062   22.6061 C   0  0  0  0  0  0  0  0  0  0  0  0
   10.1612  -14.1883   22.8676 O   0  0  0  0  0  0  0  0  0  0  0  0
    5.8406  -12.6191   26.8677 C   0  0  0  0  0  0  0  0  0  0  0  0
    7.0101  -12.7973   25.8699 C   0  0  1  0  0  0  0  0  0  0  0  0
    8.0515  -11.8184   26.2704 C   0  0  0  0  0  0  0  0  0  0  0  0
    7.3523  -14.2307   25.9147 C   0  0  0  0  0  0  0  0  0  0  0  0
    8.4593  -14.7390   25.0741 C   0  0  2  0  0  0  0  0  0  0  0  0
    8.0879  -14.7103   23.6810 N   0  0  0  0  0  0  0  0  0  0  0  0
    8.9912  -16.0430   25.5042 C   0  0  0  0  0  0  0  0  0  0  0  0
    8.3903  -16.6571   26.4147 O   0  0  0  0  0  0  0  0  0  0  0  0
    9.2143  -18.4282   19.1998 O   0  0  0  0  0  0  0  0  0  0  0  0
    9.7824  -18.4568   20.4653 C   0  0  0  0  0  0  0  0  0  0  0  0
   10.8720  -17.6670   20.7552 C   0  0  0  0  0  0  0  0  0  0  0  0
   11.4443  -17.6874   22.0091 C   0  0  0  0  0  0  0  0  0  0  0  0
   10.9470  -18.5033   23.0295 C   0  0  0  0  0  0  0  0  0  0  0  0
   11.5788  -18.5291   24.3659 C   0  0  0  0  0  0  0  0  0  0  0  0
   10.6412  -17.9612   25.3839 C   0  0  2  0  0  0  0  0  0  0  0  0
   10.1445  -16.6485   24.9502 N   0  0  0  0  0  0  0  0  0  0  0  0
   11.2193  -17.8126   26.7199 C   0  0  0  0  0  0  0  0  0  0  0  0
   11.7447  -18.9362   27.3697 O   0  0  0  0  0  0  0  0  0  0  0  0
    9.8531  -19.2787   22.6932 C   0  0  0  0  0  0  0  0  0  0  0  0
    9.2695  -19.2724   21.4514 C   0  0  0  0  0  0  0  0  0  0  0  0
   11.2813  -16.7141   27.3487 O   0  0  0  0  0  0  0  0  0  0  0  0
  1  2  1  0
  3  2  1  0
  4  5  1  0
  4  3  1  0
  5  6  1  1
  5  1  1  0
  6  7  2  0
  9  8  1  1
  9 10  1  0
 11  9  1  0
 12 11  1  1
 13 12  1  0
 13  6  1  0
 14 12  1  0
 14 15  2  0
 16 17  1  0
 17 18  2  0
 17 27  1  0
 18 19  1  0
 19 20  2  0
 20 21  1  0
 22 21  1  6
 22 23  1  0
 22 24  1  0
 23 14  1  0
 24 28  2  0
 24 25  1  0
 26 20  1  0
 27 26  2  0
M  END
$$$$
