PLY.pdb
     RDKit          3D

 28 29  0  0  1  0  0  0  0  0999 V2000
    6.7994  -17.4620   21.4062 N   0  0  0  0  0  0  0  0  0  0  0  0
    5.4876  -17.6726   20.8538 C   0  0  0  0  0  0  0  0  0  0  0  0
    5.4592  -16.9870   19.5091 C   0  0  0  0  0  0  0  0  0  0  0  0
    6.5263  -15.9221   19.6158 C   0  0  0  0  0  0  0  0  0  0  0  0
    7.4702  -16.4787   20.6265 C   0  0  1  0  0  0  0  0  0  0  0  0
    8.0844  -15.4542   21.5007 C   0  0  0  0  0  0  0  0  0  0  0  0
    8.9802  -14.6933   21.0921 O   0  0  0  0  0  0  0  0  0  0  0  0
    7.3363  -11.6025   25.0290 C   0  0  0  0  0  0  0  0  0  0  0  0
    7.3179  -12.9577   25.7761 C   0  0  1  0  0  0  0  0  0  0  0  0
    6.3346  -12.8118   26.8784 C   0  0  0  0  0  0  0  0  0  0  0  0
    7.0542  -13.9751   24.7422 C   0  0  0  0  0  0  0  0  0  0  0  0
    8.1190  -14.3182   23.7733 C   0  0  2  0  0  0  0  0  0  0  0  0
    7.6531  -15.3201   22.8467 N   0  0  0  0  0  0  0  0  0  0  0  0
    9.4097  -14.6601   24.3942 C   0  0  0  0  0  0  0  0  0  0  0  0
   10.0315  -13.7601   25.0029 O   0  0  0  0  0  0  0  0  0  0  0  0
    9.5294  -14.3089   30.6961 O   0  0  0  0  0  0  0  0  0  0  0  0
    9.9244  -15.0238   29.5745 C   0  0  0  0  0  0  0  0  0  0  0  0
   10.8057  -14.4704   28.6734 C   0  0  0  0  0  0  0  0  0  0  0  0
   11.2051  -15.1716   27.5558 C   0  0  0  0  0  0  0  0  0  0  0  0
   10.7361  -16.4621   27.2929 C   0  0  0  0  0  0  0  0  0  0  0  0
   11.1587  -17.1986   26.0825 C   0  0  0  0  0  0  0  0  0  0  0  0
   11.3056  -16.2507   24.9345 C   0  0  2  0  0  0  0  0  0  0  0  0
    9.9941  -15.9484   24.3459 N   0  0  0  0  0  0  0  0  0  0  0  0
   12.1866  -16.7271   23.8678 C   0  0  0  0  0  0  0  0  0  0  0  0
   11.6915  -16.8280   22.5619 O   0  0  0  0  0  0  0  0  0  0  0  0
    9.8536  -16.9770   28.2240 C   0  0  0  0  0  0  0  0  0  0  0  0
    9.4444  -16.2951   29.3421 C   0  0  0  0  0  0  0  0  0  0  0  0
   13.3957  -17.0639   24.0427 O   0  0  0  0  0  0  0  0  0  0  0  0
  1  2  1  0
  3  2  1  0
  4  5  1  0
  4  3  1  0
  5  6  1  1
  5  1  1  0
  6  7  2  0
  9  8  1  6
  9 10  1  0
 11  9  1  0
 12 11  1  1
 13 12  1  0
 13  6  1  0
 14 12  1  0
 14 15  2  0
 16 17  1  0
 17 18  2  0
 17 27  1  0
 18 19  1  0
 19 20  2  0
 20 21  1  0
 22 21  1  1
 22 23  1  0
 22 24  1  0
 23 14  1  0
 24 28  2  0
 24 25  1  0
 26 20  1  0
 27 26  2  0
M  END
$$$$
