PLY.pdb
     RDKit          3D

 28 29  0  0  1  0  0  0  0  0999 V2000
    8.4653  -14.6324   19.3781 N   0  0  0  0  0  0  0  0  0  0  0  0
    7.9300  -13.9915   18.2064 C   0  0  0  0  0  0  0  0  0  0  0  0
    7.6214  -12.5634   18.5862 C   0  0  0  0  0  0  0  0  0  0  0  0
    7.4262  -12.6143   20.0839 C   0  0  0  0  0  0  0  0  0  0  0  0
    8.2505  -13.7845   20.5003 C   0  0  1  0  0  0  0  0  0  0  0  0
    7.6748  -14.5520   21.6275 C   0  0  0  0  0  0  0  0  0  0  0  0
    7.2472  -13.9922   22.6533 O   0  0  0  0  0  0  0  0  0  0  0  0
    5.8852  -19.7554   20.4151 C   0  0  0  0  0  0  0  0  0  0  0  0
    5.8976  -18.2537   20.7889 C   0  0  1  0  0  0  0  0  0  0  0  0
    4.4762  -17.8346   20.8746 C   0  0  0  0  0  0  0  0  0  0  0  0
    6.7234  -18.1566   22.0063 C   0  0  0  0  0  0  0  0  0  0  0  0
    7.0326  -16.8231   22.5690 C   0  0  2  0  0  0  0  0  0  0  0  0
    7.5994  -15.9680   21.5556 N   0  0  0  0  0  0  0  0  0  0  0  0
    7.8312  -16.8625   23.8055 C   0  0  0  0  0  0  0  0  0  0  0  0
    9.0759  -16.9512   23.7047 O   0  0  0  0  0  0  0  0  0  0  0  0
    7.2548  -10.5518   25.5676 O   0  0  0  0  0  0  0  0  0  0  0  0
    7.2957  -11.8647   26.0146 C   0  0  0  0  0  0  0  0  0  0  0  0
    8.4791  -12.5677   25.9962 C   0  0  0  0  0  0  0  0  0  0  0  0
    8.5314  -13.8724   26.4380 C   0  0  0  0  0  0  0  0  0  0  0  0
    7.3955  -14.5304   26.9187 C   0  0  0  0  0  0  0  0  0  0  0  0
    7.4600  -15.9353   27.3749 C   0  0  0  0  0  0  0  0  0  0  0  0
    8.1013  -16.7838   26.3229 C   0  0  2  0  0  0  0  0  0  0  0  0
    7.2774  -16.8060   25.1070 N   0  0  0  0  0  0  0  0  0  0  0  0
    8.3501  -18.1665   26.7319 C   0  0  0  0  0  0  0  0  0  0  0  0
    9.2633  -18.4243   27.7616 O   0  0  0  0  0  0  0  0  0  0  0  0
    6.2305  -13.7862   26.9185 C   0  0  0  0  0  0  0  0  0  0  0  0
    6.1583  -12.4870   26.4832 C   0  0  0  0  0  0  0  0  0  0  0  0
    7.7858  -19.1740   26.2100 O   0  0  0  0  0  0  0  0  0  0  0  0
  1  2  1  0
  3  2  1  0
  4  5  1  0
  4  3  1  0
  5  6  1  1
  5  1  1  0
  6  7  2  0
  9  8  1  1
  9 10  1  0
 11  9  1  0
 12 11  1  6
 13 12  1  0
 13  6  1  0
 14 12  1  0
 14 15  2  0
 16 17  1  0
 17 18  2  0
 17 27  1  0
 18 19  1  0
 19 20  2  0
 20 21  1  0
 22 21  1  1
 22 23  1  0
 22 24  1  0
 23 14  1  0
 24 28  2  0
 24 25  1  0
 26 20  1  0
 27 26  2  0
M  END
$$$$
