PLY.pdb
     RDKit          3D

 28 29  0  0  1  0  0  0  0  0999 V2000
    6.7724  -16.5190   21.9127 N   0  0  0  0  0  0  0  0  0  0  0  0
    5.5209  -16.2122   21.2725 C   0  0  0  0  0  0  0  0  0  0  0  0
    5.8486  -15.6222   19.9220 C   0  0  0  0  0  0  0  0  0  0  0  0
    7.2431  -15.0651   20.0918 C   0  0  0  0  0  0  0  0  0  0  0  0
    7.8247  -15.9125   21.1715 C   0  0  1  0  0  0  0  0  0  0  0  0
    8.7429  -15.1841   22.0757 C   0  0  0  0  0  0  0  0  0  0  0  0
    9.8334  -14.7331   21.6808 O   0  0  0  0  0  0  0  0  0  0  0  0
    6.4431  -12.5916   26.4909 C   0  0  0  0  0  0  0  0  0  0  0  0
    7.1938  -12.8276   25.1584 C   0  0  1  0  0  0  0  0  0  0  0  0
    7.5299  -11.4833   24.6264 C   0  0  0  0  0  0  0  0  0  0  0  0
    8.3039  -13.7405   25.4868 C   0  0  0  0  0  0  0  0  0  0  0  0
    9.1695  -14.2509   24.4003 C   0  0  2  0  0  0  0  0  0  0  0  0
    8.3875  -14.9839   23.4357 N   0  0  0  0  0  0  0  0  0  0  0  0
   10.3512  -14.9929   24.8709 C   0  0  0  0  0  0  0  0  0  0  0  0
   11.2881  -14.3465   25.3920 O   0  0  0  0  0  0  0  0  0  0  0  0
    9.5295  -15.0792   30.9903 O   0  0  0  0  0  0  0  0  0  0  0  0
    9.9151  -15.8176   29.8808 C   0  0  0  0  0  0  0  0  0  0  0  0
   10.9329  -15.3707   29.0689 C   0  0  0  0  0  0  0  0  0  0  0  0
   11.3242  -16.0962   27.9641 C   0  0  0  0  0  0  0  0  0  0  0  0
   10.7097  -17.3052   27.6249 C   0  0  0  0  0  0  0  0  0  0  0  0
   11.1269  -18.0670   26.4284 C   0  0  0  0  0  0  0  0  0  0  0  0
   11.6181  -17.1282   25.3723 C   0  0  2  0  0  0  0  0  0  0  0  0
   10.4948  -16.3975   24.7706 N   0  0  0  0  0  0  0  0  0  0  0  0
   12.3732  -17.7719   24.2969 C   0  0  0  0  0  0  0  0  0  0  0  0
   11.9092  -17.6760   22.9792 O   0  0  0  0  0  0  0  0  0  0  0  0
    9.6934  -17.7146   28.4679 C   0  0  0  0  0  0  0  0  0  0  0  0
    9.2897  -17.0068   29.5718 C   0  0  0  0  0  0  0  0  0  0  0  0
   13.4437  -18.4266   24.4741 O   0  0  0  0  0  0  0  0  0  0  0  0
  1  2  1  0
  3  2  1  0
  4  5  1  0
  4  3  1  0
  5  6  1  1
  5  1  1  0
  6  7  2  0
  9  8  1  1
  9 10  1  0
 11  9  1  0
 12 11  1  1
 13 12  1  0
 13  6  1  0
 14 12  1  0
 14 15  2  0
 16 17  1  0
 17 18  2  0
 17 27  1  0
 18 19  1  0
 19 20  2  0
 20 21  1  0
 22 21  1  1
 22 23  1  0
 22 24  1  0
 23 14  1  0
 24 28  2  0
 24 25  1  0
 26 20  1  0
 27 26  2  0
M  END
$$$$
