PLY.pdb
     RDKit          3D

 28 29  0  0  1  0  0  0  0  0999 V2000
    7.4119  -17.3201   20.8531 N   0  0  0  0  0  0  0  0  0  0  0  0
    6.1057  -17.5457   20.2935 C   0  0  0  0  0  0  0  0  0  0  0  0
    5.9093  -16.5203   19.2031 C   0  0  0  0  0  0  0  0  0  0  0  0
    6.8386  -15.3919   19.5864 C   0  0  0  0  0  0  0  0  0  0  0  0
    7.9050  -16.0746   20.3732 C   0  0  1  0  0  0  0  0  0  0  0  0
    8.4380  -15.2628   21.4902 C   0  0  0  0  0  0  0  0  0  0  0  0
    9.5297  -14.6711   21.4100 O   0  0  0  0  0  0  0  0  0  0  0  0
    7.2039  -11.7386   25.3162 C   0  0  0  0  0  0  0  0  0  0  0  0
    6.9628  -13.1761   25.8363 C   0  0  1  0  0  0  0  0  0  0  0  0
    5.8013  -13.0961   26.7571 C   0  0  0  0  0  0  0  0  0  0  0  0
    6.8353  -14.0158   24.6312 C   0  0  0  0  0  0  0  0  0  0  0  0
    8.0279  -14.2650   23.7909 C   0  0  2  0  0  0  0  0  0  0  0  0
    7.6977  -15.1433   22.6959 N   0  0  0  0  0  0  0  0  0  0  0  0
    9.2146  -14.7018   24.5452 C   0  0  0  0  0  0  0  0  0  0  0  0
    9.6573  -13.9486   25.4419 O   0  0  0  0  0  0  0  0  0  0  0  0
   11.4153  -13.9278   31.0473 O   0  0  0  0  0  0  0  0  0  0  0  0
   10.9825  -14.6497   29.9443 C   0  0  0  0  0  0  0  0  0  0  0  0
   11.3470  -15.9682   29.7910 C   0  0  0  0  0  0  0  0  0  0  0  0
   10.9228  -16.6950   28.6993 C   0  0  0  0  0  0  0  0  0  0  0  0
   10.1121  -16.1289   27.7110 C   0  0  0  0  0  0  0  0  0  0  0  0
    9.6763  -16.9133   26.5360 C   0  0  0  0  0  0  0  0  0  0  0  0
   10.5931  -16.6551   25.3824 C   0  0  2  0  0  0  0  0  0  0  0  0
    9.8894  -15.9255   24.3192 N   0  0  0  0  0  0  0  0  0  0  0  0
   11.1810  -17.8606   24.7975 C   0  0  0  0  0  0  0  0  0  0  0  0
   12.1720  -18.5535   25.5037 O   0  0  0  0  0  0  0  0  0  0  0  0
    9.7715  -14.8035   27.9063 C   0  0  0  0  0  0  0  0  0  0  0  0
   10.1835  -14.0636   28.9858 C   0  0  0  0  0  0  0  0  0  0  0  0
   10.8514  -18.3365   23.6702 O   0  0  0  0  0  0  0  0  0  0  0  0
  1  2  1  0
  3  2  1  0
  4  5  1  0
  4  3  1  0
  5  6  1  1
  5  1  1  0
  6  7  2  0
  9  8  1  6
  9 10  1  0
 11  9  1  0
 12 11  1  1
 13 12  1  0
 13  6  1  0
 14 12  1  0
 14 15  2  0
 16 17  1  0
 17 18  2  0
 17 27  1  0
 18 19  1  0
 19 20  2  0
 20 21  1  0
 22 21  1  1
 22 23  1  0
 22 24  1  0
 23 14  1  0
 24 28  2  0
 24 25  1  0
 26 20  1  0
 27 26  2  0
M  END
$$$$
