KLS.pdb
     RDKit          3D

 24 23  0  0  1  0  0  0  0  0999 V2000
   27.7042  -21.8148  -15.8885 N   0  0  0  0  0  0  0  0  0  0  0  0
   26.7732  -20.7507  -15.5893 C   0  0  1  0  0  0  0  0  0  0  0  0
   26.1809  -20.2820  -16.9062 C   0  0  0  0  0  0  0  0  0  0  0  0
   27.1691  -19.4428  -17.6683 C   0  0  0  0  0  0  0  0  0  0  0  0
   26.9515  -17.9837  -17.4279 C   0  0  0  0  0  0  0  0  0  0  0  0
   26.3874  -17.3850  -18.7168 C   0  0  0  0  0  0  0  0  0  0  0  0
   26.3508  -15.9352  -18.4857 N   0  0  0  0  0  0  0  0  0  0  0  0
   25.7172  -21.2425  -14.6696 C   0  0  0  0  0  0  0  0  0  0  0  0
   25.2373  -22.3909  -14.8872 O   0  0  0  0  0  0  0  0  0  0  0  0
   26.0797  -22.3230  -10.6377 C   0  0  0  0  0  0  0  0  0  0  0  0
   25.7771  -20.8412  -10.6535 C   0  0  2  0  0  0  0  0  0  0  0  0
   26.0283  -20.2411   -9.3086 C   0  0  0  0  0  0  0  0  0  0  0  0
   24.5398  -20.4537  -11.3551 C   0  0  0  0  0  0  0  0  0  0  0  0
   24.2455  -21.0321  -12.6922 C   0  0  2  0  0  0  0  0  0  0  0  0
   25.2661  -20.4499  -13.5880 N   0  0  0  0  0  0  0  0  0  0  0  0
   22.9044  -20.7842  -13.2424 C   0  0  0  0  0  0  0  0  0  0  0  0
   22.4290  -19.6619  -13.5336 O   0  0  0  0  0  0  0  0  0  0  0  0
   20.1975  -23.9843  -14.2441 O   0  0  0  0  0  0  0  0  0  0  0  0
   20.2934  -22.8107  -15.0089 C   0  0  0  0  0  0  0  0  0  0  0  0
   20.6795  -21.6849  -14.0730 C   0  0  2  0  0  0  0  0  0  0  0  0
   21.9857  -21.8727  -13.5022 N   0  0  0  0  0  0  0  0  0  0  0  0
   19.6440  -21.3986  -13.0764 C   0  0  0  0  0  0  0  0  0  0  0  0
   18.3647  -21.0874  -13.4802 O   0  0  0  0  0  0  0  0  0  0  0  0
   19.9117  -21.4342  -11.8598 O   0  0  0  0  0  0  0  0  0  0  0  0
  2  1  1  6
  3  2  1  0
  4  3  1  0
  5  6  1  0
  5  4  1  0
  6  7  1  0
  8  9  2  0
  8  2  1  0
 11 10  1  1
 12 11  1  0
 13 11  1  0
 14 13  1  1
 14 15  1  0
 15  8  1  0
 16 14  1  0
 17 16  2  0
 18 19  1  0
 20 19  1  1
 20 21  1  0
 21 16  1  0
 22 20  1  0
 22 23  1  0
 24 22  2  0
M  END
$$$$
