KLS.pdb
     RDKit          3D

 24 23  0  0  1  0  0  0  0  0999 V2000
   22.4426  -22.7951  -14.2697 N   0  0  0  0  0  0  0  0  0  0  0  0
   21.9973  -21.4259  -14.1448 C   0  0  1  0  0  0  0  0  0  0  0  0
   20.7186  -21.4371  -13.3265 C   0  0  0  0  0  0  0  0  0  0  0  0
   19.6480  -22.2349  -14.0185 C   0  0  0  0  0  0  0  0  0  0  0  0
   19.1502  -21.5392  -15.2441 C   0  0  0  0  0  0  0  0  0  0  0  0
   18.0740  -22.4264  -15.8707 C   0  0  0  0  0  0  0  0  0  0  0  0
   17.6211  -21.7002  -17.0640 N   0  0  0  0  0  0  0  0  0  0  0  0
   23.0477  -20.6072  -13.4895 C   0  0  0  0  0  0  0  0  0  0  0  0
   22.8438  -19.3647  -13.3851 O   0  0  0  0  0  0  0  0  0  0  0  0
   24.1415  -19.5658   -9.7103 C   0  0  0  0  0  0  0  0  0  0  0  0
   24.7542  -20.9110  -10.0304 C   0  0  2  0  0  0  0  0  0  0  0  0
   25.1825  -21.6028   -8.7774 C   0  0  0  0  0  0  0  0  0  0  0  0
   25.6849  -20.9284  -11.1736 C   0  0  0  0  0  0  0  0  0  0  0  0
   25.2762  -20.3037  -12.4588 C   0  0  2  0  0  0  0  0  0  0  0  0
   24.2348  -21.2013  -13.0001 N   0  0  0  0  0  0  0  0  0  0  0  0
   26.3300  -20.1045  -13.4651 C   0  0  0  0  0  0  0  0  0  0  0  0
   27.3490  -19.3885  -13.3255 O   0  0  0  0  0  0  0  0  0  0  0  0
   28.3348  -22.3982  -14.9150 O   0  0  0  0  0  0  0  0  0  0  0  0
   28.0339  -21.7594  -16.1286 C   0  0  0  0  0  0  0  0  0  0  0  0
   27.2239  -20.5216  -15.8056 C   0  0  2  0  0  0  0  0  0  0  0  0
   26.2668  -20.7531  -14.7580 N   0  0  0  0  0  0  0  0  0  0  0  0
   26.6428  -19.8996  -16.9985 C   0  0  0  0  0  0  0  0  0  0  0  0
   27.4349  -19.6326  -18.0929 O   0  0  0  0  0  0  0  0  0  0  0  0
   25.4316  -19.6083  -17.0320 O   0  0  0  0  0  0  0  0  0  0  0  0
  2  1  1  1
  3  2  1  0
  4  3  1  0
  5  6  1  0
  5  4  1  0
  6  7  1  0
  8  9  2  0
  8  2  1  0
 11 10  1  1
 12 11  1  0
 13 11  1  0
 14 13  1  1
 14 15  1  0
 15  8  1  0
 16 14  1  0
 17 16  2  0
 18 19  1  0
 20 19  1  6
 20 21  1  0
 21 16  1  0
 22 20  1  0
 22 23  1  0
 24 22  2  0
M  END
$$$$
