KLS.pdb
     RDKit          3D

 24 23  0  0  1  0  0  0  0  0999 V2000
   20.1152  -11.2361  -19.1498 N   0  0  0  0  0  0  0  0  0  0  0  0
   19.3555  -10.9321  -17.9585 C   0  0  1  0  0  0  0  0  0  0  0  0
   18.7025  -12.2218  -17.4950 C   0  0  0  0  0  0  0  0  0  0  0  0
   17.8006  -12.7780  -18.5622 C   0  0  0  0  0  0  0  0  0  0  0  0
   17.1561  -14.0543  -18.1266 C   0  0  0  0  0  0  0  0  0  0  0  0
   16.2581  -14.5287  -19.2695 C   0  0  0  0  0  0  0  0  0  0  0  0
   15.6915  -15.8040  -18.8119 N   0  0  0  0  0  0  0  0  0  0  0  0
   20.2503  -10.3765  -16.9128 C   0  0  0  0  0  0  0  0  0  0  0  0
   19.7378  -10.0870  -15.7948 O   0  0  0  0  0  0  0  0  0  0  0  0
   26.2393  -10.4170  -15.6979 C   0  0  0  0  0  0  0  0  0  0  0  0
   24.8834   -9.8536  -15.3353 C   0  0  2  0  0  0  0  0  0  0  0  0
   24.6742   -9.9030  -13.8569 C   0  0  0  0  0  0  0  0  0  0  0  0
   23.7673  -10.2806  -16.1986 C   0  0  0  0  0  0  0  0  0  0  0  0
   22.4473   -9.6093  -16.0729 C   0  0  2  0  0  0  0  0  0  0  0  0
   21.6288  -10.1795  -17.1630 N   0  0  0  0  0  0  0  0  0  0  0  0
   22.4375   -8.1414  -16.1623 C   0  0  0  0  0  0  0  0  0  0  0  0
   22.8627   -7.4644  -17.1274 O   0  0  0  0  0  0  0  0  0  0  0  0
   19.6227   -5.6399  -14.8375 O   0  0  0  0  0  0  0  0  0  0  0  0
   20.6923   -5.2795  -15.6728 C   0  0  0  0  0  0  0  0  0  0  0  0
   21.9511   -5.8894  -15.0932 C   0  0  2  0  0  0  0  0  0  0  0  0
   21.9095   -7.3266  -15.0883 N   0  0  0  0  0  0  0  0  0  0  0  0
   22.3125   -5.3127  -13.7954 C   0  0  0  0  0  0  0  0  0  0  0  0
   22.5594   -3.9624  -13.6850 O   0  0  0  0  0  0  0  0  0  0  0  0
   22.3989   -6.0369  -12.7849 O   0  0  0  0  0  0  0  0  0  0  0  0
  2  1  1  6
  3  2  1  0
  4  3  1  0
  5  6  1  0
  5  4  1  0
  6  7  1  0
  8  9  2  0
  8  2  1  0
 11 10  1  1
 12 11  1  0
 13 11  1  0
 14 13  1  6
 14 15  1  0
 15  8  1  0
 16 14  1  0
 17 16  2  0
 18 19  1  0
 20 19  1  1
 20 21  1  0
 21 16  1  0
 22 20  1  0
 22 23  1  0
 24 22  2  0
M  END
$$$$
