KLS.pdb
     RDKit          3D

 24 23  0  0  1  0  0  0  0  0999 V2000
   14.7840  -12.6172    4.0331 N   0  0  0  0  0  0  0  0  0  0  0  0
   15.0484  -13.1490    5.3506 C   0  0  1  0  0  0  0  0  0  0  0  0
   14.0904  -14.3054    5.5740 C   0  0  0  0  0  0  0  0  0  0  0  0
   12.6707  -13.8157    5.6535 C   0  0  0  0  0  0  0  0  0  0  0  0
   11.7062  -14.9484    5.7977 C   0  0  0  0  0  0  0  0  0  0  0  0
   10.2979  -14.3532    5.8134 C   0  0  0  0  0  0  0  0  0  0  0  0
    9.3904  -15.5078    5.8211 N   0  0  0  0  0  0  0  0  0  0  0  0
   16.4608  -13.5952    5.4448 C   0  0  0  0  0  0  0  0  0  0  0  0
   16.8637  -14.4499    4.6060 O   0  0  0  0  0  0  0  0  0  0  0  0
   21.4624  -13.2876    8.1171 C   0  0  0  0  0  0  0  0  0  0  0  0
   21.0006  -12.5157    6.9012 C   0  0  2  0  0  0  0  0  0  0  0  0
   21.8379  -11.2937    6.7075 C   0  0  0  0  0  0  0  0  0  0  0  0
   19.5403  -12.3742    6.7564 C   0  0  0  0  0  0  0  0  0  0  0  0
   18.7145  -13.5751    6.4650 C   0  0  2  0  0  0  0  0  0  0  0  0
   17.3229  -13.0790    6.4407 N   0  0  0  0  0  0  0  0  0  0  0  0
   18.8229  -14.6999    7.4061 C   0  0  0  0  0  0  0  0  0  0  0  0
   18.3780  -14.7192    8.5775 O   0  0  0  0  0  0  0  0  0  0  0  0
   19.4042  -19.4012    8.1467 O   0  0  0  0  0  0  0  0  0  0  0  0
   19.3561  -18.3757    7.1888 C   0  0  0  0  0  0  0  0  0  0  0  0
   19.5986  -17.0658    7.9084 C   0  0  2  0  0  0  0  0  0  0  0  0
   19.4851  -15.9318    7.0317 N   0  0  0  0  0  0  0  0  0  0  0  0
   20.8356  -17.0732    8.6939 C   0  0  0  0  0  0  0  0  0  0  0  0
   20.9064  -17.7976    9.8630 O   0  0  0  0  0  0  0  0  0  0  0  0
   21.8300  -16.4265    8.3117 O   0  0  0  0  0  0  0  0  0  0  0  0
  2  1  1  6
  3  2  1  0
  4  3  1  0
  5  6  1  0
  5  4  1  0
  6  7  1  0
  8  9  2  0
  8  2  1  0
 11 10  1  1
 12 11  1  0
 13 11  1  0
 14 13  1  1
 14 15  1  0
 15  8  1  0
 16 14  1  0
 17 16  2  0
 18 19  1  0
 20 19  1  6
 20 21  1  0
 21 16  1  0
 22 20  1  0
 22 23  1  0
 24 22  2  0
M  END
$$$$
