KLS.pdb
     RDKit          3D

 24 23  0  0  1  0  0  0  0  0999 V2000
   22.3523  -14.0610  -18.0677 N   0  0  0  0  0  0  0  0  0  0  0  0
   22.4507  -12.7617  -18.6927 C   0  0  1  0  0  0  0  0  0  0  0  0
   21.2145  -12.5777  -19.5546 C   0  0  0  0  0  0  0  0  0  0  0  0
   21.2341  -13.5207  -20.7258 C   0  0  0  0  0  0  0  0  0  0  0  0
   20.0730  -13.2881  -21.6379 C   0  0  0  0  0  0  0  0  0  0  0  0
   20.1880  -14.2854  -22.7912 C   0  0  0  0  0  0  0  0  0  0  0  0
   19.0989  -13.9375  -23.7129 N   0  0  0  0  0  0  0  0  0  0  0  0
   22.5451  -11.7043  -17.6554 C   0  0  0  0  0  0  0  0  0  0  0  0
   21.7349  -11.7575  -16.6873 O   0  0  0  0  0  0  0  0  0  0  0  0
   25.0845  -10.7061  -14.2911 C   0  0  0  0  0  0  0  0  0  0  0  0
   25.7094  -10.3219  -15.6138 C   0  0  2  0  0  0  0  0  0  0  0  0
   27.1725  -10.0697  -15.4481 C   0  0  0  0  0  0  0  0  0  0  0  0
   24.9377   -9.3632  -16.4254 C   0  0  0  0  0  0  0  0  0  0  0  0
   23.5026   -9.6305  -16.7051 C   0  0  2  0  0  0  0  0  0  0  0  0
   23.5102  -10.6742  -17.7509 N   0  0  0  0  0  0  0  0  0  0  0  0
   22.6890   -8.4893  -17.1505 C   0  0  0  0  0  0  0  0  0  0  0  0
   22.8234   -7.8733  -18.2335 O   0  0  0  0  0  0  0  0  0  0  0  0
   18.8039   -7.7591  -15.9109 O   0  0  0  0  0  0  0  0  0  0  0  0
   19.3987   -7.2203  -17.0630 C   0  0  0  0  0  0  0  0  0  0  0  0
   20.8175   -6.8306  -16.7059 C   0  0  2  0  0  0  0  0  0  0  0  0
   21.6174   -7.9648  -16.3302 N   0  0  0  0  0  0  0  0  0  0  0  0
   20.8750   -5.7312  -15.7386 C   0  0  0  0  0  0  0  0  0  0  0  0
   20.2479   -4.5364  -16.0138 O   0  0  0  0  0  0  0  0  0  0  0  0
   21.4896   -5.8681  -14.6632 O   0  0  0  0  0  0  0  0  0  0  0  0
  2  1  1  1
  3  2  1  0
  4  3  1  0
  5  6  1  0
  5  4  1  0
  6  7  1  0
  8  9  2  0
  8  2  1  0
 11 10  1  1
 12 11  1  0
 13 11  1  0
 14 13  1  6
 14 15  1  0
 15  8  1  0
 16 14  1  0
 17 16  2  0
 18 19  1  0
 20 19  1  1
 20 21  1  0
 21 16  1  0
 22 20  1  0
 22 23  1  0
 24 22  2  0
M  END
$$$$
