KLS.pdb
     RDKit          3D

 24 23  0  0  1  0  0  0  0  0999 V2000
   21.9170  -13.6449  -16.7731 N   0  0  0  0  0  0  0  0  0  0  0  0
   21.5779  -12.3047  -17.1942 C   0  0  1  0  0  0  0  0  0  0  0  0
   20.0671  -12.1745  -17.1212 C   0  0  0  0  0  0  0  0  0  0  0  0
   19.4051  -13.0419  -18.1561 C   0  0  0  0  0  0  0  0  0  0  0  0
   18.9309  -12.2389  -19.3241 C   0  0  0  0  0  0  0  0  0  0  0  0
   18.2295  -13.1981  -20.2864 C   0  0  0  0  0  0  0  0  0  0  0  0
   17.7733  -12.3602  -21.4029 N   0  0  0  0  0  0  0  0  0  0  0  0
   22.2461  -11.3115  -16.3167 C   0  0  0  0  0  0  0  0  0  0  0  0
   21.9106  -11.2844  -15.0988 O   0  0  0  0  0  0  0  0  0  0  0  0
   26.1204  -10.8371  -14.5824 C   0  0  0  0  0  0  0  0  0  0  0  0
   26.1368  -10.3328  -16.0082 C   0  0  2  0  0  0  0  0  0  0  0  0
   27.5414  -10.1775  -16.4926 C   0  0  0  0  0  0  0  0  0  0  0  0
   25.1858   -9.2470  -16.3082 C   0  0  0  0  0  0  0  0  0  0  0  0
   23.7594   -9.3954  -15.9179 C   0  0  2  0  0  0  0  0  0  0  0  0
   23.2243  -10.4275  -16.8298 N   0  0  0  0  0  0  0  0  0  0  0  0
   22.9221   -8.1886  -15.9901 C   0  0  0  0  0  0  0  0  0  0  0  0
   22.4907   -7.6593  -17.0409 O   0  0  0  0  0  0  0  0  0  0  0  0
   20.0117   -4.9579  -13.9931 O   0  0  0  0  0  0  0  0  0  0  0  0
   20.6854   -6.1764  -13.8117 C   0  0  0  0  0  0  0  0  0  0  0  0
   21.8190   -6.2262  -14.8140 C   0  0  2  0  0  0  0  0  0  0  0  0
   22.5122   -7.4856  -14.7926 N   0  0  0  0  0  0  0  0  0  0  0  0
   22.7116   -5.0682  -14.7153 C   0  0  0  0  0  0  0  0  0  0  0  0
   22.2449   -3.8090  -15.0207 O   0  0  0  0  0  0  0  0  0  0  0  0
   23.8960   -5.2129  -14.3555 O   0  0  0  0  0  0  0  0  0  0  0  0
  2  1  1  1
  3  2  1  0
  4  3  1  0
  5  6  1  0
  5  4  1  0
  6  7  1  0
  8  9  2  0
  8  2  1  0
 11 10  1  1
 12 11  1  0
 13 11  1  0
 14 13  1  6
 14 15  1  0
 15  8  1  0
 16 14  1  0
 17 16  2  0
 18 19  1  0
 20 19  1  1
 20 21  1  0
 21 16  1  0
 22 20  1  0
 22 23  1  0
 24 22  2  0
M  END
$$$$
