KLS.pdb
     RDKit          3D

 24 23  0  0  1  0  0  0  0  0999 V2000
   22.7065  -12.2814  -19.7433 N   0  0  0  0  0  0  0  0  0  0  0  0
   21.7164  -12.3802  -18.6951 C   0  0  1  0  0  0  0  0  0  0  0  0
   21.7189  -13.8160  -18.2020 C   0  0  0  0  0  0  0  0  0  0  0  0
   21.2616  -14.7540  -19.2849 C   0  0  0  0  0  0  0  0  0  0  0  0
   21.1195  -16.1524  -18.7767 C   0  0  0  0  0  0  0  0  0  0  0  0
   20.6742  -17.0247  -19.9508 C   0  0  0  0  0  0  0  0  0  0  0  0
   20.6472  -18.3958  -19.4251 N   0  0  0  0  0  0  0  0  0  0  0  0
   22.0411  -11.4346  -17.5982 C   0  0  0  0  0  0  0  0  0  0  0  0
   21.2803  -11.4219  -16.5895 O   0  0  0  0  0  0  0  0  0  0  0  0
   25.2943  -10.7484  -14.5348 C   0  0  0  0  0  0  0  0  0  0  0  0
   25.6816  -10.3266  -15.9347 C   0  0  2  0  0  0  0  0  0  0  0  0
   27.1567  -10.1088  -16.0268 C   0  0  0  0  0  0  0  0  0  0  0  0
   24.8016   -9.3235  -16.5614 C   0  0  0  0  0  0  0  0  0  0  0  0
   23.3368   -9.5689  -16.6179 C   0  0  2  0  0  0  0  0  0  0  0  0
   23.1643  -10.5786  -17.6828 N   0  0  0  0  0  0  0  0  0  0  0  0
   22.4789   -8.4068  -16.8937 C   0  0  0  0  0  0  0  0  0  0  0  0
   22.5267   -7.6893  -17.9201 O   0  0  0  0  0  0  0  0  0  0  0  0
   18.8735   -7.5158  -14.7600 O   0  0  0  0  0  0  0  0  0  0  0  0
   19.1654   -7.1353  -16.0796 C   0  0  0  0  0  0  0  0  0  0  0  0
   20.6440   -6.8169  -16.1476 C   0  0  2  0  0  0  0  0  0  0  0  0
   21.4632   -7.9824  -15.9532 N   0  0  0  0  0  0  0  0  0  0  0  0
   21.0196   -5.6909  -15.2881 C   0  0  0  0  0  0  0  0  0  0  0  0
   20.4258   -4.4609  -15.4635 O   0  0  0  0  0  0  0  0  0  0  0  0
   21.8762   -5.8370  -14.3948 O   0  0  0  0  0  0  0  0  0  0  0  0
  2  1  1  6
  3  2  1  0
  4  3  1  0
  5  6  1  0
  5  4  1  0
  6  7  1  0
  8  9  2  0
  8  2  1  0
 11 10  1  1
 12 11  1  0
 13 11  1  0
 14 13  1  6
 14 15  1  0
 15  8  1  0
 16 14  1  0
 17 16  2  0
 18 19  1  0
 20 19  1  1
 20 21  1  0
 21 16  1  0
 22 20  1  0
 22 23  1  0
 24 22  2  0
M  END
$$$$
