KLS.pdb
     RDKit          3D

 24 23  0  0  1  0  0  0  0  0999 V2000
   23.0507  -14.9766  -19.1634 N   0  0  0  0  0  0  0  0  0  0  0  0
   22.7314  -13.6043  -19.4852 C   0  0  1  0  0  0  0  0  0  0  0  0
   21.2972  -13.5764  -19.9823 C   0  0  0  0  0  0  0  0  0  0  0  0
   21.1560  -14.3697  -21.2521 C   0  0  0  0  0  0  0  0  0  0  0  0
   19.9331  -15.2288  -21.2300 C   0  0  0  0  0  0  0  0  0  0  0  0
   19.8365  -15.9252  -22.5878 C   0  0  0  0  0  0  0  0  0  0  0  0
   18.6659  -16.8064  -22.4877 N   0  0  0  0  0  0  0  0  0  0  0  0
   22.9011  -12.7479  -18.2849 C   0  0  0  0  0  0  0  0  0  0  0  0
   22.3038  -13.0948  -17.2269 O   0  0  0  0  0  0  0  0  0  0  0  0
   27.2709  -10.0367  -15.4393 C   0  0  0  0  0  0  0  0  0  0  0  0
   25.7678  -10.0448  -15.6074 C   0  0  2  0  0  0  0  0  0  0  0  0
   25.0933  -10.1798  -14.2812 C   0  0  0  0  0  0  0  0  0  0  0  0
   25.2583  -10.8660  -16.7206 C   0  0  0  0  0  0  0  0  0  0  0  0
   23.8206  -10.7868  -17.0894 C   0  0  2  0  0  0  0  0  0  0  0  0
   23.7045  -11.5841  -18.3279 N   0  0  0  0  0  0  0  0  0  0  0  0
   23.2650   -9.4434  -17.3115 C   0  0  0  0  0  0  0  0  0  0  0  0
   23.7267   -8.5810  -18.0947 O   0  0  0  0  0  0  0  0  0  0  0  0
   19.4297   -8.2500  -15.7811 O   0  0  0  0  0  0  0  0  0  0  0  0
   19.9673   -7.8190  -17.0045 C   0  0  0  0  0  0  0  0  0  0  0  0
   21.4679   -7.7134  -16.8330 C   0  0  2  0  0  0  0  0  0  0  0  0
   22.0832   -8.9931  -16.6067 N   0  0  0  0  0  0  0  0  0  0  0  0
   21.8540   -6.6991  -15.8484 C   0  0  0  0  0  0  0  0  0  0  0  0
   21.4742   -5.3871  -16.0239 O   0  0  0  0  0  0  0  0  0  0  0  0
   22.5268   -7.0145  -14.8478 O   0  0  0  0  0  0  0  0  0  0  0  0
  2  1  1  1
  3  2  1  0
  4  3  1  0
  5  6  1  0
  5  4  1  0
  6  7  1  0
  8  9  2  0
  8  2  1  0
 11 10  1  1
 12 11  1  0
 13 11  1  0
 14 13  1  6
 14 15  1  0
 15  8  1  0
 16 14  1  0
 17 16  2  0
 18 19  1  0
 20 19  1  1
 20 21  1  0
 21 16  1  0
 22 20  1  0
 22 23  1  0
 24 22  2  0
M  END
$$$$
