KLS.pdb
     RDKit          3D

 24 23  0  0  1  0  0  0  0  0999 V2000
   18.8111  -26.7359   -2.4008 N   0  0  0  0  0  0  0  0  0  0  0  0
   17.9488  -26.4986   -1.2656 C   0  0  1  0  0  0  0  0  0  0  0  0
   16.6253  -27.1862   -1.5491 C   0  0  0  0  0  0  0  0  0  0  0  0
   15.9166  -26.5277   -2.7005 C   0  0  0  0  0  0  0  0  0  0  0  0
   14.6906  -27.2852   -3.0967 C   0  0  0  0  0  0  0  0  0  0  0  0
   14.1471  -26.6438   -4.3738 C   0  0  0  0  0  0  0  0  0  0  0  0
   12.9651  -27.4383   -4.7325 N   0  0  0  0  0  0  0  0  0  0  0  0
   18.5768  -27.0298   -0.0301 C   0  0  0  0  0  0  0  0  0  0  0  0
   19.5893  -27.7744   -0.1596 O   0  0  0  0  0  0  0  0  0  0  0  0
   21.1448  -25.1439    2.8192 C   0  0  0  0  0  0  0  0  0  0  0  0
   19.6817  -24.8309    3.0400 C   0  0  2  0  0  0  0  0  0  0  0  0
   19.5295  -23.6128    3.8914 C   0  0  0  0  0  0  0  0  0  0  0  0
   18.8238  -25.9903    3.3452 C   0  0  0  0  0  0  0  0  0  0  0  0
   18.8217  -27.1600    2.4283 C   0  0  2  0  0  0  0  0  0  0  0  0
   18.0566  -26.7113    1.2465 N   0  0  0  0  0  0  0  0  0  0  0  0
   18.2443  -28.4092    2.9468 C   0  0  0  0  0  0  0  0  0  0  0  0
   17.0223  -28.6445    3.0943 O   0  0  0  0  0  0  0  0  0  0  0  0
   19.6807  -31.8676    2.1536 O   0  0  0  0  0  0  0  0  0  0  0  0
   19.4200  -31.9397    3.5314 C   0  0  0  0  0  0  0  0  0  0  0  0
   18.5725  -30.7405    3.9001 C   0  0  2  0  0  0  0  0  0  0  0  0
   19.0864  -29.5173    3.3460 N   0  0  0  0  0  0  0  0  0  0  0  0
   18.3024  -30.6603    5.3382 C   0  0  0  0  0  0  0  0  0  0  0  0
   17.7566  -31.7382    5.9990 O   0  0  0  0  0  0  0  0  0  0  0  0
   18.5635  -29.6198    5.9725 O   0  0  0  0  0  0  0  0  0  0  0  0
  2  1  1  6
  3  2  1  0
  4  3  1  0
  5  6  1  0
  5  4  1  0
  6  7  1  0
  8  9  2  0
  8  2  1  0
 11 10  1  1
 12 11  1  0
 13 11  1  0
 14 13  1  1
 14 15  1  0
 15  8  1  0
 16 14  1  0
 17 16  2  0
 18 19  1  0
 20 19  1  1
 20 21  1  0
 21 16  1  0
 22 20  1  0
 22 23  1  0
 24 22  2  0
M  END
$$$$
