KLS.pdb
     RDKit          3D

 24 23  0  0  1  0  0  0  0  0999 V2000
   20.0182  -12.5003  -18.7598 N   0  0  0  0  0  0  0  0  0  0  0  0
   20.8176  -11.3571  -19.1374 C   0  0  1  0  0  0  0  0  0  0  0  0
   19.8864  -10.3437  -19.7781 C   0  0  0  0  0  0  0  0  0  0  0  0
   19.6167  -10.6986  -21.2144 C   0  0  0  0  0  0  0  0  0  0  0  0
   20.8442  -10.5565  -22.0553 C   0  0  0  0  0  0  0  0  0  0  0  0
   20.4334  -10.7865  -23.5100 C   0  0  0  0  0  0  0  0  0  0  0  0
   21.6925  -10.8310  -24.2646 N   0  0  0  0  0  0  0  0  0  0  0  0
   21.4896  -10.7893  -17.9420 C   0  0  0  0  0  0  0  0  0  0  0  0
   20.8124  -10.6889  -16.8801 O   0  0  0  0  0  0  0  0  0  0  0  0
   27.1255  -10.1659  -15.7254 C   0  0  0  0  0  0  0  0  0  0  0  0
   25.6875   -9.7034  -15.6488 C   0  0  2  0  0  0  0  0  0  0  0  0
   25.1949   -9.7557  -14.2394 C   0  0  0  0  0  0  0  0  0  0  0  0
   24.7975  -10.2210  -16.7040 C   0  0  0  0  0  0  0  0  0  0  0  0
   23.4021   -9.7175  -16.7957 C   0  0  2  0  0  0  0  0  0  0  0  0
   22.8416  -10.3758  -17.9939 N   0  0  0  0  0  0  0  0  0  0  0  0
   23.2273   -8.2613  -16.9035 C   0  0  0  0  0  0  0  0  0  0  0  0
   23.7169   -7.5296  -17.7954 O   0  0  0  0  0  0  0  0  0  0  0  0
   20.1028   -6.1764  -15.0380 O   0  0  0  0  0  0  0  0  0  0  0  0
   20.8052   -5.7084  -16.1601 C   0  0  0  0  0  0  0  0  0  0  0  0
   22.2574   -6.1001  -15.9870 C   0  0  2  0  0  0  0  0  0  0  0  0
   22.4366   -7.5259  -15.9390 N   0  0  0  0  0  0  0  0  0  0  0  0
   22.9047   -5.3940  -14.8779 C   0  0  0  0  0  0  0  0  0  0  0  0
   22.9306   -4.0173  -14.8577 O   0  0  0  0  0  0  0  0  0  0  0  0
   23.4349   -6.0314  -13.9475 O   0  0  0  0  0  0  0  0  0  0  0  0
  2  1  1  1
  3  2  1  0
  4  3  1  0
  5  6  1  0
  5  4  1  0
  6  7  1  0
  8  9  2  0
  8  2  1  0
 11 10  1  1
 12 11  1  0
 13 11  1  0
 14 13  1  6
 14 15  1  0
 15  8  1  0
 16 14  1  0
 17 16  2  0
 18 19  1  0
 20 19  1  1
 20 21  1  0
 21 16  1  0
 22 20  1  0
 22 23  1  0
 24 22  2  0
M  END
$$$$
