KLS.pdb
     RDKit          3D

 24 23  0  0  1  0  0  0  0  0999 V2000
   27.2921  -19.6655  -17.5963 N   0  0  0  0  0  0  0  0  0  0  0  0
   26.5111  -18.8863  -16.6628 C   0  0  1  0  0  0  0  0  0  0  0  0
   25.4891  -18.1040  -17.4680 C   0  0  0  0  0  0  0  0  0  0  0  0
   26.1596  -17.3078  -18.5534 C   0  0  0  0  0  0  0  0  0  0  0  0
   26.5710  -15.9552  -18.0684 C   0  0  0  0  0  0  0  0  0  0  0  0
   25.8915  -14.9196  -18.9648 C   0  0  0  0  0  0  0  0  0  0  0  0
   26.7378  -14.8298  -20.1617 N   0  0  0  0  0  0  0  0  0  0  0  0
   25.8504  -19.7818  -15.6807 C   0  0  0  0  0  0  0  0  0  0  0  0
   25.3962  -20.8827  -16.1028 O   0  0  0  0  0  0  0  0  0  0  0  0
   25.6361  -20.3226   -9.5611 C   0  0  0  0  0  0  0  0  0  0  0  0
   25.1551  -20.8342  -10.9006 C   0  0  2  0  0  0  0  0  0  0  0  0
   25.2026  -22.3269  -10.9388 C   0  0  0  0  0  0  0  0  0  0  0  0
   25.6599  -20.1036  -12.0773 C   0  0  0  0  0  0  0  0  0  0  0  0
   25.0523  -20.3551  -13.4103 C   0  0  2  0  0  0  0  0  0  0  0  0
   25.7352  -19.4120  -14.3200 N   0  0  0  0  0  0  0  0  0  0  0  0
   23.5960  -20.1818  -13.5197 C   0  0  0  0  0  0  0  0  0  0  0  0
   22.9695  -19.1142  -13.3245 O   0  0  0  0  0  0  0  0  0  0  0  0
   19.3004  -21.9755  -14.8963 O   0  0  0  0  0  0  0  0  0  0  0  0
   20.6850  -22.2064  -14.8670 C   0  0  0  0  0  0  0  0  0  0  0  0
   21.2996  -21.1849  -13.9335 C   0  0  2  0  0  0  0  0  0  0  0  0
   22.7327  -21.2871  -13.8791 N   0  0  0  0  0  0  0  0  0  0  0  0
   20.6658  -21.1738  -12.6122 C   0  0  0  0  0  0  0  0  0  0  0  0
   19.5506  -20.3975  -12.3883 O   0  0  0  0  0  0  0  0  0  0  0  0
   21.1293  -21.8642  -11.6840 O   0  0  0  0  0  0  0  0  0  0  0  0
  2  1  1  6
  3  2  1  0
  4  3  1  0
  5  6  1  0
  5  4  1  0
  6  7  1  0
  8  9  2  0
  8  2  1  0
 11 10  1  1
 12 11  1  0
 13 11  1  0
 14 13  1  1
 14 15  1  0
 15  8  1  0
 16 14  1  0
 17 16  2  0
 18 19  1  0
 20 19  1  6
 20 21  1  0
 21 16  1  0
 22 20  1  0
 22 23  1  0
 24 22  2  0
M  END
$$$$
