KLS.pdb
     RDKit          3D

 24 23  0  0  1  0  0  0  0  0999 V2000
   19.8101  -12.2784  -18.9157 N   0  0  0  0  0  0  0  0  0  0  0  0
   20.4350  -10.9994  -19.1656 C   0  0  1  0  0  0  0  0  0  0  0  0
   19.3683  -10.0741  -19.7229 C   0  0  0  0  0  0  0  0  0  0  0  0
   19.0814  -10.3955  -21.1637 C   0  0  0  0  0  0  0  0  0  0  0  0
   17.7178  -10.9834  -21.3344 C   0  0  0  0  0  0  0  0  0  0  0  0
   17.5112  -11.2383  -22.8278 C   0  0  0  0  0  0  0  0  0  0  0  0
   16.1545  -11.7888  -22.9417 N   0  0  0  0  0  0  0  0  0  0  0  0
   21.0108  -10.4604  -17.9083 C   0  0  0  0  0  0  0  0  0  0  0  0
   20.3300  -10.5830  -16.8509 O   0  0  0  0  0  0  0  0  0  0  0  0
   26.3864  -10.2325  -15.3414 C   0  0  0  0  0  0  0  0  0  0  0  0
   24.9641   -9.7214  -15.2846 C   0  0  2  0  0  0  0  0  0  0  0  0
   24.3485  -10.0322  -13.9593 C   0  0  0  0  0  0  0  0  0  0  0  0
   24.1526   -9.9680  -16.4904 C   0  0  0  0  0  0  0  0  0  0  0  0
   22.7991   -9.3633  -16.5972 C   0  0  2  0  0  0  0  0  0  0  0  0
   22.2783   -9.8319  -17.8981 N   0  0  0  0  0  0  0  0  0  0  0  0
   22.7200   -7.8963  -16.5316 C   0  0  0  0  0  0  0  0  0  0  0  0
   23.2289   -7.0987  -17.3535 O   0  0  0  0  0  0  0  0  0  0  0  0
   19.6822   -5.7095  -14.9370 O   0  0  0  0  0  0  0  0  0  0  0  0
   20.7093   -5.1693  -15.7273 C   0  0  0  0  0  0  0  0  0  0  0  0
   22.0106   -5.8022  -15.2816 C   0  0  2  0  0  0  0  0  0  0  0  0
   22.0129   -7.2290  -15.4588 N   0  0  0  0  0  0  0  0  0  0  0  0
   22.4117   -5.3817  -13.9363 C   0  0  0  0  0  0  0  0  0  0  0  0
   22.6276   -4.0488  -13.6656 O   0  0  0  0  0  0  0  0  0  0  0  0
   22.5600   -6.2237  -13.0297 O   0  0  0  0  0  0  0  0  0  0  0  0
  2  1  1  1
  3  2  1  0
  4  3  1  0
  5  6  1  0
  5  4  1  0
  6  7  1  0
  8  9  2  0
  8  2  1  0
 11 10  1  6
 12 11  1  0
 13 11  1  0
 14 13  1  6
 14 15  1  0
 15  8  1  0
 16 14  1  0
 17 16  2  0
 18 19  1  0
 20 19  1  1
 20 21  1  0
 21 16  1  0
 22 20  1  0
 22 23  1  0
 24 22  2  0
M  END
$$$$
