KLS.pdb
     RDKit          3D

 24 23  0  0  1  0  0  0  0  0999 V2000
   20.7877  -11.4689  -18.3979 N   0  0  0  0  0  0  0  0  0  0  0  0
   19.9193  -11.1354  -17.2919 C   0  0  1  0  0  0  0  0  0  0  0  0
   19.6406  -12.4188  -16.5305 C   0  0  0  0  0  0  0  0  0  0  0  0
   18.9669  -13.4304  -17.4162 C   0  0  0  0  0  0  0  0  0  0  0  0
   18.4652  -14.5997  -16.6319 C   0  0  0  0  0  0  0  0  0  0  0  0
   17.8429  -15.5842  -17.6225 C   0  0  0  0  0  0  0  0  0  0  0  0
   17.3524  -16.6994  -16.8025 N   0  0  0  0  0  0  0  0  0  0  0  0
   20.5698  -10.1244  -16.4215 C   0  0  0  0  0  0  0  0  0  0  0  0
   19.9280   -9.7190  -15.4115 O   0  0  0  0  0  0  0  0  0  0  0  0
   23.9528  -10.2126  -13.6997 C   0  0  0  0  0  0  0  0  0  0  0  0
   24.4860  -10.0156  -15.1013 C   0  0  2  0  0  0  0  0  0  0  0  0
   25.9709  -10.1779  -15.1243 C   0  0  0  0  0  0  0  0  0  0  0  0
   23.9104   -8.8807  -15.8455 C   0  0  0  0  0  0  0  0  0  0  0  0
   22.4449   -8.6386  -15.7915 C   0  0  2  0  0  0  0  0  0  0  0  0
   21.8639   -9.6340  -16.7159 N   0  0  0  0  0  0  0  0  0  0  0  0
   21.9803   -7.2922  -16.1578 C   0  0  0  0  0  0  0  0  0  0  0  0
   22.2430   -6.6933  -17.2268 O   0  0  0  0  0  0  0  0  0  0  0  0
   18.5714   -5.9368  -16.1554 O   0  0  0  0  0  0  0  0  0  0  0  0
   19.2269   -4.9892  -15.3530 C   0  0  0  0  0  0  0  0  0  0  0  0
   20.7166   -5.1744  -15.5504 C   0  0  2  0  0  0  0  0  0  0  0  0
   21.1423   -6.5180  -15.2664 N   0  0  0  0  0  0  0  0  0  0  0  0
   21.5092   -4.1538  -14.8593 C   0  0  0  0  0  0  0  0  0  0  0  0
   21.2747   -2.8182  -15.0994 O   0  0  0  0  0  0  0  0  0  0  0  0
   22.3987   -4.4851  -14.0518 O   0  0  0  0  0  0  0  0  0  0  0  0
  2  1  1  6
  3  2  1  0
  4  3  1  0
  5  6  1  0
  5  4  1  0
  6  7  1  0
  8  9  2  0
  8  2  1  0
 11 10  1  1
 12 11  1  0
 13 11  1  0
 14 13  1  6
 14 15  1  0
 15  8  1  0
 16 14  1  0
 17 16  2  0
 18 19  1  0
 20 19  1  1
 20 21  1  0
 21 16  1  0
 22 20  1  0
 22 23  1  0
 24 22  2  0
M  END
$$$$
