KLS.pdb
     RDKit          3D

 24 23  0  0  1  0  0  0  0  0999 V2000
   27.3019  -18.9311  -17.9529 N   0  0  0  0  0  0  0  0  0  0  0  0
   26.4417  -18.3014  -16.9772 C   0  0  1  0  0  0  0  0  0  0  0  0
   25.3662  -17.5480  -17.7392 C   0  0  0  0  0  0  0  0  0  0  0  0
   25.9402  -16.3318  -18.4121 C   0  0  0  0  0  0  0  0  0  0  0  0
   24.8672  -15.4617  -18.9828 C   0  0  0  0  0  0  0  0  0  0  0  0
   25.5384  -14.1973  -19.5200 C   0  0  0  0  0  0  0  0  0  0  0  0
   24.4406  -13.3596  -20.0197 N   0  0  0  0  0  0  0  0  0  0  0  0
   25.8487  -19.3279  -16.0842 C   0  0  0  0  0  0  0  0  0  0  0  0
   25.6322  -20.4741  -16.5697 O   0  0  0  0  0  0  0  0  0  0  0  0
   25.6922  -20.3401  -10.0725 C   0  0  0  0  0  0  0  0  0  0  0  0
   25.2248  -20.7860  -11.4400 C   0  0  2  0  0  0  0  0  0  0  0  0
   25.4329  -22.2555  -11.6112 C   0  0  0  0  0  0  0  0  0  0  0  0
   25.6072  -19.9061  -12.5594 C   0  0  0  0  0  0  0  0  0  0  0  0
   25.0024  -20.1230  -13.8996 C   0  0  2  0  0  0  0  0  0  0  0  0
   25.5380  -19.0295  -14.7366 N   0  0  0  0  0  0  0  0  0  0  0  0
   23.5336  -20.1283  -13.9725 C   0  0  0  0  0  0  0  0  0  0  0  0
   22.7797  -19.1959  -13.6084 O   0  0  0  0  0  0  0  0  0  0  0  0
   21.3311  -23.5308  -15.3982 O   0  0  0  0  0  0  0  0  0  0  0  0
   20.9219  -22.2293  -15.7298 C   0  0  0  0  0  0  0  0  0  0  0  0
   21.3792  -21.3086  -14.6182 C   0  0  2  0  0  0  0  0  0  0  0  0
   22.8114  -21.2685  -14.4966 N   0  0  0  0  0  0  0  0  0  0  0  0
   20.6941  -21.5709  -13.3497 C   0  0  0  0  0  0  0  0  0  0  0  0
   19.3221  -21.4790  -13.2745 O   0  0  0  0  0  0  0  0  0  0  0  0
   21.3451  -21.8780  -12.3323 O   0  0  0  0  0  0  0  0  0  0  0  0
  2  1  1  6
  3  2  1  0
  4  3  1  0
  5  6  1  0
  5  4  1  0
  6  7  1  0
  8  9  2  0
  8  2  1  0
 11 10  1  1
 12 11  1  0
 13 11  1  0
 14 13  1  1
 14 15  1  0
 15  8  1  0
 16 14  1  0
 17 16  2  0
 18 19  1  0
 20 19  1  6
 20 21  1  0
 21 16  1  0
 22 20  1  0
 22 23  1  0
 24 22  2  0
M  END
$$$$
