AMQ.pdb
     RDKit          3D

 23 22  0  0  1  0  0  0  0  0999 V2000
   18.5479  -12.3935  -14.6134 C   0  0  0  0  0  0  0  0  0  0  0  0
   17.3769  -12.7862  -13.7346 C   0  0  2  0  0  0  0  0  0  0  0  0
   16.5512  -13.6978  -14.4788 N   0  0  0  0  0  0  0  0  0  0  0  0
   16.6095  -11.5512  -13.4141 C   0  0  0  0  0  0  0  0  0  0  0  0
   15.8621  -11.0232  -14.2807 O   0  0  0  0  0  0  0  0  0  0  0  0
   11.8043   -7.5525   -8.9703 C   0  0  0  0  0  0  0  0  0  0  0  0
   12.7865   -9.0633   -9.1751 S   0  0  0  0  0  0  0  0  0  0  0  0
   14.0116   -8.7766  -10.4429 C   0  0  0  0  0  0  0  0  0  0  0  0
   14.8909   -9.9202  -10.7756 C   0  0  0  0  0  0  0  0  0  0  0  0
   15.8978   -9.7298  -11.8459 C   0  0  2  0  0  0  0  0  0  0  0  0
   16.6731  -10.9106  -12.1432 N   0  0  0  0  0  0  0  0  0  0  0  0
   16.7682   -8.5415  -11.6303 C   0  0  0  0  0  0  0  0  0  0  0  0
   17.5519   -8.5567  -10.6213 O   0  0  0  0  0  0  0  0  0  0  0  0
   20.9773   -8.2265  -15.6152 N   0  0  0  0  0  0  0  0  0  0  0  0
   20.6727   -7.6870  -14.3470 C   0  0  0  0  0  0  0  0  0  0  0  0
   21.5752   -7.6478  -13.4774 O   0  0  0  0  0  0  0  0  0  0  0  0
   19.3395   -7.1788  -14.0535 C   0  0  0  0  0  0  0  0  0  0  0  0
   19.0264   -6.8273  -12.6576 C   0  0  0  0  0  0  0  0  0  0  0  0
   17.6894   -6.2767  -12.3293 C   0  0  2  0  0  0  0  0  0  0  0  0
   16.7590   -7.4228  -12.4820 N   0  0  0  0  0  0  0  0  0  0  0  0
   17.2257   -5.2853  -13.3027 C   0  0  0  0  0  0  0  0  0  0  0  0
   16.3412   -5.5435  -14.1829 O   0  0  0  0  0  0  0  0  0  0  0  0
   17.7343   -3.9854  -13.3064 O   0  0  0  0  0  0  0  0  0  0  0  0
  2  1  1  6
  2  3  1  0
  4  5  2  0
  4  2  1  0
  7  6  1  0
  8  7  1  0
  8  9  1  0
 10  9  1  1
 10 11  1  0
 10 12  1  0
 11  4  1  0
 12 20  1  0
 13 12  2  0
 15 14  1  0
 15 16  2  0
 17 15  1  0
 18 17  1  0
 19 18  1  6
 19 21  1  0
 20 19  1  0
 21 22  2  0
 21 23  1  0
M  END
$$$$
