AMQ.pdb
     RDKit          3D

 23 22  0  0  1  0  0  0  0  0999 V2000
   16.0493  -28.1404   -4.5265 C   0  0  0  0  0  0  0  0  0  0  0  0
   17.5451  -28.3748   -4.5998 C   0  0  2  0  0  0  0  0  0  0  0  0
   17.7602  -29.7144   -5.0752 N   0  0  0  0  0  0  0  0  0  0  0  0
   18.1004  -28.2276   -3.2262 C   0  0  0  0  0  0  0  0  0  0  0  0
   17.8831  -29.1107   -2.3537 O   0  0  0  0  0  0  0  0  0  0  0  0
   23.6725  -25.0410   -0.9544 C   0  0  0  0  0  0  0  0  0  0  0  0
   22.3264  -24.5276    0.1474 S   0  0  0  0  0  0  0  0  0  0  0  0
   21.0043  -25.7223    0.0235 C   0  0  0  0  0  0  0  0  0  0  0  0
   20.4530  -25.9521   -1.3310 C   0  0  0  0  0  0  0  0  0  0  0  0
   19.3885  -26.9720   -1.4805 C   0  0  2  0  0  0  0  0  0  0  0  0
   18.8888  -27.1100   -2.8278 N   0  0  0  0  0  0  0  0  0  0  0  0
   18.2813  -26.8154   -0.4978 C   0  0  0  0  0  0  0  0  0  0  0  0
   17.2782  -26.1040   -0.8442 O   0  0  0  0  0  0  0  0  0  0  0  0
   15.4705  -31.2756    2.0237 N   0  0  0  0  0  0  0  0  0  0  0  0
   14.9272  -30.2382    2.8117 C   0  0  0  0  0  0  0  0  0  0  0  0
   13.9625  -30.5000    3.5687 O   0  0  0  0  0  0  0  0  0  0  0  0
   15.4784  -28.8911    2.7540 C   0  0  0  0  0  0  0  0  0  0  0  0
   16.5768  -28.6348    1.8062 C   0  0  0  0  0  0  0  0  0  0  0  0
   17.1868  -27.2845    1.7491 C   0  0  2  0  0  0  0  0  0  0  0  0
   18.2997  -27.4116    0.7754 N   0  0  0  0  0  0  0  0  0  0  0  0
   17.8309  -26.8955    3.0058 C   0  0  0  0  0  0  0  0  0  0  0  0
   19.0963  -26.8695    3.1536 O   0  0  0  0  0  0  0  0  0  0  0  0
   17.0750  -26.5205    4.1178 O   0  0  0  0  0  0  0  0  0  0  0  0
  2  1  1  1
  2  3  1  0
  4  5  2  0
  4  2  1  0
  7  6  1  0
  8  7  1  0
  8  9  1  0
 10  9  1  6
 10 11  1  0
 10 12  1  0
 11  4  1  0
 12 20  1  0
 13 12  2  0
 15 14  1  0
 15 16  2  0
 17 15  1  0
 18 17  1  0
 19 18  1  1
 19 21  1  0
 20 19  1  0
 21 22  2  0
 21 23  1  0
M  END
$$$$
