AMQ.pdb
     RDKit          3D

 23 22  0  0  1  0  0  0  0  0999 V2000
   28.7185  -22.4913  -16.3533 C   0  0  0  0  0  0  0  0  0  0  0  0
   27.6113  -21.4562  -16.3714 C   0  0  2  0  0  0  0  0  0  0  0  0
   28.2153  -20.1595  -16.2284 N   0  0  0  0  0  0  0  0  0  0  0  0
   26.7109  -21.7275  -15.2170 C   0  0  0  0  0  0  0  0  0  0  0  0
   26.0026  -22.7697  -15.1933 O   0  0  0  0  0  0  0  0  0  0  0  0
   24.9763  -20.9543   -7.5883 C   0  0  0  0  0  0  0  0  0  0  0  0
   26.1589  -20.5426   -8.9004 S   0  0  0  0  0  0  0  0  0  0  0  0
   25.4312  -20.9688  -10.4749 C   0  0  0  0  0  0  0  0  0  0  0  0
   26.2762  -20.7455  -11.6698 C   0  0  0  0  0  0  0  0  0  0  0  0
   25.7262  -21.1371  -12.9888 C   0  0  2  0  0  0  0  0  0  0  0  0
   26.5997  -20.8487  -14.1013 N   0  0  0  0  0  0  0  0  0  0  0  0
   24.3479  -20.6271  -13.2265 C   0  0  0  0  0  0  0  0  0  0  0  0
   24.1930  -19.3628  -13.3248 O   0  0  0  0  0  0  0  0  0  0  0  0
   20.0619  -24.2066  -16.0189 N   0  0  0  0  0  0  0  0  0  0  0  0
   19.5590  -22.8951  -16.1572 C   0  0  0  0  0  0  0  0  0  0  0  0
   18.5694  -22.7058  -16.9035 O   0  0  0  0  0  0  0  0  0  0  0  0
   20.1710  -21.7827  -15.4430 C   0  0  0  0  0  0  0  0  0  0  0  0
   21.3024  -22.0768  -14.5465 C   0  0  0  0  0  0  0  0  0  0  0  0
   21.8802  -20.9866  -13.7242 C   0  0  2  0  0  0  0  0  0  0  0  0
   23.2303  -21.4721  -13.3446 N   0  0  0  0  0  0  0  0  0  0  0  0
   21.1786  -20.7976  -12.4524 C   0  0  0  0  0  0  0  0  0  0  0  0
   21.4736  -21.4494  -11.3979 O   0  0  0  0  0  0  0  0  0  0  0  0
   20.1407  -19.8720  -12.3318 O   0  0  0  0  0  0  0  0  0  0  0  0
  2  1  1  1
  2  3  1  0
  4  5  2  0
  4  2  1  0
  7  6  1  0
  8  7  1  0
  8  9  1  0
 10  9  1  1
 10 11  1  0
 10 12  1  0
 11  4  1  0
 12 20  1  0
 13 12  2  0
 15 14  1  0
 15 16  2  0
 17 15  1  0
 18 17  1  0
 19 18  1  6
 19 21  1  0
 20 19  1  0
 21 22  2  0
 21 23  1  0
M  END
$$$$
