AMQ.pdb
     RDKit          3D

 23 22  0  0  1  0  0  0  0  0999 V2000
   27.3878  -20.7900  -17.0641 C   0  0  0  0  0  0  0  0  0  0  0  0
   27.9781  -21.3959  -15.8062 C   0  0  2  0  0  0  0  0  0  0  0  0
   28.6659  -22.6026  -16.1769 N   0  0  0  0  0  0  0  0  0  0  0  0
   26.8562  -21.7144  -14.8804 C   0  0  0  0  0  0  0  0  0  0  0  0
   26.1311  -22.7250  -15.0830 O   0  0  0  0  0  0  0  0  0  0  0  0
   26.8050  -20.1501   -8.6496 C   0  0  0  0  0  0  0  0  0  0  0  0
   25.0923  -20.7426   -8.7223 S   0  0  0  0  0  0  0  0  0  0  0  0
   24.7270  -21.2185  -10.4047 C   0  0  0  0  0  0  0  0  0  0  0  0
   25.7661  -20.9112  -11.4134 C   0  0  0  0  0  0  0  0  0  0  0  0
   25.4929  -21.2803  -12.8222 C   0  0  2  0  0  0  0  0  0  0  0  0
   26.5447  -20.9169  -13.7418 N   0  0  0  0  0  0  0  0  0  0  0  0
   24.1607  -20.8216  -13.3030 C   0  0  0  0  0  0  0  0  0  0  0  0
   23.9873  -19.5653  -13.4575 O   0  0  0  0  0  0  0  0  0  0  0  0
   19.7786  -24.8943  -15.3875 N   0  0  0  0  0  0  0  0  0  0  0  0
   19.0545  -23.6831  -15.3598 C   0  0  0  0  0  0  0  0  0  0  0  0
   17.8388  -23.7018  -15.6664 O   0  0  0  0  0  0  0  0  0  0  0  0
   19.7021  -22.4359  -14.9766 C   0  0  0  0  0  0  0  0  0  0  0  0
   21.1148  -22.4904  -14.5624 C   0  0  0  0  0  0  0  0  0  0  0  0
   21.7772  -21.2567  -14.0749 C   0  0  2  0  0  0  0  0  0  0  0  0
   23.1053  -21.7058  -13.5880 N   0  0  0  0  0  0  0  0  0  0  0  0
   21.1206  -20.6834  -12.8977 C   0  0  0  0  0  0  0  0  0  0  0  0
   20.3024  -19.7092  -12.9697 O   0  0  0  0  0  0  0  0  0  0  0  0
   21.3586  -21.1920  -11.6198 O   0  0  0  0  0  0  0  0  0  0  0  0
  2  1  1  6
  2  3  1  0
  4  5  2  0
  4  2  1  0
  7  6  1  0
  8  7  1  0
  8  9  1  0
 10  9  1  1
 10 11  1  0
 10 12  1  0
 11  4  1  0
 12 20  1  0
 13 12  2  0
 15 14  1  0
 15 16  2  0
 17 15  1  0
 18 17  1  0
 19 18  1  1
 19 21  1  0
 20 19  1  0
 21 22  2  0
 21 23  1  0
M  END
$$$$
