AMQ.pdb
     RDKit          3D

 23 22  0  0  1  0  0  0  0  0999 V2000
   21.7560  -22.2223  -12.3407 C   0  0  0  0  0  0  0  0  0  0  0  0
   21.6607  -21.2253  -11.2028 C   0  0  2  0  0  0  0  0  0  0  0  0
   20.6637  -20.2500  -11.5513 N   0  0  0  0  0  0  0  0  0  0  0  0
   22.9878  -20.5662  -11.0580 C   0  0  0  0  0  0  0  0  0  0  0  0
   23.2844  -19.5691  -11.7695 O   0  0  0  0  0  0  0  0  0  0  0  0
   28.7019  -20.2418   -6.1006 C   0  0  0  0  0  0  0  0  0  0  0  0
   27.4396  -19.1074   -6.7402 S   0  0  0  0  0  0  0  0  0  0  0  0
   27.0613  -19.5695   -8.4235 C   0  0  0  0  0  0  0  0  0  0  0  0
   25.7773  -20.2747   -8.6372 C   0  0  0  0  0  0  0  0  0  0  0  0
   25.2625  -20.3692  -10.0234 C   0  0  2  0  0  0  0  0  0  0  0  0
   23.9743  -21.0116  -10.1317 N   0  0  0  0  0  0  0  0  0  0  0  0
   26.2467  -20.9484  -10.9784 C   0  0  0  0  0  0  0  0  0  0  0  0
   26.6369  -22.1473  -10.7722 O   0  0  0  0  0  0  0  0  0  0  0  0
   24.7453  -24.2392  -14.1955 N   0  0  0  0  0  0  0  0  0  0  0  0
   25.7922  -23.9169  -15.0856 C   0  0  0  0  0  0  0  0  0  0  0  0
   25.9338  -24.6068  -16.1230 O   0  0  0  0  0  0  0  0  0  0  0  0
   26.6877  -22.8014  -14.8106 C   0  0  0  0  0  0  0  0  0  0  0  0
   26.4582  -22.0179  -13.5843 C   0  0  0  0  0  0  0  0  0  0  0  0
   27.3676  -20.8926  -13.2602 C   0  0  2  0  0  0  0  0  0  0  0  0
   26.7533  -20.2358  -12.0796 N   0  0  0  0  0  0  0  0  0  0  0  0
   27.3872  -19.8578  -14.2967 C   0  0  0  0  0  0  0  0  0  0  0  0
   26.6001  -18.8557  -14.2865 O   0  0  0  0  0  0  0  0  0  0  0  0
   28.2908  -19.9178  -15.3589 O   0  0  0  0  0  0  0  0  0  0  0  0
  2  1  1  6
  2  3  1  0
  4  5  2  0
  4  2  1  0
  7  6  1  0
  8  7  1  0
  8  9  1  0
 10  9  1  1
 10 11  1  0
 10 12  1  0
 11  4  1  0
 12 20  1  0
 13 12  2  0
 15 14  1  0
 15 16  2  0
 17 15  1  0
 18 17  1  0
 19 18  1  6
 19 21  1  0
 20 19  1  0
 21 22  2  0
 21 23  1  0
M  END
$$$$
