AMQ.pdb
     RDKit          3D

 23 22  0  0  1  0  0  0  0  0999 V2000
   21.2290  -14.4826  -17.7356 C   0  0  0  0  0  0  0  0  0  0  0  0
   21.3738  -13.0913  -18.3197 C   0  0  2  0  0  0  0  0  0  0  0  0
   22.2803  -13.1707  -19.4326 N   0  0  0  0  0  0  0  0  0  0  0  0
   21.9410  -12.2075  -17.2643 C   0  0  0  0  0  0  0  0  0  0  0  0
   21.3217  -12.0313  -16.1809 O   0  0  0  0  0  0  0  0  0  0  0  0
   28.0447  -13.1703  -14.8248 C   0  0  0  0  0  0  0  0  0  0  0  0
   27.4834  -11.6043  -15.5473 S   0  0  0  0  0  0  0  0  0  0  0  0
   25.7095  -11.6734  -15.7443 C   0  0  0  0  0  0  0  0  0  0  0  0
   25.0578  -10.4453  -16.2528 C   0  0  0  0  0  0  0  0  0  0  0  0
   23.5974  -10.4886  -16.4992 C   0  0  2  0  0  0  0  0  0  0  0  0
   23.1838  -11.5271  -17.4126 N   0  0  0  0  0  0  0  0  0  0  0  0
   23.0246   -9.1669  -16.8750 C   0  0  0  0  0  0  0  0  0  0  0  0
   22.9245   -8.8972  -18.1198 O   0  0  0  0  0  0  0  0  0  0  0  0
   18.0148   -8.6741  -17.6972 N   0  0  0  0  0  0  0  0  0  0  0  0
   18.1361   -7.2771  -17.5358 C   0  0  0  0  0  0  0  0  0  0  0  0
   17.1450   -6.5535  -17.7933 O   0  0  0  0  0  0  0  0  0  0  0  0
   19.3841   -6.6857  -17.0728 C   0  0  0  0  0  0  0  0  0  0  0  0
   20.5310   -7.5823  -16.8471 C   0  0  0  0  0  0  0  0  0  0  0  0
   21.7825   -7.0310  -16.2739 C   0  0  2  0  0  0  0  0  0  0  0  0
   22.5974   -8.2215  -15.9260 N   0  0  0  0  0  0  0  0  0  0  0  0
   21.5703   -6.3371  -15.0015 C   0  0  0  0  0  0  0  0  0  0  0  0
   21.4234   -5.0739  -14.9204 O   0  0  0  0  0  0  0  0  0  0  0  0
   21.5098   -7.0408  -13.7976 O   0  0  0  0  0  0  0  0  0  0  0  0
  2  1  1  1
  2  3  1  0
  4  5  2  0
  4  2  1  0
  7  6  1  0
  8  7  1  0
  8  9  1  0
 10  9  1  6
 10 11  1  0
 10 12  1  0
 11  4  1  0
 12 20  1  0
 13 12  2  0
 15 14  1  0
 15 16  2  0
 17 15  1  0
 18 17  1  0
 19 18  1  1
 19 21  1  0
 20 19  1  0
 21 22  2  0
 21 23  1  0
M  END
$$$$
