AMQ.pdb
     RDKit          3D

 23 22  0  0  1  0  0  0  0  0999 V2000
   28.4017  -32.1226  -17.5930 C   0  0  0  0  0  0  0  0  0  0  0  0
   28.5248  -31.7477  -16.1294 C   0  0  2  0  0  0  0  0  0  0  0  0
   29.7431  -32.3218  -15.6266 N   0  0  0  0  0  0  0  0  0  0  0  0
   27.3562  -32.3233  -15.4086 C   0  0  0  0  0  0  0  0  0  0  0  0
   26.2033  -31.8439  -15.5798 O   0  0  0  0  0  0  0  0  0  0  0  0
   25.2738  -37.8980  -16.4911 C   0  0  0  0  0  0  0  0  0  0  0  0
   23.8770  -37.0053  -15.7553 S   0  0  0  0  0  0  0  0  0  0  0  0
   24.5150  -35.8263  -14.5749 C   0  0  0  0  0  0  0  0  0  0  0  0
   25.7696  -35.1360  -14.9503 C   0  0  0  0  0  0  0  0  0  0  0  0
   26.3087  -34.1229  -14.0130 C   0  0  2  0  0  0  0  0  0  0  0  0
   27.4691  -33.4205  -14.5070 N   0  0  0  0  0  0  0  0  0  0  0  0
   26.5306  -34.6514  -12.6391 C   0  0  0  0  0  0  0  0  0  0  0  0
   27.5361  -35.4177  -12.4546 O   0  0  0  0  0  0  0  0  0  0  0  0
   25.2932  -31.2313   -7.7243 N   0  0  0  0  0  0  0  0  0  0  0  0
   25.6130  -32.4518   -7.0914 C   0  0  0  0  0  0  0  0  0  0  0  0
   25.7164  -32.4725   -5.8420 O   0  0  0  0  0  0  0  0  0  0  0  0
   25.8126  -33.6660   -7.8710 C   0  0  0  0  0  0  0  0  0  0  0  0
   25.7365  -33.5644   -9.3387 C   0  0  0  0  0  0  0  0  0  0  0  0
   25.9626  -34.7756  -10.1635 C   0  0  2  0  0  0  0  0  0  0  0  0
   25.6881  -34.3431  -11.5564 N   0  0  0  0  0  0  0  0  0  0  0  0
   24.9863  -35.8354   -9.9009 C   0  0  0  0  0  0  0  0  0  0  0  0
   24.0026  -36.0749  -10.6747 O   0  0  0  0  0  0  0  0  0  0  0  0
   25.0944  -36.6528   -8.7746 O   0  0  0  0  0  0  0  0  0  0  0  0
  2  1  1  6
  2  3  1  0
  4  5  2  0
  4  2  1  0
  7  6  1  0
  8  7  1  0
  8  9  1  0
 10  9  1  6
 10 11  1  0
 10 12  1  0
 11  4  1  0
 12 20  1  0
 13 12  2  0
 15 14  1  0
 15 16  2  0
 17 15  1  0
 18 17  1  0
 19 18  1  1
 19 21  1  0
 20 19  1  0
 21 22  2  0
 21 23  1  0
M  END
$$$$
