AMQ.pdb
     RDKit          3D

 23 22  0  0  1  0  0  0  0  0999 V2000
   19.8567  -13.9451  -15.7971 C   0  0  0  0  0  0  0  0  0  0  0  0
   19.1037  -12.6639  -16.0960 C   0  0  2  0  0  0  0  0  0  0  0  0
   19.4232  -12.2662  -17.4400 N   0  0  0  0  0  0  0  0  0  0  0  0
   19.5664  -11.6251  -15.1349 C   0  0  0  0  0  0  0  0  0  0  0  0
   19.4164  -11.7930  -13.8949 O   0  0  0  0  0  0  0  0  0  0  0  0
   25.9175  -10.1293  -14.9315 C   0  0  0  0  0  0  0  0  0  0  0  0
   24.6225   -8.8667  -15.0672 S   0  0  0  0  0  0  0  0  0  0  0  0
   23.0388   -9.6459  -14.7928 C   0  0  0  0  0  0  0  0  0  0  0  0
   21.8553   -8.7576  -14.8329 C   0  0  0  0  0  0  0  0  0  0  0  0
   20.5240   -9.3688  -14.6098 C   0  0  2  0  0  0  0  0  0  0  0  0
   20.1893  -10.4126  -15.5491 N   0  0  0  0  0  0  0  0  0  0  0  0
   19.4294   -8.3671  -14.4892 C   0  0  0  0  0  0  0  0  0  0  0  0
   18.8282   -8.0150  -15.5601 O   0  0  0  0  0  0  0  0  0  0  0  0
   15.9995   -7.8873   -9.3596 N   0  0  0  0  0  0  0  0  0  0  0  0
   15.5639   -6.7407  -10.0580 C   0  0  0  0  0  0  0  0  0  0  0  0
   14.6511   -6.0419   -9.5573 O   0  0  0  0  0  0  0  0  0  0  0  0
   16.1656   -6.3702  -11.3318 C   0  0  0  0  0  0  0  0  0  0  0  0
   17.2425   -7.2248  -11.8612 C   0  0  0  0  0  0  0  0  0  0  0  0
   17.9170   -6.8441  -13.1255 C   0  0  2  0  0  0  0  0  0  0  0  0
   19.0403   -7.8046  -13.2607 N   0  0  0  0  0  0  0  0  0  0  0  0
   18.5557   -5.5277  -13.0578 C   0  0  0  0  0  0  0  0  0  0  0  0
   19.7780   -5.3694  -12.7341 O   0  0  0  0  0  0  0  0  0  0  0  0
   17.8446   -4.3647  -13.3581 O   0  0  0  0  0  0  0  0  0  0  0  0
  2  1  1  1
  2  3  1  0
  4  5  2  0
  4  2  1  0
  7  6  1  0
  8  7  1  0
  8  9  1  0
 10  9  1  6
 10 11  1  0
 10 12  1  0
 11  4  1  0
 12 20  1  0
 13 12  2  0
 15 14  1  0
 15 16  2  0
 17 15  1  0
 18 17  1  0
 19 18  1  1
 19 21  1  0
 20 19  1  0
 21 22  2  0
 21 23  1  0
M  END
$$$$
