AMQ.pdb
     RDKit          3D

 23 22  0  0  1  0  0  0  0  0999 V2000
   20.9528  -14.1415  -16.5799 C   0  0  0  0  0  0  0  0  0  0  0  0
   21.0727  -12.9629  -17.5255 C   0  0  2  0  0  0  0  0  0  0  0  0
   21.9503  -13.3439  -18.5985 N   0  0  0  0  0  0  0  0  0  0  0  0
   21.6612  -11.8246  -16.7674 C   0  0  0  0  0  0  0  0  0  0  0  0
   21.1020  -11.3998  -15.7209 O   0  0  0  0  0  0  0  0  0  0  0  0
   27.7346  -12.9040  -14.6567 C   0  0  0  0  0  0  0  0  0  0  0  0
   27.2550  -11.3912  -15.5347 S   0  0  0  0  0  0  0  0  0  0  0  0
   25.4734  -11.3446  -15.6543 C   0  0  0  0  0  0  0  0  0  0  0  0
   24.8885  -10.1268  -16.2596 C   0  0  0  0  0  0  0  0  0  0  0  0
   23.4158  -10.0698  -16.4132 C   0  0  2  0  0  0  0  0  0  0  0  0
   22.8588  -11.1660  -17.1694 N   0  0  0  0  0  0  0  0  0  0  0  0
   22.9266   -8.7549  -16.9109 C   0  0  0  0  0  0  0  0  0  0  0  0
   23.0694   -8.5023  -18.1551 O   0  0  0  0  0  0  0  0  0  0  0  0
   17.8060   -6.5292  -14.7063 N   0  0  0  0  0  0  0  0  0  0  0  0
   18.0015   -7.2691  -15.8923 C   0  0  0  0  0  0  0  0  0  0  0  0
   17.0472   -7.9460  -16.3432 O   0  0  0  0  0  0  0  0  0  0  0  0
   19.2829   -7.2434  -16.5845 C   0  0  0  0  0  0  0  0  0  0  0  0
   20.3822   -6.4760  -15.9738 C   0  0  0  0  0  0  0  0  0  0  0  0
   21.7335   -6.5336  -16.5813 C   0  0  2  0  0  0  0  0  0  0  0  0
   22.3236   -7.7980  -16.0756 N   0  0  0  0  0  0  0  0  0  0  0  0
   22.6256   -5.4808  -16.0898 C   0  0  0  0  0  0  0  0  0  0  0  0
   23.4420   -5.6613  -15.1282 O   0  0  0  0  0  0  0  0  0  0  0  0
   22.6289   -4.2102  -16.6677 O   0  0  0  0  0  0  0  0  0  0  0  0
  2  1  1  1
  2  3  1  0
  4  5  2  0
  4  2  1  0
  7  6  1  0
  8  7  1  0
  8  9  1  0
 10  9  1  6
 10 11  1  0
 10 12  1  0
 11  4  1  0
 12 20  1  0
 13 12  2  0
 15 14  1  0
 15 16  2  0
 17 15  1  0
 18 17  1  0
 19 18  1  1
 19 21  1  0
 20 19  1  0
 21 22  2  0
 21 23  1  0
M  END
$$$$
