AMQ.pdb
     RDKit          3D

 23 22  0  0  1  0  0  0  0  0999 V2000
   28.7303  -22.0317  -15.6129 C   0  0  0  0  0  0  0  0  0  0  0  0
   27.6041  -21.0242  -15.4931 C   0  0  2  0  0  0  0  0  0  0  0  0
   28.1906  -19.7250  -15.3069 N   0  0  0  0  0  0  0  0  0  0  0  0
   26.7874  -21.3885  -14.3027 C   0  0  0  0  0  0  0  0  0  0  0  0
   26.0910  -22.4389  -14.3058 O   0  0  0  0  0  0  0  0  0  0  0  0
   28.0068  -20.6611   -7.8475 C   0  0  0  0  0  0  0  0  0  0  0  0
   26.2385  -20.2664   -7.9303 S   0  0  0  0  0  0  0  0  0  0  0  0
   25.6002  -20.8454   -9.4949 C   0  0  0  0  0  0  0  0  0  0  0  0
   26.4294  -20.5597  -10.6875 C   0  0  0  0  0  0  0  0  0  0  0  0
   25.8772  -20.9165  -12.0154 C   0  0  2  0  0  0  0  0  0  0  0  0
   26.7459  -20.5927  -13.1219 N   0  0  0  0  0  0  0  0  0  0  0  0
   24.4958  -20.4066  -12.2345 C   0  0  0  0  0  0  0  0  0  0  0  0
   24.3526  -19.1537  -12.4395 O   0  0  0  0  0  0  0  0  0  0  0  0
   21.4662  -24.0532  -15.8386 N   0  0  0  0  0  0  0  0  0  0  0  0
   20.4058  -23.1721  -15.5365 C   0  0  0  0  0  0  0  0  0  0  0  0
   19.2909  -23.3648  -16.0768 O   0  0  0  0  0  0  0  0  0  0  0  0
   20.5979  -22.0641  -14.6105 C   0  0  0  0  0  0  0  0  0  0  0  0
   21.8822  -21.9781  -13.8939 C   0  0  0  0  0  0  0  0  0  0  0  0
   22.0918  -20.8922  -12.9064 C   0  0  2  0  0  0  0  0  0  0  0  0
   23.3632  -21.2397  -12.2241 N   0  0  0  0  0  0  0  0  0  0  0  0
   21.0851  -20.8859  -11.8424 C   0  0  0  0  0  0  0  0  0  0  0  0
   20.0382  -20.1607  -11.8871 O   0  0  0  0  0  0  0  0  0  0  0  0
   21.2238  -21.6949  -10.7134 O   0  0  0  0  0  0  0  0  0  0  0  0
  2  1  1  1
  2  3  1  0
  4  5  2  0
  4  2  1  0
  7  6  1  0
  8  7  1  0
  8  9  1  0
 10  9  1  1
 10 11  1  0
 10 12  1  0
 11  4  1  0
 12 20  1  0
 13 12  2  0
 15 14  1  0
 15 16  2  0
 17 15  1  0
 18 17  1  0
 19 18  1  6
 19 21  1  0
 20 19  1  0
 21 22  2  0
 21 23  1  0
M  END
$$$$
