AMQ.pdb
     RDKit          3D

 23 22  0  0  1  0  0  0  0  0999 V2000
   23.0845  -14.7335  -16.9964 C   0  0  0  0  0  0  0  0  0  0  0  0
   23.1009  -13.4955  -17.8709 C   0  0  2  0  0  0  0  0  0  0  0  0
   24.1960  -13.6202  -18.7939 N   0  0  0  0  0  0  0  0  0  0  0  0
   23.3111  -12.3141  -16.9895 C   0  0  0  0  0  0  0  0  0  0  0  0
   22.5051  -12.0675  -16.0525 O   0  0  0  0  0  0  0  0  0  0  0  0
   28.4467  -12.9375  -14.9689 C   0  0  0  0  0  0  0  0  0  0  0  0
   27.3023  -12.1117  -16.1080 S   0  0  0  0  0  0  0  0  0  0  0  0
   26.8201  -10.5472  -15.3935 C   0  0  0  0  0  0  0  0  0  0  0  0
   25.8987   -9.7146  -16.1993 C   0  0  0  0  0  0  0  0  0  0  0  0
   24.5101  -10.1983  -16.3819 C   0  0  2  0  0  0  0  0  0  0  0  0
   24.4060  -11.4168  -17.1490 N   0  0  0  0  0  0  0  0  0  0  0  0
   23.5836   -9.1494  -16.8893 C   0  0  0  0  0  0  0  0  0  0  0  0
   23.6304   -8.8702  -18.1351 O   0  0  0  0  0  0  0  0  0  0  0  0
   17.9795   -9.2411  -17.3070 N   0  0  0  0  0  0  0  0  0  0  0  0
   17.9709   -7.8699  -16.9726 C   0  0  0  0  0  0  0  0  0  0  0  0
   16.9147   -7.2158  -17.1424 O   0  0  0  0  0  0  0  0  0  0  0  0
   19.1616   -7.2262  -16.4343 C   0  0  0  0  0  0  0  0  0  0  0  0
   20.3690   -8.0503  -16.2516 C   0  0  0  0  0  0  0  0  0  0  0  0
   21.6971   -7.4740  -16.5716 C   0  0  2  0  0  0  0  0  0  0  0  0
   22.6749   -8.4671  -16.0612 N   0  0  0  0  0  0  0  0  0  0  0  0
   21.9828   -6.2479  -15.8229 C   0  0  0  0  0  0  0  0  0  0  0  0
   22.6376   -6.2435  -14.7297 O   0  0  0  0  0  0  0  0  0  0  0  0
   21.5502   -5.0036  -16.2844 O   0  0  0  0  0  0  0  0  0  0  0  0
  2  1  1  1
  2  3  1  0
  4  5  2  0
  4  2  1  0
  7  6  1  0
  8  7  1  0
  8  9  1  0
 10  9  1  6
 10 11  1  0
 10 12  1  0
 11  4  1  0
 12 20  1  0
 13 12  2  0
 15 14  1  0
 15 16  2  0
 17 15  1  0
 18 17  1  0
 19 18  1  1
 19 21  1  0
 20 19  1  0
 21 22  2  0
 21 23  1  0
M  END
$$$$
