AMQ.pdb
     RDKit          3D

 23 22  0  0  1  0  0  0  0  0999 V2000
   28.0823  -22.6774  -15.9329 C   0  0  0  0  0  0  0  0  0  0  0  0
   26.9954  -21.6211  -15.9061 C   0  0  2  0  0  0  0  0  0  0  0  0
   27.6311  -20.3340  -15.8302 N   0  0  0  0  0  0  0  0  0  0  0  0
   26.1636  -21.8495  -14.6926 C   0  0  0  0  0  0  0  0  0  0  0  0
   25.4684  -22.8952  -14.5848 O   0  0  0  0  0  0  0  0  0  0  0  0
   27.1070  -20.7019   -8.2241 C   0  0  0  0  0  0  0  0  0  0  0  0
   25.4370  -20.0506   -8.4999 S   0  0  0  0  0  0  0  0  0  0  0  0
   24.8109  -20.7233  -10.0315 C   0  0  0  0  0  0  0  0  0  0  0  0
   25.6661  -20.5405  -11.2260 C   0  0  0  0  0  0  0  0  0  0  0  0
   25.1829  -21.0924  -12.5135 C   0  0  2  0  0  0  0  0  0  0  0  0
   26.1058  -20.9244  -13.6108 N   0  0  0  0  0  0  0  0  0  0  0  0
   23.8131  -20.6338  -12.8732 C   0  0  0  0  0  0  0  0  0  0  0  0
   23.6691  -19.4122  -13.2185 O   0  0  0  0  0  0  0  0  0  0  0  0
   22.3649  -24.3390  -15.8280 N   0  0  0  0  0  0  0  0  0  0  0  0
   22.3673  -22.9402  -16.0165 C   0  0  0  0  0  0  0  0  0  0  0  0
   23.3640  -22.4081  -16.5603 O   0  0  0  0  0  0  0  0  0  0  0  0
   21.2330  -22.1291  -15.5952 C   0  0  0  0  0  0  0  0  0  0  0  0
   20.8645  -22.1455  -14.1689 C   0  0  0  0  0  0  0  0  0  0  0  0
   21.3391  -21.0551  -13.2834 C   0  0  2  0  0  0  0  0  0  0  0  0
   22.6919  -21.4819  -12.8471 N   0  0  0  0  0  0  0  0  0  0  0  0
   20.5631  -20.9463  -12.0458 C   0  0  0  0  0  0  0  0  0  0  0  0
   20.9213  -21.5004  -10.9557 O   0  0  0  0  0  0  0  0  0  0  0  0
   19.3779  -20.2104  -11.9999 O   0  0  0  0  0  0  0  0  0  0  0  0
  2  1  1  1
  2  3  1  0
  4  5  2  0
  4  2  1  0
  7  6  1  0
  8  7  1  0
  8  9  1  0
 10  9  1  1
 10 11  1  0
 10 12  1  0
 11  4  1  0
 12 20  1  0
 13 12  2  0
 15 14  1  0
 15 16  2  0
 17 15  1  0
 18 17  1  0
 19 18  1  6
 19 21  1  0
 20 19  1  0
 21 22  2  0
 21 23  1  0
M  END
$$$$
