AMQ.pdb
     RDKit          3D

 23 22  0  0  1  0  0  0  0  0999 V2000
   27.5113  -19.6499  -16.2479 C   0  0  0  0  0  0  0  0  0  0  0  0
   28.0927  -20.6290  -15.2473 C   0  0  2  0  0  0  0  0  0  0  0  0
   28.5807  -21.7684  -15.9755 N   0  0  0  0  0  0  0  0  0  0  0  0
   27.0005  -21.0450  -14.3249 C   0  0  0  0  0  0  0  0  0  0  0  0
   26.1912  -21.9497  -14.6636 O   0  0  0  0  0  0  0  0  0  0  0  0
   27.2107  -20.2749   -7.8449 C   0  0  0  0  0  0  0  0  0  0  0  0
   25.4389  -20.6306   -7.9985 S   0  0  0  0  0  0  0  0  0  0  0  0
   25.0949  -21.0803   -9.6926 C   0  0  0  0  0  0  0  0  0  0  0  0
   26.0925  -20.6538  -10.6998 C   0  0  0  0  0  0  0  0  0  0  0  0
   25.8047  -20.9438  -12.1241 C   0  0  2  0  0  0  0  0  0  0  0  0
   26.8110  -20.4607  -13.0395 N   0  0  0  0  0  0  0  0  0  0  0  0
   24.4373  -20.5315  -12.5440 C   0  0  0  0  0  0  0  0  0  0  0  0
   24.2423  -19.2936  -12.7927 O   0  0  0  0  0  0  0  0  0  0  0  0
   19.7335  -24.6986  -13.7205 N   0  0  0  0  0  0  0  0  0  0  0  0
   19.2041  -23.3948  -13.8307 C   0  0  0  0  0  0  0  0  0  0  0  0
   17.9864  -23.2177  -13.5904 O   0  0  0  0  0  0  0  0  0  0  0  0
   20.0546  -22.2744  -14.2092 C   0  0  0  0  0  0  0  0  0  0  0  0
   21.4508  -22.2779  -13.7394 C   0  0  0  0  0  0  0  0  0  0  0  0
   22.0202  -21.0451  -13.1440 C   0  0  2  0  0  0  0  0  0  0  0  0
   23.3717  -21.4395  -12.6743 N   0  0  0  0  0  0  0  0  0  0  0  0
   21.3135  -20.6163  -11.9347 C   0  0  0  0  0  0  0  0  0  0  0  0
   21.6156  -21.0407  -10.7717 O   0  0  0  0  0  0  0  0  0  0  0  0
   20.2626  -19.7000  -12.0001 O   0  0  0  0  0  0  0  0  0  0  0  0
  2  1  1  6
  2  3  1  0
  4  5  2  0
  4  2  1  0
  7  6  1  0
  8  7  1  0
  8  9  1  0
 10  9  1  1
 10 11  1  0
 10 12  1  0
 11  4  1  0
 12 20  1  0
 13 12  2  0
 15 14  1  0
 15 16  2  0
 17 15  1  0
 18 17  1  0
 19 18  1  1
 19 21  1  0
 20 19  1  0
 21 22  2  0
 21 23  1  0
M  END
$$$$
