AMQ.pdb
     RDKit          3D

 23 22  0  0  1  0  0  0  0  0999 V2000
   33.7901  -36.6177   -8.5953 C   0  0  0  0  0  0  0  0  0  0  0  0
   34.8419  -36.5747   -7.5046 C   0  0  2  0  0  0  0  0  0  0  0  0
   35.5224  -37.8410   -7.4959 N   0  0  0  0  0  0  0  0  0  0  0  0
   34.1467  -36.3624   -6.2052 C   0  0  0  0  0  0  0  0  0  0  0  0
   33.7388  -37.3473   -5.5330 O   0  0  0  0  0  0  0  0  0  0  0  0
   35.9145  -32.3546   -1.6671 C   0  0  0  0  0  0  0  0  0  0  0  0
   34.1670  -32.3877   -1.1829 S   0  0  0  0  0  0  0  0  0  0  0  0
   33.3199  -33.5909   -2.1955 C   0  0  0  0  0  0  0  0  0  0  0  0
   33.8666  -33.8056   -3.5544 C   0  0  0  0  0  0  0  0  0  0  0  0
   33.2747  -34.8882   -4.3749 C   0  0  2  0  0  0  0  0  0  0  0  0
   33.9080  -35.0682   -5.6596 N   0  0  0  0  0  0  0  0  0  0  0  0
   31.7948  -34.7884   -4.5016 C   0  0  0  0  0  0  0  0  0  0  0  0
   31.3287  -34.0290   -5.4172 O   0  0  0  0  0  0  0  0  0  0  0  0
   27.9478  -38.7242   -1.3699 N   0  0  0  0  0  0  0  0  0  0  0  0
   27.0508  -38.0533   -2.2287 C   0  0  0  0  0  0  0  0  0  0  0  0
   25.8398  -38.3775   -2.2059 O   0  0  0  0  0  0  0  0  0  0  0  0
   27.5185  -37.0002   -3.1198 C   0  0  0  0  0  0  0  0  0  0  0  0
   28.9543  -36.6709   -3.1055 C   0  0  0  0  0  0  0  0  0  0  0  0
   29.4360  -35.4882   -3.8591 C   0  0  2  0  0  0  0  0  0  0  0  0
   30.9073  -35.4875   -3.6646 N   0  0  0  0  0  0  0  0  0  0  0  0
   28.9813  -34.2205   -3.2833 C   0  0  0  0  0  0  0  0  0  0  0  0
   29.6963  -33.5279   -2.4878 O   0  0  0  0  0  0  0  0  0  0  0  0
   27.7239  -33.6983   -3.5912 O   0  0  0  0  0  0  0  0  0  0  0  0
  2  1  1  6
  2  3  1  0
  4  5  2  0
  4  2  1  0
  7  6  1  0
  8  7  1  0
  8  9  1  0
 10  9  1  6
 10 11  1  0
 10 12  1  0
 11  4  1  0
 12 20  1  0
 13 12  2  0
 15 14  1  0
 15 16  2  0
 17 15  1  0
 18 17  1  0
 19 18  1  1
 19 21  1  0
 20 19  1  0
 21 22  2  0
 21 23  1  0
M  END
$$$$
