GAP.pdb
     RDKit          3D

 17 17  0  0  1  0  0  0  0  0999 V2000
   10.0777  -16.3152   13.8469 N   0  0  0  0  0  0  0  0  0  0  0  0
    9.8607  -17.1063   15.0258 C   0  0  0  0  0  0  0  0  0  0  0  0
    9.1080  -16.3206   16.0726 C   0  0  0  0  0  0  0  0  0  0  0  0
    9.1533  -15.0688   16.0385 O   0  0  0  0  0  0  0  0  0  0  0  0
    6.6601  -17.1999   18.7798 C   0  0  0  0  0  0  0  0  0  0  0  0
    7.6809  -16.3052   18.1536 C   0  0  2  0  0  0  0  0  0  0  0  0
    8.3616  -16.9678   17.0791 N   0  0  0  0  0  0  0  0  0  0  0  0
    8.6003  -15.6906   19.1425 C   0  0  0  0  0  0  0  0  0  0  0  0
    9.7066  -16.2701   19.3134 O   0  0  0  0  0  0  0  0  0  0  0  0
    8.3114  -14.5244   19.8830 N   0  0  0  0  0  0  0  0  0  0  0  0
    7.0431  -13.7846   19.7091 C   0  0  0  0  0  0  0  0  0  0  0  0
    7.5312  -12.3309   19.8854 C   0  0  0  0  0  0  0  0  0  0  0  0
    8.4038  -12.5147   21.0911 C   0  0  0  0  0  0  0  0  0  0  0  0
    9.0829  -13.8329   20.8804 C   0  0  1  0  0  0  0  0  0  0  0  0
    9.1699  -14.6080   22.1528 C   0  0  0  0  0  0  0  0  0  0  0  0
   10.1014  -14.4308   23.1325 O   0  0  0  0  0  0  0  0  0  0  0  0
    8.2898  -15.5066   22.3150 O   0  0  0  0  0  0  0  0  0  0  0  0
  1  2  1  0
  2  3  1  0
  3  4  2  0
  6  5  1  1
  7  3  1  0
  7  6  1  0
  8  6  1  0
  8  9  2  0
 10  8  1  0
 11 10  1  0
 12 11  1  0
 13 14  1  0
 13 12  1  0
 14 10  1  0
 15 16  1  0
 14 15  1  1
 17 15  2  0
M  END
$$$$
