GAP.pdb
     RDKit          3D

 17 17  0  0  1  0  0  0  0  0999 V2000
    5.1910  -20.4520   20.7466 N   0  0  0  0  0  0  0  0  0  0  0  0
    5.7302  -19.9044   21.9599 C   0  0  0  0  0  0  0  0  0  0  0  0
    6.0146  -18.4294   21.8072 C   0  0  0  0  0  0  0  0  0  0  0  0
    5.6531  -17.8489   20.7572 O   0  0  0  0  0  0  0  0  0  0  0  0
    7.3381  -15.7579   24.0932 C   0  0  0  0  0  0  0  0  0  0  0  0
    7.0181  -16.3111   22.7418 C   0  0  2  0  0  0  0  0  0  0  0  0
    6.6748  -17.7015   22.8188 N   0  0  0  0  0  0  0  0  0  0  0  0
    8.0638  -16.0182   21.7310 C   0  0  0  0  0  0  0  0  0  0  0  0
    8.8279  -16.9726   21.4241 O   0  0  0  0  0  0  0  0  0  0  0  0
    8.2455  -14.7631   21.1119 N   0  0  0  0  0  0  0  0  0  0  0  0
    7.4047  -13.5959   21.4539 C   0  0  0  0  0  0  0  0  0  0  0  0
    7.2800  -12.9165   20.0736 C   0  0  0  0  0  0  0  0  0  0  0  0
    8.7111  -13.0010   19.6337 C   0  0  0  0  0  0  0  0  0  0  0  0
    9.1831  -14.3416   20.1063 C   0  0  1  0  0  0  0  0  0  0  0  0
   10.5756  -14.2699   20.6387 C   0  0  0  0  0  0  0  0  0  0  0  0
   11.7157  -14.2591   19.8911 O   0  0  0  0  0  0  0  0  0  0  0  0
   10.6834  -14.2164   21.9011 O   0  0  0  0  0  0  0  0  0  0  0  0
  1  2  1  0
  2  3  1  0
  3  4  2  0
  6  5  1  1
  7  3  1  0
  7  6  1  0
  8  6  1  0
  8  9  2  0
 10  8  1  0
 11 10  1  0
 12 11  1  0
 13 14  1  0
 13 12  1  0
 14 10  1  0
 15 16  1  0
 14 15  1  1
 17 15  2  0
M  END
$$$$
