GAP.pdb
     RDKit          3D

 17 17  0  0  1  0  0  0  0  0999 V2000
    9.1516  -16.0300   19.7124 N   0  0  0  0  0  0  0  0  0  0  0  0
    9.1042  -16.7787   20.9370 C   0  0  0  0  0  0  0  0  0  0  0  0
    8.3115  -16.0423   21.9901 C   0  0  0  0  0  0  0  0  0  0  0  0
    8.0603  -14.8267   21.8187 O   0  0  0  0  0  0  0  0  0  0  0  0
    6.4357  -17.0479   25.0786 C   0  0  0  0  0  0  0  0  0  0  0  0
    7.1811  -16.0549   24.2462 C   0  0  2  0  0  0  0  0  0  0  0  0
    7.8534  -16.6955   23.1532 N   0  0  0  0  0  0  0  0  0  0  0  0
    8.0664  -15.1734   25.0463 C   0  0  0  0  0  0  0  0  0  0  0  0
    9.3037  -15.3992   24.9633 O   0  0  0  0  0  0  0  0  0  0  0  0
    7.6110  -14.1248   25.8738 N   0  0  0  0  0  0  0  0  0  0  0  0
    6.1879  -13.7254   25.9145 C   0  0  0  0  0  0  0  0  0  0  0  0
    6.3224  -12.1976   26.0884 C   0  0  0  0  0  0  0  0  0  0  0  0
    7.3815  -12.1686   27.1497 C   0  0  0  0  0  0  0  0  0  0  0  0
    8.3263  -13.2719   26.7843 C   0  0  1  0  0  0  0  0  0  0  0  0
    8.7889  -14.0131   27.9942 C   0  0  0  0  0  0  0  0  0  0  0  0
    8.4021  -15.2694   28.3563 O   0  0  0  0  0  0  0  0  0  0  0  0
    9.6138  -13.4001   28.7372 O   0  0  0  0  0  0  0  0  0  0  0  0
  1  2  1  0
  2  3  1  0
  3  4  2  0
  6  5  1  1
  7  3  1  0
  7  6  1  0
  8  6  1  0
  8  9  2  0
 10  8  1  0
 11 10  1  0
 12 11  1  0
 13 14  1  0
 13 12  1  0
 14 10  1  0
 15 16  1  0
 14 15  1  1
 17 15  2  0
M  END
$$$$
