GAP.pdb
     RDKit          3D

 17 17  0  0  1  0  0  0  0  0999 V2000
    7.8134  -16.1938   19.3838 N   0  0  0  0  0  0  0  0  0  0  0  0
    8.7208  -15.8638   20.4471 C   0  0  0  0  0  0  0  0  0  0  0  0
    7.9692  -15.4746   21.6974 C   0  0  0  0  0  0  0  0  0  0  0  0
    7.2451  -14.4521   21.6747 O   0  0  0  0  0  0  0  0  0  0  0  0
    7.1047  -17.1103   24.9169 C   0  0  0  0  0  0  0  0  0  0  0  0
    7.4705  -15.8892   24.1360 C   0  0  2  0  0  0  0  0  0  0  0  0
    8.0685  -16.2370   22.8797 N   0  0  0  0  0  0  0  0  0  0  0  0
    8.2709  -14.9162   24.9195 C   0  0  0  0  0  0  0  0  0  0  0  0
    9.5197  -14.9568   24.7533 O   0  0  0  0  0  0  0  0  0  0  0  0
    7.7252  -13.9737   25.8170 N   0  0  0  0  0  0  0  0  0  0  0  0
    6.2653  -13.7902   25.9627 C   0  0  0  0  0  0  0  0  0  0  0  0
    6.1882  -12.2658   26.1922 C   0  0  0  0  0  0  0  0  0  0  0  0
    7.3011  -12.1155   27.1860 C   0  0  0  0  0  0  0  0  0  0  0  0
    8.3691  -13.0548   26.7165 C   0  0  1  0  0  0  0  0  0  0  0  0
    9.0150  -13.7588   27.8631 C   0  0  0  0  0  0  0  0  0  0  0  0
    9.9824  -13.2425   28.6733 O   0  0  0  0  0  0  0  0  0  0  0  0
    8.6134  -14.9413   28.0838 O   0  0  0  0  0  0  0  0  0  0  0  0
  1  2  1  0
  2  3  1  0
  3  4  2  0
  6  5  1  1
  7  3  1  0
  7  6  1  0
  8  6  1  0
  8  9  2  0
 10  8  1  0
 11 10  1  0
 12 11  1  0
 13 14  1  0
 13 12  1  0
 14 10  1  0
 15 16  1  0
 14 15  1  1
 17 15  2  0
M  END
$$$$
