GAP.pdb
     RDKit          3D

 17 17  0  0  1  0  0  0  0  0999 V2000
    8.4778  -12.3675   18.9034 N   0  0  0  0  0  0  0  0  0  0  0  0
    8.6334  -13.5931   19.6358 C   0  0  0  0  0  0  0  0  0  0  0  0
    8.0085  -13.4866   21.0061 C   0  0  0  0  0  0  0  0  0  0  0  0
    7.8576  -12.3519   21.5159 O   0  0  0  0  0  0  0  0  0  0  0  0
    6.1967  -15.8889   23.2344 C   0  0  0  0  0  0  0  0  0  0  0  0
    6.9550  -14.6225   22.9979 C   0  0  2  0  0  0  0  0  0  0  0  0
    7.5958  -14.6339   21.7149 N   0  0  0  0  0  0  0  0  0  0  0  0
    7.8731  -14.2781   24.1112 C   0  0  0  0  0  0  0  0  0  0  0  0
    9.0841  -14.5912   23.9549 O   0  0  0  0  0  0  0  0  0  0  0  0
    7.4753  -13.6372   25.3040 N   0  0  0  0  0  0  0  0  0  0  0  0
    6.0981  -13.1349   25.4973 C   0  0  0  0  0  0  0  0  0  0  0  0
    6.3711  -11.8524   26.3117 C   0  0  0  0  0  0  0  0  0  0  0  0
    7.3647  -12.3978   27.2937 C   0  0  0  0  0  0  0  0  0  0  0  0
    8.2166  -13.3398   26.4999 C   0  0  1  0  0  0  0  0  0  0  0  0
    8.5336  -14.5726   27.2791 C   0  0  0  0  0  0  0  0  0  0  0  0
    9.5063  -14.6886   28.2274 O   0  0  0  0  0  0  0  0  0  0  0  0
    7.8233  -15.5903   27.0184 O   0  0  0  0  0  0  0  0  0  0  0  0
  1  2  1  0
  2  3  1  0
  3  4  2  0
  6  5  1  1
  7  3  1  0
  7  6  1  0
  8  6  1  0
  8  9  2  0
 10  8  1  0
 11 10  1  0
 12 11  1  0
 13 14  1  0
 13 12  1  0
 14 10  1  0
 15 16  1  0
 14 15  1  1
 17 15  2  0
M  END
$$$$
