GAP.pdb
     RDKit          3D

 17 17  0  0  1  0  0  0  0  0999 V2000
    8.4530  -15.0662   20.4988 N   0  0  0  0  0  0  0  0  0  0  0  0
    7.5040  -15.2938   21.5525 C   0  0  0  0  0  0  0  0  0  0  0  0
    7.9596  -14.6474   22.8387 C   0  0  0  0  0  0  0  0  0  0  0  0
    9.1473  -14.2591   22.9334 O   0  0  0  0  0  0  0  0  0  0  0  0
    6.2655  -13.6633   26.0522 C   0  0  0  0  0  0  0  0  0  0  0  0
    7.4609  -14.0361   25.2356 C   0  0  2  0  0  0  0  0  0  0  0  0
    7.0772  -14.4753   23.9254 N   0  0  0  0  0  0  0  0  0  0  0  0
    8.3682  -14.9817   25.9310 C   0  0  0  0  0  0  0  0  0  0  0  0
    8.4108  -16.1553   25.4731 O   0  0  0  0  0  0  0  0  0  0  0  0
    9.1641  -14.6482   27.0478 N   0  0  0  0  0  0  0  0  0  0  0  0
    9.0194  -13.3551   27.7501 C   0  0  0  0  0  0  0  0  0  0  0  0
   10.4883  -13.0653   28.1254 C   0  0  0  0  0  0  0  0  0  0  0  0
   10.8788  -14.4211   28.6338 C   0  0  0  0  0  0  0  0  0  0  0  0
   10.2004  -15.3896   27.7144 C   0  0  1  0  0  0  0  0  0  0  0  0
    9.6540  -16.5583   28.4647 C   0  0  0  0  0  0  0  0  0  0  0  0
   10.3867  -17.5764   28.9991 O   0  0  0  0  0  0  0  0  0  0  0  0
    8.3938  -16.5864   28.6042 O   0  0  0  0  0  0  0  0  0  0  0  0
  1  2  1  0
  2  3  1  0
  3  4  2  0
  6  5  1  1
  7  3  1  0
  7  6  1  0
  8  6  1  0
  8  9  2  0
 10  8  1  0
 11 10  1  0
 12 11  1  0
 13 14  1  0
 13 12  1  0
 14 10  1  0
 15 16  1  0
 14 15  1  1
 17 15  2  0
M  END
$$$$
