GAP.pdb
     RDKit          3D

 17 17  0  0  1  0  0  0  0  0999 V2000
   -0.6602  -26.4938   27.1677 N   0  0  0  0  0  0  0  0  0  0  0  0
   -0.9627  -25.4913   28.1507 C   0  0  0  0  0  0  0  0  0  0  0  0
   -2.4508  -25.4009   28.3897 C   0  0  0  0  0  0  0  0  0  0  0  0
   -3.2231  -25.3959   27.4029 O   0  0  0  0  0  0  0  0  0  0  0  0
   -4.6224  -25.6067   31.4450 C   0  0  0  0  0  0  0  0  0  0  0  0
   -4.3769  -25.2537   30.0133 C   0  0  2  0  0  0  0  0  0  0  0  0
   -2.9803  -25.3226   29.6946 N   0  0  0  0  0  0  0  0  0  0  0  0
   -5.0093  -23.9725   29.6136 C   0  0  0  0  0  0  0  0  0  0  0  0
   -4.2490  -22.9691   29.5509 O   0  0  0  0  0  0  0  0  0  0  0  0
   -6.3788  -23.8199   29.3089 N   0  0  0  0  0  0  0  0  0  0  0  0
   -7.3050  -24.9721   29.2832 C   0  0  0  0  0  0  0  0  0  0  0  0
   -8.2306  -24.5715   28.1147 C   0  0  0  0  0  0  0  0  0  0  0  0
   -8.4612  -23.1335   28.4726 C   0  0  0  0  0  0  0  0  0  0  0  0
   -7.1404  -22.6446   28.9821 C   0  0  1  0  0  0  0  0  0  0  0  0
   -7.3125  -21.7470   30.1621 C   0  0  0  0  0  0  0  0  0  0  0  0
   -7.5610  -20.4073   30.1155 O   0  0  0  0  0  0  0  0  0  0  0  0
   -7.2135  -22.3014   31.2984 O   0  0  0  0  0  0  0  0  0  0  0  0
  1  2  1  0
  2  3  1  0
  3  4  2  0
  6  5  1  1
  7  3  1  0
  7  6  1  0
  8  6  1  0
  8  9  2  0
 10  8  1  0
 11 10  1  0
 12 11  1  0
 13 14  1  0
 13 12  1  0
 14 10  1  0
 15 16  1  0
 14 15  1  1
 17 15  2  0
M  END
$$$$
