GAP.pdb
     RDKit          3D

 17 17  0  0  1  0  0  0  0  0999 V2000
    8.3179  -12.3374   19.0115 N   0  0  0  0  0  0  0  0  0  0  0  0
    8.7013  -13.4896   19.7783 C   0  0  0  0  0  0  0  0  0  0  0  0
    8.0464  -13.4755   21.1387 C   0  0  0  0  0  0  0  0  0  0  0  0
    7.7497  -12.3735   21.6561 O   0  0  0  0  0  0  0  0  0  0  0  0
    6.5481  -16.1110   23.3428 C   0  0  0  0  0  0  0  0  0  0  0  0
    7.1276  -14.7525   23.1116 C   0  0  2  0  0  0  0  0  0  0  0  0
    7.7658  -14.6725   21.8298 N   0  0  0  0  0  0  0  0  0  0  0  0
    7.9887  -14.2901   24.2277 C   0  0  0  0  0  0  0  0  0  0  0  0
    9.2241  -14.5109   24.1095 O   0  0  0  0  0  0  0  0  0  0  0  0
    7.5130  -13.6351   25.3837 N   0  0  0  0  0  0  0  0  0  0  0  0
    6.0853  -13.2892   25.5521 C   0  0  0  0  0  0  0  0  0  0  0  0
    6.2014  -11.9400   26.2928 C   0  0  0  0  0  0  0  0  0  0  0  0
    7.2484  -12.3084   27.3012 C   0  0  0  0  0  0  0  0  0  0  0  0
    8.2090  -13.1859   26.5592 C   0  0  1  0  0  0  0  0  0  0  0  0
    8.6663  -14.3270   27.4054 C   0  0  0  0  0  0  0  0  0  0  0  0
    9.6484  -14.2762   28.3498 O   0  0  0  0  0  0  0  0  0  0  0  0
    8.0757  -15.4322   27.2105 O   0  0  0  0  0  0  0  0  0  0  0  0
  1  2  1  0
  2  3  1  0
  3  4  2  0
  6  5  1  1
  7  3  1  0
  7  6  1  0
  8  6  1  0
  8  9  2  0
 10  8  1  0
 11 10  1  0
 12 11  1  0
 13 14  1  0
 13 12  1  0
 14 10  1  0
 15 16  1  0
 14 15  1  1
 17 15  2  0
M  END
$$$$
