GAP.pdb
     RDKit          3D

 17 17  0  0  1  0  0  0  0  0999 V2000
    8.5676  -18.1324   14.8719 N   0  0  0  0  0  0  0  0  0  0  0  0
    8.3858  -18.6827   16.1860 C   0  0  0  0  0  0  0  0  0  0  0  0
    7.9055  -17.6265   17.1522 C   0  0  0  0  0  0  0  0  0  0  0  0
    7.9893  -16.4208   16.8216 O   0  0  0  0  0  0  0  0  0  0  0  0
    6.0305  -17.6768   20.4002 C   0  0  0  0  0  0  0  0  0  0  0  0
    6.9525  -17.0365   19.4129 C   0  0  2  0  0  0  0  0  0  0  0  0
    7.3688  -17.9729   18.4096 N   0  0  0  0  0  0  0  0  0  0  0  0
    8.0821  -16.3185   20.0529 C   0  0  0  0  0  0  0  0  0  0  0  0
    9.1803  -16.9351   20.1027 O   0  0  0  0  0  0  0  0  0  0  0  0
    7.9961  -15.0185   20.5953 N   0  0  0  0  0  0  0  0  0  0  0  0
    6.7914  -14.1790   20.4211 C   0  0  0  0  0  0  0  0  0  0  0  0
    7.4320  -12.7818   20.2798 C   0  0  0  0  0  0  0  0  0  0  0  0
    8.4231  -12.8568   21.4028 C   0  0  0  0  0  0  0  0  0  0  0  0
    8.9444  -14.2605   21.3661 C   0  0  1  0  0  0  0  0  0  0  0  0
    9.1116  -14.8134   22.7423 C   0  0  0  0  0  0  0  0  0  0  0  0
   10.1923  -14.6244   23.5519 O   0  0  0  0  0  0  0  0  0  0  0  0
    8.1514  -15.5193   23.1757 O   0  0  0  0  0  0  0  0  0  0  0  0
  1  2  1  0
  2  3  1  0
  3  4  2  0
  6  5  1  1
  7  3  1  0
  7  6  1  0
  8  6  1  0
  8  9  2  0
 10  8  1  0
 11 10  1  0
 12 11  1  0
 13 14  1  0
 13 12  1  0
 14 10  1  0
 15 16  1  0
 14 15  1  1
 17 15  2  0
M  END
$$$$
