GAP.pdb
     RDKit          3D

 17 17  0  0  1  0  0  0  0  0999 V2000
    8.4454  -12.3508   19.0307 N   0  0  0  0  0  0  0  0  0  0  0  0
    8.7693  -13.5149   19.8071 C   0  0  0  0  0  0  0  0  0  0  0  0
    7.9732  -13.5474   21.0896 C   0  0  0  0  0  0  0  0  0  0  0  0
    7.4037  -12.4999   21.4752 O   0  0  0  0  0  0  0  0  0  0  0  0
    6.6547  -16.2160   23.3265 C   0  0  0  0  0  0  0  0  0  0  0  0
    7.1794  -14.8329   23.1107 C   0  0  2  0  0  0  0  0  0  0  0  0
    7.8615  -14.7277   21.8535 N   0  0  0  0  0  0  0  0  0  0  0  0
    7.9754  -14.3277   24.2562 C   0  0  0  0  0  0  0  0  0  0  0  0
    9.2212  -14.5092   24.1950 O   0  0  0  0  0  0  0  0  0  0  0  0
    7.4284  -13.6734   25.3807 N   0  0  0  0  0  0  0  0  0  0  0  0
    5.9813  -13.3910   25.4911 C   0  0  0  0  0  0  0  0  0  0  0  0
    6.0085  -12.0239   26.2072 C   0  0  0  0  0  0  0  0  0  0  0  0
    7.0339  -12.3239   27.2595 C   0  0  0  0  0  0  0  0  0  0  0  0
    8.0600  -13.1699   26.5705 C   0  0  1  0  0  0  0  0  0  0  0  0
    8.5379  -14.2721   27.4560 C   0  0  0  0  0  0  0  0  0  0  0  0
    8.1743  -15.5830   27.3647 O   0  0  0  0  0  0  0  0  0  0  0  0
    9.3529  -13.9359   28.3676 O   0  0  0  0  0  0  0  0  0  0  0  0
  1  2  1  0
  2  3  1  0
  3  4  2  0
  6  5  1  1
  7  3  1  0
  7  6  1  0
  8  6  1  0
  8  9  2  0
 10  8  1  0
 11 10  1  0
 12 11  1  0
 13 14  1  0
 13 12  1  0
 14 10  1  0
 15 16  1  0
 14 15  1  1
 17 15  2  0
M  END
$$$$
