GAP.pdb
     RDKit          3D

 17 17  0  0  1  0  0  0  0  0999 V2000
    8.8152  -16.1031   19.6167 N   0  0  0  0  0  0  0  0  0  0  0  0
    8.9476  -16.8157   20.8566 C   0  0  0  0  0  0  0  0  0  0  0  0
    8.2606  -16.0771   21.9801 C   0  0  0  0  0  0  0  0  0  0  0  0
    7.9672  -14.8694   21.8201 O   0  0  0  0  0  0  0  0  0  0  0  0
    6.6034  -17.1216   25.1642 C   0  0  0  0  0  0  0  0  0  0  0  0
    7.2785  -16.1020   24.3044 C   0  0  2  0  0  0  0  0  0  0  0  0
    7.9469  -16.7195   23.1958 N   0  0  0  0  0  0  0  0  0  0  0  0
    8.1460  -15.1758   25.0729 C   0  0  0  0  0  0  0  0  0  0  0  0
    9.3888  -15.3616   24.9738 O   0  0  0  0  0  0  0  0  0  0  0  0
    7.6686  -14.1269   25.8875 N   0  0  0  0  0  0  0  0  0  0  0  0
    6.2280  -13.8075   25.9828 C   0  0  0  0  0  0  0  0  0  0  0  0
    6.2814  -12.2695   26.1019 C   0  0  0  0  0  0  0  0  0  0  0  0
    7.3842  -12.1443   27.1104 C   0  0  0  0  0  0  0  0  0  0  0  0
    8.3738  -13.2043   26.7357 C   0  0  1  0  0  0  0  0  0  0  0  0
    8.9332  -13.8764   27.9452 C   0  0  0  0  0  0  0  0  0  0  0  0
    8.6325  -15.1373   28.3678 O   0  0  0  0  0  0  0  0  0  0  0  0
    9.7585  -13.1947   28.6254 O   0  0  0  0  0  0  0  0  0  0  0  0
  1  2  1  0
  2  3  1  0
  3  4  2  0
  6  5  1  1
  7  3  1  0
  7  6  1  0
  8  6  1  0
  8  9  2  0
 10  8  1  0
 11 10  1  0
 12 11  1  0
 13 14  1  0
 13 12  1  0
 14 10  1  0
 15 16  1  0
 14 15  1  1
 17 15  2  0
M  END
$$$$
