GAP.pdb
     RDKit          3D

 17 17  0  0  1  0  0  0  0  0999 V2000
    9.2619  -16.0734   13.4585 N   0  0  0  0  0  0  0  0  0  0  0  0
    9.2648  -16.8895   14.6403 C   0  0  0  0  0  0  0  0  0  0  0  0
    8.6688  -16.1461   15.8116 C   0  0  0  0  0  0  0  0  0  0  0  0
    8.7041  -14.8935   15.8147 O   0  0  0  0  0  0  0  0  0  0  0  0
    6.5694  -17.1300   18.7569 C   0  0  0  0  0  0  0  0  0  0  0  0
    7.5166  -16.2103   18.0557 C   0  0  2  0  0  0  0  0  0  0  0  0
    8.0783  -16.8334   16.8924 N   0  0  0  0  0  0  0  0  0  0  0  0
    8.5365  -15.6256   18.9606 C   0  0  0  0  0  0  0  0  0  0  0  0
    9.6565  -16.2032   18.9885 O   0  0  0  0  0  0  0  0  0  0  0  0
    8.3265  -14.4892   19.7707 N   0  0  0  0  0  0  0  0  0  0  0  0
    7.1095  -13.6585   19.6483 C   0  0  0  0  0  0  0  0  0  0  0  0
    7.6928  -12.2532   19.9078 C   0  0  0  0  0  0  0  0  0  0  0  0
    8.5536  -12.5655   21.0954 C   0  0  0  0  0  0  0  0  0  0  0  0
    9.1438  -13.9107   20.8029 C   0  0  1  0  0  0  0  0  0  0  0  0
    9.1817  -14.7644   22.0266 C   0  0  0  0  0  0  0  0  0  0  0  0
    8.2838  -15.7390   22.3473 O   0  0  0  0  0  0  0  0  0  0  0  0
   10.1425  -14.5452   22.8249 O   0  0  0  0  0  0  0  0  0  0  0  0
  1  2  1  0
  2  3  1  0
  3  4  2  0
  6  5  1  1
  7  3  1  0
  7  6  1  0
  8  6  1  0
  8  9  2  0
 10  8  1  0
 11 10  1  0
 12 11  1  0
 13 14  1  0
 13 12  1  0
 14 10  1  0
 15 16  1  0
 14 15  1  1
 17 15  2  0
M  END
$$$$
