GAP.pdb
     RDKit          3D

 17 17  0  0  1  0  0  0  0  0999 V2000
   -1.3897  -28.2835   31.2191 N   0  0  0  0  0  0  0  0  0  0  0  0
   -2.7740  -27.9036   31.2650 C   0  0  0  0  0  0  0  0  0  0  0  0
   -3.0252  -26.6753   30.4237 C   0  0  0  0  0  0  0  0  0  0  0  0
   -2.3154  -25.6593   30.6088 O   0  0  0  0  0  0  0  0  0  0  0  0
   -5.1261  -25.9286   27.4094 C   0  0  0  0  0  0  0  0  0  0  0  0
   -4.3796  -25.5168   28.6373 C   0  0  2  0  0  0  0  0  0  0  0  0
   -4.0371  -26.6539   29.4415 N   0  0  0  0  0  0  0  0  0  0  0  0
   -5.0610  -24.4412   29.3988 C   0  0  0  0  0  0  0  0  0  0  0  0
   -5.7303  -24.8047   30.4031 O   0  0  0  0  0  0  0  0  0  0  0  0
   -5.0030  -23.0704   29.0684 N   0  0  0  0  0  0  0  0  0  0  0  0
   -4.1596  -22.5700   27.9617 C   0  0  0  0  0  0  0  0  0  0  0  0
   -3.6901  -21.2203   28.5451 C   0  0  0  0  0  0  0  0  0  0  0  0
   -4.9979  -20.7237   29.0854 C   0  0  0  0  0  0  0  0  0  0  0  0
   -5.6686  -21.9371   29.6521 C   0  0  1  0  0  0  0  0  0  0  0  0
   -7.1313  -21.9371   29.3554 C   0  0  0  0  0  0  0  0  0  0  0  0
   -7.7387  -22.6121   28.3384 O   0  0  0  0  0  0  0  0  0  0  0  0
   -7.8533  -21.2396   30.1303 O   0  0  0  0  0  0  0  0  0  0  0  0
  1  2  1  0
  2  3  1  0
  3  4  2  0
  6  5  1  6
  7  3  1  0
  7  6  1  0
  8  6  1  0
  8  9  2  0
 10  8  1  0
 11 10  1  0
 12 11  1  0
 13 14  1  0
 13 12  1  0
 14 10  1  0
 15 16  1  0
 14 15  1  6
 17 15  2  0
M  END
$$$$
