DDG.pdb
     RDKit          3D

 21 20  0  0  1  0  0  0  0  0999 V2000
   19.4313  -13.2595  -16.1256 N   0  0  0  0  0  0  0  0  0  0  0  0
   19.0399  -11.8894  -15.8847 C   0  0  1  0  0  0  0  0  0  0  0  0
   18.0667  -11.7693  -14.7339 C   0  0  0  0  0  0  0  0  0  0  0  0
   16.8466  -12.5257  -15.1274 C   0  0  0  0  0  0  0  0  0  0  0  0
   16.3832  -12.5286  -16.2947 O   0  0  0  0  0  0  0  0  0  0  0  0
   20.2199  -11.0002  -15.7210 C   0  0  0  0  0  0  0  0  0  0  0  0
   21.1998  -11.4123  -15.0634 O   0  0  0  0  0  0  0  0  0  0  0  0
   16.1596  -13.2801  -14.1735 O   0  0  0  0  0  0  0  0  0  0  0  0
   20.2809   -9.6964  -16.2826 N   0  0  0  0  0  0  0  0  0  0  0  0
   21.4148   -8.8294  -16.2352 C   0  0  1  0  0  0  0  0  0  0  0  0
   21.6564   -8.1043  -17.5377 C   0  0  0  0  0  0  0  0  0  0  0  0
   21.9047   -9.0513  -18.6545 C   0  0  0  0  0  0  0  0  0  0  0  0
   21.2095   -9.0888  -19.7065 O   0  0  0  0  0  0  0  0  0  0  0  0
   21.2686   -7.9009  -15.0966 C   0  0  0  0  0  0  0  0  0  0  0  0
   20.1469   -7.3900  -14.8959 O   0  0  0  0  0  0  0  0  0  0  0  0
   22.9528   -9.9810  -18.6009 O   0  0  0  0  0  0  0  0  0  0  0  0
   22.3278   -7.5463  -14.2055 N   0  0  0  0  0  0  0  0  0  0  0  0
   22.1586   -6.6823  -13.0831 C   0  0  0  0  0  0  0  0  0  0  0  0
   22.0731   -5.2563  -13.4343 C   0  0  0  0  0  0  0  0  0  0  0  0
   23.1204   -4.4787  -13.9058 O   0  0  0  0  0  0  0  0  0  0  0  0
   20.9600   -4.6874  -13.2981 O   0  0  0  0  0  0  0  0  0  0  0  0
  2  1  1  1
  2  3  1  0
  3  4  1  0
  4  8  1  0
  5  4  2  0
  6  2  1  0
  7  6  2  0
  9  6  1  0
 10 14  1  0
 10  9  1  0
 10 11  1  6
 12 11  1  0
 13 12  2  0
 14 15  2  0
 16 12  1  0
 17 14  1  0
 17 18  1  0
 18 19  1  0
 19 20  1  0
 21 19  2  0
M  END
$$$$
