DDG.pdb
     RDKit          3D

 21 20  0  0  1  0  0  0  0  0999 V2000
   20.0281  -23.7690  -14.8264 N   0  0  0  0  0  0  0  0  0  0  0  0
   19.6612  -22.5544  -14.1346 C   0  0  1  0  0  0  0  0  0  0  0  0
   18.8931  -22.8334  -12.8626 C   0  0  0  0  0  0  0  0  0  0  0  0
   17.6049  -23.4571  -13.2712 C   0  0  0  0  0  0  0  0  0  0  0  0
   17.5247  -24.5981  -13.7900 O   0  0  0  0  0  0  0  0  0  0  0  0
   20.8378  -21.6761  -13.9022 C   0  0  0  0  0  0  0  0  0  0  0  0
   20.6656  -20.5716  -13.3427 O   0  0  0  0  0  0  0  0  0  0  0  0
   16.4069  -22.7643  -13.0813 O   0  0  0  0  0  0  0  0  0  0  0  0
   22.1549  -22.0405  -14.2910 N   0  0  0  0  0  0  0  0  0  0  0  0
   23.3235  -21.2427  -14.0967 C   0  0  1  0  0  0  0  0  0  0  0  0
   24.5259  -22.0528  -13.6738 C   0  0  0  0  0  0  0  0  0  0  0  0
   25.6968  -21.1860  -13.3848 C   0  0  0  0  0  0  0  0  0  0  0  0
   26.8411  -21.6311  -13.0956 O   0  0  0  0  0  0  0  0  0  0  0  0
   23.5814  -20.4542  -15.3180 C   0  0  0  0  0  0  0  0  0  0  0  0
   24.2540  -20.9834  -16.2274 O   0  0  0  0  0  0  0  0  0  0  0  0
   25.5933  -19.7881  -13.4181 O   0  0  0  0  0  0  0  0  0  0  0  0
   23.1116  -19.1216  -15.5304 N   0  0  0  0  0  0  0  0  0  0  0  0
   23.4556  -18.3360  -16.6704 C   0  0  0  0  0  0  0  0  0  0  0  0
   22.7837  -17.0282  -16.7195 C   0  0  0  0  0  0  0  0  0  0  0  0
   21.8735  -16.5547  -15.7862 O   0  0  0  0  0  0  0  0  0  0  0  0
   23.0521  -16.2702  -17.6863 O   0  0  0  0  0  0  0  0  0  0  0  0
  2  1  1  1
  2  3  1  0
  3  4  1  0
  4  8  1  0
  5  4  2  0
  6  2  1  0
  7  6  2  0
  9  6  1  0
 10 14  1  0
 10  9  1  0
 10 11  1  6
 12 11  1  0
 13 12  2  0
 14 15  2  0
 16 12  1  0
 17 14  1  0
 17 18  1  0
 18 19  1  0
 19 20  1  0
 21 19  2  0
M  END
$$$$
