DDG.pdb
     RDKit          3D

 21 20  0  0  1  0  0  0  0  0999 V2000
   17.6015  -13.4017  -15.1951 N   0  0  0  0  0  0  0  0  0  0  0  0
   16.6637  -12.6947  -14.3529 C   0  0  1  0  0  0  0  0  0  0  0  0
   15.8509  -13.6348  -13.4919 C   0  0  0  0  0  0  0  0  0  0  0  0
   15.0115  -14.4425  -14.4186 C   0  0  0  0  0  0  0  0  0  0  0  0
   14.3665  -13.9462  -15.3752 O   0  0  0  0  0  0  0  0  0  0  0  0
   17.3319  -11.6337  -13.5545 C   0  0  0  0  0  0  0  0  0  0  0  0
   18.4122  -11.8976  -12.9838 O   0  0  0  0  0  0  0  0  0  0  0  0
   14.9156  -15.8249  -14.2421 O   0  0  0  0  0  0  0  0  0  0  0  0
   16.7921  -10.3271  -13.4123 N   0  0  0  0  0  0  0  0  0  0  0  0
   17.4490   -9.2266  -12.7819 C   0  0  1  0  0  0  0  0  0  0  0  0
   17.7479   -8.0945  -13.7356 C   0  0  0  0  0  0  0  0  0  0  0  0
   19.1043   -8.2198  -14.3273 C   0  0  0  0  0  0  0  0  0  0  0  0
   20.1616   -7.8784  -13.7299 O   0  0  0  0  0  0  0  0  0  0  0  0
   16.6503   -8.7847  -11.6215 C   0  0  0  0  0  0  0  0  0  0  0  0
   15.4819   -8.3948  -11.8271 O   0  0  0  0  0  0  0  0  0  0  0  0
   19.2907   -8.7382  -15.6167 O   0  0  0  0  0  0  0  0  0  0  0  0
   17.1257   -8.7730  -10.2740 N   0  0  0  0  0  0  0  0  0  0  0  0
   16.3079   -8.4466   -9.1516 C   0  0  0  0  0  0  0  0  0  0  0  0
   16.0201   -7.0100   -9.0196 C   0  0  0  0  0  0  0  0  0  0  0  0
   15.2062   -6.4370   -8.0538 O   0  0  0  0  0  0  0  0  0  0  0  0
   16.5535   -6.2294   -9.8487 O   0  0  0  0  0  0  0  0  0  0  0  0
  2  1  1  1
  2  3  1  0
  3  4  1  0
  4  8  1  0
  5  4  2  0
  6  2  1  0
  7  6  2  0
  9  6  1  0
 10 14  1  0
 10  9  1  0
 10 11  1  6
 12 11  1  0
 13 12  2  0
 14 15  2  0
 16 12  1  0
 17 14  1  0
 17 18  1  0
 18 19  1  0
 19 20  1  0
 21 19  2  0
M  END
$$$$
