DDG.pdb
     RDKit          3D

 21 20  0  0  1  0  0  0  0  0999 V2000
   18.6354  -12.0985  -17.0978 N   0  0  0  0  0  0  0  0  0  0  0  0
   18.2619  -11.1943  -16.0342 C   0  0  1  0  0  0  0  0  0  0  0  0
   18.5120  -11.7893  -14.6670 C   0  0  0  0  0  0  0  0  0  0  0  0
   17.5743  -12.9364  -14.5238 C   0  0  0  0  0  0  0  0  0  0  0  0
   17.9433  -14.0934  -14.2036 O   0  0  0  0  0  0  0  0  0  0  0  0
   18.9001   -9.8614  -16.1949 C   0  0  0  0  0  0  0  0  0  0  0  0
   20.0744   -9.8014  -16.6191 O   0  0  0  0  0  0  0  0  0  0  0  0
   16.2087  -12.7492  -14.7501 O   0  0  0  0  0  0  0  0  0  0  0  0
   18.2289   -8.6479  -15.8853 N   0  0  0  0  0  0  0  0  0  0  0  0
   18.7710   -7.3377  -16.0567 C   0  0  1  0  0  0  0  0  0  0  0  0
   17.7086   -6.2685  -16.1501 C   0  0  0  0  0  0  0  0  0  0  0  0
   18.2941   -4.9397  -16.4619 C   0  0  0  0  0  0  0  0  0  0  0  0
   19.4366   -4.7820  -16.9730 O   0  0  0  0  0  0  0  0  0  0  0  0
   19.7418   -7.0692  -14.9772 C   0  0  0  0  0  0  0  0  0  0  0  0
   19.3603   -7.2080  -13.7963 O   0  0  0  0  0  0  0  0  0  0  0  0
   17.5915   -3.7551  -16.1991 O   0  0  0  0  0  0  0  0  0  0  0  0
   21.0936   -6.6596  -15.1934 N   0  0  0  0  0  0  0  0  0  0  0  0
   22.0339   -6.4547  -14.1404 C   0  0  0  0  0  0  0  0  0  0  0  0
   21.7641   -5.2623  -13.3222 C   0  0  0  0  0  0  0  0  0  0  0  0
   20.6522   -4.4412  -13.4371 O   0  0  0  0  0  0  0  0  0  0  0  0
   22.6082   -4.9552  -12.4421 O   0  0  0  0  0  0  0  0  0  0  0  0
  2  1  1  6
  2  3  1  0
  3  4  1  0
  4  8  1  0
  5  4  2  0
  6  2  1  0
  7  6  2  0
  9  6  1  0
 10 14  1  0
 10  9  1  0
 10 11  1  1
 12 11  1  0
 13 12  2  0
 14 15  2  0
 16 12  1  0
 17 14  1  0
 17 18  1  0
 18 19  1  0
 19 20  1  0
 21 19  2  0
M  END
$$$$
