DDG.pdb
     RDKit          3D

 21 20  0  0  1  0  0  0  0  0999 V2000
   19.4223  -12.0871  -15.2735 N   0  0  0  0  0  0  0  0  0  0  0  0
   19.9723  -11.4358  -16.4405 C   0  0  1  0  0  0  0  0  0  0  0  0
   19.4044  -11.9951  -17.7252 C   0  0  0  0  0  0  0  0  0  0  0  0
   19.5967  -13.4701  -17.6693 C   0  0  0  0  0  0  0  0  0  0  0  0
   19.7414  -14.1863  -18.6908 O   0  0  0  0  0  0  0  0  0  0  0  0
   19.8383   -9.9575  -16.3608 C   0  0  0  0  0  0  0  0  0  0  0  0
   20.2128   -9.2641  -17.3310 O   0  0  0  0  0  0  0  0  0  0  0  0
   19.6224  -14.1205  -16.4334 O   0  0  0  0  0  0  0  0  0  0  0  0
   19.3003   -9.2970  -15.2236 N   0  0  0  0  0  0  0  0  0  0  0  0
   19.1276   -7.8852  -15.0939 C   0  0  1  0  0  0  0  0  0  0  0  0
   17.8183   -7.5096  -14.4418 C   0  0  0  0  0  0  0  0  0  0  0  0
   16.6553   -7.9939  -15.2283 C   0  0  0  0  0  0  0  0  0  0  0  0
   16.3825   -7.5914  -16.3923 O   0  0  0  0  0  0  0  0  0  0  0  0
   20.2902   -7.3173  -14.3826 C   0  0  0  0  0  0  0  0  0  0  0  0
   20.8598   -8.0274  -13.5278 O   0  0  0  0  0  0  0  0  0  0  0  0
   15.7724   -8.9507  -14.7077 O   0  0  0  0  0  0  0  0  0  0  0  0
   20.8095   -6.0053  -14.6073 N   0  0  0  0  0  0  0  0  0  0  0  0
   21.9961   -5.5098  -13.9895 C   0  0  0  0  0  0  0  0  0  0  0  0
   22.3468   -4.1368  -14.3844 C   0  0  0  0  0  0  0  0  0  0  0  0
   23.3721   -3.3787  -13.8388 O   0  0  0  0  0  0  0  0  0  0  0  0
   21.6638   -3.5983  -15.2927 O   0  0  0  0  0  0  0  0  0  0  0  0
  2  1  1  1
  2  3  1  0
  3  4  1  0
  4  8  1  0
  5  4  2  0
  6  2  1  0
  7  6  2  0
  9  6  1  0
 10 14  1  0
 10  9  1  0
 10 11  1  1
 12 11  1  0
 13 12  2  0
 14 15  2  0
 16 12  1  0
 17 14  1  0
 17 18  1  0
 18 19  1  0
 19 20  1  0
 21 19  2  0
M  END
$$$$
