DDG.pdb
     RDKit          3D

 21 20  0  0  1  0  0  0  0  0999 V2000
   26.6473  -20.0638  -15.9995 N   0  0  0  0  0  0  0  0  0  0  0  0
   26.4619  -18.6494  -15.7673 C   0  0  1  0  0  0  0  0  0  0  0  0
   26.9969  -17.8107  -16.9058 C   0  0  0  0  0  0  0  0  0  0  0  0
   27.8674  -18.7029  -17.7194 C   0  0  0  0  0  0  0  0  0  0  0  0
   28.1193  -19.8930  -17.4071 O   0  0  0  0  0  0  0  0  0  0  0  0
   25.0478  -18.3252  -15.4436 C   0  0  0  0  0  0  0  0  0  0  0  0
   24.7164  -17.1263  -15.3196 O   0  0  0  0  0  0  0  0  0  0  0  0
   28.4484  -18.2222  -18.8952 O   0  0  0  0  0  0  0  0  0  0  0  0
   24.0530  -19.3245  -15.2684 N   0  0  0  0  0  0  0  0  0  0  0  0
   22.6693  -19.0766  -15.0161 C   0  0  1  0  0  0  0  0  0  0  0  0
   21.8486  -18.9789  -16.2801 C   0  0  0  0  0  0  0  0  0  0  0  0
   20.4438  -18.5919  -15.9930 C   0  0  0  0  0  0  0  0  0  0  0  0
   20.0621  -18.1143  -14.8896 O   0  0  0  0  0  0  0  0  0  0  0  0
   22.1527  -20.1054  -14.0916 C   0  0  0  0  0  0  0  0  0  0  0  0
   22.5901  -21.2695  -14.2048 O   0  0  0  0  0  0  0  0  0  0  0  0
   19.4367  -18.7394  -16.9574 O   0  0  0  0  0  0  0  0  0  0  0  0
   21.1824  -19.8578  -13.0723 N   0  0  0  0  0  0  0  0  0  0  0  0
   20.8329  -20.8087  -12.0680 C   0  0  0  0  0  0  0  0  0  0  0  0
   19.9094  -21.8557  -12.5320 C   0  0  0  0  0  0  0  0  0  0  0  0
   19.5358  -22.0739  -13.8498 O   0  0  0  0  0  0  0  0  0  0  0  0
   19.4127  -22.6211  -11.6668 O   0  0  0  0  0  0  0  0  0  0  0  0
  2  1  1  6
  2  3  1  0
  3  4  1  0
  4  8  1  0
  5  4  2  0
  6  2  1  0
  7  6  2  0
  9  6  1  0
 10 14  1  0
 10  9  1  0
 10 11  1  6
 12 11  1  0
 13 12  2  0
 14 15  2  0
 16 12  1  0
 17 14  1  0
 17 18  1  0
 18 19  1  0
 19 20  1  0
 21 19  2  0
M  END
$$$$
