DDG.pdb
     RDKit          3D

 21 20  0  0  1  0  0  0  0  0999 V2000
   16.0690  -11.8368  -15.9213 N   0  0  0  0  0  0  0  0  0  0  0  0
   16.3452  -10.4266  -15.7671 C   0  0  1  0  0  0  0  0  0  0  0  0
   15.5041   -9.7973  -14.6798 C   0  0  0  0  0  0  0  0  0  0  0  0
   14.0894   -9.8775  -15.1356 C   0  0  0  0  0  0  0  0  0  0  0  0
   13.7450   -9.7696  -16.3386 O   0  0  0  0  0  0  0  0  0  0  0  0
   17.7968  -10.1670  -15.5792 C   0  0  0  0  0  0  0  0  0  0  0  0
   18.4273  -10.8440  -14.7386 O   0  0  0  0  0  0  0  0  0  0  0  0
   13.0700  -10.0824  -14.2030 O   0  0  0  0  0  0  0  0  0  0  0  0
   18.5004   -9.1779  -16.3177 N   0  0  0  0  0  0  0  0  0  0  0  0
   19.8960   -8.8978  -16.2012 C   0  0  1  0  0  0  0  0  0  0  0  0
   20.6702   -9.2317  -17.4540 C   0  0  0  0  0  0  0  0  0  0  0  0
   22.1223   -8.9677  -17.2879 C   0  0  0  0  0  0  0  0  0  0  0  0
   22.8499   -9.5669  -16.4495 O   0  0  0  0  0  0  0  0  0  0  0  0
   20.0761   -7.4912  -15.7902 C   0  0  0  0  0  0  0  0  0  0  0  0
   19.5041   -6.6059  -16.4600 O   0  0  0  0  0  0  0  0  0  0  0  0
   22.7830   -8.0131  -18.0740 O   0  0  0  0  0  0  0  0  0  0  0  0
   20.8636   -7.0729  -14.6737 N   0  0  0  0  0  0  0  0  0  0  0  0
   21.0626   -5.7062  -14.3163 C   0  0  0  0  0  0  0  0  0  0  0  0
   21.9225   -5.5160  -13.1379 C   0  0  0  0  0  0  0  0  0  0  0  0
   22.3847   -4.2962  -12.6666 O   0  0  0  0  0  0  0  0  0  0  0  0
   22.2720   -6.5410  -12.4989 O   0  0  0  0  0  0  0  0  0  0  0  0
  2  1  1  1
  2  3  1  0
  3  4  1  0
  4  8  1  0
  5  4  2  0
  6  2  1  0
  7  6  2  0
  9  6  1  0
 10 14  1  0
 10  9  1  0
 10 11  1  6
 12 11  1  0
 13 12  2  0
 14 15  2  0
 16 12  1  0
 17 14  1  0
 17 18  1  0
 18 19  1  0
 19 20  1  0
 21 19  2  0
M  END
$$$$
