DDG.pdb
     RDKit          3D

 21 20  0  0  1  0  0  0  0  0999 V2000
   19.2267  -12.1000  -15.7943 N   0  0  0  0  0  0  0  0  0  0  0  0
   19.1640  -10.6821  -16.0667 C   0  0  1  0  0  0  0  0  0  0  0  0
   17.8967  -10.0550  -15.5313 C   0  0  0  0  0  0  0  0  0  0  0  0
   16.7621  -10.8044  -16.1368 C   0  0  0  0  0  0  0  0  0  0  0  0
   16.5741  -10.8891  -17.3757 O   0  0  0  0  0  0  0  0  0  0  0  0
   20.3850   -9.9764  -15.5966 C   0  0  0  0  0  0  0  0  0  0  0  0
   20.8757  -10.2904  -14.4907 O   0  0  0  0  0  0  0  0  0  0  0  0
   15.8426  -11.4573  -15.3126 O   0  0  0  0  0  0  0  0  0  0  0  0
   21.0202   -8.9561  -16.3545 N   0  0  0  0  0  0  0  0  0  0  0  0
   22.2524   -8.3200  -16.0129 C   0  0  1  0  0  0  0  0  0  0  0  0
   23.3188   -8.4975  -17.0674 C   0  0  0  0  0  0  0  0  0  0  0  0
   24.6026   -7.8719  -16.6596 C   0  0  0  0  0  0  0  0  0  0  0  0
   24.8979   -6.6676  -16.8918 O   0  0  0  0  0  0  0  0  0  0  0  0
   21.9967   -6.8978  -15.7096 C   0  0  0  0  0  0  0  0  0  0  0  0
   21.4882   -6.1890  -16.6031 O   0  0  0  0  0  0  0  0  0  0  0  0
   25.5839   -8.6036  -15.9759 O   0  0  0  0  0  0  0  0  0  0  0  0
   22.2928   -6.2755  -14.4579 N   0  0  0  0  0  0  0  0  0  0  0  0
   22.1818   -4.8719  -14.2288 C   0  0  0  0  0  0  0  0  0  0  0  0
   20.7955   -4.3930  -14.1148 C   0  0  0  0  0  0  0  0  0  0  0  0
   19.6632   -5.1939  -14.1244 O   0  0  0  0  0  0  0  0  0  0  0  0
   20.6136   -3.1541  -13.9986 O   0  0  0  0  0  0  0  0  0  0  0  0
  2  1  1  1
  2  3  1  0
  3  4  1  0
  4  8  1  0
  5  4  2  0
  6  2  1  0
  7  6  2  0
  9  6  1  0
 10 14  1  0
 10  9  1  0
 10 11  1  6
 12 11  1  0
 13 12  2  0
 14 15  2  0
 16 12  1  0
 17 14  1  0
 17 18  1  0
 18 19  1  0
 19 20  1  0
 21 19  2  0
M  END
$$$$
