DDG.pdb
     RDKit          3D

 21 20  0  0  1  0  0  0  0  0999 V2000
   30.3253  -35.1575   -4.5423 N   0  0  0  0  0  0  0  0  0  0  0  0
   30.1885  -35.5714   -3.1644 C   0  0  1  0  0  0  0  0  0  0  0  0
   31.4074  -35.2217   -2.3413 C   0  0  0  0  0  0  0  0  0  0  0  0
   32.2496  -36.4477   -2.2855 C   0  0  0  0  0  0  0  0  0  0  0  0
   32.0201  -37.4742   -2.9718 O   0  0  0  0  0  0  0  0  0  0  0  0
   28.9318  -35.0592   -2.5577 C   0  0  0  0  0  0  0  0  0  0  0  0
   29.0057  -34.2873   -1.5772 O   0  0  0  0  0  0  0  0  0  0  0  0
   33.3585  -36.4904   -1.4371 O   0  0  0  0  0  0  0  0  0  0  0  0
   27.6453  -35.4114   -3.0471 N   0  0  0  0  0  0  0  0  0  0  0  0
   26.4068  -34.8890   -2.5642 C   0  0  1  0  0  0  0  0  0  0  0  0
   25.4338  -34.5620   -3.6719 C   0  0  0  0  0  0  0  0  0  0  0  0
   25.6880  -33.2156   -4.2451 C   0  0  0  0  0  0  0  0  0  0  0  0
   25.3121  -32.8643   -5.3969 O   0  0  0  0  0  0  0  0  0  0  0  0
   25.8363  -35.8270   -1.5771 C   0  0  0  0  0  0  0  0  0  0  0  0
   25.6190  -37.0017   -1.9407 O   0  0  0  0  0  0  0  0  0  0  0  0
   26.3779  -32.2341   -3.5194 O   0  0  0  0  0  0  0  0  0  0  0  0
   25.5150  -35.4802   -0.2287 N   0  0  0  0  0  0  0  0  0  0  0  0
   24.9140  -36.3842    0.6968 C   0  0  0  0  0  0  0  0  0  0  0  0
   24.6116  -35.7856    2.0061 C   0  0  0  0  0  0  0  0  0  0  0  0
   23.9481  -36.4181    3.0470 O   0  0  0  0  0  0  0  0  0  0  0  0
   24.9829  -34.6010    2.2060 O   0  0  0  0  0  0  0  0  0  0  0  0
  2  1  1  6
  2  3  1  0
  3  4  1  0
  4  8  1  0
  5  4  2  0
  6  2  1  0
  7  6  2  0
  9  6  1  0
 10 14  1  0
 10  9  1  0
 10 11  1  6
 12 11  1  0
 13 12  2  0
 14 15  2  0
 16 12  1  0
 17 14  1  0
 17 18  1  0
 18 19  1  0
 19 20  1  0
 21 19  2  0
M  END
$$$$
