DDG.pdb
     RDKit          3D

 21 20  0  0  1  0  0  0  0  0999 V2000
   22.1892  -11.1392  -17.6843 N   0  0  0  0  0  0  0  0  0  0  0  0
   22.4697  -10.5665  -16.3874 C   0  0  1  0  0  0  0  0  0  0  0  0
   23.9541  -10.4332  -16.1330 C   0  0  0  0  0  0  0  0  0  0  0  0
   24.5205  -11.8086  -16.1866 C   0  0  0  0  0  0  0  0  0  0  0  0
   24.0783  -12.7641  -15.5018 O   0  0  0  0  0  0  0  0  0  0  0  0
   21.7447   -9.2850  -16.1827 C   0  0  0  0  0  0  0  0  0  0  0  0
   21.7910   -8.4153  -17.0793 O   0  0  0  0  0  0  0  0  0  0  0  0
   25.5988  -12.0830  -17.0311 O   0  0  0  0  0  0  0  0  0  0  0  0
   20.9985   -9.0061  -15.0061 N   0  0  0  0  0  0  0  0  0  0  0  0
   20.2443   -7.8165  -14.7696 C   0  0  1  0  0  0  0  0  0  0  0  0
   18.9803   -8.0676  -13.9823 C   0  0  0  0  0  0  0  0  0  0  0  0
   18.0750   -9.0121  -14.6853 C   0  0  0  0  0  0  0  0  0  0  0  0
   17.4495   -8.7246  -15.7423 O   0  0  0  0  0  0  0  0  0  0  0  0
   21.1133   -6.8106  -14.1271 C   0  0  0  0  0  0  0  0  0  0  0  0
   21.9173   -7.2004  -13.2547 O   0  0  0  0  0  0  0  0  0  0  0  0
   17.8592  -10.3101  -14.2009 O   0  0  0  0  0  0  0  0  0  0  0  0
   21.0964   -5.4159  -14.4373 N   0  0  0  0  0  0  0  0  0  0  0  0
   21.9365   -4.4554  -13.7994 C   0  0  0  0  0  0  0  0  0  0  0  0
   21.8303   -3.1007  -14.3630 C   0  0  0  0  0  0  0  0  0  0  0  0
   22.4439   -1.9660  -13.8536 O   0  0  0  0  0  0  0  0  0  0  0  0
   21.1254   -2.9510  -15.3936 O   0  0  0  0  0  0  0  0  0  0  0  0
  2  1  1  6
  2  3  1  0
  3  4  1  0
  4  8  1  0
  5  4  2  0
  6  2  1  0
  7  6  2  0
  9  6  1  0
 10 14  1  0
 10  9  1  0
 10 11  1  1
 12 11  1  0
 13 12  2  0
 14 15  2  0
 16 12  1  0
 17 14  1  0
 17 18  1  0
 18 19  1  0
 19 20  1  0
 21 19  2  0
M  END
$$$$
