RSC.pdb
     RDKit          3D

 24 23  0  0  1  0  0  0  0  0999 V2000
   12.3526  -13.1943  -11.3333 N   0  0  0  0  0  0  0  0  0  0  0  0
   11.9426  -11.9381  -10.8658 C   0  0  0  0  0  0  0  0  0  0  0  0
   10.7520  -11.7912  -10.4046 N   0  0  0  0  0  0  0  0  0  0  0  0
   12.8371  -10.8370  -10.9016 N   0  0  0  0  0  0  0  0  0  0  0  0
   14.1572  -10.9599  -11.4814 C   0  0  0  0  0  0  0  0  0  0  0  0
   14.0736  -10.8078  -12.9992 C   0  0  0  0  0  0  0  0  0  0  0  0
   15.4874  -10.8693  -13.5594 C   0  0  0  0  0  0  0  0  0  0  0  0
   15.3708  -10.7072  -15.0756 C   0  0  2  0  0  0  0  0  0  0  0  0
   15.3529  -12.0252  -15.6809 N   0  0  0  0  0  0  0  0  0  0  0  0
   16.5327   -9.9096  -15.5002 C   0  0  0  0  0  0  0  0  0  0  0  0
   17.4269  -10.4825  -16.1693 O   0  0  0  0  0  0  0  0  0  0  0  0
   10.4344  -10.8796  -10.0139 O   0  0  0  0  0  0  0  0  0  0  0  0
   18.2170   -5.6308  -16.6022 C   0  0  0  0  0  0  0  0  0  0  0  0
   17.2317   -6.3810  -16.0178 C   0  0  2  0  0  0  0  0  0  0  0  0
   17.7427   -7.7799  -15.7061 N   0  0  0  0  0  0  0  0  0  0  0  0
   16.6214   -8.5442  -15.1564 C   0  0  0  0  0  0  0  0  0  0  0  0
   18.8422   -7.6958  -14.7151 O   0  0  0  0  0  0  0  0  0  0  0  0
   18.6230   -7.5717  -13.4801 N   0  0  0  0  0  0  0  0  0  0  0  0
   20.1803   -7.7544  -15.1371 C   0  0  1  0  0  0  0  0  0  0  0  0
   21.2468   -7.7041  -14.1486 C   0  0  0  0  0  0  0  0  0  0  0  0
   22.2750   -8.7663  -14.5210 S   0  0  0  0  0  0  0  0  0  0  0  0
   23.6361   -8.8098  -13.3539 C   0  0  0  0  0  0  0  0  0  0  0  0
   21.8963   -6.3721  -14.1363 O   0  0  0  0  0  0  0  0  0  0  0  0
   22.3196   -5.8593  -12.9209 O   0  0  0  0  0  0  0  0  0  0  0  0
  2  3  2  0
  2  1  1  0
  4  2  1  0
  5  4  1  0
  6  5  1  0
  7  6  1  0
  7  8  1  0
  8  9  1  6
  8 10  1  0
 10 15  1  0
 11 10  2  0
 13 12  1  0
 14 16  1  0
 14 13  1  6
 15 14  1  0
 16 17  2  0
 18 16  1  0
 18 19  1  0
 19 20  1  1
 20 21  1  0
 22 23  1  0
 22 19  1  0
 24 22  2  0
M  END
$$$$
