RSC.pdb
     RDKit          3D

 24 23  0  0  1  0  0  0  0  0999 V2000
   12.2607  -13.7001  -11.1008 N   0  0  0  0  0  0  0  0  0  0  0  0
   11.1035  -13.4496  -11.8511 C   0  0  0  0  0  0  0  0  0  0  0  0
    9.9745  -13.9134  -11.4487 N   0  0  0  0  0  0  0  0  0  0  0  0
   11.1794  -12.6886  -13.0465 N   0  0  0  0  0  0  0  0  0  0  0  0
   12.1514  -11.6280  -13.2016 C   0  0  0  0  0  0  0  0  0  0  0  0
   13.3948  -12.1629  -13.9098 C   0  0  0  0  0  0  0  0  0  0  0  0
   14.3698  -11.0082  -14.0910 C   0  0  0  0  0  0  0  0  0  0  0  0
   15.7725  -11.5723  -13.8611 C   0  0  2  0  0  0  0  0  0  0  0  0
   15.7491  -12.3954  -12.6670 N   0  0  0  0  0  0  0  0  0  0  0  0
   16.6709  -10.4141  -13.7277 C   0  0  0  0  0  0  0  0  0  0  0  0
   16.7178   -9.8305  -12.6175 O   0  0  0  0  0  0  0  0  0  0  0  0
    9.0908  -13.6932  -11.9538 O   0  0  0  0  0  0  0  0  0  0  0  0
   19.0779   -9.2732  -16.8276 C   0  0  0  0  0  0  0  0  0  0  0  0
   19.4724   -8.9163  -15.5658 C   0  0  1  0  0  0  0  0  0  0  0  0
   18.2656   -8.7857  -14.6484 N   0  0  0  0  0  0  0  0  0  0  0  0
   17.4480   -9.9873  -14.8252 C   0  0  0  0  0  0  0  0  0  0  0  0
   17.4904   -7.5776  -15.0193 O   0  0  0  0  0  0  0  0  0  0  0  0
   16.5121   -7.6267  -15.8127 N   0  0  0  0  0  0  0  0  0  0  0  0
   17.8336   -6.3255  -14.4843 C   0  0  1  0  0  0  0  0  0  0  0  0
   17.1440   -5.1325  -14.9515 C   0  0  0  0  0  0  0  0  0  0  0  0
   16.2989   -4.6034  -13.7982 S   0  0  0  0  0  0  0  0  0  0  0  0
   15.6397   -2.9735  -14.1523 C   0  0  0  0  0  0  0  0  0  0  0  0
   18.1110   -4.0914  -15.3724 O   0  0  0  0  0  0  0  0  0  0  0  0
   17.7599   -3.2537  -16.4186 O   0  0  0  0  0  0  0  0  0  0  0  0
  2  3  2  0
  2  1  1  0
  4  2  1  0
  5  4  1  0
  6  5  1  0
  7  6  1  0
  7  8  1  0
  8  9  1  1
  8 10  1  0
 10 15  1  0
 11 10  2  0
 13 12  1  0
 14 16  1  0
 14 13  1  1
 15 14  1  0
 16 17  2  0
 18 16  1  0
 18 19  1  0
 19 20  1  6
 20 21  1  0
 22 23  1  0
 22 19  1  0
 24 22  2  0
M  END
$$$$
