RSC.pdb
     RDKit          3D

 24 23  0  0  1  0  0  0  0  0999 V2000
   20.0011  -17.3514  -15.2920 N   0  0  0  0  0  0  0  0  0  0  0  0
   20.6417  -17.0695  -16.5065 C   0  0  0  0  0  0  0  0  0  0  0  0
   21.2067  -18.0207  -17.1607 N   0  0  0  0  0  0  0  0  0  0  0  0
   20.6652  -15.7427  -17.0093 N   0  0  0  0  0  0  0  0  0  0  0  0
   19.7087  -14.7530  -16.5629 C   0  0  0  0  0  0  0  0  0  0  0  0
   19.7542  -13.5349  -17.4838 C   0  0  0  0  0  0  0  0  0  0  0  0
   19.9243  -12.2940  -16.6190 C   0  0  0  0  0  0  0  0  0  0  0  0
   18.5332  -11.6848  -16.4394 C   0  0  2  0  0  0  0  0  0  0  0  0
   17.6457  -12.2596  -17.4322 N   0  0  0  0  0  0  0  0  0  0  0  0
   18.6908  -10.2305  -16.6014 C   0  0  0  0  0  0  0  0  0  0  0  0
   18.8748   -9.7839  -17.7599 O   0  0  0  0  0  0  0  0  0  0  0  0
   21.6505  -17.8479  -18.0867 O   0  0  0  0  0  0  0  0  0  0  0  0
   17.5030   -7.6132  -13.7828 C   0  0  0  0  0  0  0  0  0  0  0  0
   17.7065   -7.1960  -15.0711 C   0  0  1  0  0  0  0  0  0  0  0  0
   18.8693   -7.9516  -15.6973 N   0  0  0  0  0  0  0  0  0  0  0  0
   18.6338   -9.3798  -15.4772 C   0  0  0  0  0  0  0  0  0  0  0  0
   20.1364   -7.5341  -15.0506 O   0  0  0  0  0  0  0  0  0  0  0  0
   20.6373   -8.1708  -14.0850 N   0  0  0  0  0  0  0  0  0  0  0  0
   20.8226   -6.3976  -15.5082 C   0  0  2  0  0  0  0  0  0  0  0  0
   22.0324   -5.9666  -14.8242 C   0  0  0  0  0  0  0  0  0  0  0  0
   22.8336   -5.1074  -15.7959 S   0  0  0  0  0  0  0  0  0  0  0  0
   21.9361   -3.6284  -16.2686 C   0  0  0  0  0  0  0  0  0  0  0  0
   21.7049   -5.1713  -13.6175 O   0  0  0  0  0  0  0  0  0  0  0  0
   22.7295   -4.8599  -12.7385 O   0  0  0  0  0  0  0  0  0  0  0  0
  2  3  2  0
  2  1  1  0
  4  2  1  0
  5  4  1  0
  6  5  1  0
  7  6  1  0
  7  8  1  0
  8  9  1  6
  8 10  1  0
 10 15  1  0
 11 10  2  0
 13 12  1  0
 14 16  1  0
 14 13  1  6
 15 14  1  0
 16 17  2  0
 18 16  1  0
 18 19  1  0
 19 20  1  1
 20 21  1  0
 22 23  1  0
 22 19  1  0
 24 22  2  0
M  END
$$$$
