RSC.pdb
     RDKit          3D

 24 23  0  0  1  0  0  0  0  0999 V2000
   27.6908  -20.9005  -19.6643 N   0  0  0  0  0  0  0  0  0  0  0  0
   28.9872  -20.6046  -19.2209 C   0  0  0  0  0  0  0  0  0  0  0  0
   29.8433  -20.1169  -20.0461 N   0  0  0  0  0  0  0  0  0  0  0  0
   29.3503  -20.8420  -17.8698 N   0  0  0  0  0  0  0  0  0  0  0  0
   28.3569  -21.1770  -16.8724 C   0  0  0  0  0  0  0  0  0  0  0  0
   28.2010  -22.6942  -16.7845 C   0  0  0  0  0  0  0  0  0  0  0  0
   27.1502  -23.0013  -15.7270 C   0  0  0  0  0  0  0  0  0  0  0  0
   25.7858  -22.7657  -16.3764 C   0  0  2  0  0  0  0  0  0  0  0  0
   25.7895  -21.4542  -16.9957 N   0  0  0  0  0  0  0  0  0  0  0  0
   24.7874  -22.8764  -15.3006 C   0  0  0  0  0  0  0  0  0  0  0  0
   24.7091  -23.9647  -14.6802 O   0  0  0  0  0  0  0  0  0  0  0  0
   30.7965  -19.8393  -19.7319 O   0  0  0  0  0  0  0  0  0  0  0  0
   22.3549  -19.6735  -13.7751 C   0  0  0  0  0  0  0  0  0  0  0  0
   22.9577  -20.6933  -13.0881 C   0  0  1  0  0  0  0  0  0  0  0  0
   22.9666  -21.9649  -13.9237 N   0  0  0  0  0  0  0  0  0  0  0  0
   23.9527  -21.7821  -14.9902 C   0  0  0  0  0  0  0  0  0  0  0  0
   21.6195  -22.1866  -14.5018 O   0  0  0  0  0  0  0  0  0  0  0  0
   21.2974  -21.7466  -15.6382 N   0  0  0  0  0  0  0  0  0  0  0  0
   20.6517  -22.9071  -13.7833 C   0  0  2  0  0  0  0  0  0  0  0  0
   19.3146  -23.0603  -14.3364 C   0  0  0  0  0  0  0  0  0  0  0  0
   18.7077  -24.3251  -13.7394 S   0  0  0  0  0  0  0  0  0  0  0  0
   18.7572  -24.3021  -11.9468 C   0  0  0  0  0  0  0  0  0  0  0  0
   18.4630  -21.8965  -13.9955 O   0  0  0  0  0  0  0  0  0  0  0  0
   17.2381  -21.7708  -14.6306 O   0  0  0  0  0  0  0  0  0  0  0  0
  2  3  2  0
  2  1  1  0
  4  2  1  0
  5  4  1  0
  6  5  1  0
  7  6  1  0
  7  8  1  0
  8  9  1  1
  8 10  1  0
 10 15  1  0
 11 10  2  0
 13 12  1  0
 14 16  1  0
 14 13  1  1
 15 14  1  0
 16 17  2  0
 18 16  1  0
 18 19  1  0
 19 20  1  1
 20 21  1  0
 22 23  1  0
 22 19  1  0
 24 22  2  0
M  END
$$$$
