RSC.pdb
     RDKit          3D

 24 23  0  0  1  0  0  0  0  0999 V2000
   23.2882  -37.5064  -10.5169 N   0  0  0  0  0  0  0  0  0  0  0  0
   21.9783  -37.0616  -10.7427 C   0  0  0  0  0  0  0  0  0  0  0  0
   21.1385  -37.0439   -9.7699 N   0  0  0  0  0  0  0  0  0  0  0  0
   21.5835  -36.6337  -12.0369 N   0  0  0  0  0  0  0  0  0  0  0  0
   22.5315  -36.5675  -13.1281 C   0  0  0  0  0  0  0  0  0  0  0  0
   23.0723  -35.1449  -13.2601 C   0  0  0  0  0  0  0  0  0  0  0  0
   22.0417  -34.3148  -14.0121 C   0  0  0  0  0  0  0  0  0  0  0  0
   22.6512  -32.9265  -14.2120 C   0  0  2  0  0  0  0  0  0  0  0  0
   23.9753  -33.0815  -14.7834 N   0  0  0  0  0  0  0  0  0  0  0  0
   22.6826  -32.2900  -12.8854 C   0  0  0  0  0  0  0  0  0  0  0  0
   23.7967  -32.1574  -12.3226 O   0  0  0  0  0  0  0  0  0  0  0  0
   20.1757  -36.6678   -9.8964 O   0  0  0  0  0  0  0  0  0  0  0  0
   19.2432  -31.4709  -10.8998 C   0  0  0  0  0  0  0  0  0  0  0  0
   20.2329  -30.5480  -10.6899 C   0  0  1  0  0  0  0  0  0  0  0  0
   21.5957  -31.1504  -10.9980 N   0  0  0  0  0  0  0  0  0  0  0  0
   21.4870  -31.8485  -12.2803 C   0  0  0  0  0  0  0  0  0  0  0  0
   21.9700  -32.1024   -9.9248 O   0  0  0  0  0  0  0  0  0  0  0  0
   21.9681  -33.3499  -10.1051 N   0  0  0  0  0  0  0  0  0  0  0  0
   22.3440  -31.6275   -8.6573 C   0  0  1  0  0  0  0  0  0  0  0  0
   22.5615  -32.5728   -7.5728 C   0  0  0  0  0  0  0  0  0  0  0  0
   23.9643  -32.3355   -7.0248 S   0  0  0  0  0  0  0  0  0  0  0  0
   24.5794  -33.7659   -6.1349 C   0  0  0  0  0  0  0  0  0  0  0  0
   21.5693  -32.3753   -6.4899 O   0  0  0  0  0  0  0  0  0  0  0  0
   21.4690  -33.3458   -5.5063 O   0  0  0  0  0  0  0  0  0  0  0  0
  2  3  2  0
  2  1  1  0
  4  2  1  0
  5  4  1  0
  6  5  1  0
  7  6  1  0
  7  8  1  0
  8  9  1  1
  8 10  1  0
 10 15  1  0
 11 10  2  0
 13 12  1  0
 14 16  1  0
 14 13  1  6
 15 14  1  0
 16 17  2  0
 18 16  1  0
 18 19  1  0
 19 20  1  1
 20 21  1  0
 22 23  1  0
 22 19  1  0
 24 22  2  0
M  END
$$$$
