RSC.pdb
     RDKit          3D

 24 23  0  0  1  0  0  0  0  0999 V2000
   25.3860  -24.4244  -15.7805 N   0  0  0  0  0  0  0  0  0  0  0  0
   26.7164  -24.2981  -16.2037 C   0  0  0  0  0  0  0  0  0  0  0  0
   27.2619  -25.2506  -16.8723 N   0  0  0  0  0  0  0  0  0  0  0  0
   27.4545  -23.1259  -15.8956 N   0  0  0  0  0  0  0  0  0  0  0  0
   26.8295  -21.9928  -15.2482 C   0  0  0  0  0  0  0  0  0  0  0  0
   25.9430  -21.2492  -16.2457 C   0  0  0  0  0  0  0  0  0  0  0  0
   25.3335  -20.0495  -15.5344 C   0  0  0  0  0  0  0  0  0  0  0  0
   26.4776  -19.0764  -15.2467 C   0  0  2  0  0  0  0  0  0  0  0  0
   27.2739  -19.6089  -14.1577 N   0  0  0  0  0  0  0  0  0  0  0  0
   25.8532  -17.7872  -14.9083 C   0  0  0  0  0  0  0  0  0  0  0  0
   25.1317  -17.7342  -13.8826 O   0  0  0  0  0  0  0  0  0  0  0  0
   28.2369  -25.1687  -17.2288 O   0  0  0  0  0  0  0  0  0  0  0  0
   26.7076  -14.4265  -17.0754 C   0  0  0  0  0  0  0  0  0  0  0  0
   26.3449  -14.2655  -15.7648 C   0  0  1  0  0  0  0  0  0  0  0  0
   25.4338  -15.4008  -15.3219 N   0  0  0  0  0  0  0  0  0  0  0  0
   26.0705  -16.6564  -15.7235 C   0  0  0  0  0  0  0  0  0  0  0  0
   24.1128  -15.2609  -15.9805 O   0  0  0  0  0  0  0  0  0  0  0  0
   23.7836  -15.9591  -16.9768 N   0  0  0  0  0  0  0  0  0  0  0  0
   23.1784  -14.3294  -15.4997 C   0  0  1  0  0  0  0  0  0  0  0  0
   21.9192  -14.1472  -16.2057 C   0  0  0  0  0  0  0  0  0  0  0  0
   20.8719  -15.0161  -15.5184 S   0  0  0  0  0  0  0  0  0  0  0  0
   19.2114  -14.6034  -16.0559 C   0  0  0  0  0  0  0  0  0  0  0  0
   21.4882  -12.7299  -16.1644 O   0  0  0  0  0  0  0  0  0  0  0  0
   21.8117  -11.9777  -15.0468 O   0  0  0  0  0  0  0  0  0  0  0  0
  2  3  2  0
  2  1  1  0
  4  2  1  0
  5  4  1  0
  6  5  1  0
  7  6  1  0
  7  8  1  0
  8  9  1  1
  8 10  1  0
 10 15  1  0
 11 10  2  0
 13 12  1  0
 14 16  1  0
 14 13  1  1
 15 14  1  0
 16 17  2  0
 18 16  1  0
 18 19  1  0
 19 20  1  6
 20 21  1  0
 22 23  1  0
 22 19  1  0
 24 22  2  0
M  END
$$$$
