RSC.pdb
     RDKit          3D

 24 23  0  0  1  0  0  0  0  0999 V2000
   20.4923  -25.5527  -16.2728 N   0  0  0  0  0  0  0  0  0  0  0  0
   19.2107  -25.2708  -15.7800 C   0  0  0  0  0  0  0  0  0  0  0  0
   18.3699  -26.2289  -15.6161 N   0  0  0  0  0  0  0  0  0  0  0  0
   18.8456  -23.9363  -15.4643 N   0  0  0  0  0  0  0  0  0  0  0  0
   19.8381  -22.8874  -15.3727 C   0  0  0  0  0  0  0  0  0  0  0  0
   20.7796  -23.1646  -14.2020 C   0  0  0  0  0  0  0  0  0  0  0  0
   21.7460  -21.9946  -14.0847 C   0  0  0  0  0  0  0  0  0  0  0  0
   21.5077  -21.3584  -12.7147 C   0  0  2  0  0  0  0  0  0  0  0  0
   20.2933  -20.5678  -12.7777 N   0  0  0  0  0  0  0  0  0  0  0  0
   22.6960  -20.5407  -12.4223 C   0  0  0  0  0  0  0  0  0  0  0  0
   22.5614  -19.2929  -12.4025 O   0  0  0  0  0  0  0  0  0  0  0  0
   17.4177  -26.0504  -15.2343 O   0  0  0  0  0  0  0  0  0  0  0  0
   26.4026  -22.2684  -11.7769 C   0  0  0  0  0  0  0  0  0  0  0  0
   26.1571  -21.0303  -11.2456 C   0  0  1  0  0  0  0  0  0  0  0  0
   25.1168  -20.2925  -12.0754 N   0  0  0  0  0  0  0  0  0  0  0  0
   23.9402  -21.1580  -12.1744 C   0  0  0  0  0  0  0  0  0  0  0  0
   25.6657  -20.0151  -13.4244 O   0  0  0  0  0  0  0  0  0  0  0  0
   25.5344  -20.8255  -14.3808 N   0  0  0  0  0  0  0  0  0  0  0  0
   26.3578  -18.8189  -13.6738 C   0  0  1  0  0  0  0  0  0  0  0  0
   26.8680  -18.5508  -15.0099 C   0  0  0  0  0  0  0  0  0  0  0  0
   27.5603  -17.1929  -14.9782 S   0  0  0  0  0  0  0  0  0  0  0  0
   28.1609  -16.7167  -16.5997 C   0  0  0  0  0  0  0  0  0  0  0  0
   27.8395  -19.5900  -15.4251 O   0  0  0  0  0  0  0  0  0  0  0  0
   27.8689  -19.9659  -16.7583 O   0  0  0  0  0  0  0  0  0  0  0  0
  2  3  2  0
  2  1  1  0
  4  2  1  0
  5  4  1  0
  6  5  1  0
  7  6  1  0
  7  8  1  0
  8  9  1  6
  8 10  1  0
 10 15  1  0
 11 10  2  0
 13 12  1  0
 14 16  1  0
 14 13  1  1
 15 14  1  0
 16 17  2  0
 18 16  1  0
 18 19  1  0
 19 20  1  1
 20 21  1  0
 22 23  1  0
 22 19  1  0
 24 22  2  0
M  END
$$$$
