RSC.pdb
     RDKit          3D

 24 23  0  0  1  0  0  0  0  0999 V2000
   20.3600  -23.1956   -8.0917 N   0  0  0  0  0  0  0  0  0  0  0  0
   20.0697  -23.0546   -9.4557 C   0  0  0  0  0  0  0  0  0  0  0  0
   19.0091  -23.5977   -9.9374 N   0  0  0  0  0  0  0  0  0  0  0  0
   20.9416  -22.3167  -10.2978 N   0  0  0  0  0  0  0  0  0  0  0  0
   22.0781  -21.6006   -9.7599 C   0  0  0  0  0  0  0  0  0  0  0  0
   22.9009  -21.0019  -10.8994 C   0  0  0  0  0  0  0  0  0  0  0  0
   24.3677  -21.0402  -10.4947 C   0  0  0  0  0  0  0  0  0  0  0  0
   25.1386  -21.6280  -11.6774 C   0  0  2  0  0  0  0  0  0  0  0  0
   25.9860  -22.6993  -11.1895 N   0  0  0  0  0  0  0  0  0  0  0  0
   25.9127  -20.5212  -12.2620 C   0  0  0  0  0  0  0  0  0  0  0  0
   27.0974  -20.3645  -11.8783 O   0  0  0  0  0  0  0  0  0  0  0  0
   18.7459  -23.4716  -10.9370 O   0  0  0  0  0  0  0  0  0  0  0  0
   27.7346  -19.7862  -15.9264 C   0  0  0  0  0  0  0  0  0  0  0  0
   26.8791  -20.2558  -14.9658 C   0  0  2  0  0  0  0  0  0  0  0  0
   26.2010  -19.0992  -14.2463 N   0  0  0  0  0  0  0  0  0  0  0  0
   25.3244  -19.6724  -13.2233 C   0  0  0  0  0  0  0  0  0  0  0  0
   25.4082  -18.3085  -15.2181 O   0  0  0  0  0  0  0  0  0  0  0  0
   24.3872  -18.7777  -15.7891 N   0  0  0  0  0  0  0  0  0  0  0  0
   25.7828  -16.9917  -15.5307 C   0  0  1  0  0  0  0  0  0  0  0  0
   24.9707  -16.2155  -16.4555 C   0  0  0  0  0  0  0  0  0  0  0  0
   25.4145  -14.7605  -16.3539 S   0  0  0  0  0  0  0  0  0  0  0  0
   25.3598  -14.1671  -14.6624 C   0  0  0  0  0  0  0  0  0  0  0  0
   25.1518  -16.6902  -17.8476 O   0  0  0  0  0  0  0  0  0  0  0  0
   24.1844  -16.3628  -18.7839 O   0  0  0  0  0  0  0  0  0  0  0  0
  2  3  2  0
  2  1  1  0
  4  2  1  0
  5  4  1  0
  6  5  1  0
  7  6  1  0
  7  8  1  0
  8  9  1  1
  8 10  1  0
 10 15  1  0
 11 10  2  0
 13 12  1  0
 14 16  1  0
 14 13  1  1
 15 14  1  0
 16 17  2  0
 18 16  1  0
 18 19  1  0
 19 20  1  6
 20 21  1  0
 22 23  1  0
 22 19  1  0
 24 22  2  0
M  END
$$$$
