RSC.pdb
     RDKit          3D

 24 23  0  0  1  0  0  0  0  0999 V2000
   17.3223  -12.9580  -19.2853 N   0  0  0  0  0  0  0  0  0  0  0  0
   17.6726  -13.3124  -17.9751 C   0  0  0  0  0  0  0  0  0  0  0  0
   16.9929  -14.2125  -17.3589 N   0  0  0  0  0  0  0  0  0  0  0  0
   18.7705  -12.6812  -17.3349 N   0  0  0  0  0  0  0  0  0  0  0  0
   19.5061  -11.6158  -17.9812 C   0  0  0  0  0  0  0  0  0  0  0  0
   20.6556  -11.1604  -17.0840 C   0  0  0  0  0  0  0  0  0  0  0  0
   21.2597   -9.9021  -17.6911 C   0  0  0  0  0  0  0  0  0  0  0  0
   22.4426   -9.5069  -16.8061 C   0  0  2  0  0  0  0  0  0  0  0  0
   23.1878  -10.7048  -16.4693 N   0  0  0  0  0  0  0  0  0  0  0  0
   21.8738   -8.8469  -15.6199 C   0  0  0  0  0  0  0  0  0  0  0  0
   21.8071   -9.5069  -14.5545 O   0  0  0  0  0  0  0  0  0  0  0  0
   17.2482  -14.5148  -16.3956 O   0  0  0  0  0  0  0  0  0  0  0  0
   20.6426   -4.8743  -15.6953 C   0  0  0  0  0  0  0  0  0  0  0  0
   21.2900   -5.3753  -14.5975 C   0  0  1  0  0  0  0  0  0  0  0  0
   21.0124   -6.8640  -14.4500 N   0  0  0  0  0  0  0  0  0  0  0  0
   21.4224   -7.5124  -15.6970 C   0  0  0  0  0  0  0  0  0  0  0  0
   19.5645   -7.0763  -14.2123 O   0  0  0  0  0  0  0  0  0  0  0  0
   18.7649   -7.3492  -15.1477 N   0  0  0  0  0  0  0  0  0  0  0  0
   19.0393   -6.9774  -12.9137 C   0  0  1  0  0  0  0  0  0  0  0  0
   17.6005   -7.0617  -12.7137 C   0  0  0  0  0  0  0  0  0  0  0  0
   17.3575   -7.5196  -11.2800 S   0  0  0  0  0  0  0  0  0  0  0  0
   17.9478   -9.1913  -11.0087 C   0  0  0  0  0  0  0  0  0  0  0  0
   16.9573   -5.7436  -12.9260 O   0  0  0  0  0  0  0  0  0  0  0  0
   15.5740   -5.6753  -12.8932 O   0  0  0  0  0  0  0  0  0  0  0  0
  2  3  2  0
  2  1  1  0
  4  2  1  0
  5  4  1  0
  6  5  1  0
  7  6  1  0
  7  8  1  0
  8  9  1  1
  8 10  1  0
 10 15  1  0
 11 10  2  0
 13 12  1  0
 14 16  1  0
 14 13  1  1
 15 14  1  0
 16 17  2  0
 18 16  1  0
 18 19  1  0
 19 20  1  1
 20 21  1  0
 22 23  1  0
 22 19  1  0
 24 22  2  0
M  END
$$$$
