RSC.pdb
     RDKit          3D

 24 23  0  0  1  0  0  0  0  0999 V2000
   28.0900  -32.5259  -16.5212 N   0  0  0  0  0  0  0  0  0  0  0  0
   28.2457  -31.6680  -15.4237 C   0  0  0  0  0  0  0  0  0  0  0  0
   28.4738  -32.1630  -14.2598 N   0  0  0  0  0  0  0  0  0  0  0  0
   28.1522  -30.2628  -15.5980 N   0  0  0  0  0  0  0  0  0  0  0  0
   27.9308  -29.6807  -16.9042 C   0  0  0  0  0  0  0  0  0  0  0  0
   29.2416  -29.1173  -17.4502 C   0  0  0  0  0  0  0  0  0  0  0  0
   29.0028  -27.6690  -17.8527 C   0  0  0  0  0  0  0  0  0  0  0  0
   28.2400  -27.6972  -19.1779 C   0  0  2  0  0  0  0  0  0  0  0  0
   29.1954  -27.8580  -20.2572 N   0  0  0  0  0  0  0  0  0  0  0  0
   27.5050  -26.4249  -19.2630 C   0  0  0  0  0  0  0  0  0  0  0  0
   28.0226  -25.4891  -19.9201 O   0  0  0  0  0  0  0  0  0  0  0  0
   28.5900  -31.5490  -13.4267 O   0  0  0  0  0  0  0  0  0  0  0  0
   23.5952  -25.9356  -17.7946 C   0  0  0  0  0  0  0  0  0  0  0  0
   24.0567  -25.3644  -18.9505 C   0  0  1  0  0  0  0  0  0  0  0  0
   25.5340  -25.0237  -18.8222 N   0  0  0  0  0  0  0  0  0  0  0  0
   26.2579  -26.2800  -18.6192 C   0  0  0  0  0  0  0  0  0  0  0  0
   25.7350  -24.1217  -17.6628 O   0  0  0  0  0  0  0  0  0  0  0  0
   25.8684  -24.5597  -16.4884 N   0  0  0  0  0  0  0  0  0  0  0  0
   25.7834  -22.7308  -17.8494 C   0  0  1  0  0  0  0  0  0  0  0  0
   25.8672  -21.8543  -16.6909 C   0  0  0  0  0  0  0  0  0  0  0  0
   26.2115  -20.4559  -17.1911 S   0  0  0  0  0  0  0  0  0  0  0  0
   27.8138  -20.4153  -17.9958 C   0  0  0  0  0  0  0  0  0  0  0  0
   24.5775  -21.8136  -15.9622 O   0  0  0  0  0  0  0  0  0  0  0  0
   24.4980  -21.0474  -14.8106 O   0  0  0  0  0  0  0  0  0  0  0  0
  2  3  2  0
  2  1  1  0
  4  2  1  0
  5  4  1  0
  6  5  1  0
  7  6  1  0
  7  8  1  0
  8  9  1  6
  8 10  1  0
 10 15  1  0
 11 10  2  0
 13 12  1  0
 14 16  1  0
 14 13  1  6
 15 14  1  0
 16 17  2  0
 18 16  1  0
 18 19  1  0
 19 20  1  1
 20 21  1  0
 22 23  1  0
 22 19  1  0
 24 22  2  0
M  END
$$$$
