RSC.pdb
     RDKit          3D

 24 23  0  0  1  0  0  0  0  0999 V2000
   25.3874  -20.9861   -8.5860 N   0  0  0  0  0  0  0  0  0  0  0  0
   24.4383  -20.9776   -9.6174 C   0  0  0  0  0  0  0  0  0  0  0  0
   23.1905  -21.0922   -9.3313 N   0  0  0  0  0  0  0  0  0  0  0  0
   24.8535  -20.8430  -10.9677 N   0  0  0  0  0  0  0  0  0  0  0  0
   26.2333  -20.5677  -11.3056 C   0  0  0  0  0  0  0  0  0  0  0  0
   26.3696  -20.3760  -12.8150 C   0  0  0  0  0  0  0  0  0  0  0  0
   25.8348  -21.6252  -13.5008 C   0  0  0  0  0  0  0  0  0  0  0  0
   26.0908  -21.4525  -14.9986 C   0  0  2  0  0  0  0  0  0  0  0  0
   27.4878  -21.1137  -15.1923 N   0  0  0  0  0  0  0  0  0  0  0  0
   25.1853  -20.3862  -15.4561 C   0  0  0  0  0  0  0  0  0  0  0  0
   25.3070  -19.2489  -14.9393 O   0  0  0  0  0  0  0  0  0  0  0  0
   22.4629  -21.0693  -10.0760 O   0  0  0  0  0  0  0  0  0  0  0  0
   22.4758  -21.0492  -18.4796 C   0  0  0  0  0  0  0  0  0  0  0  0
   22.9664  -19.7821  -18.3100 C   0  0  1  0  0  0  0  0  0  0  0  0
   23.3456  -19.5490  -16.8550 N   0  0  0  0  0  0  0  0  0  0  0  0
   24.2164  -20.6528  -16.4464 C   0  0  0  0  0  0  0  0  0  0  0  0
   22.1196  -19.5261  -16.0216 O   0  0  0  0  0  0  0  0  0  0  0  0
   21.7700  -20.5109  -15.3169 N   0  0  0  0  0  0  0  0  0  0  0  0
   21.3032  -18.3838  -15.9964 C   0  0  1  0  0  0  0  0  0  0  0  0
   20.1000  -18.3801  -15.1782 C   0  0  0  0  0  0  0  0  0  0  0  0
   19.7743  -16.9300  -14.8385 S   0  0  0  0  0  0  0  0  0  0  0  0
   20.7558  -16.3353  -13.4603 C   0  0  0  0  0  0  0  0  0  0  0  0
   18.9603  -18.9835  -15.9082 O   0  0  0  0  0  0  0  0  0  0  0  0
   17.7889  -19.2280  -15.2099 O   0  0  0  0  0  0  0  0  0  0  0  0
  2  3  2  0
  2  1  1  0
  4  2  1  0
  5  4  1  0
  6  5  1  0
  7  6  1  0
  7  8  1  0
  8  9  1  1
  8 10  1  0
 10 15  1  0
 11 10  2  0
 13 12  1  0
 14 16  1  0
 14 13  1  6
 15 14  1  0
 16 17  2  0
 18 16  1  0
 18 19  1  0
 19 20  1  6
 20 21  1  0
 22 23  1  0
 22 19  1  0
 24 22  2  0
M  END
$$$$
