RSC.pdb
     RDKit          3D

 24 23  0  0  1  0  0  0  0  0999 V2000
   18.7945  -25.2025  -11.8815 N   0  0  0  0  0  0  0  0  0  0  0  0
   18.5212  -23.8282  -11.9166 C   0  0  0  0  0  0  0  0  0  0  0  0
   17.6906  -23.3255  -11.0744 N   0  0  0  0  0  0  0  0  0  0  0  0
   19.1582  -22.9986  -12.8757 N   0  0  0  0  0  0  0  0  0  0  0  0
   20.0079  -23.5564  -13.9056 C   0  0  0  0  0  0  0  0  0  0  0  0
   20.6336  -22.4312  -14.7279 C   0  0  0  0  0  0  0  0  0  0  0  0
   22.1196  -22.3778  -14.4032 C   0  0  0  0  0  0  0  0  0  0  0  0
   22.3113  -21.2503  -13.3880 C   0  0  2  0  0  0  0  0  0  0  0  0
   21.0420  -20.5725  -13.2057 N   0  0  0  0  0  0  0  0  0  0  0  0
   23.3476  -20.3633  -13.9408 C   0  0  0  0  0  0  0  0  0  0  0  0
   22.9813  -19.2762  -14.4501 O   0  0  0  0  0  0  0  0  0  0  0  0
   17.4720  -22.3073  -11.0758 O   0  0  0  0  0  0  0  0  0  0  0  0
   27.2320  -21.6382  -14.3845 C   0  0  0  0  0  0  0  0  0  0  0  0
   27.0659  -20.3103  -14.0942 C   0  0  1  0  0  0  0  0  0  0  0  0
   25.6804  -19.8433  -14.5154 N   0  0  0  0  0  0  0  0  0  0  0  0
   24.7063  -20.7402  -13.8907 C   0  0  0  0  0  0  0  0  0  0  0  0
   25.5643  -19.9069  -15.9921 O   0  0  0  0  0  0  0  0  0  0  0  0
   25.0903  -20.9137  -16.5841 N   0  0  0  0  0  0  0  0  0  0  0  0
   25.9872  -18.8255  -16.7817 C   0  0  1  0  0  0  0  0  0  0  0  0
   25.8787  -18.9095  -18.2303 C   0  0  0  0  0  0  0  0  0  0  0  0
   25.2314  -17.6200  -18.7226 S   0  0  0  0  0  0  0  0  0  0  0  0
   24.4398  -17.8418  -20.3166 C   0  0  0  0  0  0  0  0  0  0  0  0
   27.2142  -19.0603  -18.8545 O   0  0  0  0  0  0  0  0  0  0  0  0
   27.2868  -19.6050  -20.1263 O   0  0  0  0  0  0  0  0  0  0  0  0
  2  3  2  0
  2  1  1  0
  4  2  1  0
  5  4  1  0
  6  5  1  0
  7  6  1  0
  7  8  1  0
  8  9  1  6
  8 10  1  0
 10 15  1  0
 11 10  2  0
 13 12  1  0
 14 16  1  0
 14 13  1  1
 15 14  1  0
 16 17  2  0
 18 16  1  0
 18 19  1  0
 19 20  1  6
 20 21  1  0
 22 23  1  0
 22 19  1  0
 24 22  2  0
M  END
$$$$
