RSC.pdb
     RDKit          3D

 24 23  0  0  1  0  0  0  0  0999 V2000
   18.0853  -12.4675  -13.2519 N   0  0  0  0  0  0  0  0  0  0  0  0
   18.3782  -11.1012  -13.1419 C   0  0  0  0  0  0  0  0  0  0  0  0
   19.4424  -10.6349  -13.6913 N   0  0  0  0  0  0  0  0  0  0  0  0
   17.5046  -10.2397  -12.4288 N   0  0  0  0  0  0  0  0  0  0  0  0
   16.2945  -10.7393  -11.8124 C   0  0  0  0  0  0  0  0  0  0  0  0
   15.5264   -9.5867  -11.1679 C   0  0  0  0  0  0  0  0  0  0  0  0
   16.0202   -9.4308   -9.7366 C   0  0  0  0  0  0  0  0  0  0  0  0
   15.1501   -8.3570   -9.0820 C   0  0  2  0  0  0  0  0  0  0  0  0
   13.7568   -8.6906   -9.3081 N   0  0  0  0  0  0  0  0  0  0  0  0
   15.5294   -7.0775   -9.7026 C   0  0  0  0  0  0  0  0  0  0  0  0
   14.8916   -6.7035  -10.7168 O   0  0  0  0  0  0  0  0  0  0  0  0
   19.6600   -9.6169  -13.6657 O   0  0  0  0  0  0  0  0  0  0  0  0
   17.5519   -2.8270   -9.4145 C   0  0  0  0  0  0  0  0  0  0  0  0
   17.1664   -3.9987   -8.8198 C   0  0  1  0  0  0  0  0  0  0  0  0
   16.9559   -5.0824   -9.8669 N   0  0  0  0  0  0  0  0  0  0  0  0
   16.5805   -6.3084   -9.1602 C   0  0  0  0  0  0  0  0  0  0  0  0
   18.2137   -5.2902  -10.6237 O   0  0  0  0  0  0  0  0  0  0  0  0
   19.1975   -5.9059  -10.1321 N   0  0  0  0  0  0  0  0  0  0  0  0
   18.3410   -4.7971  -11.9324 C   0  0  1  0  0  0  0  0  0  0  0  0
   19.6164   -4.9159  -12.6226 C   0  0  0  0  0  0  0  0  0  0  0  0
   19.4182   -5.8578  -13.8049 S   0  0  0  0  0  0  0  0  0  0  0  0
   20.9089   -6.0075  -14.7908 C   0  0  0  0  0  0  0  0  0  0  0  0
   20.0779   -3.5966  -13.1153 O   0  0  0  0  0  0  0  0  0  0  0  0
   21.4394   -3.3942  -13.2727 O   0  0  0  0  0  0  0  0  0  0  0  0
  2  3  2  0
  2  1  1  0
  4  2  1  0
  5  4  1  0
  6  5  1  0
  7  6  1  0
  7  8  1  0
  8  9  1  6
  8 10  1  0
 10 15  1  0
 11 10  2  0
 13 12  1  0
 14 16  1  0
 14 13  1  6
 15 14  1  0
 16 17  2  0
 18 16  1  0
 18 19  1  0
 19 20  1  1
 20 21  1  0
 22 23  1  0
 22 19  1  0
 24 22  2  0
M  END
$$$$
