RSC.pdb
     RDKit          3D

 24 23  0  0  1  0  0  0  0  0999 V2000
   24.9491  -20.2544   -7.0282 N   0  0  0  0  0  0  0  0  0  0  0  0
   24.4761  -21.5082   -7.4395 C   0  0  0  0  0  0  0  0  0  0  0  0
   23.3296  -21.9189   -7.0288 N   0  0  0  0  0  0  0  0  0  0  0  0
   25.2587  -22.3172   -8.3037 N   0  0  0  0  0  0  0  0  0  0  0  0
   26.0971  -21.7311   -9.3270 C   0  0  0  0  0  0  0  0  0  0  0  0
   25.2413  -21.3088  -10.5200 C   0  0  0  0  0  0  0  0  0  0  0  0
   26.1583  -20.6865  -11.5634 C   0  0  0  0  0  0  0  0  0  0  0  0
   25.2636  -20.1877  -12.6989 C   0  0  2  0  0  0  0  0  0  0  0  0
   24.2624  -21.1999  -12.9764 N   0  0  0  0  0  0  0  0  0  0  0  0
   26.1480  -19.9419  -13.8493 C   0  0  0  0  0  0  0  0  0  0  0  0
   27.1703  -19.2373  -13.6656 O   0  0  0  0  0  0  0  0  0  0  0  0
   22.9664  -22.8576   -7.2960 O   0  0  0  0  0  0  0  0  0  0  0  0
   27.2681  -20.9043  -18.4166 C   0  0  0  0  0  0  0  0  0  0  0  0
   26.4603  -21.1574  -17.3403 C   0  0  2  0  0  0  0  0  0  0  0  0
   26.7226  -20.1505  -16.2302 N   0  0  0  0  0  0  0  0  0  0  0  0
   25.8400  -20.4898  -15.1125 C   0  0  0  0  0  0  0  0  0  0  0  0
   26.4268  -18.7835  -16.7219 O   0  0  0  0  0  0  0  0  0  0  0  0
   25.2474  -18.3556  -16.8430 N   0  0  0  0  0  0  0  0  0  0  0  0
   27.4742  -17.9154  -17.0704 C   0  0  1  0  0  0  0  0  0  0  0  0
   27.1660  -16.5838  -17.5694 C   0  0  0  0  0  0  0  0  0  0  0  0
   28.0632  -15.5940  -16.8349 S   0  0  0  0  0  0  0  0  0  0  0  0
   27.1158  -14.2631  -16.0948 C   0  0  0  0  0  0  0  0  0  0  0  0
   27.4195  -16.4916  -19.0266 O   0  0  0  0  0  0  0  0  0  0  0  0
   26.5369  -15.7564  -19.8012 O   0  0  0  0  0  0  0  0  0  0  0  0
  2  3  2  0
  2  1  1  0
  4  2  1  0
  5  4  1  0
  6  5  1  0
  7  6  1  0
  7  8  1  0
  8  9  1  6
  8 10  1  0
 10 15  1  0
 11 10  2  0
 13 12  1  0
 14 16  1  0
 14 13  1  1
 15 14  1  0
 16 17  2  0
 18 16  1  0
 18 19  1  0
 19 20  1  6
 20 21  1  0
 22 23  1  0
 22 19  1  0
 24 22  2  0
M  END
$$$$
