RSC.pdb
     RDKit          3D

 24 23  0  0  1  0  0  0  0  0999 V2000
   17.3825  -23.2488  -12.1569 N   0  0  0  0  0  0  0  0  0  0  0  0
   17.9051  -24.5000  -12.5123 C   0  0  0  0  0  0  0  0  0  0  0  0
   17.1966  -25.5571  -12.3319 N   0  0  0  0  0  0  0  0  0  0  0  0
   19.2073  -24.5974  -13.0677 N   0  0  0  0  0  0  0  0  0  0  0  0
   19.5913  -23.8168  -14.2240 C   0  0  0  0  0  0  0  0  0  0  0  0
   19.2059  -22.3536  -14.0137 C   0  0  0  0  0  0  0  0  0  0  0  0
   20.3218  -21.4848  -14.5766 C   0  0  0  0  0  0  0  0  0  0  0  0
   21.2150  -21.0926  -13.3989 C   0  0  2  0  0  0  0  0  0  0  0  0
   20.4042  -20.4020  -12.4143 N   0  0  0  0  0  0  0  0  0  0  0  0
   22.2794  -20.2381  -13.9494 C   0  0  0  0  0  0  0  0  0  0  0  0
   22.0914  -18.9972  -13.9601 O   0  0  0  0  0  0  0  0  0  0  0  0
   17.5870  -26.5049  -12.5156 O   0  0  0  0  0  0  0  0  0  0  0  0
   25.7588  -21.8627  -15.4367 C   0  0  0  0  0  0  0  0  0  0  0  0
   25.8272  -20.6140  -14.8789 C   0  0  1  0  0  0  0  0  0  0  0  0
   24.4833  -19.9089  -14.9873 N   0  0  0  0  0  0  0  0  0  0  0  0
   23.4680  -20.8141  -14.4455 C   0  0  0  0  0  0  0  0  0  0  0  0
   24.1960  -19.6072  -16.4101 O   0  0  0  0  0  0  0  0  0  0  0  0
   23.5414  -20.3963  -17.1434 N   0  0  0  0  0  0  0  0  0  0  0  0
   24.6545  -18.4113  -16.9857 C   0  0  1  0  0  0  0  0  0  0  0  0
   24.2916  -18.0904  -18.3578 C   0  0  0  0  0  0  0  0  0  0  0  0
   24.0065  -16.5942  -18.4245 S   0  0  0  0  0  0  0  0  0  0  0  0
   22.6298  -16.1338  -17.3713 C   0  0  0  0  0  0  0  0  0  0  0  0
   25.3940  -18.4244  -19.2901 O   0  0  0  0  0  0  0  0  0  0  0  0
   25.1707  -18.2788  -20.6497 O   0  0  0  0  0  0  0  0  0  0  0  0
  2  3  2  0
  2  1  1  0
  4  2  1  0
  5  4  1  0
  6  5  1  0
  7  6  1  0
  7  8  1  0
  8  9  1  1
  8 10  1  0
 10 15  1  0
 11 10  2  0
 13 12  1  0
 14 16  1  0
 14 13  1  1
 15 14  1  0
 16 17  2  0
 18 16  1  0
 18 19  1  0
 19 20  1  6
 20 21  1  0
 22 23  1  0
 22 19  1  0
 24 22  2  0
M  END
$$$$
