RSC.pdb
     RDKit          3D

 24 23  0  0  1  0  0  0  0  0999 V2000
   19.9077  -18.2426  -16.8926 N   0  0  0  0  0  0  0  0  0  0  0  0
   19.4508  -17.0552  -16.3043 C   0  0  0  0  0  0  0  0  0  0  0  0
   18.4991  -16.3964  -16.8631 N   0  0  0  0  0  0  0  0  0  0  0  0
   20.0356  -16.5850  -15.0998 N   0  0  0  0  0  0  0  0  0  0  0  0
   21.1333  -17.2889  -14.4728 C   0  0  0  0  0  0  0  0  0  0  0  0
   20.7991  -18.7751  -14.3584 C   0  0  0  0  0  0  0  0  0  0  0  0
   20.9463  -19.1823  -12.8992 C   0  0  0  0  0  0  0  0  0  0  0  0
   22.3117  -19.8574  -12.7630 C   0  0  2  0  0  0  0  0  0  0  0  0
   22.6541  -20.4672  -14.0337 N   0  0  0  0  0  0  0  0  0  0  0  0
   22.1814  -20.8474  -11.6817 C   0  0  0  0  0  0  0  0  0  0  0  0
   21.4461  -21.8446  -11.8824 O   0  0  0  0  0  0  0  0  0  0  0  0
   18.1399  -15.5118  -16.4472 O   0  0  0  0  0  0  0  0  0  0  0  0
   23.9153  -20.0103   -8.2501 C   0  0  0  0  0  0  0  0  0  0  0  0
   23.6333  -21.3498   -8.2865 C   0  0  1  0  0  0  0  0  0  0  0  0
   22.6531  -21.6566   -9.4091 N   0  0  0  0  0  0  0  0  0  0  0  0
   22.8694  -20.6644  -10.4637 C   0  0  0  0  0  0  0  0  0  0  0  0
   21.2660  -21.5647   -8.8938 O   0  0  0  0  0  0  0  0  0  0  0  0
   20.6923  -20.4580   -8.7078 N   0  0  0  0  0  0  0  0  0  0  0  0
   20.5439  -22.7316   -8.5956 C   0  0  1  0  0  0  0  0  0  0  0  0
   19.2135  -22.6234   -8.0164 C   0  0  0  0  0  0  0  0  0  0  0  0
   18.2154  -23.1379   -9.0475 S   0  0  0  0  0  0  0  0  0  0  0  0
   18.4295  -22.3340  -10.6364 C   0  0  0  0  0  0  0  0  0  0  0  0
   19.1060  -23.4326   -6.7796 O   0  0  0  0  0  0  0  0  0  0  0  0
   17.9468  -23.3314   -6.0276 O   0  0  0  0  0  0  0  0  0  0  0  0
  2  3  2  0
  2  1  1  0
  4  2  1  0
  5  4  1  0
  6  5  1  0
  7  6  1  0
  7  8  1  0
  8  9  1  6
  8 10  1  0
 10 15  1  0
 11 10  2  0
 13 12  1  0
 14 16  1  0
 14 13  1  6
 15 14  1  0
 16 17  2  0
 18 16  1  0
 18 19  1  0
 19 20  1  1
 20 21  1  0
 22 23  1  0
 22 19  1  0
 24 22  2  0
M  END
$$$$
