CND.pdb
     RDKit          3D

 23 22  0  0  1  0  0  0  0  0999 V2000
    6.7143  -15.7291   25.9557 N   0  0  0  0  0  0  0  0  0  0  0  0
    7.3163  -14.6768   25.1596 C   0  0  1  0  0  0  0  0  0  0  0  0
    8.6848  -14.4028   25.7945 C   0  0  0  0  0  0  0  0  0  0  0  0
    8.3988  -13.3025   27.2147 S   0  0  0  0  0  0  0  0  0  0  0  0
    7.5661  -15.1361   23.7684 C   0  0  0  0  0  0  0  0  0  0  0  0
    7.6310  -16.3249   23.4351 O   0  0  0  0  0  0  0  0  0  0  0  0
    8.2382  -12.4440   18.2739 N   0  0  0  0  0  0  0  0  0  0  0  0
    7.6849  -13.4598   19.0982 C   0  0  0  0  0  0  0  0  0  0  0  0
    7.2594  -14.4941   18.5395 O   0  0  0  0  0  0  0  0  0  0  0  0
    7.6507  -13.2246   20.5543 C   0  0  0  0  0  0  0  0  0  0  0  0
    7.9665  -14.4476   21.3790 C   0  0  2  0  0  0  0  0  0  0  0  0
    7.7415  -14.1505   22.7566 N   0  0  0  0  0  0  0  0  0  0  0  0
    9.3144  -14.9613   21.0895 C   0  0  0  0  0  0  0  0  0  0  0  0
    9.5534  -15.3655   19.9222 O   0  0  0  0  0  0  0  0  0  0  0  0
   10.3709  -15.0381   22.0237 N   0  0  0  0  0  0  0  0  0  0  0  0
   11.6626  -15.5832   21.7794 C   0  0  1  0  0  0  0  0  0  0  0  0
   12.7825  -14.5988   21.7856 C   0  0  0  0  0  0  0  0  0  0  0  0
   14.0911  -15.1858   21.4523 C   0  0  0  0  0  0  0  0  0  0  0  0
   14.1919  -15.7880   20.3493 O   0  0  0  0  0  0  0  0  0  0  0  0
   11.9626  -16.6222   22.8091 C   0  0  0  0  0  0  0  0  0  0  0  0
   11.1352  -16.8789   23.8871 O   0  0  0  0  0  0  0  0  0  0  0  0
   15.2124  -15.1298   22.2477 O   0  0  0  0  0  0  0  0  0  0  0  0
   13.0148  -17.3033   22.7024 O   0  0  0  0  0  0  0  0  0  0  0  0
  2  1  1  1
  2  3  1  0
  3  4  1  0
  5 12  1  0
  5  2  1  0
  6  5  2  0
  7  8  1  0
  8  9  2  0
  8 10  1  0
 11 10  1  6
 11 12  1  0
 11 13  1  0
 13 14  2  0
 15 13  1  0
 15 16  1  0
 16 17  1  1
 17 18  1  0
 18 22  1  0
 18 19  2  0
 20 21  1  0
 20 16  1  0
 23 20  2  0
M  END
$$$$
