CND.pdb
     RDKit          3D

 23 22  0  0  1  0  0  0  0  0999 V2000
    8.5635  -13.3938   17.0893 N   0  0  0  0  0  0  0  0  0  0  0  0
    7.5721  -13.7802   18.0750 C   0  0  1  0  0  0  0  0  0  0  0  0
    6.2952  -14.0899   17.2847 C   0  0  0  0  0  0  0  0  0  0  0  0
    5.6506  -12.5013   16.6765 S   0  0  0  0  0  0  0  0  0  0  0  0
    7.9691  -15.0330   18.7691 C   0  0  0  0  0  0  0  0  0  0  0  0
    7.2403  -15.6458   19.5576 O   0  0  0  0  0  0  0  0  0  0  0  0
    9.4865  -19.2353   17.1231 N   0  0  0  0  0  0  0  0  0  0  0  0
   10.1132  -17.9657   17.0106 C   0  0  0  0  0  0  0  0  0  0  0  0
   10.0811  -17.3983   15.8970 O   0  0  0  0  0  0  0  0  0  0  0  0
   10.7578  -17.4052   18.2135 C   0  0  0  0  0  0  0  0  0  0  0  0
    9.8012  -16.7175   19.1556 C   0  0  2  0  0  0  0  0  0  0  0  0
    9.2655  -15.5615   18.5127 N   0  0  0  0  0  0  0  0  0  0  0  0
   10.4291  -16.4419   20.4573 C   0  0  0  0  0  0  0  0  0  0  0  0
    9.7510  -15.8278   21.3211 O   0  0  0  0  0  0  0  0  0  0  0  0
   11.7426  -16.8141   20.8190 N   0  0  0  0  0  0  0  0  0  0  0  0
   12.3110  -16.7102   22.1196 C   0  0  1  0  0  0  0  0  0  0  0  0
   11.5612  -17.4104   23.2016 C   0  0  0  0  0  0  0  0  0  0  0  0
   12.1975  -17.3104   24.5257 C   0  0  0  0  0  0  0  0  0  0  0  0
   12.3466  -16.1565   25.0112 O   0  0  0  0  0  0  0  0  0  0  0  0
   13.6992  -17.2600   22.0969 C   0  0  0  0  0  0  0  0  0  0  0  0
   14.6424  -16.9710   23.0661 O   0  0  0  0  0  0  0  0  0  0  0  0
   12.6423  -18.3749   25.2755 O   0  0  0  0  0  0  0  0  0  0  0  0
   14.0394  -18.0236   21.1570 O   0  0  0  0  0  0  0  0  0  0  0  0
  2  1  1  6
  2  3  1  0
  3  4  1  0
  5 12  1  0
  5  2  1  0
  6  5  2  0
  7  8  1  0
  8  9  2  0
  8 10  1  0
 11 10  1  6
 11 12  1  0
 11 13  1  0
 13 14  2  0
 15 13  1  0
 15 16  1  0
 16 17  1  1
 17 18  1  0
 18 22  1  0
 18 19  2  0
 20 21  1  0
 20 16  1  0
 23 20  2  0
M  END
$$$$
