CND.pdb
     RDKit          3D

 23 22  0  0  1  0  0  0  0  0999 V2000
    7.4035  -13.7351   18.0193 N   0  0  0  0  0  0  0  0  0  0  0  0
    8.3523  -13.9558   19.0939 C   0  0  1  0  0  0  0  0  0  0  0  0
    8.4079  -12.6403   19.8797 C   0  0  0  0  0  0  0  0  0  0  0  0
    9.2948  -11.4396   18.8398 S   0  0  0  0  0  0  0  0  0  0  0  0
    7.8649  -15.0018   20.0303 C   0  0  0  0  0  0  0  0  0  0  0  0
    6.7092  -15.4409   20.0337 O   0  0  0  0  0  0  0  0  0  0  0  0
    6.7758  -18.2842   20.0586 N   0  0  0  0  0  0  0  0  0  0  0  0
    7.9437  -18.0802   19.2763 C   0  0  0  0  0  0  0  0  0  0  0  0
    7.8572  -18.2668   18.0432 O   0  0  0  0  0  0  0  0  0  0  0  0
    9.1760  -17.6628   19.9720 C   0  0  0  0  0  0  0  0  0  0  0  0
    8.9287  -16.9233   21.2633 C   0  0  2  0  0  0  0  0  0  0  0  0
    8.7813  -15.5320   20.9817 N   0  0  0  0  0  0  0  0  0  0  0  0
    9.9627  -17.2252   22.2654 C   0  0  0  0  0  0  0  0  0  0  0  0
   10.1905  -18.4335   22.5323 O   0  0  0  0  0  0  0  0  0  0  0  0
   10.7269  -16.2603   22.9581 N   0  0  0  0  0  0  0  0  0  0  0  0
   11.6153  -16.5190   24.0395 C   0  0  1  0  0  0  0  0  0  0  0  0
   11.1168  -17.4880   25.0573 C   0  0  0  0  0  0  0  0  0  0  0  0
   12.0526  -17.7127   26.1716 C   0  0  0  0  0  0  0  0  0  0  0  0
   13.1976  -17.1929   26.0806 O   0  0  0  0  0  0  0  0  0  0  0  0
   12.9060  -17.0442   23.5030 C   0  0  0  0  0  0  0  0  0  0  0  0
   14.1027  -16.9537   24.1902 O   0  0  0  0  0  0  0  0  0  0  0  0
   11.7780  -18.4444   27.3041 O   0  0  0  0  0  0  0  0  0  0  0  0
   12.9190  -17.5976   22.3734 O   0  0  0  0  0  0  0  0  0  0  0  0
  2  1  1  6
  2  3  1  0
  3  4  1  0
  5 12  1  0
  5  2  1  0
  6  5  2  0
  7  8  1  0
  8  9  2  0
  8 10  1  0
 11 10  1  6
 11 12  1  0
 11 13  1  0
 13 14  2  0
 15 13  1  0
 15 16  1  0
 16 17  1  1
 17 18  1  0
 18 22  1  0
 18 19  2  0
 20 21  1  0
 20 16  1  0
 23 20  2  0
M  END
$$$$
