CND.pdb
     RDKit          3D

 23 22  0  0  1  0  0  0  0  0999 V2000
    9.5262  -17.0213   18.5856 N   0  0  0  0  0  0  0  0  0  0  0  0
   10.2053  -15.9527   19.2931 C   0  0  1  0  0  0  0  0  0  0  0  0
    9.7222  -16.0396   20.7457 C   0  0  0  0  0  0  0  0  0  0  0  0
    7.9677  -15.5591   20.7497 S   0  0  0  0  0  0  0  0  0  0  0  0
   11.6751  -16.1725   19.3093 C   0  0  0  0  0  0  0  0  0  0  0  0
   12.2091  -17.2787   19.1693 O   0  0  0  0  0  0  0  0  0  0  0  0
   16.7293  -12.9470   18.8659 N   0  0  0  0  0  0  0  0  0  0  0  0
   15.9811  -14.0957   18.4942 C   0  0  0  0  0  0  0  0  0  0  0  0
   16.6117  -15.0869   18.0667 O   0  0  0  0  0  0  0  0  0  0  0  0
   14.5138  -14.0397   18.6381 C   0  0  0  0  0  0  0  0  0  0  0  0
   13.9464  -15.1086   19.5387 C   0  0  2  0  0  0  0  0  0  0  0  0
   12.5214  -15.0437   19.4972 N   0  0  0  0  0  0  0  0  0  0  0  0
   14.5104  -15.0276   20.8952 C   0  0  0  0  0  0  0  0  0  0  0  0
   14.3312  -13.9658   21.5460 O   0  0  0  0  0  0  0  0  0  0  0  0
   15.2428  -16.0540   21.5314 N   0  0  0  0  0  0  0  0  0  0  0  0
   15.8438  -15.9749   22.8191 C   0  0  1  0  0  0  0  0  0  0  0  0
   15.7574  -17.2160   23.6410 C   0  0  0  0  0  0  0  0  0  0  0  0
   14.4343  -17.4348   24.2490 C   0  0  0  0  0  0  0  0  0  0  0  0
   13.5976  -16.4951   24.1695 O   0  0  0  0  0  0  0  0  0  0  0  0
   17.2880  -15.6265   22.6692 C   0  0  0  0  0  0  0  0  0  0  0  0
   17.9327  -15.5862   21.4463 O   0  0  0  0  0  0  0  0  0  0  0  0
   14.0379  -18.5821   24.8969 O   0  0  0  0  0  0  0  0  0  0  0  0
   17.9615  -15.3546   23.6962 O   0  0  0  0  0  0  0  0  0  0  0  0
  2  1  1  6
  2  3  1  0
  3  4  1  0
  5 12  1  0
  5  2  1  0
  6  5  2  0
  7  8  1  0
  8  9  2  0
  8 10  1  0
 11 10  1  6
 11 12  1  0
 11 13  1  0
 13 14  2  0
 15 13  1  0
 15 16  1  0
 16 17  1  6
 17 18  1  0
 18 22  1  0
 18 19  2  0
 20 21  1  0
 20 16  1  0
 23 20  2  0
M  END
$$$$
