CND.pdb
     RDKit          3D

 23 22  0  0  1  0  0  0  0  0999 V2000
   -2.7727  -25.7858   25.5880 N   0  0  0  0  0  0  0  0  0  0  0  0
   -2.6096  -26.0100   27.0117 C   0  0  1  0  0  0  0  0  0  0  0  0
   -1.1129  -25.8335   27.2941 C   0  0  0  0  0  0  0  0  0  0  0  0
   -0.2374  -27.0921   26.3149 S   0  0  0  0  0  0  0  0  0  0  0  0
   -3.3265  -24.9747   27.8010 C   0  0  0  0  0  0  0  0  0  0  0  0
   -3.2920  -24.9006   29.0346 O   0  0  0  0  0  0  0  0  0  0  0  0
   -2.7580  -20.4061   27.9129 N   0  0  0  0  0  0  0  0  0  0  0  0
   -3.2359  -21.2112   26.8448 C   0  0  0  0  0  0  0  0  0  0  0  0
   -2.4441  -21.4698   25.9125 O   0  0  0  0  0  0  0  0  0  0  0  0
   -4.6313  -21.6859   26.9092 C   0  0  0  0  0  0  0  0  0  0  0  0
   -4.8128  -22.9428   27.7232 C   0  0  2  0  0  0  0  0  0  0  0  0
   -4.1001  -24.0092   27.0974 N   0  0  0  0  0  0  0  0  0  0  0  0
   -6.2356  -23.2318   27.9613 C   0  0  0  0  0  0  0  0  0  0  0  0
   -6.7660  -24.1645   27.3041 O   0  0  0  0  0  0  0  0  0  0  0  0
   -7.0613  -22.5413   28.8756 N   0  0  0  0  0  0  0  0  0  0  0  0
   -8.2633  -23.0377   29.4538 C   0  0  1  0  0  0  0  0  0  0  0  0
   -8.1435  -24.3542   30.1436 C   0  0  0  0  0  0  0  0  0  0  0  0
   -9.4265  -24.8893   30.6291 C   0  0  0  0  0  0  0  0  0  0  0  0
  -10.4795  -24.4284   30.1113 O   0  0  0  0  0  0  0  0  0  0  0  0
   -8.7792  -22.0481   30.4459 C   0  0  0  0  0  0  0  0  0  0  0  0
   -8.0444  -20.9598   30.8799 O   0  0  0  0  0  0  0  0  0  0  0  0
   -9.5684  -25.8516   31.6022 O   0  0  0  0  0  0  0  0  0  0  0  0
   -9.9357  -22.2000   30.9168 O   0  0  0  0  0  0  0  0  0  0  0  0
  2  1  1  6
  2  3  1  0
  3  4  1  0
  5 12  1  0
  5  2  1  0
  6  5  2  0
  7  8  1  0
  8  9  2  0
  8 10  1  0
 11 10  1  6
 11 12  1  0
 11 13  1  0
 13 14  2  0
 15 13  1  0
 15 16  1  0
 16 17  1  1
 17 18  1  0
 18 22  1  0
 18 19  2  0
 20 21  1  0
 20 16  1  0
 23 20  2  0
M  END
$$$$
