CND.pdb
     RDKit          3D

 23 22  0  0  1  0  0  0  0  0999 V2000
    7.0936  -14.0701   18.7275 N   0  0  0  0  0  0  0  0  0  0  0  0
    8.2775  -14.1716   19.5592 C   0  0  1  0  0  0  0  0  0  0  0  0
    8.3247  -12.8772   20.3797 C   0  0  0  0  0  0  0  0  0  0  0  0
    8.9749  -11.5791   19.2836 S   0  0  0  0  0  0  0  0  0  0  0  0
    8.1571  -15.2949   20.5249 C   0  0  0  0  0  0  0  0  0  0  0  0
    7.2065  -15.4379   21.3023 O   0  0  0  0  0  0  0  0  0  0  0  0
    7.2106  -17.7948   19.6038 N   0  0  0  0  0  0  0  0  0  0  0  0
    8.1790  -18.8305   19.6872 C   0  0  0  0  0  0  0  0  0  0  0  0
    8.0238  -19.8317   18.9547 O   0  0  0  0  0  0  0  0  0  0  0  0
    9.2992  -18.6535   20.6308 C   0  0  0  0  0  0  0  0  0  0  0  0
    9.2193  -17.3855   21.4440 C   0  0  2  0  0  0  0  0  0  0  0  0
    9.1971  -16.2661   20.5592 N   0  0  0  0  0  0  0  0  0  0  0  0
   10.2832  -17.3261   22.4585 C   0  0  0  0  0  0  0  0  0  0  0  0
   11.4212  -16.9293   22.0971 O   0  0  0  0  0  0  0  0  0  0  0  0
   10.1293  -17.6813   23.8167 N   0  0  0  0  0  0  0  0  0  0  0  0
   11.1660  -17.7228   24.7909 C   0  0  1  0  0  0  0  0  0  0  0  0
   10.7169  -17.9715   26.1908 C   0  0  0  0  0  0  0  0  0  0  0  0
   11.8227  -18.1233   27.1511 C   0  0  0  0  0  0  0  0  0  0  0  0
   12.1949  -17.0922   27.7738 O   0  0  0  0  0  0  0  0  0  0  0  0
   12.1420  -18.7930   24.4277 C   0  0  0  0  0  0  0  0  0  0  0  0
   11.8282  -19.8505   23.5936 O   0  0  0  0  0  0  0  0  0  0  0  0
   12.4822  -19.2997   27.4235 O   0  0  0  0  0  0  0  0  0  0  0  0
   13.3083  -18.7418   24.8961 O   0  0  0  0  0  0  0  0  0  0  0  0
  2  1  1  6
  2  3  1  0
  3  4  1  0
  5 12  1  0
  5  2  1  0
  6  5  2  0
  7  8  1  0
  8  9  2  0
  8 10  1  0
 11 10  1  6
 11 12  1  0
 11 13  1  0
 13 14  2  0
 15 13  1  0
 15 16  1  0
 16 17  1  1
 17 18  1  0
 18 22  1  0
 18 19  2  0
 20 21  1  0
 20 16  1  0
 23 20  2  0
M  END
$$$$
