CND.pdb
     RDKit          3D

 23 22  0  0  1  0  0  0  0  0999 V2000
   11.3222  -21.5624   19.1810 N   0  0  0  0  0  0  0  0  0  0  0  0
   12.0829  -20.3427   19.3743 C   0  0  1  0  0  0  0  0  0  0  0  0
   11.9595  -20.0045   20.8647 C   0  0  0  0  0  0  0  0  0  0  0  0
   10.2480  -19.4544   21.1428 S   0  0  0  0  0  0  0  0  0  0  0  0
   13.5260  -20.5635   19.0961 C   0  0  0  0  0  0  0  0  0  0  0  0
   14.0674  -21.6750   19.0992 O   0  0  0  0  0  0  0  0  0  0  0  0
   15.0555  -19.9180   15.8357 N   0  0  0  0  0  0  0  0  0  0  0  0
   15.6217  -18.6482   16.1263 C   0  0  0  0  0  0  0  0  0  0  0  0
   15.7206  -17.8275   15.1884 O   0  0  0  0  0  0  0  0  0  0  0  0
   16.0532  -18.3859   17.5126 C   0  0  0  0  0  0  0  0  0  0  0  0
   15.7225  -19.4980   18.4767 C   0  0  2  0  0  0  0  0  0  0  0  0
   14.3362  -19.4292   18.8084 N   0  0  0  0  0  0  0  0  0  0  0  0
   16.6188  -19.4860   19.6434 C   0  0  0  0  0  0  0  0  0  0  0  0
   17.8508  -19.6434   19.4423 O   0  0  0  0  0  0  0  0  0  0  0  0
   16.2048  -19.3108   20.9822 N   0  0  0  0  0  0  0  0  0  0  0  0
   17.0533  -19.3106   22.1248 C   0  0  1  0  0  0  0  0  0  0  0  0
   16.7164  -18.3020   23.1700 C   0  0  0  0  0  0  0  0  0  0  0  0
   17.1624  -16.9371   22.8439 C   0  0  0  0  0  0  0  0  0  0  0  0
   17.8622  -16.7887   21.8057 O   0  0  0  0  0  0  0  0  0  0  0  0
   17.0199  -20.6594   22.7646 C   0  0  0  0  0  0  0  0  0  0  0  0
   17.9474  -21.0740   23.7029 O   0  0  0  0  0  0  0  0  0  0  0  0
   16.8770  -15.8109   23.5811 O   0  0  0  0  0  0  0  0  0  0  0  0
   16.1098  -21.4664   22.4436 O   0  0  0  0  0  0  0  0  0  0  0  0
  2  1  1  1
  2  3  1  0
  3  4  1  0
  5 12  1  0
  5  2  1  0
  6  5  2  0
  7  8  1  0
  8  9  2  0
  8 10  1  0
 11 10  1  6
 11 12  1  0
 11 13  1  0
 13 14  2  0
 15 13  1  0
 15 16  1  0
 16 17  1  1
 17 18  1  0
 18 22  1  0
 18 19  2  0
 20 21  1  0
 20 16  1  0
 23 20  2  0
M  END
$$$$
