CND.pdb
     RDKit          3D

 23 22  0  0  1  0  0  0  0  0999 V2000
    8.6971  -14.6494   16.6433 N   0  0  0  0  0  0  0  0  0  0  0  0
    9.4303  -14.0509   17.7423 C   0  0  1  0  0  0  0  0  0  0  0  0
    8.4609  -14.0307   18.9301 C   0  0  0  0  0  0  0  0  0  0  0  0
    9.2701  -13.0865   20.2579 S   0  0  0  0  0  0  0  0  0  0  0  0
   10.5856  -14.8981   18.1378 C   0  0  0  0  0  0  0  0  0  0  0  0
   10.6026  -16.1306   18.0418 O   0  0  0  0  0  0  0  0  0  0  0  0
   15.1510  -15.4280   17.0521 N   0  0  0  0  0  0  0  0  0  0  0  0
   14.6588  -14.1680   17.4853 C   0  0  0  0  0  0  0  0  0  0  0  0
   14.7125  -13.2145   16.6786 O   0  0  0  0  0  0  0  0  0  0  0  0
   14.1191  -14.0718   18.8550 C   0  0  0  0  0  0  0  0  0  0  0  0
   12.9129  -14.9439   19.0997 C   0  0  2  0  0  0  0  0  0  0  0  0
   11.7435  -14.2549   18.6587 N   0  0  0  0  0  0  0  0  0  0  0  0
   12.8490  -15.3980   20.4977 C   0  0  0  0  0  0  0  0  0  0  0  0
   13.8172  -16.0648   20.9461 O   0  0  0  0  0  0  0  0  0  0  0  0
   11.7797  -15.1440   21.3847 N   0  0  0  0  0  0  0  0  0  0  0  0
   11.6530  -15.6552   22.7068 C   0  0  1  0  0  0  0  0  0  0  0  0
   10.3490  -15.3799   23.3754 C   0  0  0  0  0  0  0  0  0  0  0  0
   10.3299  -15.7280   24.8060 C   0  0  0  0  0  0  0  0  0  0  0  0
   11.3887  -16.1998   25.3017 O   0  0  0  0  0  0  0  0  0  0  0  0
   11.8511  -17.1351   22.6849 C   0  0  0  0  0  0  0  0  0  0  0  0
   12.8166  -17.7796   23.4365 O   0  0  0  0  0  0  0  0  0  0  0  0
    9.2496  -15.5797   25.6451 O   0  0  0  0  0  0  0  0  0  0  0  0
   11.1110  -17.8405   21.9520 O   0  0  0  0  0  0  0  0  0  0  0  0
  2  1  1  6
  2  3  1  0
  3  4  1  0
  5 12  1  0
  5  2  1  0
  6  5  2  0
  7  8  1  0
  8  9  2  0
  8 10  1  0
 11 10  1  1
 11 12  1  0
 11 13  1  0
 13 14  2  0
 15 13  1  0
 15 16  1  0
 16 17  1  6
 17 18  1  0
 18 22  1  0
 18 19  2  0
 20 21  1  0
 20 16  1  0
 23 20  2  0
M  END
$$$$
