CND.pdb
     RDKit          3D

 23 22  0  0  1  0  0  0  0  0999 V2000
    5.8376  -13.0902   26.5407 N   0  0  0  0  0  0  0  0  0  0  0  0
    7.0444  -13.3653   25.7846 C   0  0  1  0  0  0  0  0  0  0  0  0
    8.1977  -13.2783   26.7914 C   0  0  0  0  0  0  0  0  0  0  0  0
    8.5705  -11.5122   27.0177 S   0  0  0  0  0  0  0  0  0  0  0  0
    7.0360  -14.7525   25.2514 C   0  0  0  0  0  0  0  0  0  0  0  0
    6.3304  -15.6615   25.7034 O   0  0  0  0  0  0  0  0  0  0  0  0
    5.9593  -14.5665   21.9881 N   0  0  0  0  0  0  0  0  0  0  0  0
    6.5897  -15.7264   21.4639 C   0  0  0  0  0  0  0  0  0  0  0  0
    5.9841  -16.3666   20.5772 O   0  0  0  0  0  0  0  0  0  0  0  0
    7.9135  -16.0948   22.0012 C   0  0  0  0  0  0  0  0  0  0  0  0
    7.9270  -16.3199   23.4927 C   0  0  2  0  0  0  0  0  0  0  0  0
    7.8905  -15.0560   24.1543 N   0  0  0  0  0  0  0  0  0  0  0  0
    9.0517  -17.1767   23.8997 C   0  0  0  0  0  0  0  0  0  0  0  0
    9.0900  -18.3519   23.4521 O   0  0  0  0  0  0  0  0  0  0  0  0
   10.1008  -16.7834   24.7596 N   0  0  0  0  0  0  0  0  0  0  0  0
   11.1113  -17.6356   25.2869 C   0  0  1  0  0  0  0  0  0  0  0  0
   12.5122  -17.1686   25.0798 C   0  0  0  0  0  0  0  0  0  0  0  0
   12.8293  -16.8448   23.6789 C   0  0  0  0  0  0  0  0  0  0  0  0
   12.6549  -17.7518   22.8208 O   0  0  0  0  0  0  0  0  0  0  0  0
   10.8986  -17.8035   26.7553 C   0  0  0  0  0  0  0  0  0  0  0  0
   11.6495  -18.6650   27.5341 O   0  0  0  0  0  0  0  0  0  0  0  0
   13.3006  -15.6321   23.2312 O   0  0  0  0  0  0  0  0  0  0  0  0
    9.9966  -17.1354   27.3231 O   0  0  0  0  0  0  0  0  0  0  0  0
  2  1  1  1
  2  3  1  0
  3  4  1  0
  5 12  1  0
  5  2  1  0
  6  5  2  0
  7  8  1  0
  8  9  2  0
  8 10  1  0
 11 10  1  6
 11 12  1  0
 11 13  1  0
 13 14  2  0
 15 13  1  0
 15 16  1  0
 16 17  1  1
 17 18  1  0
 18 22  1  0
 18 19  2  0
 20 21  1  0
 20 16  1  0
 23 20  2  0
M  END
$$$$
