CND.pdb
     RDKit          3D

 23 22  0  0  1  0  0  0  0  0999 V2000
    6.4972  -16.6532   25.7340 N   0  0  0  0  0  0  0  0  0  0  0  0
    6.7325  -15.4341   24.9842 C   0  0  1  0  0  0  0  0  0  0  0  0
    7.8574  -14.6993   25.7229 C   0  0  0  0  0  0  0  0  0  0  0  0
    9.1407  -15.9336   26.0954 S   0  0  0  0  0  0  0  0  0  0  0  0
    7.2334  -15.7356   23.6179 C   0  0  0  0  0  0  0  0  0  0  0  0
    7.4053  -16.8799   23.1826 O   0  0  0  0  0  0  0  0  0  0  0  0
    7.0408  -13.2026   18.3810 N   0  0  0  0  0  0  0  0  0  0  0  0
    8.1158  -13.5020   19.2598 C   0  0  0  0  0  0  0  0  0  0  0  0
    9.2193  -13.7940   18.7499 O   0  0  0  0  0  0  0  0  0  0  0  0
    7.8563  -13.4478   20.7112 C   0  0  0  0  0  0  0  0  0  0  0  0
    7.9592  -14.7852   21.4012 C   0  0  2  0  0  0  0  0  0  0  0  0
    7.5342  -14.6435   22.7562 N   0  0  0  0  0  0  0  0  0  0  0  0
    9.3018  -15.3682   21.2524 C   0  0  0  0  0  0  0  0  0  0  0  0
    9.6481  -15.7679   20.1108 O   0  0  0  0  0  0  0  0  0  0  0  0
   10.2415  -15.5168   22.2963 N   0  0  0  0  0  0  0  0  0  0  0  0
   11.5133  -16.1467   22.1906 C   0  0  1  0  0  0  0  0  0  0  0  0
   12.6808  -15.2922   22.5514 C   0  0  0  0  0  0  0  0  0  0  0  0
   13.9465  -15.7256   21.9366 C   0  0  0  0  0  0  0  0  0  0  0  0
   13.8726  -16.4444   20.9035 O   0  0  0  0  0  0  0  0  0  0  0  0
   11.5413  -17.3528   23.0704 C   0  0  0  0  0  0  0  0  0  0  0  0
   10.5984  -17.5936   24.0529 O   0  0  0  0  0  0  0  0  0  0  0  0
   15.2033  -15.4094   22.3990 O   0  0  0  0  0  0  0  0  0  0  0  0
   12.4612  -18.1978   22.9209 O   0  0  0  0  0  0  0  0  0  0  0  0
  2  1  1  1
  2  3  1  0
  3  4  1  0
  5 12  1  0
  5  2  1  0
  6  5  2  0
  7  8  1  0
  8  9  2  0
  8 10  1  0
 11 10  1  1
 11 12  1  0
 11 13  1  0
 13 14  2  0
 15 13  1  0
 15 16  1  0
 16 17  1  1
 17 18  1  0
 18 22  1  0
 18 19  2  0
 20 21  1  0
 20 16  1  0
 23 20  2  0
M  END
$$$$
