CND.pdb
     RDKit          3D

 23 22  0  0  1  0  0  0  0  0999 V2000
    6.7461  -15.2113   18.3899 N   0  0  0  0  0  0  0  0  0  0  0  0
    8.0532  -14.8346   18.8932 C   0  0  1  0  0  0  0  0  0  0  0  0
    7.8198  -13.6134   19.7906 C   0  0  0  0  0  0  0  0  0  0  0  0
    7.2446  -12.2662   18.7120 S   0  0  0  0  0  0  0  0  0  0  0  0
    8.6228  -15.9043   19.7535 C   0  0  0  0  0  0  0  0  0  0  0  0
    8.0648  -16.9860   19.9705 O   0  0  0  0  0  0  0  0  0  0  0  0
   11.4732  -19.8981   20.0877 N   0  0  0  0  0  0  0  0  0  0  0  0
   12.0457  -18.6454   19.7405 C   0  0  0  0  0  0  0  0  0  0  0  0
   13.2919  -18.5757   19.6695 O   0  0  0  0  0  0  0  0  0  0  0  0
   11.1317  -17.5152   19.4881 C   0  0  0  0  0  0  0  0  0  0  0  0
   10.8077  -16.7042   20.7180 C   0  0  2  0  0  0  0  0  0  0  0  0
    9.8866  -15.6726   20.3658 N   0  0  0  0  0  0  0  0  0  0  0  0
   12.0274  -16.2174   21.3811 C   0  0  0  0  0  0  0  0  0  0  0  0
   13.1148  -16.3052   20.7542 O   0  0  0  0  0  0  0  0  0  0  0  0
   12.0771  -15.6545   22.6755 N   0  0  0  0  0  0  0  0  0  0  0  0
   12.7897  -16.1831   23.7884 C   0  0  1  0  0  0  0  0  0  0  0  0
   12.1319  -17.3272   24.4823 C   0  0  0  0  0  0  0  0  0  0  0  0
   12.8803  -17.8237   25.6492 C   0  0  0  0  0  0  0  0  0  0  0  0
   13.9494  -17.2264   25.9488 O   0  0  0  0  0  0  0  0  0  0  0  0
   14.1397  -16.6366   23.3397 C   0  0  0  0  0  0  0  0  0  0  0  0
   14.3689  -17.8730   22.7639 O   0  0  0  0  0  0  0  0  0  0  0  0
   12.5067  -18.8869   26.4386 O   0  0  0  0  0  0  0  0  0  0  0  0
   15.1238  -15.8669   23.4867 O   0  0  0  0  0  0  0  0  0  0  0  0
  2  1  1  1
  2  3  1  0
  3  4  1  0
  5 12  1  0
  5  2  1  0
  6  5  2  0
  7  8  1  0
  8  9  2  0
  8 10  1  0
 11 10  1  6
 11 12  1  0
 11 13  1  0
 13 14  2  0
 15 13  1  0
 15 16  1  0
 16 17  1  6
 17 18  1  0
 18 22  1  0
 18 19  2  0
 20 21  1  0
 20 16  1  0
 23 20  2  0
M  END
$$$$
