NAE.pdb
     RDKit          3D

 23 22  0  0  1  0  0  0  0  0999 V2000
   15.9702  -14.0859  -15.7844 N   0  0  0  0  0  0  0  0  0  0  0  0
   16.1062  -13.1387  -14.7534 C   0  0  0  0  0  0  0  0  0  0  0  0
   15.5057  -13.3531  -13.6627 O   0  0  0  0  0  0  0  0  0  0  0  0
   16.9250  -11.9066  -14.9050 C   0  0  0  0  0  0  0  0  0  0  0  0
   17.4447  -11.7938  -16.3298 C   0  0  2  0  0  0  0  0  0  0  0  0
   18.5219  -12.7549  -16.4488 N   0  0  0  0  0  0  0  0  0  0  0  0
   17.9246  -10.4072  -16.5556 C   0  0  0  0  0  0  0  0  0  0  0  0
   19.1045  -10.1525  -16.1654 O   0  0  0  0  0  0  0  0  0  0  0  0
   16.6891   -7.3266  -18.3438 C   0  0  0  0  0  0  0  0  0  0  0  0
   17.6307   -8.1518  -17.4657 C   0  0  2  0  0  0  0  0  0  0  0  0
   17.0953   -9.4399  -17.1733 N   0  0  0  0  0  0  0  0  0  0  0  0
   17.8149   -7.3264  -16.2224 C   0  0  0  0  0  0  0  0  0  0  0  0
   17.0429   -7.4999  -15.2469 O   0  0  0  0  0  0  0  0  0  0  0  0
   18.8230   -6.3584  -16.0999 N   0  0  0  0  0  0  0  0  0  0  0  0
   19.0663   -5.5865  -14.8734 C   0  0  1  0  0  0  0  0  0  0  0  0
   20.5109   -5.2054  -14.9115 C   0  0  0  0  0  0  0  0  0  0  0  0
   21.0041   -4.4010  -13.7636 C   0  0  0  0  0  0  0  0  0  0  0  0
   22.4137   -4.0199  -13.8001 C   0  0  0  0  0  0  0  0  0  0  0  0
   23.2688   -4.7420  -13.2443 O   0  0  0  0  0  0  0  0  0  0  0  0
   18.1619   -4.4224  -14.7930 C   0  0  0  0  0  0  0  0  0  0  0  0
   17.7438   -3.8672  -15.8377 O   0  0  0  0  0  0  0  0  0  0  0  0
   22.8165   -2.8693  -14.4419 O   0  0  0  0  0  0  0  0  0  0  0  0
   17.7556   -3.9182  -13.5698 O   0  0  0  0  0  0  0  0  0  0  0  0
  1  2  1  0
  2  4  1  0
  2  3  2  0
  4  5  1  0
  5  7  1  0
  5  6  1  1
  7  8  2  0
 10  9  1  6
 11 10  1  0
 11  7  1  0
 12 13  2  0
 12 10  1  0
 14 12  1  0
 15 20  1  0
 15 14  1  0
 15 16  1  6
 17 18  1  0
 17 16  1  0
 18 19  2  0
 20 23  1  0
 21 20  2  0
 22 18  1  0
M  END
$$$$
