NAE.pdb
     RDKit          3D

 23 22  0  0  1  0  0  0  0  0999 V2000
   29.0063  -22.4941  -17.3360 N   0  0  0  0  0  0  0  0  0  0  0  0
   28.2350  -21.4282  -16.8385 C   0  0  0  0  0  0  0  0  0  0  0  0
   28.6065  -20.2494  -17.1004 O   0  0  0  0  0  0  0  0  0  0  0  0
   27.0100  -21.6426  -16.0231 C   0  0  0  0  0  0  0  0  0  0  0  0
   26.9963  -20.6918  -14.8363 C   0  0  2  0  0  0  0  0  0  0  0  0
   28.2568  -20.8803  -14.1476 N   0  0  0  0  0  0  0  0  0  0  0  0
   25.8434  -21.0311  -13.9647 C   0  0  0  0  0  0  0  0  0  0  0  0
   24.9072  -21.6932  -14.5072 O   0  0  0  0  0  0  0  0  0  0  0  0
   24.8613  -20.5363  -10.3518 C   0  0  0  0  0  0  0  0  0  0  0  0
   24.6928  -20.9902  -11.8023 C   0  0  2  0  0  0  0  0  0  0  0  0
   25.8116  -20.6281  -12.6077 N   0  0  0  0  0  0  0  0  0  0  0  0
   23.4284  -20.3221  -12.2672 C   0  0  0  0  0  0  0  0  0  0  0  0
   23.4080  -19.0749  -12.4142 O   0  0  0  0  0  0  0  0  0  0  0  0
   22.2547  -21.0374  -12.5483 N   0  0  0  0  0  0  0  0  0  0  0  0
   20.9886  -20.4030  -12.9408 C   0  0  1  0  0  0  0  0  0  0  0  0
   20.4050  -21.2799  -14.0010 C   0  0  0  0  0  0  0  0  0  0  0  0
   19.0487  -20.9087  -14.4811 C   0  0  0  0  0  0  0  0  0  0  0  0
   18.4757  -21.7606  -15.5202 C   0  0  0  0  0  0  0  0  0  0  0  0
   19.1500  -22.6969  -16.0000 O   0  0  0  0  0  0  0  0  0  0  0  0
   20.0989  -20.2326  -11.7752 C   0  0  0  0  0  0  0  0  0  0  0  0
   19.3323  -19.2422  -11.6982 O   0  0  0  0  0  0  0  0  0  0  0  0
   17.1955  -21.5455  -15.9817 O   0  0  0  0  0  0  0  0  0  0  0  0
   20.0888  -21.1564  -10.7447 O   0  0  0  0  0  0  0  0  0  0  0  0
  1  2  1  0
  2  4  1  0
  2  3  2  0
  4  5  1  0
  5  7  1  0
  5  6  1  1
  7  8  2  0
 10  9  1  1
 11 10  1  0
 11  7  1  0
 12 13  2  0
 12 10  1  0
 14 12  1  0
 15 20  1  0
 15 14  1  0
 15 16  1  6
 17 18  1  0
 17 16  1  0
 18 19  2  0
 20 23  1  0
 21 20  2  0
 22 18  1  0
M  END
$$$$
