NAE.pdb
     RDKit          3D

 23 22  0  0  1  0  0  0  0  0999 V2000
   16.6874  -10.8622  -19.4940 N   0  0  0  0  0  0  0  0  0  0  0  0
   17.9386  -10.8768  -18.8514 C   0  0  0  0  0  0  0  0  0  0  0  0
   18.9376  -11.2992  -19.4994 O   0  0  0  0  0  0  0  0  0  0  0  0
   18.1206  -10.4160  -17.4493 C   0  0  0  0  0  0  0  0  0  0  0  0
   19.1170  -11.3102  -16.7280 C   0  0  2  0  0  0  0  0  0  0  0  0
   18.3430  -12.3638  -16.1041 N   0  0  0  0  0  0  0  0  0  0  0  0
   19.8452  -10.4994  -15.7199 C   0  0  0  0  0  0  0  0  0  0  0  0
   19.1280   -9.8549  -14.8957 O   0  0  0  0  0  0  0  0  0  0  0  0
   23.4309   -9.7930  -14.7802 C   0  0  0  0  0  0  0  0  0  0  0  0
   21.9176   -9.5736  -14.7980 C   0  0  2  0  0  0  0  0  0  0  0  0
   21.2605  -10.4621  -15.6982 N   0  0  0  0  0  0  0  0  0  0  0  0
   21.7447   -8.1361  -15.2040 C   0  0  0  0  0  0  0  0  0  0  0  0
   21.7249   -7.8378  -16.4239 O   0  0  0  0  0  0  0  0  0  0  0  0
   21.6026   -7.0986  -14.2703 N   0  0  0  0  0  0  0  0  0  0  0  0
   21.5120   -5.6788  -14.6380 C   0  0  1  0  0  0  0  0  0  0  0  0
   20.0522   -5.3803  -14.7541 C   0  0  0  0  0  0  0  0  0  0  0  0
   19.6957   -3.9649  -15.0323 C   0  0  0  0  0  0  0  0  0  0  0  0
   18.2692   -3.6635  -15.1210 C   0  0  0  0  0  0  0  0  0  0  0  0
   17.7790   -2.7568  -14.4144 O   0  0  0  0  0  0  0  0  0  0  0  0
   22.1996   -4.8304  -13.6447 C   0  0  0  0  0  0  0  0  0  0  0  0
   22.4088   -5.2528  -12.4818 O   0  0  0  0  0  0  0  0  0  0  0  0
   17.4516   -4.3682  -15.9771 O   0  0  0  0  0  0  0  0  0  0  0  0
   22.6279   -3.5553  -13.9704 O   0  0  0  0  0  0  0  0  0  0  0  0
  1  2  1  0
  2  4  1  0
  2  3  2  0
  4  5  1  0
  5  7  1  0
  5  6  1  1
  7  8  2  0
 10  9  1  6
 11 10  1  0
 11  7  1  0
 12 13  2  0
 12 10  1  0
 14 12  1  0
 15 20  1  0
 15 14  1  0
 15 16  1  1
 17 18  1  0
 17 16  1  0
 18 19  2  0
 20 23  1  0
 21 20  2  0
 22 18  1  0
M  END
$$$$
