NAE.pdb
     RDKit          3D

 23 22  0  0  1  0  0  0  0  0999 V2000
   14.2752  -12.7452  -10.0754 N   0  0  0  0  0  0  0  0  0  0  0  0
   15.4192  -12.5846  -10.8780 C   0  0  0  0  0  0  0  0  0  0  0  0
   16.0137  -13.6226  -11.2845 O   0  0  0  0  0  0  0  0  0  0  0  0
   15.9451  -11.2467  -11.2586 C   0  0  0  0  0  0  0  0  0  0  0  0
   15.0459  -10.1523  -10.7051 C   0  0  2  0  0  0  0  0  0  0  0  0
   13.8232  -10.1973  -11.4807 N   0  0  0  0  0  0  0  0  0  0  0  0
   15.7361   -8.8461  -10.8517 C   0  0  0  0  0  0  0  0  0  0  0  0
   15.9479   -8.4550  -12.0397 O   0  0  0  0  0  0  0  0  0  0  0  0
   16.8822   -6.0480   -8.6046 C   0  0  0  0  0  0  0  0  0  0  0  0
   16.7956   -6.8515   -9.9028 C   0  0  2  0  0  0  0  0  0  0  0  0
   16.1270   -8.0963   -9.7160 N   0  0  0  0  0  0  0  0  0  0  0  0
   18.2247   -7.0420  -10.3302 C   0  0  0  0  0  0  0  0  0  0  0  0
   18.9682   -7.8107   -9.6714 O   0  0  0  0  0  0  0  0  0  0  0  0
   18.7732   -6.3921  -11.4459 N   0  0  0  0  0  0  0  0  0  0  0  0
   20.1206   -6.6638  -11.9658 C   0  0  1  0  0  0  0  0  0  0  0  0
   19.9263   -7.5290  -13.1689 C   0  0  0  0  0  0  0  0  0  0  0  0
   21.1482   -7.8339  -13.9575 C   0  0  0  0  0  0  0  0  0  0  0  0
   20.9722   -8.7220  -15.1039 C   0  0  0  0  0  0  0  0  0  0  0  0
   20.8967   -8.2442  -16.2561 O   0  0  0  0  0  0  0  0  0  0  0  0
   20.8351   -5.4072  -12.2652 C   0  0  0  0  0  0  0  0  0  0  0  0
   20.1979   -4.3611  -12.5373 O   0  0  0  0  0  0  0  0  0  0  0  0
   20.8876  -10.0863  -14.9323 O   0  0  0  0  0  0  0  0  0  0  0  0
   22.2181   -5.3529  -12.2531 O   0  0  0  0  0  0  0  0  0  0  0  0
  1  2  1  0
  2  4  1  0
  2  3  2  0
  4  5  1  0
  5  7  1  0
  5  6  1  6
  7  8  2  0
 10  9  1  1
 11 10  1  0
 11  7  1  0
 12 13  2  0
 12 10  1  0
 14 12  1  0
 15 20  1  0
 15 14  1  0
 15 16  1  6
 17 18  1  0
 17 16  1  0
 18 19  2  0
 20 23  1  0
 21 20  2  0
 22 18  1  0
M  END
$$$$
