NAE.pdb
     RDKit          3D

 23 22  0  0  1  0  0  0  0  0999 V2000
   16.1651  -13.0164  -14.8562 N   0  0  0  0  0  0  0  0  0  0  0  0
   17.5145  -12.6550  -15.0210 C   0  0  0  0  0  0  0  0  0  0  0  0
   18.3948  -13.5480  -14.8662 O   0  0  0  0  0  0  0  0  0  0  0  0
   17.9330  -11.2708  -15.3677 C   0  0  0  0  0  0  0  0  0  0  0  0
   16.7228  -10.3507  -15.4063 C   0  0  2  0  0  0  0  0  0  0  0  0
   16.0337  -10.6344  -16.6486 N   0  0  0  0  0  0  0  0  0  0  0  0
   17.1903   -8.9427  -15.3521 C   0  0  0  0  0  0  0  0  0  0  0  0
   17.8338   -8.5271  -16.3632 O   0  0  0  0  0  0  0  0  0  0  0  0
   16.5974   -5.8969  -13.2675 C   0  0  0  0  0  0  0  0  0  0  0  0
   17.4119   -6.7897  -14.2045 C   0  0  2  0  0  0  0  0  0  0  0  0
   16.9220   -8.1280  -14.2256 N   0  0  0  0  0  0  0  0  0  0  0  0
   18.8177   -6.7163  -13.6759 C   0  0  0  0  0  0  0  0  0  0  0  0
   19.2101   -7.5734  -12.8458 O   0  0  0  0  0  0  0  0  0  0  0  0
   19.7236   -5.7211  -14.0725 N   0  0  0  0  0  0  0  0  0  0  0  0
   21.1499   -5.7303  -13.7189 C   0  0  1  0  0  0  0  0  0  0  0  0
   21.7521   -6.8642  -14.4839 C   0  0  0  0  0  0  0  0  0  0  0  0
   21.5947   -6.8116  -15.9605 C   0  0  0  0  0  0  0  0  0  0  0  0
   22.6697   -7.4118  -16.7466 C   0  0  0  0  0  0  0  0  0  0  0  0
   23.6668   -7.8968  -16.1701 O   0  0  0  0  0  0  0  0  0  0  0  0
   21.7781   -4.4291  -14.0213 C   0  0  0  0  0  0  0  0  0  0  0  0
   22.9145   -4.1498  -13.5688 O   0  0  0  0  0  0  0  0  0  0  0  0
   22.6001   -7.4510  -18.1219 O   0  0  0  0  0  0  0  0  0  0  0  0
   21.1319   -3.4908  -14.8072 O   0  0  0  0  0  0  0  0  0  0  0  0
  1  2  1  0
  2  4  1  0
  2  3  2  0
  4  5  1  0
  5  7  1  0
  5  6  1  6
  7  8  2  0
 10  9  1  1
 11 10  1  0
 11  7  1  0
 12 13  2  0
 12 10  1  0
 14 12  1  0
 15 20  1  0
 15 14  1  0
 15 16  1  6
 17 18  1  0
 17 16  1  0
 18 19  2  0
 20 23  1  0
 21 20  2  0
 22 18  1  0
M  END
$$$$
