NAE.pdb
     RDKit          3D

 23 22  0  0  1  0  0  0  0  0999 V2000
   28.3943  -22.7679  -17.1495 N   0  0  0  0  0  0  0  0  0  0  0  0
   28.5176  -22.4698  -15.7803 C   0  0  0  0  0  0  0  0  0  0  0  0
   29.2841  -23.1892  -15.0794 O   0  0  0  0  0  0  0  0  0  0  0  0
   27.7826  -21.3474  -15.1390 C   0  0  0  0  0  0  0  0  0  0  0  0
   26.7275  -20.8006  -16.0880 C   0  0  2  0  0  0  0  0  0  0  0  0
   27.4289  -20.3968  -17.2894 N   0  0  0  0  0  0  0  0  0  0  0  0
   26.0510  -19.6493  -15.4393 C   0  0  0  0  0  0  0  0  0  0  0  0
   25.3695  -19.9122  -14.4021 O   0  0  0  0  0  0  0  0  0  0  0  0
   26.0637  -15.9389  -15.4955 C   0  0  0  0  0  0  0  0  0  0  0  0
   25.3652  -17.2975  -15.4263 C   0  0  2  0  0  0  0  0  0  0  0  0
   26.1730  -18.3406  -15.9657 N   0  0  0  0  0  0  0  0  0  0  0  0
   24.0934  -17.1134  -16.2072 C   0  0  0  0  0  0  0  0  0  0  0  0
   24.0990  -17.3033  -17.4488 O   0  0  0  0  0  0  0  0  0  0  0  0
   22.8845  -16.7341  -15.6049 N   0  0  0  0  0  0  0  0  0  0  0  0
   21.6144  -16.6117  -16.3339 C   0  0  1  0  0  0  0  0  0  0  0  0
   20.5391  -16.8159  -15.3163 C   0  0  0  0  0  0  0  0  0  0  0  0
   19.1439  -16.7878  -15.8267 C   0  0  0  0  0  0  0  0  0  0  0  0
   18.0896  -16.9922  -14.8366 C   0  0  0  0  0  0  0  0  0  0  0  0
   18.3846  -17.1103  -13.6280 O   0  0  0  0  0  0  0  0  0  0  0  0
   21.5224  -15.3082  -17.0206 C   0  0  0  0  0  0  0  0  0  0  0  0
   22.0677  -14.2900  -16.5304 O   0  0  0  0  0  0  0  0  0  0  0  0
   16.7673  -17.0573  -15.2178 O   0  0  0  0  0  0  0  0  0  0  0  0
   20.8360  -15.1785  -18.2155 O   0  0  0  0  0  0  0  0  0  0  0  0
  1  2  1  0
  2  4  1  0
  2  3  2  0
  4  5  1  0
  5  7  1  0
  5  6  1  6
  7  8  2  0
 10  9  1  6
 11 10  1  0
 11  7  1  0
 12 13  2  0
 12 10  1  0
 14 12  1  0
 15 20  1  0
 15 14  1  0
 15 16  1  1
 17 18  1  0
 17 16  1  0
 18 19  2  0
 20 23  1  0
 21 20  2  0
 22 18  1  0
M  END
$$$$
