NAE.pdb
     RDKit          3D

 23 22  0  0  1  0  0  0  0  0999 V2000
   18.2231  -12.7576  -19.0489 N   0  0  0  0  0  0  0  0  0  0  0  0
   17.6921  -11.5248  -18.6282 C   0  0  0  0  0  0  0  0  0  0  0  0
   16.7863  -10.9940  -19.3310 O   0  0  0  0  0  0  0  0  0  0  0  0
   18.1582  -10.8342  -17.3965 C   0  0  0  0  0  0  0  0  0  0  0  0
   19.2577  -11.6427  -16.7255 C   0  0  2  0  0  0  0  0  0  0  0  0
   18.5932  -12.6659  -15.9445 N   0  0  0  0  0  0  0  0  0  0  0  0
   20.0608  -10.7371  -15.8659 C   0  0  0  0  0  0  0  0  0  0  0  0
   19.4236  -10.1048  -14.9697 O   0  0  0  0  0  0  0  0  0  0  0  0
   23.6971   -9.8382  -15.4192 C   0  0  0  0  0  0  0  0  0  0  0  0
   22.1868   -9.7062  -15.2188 C   0  0  2  0  0  0  0  0  0  0  0  0
   21.4578  -10.6022  -16.0537 N   0  0  0  0  0  0  0  0  0  0  0  0
   21.8831   -8.2689  -15.5399 C   0  0  0  0  0  0  0  0  0  0  0  0
   21.4104   -7.9751  -16.6658 O   0  0  0  0  0  0  0  0  0  0  0  0
   22.1062   -7.2269  -14.6274 N   0  0  0  0  0  0  0  0  0  0  0  0
   21.8111   -5.8162  -14.9141 C   0  0  1  0  0  0  0  0  0  0  0  0
   20.3391   -5.7505  -15.1642 C   0  0  0  0  0  0  0  0  0  0  0  0
   19.7735   -4.3932  -15.3781 C   0  0  0  0  0  0  0  0  0  0  0  0
   18.3390   -4.3259  -15.6452 C   0  0  0  0  0  0  0  0  0  0  0  0
   17.6697   -3.3625  -15.2144 O   0  0  0  0  0  0  0  0  0  0  0  0
   22.2493   -4.9480  -13.8034 C   0  0  0  0  0  0  0  0  0  0  0  0
   22.3430   -5.4030  -12.6379 O   0  0  0  0  0  0  0  0  0  0  0  0
   17.7095   -5.3147  -16.3690 O   0  0  0  0  0  0  0  0  0  0  0  0
   22.5659   -3.6182  -14.0200 O   0  0  0  0  0  0  0  0  0  0  0  0
  1  2  1  0
  2  4  1  0
  2  3  2  0
  4  5  1  0
  5  7  1  0
  5  6  1  1
  7  8  2  0
 10  9  1  6
 11 10  1  0
 11  7  1  0
 12 13  2  0
 12 10  1  0
 14 12  1  0
 15 20  1  0
 15 14  1  0
 15 16  1  1
 17 18  1  0
 17 16  1  0
 18 19  2  0
 20 23  1  0
 21 20  2  0
 22 18  1  0
M  END
$$$$
