NAE.pdb
     RDKit          3D

 23 22  0  0  1  0  0  0  0  0999 V2000
   27.6961  -16.8447  -17.6042 N   0  0  0  0  0  0  0  0  0  0  0  0
   27.9130  -17.7695  -16.5668 C   0  0  0  0  0  0  0  0  0  0  0  0
   29.1032  -17.9968  -16.2089 O   0  0  0  0  0  0  0  0  0  0  0  0
   26.7984  -18.4801  -15.8857 C   0  0  0  0  0  0  0  0  0  0  0  0
   27.1075  -19.9656  -15.7837 C   0  0  2  0  0  0  0  0  0  0  0  0
   27.1298  -20.4721  -17.1407 N   0  0  0  0  0  0  0  0  0  0  0  0
   26.0483  -20.6204  -14.9754 C   0  0  0  0  0  0  0  0  0  0  0  0
   24.9815  -20.9239  -15.5908 O   0  0  0  0  0  0  0  0  0  0  0  0
   25.5694  -21.7034  -11.3887 C   0  0  0  0  0  0  0  0  0  0  0  0
   25.1752  -21.4602  -12.8461 C   0  0  2  0  0  0  0  0  0  0  0  0
   26.2396  -20.8816  -13.5969 N   0  0  0  0  0  0  0  0  0  0  0  0
   23.9818  -20.5484  -12.7720 C   0  0  0  0  0  0  0  0  0  0  0  0
   24.0614  -19.4805  -12.1158 O   0  0  0  0  0  0  0  0  0  0  0  0
   22.7671  -20.8395  -13.4107 N   0  0  0  0  0  0  0  0  0  0  0  0
   21.5573  -20.0167  -13.2738 C   0  0  1  0  0  0  0  0  0  0  0  0
   21.3197  -19.4142  -14.6207 C   0  0  0  0  0  0  0  0  0  0  0  0
   20.0795  -18.6086  -14.7655 C   0  0  0  0  0  0  0  0  0  0  0  0
   19.7743  -18.1290  -16.1111 C   0  0  0  0  0  0  0  0  0  0  0  0
   18.7263  -17.4806  -16.3184 O   0  0  0  0  0  0  0  0  0  0  0  0
   20.4199  -20.8250  -12.7918 C   0  0  0  0  0  0  0  0  0  0  0  0
   20.4195  -22.0718  -12.9322 O   0  0  0  0  0  0  0  0  0  0  0  0
   20.6296  -18.3827  -17.1609 O   0  0  0  0  0  0  0  0  0  0  0  0
   19.3322  -20.2300  -12.1766 O   0  0  0  0  0  0  0  0  0  0  0  0
  1  2  1  0
  2  4  1  0
  2  3  2  0
  4  5  1  0
  5  7  1  0
  5  6  1  6
  7  8  2  0
 10  9  1  1
 11 10  1  0
 11  7  1  0
 12 13  2  0
 12 10  1  0
 14 12  1  0
 15 20  1  0
 15 14  1  0
 15 16  1  6
 17 18  1  0
 17 16  1  0
 18 19  2  0
 20 23  1  0
 21 20  2  0
 22 18  1  0
M  END
$$$$
