NAE.pdb
     RDKit          3D

 23 22  0  0  1  0  0  0  0  0999 V2000
   28.0297  -22.2075  -17.5385 N   0  0  0  0  0  0  0  0  0  0  0  0
   28.0253  -21.9440  -16.1567 C   0  0  0  0  0  0  0  0  0  0  0  0
   28.9416  -22.4505  -15.4495 O   0  0  0  0  0  0  0  0  0  0  0  0
   26.9878  -21.0979  -15.5094 C   0  0  0  0  0  0  0  0  0  0  0  0
   25.8749  -20.7841  -16.4971 C   0  0  2  0  0  0  0  0  0  0  0  0
   26.4554  -19.9213  -17.5057 N   0  0  0  0  0  0  0  0  0  0  0  0
   24.7691  -20.1082  -15.7731 C   0  0  0  0  0  0  0  0  0  0  0  0
   24.2407  -20.7612  -14.8226 O   0  0  0  0  0  0  0  0  0  0  0  0
   23.0935  -16.7303  -15.7958 C   0  0  0  0  0  0  0  0  0  0  0  0
   23.2628  -18.2063  -15.4335 C   0  0  2  0  0  0  0  0  0  0  0  0
   24.3444  -18.8082  -16.1400 N   0  0  0  0  0  0  0  0  0  0  0  0
   21.9443  -18.8391  -15.7831 C   0  0  0  0  0  0  0  0  0  0  0  0
   21.7040  -19.1440  -16.9776 O   0  0  0  0  0  0  0  0  0  0  0  0
   20.9568  -19.1084  -14.8236 N   0  0  0  0  0  0  0  0  0  0  0  0
   19.6428  -19.6819  -15.1460 C   0  0  1  0  0  0  0  0  0  0  0  0
   19.4021  -20.7478  -14.1265 C   0  0  0  0  0  0  0  0  0  0  0  0
   18.1142  -21.4802  -14.2398 C   0  0  0  0  0  0  0  0  0  0  0  0
   17.8574  -22.4966  -13.2226 C   0  0  0  0  0  0  0  0  0  0  0  0
   16.6817  -22.8115  -12.9396 O   0  0  0  0  0  0  0  0  0  0  0  0
   18.5978  -18.6391  -15.1518 C   0  0  0  0  0  0  0  0  0  0  0  0
   18.7089  -17.6218  -14.4258 O   0  0  0  0  0  0  0  0  0  0  0  0
   18.8984  -23.1166  -12.5670 O   0  0  0  0  0  0  0  0  0  0  0  0
   17.4763  -18.7579  -15.9540 O   0  0  0  0  0  0  0  0  0  0  0  0
  1  2  1  0
  2  4  1  0
  2  3  2  0
  4  5  1  0
  5  7  1  0
  5  6  1  6
  7  8  2  0
 10  9  1  6
 11 10  1  0
 11  7  1  0
 12 13  2  0
 12 10  1  0
 14 12  1  0
 15 20  1  0
 15 14  1  0
 15 16  1  1
 17 18  1  0
 17 16  1  0
 18 19  2  0
 20 23  1  0
 21 20  2  0
 22 18  1  0
M  END
$$$$
