NAE.pdb
     RDKit          3D

 23 22  0  0  1  0  0  0  0  0999 V2000
   16.5391  -11.8962  -17.8097 N   0  0  0  0  0  0  0  0  0  0  0  0
   16.8467  -12.4755  -16.5653 C   0  0  0  0  0  0  0  0  0  0  0  0
   16.0922  -13.3906  -16.1300 O   0  0  0  0  0  0  0  0  0  0  0  0
   18.0186  -12.0496  -15.7551 C   0  0  0  0  0  0  0  0  0  0  0  0
   18.7852  -10.9524  -16.4771 C   0  0  2  0  0  0  0  0  0  0  0  0
   19.5928  -11.6124  -17.4824 N   0  0  0  0  0  0  0  0  0  0  0  0
   19.6269  -10.2286  -15.4914 C   0  0  0  0  0  0  0  0  0  0  0  0
   19.0153   -9.7013  -14.5131 O   0  0  0  0  0  0  0  0  0  0  0  0
   23.2712   -9.6915  -14.7725 C   0  0  0  0  0  0  0  0  0  0  0  0
   21.7853   -9.3304  -14.7593 C   0  0  2  0  0  0  0  0  0  0  0  0
   21.0309  -10.1439  -15.6540 N   0  0  0  0  0  0  0  0  0  0  0  0
   21.7414   -7.8790  -15.1498 C   0  0  0  0  0  0  0  0  0  0  0  0
   21.9357   -7.5566  -16.3481 O   0  0  0  0  0  0  0  0  0  0  0  0
   21.4899   -6.8545  -14.2250 N   0  0  0  0  0  0  0  0  0  0  0  0
   21.4855   -5.4267  -14.5724 C   0  0  1  0  0  0  0  0  0  0  0  0
   20.0476   -5.0210  -14.6104 C   0  0  0  0  0  0  0  0  0  0  0  0
   19.7828   -3.5775  -14.8430 C   0  0  0  0  0  0  0  0  0  0  0  0
   18.3786   -3.1833  -14.9250 C   0  0  0  0  0  0  0  0  0  0  0  0
   17.4819   -4.0466  -14.8150 O   0  0  0  0  0  0  0  0  0  0  0  0
   22.2827   -4.6450  -13.6067 C   0  0  0  0  0  0  0  0  0  0  0  0
   22.5509   -5.1142  -12.4743 O   0  0  0  0  0  0  0  0  0  0  0  0
   18.0265   -1.8662  -15.1230 O   0  0  0  0  0  0  0  0  0  0  0  0
   22.7513   -3.3822  -13.9254 O   0  0  0  0  0  0  0  0  0  0  0  0
  1  2  1  0
  2  4  1  0
  2  3  2  0
  4  5  1  0
  5  7  1  0
  5  6  1  6
  7  8  2  0
 10  9  1  6
 11 10  1  0
 11  7  1  0
 12 13  2  0
 12 10  1  0
 14 12  1  0
 15 20  1  0
 15 14  1  0
 15 16  1  1
 17 18  1  0
 17 16  1  0
 18 19  2  0
 20 23  1  0
 21 20  2  0
 22 18  1  0
M  END
$$$$
