NAE.pdb
     RDKit          3D

 23 22  0  0  1  0  0  0  0  0999 V2000
   18.7253  -12.0235  -19.9935 N   0  0  0  0  0  0  0  0  0  0  0  0
   17.9671  -11.0908  -19.2628 C   0  0  0  0  0  0  0  0  0  0  0  0
   16.7893  -10.8457  -19.6486 O   0  0  0  0  0  0  0  0  0  0  0  0
   18.5022  -10.3918  -18.0643 C   0  0  0  0  0  0  0  0  0  0  0  0
   19.1551  -11.3909  -17.1218 C   0  0  2  0  0  0  0  0  0  0  0  0
   18.0822  -12.1921  -16.5692 N   0  0  0  0  0  0  0  0  0  0  0  0
   19.8799  -10.6457  -16.0619 C   0  0  0  0  0  0  0  0  0  0  0  0
   19.1615   -9.9916  -15.2463 O   0  0  0  0  0  0  0  0  0  0  0  0
   23.4625  -10.0771  -15.0176 C   0  0  0  0  0  0  0  0  0  0  0  0
   21.9580   -9.8088  -15.0706 C   0  0  2  0  0  0  0  0  0  0  0  0
   21.2934  -10.6772  -15.9847 N   0  0  0  0  0  0  0  0  0  0  0  0
   21.8413   -8.3672  -15.4822 C   0  0  0  0  0  0  0  0  0  0  0  0
   21.7169   -8.0813  -16.6989 O   0  0  0  0  0  0  0  0  0  0  0  0
   21.8653   -7.3126  -14.5573 N   0  0  0  0  0  0  0  0  0  0  0  0
   21.7846   -5.8951  -14.9362 C   0  0  1  0  0  0  0  0  0  0  0  0
   20.3677   -5.6644  -15.3518 C   0  0  0  0  0  0  0  0  0  0  0  0
   19.9845   -4.2517  -15.6078 C   0  0  0  0  0  0  0  0  0  0  0  0
   18.5794   -4.0111  -15.9264 C   0  0  0  0  0  0  0  0  0  0  0  0
   17.8147   -3.5429  -15.0559 O   0  0  0  0  0  0  0  0  0  0  0  0
   22.2107   -5.0249  -13.8224 C   0  0  0  0  0  0  0  0  0  0  0  0
   22.1948   -5.4481  -12.6413 O   0  0  0  0  0  0  0  0  0  0  0  0
   18.0820   -4.2946  -17.1795 O   0  0  0  0  0  0  0  0  0  0  0  0
   22.6358   -3.7281  -14.0529 O   0  0  0  0  0  0  0  0  0  0  0  0
  1  2  1  0
  2  4  1  0
  2  3  2  0
  4  5  1  0
  5  7  1  0
  5  6  1  1
  7  8  2  0
 10  9  1  6
 11 10  1  0
 11  7  1  0
 12 13  2  0
 12 10  1  0
 14 12  1  0
 15 20  1  0
 15 14  1  0
 15 16  1  1
 17 18  1  0
 17 16  1  0
 18 19  2  0
 20 23  1  0
 21 20  2  0
 22 18  1  0
M  END
$$$$
