NAE.pdb
     RDKit          3D

 23 22  0  0  1  0  0  0  0  0999 V2000
   12.6613  -10.4145   -9.9518 N   0  0  0  0  0  0  0  0  0  0  0  0
   13.3545   -9.2422   -9.5996 C   0  0  0  0  0  0  0  0  0  0  0  0
   12.8575   -8.5007   -8.7054 O   0  0  0  0  0  0  0  0  0  0  0  0
   14.6391   -8.8525  -10.2392 C   0  0  0  0  0  0  0  0  0  0  0  0
   15.0319   -9.8753  -11.2938 C   0  0  2  0  0  0  0  0  0  0  0  0
   15.6605  -10.9714  -10.5853 N   0  0  0  0  0  0  0  0  0  0  0  0
   15.9691   -9.2381  -12.2528 C   0  0  0  0  0  0  0  0  0  0  0  0
   17.1457   -9.0259  -11.8288 O   0  0  0  0  0  0  0  0  0  0  0  0
   15.9433   -8.2428  -15.8902 C   0  0  0  0  0  0  0  0  0  0  0  0
   16.5003   -8.3402  -14.4694 C   0  0  2  0  0  0  0  0  0  0  0  0
   15.5517   -8.8948  -13.5616 N   0  0  0  0  0  0  0  0  0  0  0  0
   16.8653   -6.9279  -14.1045 C   0  0  0  0  0  0  0  0  0  0  0  0
   15.9871   -6.1678  -13.6263 O   0  0  0  0  0  0  0  0  0  0  0  0
   18.1590   -6.4130  -14.2758 N   0  0  0  0  0  0  0  0  0  0  0  0
   18.5308   -5.0252  -13.9669 C   0  0  1  0  0  0  0  0  0  0  0  0
   19.9539   -5.0760  -13.5131 C   0  0  0  0  0  0  0  0  0  0  0  0
   20.9664   -5.3386  -14.5684 C   0  0  0  0  0  0  0  0  0  0  0  0
   22.3644   -5.2956  -14.1473 C   0  0  0  0  0  0  0  0  0  0  0  0
   22.6618   -4.8462  -13.0198 O   0  0  0  0  0  0  0  0  0  0  0  0
   18.3271   -4.1501  -15.1382 C   0  0  0  0  0  0  0  0  0  0  0  0
   18.2417   -4.6381  -16.2910 O   0  0  0  0  0  0  0  0  0  0  0  0
   23.3657   -5.7455  -14.9798 O   0  0  0  0  0  0  0  0  0  0  0  0
   18.2259   -2.7773  -14.9937 O   0  0  0  0  0  0  0  0  0  0  0  0
  1  2  1  0
  2  4  1  0
  2  3  2  0
  4  5  1  0
  5  7  1  0
  5  6  1  1
  7  8  2  0
 10  9  1  6
 11 10  1  0
 11  7  1  0
 12 13  2  0
 12 10  1  0
 14 12  1  0
 15 20  1  0
 15 14  1  0
 15 16  1  6
 17 18  1  0
 17 16  1  0
 18 19  2  0
 20 23  1  0
 21 20  2  0
 22 18  1  0
M  END
$$$$
