NAE.pdb
     RDKit          3D

 23 22  0  0  1  0  0  0  0  0999 V2000
   16.5347  -12.5395  -16.4728 N   0  0  0  0  0  0  0  0  0  0  0  0
   17.3609  -12.9937  -15.4289 C   0  0  0  0  0  0  0  0  0  0  0  0
   17.0042  -14.0239  -14.7904 O   0  0  0  0  0  0  0  0  0  0  0  0
   18.6265  -12.3072  -15.0571 C   0  0  0  0  0  0  0  0  0  0  0  0
   18.8448  -11.0918  -15.9447 C   0  0  2  0  0  0  0  0  0  0  0  0
   19.2313  -11.6000  -17.2450 N   0  0  0  0  0  0  0  0  0  0  0  0
   19.9130  -10.2502  -15.3493 C   0  0  0  0  0  0  0  0  0  0  0  0
   19.6444   -9.7114  -14.2328 O   0  0  0  0  0  0  0  0  0  0  0  0
   23.4696   -9.2848  -16.1400 C   0  0  0  0  0  0  0  0  0  0  0  0
   22.1031   -9.1585  -15.4652 C   0  0  2  0  0  0  0  0  0  0  0  0
   21.1538  -10.0726  -16.0081 N   0  0  0  0  0  0  0  0  0  0  0  0
   21.6962   -7.7286  -15.6910 C   0  0  0  0  0  0  0  0  0  0  0  0
   21.0951   -7.4182  -16.7492 O   0  0  0  0  0  0  0  0  0  0  0  0
   21.9606   -6.7115  -14.7616 N   0  0  0  0  0  0  0  0  0  0  0  0
   21.5317   -5.3169  -14.9363 C   0  0  1  0  0  0  0  0  0  0  0  0
   20.0377   -5.3432  -14.9054 C   0  0  0  0  0  0  0  0  0  0  0  0
   19.3622   -4.0199  -14.8823 C   0  0  0  0  0  0  0  0  0  0  0  0
   17.9050   -4.0402  -14.7820 C   0  0  0  0  0  0  0  0  0  0  0  0
   17.2830   -5.1086  -14.9637 O   0  0  0  0  0  0  0  0  0  0  0  0
   22.1175   -4.4491  -13.8956 C   0  0  0  0  0  0  0  0  0  0  0  0
   22.5419   -4.9398  -12.8216 O   0  0  0  0  0  0  0  0  0  0  0  0
   17.2025   -2.8920  -14.4885 O   0  0  0  0  0  0  0  0  0  0  0  0
   22.2123   -3.0805  -14.0786 O   0  0  0  0  0  0  0  0  0  0  0  0
  1  2  1  0
  2  4  1  0
  2  3  2  0
  4  5  1  0
  5  7  1  0
  5  6  1  6
  7  8  2  0
 10  9  1  6
 11 10  1  0
 11  7  1  0
 12 13  2  0
 12 10  1  0
 14 12  1  0
 15 20  1  0
 15 14  1  0
 15 16  1  1
 17 18  1  0
 17 16  1  0
 18 19  2  0
 20 23  1  0
 21 20  2  0
 22 18  1  0
M  END
$$$$
