NAE.pdb
     RDKit          3D

 23 22  0  0  1  0  0  0  0  0999 V2000
   15.9856  -13.4255  -12.5397 N   0  0  0  0  0  0  0  0  0  0  0  0
   16.1246  -12.6520  -11.3729 C   0  0  0  0  0  0  0  0  0  0  0  0
   16.3368  -13.2514  -10.2811 O   0  0  0  0  0  0  0  0  0  0  0  0
   16.0306  -11.1680  -11.3838 C   0  0  0  0  0  0  0  0  0  0  0  0
   15.0397  -10.6971  -10.3307 C   0  0  2  0  0  0  0  0  0  0  0  0
   13.7371  -11.1663  -10.7569 N   0  0  0  0  0  0  0  0  0  0  0  0
   15.0875   -9.2150  -10.2575 C   0  0  0  0  0  0  0  0  0  0  0  0
   14.7050   -8.5907  -11.2934 O   0  0  0  0  0  0  0  0  0  0  0  0
   15.5857   -6.5765   -7.6464 C   0  0  0  0  0  0  0  0  0  0  0  0
   15.5948   -7.1327   -9.0709 C   0  0  2  0  0  0  0  0  0  0  0  0
   15.5383   -8.5568   -9.0877 N   0  0  0  0  0  0  0  0  0  0  0  0
   16.8712   -6.6157   -9.6747 C   0  0  0  0  0  0  0  0  0  0  0  0
   17.9672   -7.1204   -9.3258 O   0  0  0  0  0  0  0  0  0  0  0  0
   16.8947   -5.5818  -10.6227 N   0  0  0  0  0  0  0  0  0  0  0  0
   18.1252   -5.0794  -11.2496 C   0  0  1  0  0  0  0  0  0  0  0  0
   18.7493   -6.2580  -11.9242 C   0  0  0  0  0  0  0  0  0  0  0  0
   19.9361   -5.9721  -12.7713 C   0  0  0  0  0  0  0  0  0  0  0  0
   20.5929   -7.1289  -13.3748 C   0  0  0  0  0  0  0  0  0  0  0  0
   20.6852   -8.1975  -12.7335 O   0  0  0  0  0  0  0  0  0  0  0  0
   17.8309   -3.9696  -12.1774 C   0  0  0  0  0  0  0  0  0  0  0  0
   18.7288   -3.1555  -12.5022 O   0  0  0  0  0  0  0  0  0  0  0  0
   21.1151   -7.0587  -14.6477 O   0  0  0  0  0  0  0  0  0  0  0  0
   16.5640   -3.8011  -12.7086 O   0  0  0  0  0  0  0  0  0  0  0  0
  1  2  1  0
  2  4  1  0
  2  3  2  0
  4  5  1  0
  5  7  1  0
  5  6  1  6
  7  8  2  0
 10  9  1  1
 11 10  1  0
 11  7  1  0
 12 13  2  0
 12 10  1  0
 14 12  1  0
 15 20  1  0
 15 14  1  0
 15 16  1  6
 17 18  1  0
 17 16  1  0
 18 19  2  0
 20 23  1  0
 21 20  2  0
 22 18  1  0
M  END
$$$$
