NAE.pdb
     RDKit          3D

 23 22  0  0  1  0  0  0  0  0999 V2000
   17.1145  -12.2722  -18.7474 N   0  0  0  0  0  0  0  0  0  0  0  0
   17.1648  -10.8670  -18.7868 C   0  0  0  0  0  0  0  0  0  0  0  0
   16.6122  -10.2768  -19.7578 O   0  0  0  0  0  0  0  0  0  0  0  0
   17.8402  -10.0632  -17.7338 C   0  0  0  0  0  0  0  0  0  0  0  0
   18.5005  -10.9802  -16.7160 C   0  0  2  0  0  0  0  0  0  0  0  0
   17.4394  -11.4736  -15.8622 N   0  0  0  0  0  0  0  0  0  0  0  0
   19.5004  -10.1988  -15.9457 C   0  0  0  0  0  0  0  0  0  0  0  0
   19.0407   -9.4432  -15.0363 O   0  0  0  0  0  0  0  0  0  0  0  0
   23.2547  -10.0129  -15.6846 C   0  0  0  0  0  0  0  0  0  0  0  0
   21.8125   -9.5703  -15.4347 C   0  0  2  0  0  0  0  0  0  0  0  0
   20.8840  -10.3061  -16.2271 N   0  0  0  0  0  0  0  0  0  0  0  0
   21.7986   -8.1050  -15.7717 C   0  0  0  0  0  0  0  0  0  0  0  0
   21.5629   -7.7458  -16.9519 O   0  0  0  0  0  0  0  0  0  0  0  0
   22.0401   -7.1070  -14.8157 N   0  0  0  0  0  0  0  0  0  0  0  0
   21.9119   -5.6689  -15.0893 C   0  0  1  0  0  0  0  0  0  0  0  0
   20.4858   -5.4542  -15.4814 C   0  0  0  0  0  0  0  0  0  0  0  0
   20.0805   -4.0451  -15.7226 C   0  0  0  0  0  0  0  0  0  0  0  0
   18.7130   -3.8377  -16.1924 C   0  0  0  0  0  0  0  0  0  0  0  0
   18.0852   -4.7816  -16.7184 O   0  0  0  0  0  0  0  0  0  0  0  0
   22.3170   -4.8693  -13.9164 C   0  0  0  0  0  0  0  0  0  0  0  0
   22.6704   -3.6730  -14.0521 O   0  0  0  0  0  0  0  0  0  0  0  0
   18.1018   -2.6098  -16.0635 O   0  0  0  0  0  0  0  0  0  0  0  0
   22.3167   -5.4170  -12.6454 O   0  0  0  0  0  0  0  0  0  0  0  0
  1  2  1  0
  2  4  1  0
  2  3  2  0
  4  5  1  0
  5  7  1  0
  5  6  1  1
  7  8  2  0
 10  9  1  6
 11 10  1  0
 11  7  1  0
 12 13  2  0
 12 10  1  0
 14 12  1  0
 15 20  1  0
 15 14  1  0
 15 16  1  1
 17 18  1  0
 17 16  1  0
 18 19  2  0
 20 23  1  0
 21 20  2  0
 22 18  1  0
M  END
$$$$
