NAE.pdb
     RDKit          3D

 23 22  0  0  1  0  0  0  0  0999 V2000
   22.7656  -12.6451  -18.6309 N   0  0  0  0  0  0  0  0  0  0  0  0
   23.0672  -11.2835  -18.8151 C   0  0  0  0  0  0  0  0  0  0  0  0
   24.1693  -10.9840  -19.3552 O   0  0  0  0  0  0  0  0  0  0  0  0
   22.1402  -10.1979  -18.3987 C   0  0  0  0  0  0  0  0  0  0  0  0
   20.9410  -10.7826  -17.6689 C   0  0  2  0  0  0  0  0  0  0  0  0
   20.0237  -11.2404  -18.6923 N   0  0  0  0  0  0  0  0  0  0  0  0
   20.3314   -9.7240  -16.8252 C   0  0  0  0  0  0  0  0  0  0  0  0
   19.7472   -8.7827  -17.4432 O   0  0  0  0  0  0  0  0  0  0  0  0
   19.8436   -9.0315  -13.1505 C   0  0  0  0  0  0  0  0  0  0  0  0
   19.8825   -8.7038  -14.6437 C   0  0  2  0  0  0  0  0  0  0  0  0
   20.4099   -9.7817  -15.4127 N   0  0  0  0  0  0  0  0  0  0  0  0
   20.7406   -7.4729  -14.7424 C   0  0  0  0  0  0  0  0  0  0  0  0
   21.9629   -7.5928  -15.0052 O   0  0  0  0  0  0  0  0  0  0  0  0
   20.2320   -6.1794  -14.5521 N   0  0  0  0  0  0  0  0  0  0  0  0
   21.0496   -4.9616  -14.6402 C   0  0  1  0  0  0  0  0  0  0  0  0
   20.0817   -3.8248  -14.7064 C   0  0  0  0  0  0  0  0  0  0  0  0
   20.6761   -2.4640  -14.7599 C   0  0  0  0  0  0  0  0  0  0  0  0
   19.7339   -1.3481  -14.7877 C   0  0  0  0  0  0  0  0  0  0  0  0
   18.5043   -1.5711  -14.7885 O   0  0  0  0  0  0  0  0  0  0  0  0
   21.9793   -4.8651  -13.4975 C   0  0  0  0  0  0  0  0  0  0  0  0
   21.7118   -5.4292  -12.4091 O   0  0  0  0  0  0  0  0  0  0  0  0
   20.1835   -0.0462  -14.8134 O   0  0  0  0  0  0  0  0  0  0  0  0
   23.1623   -4.1538  -13.5987 O   0  0  0  0  0  0  0  0  0  0  0  0
  1  2  1  0
  2  4  1  0
  2  3  2  0
  4  5  1  0
  5  7  1  0
  5  6  1  6
  7  8  2  0
 10  9  1  1
 11 10  1  0
 11  7  1  0
 12 13  2  0
 12 10  1  0
 14 12  1  0
 15 20  1  0
 15 14  1  0
 15 16  1  1
 17 18  1  0
 17 16  1  0
 18 19  2  0
 20 23  1  0
 21 20  2  0
 22 18  1  0
M  END
$$$$
