WLF.pdb
     RDKit          3D

 34 36  0  0  1  0  0  0  0  0999 V2000
    6.3111  -19.0585   22.5119 N   0  0  0  0  0  0  0  0  0  0  0  0
    6.7541  -17.7065   22.8236 C   0  0  1  0  0  0  0  0  0  0  0  0
    6.7594  -17.5080   24.3062 C   0  0  0  0  0  0  0  0  0  0  0  0
    6.0600  -16.3234   24.8014 C   0  0  0  0  0  0  0  0  0  0  0  0
    4.6933  -16.2587   25.1210 C   0  0  0  0  0  0  0  0  0  0  0  0
    4.4328  -15.0273   25.5623 N   0  0  0  0  0  0  0  0  0  0  0  0
    5.5424  -14.2650   25.5567 C   0  0  0  0  0  0  0  0  0  0  0  0
    5.7729  -12.9513   25.9096 C   0  0  0  0  0  0  0  0  0  0  0  0
    7.0510  -12.4414   25.7807 C   0  0  0  0  0  0  0  0  0  0  0  0
    8.0775  -13.2086   25.3146 C   0  0  0  0  0  0  0  0  0  0  0  0
    7.8304  -14.5067   24.9705 C   0  0  0  0  0  0  0  0  0  0  0  0
    6.5583  -15.0777   25.0800 C   0  0  0  0  0  0  0  0  0  0  0  0
    7.9414  -17.2755   22.0963 C   0  0  0  0  0  0  0  0  0  0  0  0
    8.8095  -18.1395   21.8155 O   0  0  0  0  0  0  0  0  0  0  0  0
    7.8261  -12.0993   20.3221 C   0  0  0  0  0  0  0  0  0  0  0  0
    7.9995  -13.5961   20.3685 C   0  0  1  0  0  0  0  0  0  0  0  0
    7.9022  -14.1008   18.9204 C   0  0  0  0  0  0  0  0  0  0  0  0
    9.3444  -14.0123   20.8678 C   0  0  0  0  0  0  0  0  0  0  0  0
    9.4697  -15.4468   21.2559 C   0  0  2  0  0  0  0  0  0  0  0  0
    8.1849  -15.9363   21.6808 N   0  0  0  0  0  0  0  0  0  0  0  0
   10.4517  -15.6145   22.3675 C   0  0  0  0  0  0  0  0  0  0  0  0
   11.6691  -15.3116   22.2347 O   0  0  0  0  0  0  0  0  0  0  0  0
   10.0786  -16.1240   23.6404 N   0  0  0  0  0  0  0  0  0  0  0  0
   10.7848  -15.7784   24.8771 C   0  0  1  0  0  0  0  0  0  0  0  0
    9.8511  -15.6868   26.0327 C   0  0  0  0  0  0  0  0  0  0  0  0
   10.5712  -15.2447   27.2422 C   0  0  0  0  0  0  0  0  0  0  0  0
   10.7332  -13.9325   27.6274 C   0  0  0  0  0  0  0  0  0  0  0  0
   11.4122  -13.5591   28.7752 C   0  0  0  0  0  0  0  0  0  0  0  0
   11.9602  -14.5285   29.5854 C   0  0  0  0  0  0  0  0  0  0  0  0
   11.8218  -15.8588   29.2370 C   0  0  0  0  0  0  0  0  0  0  0  0
   11.1405  -16.2048   28.0881 C   0  0  0  0  0  0  0  0  0  0  0  0
   11.8613  -16.7539   25.0576 C   0  0  0  0  0  0  0  0  0  0  0  0
   11.7507  -18.0200   24.5195 O   0  0  0  0  0  0  0  0  0  0  0  0
   12.8891  -16.4593   25.6961 O   0  0  0  0  0  0  0  0  0  0  0  0
  2  1  1  1
  3  2  1  0
  4  3  1  0
  5  4  2  0
  6  5  1  0
  7  6  1  0
  7 12  2  0
  8  7  1  0
  9  8  2  0
  9 10  1  0
 10 11  2  0
 11 12  1  0
 12  4  1  0
 13 14  2  0
 13  2  1  0
 16 15  1  6
 16 17  1  0
 16 18  1  0
 19 18  1  1
 19 21  1  0
 19 20  1  0
 20 13  1  0
 21 23  1  0
 22 21  2  0
 23 24  1  0
 24 25  1  1
 25 26  1  0
 26 27  2  0
 27 28  1  0
 29 28  2  0
 30 29  1  0
 31 26  1  0
 31 30  2  0
 32 33  1  0
 32 24  1  0
 34 32  2  0
M  END
$$$$
