WLF.pdb
     RDKit          3D

 34 36  0  0  1  0  0  0  0  0999 V2000
    6.2635  -18.1375   23.9315 N   0  0  0  0  0  0  0  0  0  0  0  0
    6.9489  -16.8552   24.0180 C   0  0  1  0  0  0  0  0  0  0  0  0
    7.1786  -16.5035   25.4537 C   0  0  0  0  0  0  0  0  0  0  0  0
    6.3967  -15.3844   25.9773 C   0  0  0  0  0  0  0  0  0  0  0  0
    5.2240  -15.4979   26.7428 C   0  0  0  0  0  0  0  0  0  0  0  0
    4.8171  -14.2668   27.0553 N   0  0  0  0  0  0  0  0  0  0  0  0
    5.6464  -13.3374   26.5446 C   0  0  0  0  0  0  0  0  0  0  0  0
    5.6428  -11.9585   26.5905 C   0  0  0  0  0  0  0  0  0  0  0  0
    6.6512  -11.2680   25.9450 C   0  0  0  0  0  0  0  0  0  0  0  0
    7.6395  -11.9216   25.2702 C   0  0  0  0  0  0  0  0  0  0  0  0
    7.6266  -13.2867   25.2359 C   0  0  0  0  0  0  0  0  0  0  0  0
    6.6330  -14.0389   25.8706 C   0  0  0  0  0  0  0  0  0  0  0  0
    8.0836  -16.7129   23.1144 C   0  0  0  0  0  0  0  0  0  0  0  0
    8.7880  -17.7277   22.8846 O   0  0  0  0  0  0  0  0  0  0  0  0
    8.1112  -12.2039   19.9433 C   0  0  0  0  0  0  0  0  0  0  0  0
    8.1468  -13.6123   20.4798 C   0  0  1  0  0  0  0  0  0  0  0  0
    7.7465  -14.5401   19.3221 C   0  0  0  0  0  0  0  0  0  0  0  0
    9.5131  -14.0397   20.9060 C   0  0  0  0  0  0  0  0  0  0  0  0
    9.5862  -15.3571   21.6011 C   0  0  2  0  0  0  0  0  0  0  0  0
    8.4492  -15.4967   22.4720 N   0  0  0  0  0  0  0  0  0  0  0  0
   10.8384  -15.4662   22.4064 C   0  0  0  0  0  0  0  0  0  0  0  0
   11.5075  -14.4508   22.7417 O   0  0  0  0  0  0  0  0  0  0  0  0
   11.3535  -16.7160   22.8442 N   0  0  0  0  0  0  0  0  0  0  0  0
   11.9638  -16.9105   24.1623 C   0  0  1  0  0  0  0  0  0  0  0  0
   10.9330  -17.0783   25.2229 C   0  0  0  0  0  0  0  0  0  0  0  0
   10.9730  -15.9426   26.1637 C   0  0  0  0  0  0  0  0  0  0  0  0
   10.8316  -14.6196   25.8084 C   0  0  0  0  0  0  0  0  0  0  0  0
   10.8696  -13.5817   26.7245 C   0  0  0  0  0  0  0  0  0  0  0  0
   11.0567  -13.8616   28.0599 C   0  0  0  0  0  0  0  0  0  0  0  0
   11.2034  -15.1759   28.4615 C   0  0  0  0  0  0  0  0  0  0  0  0
   11.1617  -16.1919   27.5289 C   0  0  0  0  0  0  0  0  0  0  0  0
   12.8960  -18.0340   24.0552 C   0  0  0  0  0  0  0  0  0  0  0  0
   12.7893  -18.9299   23.0109 O   0  0  0  0  0  0  0  0  0  0  0  0
   13.7960  -18.1993   24.8999 O   0  0  0  0  0  0  0  0  0  0  0  0
  2  1  1  1
  3  2  1  0
  4  3  1  0
  5  4  2  0
  6  5  1  0
  7  6  1  0
  7 12  2  0
  8  7  1  0
  9  8  2  0
  9 10  1  0
 10 11  2  0
 11 12  1  0
 12  4  1  0
 13 14  2  0
 13  2  1  0
 16 15  1  6
 16 17  1  0
 16 18  1  0
 19 18  1  1
 19 21  1  0
 19 20  1  0
 20 13  1  0
 21 23  1  0
 22 21  2  0
 23 24  1  0
 24 25  1  1
 25 26  1  0
 26 27  2  0
 27 28  1  0
 29 28  2  0
 30 29  1  0
 31 26  1  0
 31 30  2  0
 32 33  1  0
 32 24  1  0
 34 32  2  0
M  END
$$$$
