WLF.pdb
     RDKit          3D

 34 36  0  0  1  0  0  0  0  0999 V2000
    6.6937  -19.3941   21.1400 N   0  0  0  0  0  0  0  0  0  0  0  0
    6.1293  -18.5016   22.1432 C   0  0  1  0  0  0  0  0  0  0  0  0
    5.4222  -19.3036   23.1893 C   0  0  0  0  0  0  0  0  0  0  0  0
    4.1119  -19.8361   22.8185 C   0  0  0  0  0  0  0  0  0  0  0  0
    3.3660  -20.7599   23.5696 C   0  0  0  0  0  0  0  0  0  0  0  0
    2.2198  -20.9826   22.9251 N   0  0  0  0  0  0  0  0  0  0  0  0
    2.1546  -20.2641   21.7886 C   0  0  0  0  0  0  0  0  0  0  0  0
    1.1941  -20.1627   20.8033 C   0  0  0  0  0  0  0  0  0  0  0  0
    1.4277  -19.3252   19.7290 C   0  0  0  0  0  0  0  0  0  0  0  0
    2.5811  -18.6049   19.6284 C   0  0  0  0  0  0  0  0  0  0  0  0
    3.5202  -18.7179   20.6134 C   0  0  0  0  0  0  0  0  0  0  0  0
    3.3392  -19.5484   21.7240 C   0  0  0  0  0  0  0  0  0  0  0  0
    7.0394  -17.4637   22.6110 C   0  0  0  0  0  0  0  0  0  0  0  0
    8.2717  -17.6323   22.4317 O   0  0  0  0  0  0  0  0  0  0  0  0
    8.1018  -12.3308   24.6735 C   0  0  0  0  0  0  0  0  0  0  0  0
    7.4965  -13.4071   25.5383 C   0  0  1  0  0  0  0  0  0  0  0  0
    6.5000  -12.7136   26.4803 C   0  0  0  0  0  0  0  0  0  0  0  0
    6.7085  -14.4078   24.7580 C   0  0  0  0  0  0  0  0  0  0  0  0
    7.5132  -15.3922   23.9786 C   0  0  2  0  0  0  0  0  0  0  0  0
    6.6249  -16.2669   23.2600 N   0  0  0  0  0  0  0  0  0  0  0  0
    8.3802  -16.2058   24.8813 C   0  0  0  0  0  0  0  0  0  0  0  0
    8.0065  -17.3196   25.3409 O   0  0  0  0  0  0  0  0  0  0  0  0
    9.6759  -15.7785   25.2783 N   0  0  0  0  0  0  0  0  0  0  0  0
   10.7808  -16.7077   25.5298 C   0  0  1  0  0  0  0  0  0  0  0  0
   11.8350  -16.0870   26.3778 C   0  0  0  0  0  0  0  0  0  0  0  0
   11.2249  -15.3609   27.5079 C   0  0  0  0  0  0  0  0  0  0  0  0
   11.1470  -15.8343   28.7988 C   0  0  0  0  0  0  0  0  0  0  0  0
   10.5704  -15.1177   29.8342 C   0  0  0  0  0  0  0  0  0  0  0  0
   10.0430  -13.8701   29.5849 C   0  0  0  0  0  0  0  0  0  0  0  0
   10.0993  -13.3556   28.3034 C   0  0  0  0  0  0  0  0  0  0  0  0
   10.6793  -14.0897   27.2892 C   0  0  0  0  0  0  0  0  0  0  0  0
   10.2084  -17.9317   26.0926 C   0  0  0  0  0  0  0  0  0  0  0  0
    9.2745  -17.8613   27.1063 O   0  0  0  0  0  0  0  0  0  0  0  0
   10.5525  -19.0509   25.6685 O   0  0  0  0  0  0  0  0  0  0  0  0
  2  1  1  1
  3  2  1  0
  4  3  1  0
  5  4  2  0
  6  5  1  0
  7  6  1  0
  7 12  2  0
  8  7  1  0
  9  8  2  0
  9 10  1  0
 10 11  2  0
 11 12  1  0
 12  4  1  0
 13 14  2  0
 13  2  1  0
 16 15  1  6
 16 17  1  0
 16 18  1  0
 19 18  1  1
 19 21  1  0
 19 20  1  0
 20 13  1  0
 21 23  1  0
 22 21  2  0
 23 24  1  0
 24 25  1  1
 25 26  1  0
 26 27  2  0
 27 28  1  0
 29 28  2  0
 30 29  1  0
 31 26  1  0
 31 30  2  0
 32 33  1  0
 32 24  1  0
 34 32  2  0
M  END
$$$$
