WLF.pdb
     RDKit          3D

 34 36  0  0  1  0  0  0  0  0999 V2000
    6.7654  -20.4571   24.6395 N   0  0  0  0  0  0  0  0  0  0  0  0
    7.3398  -19.1298   24.8117 C   0  0  1  0  0  0  0  0  0  0  0  0
    8.5188  -19.2070   25.7290 C   0  0  0  0  0  0  0  0  0  0  0  0
    8.2240  -19.2026   27.1611 C   0  0  0  0  0  0  0  0  0  0  0  0
    7.5053  -20.1957   27.8476 C   0  0  0  0  0  0  0  0  0  0  0  0
    7.4664  -19.8569   29.1370 N   0  0  0  0  0  0  0  0  0  0  0  0
    8.1151  -18.6974   29.3538 C   0  0  0  0  0  0  0  0  0  0  0  0
    8.3383  -17.9528   30.4937 C   0  0  0  0  0  0  0  0  0  0  0  0
    9.0506  -16.7729   30.3897 C   0  0  0  0  0  0  0  0  0  0  0  0
    9.5312  -16.3375   29.1903 C   0  0  0  0  0  0  0  0  0  0  0  0
    9.3007  -17.0879   28.0729 C   0  0  0  0  0  0  0  0  0  0  0  0
    8.5875  -18.2901   28.1166 C   0  0  0  0  0  0  0  0  0  0  0  0
    7.5151  -18.3806   23.5739 C   0  0  0  0  0  0  0  0  0  0  0  0
    8.0881  -18.9517   22.6125 O   0  0  0  0  0  0  0  0  0  0  0  0
    7.7997  -14.2624   20.0917 C   0  0  0  0  0  0  0  0  0  0  0  0
    7.4885  -13.8126   21.4965 C   0  0  1  0  0  0  0  0  0  0  0  0
    6.4128  -12.7208   21.3864 C   0  0  0  0  0  0  0  0  0  0  0  0
    6.9006  -14.8967   22.3393 C   0  0  0  0  0  0  0  0  0  0  0  0
    7.7866  -16.0709   22.5849 C   0  0  2  0  0  0  0  0  0  0  0  0
    7.0792  -17.0397   23.3797 N   0  0  0  0  0  0  0  0  0  0  0  0
    9.0295  -15.6601   23.3023 C   0  0  0  0  0  0  0  0  0  0  0  0
    9.9784  -15.0742   22.7126 O   0  0  0  0  0  0  0  0  0  0  0  0
    9.2215  -15.9023   24.6892 N   0  0  0  0  0  0  0  0  0  0  0  0
   10.3144  -15.3036   25.4605 C   0  0  1  0  0  0  0  0  0  0  0  0
    9.8100  -14.6151   26.6799 C   0  0  0  0  0  0  0  0  0  0  0  0
    8.7459  -13.6563   26.3264 C   0  0  0  0  0  0  0  0  0  0  0  0
    7.3956  -13.9209   26.3843 C   0  0  0  0  0  0  0  0  0  0  0  0
    6.4269  -12.9899   26.0488 C   0  0  0  0  0  0  0  0  0  0  0  0
    6.8080  -11.7329   25.6347 C   0  0  0  0  0  0  0  0  0  0  0  0
    8.1531  -11.4237   25.5616 C   0  0  0  0  0  0  0  0  0  0  0  0
    9.0988  -12.3692   25.9015 C   0  0  0  0  0  0  0  0  0  0  0  0
   11.2910  -16.3592   25.7340 C   0  0  0  0  0  0  0  0  0  0  0  0
   11.0456  -17.6560   25.3306 O   0  0  0  0  0  0  0  0  0  0  0  0
   12.3537  -16.1063   26.3319 O   0  0  0  0  0  0  0  0  0  0  0  0
  2  1  1  6
  3  2  1  0
  4  3  1  0
  5  4  2  0
  6  5  1  0
  7  6  1  0
  7 12  2  0
  8  7  1  0
  9  8  2  0
  9 10  1  0
 10 11  2  0
 11 12  1  0
 12  4  1  0
 13 14  2  0
 13  2  1  0
 16 15  1  6
 16 17  1  0
 16 18  1  0
 19 18  1  1
 19 21  1  0
 19 20  1  0
 20 13  1  0
 21 23  1  0
 22 21  2  0
 23 24  1  0
 24 25  1  1
 25 26  1  0
 26 27  2  0
 27 28  1  0
 29 28  2  0
 30 29  1  0
 31 26  1  0
 31 30  2  0
 32 33  1  0
 32 24  1  0
 34 32  2  0
M  END
$$$$
