WLF.pdb
     RDKit          3D

 34 36  0  0  1  0  0  0  0  0999 V2000
    6.7536  -17.9392   25.0706 N   0  0  0  0  0  0  0  0  0  0  0  0
    7.1798  -16.6228   24.6157 C   0  0  1  0  0  0  0  0  0  0  0  0
    7.4922  -15.7592   25.7965 C   0  0  0  0  0  0  0  0  0  0  0  0
    6.4285  -14.8577   26.2363 C   0  0  0  0  0  0  0  0  0  0  0  0
    5.4046  -15.1861   27.1407 C   0  0  0  0  0  0  0  0  0  0  0  0
    4.6462  -14.1027   27.3133 N   0  0  0  0  0  0  0  0  0  0  0  0
    5.1008  -13.0702   26.5787 C   0  0  0  0  0  0  0  0  0  0  0  0
    4.6597  -11.7725   26.4209 C   0  0  0  0  0  0  0  0  0  0  0  0
    5.3514  -10.9328   25.5685 C   0  0  0  0  0  0  0  0  0  0  0  0
    6.4518  -11.3625   24.8876 C   0  0  0  0  0  0  0  0  0  0  0  0
    6.8738  -12.6502   25.0566 C   0  0  0  0  0  0  0  0  0  0  0  0
    6.2150  -13.5450   25.9059 C   0  0  0  0  0  0  0  0  0  0  0  0
    8.1586  -16.6429   23.5359 C   0  0  0  0  0  0  0  0  0  0  0  0
    8.8451  -17.6836   23.3787 O   0  0  0  0  0  0  0  0  0  0  0  0
    7.9948  -12.2135   20.2815 C   0  0  0  0  0  0  0  0  0  0  0  0
    7.9486  -13.5832   20.9097 C   0  0  1  0  0  0  0  0  0  0  0  0
    6.8996  -14.3941   20.1331 C   0  0  0  0  0  0  0  0  0  0  0  0
    9.2362  -14.3289   20.7783 C   0  0  0  0  0  0  0  0  0  0  0  0
    9.3211  -15.6040   21.5471 C   0  0  2  0  0  0  0  0  0  0  0  0
    8.3902  -15.5587   22.6436 N   0  0  0  0  0  0  0  0  0  0  0  0
   10.6992  -15.8139   22.0808 C   0  0  0  0  0  0  0  0  0  0  0  0
   11.7141  -15.8060   21.3316 O   0  0  0  0  0  0  0  0  0  0  0  0
   10.9539  -16.0350   23.4612 N   0  0  0  0  0  0  0  0  0  0  0  0
   12.3029  -16.2091   24.0064 C   0  0  1  0  0  0  0  0  0  0  0  0
   12.5241  -15.3517   25.2029 C   0  0  0  0  0  0  0  0  0  0  0  0
   11.6856  -15.8104   26.3267 C   0  0  0  0  0  0  0  0  0  0  0  0
   12.0579  -16.7610   27.2510 C   0  0  0  0  0  0  0  0  0  0  0  0
   11.2422  -17.1603   28.2965 C   0  0  0  0  0  0  0  0  0  0  0  0
    9.9949  -16.5940   28.4389 C   0  0  0  0  0  0  0  0  0  0  0  0
    9.5799  -15.6356   27.5336 C   0  0  0  0  0  0  0  0  0  0  0  0
   10.4117  -15.2550   26.5005 C   0  0  0  0  0  0  0  0  0  0  0  0
   12.4973  -17.6386   24.2544 C   0  0  0  0  0  0  0  0  0  0  0  0
   11.4984  -18.5403   23.9482 O   0  0  0  0  0  0  0  0  0  0  0  0
   13.5613  -18.0627   24.7431 O   0  0  0  0  0  0  0  0  0  0  0  0
  2  1  1  1
  3  2  1  0
  4  3  1  0
  5  4  2  0
  6  5  1  0
  7  6  1  0
  7 12  2  0
  8  7  1  0
  9  8  2  0
  9 10  1  0
 10 11  2  0
 11 12  1  0
 12  4  1  0
 13 14  2  0
 13  2  1  0
 16 15  1  6
 16 17  1  0
 16 18  1  0
 19 18  1  1
 19 21  1  0
 19 20  1  0
 20 13  1  0
 21 23  1  0
 22 21  2  0
 23 24  1  0
 24 25  1  1
 25 26  1  0
 26 27  2  0
 27 28  1  0
 29 28  2  0
 30 29  1  0
 31 26  1  0
 31 30  2  0
 32 33  1  0
 32 24  1  0
 34 32  2  0
M  END
$$$$
