WLF.pdb
     RDKit          3D

 34 36  0  0  1  0  0  0  0  0999 V2000
    5.8484  -18.5017   23.1135 N   0  0  0  0  0  0  0  0  0  0  0  0
    6.6707  -17.3554   23.4758 C   0  0  1  0  0  0  0  0  0  0  0  0
    6.9648  -17.3907   24.9420 C   0  0  0  0  0  0  0  0  0  0  0  0
    6.7515  -16.1428   25.6735 C   0  0  0  0  0  0  0  0  0  0  0  0
    5.6600  -15.8681   26.5144 C   0  0  0  0  0  0  0  0  0  0  0  0
    5.8290  -14.6456   27.0202 N   0  0  0  0  0  0  0  0  0  0  0  0
    6.9670  -14.0864   26.5680 C   0  0  0  0  0  0  0  0  0  0  0  0
    7.5583  -12.8608   26.7956 C   0  0  0  0  0  0  0  0  0  0  0  0
    8.7523  -12.5696   26.1633 C   0  0  0  0  0  0  0  0  0  0  0  0
    9.3491  -13.4655   25.3264 C   0  0  0  0  0  0  0  0  0  0  0  0
    8.7493  -14.6736   25.1135 C   0  0  0  0  0  0  0  0  0  0  0  0
    7.5417  -15.0245   25.7256 C   0  0  0  0  0  0  0  0  0  0  0  0
    7.7965  -17.1114   22.5829 C   0  0  0  0  0  0  0  0  0  0  0  0
    8.3941  -18.1052   22.0987 O   0  0  0  0  0  0  0  0  0  0  0  0
    8.1626  -12.3361   19.8580 C   0  0  0  0  0  0  0  0  0  0  0  0
    8.1556  -13.7722   20.3165 C   0  0  1  0  0  0  0  0  0  0  0  0
    7.9665  -14.6393   19.0621 C   0  0  0  0  0  0  0  0  0  0  0  0
    9.4512  -14.1958   20.9274 C   0  0  0  0  0  0  0  0  0  0  0  0
    9.4780  -15.5803   21.4808 C   0  0  2  0  0  0  0  0  0  0  0  0
    8.2669  -15.8180   22.2208 N   0  0  0  0  0  0  0  0  0  0  0  0
   10.6511  -15.7708   22.3840 C   0  0  0  0  0  0  0  0  0  0  0  0
   11.8214  -15.4555   22.0344 O   0  0  0  0  0  0  0  0  0  0  0  0
   10.5240  -16.3173   23.6895 N   0  0  0  0  0  0  0  0  0  0  0  0
   11.6341  -16.3697   24.6447 C   0  0  1  0  0  0  0  0  0  0  0  0
   11.1909  -16.8806   25.9707 C   0  0  0  0  0  0  0  0  0  0  0  0
   10.2479  -15.9349   26.5975 C   0  0  0  0  0  0  0  0  0  0  0  0
   10.2871  -14.5665   26.4468 C   0  0  0  0  0  0  0  0  0  0  0  0
    9.3782  -13.7125   27.0487 C   0  0  0  0  0  0  0  0  0  0  0  0
    8.3787  -14.2333   27.8403 C   0  0  0  0  0  0  0  0  0  0  0  0
    8.3016  -15.6016   28.0194 C   0  0  0  0  0  0  0  0  0  0  0  0
    9.2195  -16.4311   27.4086 C   0  0  0  0  0  0  0  0  0  0  0  0
   12.7064  -17.1557   24.0322 C   0  0  0  0  0  0  0  0  0  0  0  0
   12.5063  -17.7773   22.8163 O   0  0  0  0  0  0  0  0  0  0  0  0
   13.8109  -17.2760   24.5947 O   0  0  0  0  0  0  0  0  0  0  0  0
  2  1  1  6
  3  2  1  0
  4  3  1  0
  5  4  2  0
  6  5  1  0
  7  6  1  0
  7 12  2  0
  8  7  1  0
  9  8  2  0
  9 10  1  0
 10 11  2  0
 11 12  1  0
 12  4  1  0
 13 14  2  0
 13  2  1  0
 16 15  1  6
 16 17  1  0
 16 18  1  0
 19 18  1  1
 19 21  1  0
 19 20  1  0
 20 13  1  0
 21 23  1  0
 22 21  2  0
 23 24  1  0
 24 25  1  1
 25 26  1  0
 26 27  2  0
 27 28  1  0
 29 28  2  0
 30 29  1  0
 31 26  1  0
 31 30  2  0
 32 33  1  0
 32 24  1  0
 34 32  2  0
M  END
$$$$
