WLF.pdb
     RDKit          3D

 34 36  0  0  1  0  0  0  0  0999 V2000
    5.8879  -18.2280   23.8549 N   0  0  0  0  0  0  0  0  0  0  0  0
    6.7066  -17.0246   23.9087 C   0  0  1  0  0  0  0  0  0  0  0  0
    7.0893  -16.7395   25.3264 C   0  0  0  0  0  0  0  0  0  0  0  0
    6.5098  -15.5365   25.9220 C   0  0  0  0  0  0  0  0  0  0  0  0
    5.3108  -15.4862   26.6528 C   0  0  0  0  0  0  0  0  0  0  0  0
    5.1274  -14.2277   27.0544 N   0  0  0  0  0  0  0  0  0  0  0  0
    6.1309  -13.4337   26.6361 C   0  0  0  0  0  0  0  0  0  0  0  0
    6.3802  -12.0857   26.7917 C   0  0  0  0  0  0  0  0  0  0  0  0
    7.5201  -11.5492   26.2234 C   0  0  0  0  0  0  0  0  0  0  0  0
    8.3934  -12.3233   25.5182 C   0  0  0  0  0  0  0  0  0  0  0  0
    8.1302  -13.6556   25.3749 C   0  0  0  0  0  0  0  0  0  0  0  0
    6.9937  -14.2545   25.9278 C   0  0  0  0  0  0  0  0  0  0  0  0
    7.7713  -16.9717   22.9147 C   0  0  0  0  0  0  0  0  0  0  0  0
    8.3106  -18.0520   22.5670 O   0  0  0  0  0  0  0  0  0  0  0  0
    8.1034  -12.4333   19.8769 C   0  0  0  0  0  0  0  0  0  0  0  0
    8.0486  -13.8488   20.3927 C   0  0  1  0  0  0  0  0  0  0  0  0
    7.5020  -14.7184   19.2498 C   0  0  0  0  0  0  0  0  0  0  0  0
    9.3955  -14.3991   20.7306 C   0  0  0  0  0  0  0  0  0  0  0  0
    9.3936  -15.7073   21.4465 C   0  0  2  0  0  0  0  0  0  0  0  0
    8.2433  -15.7736   22.3086 N   0  0  0  0  0  0  0  0  0  0  0  0
   10.6313  -15.8688   22.2652 C   0  0  0  0  0  0  0  0  0  0  0  0
   11.6845  -15.2195   22.0190 O   0  0  0  0  0  0  0  0  0  0  0  0
   10.7009  -16.7606   23.3692 N   0  0  0  0  0  0  0  0  0  0  0  0
   11.7286  -16.6648   24.4095 C   0  0  1  0  0  0  0  0  0  0  0  0
   11.2327  -17.1754   25.7168 C   0  0  0  0  0  0  0  0  0  0  0  0
   10.5647  -16.0973   26.4704 C   0  0  0  0  0  0  0  0  0  0  0  0
    9.8269  -16.2789   27.6190 C   0  0  0  0  0  0  0  0  0  0  0  0
    9.2196  -15.2377   28.3009 C   0  0  0  0  0  0  0  0  0  0  0  0
    9.3453  -13.9508   27.8266 C   0  0  0  0  0  0  0  0  0  0  0  0
   10.0770  -13.7223   26.6765 C   0  0  0  0  0  0  0  0  0  0  0  0
   10.6725  -14.7770   26.0156 C   0  0  0  0  0  0  0  0  0  0  0  0
   12.9219  -17.3538   23.9154 C   0  0  0  0  0  0  0  0  0  0  0  0
   12.8712  -18.0793   22.7425 O   0  0  0  0  0  0  0  0  0  0  0  0
   13.9969  -17.2971   24.5416 O   0  0  0  0  0  0  0  0  0  0  0  0
  2  1  1  1
  3  2  1  0
  4  3  1  0
  5  4  2  0
  6  5  1  0
  7  6  1  0
  7 12  2  0
  8  7  1  0
  9  8  2  0
  9 10  1  0
 10 11  2  0
 11 12  1  0
 12  4  1  0
 13 14  2  0
 13  2  1  0
 16 15  1  6
 16 17  1  0
 16 18  1  0
 19 18  1  1
 19 21  1  0
 19 20  1  0
 20 13  1  0
 21 23  1  0
 22 21  2  0
 23 24  1  0
 24 25  1  1
 25 26  1  0
 26 27  2  0
 27 28  1  0
 29 28  2  0
 30 29  1  0
 31 26  1  0
 31 30  2  0
 32 33  1  0
 32 24  1  0
 34 32  2  0
M  END
$$$$
