WLF.pdb
     RDKit          3D

 34 36  0  0  1  0  0  0  0  0999 V2000
    5.9739  -18.6573   23.6060 N   0  0  0  0  0  0  0  0  0  0  0  0
    6.5675  -17.3327   23.4848 C   0  0  1  0  0  0  0  0  0  0  0  0
    6.6836  -16.7077   24.8389 C   0  0  0  0  0  0  0  0  0  0  0  0
    5.8238  -15.5528   25.0927 C   0  0  0  0  0  0  0  0  0  0  0  0
    4.4777  -15.6115   25.4910 C   0  0  0  0  0  0  0  0  0  0  0  0
    4.0412  -14.3610   25.6482 N   0  0  0  0  0  0  0  0  0  0  0  0
    5.0139  -13.4701   25.3787 C   0  0  0  0  0  0  0  0  0  0  0  0
    5.0452  -12.0909   25.3935 C   0  0  0  0  0  0  0  0  0  0  0  0
    6.2196  -11.4476   25.0512 C   0  0  0  0  0  0  0  0  0  0  0  0
    7.3366  -12.1476   24.7024 C   0  0  0  0  0  0  0  0  0  0  0  0
    7.2867  -13.5122   24.6937 C   0  0  0  0  0  0  0  0  0  0  0  0
    6.1273  -14.2179   25.0311 C   0  0  0  0  0  0  0  0  0  0  0  0
    7.7447  -17.2728   22.6275 C   0  0  0  0  0  0  0  0  0  0  0  0
    8.4472  -18.3084   22.5137 O   0  0  0  0  0  0  0  0  0  0  0  0
    8.6439  -12.2929   20.3720 C   0  0  0  0  0  0  0  0  0  0  0  0
    8.4181  -13.6644   20.9557 C   0  0  1  0  0  0  0  0  0  0  0  0
    7.1843  -14.2504   20.2517 C   0  0  0  0  0  0  0  0  0  0  0  0
    9.5438  -14.6073   20.6824 C   0  0  0  0  0  0  0  0  0  0  0  0
    9.4915  -15.9014   21.4217 C   0  0  2  0  0  0  0  0  0  0  0  0
    8.1540  -16.1155   21.9075 N   0  0  0  0  0  0  0  0  0  0  0  0
   10.4382  -15.8946   22.5759 C   0  0  0  0  0  0  0  0  0  0  0  0
   11.6758  -15.7036   22.4235 O   0  0  0  0  0  0  0  0  0  0  0  0
   10.0067  -16.1021   23.9137 N   0  0  0  0  0  0  0  0  0  0  0  0
   10.8769  -15.8952   25.0745 C   0  0  1  0  0  0  0  0  0  0  0  0
   10.0912  -15.5662   26.2952 C   0  0  0  0  0  0  0  0  0  0  0  0
   10.9798  -15.4722   27.4692 C   0  0  0  0  0  0  0  0  0  0  0  0
   12.3265  -15.1888   27.4175 C   0  0  0  0  0  0  0  0  0  0  0  0
   13.1258  -15.1037   28.5453 C   0  0  0  0  0  0  0  0  0  0  0  0
   12.5697  -15.3085   29.7885 C   0  0  0  0  0  0  0  0  0  0  0  0
   11.2213  -15.5957   29.8873 C   0  0  0  0  0  0  0  0  0  0  0  0
   10.4466  -15.6749   28.7483 C   0  0  0  0  0  0  0  0  0  0  0  0
   11.7195  -17.0843   25.2116 C   0  0  0  0  0  0  0  0  0  0  0  0
   12.9778  -16.9852   25.7699 O   0  0  0  0  0  0  0  0  0  0  0  0
   11.3174  -18.1991   24.8289 O   0  0  0  0  0  0  0  0  0  0  0  0
  2  1  1  1
  3  2  1  0
  4  3  1  0
  5  4  2  0
  6  5  1  0
  7  6  1  0
  7 12  2  0
  8  7  1  0
  9  8  2  0
  9 10  1  0
 10 11  2  0
 11 12  1  0
 12  4  1  0
 13 14  2  0
 13  2  1  0
 16 15  1  6
 16 17  1  0
 16 18  1  0
 19 18  1  1
 19 21  1  0
 19 20  1  0
 20 13  1  0
 21 23  1  0
 22 21  2  0
 23 24  1  0
 24 25  1  1
 25 26  1  0
 26 27  2  0
 27 28  1  0
 29 28  2  0
 30 29  1  0
 31 26  1  0
 31 30  2  0
 32 33  1  0
 32 24  1  0
 34 32  2  0
M  END
$$$$
