WLF.pdb
     RDKit          3D

 34 36  0  0  1  0  0  0  0  0999 V2000
    6.1263  -19.6995   24.5912 N   0  0  0  0  0  0  0  0  0  0  0  0
    7.0729  -18.6199   24.8355 C   0  0  1  0  0  0  0  0  0  0  0  0
    8.1401  -19.0891   25.7728 C   0  0  0  0  0  0  0  0  0  0  0  0
    7.9521  -18.7560   27.1840 C   0  0  0  0  0  0  0  0  0  0  0  0
    7.1235  -19.4505   28.0813 C   0  0  0  0  0  0  0  0  0  0  0  0
    7.2344  -18.8690   29.2764 N   0  0  0  0  0  0  0  0  0  0  0  0
    8.0865  -17.8276   29.2322 C   0  0  0  0  0  0  0  0  0  0  0  0
    8.5141  -16.9314   30.1900 C   0  0  0  0  0  0  0  0  0  0  0  0
    9.4094  -15.9436   29.8255 C   0  0  0  0  0  0  0  0  0  0  0  0
    9.8721  -15.8419   28.5468 C   0  0  0  0  0  0  0  0  0  0  0  0
    9.4379  -16.7381   27.6125 C   0  0  0  0  0  0  0  0  0  0  0  0
    8.5334  -17.7588   27.9225 C   0  0  0  0  0  0  0  0  0  0  0  0
    7.5108  -17.9157   23.6369 C   0  0  0  0  0  0  0  0  0  0  0  0
    7.8976  -18.5999   22.6565 O   0  0  0  0  0  0  0  0  0  0  0  0
    5.9942  -13.5416   20.8186 C   0  0  0  0  0  0  0  0  0  0  0  0
    6.5822  -14.8024   21.3991 C   0  0  1  0  0  0  0  0  0  0  0  0
    6.9349  -15.7158   20.2147 C   0  0  0  0  0  0  0  0  0  0  0  0
    7.8578  -14.5643   22.1390 C   0  0  0  0  0  0  0  0  0  0  0  0
    8.4997  -15.7787   22.7196 C   0  0  2  0  0  0  0  0  0  0  0  0
    7.5299  -16.4991   23.5013 N   0  0  0  0  0  0  0  0  0  0  0  0
    9.6542  -15.4071   23.5898 C   0  0  0  0  0  0  0  0  0  0  0  0
   10.7086  -14.8986   23.1196 O   0  0  0  0  0  0  0  0  0  0  0  0
    9.6384  -15.6019   24.9972 N   0  0  0  0  0  0  0  0  0  0  0  0
   10.6746  -15.0729   25.8882 C   0  0  1  0  0  0  0  0  0  0  0  0
   10.0852  -14.4664   27.1131 C   0  0  0  0  0  0  0  0  0  0  0  0
    8.8932  -13.6678   26.7693 C   0  0  0  0  0  0  0  0  0  0  0  0
    8.9203  -12.4381   26.1500 C   0  0  0  0  0  0  0  0  0  0  0  0
    7.7765  -11.7221   25.8388 C   0  0  0  0  0  0  0  0  0  0  0  0
    6.5418  -12.2445   26.1541 C   0  0  0  0  0  0  0  0  0  0  0  0
    6.4675  -13.4763   26.7767 C   0  0  0  0  0  0  0  0  0  0  0  0
    7.6222  -14.1698   27.0760 C   0  0  0  0  0  0  0  0  0  0  0  0
   11.6207  -16.1571   26.1572 C   0  0  0  0  0  0  0  0  0  0  0  0
   12.8157  -15.8957   26.7961 O   0  0  0  0  0  0  0  0  0  0  0  0
   11.3645  -17.3270   25.8158 O   0  0  0  0  0  0  0  0  0  0  0  0
  2  1  1  6
  3  2  1  0
  4  3  1  0
  5  4  2  0
  6  5  1  0
  7  6  1  0
  7 12  2  0
  8  7  1  0
  9  8  2  0
  9 10  1  0
 10 11  2  0
 11 12  1  0
 12  4  1  0
 13 14  2  0
 13  2  1  0
 16 15  1  6
 16 17  1  0
 16 18  1  0
 19 18  1  1
 19 21  1  0
 19 20  1  0
 20 13  1  0
 21 23  1  0
 22 21  2  0
 23 24  1  0
 24 25  1  1
 25 26  1  0
 26 27  2  0
 27 28  1  0
 29 28  2  0
 30 29  1  0
 31 26  1  0
 31 30  2  0
 32 33  1  0
 32 24  1  0
 34 32  2  0
M  END
$$$$
