WLF.pdb
     RDKit          3D

 34 36  0  0  1  0  0  0  0  0999 V2000
    6.3385  -19.3221   22.1960 N   0  0  0  0  0  0  0  0  0  0  0  0
    6.5638  -17.9854   22.7285 C   0  0  1  0  0  0  0  0  0  0  0  0
    6.1967  -17.9529   24.1782 C   0  0  0  0  0  0  0  0  0  0  0  0
    6.1766  -16.6343   24.8097 C   0  0  0  0  0  0  0  0  0  0  0  0
    5.3845  -15.5480   24.4017 C   0  0  0  0  0  0  0  0  0  0  0  0
    5.6203  -14.5327   25.2338 N   0  0  0  0  0  0  0  0  0  0  0  0
    6.5222  -14.8744   26.1729 C   0  0  0  0  0  0  0  0  0  0  0  0
    7.0808  -14.1796   27.2259 C   0  0  0  0  0  0  0  0  0  0  0  0
    8.0084  -14.8176   28.0276 C   0  0  0  0  0  0  0  0  0  0  0  0
    8.3766  -16.1100   27.7965 C   0  0  0  0  0  0  0  0  0  0  0  0
    7.8129  -16.7818   26.7498 C   0  0  0  0  0  0  0  0  0  0  0  0
    6.8689  -16.1889   25.9052 C   0  0  0  0  0  0  0  0  0  0  0  0
    7.8437  -17.3941   22.3588 C   0  0  0  0  0  0  0  0  0  0  0  0
    8.7769  -18.1655   22.0225 O   0  0  0  0  0  0  0  0  0  0  0  0
    7.6068  -12.1831   20.6289 C   0  0  0  0  0  0  0  0  0  0  0  0
    7.8410  -13.6618   20.8060 C   0  0  1  0  0  0  0  0  0  0  0  0
    8.0301  -14.2542   19.4008 C   0  0  0  0  0  0  0  0  0  0  0  0
    9.0926  -13.9677   21.5617 C   0  0  0  0  0  0  0  0  0  0  0  0
    9.3270  -15.4102   21.8588 C   0  0  2  0  0  0  0  0  0  0  0  0
    8.1090  -15.9959   22.3530 N   0  0  0  0  0  0  0  0  0  0  0  0
   10.4021  -15.5761   22.8809 C   0  0  0  0  0  0  0  0  0  0  0  0
   11.5978  -15.2450   22.6526 O   0  0  0  0  0  0  0  0  0  0  0  0
   10.1475  -16.1154   24.1707 N   0  0  0  0  0  0  0  0  0  0  0  0
   11.2093  -16.4094   25.1370 C   0  0  1  0  0  0  0  0  0  0  0  0
   10.7407  -16.2240   26.5376 C   0  0  0  0  0  0  0  0  0  0  0  0
   10.3561  -14.8187   26.7697 C   0  0  0  0  0  0  0  0  0  0  0  0
    9.3324  -14.1644   26.1212 C   0  0  0  0  0  0  0  0  0  0  0  0
    8.9990  -12.8440   26.3726 C   0  0  0  0  0  0  0  0  0  0  0  0
    9.7110  -12.1310   27.3114 C   0  0  0  0  0  0  0  0  0  0  0  0
   10.7472  -12.7481   27.9864 C   0  0  0  0  0  0  0  0  0  0  0  0
   11.0595  -14.0649   27.7176 C   0  0  0  0  0  0  0  0  0  0  0  0
   11.7071  -17.7556   24.8493 C   0  0  0  0  0  0  0  0  0  0  0  0
   12.8462  -18.2243   25.4718 O   0  0  0  0  0  0  0  0  0  0  0  0
   11.1145  -18.4963   24.0424 O   0  0  0  0  0  0  0  0  0  0  0  0
  2  1  1  1
  3  2  1  0
  4  3  1  0
  5  4  2  0
  6  5  1  0
  7  6  1  0
  7 12  2  0
  8  7  1  0
  9  8  2  0
  9 10  1  0
 10 11  2  0
 11 12  1  0
 12  4  1  0
 13 14  2  0
 13  2  1  0
 16 15  1  6
 16 17  1  0
 16 18  1  0
 19 18  1  1
 19 21  1  0
 19 20  1  0
 20 13  1  0
 21 23  1  0
 22 21  2  0
 23 24  1  0
 24 25  1  1
 25 26  1  0
 26 27  2  0
 27 28  1  0
 29 28  2  0
 30 29  1  0
 31 26  1  0
 31 30  2  0
 32 33  1  0
 32 24  1  0
 34 32  2  0
M  END
$$$$
