WLF.pdb
     RDKit          3D

 34 36  0  0  1  0  0  0  0  0999 V2000
    6.8432  -20.1402   23.2005 N   0  0  0  0  0  0  0  0  0  0  0  0
    6.8648  -18.7108   23.4791 C   0  0  1  0  0  0  0  0  0  0  0  0
    7.5756  -18.4608   24.7713 C   0  0  0  0  0  0  0  0  0  0  0  0
    7.0810  -19.1976   25.9333 C   0  0  0  0  0  0  0  0  0  0  0  0
    6.1722  -20.2683   25.8922 C   0  0  0  0  0  0  0  0  0  0  0  0
    5.9847  -20.6957   27.1416 N   0  0  0  0  0  0  0  0  0  0  0  0
    6.7127  -19.9753   28.0153 C   0  0  0  0  0  0  0  0  0  0  0  0
    6.8466  -20.0321   29.3873 C   0  0  0  0  0  0  0  0  0  0  0  0
    7.6852  -19.1288   30.0126 C   0  0  0  0  0  0  0  0  0  0  0  0
    8.3751  -18.1916   29.3021 C   0  0  0  0  0  0  0  0  0  0  0  0
    8.2301  -18.1507   27.9449 C   0  0  0  0  0  0  0  0  0  0  0  0
    7.3969  -19.0389   27.2572 C   0  0  0  0  0  0  0  0  0  0  0  0
    7.2458  -17.8785   22.3450 C   0  0  0  0  0  0  0  0  0  0  0  0
    8.0179  -18.3693   21.4836 O   0  0  0  0  0  0  0  0  0  0  0  0
    6.2845  -12.0969   20.2300 C   0  0  0  0  0  0  0  0  0  0  0  0
    7.2035  -13.2867   20.3410 C   0  0  1  0  0  0  0  0  0  0  0  0
    8.5525  -12.7611   20.8559 C   0  0  0  0  0  0  0  0  0  0  0  0
    6.7366  -14.2931   21.3411 C   0  0  0  0  0  0  0  0  0  0  0  0
    7.5386  -15.5485   21.4114 C   0  0  2  0  0  0  0  0  0  0  0  0
    6.8005  -16.5414   22.1463 N   0  0  0  0  0  0  0  0  0  0  0  0
    8.8471  -15.3079   22.0883 C   0  0  0  0  0  0  0  0  0  0  0  0
    9.8635  -14.9106   21.4555 O   0  0  0  0  0  0  0  0  0  0  0  0
    9.0295  -15.5104   23.4829 N   0  0  0  0  0  0  0  0  0  0  0  0
   10.2977  -15.2478   24.1686 C   0  0  1  0  0  0  0  0  0  0  0  0
   10.1361  -14.2364   25.2488 C   0  0  0  0  0  0  0  0  0  0  0  0
    8.8119  -14.3703   25.8851 C   0  0  0  0  0  0  0  0  0  0  0  0
    8.3947  -15.4615   26.6144 C   0  0  0  0  0  0  0  0  0  0  0  0
    7.1433  -15.5458   27.2015 C   0  0  0  0  0  0  0  0  0  0  0  0
    6.2567  -14.5011   27.0630 C   0  0  0  0  0  0  0  0  0  0  0  0
    6.6335  -13.3857   26.3389 C   0  0  0  0  0  0  0  0  0  0  0  0
    7.8862  -13.3262   25.7638 C   0  0  0  0  0  0  0  0  0  0  0  0
   10.8237  -16.5333   24.6308 C   0  0  0  0  0  0  0  0  0  0  0  0
   10.0836  -17.6868   24.4690 O   0  0  0  0  0  0  0  0  0  0  0  0
   11.9415  -16.6071   25.1748 O   0  0  0  0  0  0  0  0  0  0  0  0
  2  1  1  6
  3  2  1  0
  4  3  1  0
  5  4  2  0
  6  5  1  0
  7  6  1  0
  7 12  2  0
  8  7  1  0
  9  8  2  0
  9 10  1  0
 10 11  2  0
 11 12  1  0
 12  4  1  0
 13 14  2  0
 13  2  1  0
 16 15  1  1
 16 17  1  0
 16 18  1  0
 19 18  1  1
 19 21  1  0
 19 20  1  0
 20 13  1  0
 21 23  1  0
 22 21  2  0
 23 24  1  0
 24 25  1  1
 25 26  1  0
 26 27  2  0
 27 28  1  0
 29 28  2  0
 30 29  1  0
 31 26  1  0
 31 30  2  0
 32 33  1  0
 32 24  1  0
 34 32  2  0
M  END
$$$$
