LPP.pdb
     RDKit          3D

 23 24  0  0  1  0  0  0  0  0999 V2000
   11.3196  -14.8173   28.0880 C   0  0  0  0  0  0  0  0  0  0  0  0
    9.8398  -14.9974   28.2843 C   0  0  2  0  0  0  0  0  0  0  0  0
    9.4029  -14.1759   29.4970 C   0  0  0  0  0  0  0  0  0  0  0  0
    9.4601  -16.4388   28.4672 C   0  0  0  0  0  0  0  0  0  0  0  0
    7.9493  -16.5387   28.3921 C   0  0  2  0  0  0  0  0  0  0  0  0
    7.5930  -17.8713   28.8410 N   0  0  0  0  0  0  0  0  0  0  0  0
    7.4364  -16.2704   27.0278 C   0  0  0  0  0  0  0  0  0  0  0  0
    6.8993  -17.2636   26.4225 O   0  0  0  0  0  0  0  0  0  0  0  0
    7.5220  -14.9994   26.4058 N   0  0  0  0  0  0  0  0  0  0  0  0
    8.1382  -13.8252   26.9472 C   0  0  0  0  0  0  0  0  0  0  0  0
    7.0416  -12.7893   26.6360 C   0  0  0  0  0  0  0  0  0  0  0  0
    6.5365  -13.2380   25.2726 C   0  0  0  0  0  0  0  0  0  0  0  0
    6.9944  -14.6685   25.1232 C   0  0  1  0  0  0  0  0  0  0  0  0
    8.1034  -14.7451   24.1113 C   0  0  0  0  0  0  0  0  0  0  0  0
    9.2463  -14.4770   24.5299 O   0  0  0  0  0  0  0  0  0  0  0  0
    7.8521  -15.1000   22.7733 N   0  0  0  0  0  0  0  0  0  0  0  0
    6.4766  -15.1997   22.2300 C   0  0  0  0  0  0  0  0  0  0  0  0
    6.6506  -14.4171   20.9550 C   0  0  0  0  0  0  0  0  0  0  0  0
    8.0750  -14.6261   20.5249 C   0  0  0  0  0  0  0  0  0  0  0  0
    8.7031  -15.4344   21.7050 C   0  0  1  0  0  0  0  0  0  0  0  0
   10.1209  -15.1465   21.7677 C   0  0  0  0  0  0  0  0  0  0  0  0
   10.9959  -16.1238   21.2580 O   0  0  0  0  0  0  0  0  0  0  0  0
   10.6301  -14.1316   22.2228 O   0  0  0  0  0  0  0  0  0  0  0  0
  2  1  1  1
  2  3  1  0
  4  5  1  0
  4  2  1  0
  5  7  1  0
  5  6  1  6
  7  8  2  0
  9 13  1  0
  9  7  1  0
 10  9  1  0
 11 10  1  0
 11 12  1  0
 12 13  1  0
 13 14  1  6
 14 15  2  0
 16 14  1  0
 16 17  1  0
 17 18  1  0
 19 18  1  0
 20 16  1  0
 20 19  1  0
 20 21  1  1
 22 21  1  0
 23 21  2  0
M  END
$$$$
