LPP.pdb
     RDKit          3D

 23 24  0  0  1  0  0  0  0  0999 V2000
    8.3965  -20.0917   21.4253 C   0  0  0  0  0  0  0  0  0  0  0  0
    9.5041  -19.9870   22.4368 C   0  0  2  0  0  0  0  0  0  0  0  0
    9.3805  -21.1500   23.4208 C   0  0  0  0  0  0  0  0  0  0  0  0
    9.4828  -18.6778   23.1722 C   0  0  0  0  0  0  0  0  0  0  0  0
   10.0625  -17.6169   22.2576 C   0  0  2  0  0  0  0  0  0  0  0  0
   11.4685  -17.9306   22.0876 N   0  0  0  0  0  0  0  0  0  0  0  0
    9.8727  -16.2487   22.7946 C   0  0  0  0  0  0  0  0  0  0  0  0
   10.8736  -15.7428   23.4140 O   0  0  0  0  0  0  0  0  0  0  0  0
    8.6658  -15.5202   22.6455 N   0  0  0  0  0  0  0  0  0  0  0  0
    7.5274  -15.9068   21.8670 C   0  0  0  0  0  0  0  0  0  0  0  0
    7.2457  -14.5779   21.1409 C   0  0  0  0  0  0  0  0  0  0  0  0
    7.5442  -13.5417   22.2145 C   0  0  0  0  0  0  0  0  0  0  0  0
    8.3810  -14.2587   23.2460 C   0  0  1  0  0  0  0  0  0  0  0  0
    7.5687  -14.4892   24.4896 C   0  0  0  0  0  0  0  0  0  0  0  0
    6.7821  -15.4555   24.4590 O   0  0  0  0  0  0  0  0  0  0  0  0
    7.6988  -13.6556   25.6155 N   0  0  0  0  0  0  0  0  0  0  0  0
    8.6837  -12.5490   25.6665 C   0  0  0  0  0  0  0  0  0  0  0  0
    7.7977  -11.4451   26.1811 C   0  0  0  0  0  0  0  0  0  0  0  0
    6.7643  -12.1058   27.0489 C   0  0  0  0  0  0  0  0  0  0  0  0
    7.0419  -13.6314   26.8585 C   0  0  1  0  0  0  0  0  0  0  0  0
    5.8071  -14.3608   27.0596 C   0  0  0  0  0  0  0  0  0  0  0  0
    4.7972  -14.1885   26.0946 O   0  0  0  0  0  0  0  0  0  0  0  0
    5.5592  -15.1139   27.9911 O   0  0  0  0  0  0  0  0  0  0  0  0
  2  1  1  6
  2  3  1  0
  4  5  1  0
  4  2  1  0
  5  7  1  0
  5  6  1  1
  7  8  2  0
  9 13  1  0
  9  7  1  0
 10  9  1  0
 11 10  1  0
 11 12  1  0
 12 13  1  0
 13 14  1  1
 14 15  2  0
 16 14  1  0
 16 17  1  0
 17 18  1  0
 19 18  1  0
 20 16  1  0
 20 19  1  0
 20 21  1  6
 22 21  1  0
 23 21  2  0
M  END
$$$$
