LPP.pdb
     RDKit          3D

 23 24  0  0  1  0  0  0  0  0999 V2000
    8.6970  -18.0941   23.1021 C   0  0  0  0  0  0  0  0  0  0  0  0
    7.6259  -17.0679   22.8560 C   0  0  2  0  0  0  0  0  0  0  0  0
    6.2805  -17.7832   22.7357 C   0  0  0  0  0  0  0  0  0  0  0  0
    7.8925  -16.2491   21.6256 C   0  0  0  0  0  0  0  0  0  0  0  0
    7.5202  -14.8114   21.9296 C   0  0  2  0  0  0  0  0  0  0  0  0
    7.8370  -14.0355   20.7456 N   0  0  0  0  0  0  0  0  0  0  0  0
    8.2249  -14.2901   23.1246 C   0  0  0  0  0  0  0  0  0  0  0  0
    9.4474  -13.9478   22.9530 O   0  0  0  0  0  0  0  0  0  0  0  0
    7.6064  -14.1668   24.3943 N   0  0  0  0  0  0  0  0  0  0  0  0
    6.2520  -14.5013   24.7187 C   0  0  0  0  0  0  0  0  0  0  0  0
    5.8596  -13.2465   25.5213 C   0  0  0  0  0  0  0  0  0  0  0  0
    7.1319  -12.9347   26.2955 C   0  0  0  0  0  0  0  0  0  0  0  0
    8.2337  -13.6741   25.5761 C   0  0  1  0  0  0  0  0  0  0  0  0
    8.6873  -14.8435   26.4044 C   0  0  0  0  0  0  0  0  0  0  0  0
    7.9829  -15.8693   26.3361 O   0  0  0  0  0  0  0  0  0  0  0  0
    9.8416  -14.7709   27.2056 N   0  0  0  0  0  0  0  0  0  0  0  0
   10.6243  -13.5201   27.3476 C   0  0  0  0  0  0  0  0  0  0  0  0
   10.7824  -13.4891   28.8451 C   0  0  0  0  0  0  0  0  0  0  0  0
   10.8137  -14.9227   29.2940 C   0  0  0  0  0  0  0  0  0  0  0  0
   10.5146  -15.7260   27.9880 C   0  0  1  0  0  0  0  0  0  0  0  0
    9.8768  -16.9767   28.3432 C   0  0  0  0  0  0  0  0  0  0  0  0
    8.4784  -17.0455   28.2009 O   0  0  0  0  0  0  0  0  0  0  0  0
   10.4408  -17.9807   28.7560 O   0  0  0  0  0  0  0  0  0  0  0  0
  2  1  1  6
  2  3  1  0
  4  5  1  0
  4  2  1  0
  5  7  1  0
  5  6  1  6
  7  8  2  0
  9 13  1  0
  9  7  1  0
 10  9  1  0
 11 10  1  0
 11 12  1  0
 12 13  1  0
 13 14  1  1
 14 15  2  0
 16 14  1  0
 16 17  1  0
 17 18  1  0
 19 18  1  0
 20 16  1  0
 20 19  1  0
 20 21  1  1
 22 21  1  0
 23 21  2  0
M  END
$$$$
