LPP.pdb
     RDKit          3D

 23 24  0  0  1  0  0  0  0  0999 V2000
    6.3894  -17.8542   20.4349 C   0  0  0  0  0  0  0  0  0  0  0  0
    7.8175  -17.5088   20.7545 C   0  0  2  0  0  0  0  0  0  0  0  0
    8.6611  -18.7802   20.6642 C   0  0  0  0  0  0  0  0  0  0  0  0
    7.9626  -16.8826   22.1118 C   0  0  0  0  0  0  0  0  0  0  0  0
    7.9382  -15.3768   21.9383 C   0  0  2  0  0  0  0  0  0  0  0  0
    8.6591  -15.0826   20.7144 N   0  0  0  0  0  0  0  0  0  0  0  0
    8.5276  -14.6687   23.0991 C   0  0  0  0  0  0  0  0  0  0  0  0
    9.7106  -14.2053   22.9348 O   0  0  0  0  0  0  0  0  0  0  0  0
    7.8447  -14.4997   24.3298 N   0  0  0  0  0  0  0  0  0  0  0  0
    6.4910  -14.8734   24.6118 C   0  0  0  0  0  0  0  0  0  0  0  0
    6.0101  -13.5928   25.3199 C   0  0  0  0  0  0  0  0  0  0  0  0
    7.2302  -13.1822   26.1311 C   0  0  0  0  0  0  0  0  0  0  0  0
    8.3943  -13.9132   25.5075 C   0  0  1  0  0  0  0  0  0  0  0  0
    8.8549  -15.0124   26.4236 C   0  0  0  0  0  0  0  0  0  0  0  0
    8.2378  -16.0918   26.3376 O   0  0  0  0  0  0  0  0  0  0  0  0
    9.9217  -14.8208   27.3206 N   0  0  0  0  0  0  0  0  0  0  0  0
   10.6112  -13.5156   27.4569 C   0  0  0  0  0  0  0  0  0  0  0  0
   10.6247  -13.3921   28.9579 C   0  0  0  0  0  0  0  0  0  0  0  0
   10.6991  -14.7937   29.4942 C   0  0  0  0  0  0  0  0  0  0  0  0
   10.5735  -15.6855   28.2176 C   0  0  1  0  0  0  0  0  0  0  0  0
    9.9810  -16.9537   28.5887 C   0  0  0  0  0  0  0  0  0  0  0  0
   10.8541  -17.9600   29.0423 O   0  0  0  0  0  0  0  0  0  0  0  0
    8.7909  -17.2326   28.5448 O   0  0  0  0  0  0  0  0  0  0  0  0
  2  1  1  1
  2  3  1  0
  4  5  1  0
  4  2  1  0
  5  7  1  0
  5  6  1  6
  7  8  2  0
  9 13  1  0
  9  7  1  0
 10  9  1  0
 11 10  1  0
 11 12  1  0
 12 13  1  0
 13 14  1  1
 14 15  2  0
 16 14  1  0
 16 17  1  0
 17 18  1  0
 19 18  1  0
 20 16  1  0
 20 19  1  0
 20 21  1  1
 22 21  1  0
 23 21  2  0
M  END
$$$$
