LPP.pdb
     RDKit          3D

 23 24  0  0  1  0  0  0  0  0999 V2000
   10.2367  -18.8531   25.0424 C   0  0  0  0  0  0  0  0  0  0  0  0
    9.8021  -18.5636   23.6324 C   0  0  2  0  0  0  0  0  0  0  0  0
    9.0361  -19.7734   23.0977 C   0  0  0  0  0  0  0  0  0  0  0  0
   10.9610  -18.2417   22.7332 C   0  0  0  0  0  0  0  0  0  0  0  0
   10.4985  -17.2096   21.7237 C   0  0  2  0  0  0  0  0  0  0  0  0
   11.6203  -16.9526   20.8407 N   0  0  0  0  0  0  0  0  0  0  0  0
   10.0218  -15.9651   22.3720 C   0  0  0  0  0  0  0  0  0  0  0  0
   10.9208  -15.2361   22.9212 O   0  0  0  0  0  0  0  0  0  0  0  0
    8.6577  -15.5801   22.3973 N   0  0  0  0  0  0  0  0  0  0  0  0
    7.5597  -16.2939   21.8173 C   0  0  0  0  0  0  0  0  0  0  0  0
    6.8367  -15.1306   21.1127 C   0  0  0  0  0  0  0  0  0  0  0  0
    7.0062  -13.9856   22.1005 C   0  0  0  0  0  0  0  0  0  0  0  0
    8.1427  -14.3973   23.0044 C   0  0  1  0  0  0  0  0  0  0  0  0
    7.6096  -14.7470   24.3656 C   0  0  0  0  0  0  0  0  0  0  0  0
    7.1593  -15.9015   24.4976 O   0  0  0  0  0  0  0  0  0  0  0  0
    7.6242  -13.8160   25.4204 N   0  0  0  0  0  0  0  0  0  0  0  0
    8.0285  -12.4041   25.2191 C   0  0  0  0  0  0  0  0  0  0  0  0
    6.8994  -11.7126   25.9370 C   0  0  0  0  0  0  0  0  0  0  0  0
    6.4712  -12.6405   27.0385 C   0  0  0  0  0  0  0  0  0  0  0  0
    7.3198  -13.9281   26.7886 C   0  0  1  0  0  0  0  0  0  0  0  0
    6.5932  -15.0736   27.2956 C   0  0  0  0  0  0  0  0  0  0  0  0
    7.0258  -15.6153   28.5204 O   0  0  0  0  0  0  0  0  0  0  0  0
    5.6372  -15.6152   26.7582 O   0  0  0  0  0  0  0  0  0  0  0  0
  2  1  1  1
  2  3  1  0
  4  5  1  0
  4  2  1  0
  5  7  1  0
  5  6  1  6
  7  8  2  0
  9 13  1  0
  9  7  1  0
 10  9  1  0
 11 10  1  0
 11 12  1  0
 12 13  1  0
 13 14  1  1
 14 15  2  0
 16 14  1  0
 16 17  1  0
 17 18  1  0
 19 18  1  0
 20 16  1  0
 20 19  1  0
 20 21  1  6
 22 21  1  0
 23 21  2  0
M  END
$$$$
