LPP.pdb
     RDKit          3D

 23 24  0  0  1  0  0  0  0  0999 V2000
    7.2200  -18.1749   19.9730 C   0  0  0  0  0  0  0  0  0  0  0  0
    8.3065  -17.9729   20.9927 C   0  0  2  0  0  0  0  0  0  0  0  0
    8.8264  -19.3414   21.4322 C   0  0  0  0  0  0  0  0  0  0  0  0
    7.8330  -17.1887   22.1827 C   0  0  0  0  0  0  0  0  0  0  0  0
    8.0361  -15.7162   21.8847 C   0  0  2  0  0  0  0  0  0  0  0  0
    8.8631  -15.6379   20.6955 N   0  0  0  0  0  0  0  0  0  0  0  0
    8.6518  -14.9934   23.0225 C   0  0  0  0  0  0  0  0  0  0  0  0
    9.8641  -14.6130   22.8586 O   0  0  0  0  0  0  0  0  0  0  0  0
    7.9626  -14.7250   24.2319 N   0  0  0  0  0  0  0  0  0  0  0  0
    6.6186  -15.1050   24.5494 C   0  0  0  0  0  0  0  0  0  0  0  0
    6.1035  -13.7753   25.1320 C   0  0  0  0  0  0  0  0  0  0  0  0
    7.3112  -13.2576   25.8993 C   0  0  0  0  0  0  0  0  0  0  0  0
    8.4948  -14.0145   25.3477 C   0  0  1  0  0  0  0  0  0  0  0  0
    8.9821  -15.0087   26.3644 C   0  0  0  0  0  0  0  0  0  0  0  0
    8.4605  -16.1397   26.3184 O   0  0  0  0  0  0  0  0  0  0  0  0
    9.9698  -14.6695   27.3071 N   0  0  0  0  0  0  0  0  0  0  0  0
   10.5308  -13.3007   27.4019 C   0  0  0  0  0  0  0  0  0  0  0  0
   10.4400  -13.0925   28.8909 C   0  0  0  0  0  0  0  0  0  0  0  0
   10.6052  -14.4490   29.5156 C   0  0  0  0  0  0  0  0  0  0  0  0
   10.6389  -15.4187   28.2911 C   0  0  1  0  0  0  0  0  0  0  0  0
   10.1395  -16.7134   28.7051 C   0  0  0  0  0  0  0  0  0  0  0  0
    8.7883  -16.9960   28.4314 O   0  0  0  0  0  0  0  0  0  0  0  0
   10.7832  -17.5859   29.2714 O   0  0  0  0  0  0  0  0  0  0  0  0
  2  1  1  6
  2  3  1  0
  4  5  1  0
  4  2  1  0
  5  7  1  0
  5  6  1  6
  7  8  2  0
  9 13  1  0
  9  7  1  0
 10  9  1  0
 11 10  1  0
 11 12  1  0
 12 13  1  0
 13 14  1  1
 14 15  2  0
 16 14  1  0
 16 17  1  0
 17 18  1  0
 19 18  1  0
 20 16  1  0
 20 19  1  0
 20 21  1  1
 22 21  1  0
 23 21  2  0
M  END
$$$$
