LPP.pdb
     RDKit          3D

 23 24  0  0  1  0  0  0  0  0999 V2000
   11.0604  -14.9176   27.2754 C   0  0  0  0  0  0  0  0  0  0  0  0
    9.7905  -14.9907   28.0772 C   0  0  2  0  0  0  0  0  0  0  0  0
    9.9678  -14.1659   29.3517 C   0  0  0  0  0  0  0  0  0  0  0  0
    9.4125  -16.4033   28.4190 C   0  0  0  0  0  0  0  0  0  0  0  0
    7.8997  -16.4996   28.4073 C   0  0  2  0  0  0  0  0  0  0  0  0
    7.5583  -17.8190   28.9043 N   0  0  0  0  0  0  0  0  0  0  0  0
    7.3330  -16.2644   27.0583 C   0  0  0  0  0  0  0  0  0  0  0  0
    6.7923  -17.2773   26.4900 O   0  0  0  0  0  0  0  0  0  0  0  0
    7.3730  -15.0033   26.4121 N   0  0  0  0  0  0  0  0  0  0  0  0
    7.9016  -13.7859   26.9507 C   0  0  0  0  0  0  0  0  0  0  0  0
    6.7627  -12.8194   26.5748 C   0  0  0  0  0  0  0  0  0  0  0  0
    6.3375  -13.3227   25.2032 C   0  0  0  0  0  0  0  0  0  0  0  0
    6.8791  -14.7280   25.1032 C   0  0  1  0  0  0  0  0  0  0  0  0
    8.0298  -14.7626   24.1367 C   0  0  0  0  0  0  0  0  0  0  0  0
    9.1399  -14.4287   24.5944 O   0  0  0  0  0  0  0  0  0  0  0  0
    7.8505  -15.1513   22.7965 N   0  0  0  0  0  0  0  0  0  0  0  0
    6.5057  -15.3759   22.2148 C   0  0  0  0  0  0  0  0  0  0  0  0
    6.6492  -14.5938   20.9357 C   0  0  0  0  0  0  0  0  0  0  0  0
    8.0986  -14.6820   20.5497 C   0  0  0  0  0  0  0  0  0  0  0  0
    8.7589  -15.4208   21.7575 C   0  0  1  0  0  0  0  0  0  0  0  0
   10.1439  -15.0098   21.8576 C   0  0  0  0  0  0  0  0  0  0  0  0
   11.0640  -15.6461   21.0036 O   0  0  0  0  0  0  0  0  0  0  0  0
   10.5896  -14.1599   22.6160 O   0  0  0  0  0  0  0  0  0  0  0  0
  2  1  1  1
  2  3  1  0
  4  5  1  0
  4  2  1  0
  5  7  1  0
  5  6  1  6
  7  8  2  0
  9 13  1  0
  9  7  1  0
 10  9  1  0
 11 10  1  0
 11 12  1  0
 12 13  1  0
 13 14  1  6
 14 15  2  0
 16 14  1  0
 16 17  1  0
 17 18  1  0
 19 18  1  0
 20 16  1  0
 20 19  1  0
 20 21  1  1
 22 21  1  0
 23 21  2  0
M  END
$$$$
