LPP.pdb
     RDKit          3D

 23 24  0  0  1  0  0  0  0  0999 V2000
    8.7434  -17.9347   20.5697 C   0  0  0  0  0  0  0  0  0  0  0  0
    8.6048  -17.2391   21.8955 C   0  0  2  0  0  0  0  0  0  0  0  0
    8.7371  -18.2771   23.0096 C   0  0  0  0  0  0  0  0  0  0  0  0
    7.3011  -16.5041   22.0202 C   0  0  0  0  0  0  0  0  0  0  0  0
    7.5875  -15.0196   21.9100 C   0  0  2  0  0  0  0  0  0  0  0  0
    8.3774  -14.8316   20.7080 N   0  0  0  0  0  0  0  0  0  0  0  0
    8.2858  -14.4927   23.1063 C   0  0  0  0  0  0  0  0  0  0  0  0
    9.5040  -14.1348   22.9354 O   0  0  0  0  0  0  0  0  0  0  0  0
    7.6661  -14.3802   24.3763 N   0  0  0  0  0  0  0  0  0  0  0  0
    6.3315  -14.7777   24.7117 C   0  0  0  0  0  0  0  0  0  0  0  0
    5.8785  -13.5314   25.4955 C   0  0  0  0  0  0  0  0  0  0  0  0
    7.1359  -13.1429   26.2594 C   0  0  0  0  0  0  0  0  0  0  0  0
    8.2714  -13.8371   25.5474 C   0  0  1  0  0  0  0  0  0  0  0  0
    8.7866  -14.9683   26.3927 C   0  0  0  0  0  0  0  0  0  0  0  0
    8.2146  -16.0659   26.2465 O   0  0  0  0  0  0  0  0  0  0  0  0
    9.8529  -14.7853   27.2921 N   0  0  0  0  0  0  0  0  0  0  0  0
   10.5374  -13.4796   27.4467 C   0  0  0  0  0  0  0  0  0  0  0  0
   10.5508  -13.3771   28.9492 C   0  0  0  0  0  0  0  0  0  0  0  0
   10.6307  -14.7858   29.4657 C   0  0  0  0  0  0  0  0  0  0  0  0
   10.5082  -15.6600   28.1767 C   0  0  1  0  0  0  0  0  0  0  0  0
    9.9207  -16.9356   28.5300 C   0  0  0  0  0  0  0  0  0  0  0  0
   10.7994  -17.9498   28.9543 O   0  0  0  0  0  0  0  0  0  0  0  0
    8.7302  -17.2146   28.4941 O   0  0  0  0  0  0  0  0  0  0  0  0
  2  1  1  6
  2  3  1  0
  4  5  1  0
  4  2  1  0
  5  7  1  0
  5  6  1  6
  7  8  2  0
  9 13  1  0
  9  7  1  0
 10  9  1  0
 11 10  1  0
 11 12  1  0
 12 13  1  0
 13 14  1  1
 14 15  2  0
 16 14  1  0
 16 17  1  0
 17 18  1  0
 19 18  1  0
 20 16  1  0
 20 19  1  0
 20 21  1  1
 22 21  1  0
 23 21  2  0
M  END
$$$$
