QNE.pdb
     RDKit          3D

 27 26  0  0  1  0  0  0  0  0999 V2000
    7.6049  -20.2883   16.2343 N   0  0  0  0  0  0  0  0  0  0  0  0
    9.0153  -20.3320   16.3665 C   0  0  0  0  0  0  0  0  0  0  0  0
    9.6986  -21.1437   15.7081 O   0  0  0  0  0  0  0  0  0  0  0  0
    9.7009  -19.3938   17.3076 C   0  0  0  0  0  0  0  0  0  0  0  0
   10.3051  -20.1618   18.4537 C   0  0  0  0  0  0  0  0  0  0  0  0
    9.9469  -19.4834   19.7444 C   0  0  2  0  0  0  0  0  0  0  0  0
    9.4397  -18.1648   19.5314 N   0  0  0  0  0  0  0  0  0  0  0  0
   11.0470  -19.5205   20.7459 C   0  0  0  0  0  0  0  0  0  0  0  0
   11.6649  -20.6060   20.9504 O   0  0  0  0  0  0  0  0  0  0  0  0
   14.2677  -18.1072   20.5316 N   0  0  0  0  0  0  0  0  0  0  0  0
   14.2177  -17.1104   21.5290 C   0  0  0  0  0  0  0  0  0  0  0  0
   14.9401  -16.0646   21.4507 O   0  0  0  0  0  0  0  0  0  0  0  0
   13.3059  -17.3084   22.6689 C   0  0  0  0  0  0  0  0  0  0  0  0
   12.4444  -18.5307   22.5260 C   0  0  2  0  0  0  0  0  0  0  0  0
   11.4484  -18.3937   21.4951 N   0  0  0  0  0  0  0  0  0  0  0  0
   11.7818  -18.7400   23.8563 C   0  0  0  0  0  0  0  0  0  0  0  0
   10.9087  -17.9205   24.2283 O   0  0  0  0  0  0  0  0  0  0  0  0
   12.1663  -19.8505   24.6375 N   0  0  0  0  0  0  0  0  0  0  0  0
   11.5465  -20.1589   25.8964 C   0  0  1  0  0  0  0  0  0  0  0  0
   11.9438  -21.5196   26.3480 C   0  0  0  0  0  0  0  0  0  0  0  0
   11.3664  -21.9938   27.6381 C   0  0  0  0  0  0  0  0  0  0  0  0
   11.7875  -23.3121   28.0958 C   0  0  0  0  0  0  0  0  0  0  0  0
   11.4599  -24.3377   27.4553 O   0  0  0  0  0  0  0  0  0  0  0  0
   11.6827  -19.0847   26.8775 C   0  0  0  0  0  0  0  0  0  0  0  0
   10.7029  -18.8108   27.8166 O   0  0  0  0  0  0  0  0  0  0  0  0
   12.5506  -23.4567   29.2368 O   0  0  0  0  0  0  0  0  0  0  0  0
   12.7154  -18.3704   26.8903 O   0  0  0  0  0  0  0  0  0  0  0  0
  2  4  1  0
  2  1  1  0
  3  2  2  0
  5  4  1  0
  6  5  1  0
  6  7  1  6
  8  6  1  0
  8 15  1  0
  9  8  2  0
 10 11  1  0
 11 13  1  0
 11 12  2  0
 14 13  1  1
 14 15  1  0
 14 16  1  0
 16 17  2  0
 16 18  1  0
 18 19  1  0
 19 20  1  1
 19 24  1  0
 21 22  1  0
 21 20  1  0
 22 26  1  0
 23 22  2  0
 24 25  1  0
 27 24  2  0
M  END
$$$$
