QNE.pdb
     RDKit          3D

 27 26  0  0  1  0  0  0  0  0999 V2000
    6.3244  -13.0670   19.0049 N   0  0  0  0  0  0  0  0  0  0  0  0
    7.1704  -13.7261   18.0784 C   0  0  0  0  0  0  0  0  0  0  0  0
    7.4109  -13.2277   16.9590 O   0  0  0  0  0  0  0  0  0  0  0  0
    7.7873  -15.0388   18.4419 C   0  0  0  0  0  0  0  0  0  0  0  0
    7.2466  -15.5149   19.7647 C   0  0  0  0  0  0  0  0  0  0  0  0
    7.8778  -16.8331   20.1090 C   0  0  2  0  0  0  0  0  0  0  0  0
    7.2581  -17.4413   21.2436 N   0  0  0  0  0  0  0  0  0  0  0  0
    9.3582  -16.7532   20.2375 C   0  0  0  0  0  0  0  0  0  0  0  0
   10.0800  -17.6148   19.6553 O   0  0  0  0  0  0  0  0  0  0  0  0
   11.0692  -13.0473   18.9552 N   0  0  0  0  0  0  0  0  0  0  0  0
   11.9522  -14.0831   19.3270 C   0  0  0  0  0  0  0  0  0  0  0  0
   12.6374  -14.7083   18.4545 O   0  0  0  0  0  0  0  0  0  0  0  0
   12.0638  -14.4265   20.7551 C   0  0  0  0  0  0  0  0  0  0  0  0
   11.4525  -15.7577   21.0883 C   0  0  2  0  0  0  0  0  0  0  0  0
   10.0163  -15.7534   20.9854 N   0  0  0  0  0  0  0  0  0  0  0  0
   11.8660  -16.0733   22.4961 C   0  0  0  0  0  0  0  0  0  0  0  0
   11.3499  -15.4212   23.4345 O   0  0  0  0  0  0  0  0  0  0  0  0
   12.8193  -17.0916   22.7101 N   0  0  0  0  0  0  0  0  0  0  0  0
   13.2666  -17.4648   24.0233 C   0  0  1  0  0  0  0  0  0  0  0  0
   12.1014  -17.7080   24.9159 C   0  0  0  0  0  0  0  0  0  0  0  0
   11.4136  -19.0236   24.7782 C   0  0  0  0  0  0  0  0  0  0  0  0
   10.9975  -19.6746   26.0141 C   0  0  0  0  0  0  0  0  0  0  0  0
   10.4592  -20.8055   25.9824 O   0  0  0  0  0  0  0  0  0  0  0  0
   14.2947  -18.5028   24.0022 C   0  0  0  0  0  0  0  0  0  0  0  0
   15.0634  -18.8066   25.1130 O   0  0  0  0  0  0  0  0  0  0  0  0
   11.1866  -19.0628   27.2369 O   0  0  0  0  0  0  0  0  0  0  0  0
   14.5082  -19.1567   22.9516 O   0  0  0  0  0  0  0  0  0  0  0  0
  2  4  1  0
  2  1  1  0
  3  2  2  0
  5  4  1  0
  6  5  1  0
  6  7  1  1
  8  6  1  0
  8 15  1  0
  9  8  2  0
 10 11  1  0
 11 13  1  0
 11 12  2  0
 14 13  1  1
 14 15  1  0
 14 16  1  0
 16 17  2  0
 16 18  1  0
 18 19  1  0
 19 20  1  1
 19 24  1  0
 21 22  1  0
 21 20  1  0
 22 26  1  0
 23 22  2  0
 24 25  1  0
 27 24  2  0
M  END
$$$$
