QNE.pdb
     RDKit          3D

 27 26  0  0  1  0  0  0  0  0999 V2000
    9.9148  -17.6386   27.1103 N   0  0  0  0  0  0  0  0  0  0  0  0
    8.7424  -18.3885   27.3782 C   0  0  0  0  0  0  0  0  0  0  0  0
    8.7446  -19.3056   28.2256 O   0  0  0  0  0  0  0  0  0  0  0  0
    7.4805  -18.0808   26.6373 C   0  0  0  0  0  0  0  0  0  0  0  0
    7.7121  -16.9496   25.6701 C   0  0  0  0  0  0  0  0  0  0  0  0
    6.6775  -17.0109   24.5837 C   0  0  2  0  0  0  0  0  0  0  0  0
    5.9601  -18.2463   24.5990 N   0  0  0  0  0  0  0  0  0  0  0  0
    7.2252  -16.6817   23.2397 C   0  0  0  0  0  0  0  0  0  0  0  0
    7.4972  -17.6183   22.4329 O   0  0  0  0  0  0  0  0  0  0  0  0
    8.2596  -12.3018   19.1139 N   0  0  0  0  0  0  0  0  0  0  0  0
    7.7210  -13.5385   19.5281 C   0  0  0  0  0  0  0  0  0  0  0  0
    7.4621  -14.4582   18.6863 O   0  0  0  0  0  0  0  0  0  0  0  0
    7.4638  -13.7422   20.9642 C   0  0  0  0  0  0  0  0  0  0  0  0
    7.8599  -15.1097   21.4433 C   0  0  2  0  0  0  0  0  0  0  0  0
    7.4635  -15.3603   22.8047 N   0  0  0  0  0  0  0  0  0  0  0  0
    9.3539  -15.1853   21.3208 C   0  0  0  0  0  0  0  0  0  0  0  0
    9.8673  -15.1197   20.1787 O   0  0  0  0  0  0  0  0  0  0  0  0
   10.1236  -15.3270   22.4951 N   0  0  0  0  0  0  0  0  0  0  0  0
   11.5478  -15.5134   22.4652 C   0  0  1  0  0  0  0  0  0  0  0  0
   11.9279  -16.7161   23.2540 C   0  0  0  0  0  0  0  0  0  0  0  0
   11.4498  -16.7718   24.6651 C   0  0  0  0  0  0  0  0  0  0  0  0
   11.8592  -17.9316   25.4473 C   0  0  0  0  0  0  0  0  0  0  0  0
   11.3919  -18.1166   26.5949 O   0  0  0  0  0  0  0  0  0  0  0  0
   12.1074  -15.4177   21.1188 C   0  0  0  0  0  0  0  0  0  0  0  0
   13.4115  -15.0152   20.8857 O   0  0  0  0  0  0  0  0  0  0  0  0
   12.7641  -18.8438   24.9432 O   0  0  0  0  0  0  0  0  0  0  0  0
   11.4011  -15.7051   20.1212 O   0  0  0  0  0  0  0  0  0  0  0  0
  2  4  1  0
  2  1  1  0
  3  2  2  0
  5  4  1  0
  6  5  1  0
  6  7  1  6
  8  6  1  0
  8 15  1  0
  9  8  2  0
 10 11  1  0
 11 13  1  0
 11 12  2  0
 14 13  1  1
 14 15  1  0
 14 16  1  0
 16 17  2  0
 16 18  1  0
 18 19  1  0
 19 20  1  6
 19 24  1  0
 21 22  1  0
 21 20  1  0
 22 26  1  0
 23 22  2  0
 24 25  1  0
 27 24  2  0
M  END
$$$$
