QNE.pdb
     RDKit          3D

 27 26  0  0  1  0  0  0  0  0999 V2000
    6.9665  -15.1154   15.6844 N   0  0  0  0  0  0  0  0  0  0  0  0
    8.3662  -15.2470   15.8637 C   0  0  0  0  0  0  0  0  0  0  0  0
    9.0436  -15.9863   15.1194 O   0  0  0  0  0  0  0  0  0  0  0  0
    9.0473  -14.4913   16.9595 C   0  0  0  0  0  0  0  0  0  0  0  0
    8.0345  -13.7110   17.7557 C   0  0  0  0  0  0  0  0  0  0  0  0
    8.7032  -13.1287   18.9674 C   0  0  2  0  0  0  0  0  0  0  0  0
   10.1232  -13.0758   18.8196 N   0  0  0  0  0  0  0  0  0  0  0  0
    8.2819  -13.7838   20.2354 C   0  0  0  0  0  0  0  0  0  0  0  0
    7.0485  -13.9071   20.4914 O   0  0  0  0  0  0  0  0  0  0  0  0
    8.8472  -18.9591   20.2216 N   0  0  0  0  0  0  0  0  0  0  0  0
    8.3040  -17.9340   21.0248 C   0  0  0  0  0  0  0  0  0  0  0  0
    7.6964  -18.2018   22.1114 O   0  0  0  0  0  0  0  0  0  0  0  0
    8.4566  -16.5396   20.5749 C   0  0  0  0  0  0  0  0  0  0  0  0
    9.1301  -15.6646   21.5935 C   0  0  2  0  0  0  0  0  0  0  0  0
    9.1958  -14.2847   21.1873 N   0  0  0  0  0  0  0  0  0  0  0  0
   10.5152  -16.2137   21.7743 C   0  0  0  0  0  0  0  0  0  0  0  0
   10.6525  -17.4439   21.9739 O   0  0  0  0  0  0  0  0  0  0  0  0
   11.6097  -15.3250   21.7127 N   0  0  0  0  0  0  0  0  0  0  0  0
   12.9561  -15.7749   21.4922 C   0  0  1  0  0  0  0  0  0  0  0  0
   13.6915  -14.8040   20.6378 C   0  0  0  0  0  0  0  0  0  0  0  0
   15.1145  -15.1248   20.3294 C   0  0  0  0  0  0  0  0  0  0  0  0
   15.8414  -14.1543   19.5205 C   0  0  0  0  0  0  0  0  0  0  0  0
   15.4071  -13.8187   18.3943 O   0  0  0  0  0  0  0  0  0  0  0  0
   13.6260  -16.1941   22.7212 C   0  0  0  0  0  0  0  0  0  0  0  0
   14.7925  -16.9397   22.7116 O   0  0  0  0  0  0  0  0  0  0  0  0
   17.0154  -13.5887   19.9756 O   0  0  0  0  0  0  0  0  0  0  0  0
   13.1467  -15.8797   23.8385 O   0  0  0  0  0  0  0  0  0  0  0  0
  2  4  1  0
  2  1  1  0
  3  2  2  0
  5  4  1  0
  6  5  1  0
  6  7  1  6
  8  6  1  0
  8 15  1  0
  9  8  2  0
 10 11  1  0
 11 13  1  0
 11 12  2  0
 14 13  1  6
 14 15  1  0
 14 16  1  0
 16 17  2  0
 16 18  1  0
 18 19  1  0
 19 20  1  1
 19 24  1  0
 21 22  1  0
 21 20  1  0
 22 26  1  0
 23 22  2  0
 24 25  1  0
 27 24  2  0
M  END
$$$$
