QNE.pdb
     RDKit          3D

 27 26  0  0  1  0  0  0  0  0999 V2000
    8.7573  -15.2068   12.2487 N   0  0  0  0  0  0  0  0  0  0  0  0
    7.7293  -14.4091   12.8105 C   0  0  0  0  0  0  0  0  0  0  0  0
    6.5460  -14.5211   12.4277 O   0  0  0  0  0  0  0  0  0  0  0  0
    8.0613  -13.4165   13.8783 C   0  0  0  0  0  0  0  0  0  0  0  0
    7.3488  -13.7747   15.1561 C   0  0  0  0  0  0  0  0  0  0  0  0
    8.1922  -14.7418   15.9357 C   0  0  2  0  0  0  0  0  0  0  0  0
    7.6625  -16.0679   15.8917 N   0  0  0  0  0  0  0  0  0  0  0  0
    8.4732  -14.2816   17.3228 C   0  0  0  0  0  0  0  0  0  0  0  0
    9.2612  -13.3083   17.5071 O   0  0  0  0  0  0  0  0  0  0  0  0
    7.8349  -13.2361   22.7380 N   0  0  0  0  0  0  0  0  0  0  0  0
    7.9071  -14.5430   22.2108 C   0  0  0  0  0  0  0  0  0  0  0  0
    8.4178  -15.4963   22.8831 O   0  0  0  0  0  0  0  0  0  0  0  0
    7.3753  -14.7804   20.8578 C   0  0  0  0  0  0  0  0  0  0  0  0
    8.3919  -14.5434   19.7776 C   0  0  2  0  0  0  0  0  0  0  0  0
    7.9011  -14.8794   18.4662 N   0  0  0  0  0  0  0  0  0  0  0  0
    9.5779  -15.3984   20.1171 C   0  0  0  0  0  0  0  0  0  0  0  0
    9.5535  -16.6119   19.8027 O   0  0  0  0  0  0  0  0  0  0  0  0
   10.6748  -14.8042   20.7768 N   0  0  0  0  0  0  0  0  0  0  0  0
   11.9763  -15.4116   20.8083 C   0  0  1  0  0  0  0  0  0  0  0  0
   12.9792  -14.5169   20.1702 C   0  0  0  0  0  0  0  0  0  0  0  0
   14.3749  -15.0325   20.0761 C   0  0  0  0  0  0  0  0  0  0  0  0
   15.3755  -14.1137   19.5476 C   0  0  0  0  0  0  0  0  0  0  0  0
   15.1189  -13.4090   18.5441 O   0  0  0  0  0  0  0  0  0  0  0  0
   12.3259  -15.9435   22.1235 C   0  0  0  0  0  0  0  0  0  0  0  0
   11.5149  -15.7698   23.2321 O   0  0  0  0  0  0  0  0  0  0  0  0
   16.6181  -14.0018   20.1380 O   0  0  0  0  0  0  0  0  0  0  0  0
   13.3944  -16.5843   22.2801 O   0  0  0  0  0  0  0  0  0  0  0  0
  2  4  1  0
  2  1  1  0
  3  2  2  0
  5  4  1  0
  6  5  1  0
  6  7  1  1
  8  6  1  0
  8 15  1  0
  9  8  2  0
 10 11  1  0
 11 13  1  0
 11 12  2  0
 14 13  1  1
 14 15  1  0
 14 16  1  0
 16 17  2  0
 16 18  1  0
 18 19  1  0
 19 20  1  1
 19 24  1  0
 21 22  1  0
 21 20  1  0
 22 26  1  0
 23 22  2  0
 24 25  1  0
 27 24  2  0
M  END
$$$$
