QNE.pdb
     RDKit          3D

 27 26  0  0  1  0  0  0  0  0999 V2000
    9.6511  -13.3881   16.7882 N   0  0  0  0  0  0  0  0  0  0  0  0
    8.2932  -13.7546   16.6141 C   0  0  0  0  0  0  0  0  0  0  0  0
    7.9140  -14.3486   15.5832 O   0  0  0  0  0  0  0  0  0  0  0  0
    7.2949  -13.4275   17.6782 C   0  0  0  0  0  0  0  0  0  0  0  0
    7.9860  -13.2866   19.0091 C   0  0  0  0  0  0  0  0  0  0  0  0
    8.4490  -14.6388   19.4692 C   0  0  2  0  0  0  0  0  0  0  0  0
    7.4568  -15.6441   19.2546 N   0  0  0  0  0  0  0  0  0  0  0  0
    8.9675  -14.6324   20.8640 C   0  0  0  0  0  0  0  0  0  0  0  0
    9.8419  -13.7804   21.1982 O   0  0  0  0  0  0  0  0  0  0  0  0
    9.9902  -15.0870   25.7276 N   0  0  0  0  0  0  0  0  0  0  0  0
    8.6316  -15.4493   25.6091 C   0  0  0  0  0  0  0  0  0  0  0  0
    7.8941  -15.5827   26.6386 O   0  0  0  0  0  0  0  0  0  0  0  0
    8.0832  -15.6709   24.2600 C   0  0  0  0  0  0  0  0  0  0  0  0
    9.1065  -15.4953   23.1743 C   0  0  2  0  0  0  0  0  0  0  0  0
    8.5325  -15.5391   21.8545 N   0  0  0  0  0  0  0  0  0  0  0  0
   10.0970  -16.6105   23.3413 C   0  0  0  0  0  0  0  0  0  0  0  0
    9.7712  -17.7637   22.9725 O   0  0  0  0  0  0  0  0  0  0  0  0
   11.3567  -16.3188   23.9066 N   0  0  0  0  0  0  0  0  0  0  0  0
   12.3677  -17.3220   24.0950 C   0  0  1  0  0  0  0  0  0  0  0  0
   13.7066  -16.7785   23.7410 C   0  0  0  0  0  0  0  0  0  0  0  0
   13.9206  -16.3971   22.3157 C   0  0  0  0  0  0  0  0  0  0  0  0
   15.2463  -15.9035   21.9645 C   0  0  0  0  0  0  0  0  0  0  0  0
   16.0397  -16.6275   21.3196 O   0  0  0  0  0  0  0  0  0  0  0  0
   12.2640  -18.0011   25.3846 C   0  0  0  0  0  0  0  0  0  0  0  0
   13.0555  -19.0880   25.7150 O   0  0  0  0  0  0  0  0  0  0  0  0
   15.6523  -14.6367   22.3327 O   0  0  0  0  0  0  0  0  0  0  0  0
   11.4354  -17.6044   26.2407 O   0  0  0  0  0  0  0  0  0  0  0  0
  2  4  1  0
  2  1  1  0
  3  2  2  0
  5  4  1  0
  6  5  1  0
  6  7  1  1
  8  6  1  0
  8 15  1  0
  9  8  2  0
 10 11  1  0
 11 13  1  0
 11 12  2  0
 14 13  1  1
 14 15  1  0
 14 16  1  0
 16 17  2  0
 16 18  1  0
 18 19  1  0
 19 20  1  1
 19 24  1  0
 21 22  1  0
 21 20  1  0
 22 26  1  0
 23 22  2  0
 24 25  1  0
 27 24  2  0
M  END
$$$$
