QNE.pdb
     RDKit          3D

 27 26  0  0  1  0  0  0  0  0999 V2000
    9.3305  -12.3100   17.8162 N   0  0  0  0  0  0  0  0  0  0  0  0
    8.3367  -13.1881   17.3164 C   0  0  0  0  0  0  0  0  0  0  0  0
    8.2411  -13.4226   16.0936 O   0  0  0  0  0  0  0  0  0  0  0  0
    7.3853  -13.8467   18.2636 C   0  0  0  0  0  0  0  0  0  0  0  0
    7.8471  -13.6451   19.6830 C   0  0  0  0  0  0  0  0  0  0  0  0
    8.5886  -14.8688   20.1382 C   0  0  2  0  0  0  0  0  0  0  0  0
    8.0445  -16.0632   19.5739 N   0  0  0  0  0  0  0  0  0  0  0  0
    8.7310  -14.9459   21.6175 C   0  0  0  0  0  0  0  0  0  0  0  0
    9.1037  -13.9211   22.2602 O   0  0  0  0  0  0  0  0  0  0  0  0
    6.3660  -16.2332   22.4992 N   0  0  0  0  0  0  0  0  0  0  0  0
    6.3387  -16.5425   23.8756 C   0  0  0  0  0  0  0  0  0  0  0  0
    5.2424  -16.7984   24.4708 O   0  0  0  0  0  0  0  0  0  0  0  0
    7.6143  -16.5627   24.6121 C   0  0  0  0  0  0  0  0  0  0  0  0
    8.7890  -16.1698   23.7622 C   0  0  2  0  0  0  0  0  0  0  0  0
    8.4698  -16.1180   22.3591 N   0  0  0  0  0  0  0  0  0  0  0  0
    9.8538  -17.1983   24.0095 C   0  0  0  0  0  0  0  0  0  0  0  0
    9.7193  -18.3366   23.5012 O   0  0  0  0  0  0  0  0  0  0  0  0
   10.9652  -16.8452   24.8043 N   0  0  0  0  0  0  0  0  0  0  0  0
   11.9468  -17.8056   25.2265 C   0  0  1  0  0  0  0  0  0  0  0  0
   13.3148  -17.3279   24.8894 C   0  0  0  0  0  0  0  0  0  0  0  0
   13.5263  -16.8218   23.5031 C   0  0  0  0  0  0  0  0  0  0  0  0
   14.8397  -16.2643   23.2054 C   0  0  0  0  0  0  0  0  0  0  0  0
   15.8377  -17.0154   23.1082 O   0  0  0  0  0  0  0  0  0  0  0  0
   11.7406  -18.2667   26.5976 C   0  0  0  0  0  0  0  0  0  0  0  0
   10.7680  -17.7271   27.4221 O   0  0  0  0  0  0  0  0  0  0  0  0
   15.0100  -14.9064   23.0257 O   0  0  0  0  0  0  0  0  0  0  0  0
   12.4580  -19.1836   27.0684 O   0  0  0  0  0  0  0  0  0  0  0  0
  2  4  1  0
  2  1  1  0
  3  2  2  0
  5  4  1  0
  6  5  1  0
  6  7  1  1
  8  6  1  0
  8 15  1  0
  9  8  2  0
 10 11  1  0
 11 13  1  0
 11 12  2  0
 14 13  1  1
 14 15  1  0
 14 16  1  0
 16 17  2  0
 16 18  1  0
 18 19  1  0
 19 20  1  1
 19 24  1  0
 21 22  1  0
 21 20  1  0
 22 26  1  0
 23 22  2  0
 24 25  1  0
 27 24  2  0
M  END
$$$$
