QNE.pdb
     RDKit          3D

 27 26  0  0  1  0  0  0  0  0999 V2000
    7.4421  -11.9175   17.8894 N   0  0  0  0  0  0  0  0  0  0  0  0
    7.7128  -13.1156   17.1824 C   0  0  0  0  0  0  0  0  0  0  0  0
    6.9166  -13.5504   16.3244 O   0  0  0  0  0  0  0  0  0  0  0  0
    8.9699  -13.8747   17.4645 C   0  0  0  0  0  0  0  0  0  0  0  0
    9.7831  -13.1570   18.5096 C   0  0  0  0  0  0  0  0  0  0  0  0
   10.7382  -14.1274   19.1426 C   0  0  2  0  0  0  0  0  0  0  0  0
   10.8974  -15.3095   18.3561 N   0  0  0  0  0  0  0  0  0  0  0  0
   10.4102  -14.4232   20.5637 C   0  0  0  0  0  0  0  0  0  0  0  0
   10.4951  -13.5007   21.4261 O   0  0  0  0  0  0  0  0  0  0  0  0
    6.8217  -14.8984   22.4625 N   0  0  0  0  0  0  0  0  0  0  0  0
    7.4191  -16.0944   22.0111 C   0  0  0  0  0  0  0  0  0  0  0  0
    6.9829  -16.6988   20.9786 O   0  0  0  0  0  0  0  0  0  0  0  0
    8.5651  -16.6304   22.7656 C   0  0  0  0  0  0  0  0  0  0  0  0
    9.8616  -15.9529   22.4238 C   0  0  2  0  0  0  0  0  0  0  0  0
   10.0025  -15.6973   21.0138 N   0  0  0  0  0  0  0  0  0  0  0  0
   10.9545  -16.8689   22.8919 C   0  0  0  0  0  0  0  0  0  0  0  0
   10.8052  -18.1055   22.7475 O   0  0  0  0  0  0  0  0  0  0  0  0
   12.1081  -16.3040   23.4763 N   0  0  0  0  0  0  0  0  0  0  0  0
   13.2078  -17.1039   23.9398 C   0  0  1  0  0  0  0  0  0  0  0  0
   14.4994  -16.5084   23.5035 C   0  0  0  0  0  0  0  0  0  0  0  0
   14.6121  -16.1294   22.0660 C   0  0  0  0  0  0  0  0  0  0  0  0
   15.8938  -15.5869   21.6329 C   0  0  0  0  0  0  0  0  0  0  0  0
   16.1901  -15.5607   20.4159 O   0  0  0  0  0  0  0  0  0  0  0  0
   13.1010  -17.4558   25.3539 C   0  0  0  0  0  0  0  0  0  0  0  0
   12.0878  -16.9708   26.1633 O   0  0  0  0  0  0  0  0  0  0  0  0
   16.8016  -15.0942   22.5485 O   0  0  0  0  0  0  0  0  0  0  0  0
   13.9456  -18.2235   25.8776 O   0  0  0  0  0  0  0  0  0  0  0  0
  2  4  1  0
  2  1  1  0
  3  2  2  0
  5  4  1  0
  6  5  1  0
  6  7  1  6
  8  6  1  0
  8 15  1  0
  9  8  2  0
 10 11  1  0
 11 13  1  0
 11 12  2  0
 14 13  1  6
 14 15  1  0
 14 16  1  0
 16 17  2  0
 16 18  1  0
 18 19  1  0
 19 20  1  1
 19 24  1  0
 21 22  1  0
 21 20  1  0
 22 26  1  0
 23 22  2  0
 24 25  1  0
 27 24  2  0
M  END
$$$$
