QNE.pdb
     RDKit          3D

 27 26  0  0  1  0  0  0  0  0999 V2000
    8.3409  -12.4698   17.9412 N   0  0  0  0  0  0  0  0  0  0  0  0
    7.9024  -13.7233   17.4464 C   0  0  0  0  0  0  0  0  0  0  0  0
    7.6130  -13.8738   16.2410 O   0  0  0  0  0  0  0  0  0  0  0  0
    7.7824  -14.8869   18.3778 C   0  0  0  0  0  0  0  0  0  0  0  0
    8.2034  -14.4826   19.7663 C   0  0  0  0  0  0  0  0  0  0  0  0
    9.1523  -15.5104   20.3121 C   0  0  2  0  0  0  0  0  0  0  0  0
    8.7104  -16.8418   20.0413 N   0  0  0  0  0  0  0  0  0  0  0  0
    9.4801  -15.2951   21.7476 C   0  0  0  0  0  0  0  0  0  0  0  0
    9.5189  -14.1160   22.2062 O   0  0  0  0  0  0  0  0  0  0  0  0
    6.2485  -16.5997   25.9750 N   0  0  0  0  0  0  0  0  0  0  0  0
    7.4120  -15.9216   25.5537 C   0  0  0  0  0  0  0  0  0  0  0  0
    8.0744  -15.1895   26.3580 O   0  0  0  0  0  0  0  0  0  0  0  0
    7.8450  -16.0808   24.1547 C   0  0  0  0  0  0  0  0  0  0  0  0
    9.3301  -16.2595   24.0166 C   0  0  2  0  0  0  0  0  0  0  0  0
    9.7558  -16.3499   22.6441 N   0  0  0  0  0  0  0  0  0  0  0  0
    9.6741  -17.5254   24.7459 C   0  0  0  0  0  0  0  0  0  0  0  0
    8.8004  -18.4195   24.8428 O   0  0  0  0  0  0  0  0  0  0  0  0
   10.9673  -17.6613   25.2943 N   0  0  0  0  0  0  0  0  0  0  0  0
   11.3518  -18.7942   26.0898 C   0  0  1  0  0  0  0  0  0  0  0  0
   12.8309  -18.9546   26.0788 C   0  0  0  0  0  0  0  0  0  0  0  0
   13.5135  -18.7952   24.7629 C   0  0  0  0  0  0  0  0  0  0  0  0
   14.9707  -18.8243   24.7762 C   0  0  0  0  0  0  0  0  0  0  0  0
   15.5885  -19.7765   24.2458 O   0  0  0  0  0  0  0  0  0  0  0  0
   10.7072  -18.8159   27.4008 C   0  0  0  0  0  0  0  0  0  0  0  0
   10.8375  -19.8835   28.2726 O   0  0  0  0  0  0  0  0  0  0  0  0
   15.6953  -17.8103   25.3694 O   0  0  0  0  0  0  0  0  0  0  0  0
   10.0046  -17.8440   27.7735 O   0  0  0  0  0  0  0  0  0  0  0  0
  2  4  1  0
  2  1  1  0
  3  2  2  0
  5  4  1  0
  6  5  1  0
  6  7  1  1
  8  6  1  0
  8 15  1  0
  9  8  2  0
 10 11  1  0
 11 13  1  0
 11 12  2  0
 14 13  1  6
 14 15  1  0
 14 16  1  0
 16 17  2  0
 16 18  1  0
 18 19  1  0
 19 20  1  1
 19 24  1  0
 21 22  1  0
 21 20  1  0
 22 26  1  0
 23 22  2  0
 24 25  1  0
 27 24  2  0
M  END
$$$$
