QNE.pdb
     RDKit          3D

 27 26  0  0  1  0  0  0  0  0999 V2000
    7.7652  -12.7543   16.2739 N   0  0  0  0  0  0  0  0  0  0  0  0
    7.6943  -14.1023   15.8421 C   0  0  0  0  0  0  0  0  0  0  0  0
    7.4504  -14.3843   14.6503 O   0  0  0  0  0  0  0  0  0  0  0  0
    7.9140  -15.2077   16.8247 C   0  0  0  0  0  0  0  0  0  0  0  0
    9.3520  -15.6543   16.7867 C   0  0  0  0  0  0  0  0  0  0  0  0
    9.5761  -16.6849   17.8554 C   0  0  2  0  0  0  0  0  0  0  0  0
    8.5996  -17.7266   17.8054 N   0  0  0  0  0  0  0  0  0  0  0  0
    9.7154  -16.0933   19.2138 C   0  0  0  0  0  0  0  0  0  0  0  0
   10.6526  -15.2737   19.4416 O   0  0  0  0  0  0  0  0  0  0  0  0
    5.9475  -14.4089   21.5480 N   0  0  0  0  0  0  0  0  0  0  0  0
    7.1439  -14.4594   22.2943 C   0  0  0  0  0  0  0  0  0  0  0  0
    7.6190  -13.4153   22.8471 O   0  0  0  0  0  0  0  0  0  0  0  0
    7.8343  -15.7546   22.4197 C   0  0  0  0  0  0  0  0  0  0  0  0
    9.0822  -15.8376   21.5876 C   0  0  2  0  0  0  0  0  0  0  0  0
    8.8464  -16.3996   20.2830 N   0  0  0  0  0  0  0  0  0  0  0  0
   10.0447  -16.6991   22.3519 C   0  0  0  0  0  0  0  0  0  0  0  0
    9.7631  -17.9089   22.5228 O   0  0  0  0  0  0  0  0  0  0  0  0
   11.2293  -16.1150   22.8489 N   0  0  0  0  0  0  0  0  0  0  0  0
   12.2653  -16.8879   23.4761 C   0  0  1  0  0  0  0  0  0  0  0  0
   13.6041  -16.3688   23.0870 C   0  0  0  0  0  0  0  0  0  0  0  0
   14.7869  -17.0291   23.7098 C   0  0  0  0  0  0  0  0  0  0  0  0
   16.0962  -16.5080   23.3374 C   0  0  0  0  0  0  0  0  0  0  0  0
   16.2415  -15.2908   23.0785 O   0  0  0  0  0  0  0  0  0  0  0  0
   12.0392  -17.0916   24.9052 C   0  0  0  0  0  0  0  0  0  0  0  0
   12.5373  -18.1904   25.5846 O   0  0  0  0  0  0  0  0  0  0  0  0
   17.1957  -17.3391   23.2628 O   0  0  0  0  0  0  0  0  0  0  0  0
   11.3726  -16.2550   25.5630 O   0  0  0  0  0  0  0  0  0  0  0  0
  2  4  1  0
  2  1  1  0
  3  2  2  0
  5  4  1  0
  6  5  1  0
  6  7  1  1
  8  6  1  0
  8 15  1  0
  9  8  2  0
 10 11  1  0
 11 13  1  0
 11 12  2  0
 14 13  1  1
 14 15  1  0
 14 16  1  0
 16 17  2  0
 16 18  1  0
 18 19  1  0
 19 20  1  1
 19 24  1  0
 21 22  1  0
 21 20  1  0
 22 26  1  0
 23 22  2  0
 24 25  1  0
 27 24  2  0
M  END
$$$$
