QNE.pdb
     RDKit          3D

 27 26  0  0  1  0  0  0  0  0999 V2000
   11.0702  -16.1752   12.6363 N   0  0  0  0  0  0  0  0  0  0  0  0
    9.7034  -16.2285   13.0069 C   0  0  0  0  0  0  0  0  0  0  0  0
    8.8372  -16.6504   12.2124 O   0  0  0  0  0  0  0  0  0  0  0  0
    9.2864  -15.7737   14.3689 C   0  0  0  0  0  0  0  0  0  0  0  0
   10.4901  -15.3218   15.1535 C   0  0  0  0  0  0  0  0  0  0  0  0
   10.4746  -15.9808   16.5025 C   0  0  2  0  0  0  0  0  0  0  0  0
    9.2582  -16.6934   16.7343 N   0  0  0  0  0  0  0  0  0  0  0  0
   10.8126  -15.0464   17.6103 C   0  0  0  0  0  0  0  0  0  0  0  0
   11.9430  -14.4771   17.6200 O   0  0  0  0  0  0  0  0  0  0  0  0
    7.4120  -12.5626   18.4711 N   0  0  0  0  0  0  0  0  0  0  0  0
    7.8515  -13.3774   19.5359 C   0  0  0  0  0  0  0  0  0  0  0  0
    7.1774  -14.3908   19.9103 O   0  0  0  0  0  0  0  0  0  0  0  0
    9.1145  -13.0268   20.2080 C   0  0  0  0  0  0  0  0  0  0  0  0
   10.2959  -13.7811   19.6677 C   0  0  2  0  0  0  0  0  0  0  0  0
    9.9287  -14.7530   18.6708 N   0  0  0  0  0  0  0  0  0  0  0  0
   10.9349  -14.4647   20.8413 C   0  0  0  0  0  0  0  0  0  0  0  0
   11.2964  -13.7678   21.8189 O   0  0  0  0  0  0  0  0  0  0  0  0
   11.1042  -15.8651   20.7998 N   0  0  0  0  0  0  0  0  0  0  0  0
   11.7083  -16.6005   21.8760 C   0  0  1  0  0  0  0  0  0  0  0  0
   11.0120  -17.9012   22.0672 C   0  0  0  0  0  0  0  0  0  0  0  0
   11.5769  -18.8198   23.0968 C   0  0  0  0  0  0  0  0  0  0  0  0
   10.9907  -20.1521   23.1743 C   0  0  0  0  0  0  0  0  0  0  0  0
   10.7793  -20.8111   22.1300 O   0  0  0  0  0  0  0  0  0  0  0  0
   13.1656  -16.6526   21.7837 C   0  0  0  0  0  0  0  0  0  0  0  0
   13.9745  -16.7743   22.9007 O   0  0  0  0  0  0  0  0  0  0  0  0
   10.6587  -20.7114   24.3917 O   0  0  0  0  0  0  0  0  0  0  0  0
   13.7286  -16.5867   20.6632 O   0  0  0  0  0  0  0  0  0  0  0  0
  2  4  1  0
  2  1  1  0
  3  2  2  0
  5  4  1  0
  6  5  1  0
  6  7  1  1
  8  6  1  0
  8 15  1  0
  9  8  2  0
 10 11  1  0
 11 13  1  0
 11 12  2  0
 14 13  1  1
 14 15  1  0
 14 16  1  0
 16 17  2  0
 16 18  1  0
 18 19  1  0
 19 20  1  6
 19 24  1  0
 21 22  1  0
 21 20  1  0
 22 26  1  0
 23 22  2  0
 24 25  1  0
 27 24  2  0
M  END
$$$$
