HSE.pdb
     RDKit          3D

 26 26  0  0  1  0  0  0  0  0999 V2000
   14.6379  -13.7266   17.4682 N   0  0  0  0  0  0  0  0  0  0  0  0
   13.5155  -14.6087   17.7121 C   0  0  1  0  0  0  0  0  0  0  0  0
   13.8802  -16.0572   17.4108 C   0  0  0  0  0  0  0  0  0  0  0  0
   13.8508  -16.2246   15.9396 C   0  0  0  0  0  0  0  0  0  0  0  0
   14.9351  -16.1761   15.1101 C   0  0  0  0  0  0  0  0  0  0  0  0
   14.5100  -16.3721   13.8389 N   0  0  0  0  0  0  0  0  0  0  0  0
   13.1791  -16.5420   13.8625 C   0  0  0  0  0  0  0  0  0  0  0  0
   12.7838  -16.4494   15.1598 N   0  0  0  0  0  0  0  0  0  0  0  0
   13.1872  -14.5290   19.1661 C   0  0  0  0  0  0  0  0  0  0  0  0
   14.1062  -14.3604   19.9996 O   0  0  0  0  0  0  0  0  0  0  0  0
    9.3667  -15.4677   20.9426 O   0  0  0  0  0  0  0  0  0  0  0  0
   10.1403  -14.4385   21.3896 C   0  0  0  0  0  0  0  0  0  0  0  0
   11.6198  -14.5705   21.0767 C   0  0  2  0  0  0  0  0  0  0  0  0
   11.8652  -14.6361   19.6619 N   0  0  0  0  0  0  0  0  0  0  0  0
   12.1812  -15.7352   21.8077 C   0  0  0  0  0  0  0  0  0  0  0  0
   12.1681  -16.9015   21.2804 O   0  0  0  0  0  0  0  0  0  0  0  0
   12.7609  -15.6743   23.1000 N   0  0  0  0  0  0  0  0  0  0  0  0
   13.2296  -16.8409   23.8242 C   0  0  1  0  0  0  0  0  0  0  0  0
   14.6312  -16.5292   24.3206 C   0  0  0  0  0  0  0  0  0  0  0  0
   15.5676  -16.5253   23.1525 C   0  0  0  0  0  0  0  0  0  0  0  0
   16.9304  -16.2209   23.6099 C   0  0  0  0  0  0  0  0  0  0  0  0
   17.5956  -15.3244   23.0541 O   0  0  0  0  0  0  0  0  0  0  0  0
   12.3673  -17.0085   25.0152 C   0  0  0  0  0  0  0  0  0  0  0  0
   12.5136  -18.0533   25.9185 O   0  0  0  0  0  0  0  0  0  0  0  0
   17.4739  -16.9340   24.6614 O   0  0  0  0  0  0  0  0  0  0  0  0
   11.4507  -16.1856   25.2503 O   0  0  0  0  0  0  0  0  0  0  0  0
  2  9  1  0
  2  1  1  1
  3  2  1  0
  4  3  1  0
  5  4  2  0
  6  7  1  0
  6  5  1  0
  7  8  2  0
  8  4  1  0
  9 14  1  0
 10  9  2  0
 12 11  1  0
 13 12  1  6
 14 13  1  0
 15 16  2  0
 15 13  1  0
 17 15  1  0
 18 19  1  1
 18 17  1  0
 19 20  1  0
 20 21  1  0
 21 22  2  0
 23 18  1  0
 24 23  1  0
 25 21  1  0
 26 23  2  0
M  END
$$$$
