HSE.pdb
     RDKit          3D

 26 26  0  0  1  0  0  0  0  0999 V2000
   15.6868  -14.9432   13.9962 N   0  0  0  0  0  0  0  0  0  0  0  0
   14.5412  -15.6676   14.5060 C   0  0  1  0  0  0  0  0  0  0  0  0
   14.6957  -17.1669   14.2818 C   0  0  0  0  0  0  0  0  0  0  0  0
   14.5143  -17.4193   12.8338 C   0  0  0  0  0  0  0  0  0  0  0  0
   13.3442  -17.7803   12.2282 C   0  0  0  0  0  0  0  0  0  0  0  0
   13.5751  -17.9195   10.9007 N   0  0  0  0  0  0  0  0  0  0  0  0
   14.8693  -17.6515   10.6690 C   0  0  0  0  0  0  0  0  0  0  0  0
   15.4379  -17.3449   11.8651 N   0  0  0  0  0  0  0  0  0  0  0  0
   14.4867  -15.4447   15.9809 C   0  0  0  0  0  0  0  0  0  0  0  0
   15.5408  -15.1927   16.6080 O   0  0  0  0  0  0  0  0  0  0  0  0
   11.0005  -15.9370   18.4903 O   0  0  0  0  0  0  0  0  0  0  0  0
   11.8895  -14.9164   18.6499 C   0  0  0  0  0  0  0  0  0  0  0  0
   13.2862  -15.2000   18.1275 C   0  0  2  0  0  0  0  0  0  0  0  0
   13.2821  -15.5045   16.7227 N   0  0  0  0  0  0  0  0  0  0  0  0
   13.9141  -16.2719   18.9417 C   0  0  0  0  0  0  0  0  0  0  0  0
   13.9981  -17.4667   18.4900 O   0  0  0  0  0  0  0  0  0  0  0  0
   14.4579  -16.0876   20.2379 N   0  0  0  0  0  0  0  0  0  0  0  0
   15.0465  -17.1585   21.0201 C   0  0  1  0  0  0  0  0  0  0  0  0
   16.2260  -16.5688   21.7744 C   0  0  0  0  0  0  0  0  0  0  0  0
   17.3171  -16.2573   20.7978 C   0  0  0  0  0  0  0  0  0  0  0  0
   18.4758  -15.7002   21.5092 C   0  0  0  0  0  0  0  0  0  0  0  0
   18.3374  -14.7197   22.2672 O   0  0  0  0  0  0  0  0  0  0  0  0
   14.0477  -17.5832   22.0261 C   0  0  0  0  0  0  0  0  0  0  0  0
   14.1879  -18.7278   22.8002 O   0  0  0  0  0  0  0  0  0  0  0  0
   19.7232  -16.2685   21.3347 O   0  0  0  0  0  0  0  0  0  0  0  0
   13.0131  -16.9000   22.2143 O   0  0  0  0  0  0  0  0  0  0  0  0
  2  9  1  0
  2  1  1  1
  3  2  1  0
  4  3  1  0
  5  4  2  0
  6  7  1  0
  6  5  1  0
  7  8  2  0
  8  4  1  0
  9 14  1  0
 10  9  2  0
 12 11  1  0
 13 12  1  1
 14 13  1  0
 15 16  2  0
 15 13  1  0
 17 15  1  0
 18 19  1  1
 18 17  1  0
 19 20  1  0
 20 21  1  0
 21 22  2  0
 23 18  1  0
 24 23  1  0
 25 21  1  0
 26 23  2  0
M  END
$$$$
