HSE.pdb
     RDKit          3D

 26 26  0  0  1  0  0  0  0  0999 V2000
    9.5022  -23.4211   22.7571 N   0  0  0  0  0  0  0  0  0  0  0  0
    8.8052  -22.9697   23.9436 C   0  0  1  0  0  0  0  0  0  0  0  0
    7.6839  -23.9304   24.3203 C   0  0  0  0  0  0  0  0  0  0  0  0
    6.6549  -23.8484   23.2583 C   0  0  0  0  0  0  0  0  0  0  0  0
    6.1826  -22.6978   22.6933 C   0  0  0  0  0  0  0  0  0  0  0  0
    5.2540  -23.0278   21.7638 N   0  0  0  0  0  0  0  0  0  0  0  0
    5.1398  -24.3646   21.7403 C   0  0  0  0  0  0  0  0  0  0  0  0
    6.0061  -24.8596   22.6636 N   0  0  0  0  0  0  0  0  0  0  0  0
    9.7849  -22.9709   25.0698 C   0  0  0  0  0  0  0  0  0  0  0  0
   10.0988  -24.0531   25.6158 O   0  0  0  0  0  0  0  0  0  0  0  0
   13.1286  -21.0561   25.2070 O   0  0  0  0  0  0  0  0  0  0  0  0
   12.5179  -20.9305   26.4189 C   0  0  0  0  0  0  0  0  0  0  0  0
   11.3400  -21.8624   26.6388 C   0  0  2  0  0  0  0  0  0  0  0  0
   10.3899  -21.7894   25.5627 N   0  0  0  0  0  0  0  0  0  0  0  0
   10.7256  -21.5844   27.9622 C   0  0  0  0  0  0  0  0  0  0  0  0
    9.8417  -20.6672   28.0887 O   0  0  0  0  0  0  0  0  0  0  0  0
   11.0407  -22.2745   29.1597 N   0  0  0  0  0  0  0  0  0  0  0  0
   10.5217  -21.8992   30.4616 C   0  0  1  0  0  0  0  0  0  0  0  0
   10.9033  -23.0030   31.4333 C   0  0  0  0  0  0  0  0  0  0  0  0
   10.1864  -24.2584   31.0442 C   0  0  0  0  0  0  0  0  0  0  0  0
   10.6341  -25.3695   31.8951 C   0  0  0  0  0  0  0  0  0  0  0  0
   11.5001  -25.1814   32.7725 O   0  0  0  0  0  0  0  0  0  0  0  0
   11.2267  -20.6709   30.8908 C   0  0  0  0  0  0  0  0  0  0  0  0
   10.8539  -19.9307   32.0053 O   0  0  0  0  0  0  0  0  0  0  0  0
   10.0903  -26.6277   31.7190 O   0  0  0  0  0  0  0  0  0  0  0  0
   12.2123  -20.2499   30.2396 O   0  0  0  0  0  0  0  0  0  0  0  0
  2  9  1  0
  2  1  1  6
  3  2  1  0
  4  3  1  0
  5  4  2  0
  6  7  1  0
  6  5  1  0
  7  8  2  0
  8  4  1  0
  9 14  1  0
 10  9  2  0
 12 11  1  0
 13 12  1  6
 14 13  1  0
 15 16  2  0
 15 13  1  0
 17 15  1  0
 18 19  1  1
 18 17  1  0
 19 20  1  0
 20 21  1  0
 21 22  2  0
 23 18  1  0
 24 23  1  0
 25 21  1  0
 26 23  2  0
M  END
$$$$
