HSE.pdb
     RDKit          3D

 26 26  0  0  1  0  0  0  0  0999 V2000
   10.6023  -16.8421   19.1280 N   0  0  0  0  0  0  0  0  0  0  0  0
   10.0704  -15.7774   19.9530 C   0  0  1  0  0  0  0  0  0  0  0  0
    8.5466  -15.7818   19.9394 C   0  0  0  0  0  0  0  0  0  0  0  0
    8.1061  -14.5456   19.2529 C   0  0  0  0  0  0  0  0  0  0  0  0
    8.9275  -13.6145   18.6831 C   0  0  0  0  0  0  0  0  0  0  0  0
    8.1587  -12.6312   18.1567 N   0  0  0  0  0  0  0  0  0  0  0  0
    6.8722  -12.9340   18.3890 C   0  0  0  0  0  0  0  0  0  0  0  0
    6.8513  -14.1137   19.0640 N   0  0  0  0  0  0  0  0  0  0  0  0
   10.5004  -16.0383   21.3584 C   0  0  0  0  0  0  0  0  0  0  0  0
   11.5646  -16.6618   21.5743 O   0  0  0  0  0  0  0  0  0  0  0  0
    8.1894  -15.2658   24.9133 O   0  0  0  0  0  0  0  0  0  0  0  0
    9.5145  -14.9576   24.8312 C   0  0  0  0  0  0  0  0  0  0  0  0
   10.2935  -15.7612   23.8057 C   0  0  2  0  0  0  0  0  0  0  0  0
    9.7535  -15.6094   22.4822 N   0  0  0  0  0  0  0  0  0  0  0  0
   10.3624  -17.1816   24.2343 C   0  0  0  0  0  0  0  0  0  0  0  0
    9.4324  -18.0021   23.9176 O   0  0  0  0  0  0  0  0  0  0  0  0
   11.4152  -17.7440   24.9993 N   0  0  0  0  0  0  0  0  0  0  0  0
   11.4156  -19.1139   25.4772 C   0  0  1  0  0  0  0  0  0  0  0  0
   12.8137  -19.6665   25.2577 C   0  0  0  0  0  0  0  0  0  0  0  0
   13.0994  -19.6882   23.7883 C   0  0  0  0  0  0  0  0  0  0  0  0
   14.4237  -20.2781   23.5488 C   0  0  0  0  0  0  0  0  0  0  0  0
   14.5273  -21.3825   22.9790 O   0  0  0  0  0  0  0  0  0  0  0  0
   11.1787  -19.0818   26.9376 C   0  0  0  0  0  0  0  0  0  0  0  0
   11.0210  -20.2270   27.7074 O   0  0  0  0  0  0  0  0  0  0  0  0
   15.5574  -19.6026   23.9586 O   0  0  0  0  0  0  0  0  0  0  0  0
   11.1113  -17.9845   27.5411 O   0  0  0  0  0  0  0  0  0  0  0  0
  2  9  1  0
  2  1  1  6
  3  2  1  0
  4  3  1  0
  5  4  2  0
  6  7  1  0
  6  5  1  0
  7  8  2  0
  8  4  1  0
  9 14  1  0
 10  9  2  0
 12 11  1  0
 13 12  1  1
 14 13  1  0
 15 16  2  0
 15 13  1  0
 17 15  1  0
 18 19  1  1
 18 17  1  0
 19 20  1  0
 20 21  1  0
 21 22  2  0
 23 18  1  0
 24 23  1  0
 25 21  1  0
 26 23  2  0
M  END
$$$$
