HSE.pdb
     RDKit          3D

 26 26  0  0  1  0  0  0  0  0999 V2000
    7.8413  -18.5136   16.3700 N   0  0  0  0  0  0  0  0  0  0  0  0
    9.1641  -17.9506   16.5443 C   0  0  1  0  0  0  0  0  0  0  0  0
    9.1573  -16.4468   16.2979 C   0  0  0  0  0  0  0  0  0  0  0  0
    8.9788  -16.2371   14.8427 C   0  0  0  0  0  0  0  0  0  0  0  0
    8.7901  -17.2202   13.9131 C   0  0  0  0  0  0  0  0  0  0  0  0
    8.6684  -16.6394   12.6954 N   0  0  0  0  0  0  0  0  0  0  0  0
    8.7782  -15.3110   12.8507 C   0  0  0  0  0  0  0  0  0  0  0  0
    8.9689  -15.0744   14.1756 N   0  0  0  0  0  0  0  0  0  0  0  0
    9.5606  -18.1632   17.9676 C   0  0  0  0  0  0  0  0  0  0  0  0
    8.7532  -17.8847   18.8831 O   0  0  0  0  0  0  0  0  0  0  0  0
   10.2914  -20.3672   21.5589 O   0  0  0  0  0  0  0  0  0  0  0  0
   10.0335  -19.9203   20.2975 C   0  0  0  0  0  0  0  0  0  0  0  0
   11.0916  -18.9983   19.7190 C   0  0  2  0  0  0  0  0  0  0  0  0
   10.8266  -18.6734   18.3441 N   0  0  0  0  0  0  0  0  0  0  0  0
   12.4359  -19.5990   19.9144 C   0  0  0  0  0  0  0  0  0  0  0  0
   12.7922  -20.6280   19.2415 O   0  0  0  0  0  0  0  0  0  0  0  0
   13.4123  -19.1154   20.8213 N   0  0  0  0  0  0  0  0  0  0  0  0
   14.7345  -19.6963   20.9607 C   0  0  1  0  0  0  0  0  0  0  0  0
   15.6338  -18.6290   21.5612 C   0  0  0  0  0  0  0  0  0  0  0  0
   16.3001  -17.8780   20.4507 C   0  0  0  0  0  0  0  0  0  0  0  0
   17.2986  -16.9539   21.0057 C   0  0  0  0  0  0  0  0  0  0  0  0
   18.0395  -16.2976   20.2470 O   0  0  0  0  0  0  0  0  0  0  0  0
   14.6411  -20.7983   21.9440 C   0  0  0  0  0  0  0  0  0  0  0  0
   13.4977  -21.0576   22.6886 O   0  0  0  0  0  0  0  0  0  0  0  0
   17.4139  -16.8141   22.3756 O   0  0  0  0  0  0  0  0  0  0  0  0
   15.6231  -21.5535   22.1393 O   0  0  0  0  0  0  0  0  0  0  0  0
  2  9  1  0
  2  1  1  1
  3  2  1  0
  4  3  1  0
  5  4  2  0
  6  7  1  0
  6  5  1  0
  7  8  2  0
  8  4  1  0
  9 14  1  0
 10  9  2  0
 12 11  1  0
 13 12  1  6
 14 13  1  0
 15 16  2  0
 15 13  1  0
 17 15  1  0
 18 19  1  1
 18 17  1  0
 19 20  1  0
 20 21  1  0
 21 22  2  0
 23 18  1  0
 24 23  1  0
 25 21  1  0
 26 23  2  0
M  END
$$$$
