HSE.pdb
     RDKit          3D

 26 26  0  0  1  0  0  0  0  0999 V2000
    8.0929  -14.2270   13.8688 N   0  0  0  0  0  0  0  0  0  0  0  0
    8.6987  -15.4228   14.4167 C   0  0  1  0  0  0  0  0  0  0  0  0
    9.8328  -15.9198   13.5284 C   0  0  0  0  0  0  0  0  0  0  0  0
    9.2226  -16.4616   12.2925 C   0  0  0  0  0  0  0  0  0  0  0  0
    9.4855  -16.0362   11.0212 C   0  0  0  0  0  0  0  0  0  0  0  0
    8.7376  -16.7693   10.1619 N   0  0  0  0  0  0  0  0  0  0  0  0
    8.0132  -17.6442   10.8765 C   0  0  0  0  0  0  0  0  0  0  0  0
    8.3193  -17.4463   12.1861 N   0  0  0  0  0  0  0  0  0  0  0  0
    9.2967  -15.0614   15.7358 C   0  0  0  0  0  0  0  0  0  0  0  0
   10.0721  -14.0817   15.8161 O   0  0  0  0  0  0  0  0  0  0  0  0
    8.3204  -16.8463   19.5577 O   0  0  0  0  0  0  0  0  0  0  0  0
    8.8021  -15.5875   19.3555 C   0  0  0  0  0  0  0  0  0  0  0  0
    9.7048  -15.4373   18.1443 C   0  0  2  0  0  0  0  0  0  0  0  0
    9.0276  -15.7824   16.9243 N   0  0  0  0  0  0  0  0  0  0  0  0
   10.9477  -16.2241   18.3492 C   0  0  0  0  0  0  0  0  0  0  0  0
   11.0480  -17.4134   17.8864 O   0  0  0  0  0  0  0  0  0  0  0  0
   12.0928  -15.7588   19.0436 N   0  0  0  0  0  0  0  0  0  0  0  0
   13.2589  -16.5805   19.3080 C   0  0  1  0  0  0  0  0  0  0  0  0
   14.4592  -15.8624   18.7147 C   0  0  0  0  0  0  0  0  0  0  0  0
   14.2470  -14.3854   18.8360 C   0  0  0  0  0  0  0  0  0  0  0  0
   15.3579  -13.6700   18.1933 C   0  0  0  0  0  0  0  0  0  0  0  0
   15.2819  -12.4420   17.9894 O   0  0  0  0  0  0  0  0  0  0  0  0
   13.4539  -16.6275   20.7742 C   0  0  0  0  0  0  0  0  0  0  0  0
   12.6317  -15.9591   21.6721 O   0  0  0  0  0  0  0  0  0  0  0  0
   16.4907  -14.3649   17.8146 O   0  0  0  0  0  0  0  0  0  0  0  0
   14.3973  -17.2934   21.2634 O   0  0  0  0  0  0  0  0  0  0  0  0
  2  9  1  0
  2  1  1  6
  3  2  1  0
  4  3  1  0
  5  4  2  0
  6  7  1  0
  6  5  1  0
  7  8  2  0
  8  4  1  0
  9 14  1  0
 10  9  2  0
 12 11  1  0
 13 12  1  1
 14 13  1  0
 15 16  2  0
 15 13  1  0
 17 15  1  0
 18 19  1  6
 18 17  1  0
 19 20  1  0
 20 21  1  0
 21 22  2  0
 23 18  1  0
 24 23  1  0
 25 21  1  0
 26 23  2  0
M  END
$$$$
