HSE.pdb
     RDKit          3D

 26 26  0  0  1  0  0  0  0  0999 V2000
   13.7293  -13.6302   17.4799 N   0  0  0  0  0  0  0  0  0  0  0  0
   12.5043  -14.4025   17.4847 C   0  0  1  0  0  0  0  0  0  0  0  0
   12.7982  -15.8977   17.4917 C   0  0  0  0  0  0  0  0  0  0  0  0
   13.1572  -16.2851   16.1081 C   0  0  0  0  0  0  0  0  0  0  0  0
   13.2085  -15.4441   15.0328 C   0  0  0  0  0  0  0  0  0  0  0  0
   13.5730  -16.1635   13.9444 N   0  0  0  0  0  0  0  0  0  0  0  0
   13.7497  -17.4385   14.3235 C   0  0  0  0  0  0  0  0  0  0  0  0
   13.4913  -17.5023   15.6565 N   0  0  0  0  0  0  0  0  0  0  0  0
   11.7787  -14.0890   18.7509 C   0  0  0  0  0  0  0  0  0  0  0  0
   12.3832  -14.1622   19.8450 O   0  0  0  0  0  0  0  0  0  0  0  0
    7.5236  -13.9610   19.1863 O   0  0  0  0  0  0  0  0  0  0  0  0
    8.3089  -13.0710   19.8561 C   0  0  0  0  0  0  0  0  0  0  0  0
    9.7517  -13.5058   20.0394 C   0  0  2  0  0  0  0  0  0  0  0  0
   10.4160  -13.7055   18.7805 N   0  0  0  0  0  0  0  0  0  0  0  0
    9.8024  -14.7093   20.9083 C   0  0  0  0  0  0  0  0  0  0  0  0
    9.7814  -15.8823   20.3962 O   0  0  0  0  0  0  0  0  0  0  0  0
    9.8766  -14.6807   22.3238 N   0  0  0  0  0  0  0  0  0  0  0  0
    9.8331  -15.8705   23.1530 C   0  0  1  0  0  0  0  0  0  0  0  0
   11.2122  -16.0417   23.7669 C   0  0  0  0  0  0  0  0  0  0  0  0
   12.1441  -16.5706   22.7214 C   0  0  0  0  0  0  0  0  0  0  0  0
   13.4883  -16.7344   23.2917 C   0  0  0  0  0  0  0  0  0  0  0  0
   13.6355  -17.2421   24.4212 O   0  0  0  0  0  0  0  0  0  0  0  0
    8.8864  -15.6131   24.2610 C   0  0  0  0  0  0  0  0  0  0  0  0
    8.2197  -14.4059   24.4261 O   0  0  0  0  0  0  0  0  0  0  0  0
   14.5922  -16.3225   22.5697 O   0  0  0  0  0  0  0  0  0  0  0  0
    8.6515  -16.5062   25.1094 O   0  0  0  0  0  0  0  0  0  0  0  0
  2  9  1  0
  2  1  1  1
  3  2  1  0
  4  3  1  0
  5  4  2  0
  6  7  1  0
  6  5  1  0
  7  8  2  0
  8  4  1  0
  9 14  1  0
 10  9  2  0
 12 11  1  0
 13 12  1  6
 14 13  1  0
 15 16  2  0
 15 13  1  0
 17 15  1  0
 18 19  1  1
 18 17  1  0
 19 20  1  0
 20 21  1  0
 21 22  2  0
 23 18  1  0
 24 23  1  0
 25 21  1  0
 26 23  2  0
M  END
$$$$
