HSE.pdb
     RDKit          3D

 26 26  0  0  1  0  0  0  0  0999 V2000
    8.5908  -13.8189   15.5023 N   0  0  0  0  0  0  0  0  0  0  0  0
    8.2640  -14.8727   16.4403 C   0  0  1  0  0  0  0  0  0  0  0  0
    8.9265  -16.1862   16.0429 C   0  0  0  0  0  0  0  0  0  0  0  0
    8.1933  -16.7150   14.8697 C   0  0  0  0  0  0  0  0  0  0  0  0
    7.4415  -17.8554   14.8475 C   0  0  0  0  0  0  0  0  0  0  0  0
    6.9313  -18.0068   13.6018 N   0  0  0  0  0  0  0  0  0  0  0  0
    7.3526  -16.9800   12.8476 C   0  0  0  0  0  0  0  0  0  0  0  0
    8.1284  -16.1913   13.6375 N   0  0  0  0  0  0  0  0  0  0  0  0
    8.8201  -14.4818   17.7692 C   0  0  0  0  0  0  0  0  0  0  0  0
   10.0186  -14.1308   17.8596 O   0  0  0  0  0  0  0  0  0  0  0  0
    6.7367  -14.9022   21.5143 O   0  0  0  0  0  0  0  0  0  0  0  0
    7.6486  -13.9115   21.3033 C   0  0  0  0  0  0  0  0  0  0  0  0
    8.6713  -14.2062   20.2209 C   0  0  2  0  0  0  0  0  0  0  0  0
    8.0483  -14.4871   18.9564 N   0  0  0  0  0  0  0  0  0  0  0  0
    9.5699  -15.3002   20.6698 C   0  0  0  0  0  0  0  0  0  0  0  0
    9.3286  -16.5145   20.3444 O   0  0  0  0  0  0  0  0  0  0  0  0
   10.7297  -15.1178   21.4644 N   0  0  0  0  0  0  0  0  0  0  0  0
   11.5044  -16.2137   22.0156 C   0  0  1  0  0  0  0  0  0  0  0  0
   12.9079  -15.6899   22.2687 C   0  0  0  0  0  0  0  0  0  0  0  0
   13.5713  -15.4303   20.9520 C   0  0  0  0  0  0  0  0  0  0  0  0
   14.9478  -14.9658   21.1728 C   0  0  0  0  0  0  0  0  0  0  0  0
   15.2020  -13.7455   21.2106 O   0  0  0  0  0  0  0  0  0  0  0  0
   10.9203  -16.5621   23.3300 C   0  0  0  0  0  0  0  0  0  0  0  0
   11.3296  -17.6592   24.0768 O   0  0  0  0  0  0  0  0  0  0  0  0
   15.9625  -15.8889   21.3389 O   0  0  0  0  0  0  0  0  0  0  0  0
   10.0101  -15.8540   23.8227 O   0  0  0  0  0  0  0  0  0  0  0  0
  2  9  1  0
  2  1  1  6
  3  2  1  0
  4  3  1  0
  5  4  2  0
  6  7  1  0
  6  5  1  0
  7  8  2  0
  8  4  1  0
  9 14  1  0
 10  9  2  0
 12 11  1  0
 13 12  1  1
 14 13  1  0
 15 16  2  0
 15 13  1  0
 17 15  1  0
 18 19  1  1
 18 17  1  0
 19 20  1  0
 20 21  1  0
 21 22  2  0
 23 18  1  0
 24 23  1  0
 25 21  1  0
 26 23  2  0
M  END
$$$$
