HSE.pdb
     RDKit          3D

 26 26  0  0  1  0  0  0  0  0999 V2000
    8.6399  -18.0325   19.2540 N   0  0  0  0  0  0  0  0  0  0  0  0
    9.6901  -17.1558   18.7789 C   0  0  1  0  0  0  0  0  0  0  0  0
    9.2111  -16.3128   17.6033 C   0  0  0  0  0  0  0  0  0  0  0  0
    8.9359  -17.2364   16.4787 C   0  0  0  0  0  0  0  0  0  0  0  0
    9.7707  -17.4806   15.4253 C   0  0  0  0  0  0  0  0  0  0  0  0
    9.1734  -18.3787   14.6058 N   0  0  0  0  0  0  0  0  0  0  0  0
    7.9805  -18.6981   15.1309 C   0  0  0  0  0  0  0  0  0  0  0  0
    7.8445  -17.9897   16.2830 N   0  0  0  0  0  0  0  0  0  0  0  0
   10.0286  -16.2156   19.8877 C   0  0  0  0  0  0  0  0  0  0  0  0
   10.8501  -15.2923   19.6871 O   0  0  0  0  0  0  0  0  0  0  0  0
    8.0547  -15.6695   23.6360 O   0  0  0  0  0  0  0  0  0  0  0  0
    9.0666  -14.9019   23.1417 C   0  0  0  0  0  0  0  0  0  0  0  0
   10.0786  -15.6503   22.2933 C   0  0  2  0  0  0  0  0  0  0  0  0
    9.4584  -16.3151   21.1800 N   0  0  0  0  0  0  0  0  0  0  0  0
   10.8570  -16.5798   23.1513 C   0  0  0  0  0  0  0  0  0  0  0  0
   10.4683  -17.7876   23.3209 O   0  0  0  0  0  0  0  0  0  0  0  0
   12.0516  -16.2392   23.8344 N   0  0  0  0  0  0  0  0  0  0  0  0
   12.8298  -17.1868   24.6099 C   0  0  1  0  0  0  0  0  0  0  0  0
   14.2202  -16.5976   24.7764 C   0  0  0  0  0  0  0  0  0  0  0  0
   14.8592  -16.4787   23.4278 C   0  0  0  0  0  0  0  0  0  0  0  0
   16.1962  -15.8844   23.5627 C   0  0  0  0  0  0  0  0  0  0  0  0
   16.5529  -14.9588   22.8068 O   0  0  0  0  0  0  0  0  0  0  0  0
   12.2232  -17.2725   25.9570 C   0  0  0  0  0  0  0  0  0  0  0  0
   12.6022  -18.2165   26.9026 O   0  0  0  0  0  0  0  0  0  0  0  0
   17.0594  -16.3561   24.5331 O   0  0  0  0  0  0  0  0  0  0  0  0
   11.3208  -16.4695   26.2940 O   0  0  0  0  0  0  0  0  0  0  0  0
  2  9  1  0
  2  1  1  1
  3  2  1  0
  4  3  1  0
  5  4  2  0
  6  7  1  0
  6  5  1  0
  7  8  2  0
  8  4  1  0
  9 14  1  0
 10  9  2  0
 12 11  1  0
 13 12  1  1
 14 13  1  0
 15 16  2  0
 15 13  1  0
 17 15  1  0
 18 19  1  1
 18 17  1  0
 19 20  1  0
 20 21  1  0
 21 22  2  0
 23 18  1  0
 24 23  1  0
 25 21  1  0
 26 23  2  0
M  END
$$$$
