HSE.pdb
     RDKit          3D

 26 26  0  0  1  0  0  0  0  0999 V2000
    8.2399  -17.0088   16.6311 N   0  0  0  0  0  0  0  0  0  0  0  0
    9.0287  -17.9968   17.3374 C   0  0  1  0  0  0  0  0  0  0  0  0
   10.3599  -18.2394   16.6366 C   0  0  0  0  0  0  0  0  0  0  0  0
   10.0703  -18.9463   15.3678 C   0  0  0  0  0  0  0  0  0  0  0  0
    9.8634  -20.2899   15.2333 C   0  0  0  0  0  0  0  0  0  0  0  0
    9.6295  -20.5577   13.9262 N   0  0  0  0  0  0  0  0  0  0  0  0
    9.6872  -19.4035   13.2441 C   0  0  0  0  0  0  0  0  0  0  0  0
    9.9589  -18.4185   14.1406 N   0  0  0  0  0  0  0  0  0  0  0  0
    9.3356  -17.4455   18.6902 C   0  0  0  0  0  0  0  0  0  0  0  0
    9.9949  -16.3860   18.7916 O   0  0  0  0  0  0  0  0  0  0  0  0
    7.1200  -18.1819   22.1634 O   0  0  0  0  0  0  0  0  0  0  0  0
    7.9553  -17.1290   21.9373 C   0  0  0  0  0  0  0  0  0  0  0  0
    9.2132  -17.4690   21.1587 C   0  0  2  0  0  0  0  0  0  0  0  0
    8.9119  -18.0701   19.8882 N   0  0  0  0  0  0  0  0  0  0  0  0
   10.1021  -18.3163   21.9942 C   0  0  0  0  0  0  0  0  0  0  0  0
    9.9212  -19.5819   22.0589 O   0  0  0  0  0  0  0  0  0  0  0  0
   11.1882  -17.8316   22.7657 N   0  0  0  0  0  0  0  0  0  0  0  0
   12.0191  -18.6783   23.6010 C   0  0  1  0  0  0  0  0  0  0  0  0
   13.4001  -18.0469   23.6487 C   0  0  0  0  0  0  0  0  0  0  0  0
   13.4742  -16.9684   22.6130 C   0  0  0  0  0  0  0  0  0  0  0  0
   14.7505  -16.2505   22.7346 C   0  0  0  0  0  0  0  0  0  0  0  0
   15.6673  -16.4526   21.9137 O   0  0  0  0  0  0  0  0  0  0  0  0
   11.4680  -18.6370   24.9738 C   0  0  0  0  0  0  0  0  0  0  0  0
   10.4465  -17.7776   25.3572 O   0  0  0  0  0  0  0  0  0  0  0  0
   14.9318  -15.3477   23.7650 O   0  0  0  0  0  0  0  0  0  0  0  0
   11.9220  -19.4012   25.8584 O   0  0  0  0  0  0  0  0  0  0  0  0
  2  9  1  0
  2  1  1  6
  3  2  1  0
  4  3  1  0
  5  4  2  0
  6  7  1  0
  6  5  1  0
  7  8  2  0
  8  4  1  0
  9 14  1  0
 10  9  2  0
 12 11  1  0
 13 12  1  1
 14 13  1  0
 15 16  2  0
 15 13  1  0
 17 15  1  0
 18 19  1  1
 18 17  1  0
 19 20  1  0
 20 21  1  0
 21 22  2  0
 23 18  1  0
 24 23  1  0
 25 21  1  0
 26 23  2  0
M  END
$$$$
