HSE.pdb
     RDKit          3D

 26 26  0  0  1  0  0  0  0  0999 V2000
   10.3762  -16.3381   15.6006 N   0  0  0  0  0  0  0  0  0  0  0  0
   10.4982  -17.2987   16.6774 C   0  0  1  0  0  0  0  0  0  0  0  0
   11.7435  -18.1601   16.5060 C   0  0  0  0  0  0  0  0  0  0  0  0
   11.4345  -19.1874   15.4849 C   0  0  0  0  0  0  0  0  0  0  0  0
   10.3686  -20.0414   15.5107 C   0  0  0  0  0  0  0  0  0  0  0  0
   10.4256  -20.8295   14.4104 N   0  0  0  0  0  0  0  0  0  0  0  0
   11.5090  -20.4810   13.6996 C   0  0  0  0  0  0  0  0  0  0  0  0
   12.1226  -19.4698   14.3697 N   0  0  0  0  0  0  0  0  0  0  0  0
   10.6621  -16.5331   17.9482 C   0  0  0  0  0  0  0  0  0  0  0  0
   11.7800  -16.0504   18.2401 O   0  0  0  0  0  0  0  0  0  0  0  0
    7.8014  -16.4327   21.1519 O   0  0  0  0  0  0  0  0  0  0  0  0
    8.5516  -15.3375   20.8432 C   0  0  0  0  0  0  0  0  0  0  0  0
    9.8411  -15.6369   20.1004 C   0  0  2  0  0  0  0  0  0  0  0  0
    9.5991  -16.3197   18.8589 N   0  0  0  0  0  0  0  0  0  0  0  0
   10.7668  -16.3829   20.9907 C   0  0  0  0  0  0  0  0  0  0  0  0
   11.0229  -17.6182   20.7740 O   0  0  0  0  0  0  0  0  0  0  0  0
   11.4283  -15.8278   22.1150 N   0  0  0  0  0  0  0  0  0  0  0  0
   12.4035  -16.5512   22.9092 C   0  0  1  0  0  0  0  0  0  0  0  0
   13.6681  -15.7099   22.9445 C   0  0  0  0  0  0  0  0  0  0  0  0
   14.7022  -16.4259   23.7565 C   0  0  0  0  0  0  0  0  0  0  0  0
   16.0321  -15.8733   23.4653 C   0  0  0  0  0  0  0  0  0  0  0  0
   16.1443  -14.7766   22.8823 O   0  0  0  0  0  0  0  0  0  0  0  0
   11.8877  -16.6298   24.2941 C   0  0  0  0  0  0  0  0  0  0  0  0
   12.3978  -17.5025   25.2467 O   0  0  0  0  0  0  0  0  0  0  0  0
   17.1615  -16.5753   23.8408 O   0  0  0  0  0  0  0  0  0  0  0  0
   10.9453  -15.8872   24.6587 O   0  0  0  0  0  0  0  0  0  0  0  0
  2  9  1  0
  2  1  1  6
  3  2  1  0
  4  3  1  0
  5  4  2  0
  6  7  1  0
  6  5  1  0
  7  8  2  0
  8  4  1  0
  9 14  1  0
 10  9  2  0
 12 11  1  0
 13 12  1  1
 14 13  1  0
 15 16  2  0
 15 13  1  0
 17 15  1  0
 18 19  1  1
 18 17  1  0
 19 20  1  0
 20 21  1  0
 21 22  2  0
 23 18  1  0
 24 23  1  0
 25 21  1  0
 26 23  2  0
M  END
$$$$
