HSE.pdb
     RDKit          3D

 26 26  0  0  1  0  0  0  0  0999 V2000
   12.9267  -20.4887   16.8819 N   0  0  0  0  0  0  0  0  0  0  0  0
   11.9597  -20.8350   17.9027 C   0  0  1  0  0  0  0  0  0  0  0  0
   11.5196  -22.2880   17.7714 C   0  0  0  0  0  0  0  0  0  0  0  0
   10.5192  -22.3512   16.6812 C   0  0  0  0  0  0  0  0  0  0  0  0
    9.2428  -22.8240   16.7972 C   0  0  0  0  0  0  0  0  0  0  0  0
    8.6371  -22.7203   15.5900 N   0  0  0  0  0  0  0  0  0  0  0  0
    9.5146  -22.1908   14.7238 C   0  0  0  0  0  0  0  0  0  0  0  0
   10.6693  -21.9675   15.4056 N   0  0  0  0  0  0  0  0  0  0  0  0
   12.6330  -20.6953   19.2275 C   0  0  0  0  0  0  0  0  0  0  0  0
   13.8830  -20.7254   19.2926 O   0  0  0  0  0  0  0  0  0  0  0  0
   10.5590  -19.8805   22.8896 O   0  0  0  0  0  0  0  0  0  0  0  0
   11.7835  -19.3629   22.5890 C   0  0  0  0  0  0  0  0  0  0  0  0
   12.6221  -20.2127   21.6515 C   0  0  2  0  0  0  0  0  0  0  0  0
   11.9184  -20.5272   20.4383 N   0  0  0  0  0  0  0  0  0  0  0  0
   13.0949  -21.4250   22.3675 C   0  0  0  0  0  0  0  0  0  0  0  0
   12.3685  -22.4780   22.4128 O   0  0  0  0  0  0  0  0  0  0  0  0
   14.3388  -21.5325   23.0391 N   0  0  0  0  0  0  0  0  0  0  0  0
   14.7896  -22.7413   23.7029 C   0  0  1  0  0  0  0  0  0  0  0  0
   16.3082  -22.7410   23.6555 C   0  0  0  0  0  0  0  0  0  0  0  0
   16.7468  -22.7211   22.2242 C   0  0  0  0  0  0  0  0  0  0  0  0
   18.2143  -22.6968   22.1552 C   0  0  0  0  0  0  0  0  0  0  0  0
   18.8437  -21.6742   22.4920 O   0  0  0  0  0  0  0  0  0  0  0  0
   14.3931  -22.6488   25.1256 C   0  0  0  0  0  0  0  0  0  0  0  0
   14.5487  -23.6935   26.0275 O   0  0  0  0  0  0  0  0  0  0  0  0
   18.8967  -23.8147   21.7144 O   0  0  0  0  0  0  0  0  0  0  0  0
   13.8890  -21.5907   25.5718 O   0  0  0  0  0  0  0  0  0  0  0  0
  2  9  1  0
  2  1  1  6
  3  2  1  0
  4  3  1  0
  5  4  2  0
  6  7  1  0
  6  5  1  0
  7  8  2  0
  8  4  1  0
  9 14  1  0
 10  9  2  0
 12 11  1  0
 13 12  1  1
 14 13  1  0
 15 16  2  0
 15 13  1  0
 17 15  1  0
 18 19  1  1
 18 17  1  0
 19 20  1  0
 20 21  1  0
 21 22  2  0
 23 18  1  0
 24 23  1  0
 25 21  1  0
 26 23  2  0
M  END
$$$$
