LMD.pdb
     RDKit          3D

 25 24  0  0  1  0  0  0  0  0999 V2000
    8.3294  -14.2615   17.7455 C   0  0  0  0  0  0  0  0  0  0  0  0
    7.3348  -13.5735   18.6564 C   0  0  2  0  0  0  0  0  0  0  0  0
    6.8863  -12.2843   18.0122 C   0  0  0  0  0  0  0  0  0  0  0  0
    7.9529  -13.3214   20.0345 C   0  0  0  0  0  0  0  0  0  0  0  0
    8.2742  -14.6902   20.5963 C   0  0  2  0  0  0  0  0  0  0  0  0
    7.0568  -15.4756   20.5446 N   0  0  0  0  0  0  0  0  0  0  0  0
    8.7741  -14.6465   21.9790 C   0  0  0  0  0  0  0  0  0  0  0  0
    9.9166  -14.1735   22.1978 O   0  0  0  0  0  0  0  0  0  0  0  0
    5.9771  -11.9703   26.6145 C   0  0  0  0  0  0  0  0  0  0  0  0
    7.5841  -12.5416   27.2176 S   0  0  0  0  0  0  0  0  0  0  0  0
    7.8620  -14.2870   26.7870 C   0  0  0  0  0  0  0  0  0  0  0  0
    7.4311  -14.4798   25.3726 C   0  0  0  0  0  0  0  0  0  0  0  0
    8.5017  -15.0005   24.4644 C   0  0  2  0  0  0  0  0  0  0  0  0
    8.0507  -15.1068   23.1096 N   0  0  0  0  0  0  0  0  0  0  0  0
    9.1278  -16.2486   24.9656 C   0  0  0  0  0  0  0  0  0  0  0  0
    8.5287  -17.3522   25.0293 O   0  0  0  0  0  0  0  0  0  0  0  0
   10.4767  -16.2260   25.4042 N   0  0  0  0  0  0  0  0  0  0  0  0
   11.2225  -17.3407   25.9044 C   0  0  1  0  0  0  0  0  0  0  0  0
   12.6899  -17.0618   25.7383 C   0  0  0  0  0  0  0  0  0  0  0  0
   13.0212  -16.9226   24.3216 C   0  0  0  0  0  0  0  0  0  0  0  0
   12.5500  -17.6079   23.4063 O   0  0  0  0  0  0  0  0  0  0  0  0
   10.8704  -17.6972   27.2912 C   0  0  0  0  0  0  0  0  0  0  0  0
   10.0876  -16.9792   27.9364 O   0  0  0  0  0  0  0  0  0  0  0  0
   13.9495  -15.9368   23.9347 O   0  0  0  0  0  0  0  0  0  0  0  0
   11.4079  -18.8216   27.8673 O   0  0  0  0  0  0  0  0  0  0  0  0
  2  1  1  6
  3  2  1  0
  4  2  1  0
  4  5  1  0
  5  6  1  1
  7  5  1  0
  7  8  2  0
 10 11  1  0
 10  9  1  0
 11 12  1  0
 13 12  1  1
 13 14  1  0
 14  7  1  0
 15 13  1  0
 16 15  2  0
 17 15  1  0
 18 22  1  0
 18 17  1  0
 18 19  1  1
 20 19  1  0
 20 21  2  0
 22 25  1  0
 23 22  2  0
 24 20  1  0
M  END
$$$$
