LMD.pdb
     RDKit          3D

 25 24  0  0  1  0  0  0  0  0999 V2000
    6.8442  -13.5394   19.0657 C   0  0  0  0  0  0  0  0  0  0  0  0
    7.8743  -13.2616   20.1399 C   0  0  2  0  0  0  0  0  0  0  0  0
    8.2147  -11.7911   20.1279 C   0  0  0  0  0  0  0  0  0  0  0  0
    9.1217  -14.1232   19.9245 C   0  0  0  0  0  0  0  0  0  0  0  0
    8.8945  -15.3828   20.7334 C   0  0  2  0  0  0  0  0  0  0  0  0
    7.4825  -15.7008   20.6510 N   0  0  0  0  0  0  0  0  0  0  0  0
    9.2868  -15.2444   22.1442 C   0  0  0  0  0  0  0  0  0  0  0  0
   10.4621  -14.8961   22.4170 O   0  0  0  0  0  0  0  0  0  0  0  0
    7.6905  -11.8127   27.5227 C   0  0  0  0  0  0  0  0  0  0  0  0
    6.5290  -12.5532   26.3500 S   0  0  0  0  0  0  0  0  0  0  0  0
    7.4100  -13.3871   24.9944 C   0  0  0  0  0  0  0  0  0  0  0  0
    7.8050  -14.7422   25.4754 C   0  0  0  0  0  0  0  0  0  0  0  0
    8.8221  -15.4312   24.6193 C   0  0  2  0  0  0  0  0  0  0  0  0
    8.4227  -15.4784   23.2451 N   0  0  0  0  0  0  0  0  0  0  0  0
    9.2225  -16.7568   25.1515 C   0  0  0  0  0  0  0  0  0  0  0  0
    8.4737  -17.7668   25.1425 O   0  0  0  0  0  0  0  0  0  0  0  0
   10.5167  -16.9241   25.7078 N   0  0  0  0  0  0  0  0  0  0  0  0
   11.0443  -18.1274   26.2760 C   0  0  1  0  0  0  0  0  0  0  0  0
   12.5369  -18.1378   26.1008 C   0  0  0  0  0  0  0  0  0  0  0  0
   12.8796  -18.3195   24.6917 C   0  0  0  0  0  0  0  0  0  0  0  0
   12.0850  -18.6321   23.7970 O   0  0  0  0  0  0  0  0  0  0  0  0
   10.6406  -18.3301   27.6796 C   0  0  0  0  0  0  0  0  0  0  0  0
   10.8283  -19.4304   28.2262 O   0  0  0  0  0  0  0  0  0  0  0  0
   14.2154  -18.1308   24.2875 O   0  0  0  0  0  0  0  0  0  0  0  0
   10.0582  -17.3031   28.3803 O   0  0  0  0  0  0  0  0  0  0  0  0
  2  1  1  6
  3  2  1  0
  4  2  1  0
  4  5  1  0
  5  6  1  1
  7  5  1  0
  7  8  2  0
 10 11  1  0
 10  9  1  0
 11 12  1  0
 13 12  1  1
 13 14  1  0
 14  7  1  0
 15 13  1  0
 16 15  2  0
 17 15  1  0
 18 22  1  0
 18 17  1  0
 18 19  1  1
 20 19  1  0
 20 21  2  0
 22 25  1  0
 23 22  2  0
 24 20  1  0
M  END
$$$$
