LMD.pdb
     RDKit          3D

 25 24  0  0  1  0  0  0  0  0999 V2000
    8.3003  -14.9053   18.5932 C   0  0  0  0  0  0  0  0  0  0  0  0
    7.6715  -13.8992   19.5339 C   0  0  2  0  0  0  0  0  0  0  0  0
    7.4430  -12.6054   18.7907 C   0  0  0  0  0  0  0  0  0  0  0  0
    8.5586  -13.6854   20.7636 C   0  0  0  0  0  0  0  0  0  0  0  0
    8.5996  -15.0205   21.4765 C   0  0  2  0  0  0  0  0  0  0  0  0
    7.2314  -15.4795   21.6141 N   0  0  0  0  0  0  0  0  0  0  0  0
    9.2314  -14.9500   22.8031 C   0  0  0  0  0  0  0  0  0  0  0  0
   10.4774  -14.8120   22.8764 O   0  0  0  0  0  0  0  0  0  0  0  0
    5.2869  -11.1546   26.6641 C   0  0  0  0  0  0  0  0  0  0  0  0
    7.0182  -11.6695   26.7639 S   0  0  0  0  0  0  0  0  0  0  0  0
    7.2917  -13.2244   25.8602 C   0  0  0  0  0  0  0  0  0  0  0  0
    8.7434  -13.5528   25.9506 C   0  0  0  0  0  0  0  0  0  0  0  0
    9.1232  -14.8588   25.3243 C   0  0  2  0  0  0  0  0  0  0  0  0
    8.5280  -15.0273   24.0329 N   0  0  0  0  0  0  0  0  0  0  0  0
    8.8959  -16.0178   26.2221 C   0  0  0  0  0  0  0  0  0  0  0  0
    9.1174  -15.9950   27.4595 O   0  0  0  0  0  0  0  0  0  0  0  0
    8.4013  -17.2328   25.6823 N   0  0  0  0  0  0  0  0  0  0  0  0
    8.3882  -18.5060   26.3366 C   0  0  1  0  0  0  0  0  0  0  0  0
    7.6072  -19.4787   25.4986 C   0  0  0  0  0  0  0  0  0  0  0  0
    7.6186  -20.8027   26.1174 C   0  0  0  0  0  0  0  0  0  0  0  0
    7.5244  -21.0261   27.3301 O   0  0  0  0  0  0  0  0  0  0  0  0
    9.7374  -19.0019   26.6648 C   0  0  0  0  0  0  0  0  0  0  0  0
    9.9329  -19.6073   27.7325 O   0  0  0  0  0  0  0  0  0  0  0  0
    7.7460  -21.9371   25.2927 O   0  0  0  0  0  0  0  0  0  0  0  0
   10.7754  -18.7940   25.7906 O   0  0  0  0  0  0  0  0  0  0  0  0
  2  1  1  6
  3  2  1  0
  4  2  1  0
  4  5  1  0
  5  6  1  1
  7  5  1  0
  7  8  2  0
 10 11  1  0
 10  9  1  0
 11 12  1  0
 13 12  1  1
 13 14  1  0
 14  7  1  0
 15 13  1  0
 16 15  2  0
 17 15  1  0
 18 22  1  0
 18 17  1  0
 18 19  1  6
 20 19  1  0
 20 21  2  0
 22 25  1  0
 23 22  2  0
 24 20  1  0
M  END
$$$$
