LMD.pdb
     RDKit          3D

 25 24  0  0  1  0  0  0  0  0999 V2000
    8.1509  -14.2181   18.0854 C   0  0  0  0  0  0  0  0  0  0  0  0
    7.4730  -13.4642   19.2099 C   0  0  2  0  0  0  0  0  0  0  0  0
    7.1353  -12.0714   18.7362 C   0  0  0  0  0  0  0  0  0  0  0  0
    8.3701  -13.4279   20.4504 C   0  0  0  0  0  0  0  0  0  0  0  0
    8.4504  -14.8582   20.9402 C   0  0  2  0  0  0  0  0  0  0  0  0
    7.1379  -15.4490   20.7671 N   0  0  0  0  0  0  0  0  0  0  0  0
    8.8574  -14.9663   22.3496 C   0  0  0  0  0  0  0  0  0  0  0  0
   10.0041  -14.5776   22.6827 O   0  0  0  0  0  0  0  0  0  0  0  0
    6.4671  -10.9363   26.7375 C   0  0  0  0  0  0  0  0  0  0  0  0
    6.7830  -12.7020   26.9716 S   0  0  0  0  0  0  0  0  0  0  0  0
    7.0460  -13.5369   25.3769 C   0  0  0  0  0  0  0  0  0  0  0  0
    7.3668  -14.9654   25.6598 C   0  0  0  0  0  0  0  0  0  0  0  0
    8.4132  -15.5542   24.7649 C   0  0  2  0  0  0  0  0  0  0  0  0
    8.0381  -15.4865   23.3847 N   0  0  0  0  0  0  0  0  0  0  0  0
    8.8337  -16.9136   25.1845 C   0  0  0  0  0  0  0  0  0  0  0  0
    8.0457  -17.8887   25.2800 O   0  0  0  0  0  0  0  0  0  0  0  0
   10.1949  -17.1567   25.5018 N   0  0  0  0  0  0  0  0  0  0  0  0
   10.7503  -18.3971   25.9513 C   0  0  1  0  0  0  0  0  0  0  0  0
   11.8488  -18.8101   25.0125 C   0  0  0  0  0  0  0  0  0  0  0  0
   12.6732  -17.6561   24.6596 C   0  0  0  0  0  0  0  0  0  0  0  0
   12.4810  -16.9087   23.6932 O   0  0  0  0  0  0  0  0  0  0  0  0
   11.1958  -18.3563   27.3563 C   0  0  0  0  0  0  0  0  0  0  0  0
   11.1556  -17.2872   27.9888 O   0  0  0  0  0  0  0  0  0  0  0  0
   13.7847  -17.3431   25.4658 O   0  0  0  0  0  0  0  0  0  0  0  0
   11.6542  -19.4992   27.9634 O   0  0  0  0  0  0  0  0  0  0  0  0
  2  1  1  6
  3  2  1  0
  4  2  1  0
  4  5  1  0
  5  6  1  1
  7  5  1  0
  7  8  2  0
 10 11  1  0
 10  9  1  0
 11 12  1  0
 13 12  1  1
 13 14  1  0
 14  7  1  0
 15 13  1  0
 16 15  2  0
 17 15  1  0
 18 22  1  0
 18 17  1  0
 18 19  1  6
 20 19  1  0
 20 21  2  0
 22 25  1  0
 23 22  2  0
 24 20  1  0
M  END
$$$$
