LMD.pdb
     RDKit          3D

 25 24  0  0  1  0  0  0  0  0999 V2000
    7.3975  -11.8759   19.6100 C   0  0  0  0  0  0  0  0  0  0  0  0
    8.0921  -13.2004   19.3743 C   0  0  2  0  0  0  0  0  0  0  0  0
    8.6633  -13.2157   17.9772 C   0  0  0  0  0  0  0  0  0  0  0  0
    7.1199  -14.3634   19.5908 C   0  0  0  0  0  0  0  0  0  0  0  0
    7.9257  -15.4503   20.2703 C   0  0  2  0  0  0  0  0  0  0  0  0
    7.0685  -16.6132   20.3904 N   0  0  0  0  0  0  0  0  0  0  0  0
    8.4175  -15.0612   21.6009 C   0  0  0  0  0  0  0  0  0  0  0  0
    9.5809  -14.6007   21.7083 O   0  0  0  0  0  0  0  0  0  0  0  0
    7.1371  -11.6247   28.4335 C   0  0  0  0  0  0  0  0  0  0  0  0
    6.5739  -12.2632   26.8374 S   0  0  0  0  0  0  0  0  0  0  0  0
    7.7296  -13.5078   26.1857 C   0  0  0  0  0  0  0  0  0  0  0  0
    7.2403  -13.9206   24.8390 C   0  0  0  0  0  0  0  0  0  0  0  0
    8.1584  -14.8471   24.1037 C   0  0  2  0  0  0  0  0  0  0  0  0
    7.6641  -15.1676   22.7986 N   0  0  0  0  0  0  0  0  0  0  0  0
    8.5231  -16.0477   24.8953 C   0  0  0  0  0  0  0  0  0  0  0  0
    7.6807  -16.8094   25.4347 O   0  0  0  0  0  0  0  0  0  0  0  0
    9.8912  -16.3796   25.0703 N   0  0  0  0  0  0  0  0  0  0  0  0
   10.4021  -17.5910   25.6367 C   0  0  1  0  0  0  0  0  0  0  0  0
   11.4154  -18.1812   24.6968 C   0  0  0  0  0  0  0  0  0  0  0  0
   12.4792  -17.2157   24.4284 C   0  0  0  0  0  0  0  0  0  0  0  0
   12.4708  -16.3764   23.5202 O   0  0  0  0  0  0  0  0  0  0  0  0
   10.9350  -17.4128   27.0000 C   0  0  0  0  0  0  0  0  0  0  0  0
   11.3663  -18.3932   27.6303 O   0  0  0  0  0  0  0  0  0  0  0  0
   13.6205  -17.2154   25.2535 O   0  0  0  0  0  0  0  0  0  0  0  0
   10.9538  -16.1642   27.5706 O   0  0  0  0  0  0  0  0  0  0  0  0
  2  1  1  6
  3  2  1  0
  4  2  1  0
  4  5  1  0
  5  6  1  1
  7  5  1  0
  7  8  2  0
 10 11  1  0
 10  9  1  0
 11 12  1  0
 13 12  1  1
 13 14  1  0
 14  7  1  0
 15 13  1  0
 16 15  2  0
 17 15  1  0
 18 22  1  0
 18 17  1  0
 18 19  1  6
 20 19  1  0
 20 21  2  0
 22 25  1  0
 23 22  2  0
 24 20  1  0
M  END
$$$$
