LMD.pdb
     RDKit          3D

 25 24  0  0  1  0  0  0  0  0999 V2000
    8.5891  -14.3186   17.7409 C   0  0  0  0  0  0  0  0  0  0  0  0
    7.6197  -13.5490   18.6129 C   0  0  2  0  0  0  0  0  0  0  0  0
    7.2856  -12.2391   17.9413 C   0  0  0  0  0  0  0  0  0  0  0  0
    8.2120  -13.3245   20.0070 C   0  0  0  0  0  0  0  0  0  0  0  0
    8.3783  -14.7038   20.6087 C   0  0  2  0  0  0  0  0  0  0  0  0
    7.1369  -15.4214   20.3952 N   0  0  0  0  0  0  0  0  0  0  0  0
    8.6901  -14.6755   22.0460 C   0  0  0  0  0  0  0  0  0  0  0  0
    9.8207  -14.2722   22.4150 O   0  0  0  0  0  0  0  0  0  0  0  0
    6.6667  -11.5503   26.9075 C   0  0  0  0  0  0  0  0  0  0  0  0
    7.8674  -12.8845   27.1336 S   0  0  0  0  0  0  0  0  0  0  0  0
    7.1316  -14.5009   26.7397 C   0  0  0  0  0  0  0  0  0  0  0  0
    6.9028  -14.5488   25.2670 C   0  0  0  0  0  0  0  0  0  0  0  0
    8.0808  -15.0206   24.4722 C   0  0  2  0  0  0  0  0  0  0  0  0
    7.7940  -15.0766   23.0704 N   0  0  0  0  0  0  0  0  0  0  0  0
    8.6628  -16.2812   24.9947 C   0  0  0  0  0  0  0  0  0  0  0  0
    8.0124  -17.3500   25.1197 O   0  0  0  0  0  0  0  0  0  0  0  0
   10.0268  -16.3125   25.3829 N   0  0  0  0  0  0  0  0  0  0  0  0
   10.7590  -17.4664   25.8091 C   0  0  1  0  0  0  0  0  0  0  0  0
   12.2068  -17.2883   25.4473 C   0  0  0  0  0  0  0  0  0  0  0  0
   12.9372  -18.5373   25.6538 C   0  0  0  0  0  0  0  0  0  0  0  0
   12.4484  -19.5890   26.0831 O   0  0  0  0  0  0  0  0  0  0  0  0
   10.5696  -17.7768   27.2380 C   0  0  0  0  0  0  0  0  0  0  0  0
   10.3635  -16.8588   28.0501 O   0  0  0  0  0  0  0  0  0  0  0  0
   14.3113  -18.5791   25.3485 O   0  0  0  0  0  0  0  0  0  0  0  0
   10.6210  -19.0794   27.6690 O   0  0  0  0  0  0  0  0  0  0  0  0
  2  1  1  6
  3  2  1  0
  4  2  1  0
  4  5  1  0
  5  6  1  1
  7  5  1  0
  7  8  2  0
 10 11  1  0
 10  9  1  0
 11 12  1  0
 13 12  1  1
 13 14  1  0
 14  7  1  0
 15 13  1  0
 16 15  2  0
 17 15  1  0
 18 22  1  0
 18 17  1  0
 18 19  1  1
 20 19  1  0
 20 21  2  0
 22 25  1  0
 23 22  2  0
 24 20  1  0
M  END
$$$$
