LMD.pdb
     RDKit          3D

 25 24  0  0  1  0  0  0  0  0999 V2000
    7.3326  -14.2305   18.2822 C   0  0  0  0  0  0  0  0  0  0  0  0
    7.6938  -13.7993   19.6878 C   0  0  2  0  0  0  0  0  0  0  0  0
    7.4321  -12.3198   19.8321 C   0  0  0  0  0  0  0  0  0  0  0  0
    9.1550  -14.1386   19.9957 C   0  0  0  0  0  0  0  0  0  0  0  0
    9.1117  -15.3392   20.9170 C   0  0  2  0  0  0  0  0  0  0  0  0
    7.8810  -16.0534   20.6392 N   0  0  0  0  0  0  0  0  0  0  0  0
    9.1609  -14.9784   22.3422 C   0  0  0  0  0  0  0  0  0  0  0  0
   10.2050  -14.4519   22.8002 O   0  0  0  0  0  0  0  0  0  0  0  0
    7.4485  -11.3418   27.4836 C   0  0  0  0  0  0  0  0  0  0  0  0
    6.1993  -12.4736   26.8270 S   0  0  0  0  0  0  0  0  0  0  0  0
    6.8610  -14.1611   26.6738 C   0  0  0  0  0  0  0  0  0  0  0  0
    6.8360  -14.5291   25.2290 C   0  0  0  0  0  0  0  0  0  0  0  0
    8.1694  -14.9093   24.6635 C   0  0  2  0  0  0  0  0  0  0  0  0
    8.0982  -15.1828   23.2598 N   0  0  0  0  0  0  0  0  0  0  0  0
    8.8353  -15.9904   25.4308 C   0  0  0  0  0  0  0  0  0  0  0  0
    8.9885  -15.9671   26.6786 O   0  0  0  0  0  0  0  0  0  0  0  0
    9.3370  -17.1264   24.7451 N   0  0  0  0  0  0  0  0  0  0  0  0
   10.0206  -18.2372   25.3351 C   0  0  1  0  0  0  0  0  0  0  0  0
   10.3441  -19.2385   24.2621 C   0  0  0  0  0  0  0  0  0  0  0  0
   11.0198  -20.3986   24.8398 C   0  0  0  0  0  0  0  0  0  0  0  0
   11.2118  -20.5866   26.0469 O   0  0  0  0  0  0  0  0  0  0  0  0
   11.2095  -17.8392   26.1111 C   0  0  0  0  0  0  0  0  0  0  0  0
   12.0383  -17.0555   25.6177 O   0  0  0  0  0  0  0  0  0  0  0  0
   11.5035  -21.4019   23.9780 O   0  0  0  0  0  0  0  0  0  0  0  0
   11.3988  -18.3349   27.3774 O   0  0  0  0  0  0  0  0  0  0  0  0
  2  1  1  6
  3  2  1  0
  4  2  1  0
  4  5  1  0
  5  6  1  1
  7  5  1  0
  7  8  2  0
 10 11  1  0
 10  9  1  0
 11 12  1  0
 13 12  1  1
 13 14  1  0
 14  7  1  0
 15 13  1  0
 16 15  2  0
 17 15  1  0
 18 22  1  0
 18 17  1  0
 18 19  1  6
 20 19  1  0
 20 21  2  0
 22 25  1  0
 23 22  2  0
 24 20  1  0
M  END
$$$$
