LMD.pdb
     RDKit          3D

 25 24  0  0  1  0  0  0  0  0999 V2000
    8.0165  -14.0618   17.1179 C   0  0  0  0  0  0  0  0  0  0  0  0
    7.5855  -13.7641   18.5384 C   0  0  2  0  0  0  0  0  0  0  0  0
    6.8645  -12.4384   18.5672 C   0  0  0  0  0  0  0  0  0  0  0  0
    8.7949  -13.7604   19.4777 C   0  0  0  0  0  0  0  0  0  0  0  0
    8.6659  -15.0139   20.3170 C   0  0  2  0  0  0  0  0  0  0  0  0
    7.2969  -15.4755   20.1974 N   0  0  0  0  0  0  0  0  0  0  0  0
    8.9908  -14.7977   21.7353 C   0  0  0  0  0  0  0  0  0  0  0  0
   10.1492  -14.4233   22.0434 O   0  0  0  0  0  0  0  0  0  0  0  0
    7.2254  -11.6836   28.3783 C   0  0  0  0  0  0  0  0  0  0  0  0
    6.7401  -12.2776   26.7400 S   0  0  0  0  0  0  0  0  0  0  0  0
    7.5154  -13.8809   26.3689 C   0  0  0  0  0  0  0  0  0  0  0  0
    7.2253  -14.2064   24.9430 C   0  0  0  0  0  0  0  0  0  0  0  0
    8.3883  -14.7708   24.1875 C   0  0  2  0  0  0  0  0  0  0  0  0
    8.0781  -14.9830   22.8058 N   0  0  0  0  0  0  0  0  0  0  0  0
    8.9748  -15.9675   24.8394 C   0  0  0  0  0  0  0  0  0  0  0  0
    8.2895  -16.9065   25.3186 O   0  0  0  0  0  0  0  0  0  0  0  0
   10.3846  -16.0864   24.9421 N   0  0  0  0  0  0  0  0  0  0  0  0
   11.1308  -17.3077   24.9707 C   0  0  1  0  0  0  0  0  0  0  0  0
   10.7670  -18.1317   23.7677 C   0  0  0  0  0  0  0  0  0  0  0  0
   11.5586  -19.3599   23.7374 C   0  0  0  0  0  0  0  0  0  0  0  0
   11.5604  -20.2313   24.6151 O   0  0  0  0  0  0  0  0  0  0  0  0
   12.5851  -17.0948   25.0888 C   0  0  0  0  0  0  0  0  0  0  0  0
   13.3190  -18.0233   25.4681 O   0  0  0  0  0  0  0  0  0  0  0  0
   12.3978  -19.6004   22.6324 O   0  0  0  0  0  0  0  0  0  0  0  0
   13.1259  -15.8713   24.7794 O   0  0  0  0  0  0  0  0  0  0  0  0
  2  1  1  6
  3  2  1  0
  4  2  1  0
  4  5  1  0
  5  6  1  1
  7  5  1  0
  7  8  2  0
 10 11  1  0
 10  9  1  0
 11 12  1  0
 13 12  1  1
 13 14  1  0
 14  7  1  0
 15 13  1  0
 16 15  2  0
 17 15  1  0
 18 22  1  0
 18 17  1  0
 18 19  1  6
 20 19  1  0
 20 21  2  0
 22 25  1  0
 23 22  2  0
 24 20  1  0
M  END
$$$$
