LMD.pdb
     RDKit          3D

 25 24  0  0  1  0  0  0  0  0999 V2000
    8.8049  -12.6358   19.2629 C   0  0  0  0  0  0  0  0  0  0  0  0
    7.6095  -13.5145   18.9610 C   0  0  2  0  0  0  0  0  0  0  0  0
    6.4497  -12.6429   18.5444 C   0  0  0  0  0  0  0  0  0  0  0  0
    7.2518  -14.3725   20.1778 C   0  0  0  0  0  0  0  0  0  0  0  0
    8.5464  -15.0254   20.6139 C   0  0  2  0  0  0  0  0  0  0  0  0
    8.3237  -16.4577   20.6319 N   0  0  0  0  0  0  0  0  0  0  0  0
    9.0017  -14.5808   21.9402 C   0  0  0  0  0  0  0  0  0  0  0  0
    9.1923  -13.3555   22.1383 O   0  0  0  0  0  0  0  0  0  0  0  0
    6.4385  -11.7594   27.8311 C   0  0  0  0  0  0  0  0  0  0  0  0
    6.5041  -12.5554   26.2079 S   0  0  0  0  0  0  0  0  0  0  0  0
    7.8915  -13.7279   26.1095 C   0  0  0  0  0  0  0  0  0  0  0  0
    7.9944  -14.1920   24.6962 C   0  0  0  0  0  0  0  0  0  0  0  0
    9.1832  -15.0573   24.4134 C   0  0  2  0  0  0  0  0  0  0  0  0
    9.2476  -15.4468   23.0370 N   0  0  0  0  0  0  0  0  0  0  0  0
    9.2967  -16.2057   25.3457 C   0  0  0  0  0  0  0  0  0  0  0  0
    9.0338  -16.1356   26.5733 O   0  0  0  0  0  0  0  0  0  0  0  0
    9.7233  -17.4657   24.8531 N   0  0  0  0  0  0  0  0  0  0  0  0
   10.4031  -18.4802   25.6000 C   0  0  1  0  0  0  0  0  0  0  0  0
   10.5730  -19.6955   24.7325 C   0  0  0  0  0  0  0  0  0  0  0  0
    9.3253  -19.9965   24.0332 C   0  0  0  0  0  0  0  0  0  0  0  0
    8.1897  -19.8380   24.4966 O   0  0  0  0  0  0  0  0  0  0  0  0
   11.6785  -18.0173   26.1771 C   0  0  0  0  0  0  0  0  0  0  0  0
   12.2217  -16.9898   25.7368 O   0  0  0  0  0  0  0  0  0  0  0  0
    9.3874  -20.5101   22.7235 O   0  0  0  0  0  0  0  0  0  0  0  0
   12.2639  -18.7220   27.1997 O   0  0  0  0  0  0  0  0  0  0  0  0
  2  1  1  1
  3  2  1  0
  4  2  1  0
  4  5  1  0
  5  6  1  1
  7  5  1  0
  7  8  2  0
 10 11  1  0
 10  9  1  0
 11 12  1  0
 13 12  1  6
 13 14  1  0
 14  7  1  0
 15 13  1  0
 16 15  2  0
 17 15  1  0
 18 22  1  0
 18 17  1  0
 18 19  1  6
 20 19  1  0
 20 21  2  0
 22 25  1  0
 23 22  2  0
 24 20  1  0
M  END
$$$$
