LMD.pdb
     RDKit          3D

 25 24  0  0  1  0  0  0  0  0999 V2000
    7.4123  -12.2542   19.9869 C   0  0  0  0  0  0  0  0  0  0  0  0
    8.2575  -13.4507   19.6042 C   0  0  2  0  0  0  0  0  0  0  0  0
    8.6285  -13.3457   18.1449 C   0  0  0  0  0  0  0  0  0  0  0  0
    7.5078  -14.7538   19.8954 C   0  0  0  0  0  0  0  0  0  0  0  0
    8.4896  -15.6340   20.6395 C   0  0  2  0  0  0  0  0  0  0  0  0
    7.9075  -16.9593   20.7196 N   0  0  0  0  0  0  0  0  0  0  0  0
    8.7939  -15.1469   21.9937 C   0  0  0  0  0  0  0  0  0  0  0  0
    9.8172  -14.4407   22.1700 O   0  0  0  0  0  0  0  0  0  0  0  0
    7.6719  -11.3760   27.7776 C   0  0  0  0  0  0  0  0  0  0  0  0
    6.6128  -12.4529   26.7821 S   0  0  0  0  0  0  0  0  0  0  0  0
    7.3376  -14.1133   26.6179 C   0  0  0  0  0  0  0  0  0  0  0  0
    7.0806  -14.5854   25.2270 C   0  0  0  0  0  0  0  0  0  0  0  0
    8.3115  -14.9700   24.4661 C   0  0  2  0  0  0  0  0  0  0  0  0
    8.0047  -15.4182   23.1412 N   0  0  0  0  0  0  0  0  0  0  0  0
    9.1790  -15.9156   25.2106 C   0  0  0  0  0  0  0  0  0  0  0  0
    9.4491  -15.7990   26.4330 O   0  0  0  0  0  0  0  0  0  0  0  0
    9.7495  -17.0227   24.5314 N   0  0  0  0  0  0  0  0  0  0  0  0
   10.6212  -18.0060   25.0993 C   0  0  1  0  0  0  0  0  0  0  0  0
   10.5914  -19.2399   24.2418 C   0  0  0  0  0  0  0  0  0  0  0  0
    9.2626  -19.8474   24.2752 C   0  0  0  0  0  0  0  0  0  0  0  0
    8.3950  -19.6230   25.1275 O   0  0  0  0  0  0  0  0  0  0  0  0
   11.9908  -17.5067   25.3205 C   0  0  0  0  0  0  0  0  0  0  0  0
   12.6406  -17.8945   26.3064 O   0  0  0  0  0  0  0  0  0  0  0  0
    8.9107  -20.7675   23.2689 O   0  0  0  0  0  0  0  0  0  0  0  0
   12.5459  -16.6143   24.4370 O   0  0  0  0  0  0  0  0  0  0  0  0
  2  1  1  6
  3  2  1  0
  4  2  1  0
  4  5  1  0
  5  6  1  1
  7  5  1  0
  7  8  2  0
 10 11  1  0
 10  9  1  0
 11 12  1  0
 13 12  1  1
 13 14  1  0
 14  7  1  0
 15 13  1  0
 16 15  2  0
 17 15  1  0
 18 22  1  0
 18 17  1  0
 18 19  1  6
 20 19  1  0
 20 21  2  0
 22 25  1  0
 23 22  2  0
 24 20  1  0
M  END
$$$$
