LMD.pdb
     RDKit          3D

 25 24  0  0  1  0  0  0  0  0999 V2000
    7.2635  -18.0208   18.9113 C   0  0  0  0  0  0  0  0  0  0  0  0
    8.6696  -18.4420   19.2827 C   0  0  2  0  0  0  0  0  0  0  0  0
    8.7691  -19.9463   19.2096 C   0  0  0  0  0  0  0  0  0  0  0  0
    9.0342  -17.9274   20.6781 C   0  0  0  0  0  0  0  0  0  0  0  0
    8.9261  -16.4192   20.6000 C   0  0  2  0  0  0  0  0  0  0  0  0
    9.9749  -15.9558   19.7130 N   0  0  0  0  0  0  0  0  0  0  0  0
    9.0601  -15.7599   21.9081 C   0  0  0  0  0  0  0  0  0  0  0  0
   10.2079  -15.5897   22.3884 O   0  0  0  0  0  0  0  0  0  0  0  0
    7.7394  -11.6040   27.7486 C   0  0  0  0  0  0  0  0  0  0  0  0
    7.7184  -12.2484   26.0583 S   0  0  0  0  0  0  0  0  0  0  0  0
    6.8265  -13.8315   25.9725 C   0  0  0  0  0  0  0  0  0  0  0  0
    6.7950  -14.2581   24.5440 C   0  0  0  0  0  0  0  0  0  0  0  0
    8.0606  -14.8956   24.0600 C   0  0  2  0  0  0  0  0  0  0  0  0
    7.9705  -15.2910   22.6868 N   0  0  0  0  0  0  0  0  0  0  0  0
    8.5336  -15.9868   24.9468 C   0  0  0  0  0  0  0  0  0  0  0  0
    7.8662  -17.0236   25.1932 O   0  0  0  0  0  0  0  0  0  0  0  0
    9.8061  -15.8823   25.5650 N   0  0  0  0  0  0  0  0  0  0  0  0
   10.4277  -16.8702   26.3938 C   0  0  1  0  0  0  0  0  0  0  0  0
   11.8950  -16.9248   26.0732 C   0  0  0  0  0  0  0  0  0  0  0  0
   12.1318  -17.8121   24.9362 C   0  0  0  0  0  0  0  0  0  0  0  0
   11.2577  -18.4313   24.3182 O   0  0  0  0  0  0  0  0  0  0  0  0
   10.1726  -16.6633   27.8313 C   0  0  0  0  0  0  0  0  0  0  0  0
    9.6191  -15.6203   28.2191 O   0  0  0  0  0  0  0  0  0  0  0  0
   13.4521  -17.9984   24.4832 O   0  0  0  0  0  0  0  0  0  0  0  0
   10.5468  -17.6232   28.7387 O   0  0  0  0  0  0  0  0  0  0  0  0
  2  1  1  1
  3  2  1  0
  4  2  1  0
  4  5  1  0
  5  6  1  6
  7  5  1  0
  7  8  2  0
 10 11  1  0
 10  9  1  0
 11 12  1  0
 13 12  1  1
 13 14  1  0
 14  7  1  0
 15 13  1  0
 16 15  2  0
 17 15  1  0
 18 22  1  0
 18 17  1  0
 18 19  1  1
 20 19  1  0
 20 21  2  0
 22 25  1  0
 23 22  2  0
 24 20  1  0
M  END
$$$$
