LMD.pdb
     RDKit          3D

 25 24  0  0  1  0  0  0  0  0999 V2000
    9.1755  -13.8689   18.6877 C   0  0  0  0  0  0  0  0  0  0  0  0
    7.8602  -13.5752   19.3779 C   0  0  2  0  0  0  0  0  0  0  0  0
    7.2503  -12.3358   18.7694 C   0  0  0  0  0  0  0  0  0  0  0  0
    8.0693  -13.4098   20.8857 C   0  0  0  0  0  0  0  0  0  0  0  0
    8.6320  -14.7298   21.3688 C   0  0  2  0  0  0  0  0  0  0  0  0
    7.6998  -15.7676   20.9742 N   0  0  0  0  0  0  0  0  0  0  0  0
    8.8331  -14.7759   22.8252 C   0  0  0  0  0  0  0  0  0  0  0  0
    9.7575  -14.0944   23.3332 O   0  0  0  0  0  0  0  0  0  0  0  0
    6.5374  -11.0102   26.8811 C   0  0  0  0  0  0  0  0  0  0  0  0
    6.9893  -12.7542   27.0448 S   0  0  0  0  0  0  0  0  0  0  0  0
    6.4614  -13.7067   25.5877 C   0  0  0  0  0  0  0  0  0  0  0  0
    6.8675  -15.1255   25.8012 C   0  0  0  0  0  0  0  0  0  0  0  0
    8.1602  -15.5048   25.1474 C   0  0  2  0  0  0  0  0  0  0  0  0
    8.0473  -15.5467   23.7206 N   0  0  0  0  0  0  0  0  0  0  0  0
    8.7557  -16.7383   25.7174 C   0  0  0  0  0  0  0  0  0  0  0  0
    8.7987  -16.9867   26.9492 O   0  0  0  0  0  0  0  0  0  0  0  0
    9.3153  -17.7097   24.8482 N   0  0  0  0  0  0  0  0  0  0  0  0
   10.5703  -18.3763   25.0205 C   0  0  1  0  0  0  0  0  0  0  0  0
   11.5715  -17.7889   24.0660 C   0  0  0  0  0  0  0  0  0  0  0  0
   12.5594  -18.7964   23.6854 C   0  0  0  0  0  0  0  0  0  0  0  0
   13.7438  -18.8069   24.0415 O   0  0  0  0  0  0  0  0  0  0  0  0
   11.0467  -18.3617   26.4159 C   0  0  0  0  0  0  0  0  0  0  0  0
   11.1656  -17.2817   27.0193 O   0  0  0  0  0  0  0  0  0  0  0  0
   12.1618  -19.8547   22.8457 O   0  0  0  0  0  0  0  0  0  0  0  0
   11.3580  -19.5410   27.0462 O   0  0  0  0  0  0  0  0  0  0  0  0
  2  1  1  6
  3  2  1  0
  4  2  1  0
  4  5  1  0
  5  6  1  1
  7  5  1  0
  7  8  2  0
 10 11  1  0
 10  9  1  0
 11 12  1  0
 13 12  1  1
 13 14  1  0
 14  7  1  0
 15 13  1  0
 16 15  2  0
 17 15  1  0
 18 22  1  0
 18 17  1  0
 18 19  1  6
 20 19  1  0
 20 21  2  0
 22 25  1  0
 23 22  2  0
 24 20  1  0
M  END
$$$$
