LMD.pdb
     RDKit          3D

 25 24  0  0  1  0  0  0  0  0999 V2000
    8.9173  -14.2847   18.4858 C   0  0  0  0  0  0  0  0  0  0  0  0
    7.8497  -13.6025   19.3148 C   0  0  2  0  0  0  0  0  0  0  0  0
    7.5589  -12.2446   18.7231 C   0  0  0  0  0  0  0  0  0  0  0  0
    8.2938  -13.4894   20.7758 C   0  0  0  0  0  0  0  0  0  0  0  0
    8.4670  -14.9124   21.2630 C   0  0  2  0  0  0  0  0  0  0  0  0
    7.2744  -15.6462   20.8875 N   0  0  0  0  0  0  0  0  0  0  0  0
    8.6662  -15.0070   22.7174 C   0  0  0  0  0  0  0  0  0  0  0  0
    9.7911  -14.7210   23.1967 O   0  0  0  0  0  0  0  0  0  0  0  0
    6.7767  -10.8144   26.5819 C   0  0  0  0  0  0  0  0  0  0  0  0
    7.0614  -12.5724   26.8992 S   0  0  0  0  0  0  0  0  0  0  0  0
    6.3988  -13.5968   25.5499 C   0  0  0  0  0  0  0  0  0  0  0  0
    6.7356  -15.0178   25.8511 C   0  0  0  0  0  0  0  0  0  0  0  0
    7.8734  -15.5683   25.0483 C   0  0  2  0  0  0  0  0  0  0  0  0
    7.6652  -15.4046   23.6411 N   0  0  0  0  0  0  0  0  0  0  0  0
    8.2250  -16.9599   25.4234 C   0  0  0  0  0  0  0  0  0  0  0  0
    7.3820  -17.8862   25.5344 O   0  0  0  0  0  0  0  0  0  0  0  0
    9.5803  -17.2936   25.6768 N   0  0  0  0  0  0  0  0  0  0  0  0
   10.0756  -18.5764   26.0746 C   0  0  1  0  0  0  0  0  0  0  0  0
   10.9832  -19.1052   24.9998 C   0  0  0  0  0  0  0  0  0  0  0  0
   12.0443  -18.1416   24.7141 C   0  0  0  0  0  0  0  0  0  0  0  0
   12.1799  -17.0429   25.2655 O   0  0  0  0  0  0  0  0  0  0  0  0
   10.7212  -18.5619   27.4002 C   0  0  0  0  0  0  0  0  0  0  0  0
   11.0999  -19.6268   27.9172 O   0  0  0  0  0  0  0  0  0  0  0  0
   13.0064  -18.4603   23.7364 O   0  0  0  0  0  0  0  0  0  0  0  0
   10.9030  -17.3722   28.0609 O   0  0  0  0  0  0  0  0  0  0  0  0
  2  1  1  6
  3  2  1  0
  4  2  1  0
  4  5  1  0
  5  6  1  1
  7  5  1  0
  7  8  2  0
 10 11  1  0
 10  9  1  0
 11 12  1  0
 13 12  1  1
 13 14  1  0
 14  7  1  0
 15 13  1  0
 16 15  2  0
 17 15  1  0
 18 22  1  0
 18 17  1  0
 18 19  1  6
 20 19  1  0
 20 21  2  0
 22 25  1  0
 23 22  2  0
 24 20  1  0
M  END
$$$$
