LMD.pdb
     RDKit          3D

 25 24  0  0  1  0  0  0  0  0999 V2000
    8.2859  -14.3924   17.8889 C   0  0  0  0  0  0  0  0  0  0  0  0
    7.4605  -13.6658   18.9296 C   0  0  2  0  0  0  0  0  0  0  0  0
    6.9450  -12.3766   18.3377 C   0  0  0  0  0  0  0  0  0  0  0  0
    8.2910  -13.4067   20.1897 C   0  0  0  0  0  0  0  0  0  0  0  0
    8.5048  -14.7638   20.8261 C   0  0  2  0  0  0  0  0  0  0  0  0
    7.2837  -15.5237   20.6444 N   0  0  0  0  0  0  0  0  0  0  0  0
    8.8290  -14.6875   22.2588 C   0  0  0  0  0  0  0  0  0  0  0  0
    9.9155  -14.1643   22.6092 O   0  0  0  0  0  0  0  0  0  0  0  0
    8.3495  -12.1540   28.7481 C   0  0  0  0  0  0  0  0  0  0  0  0
    8.0113  -12.6198   27.0331 S   0  0  0  0  0  0  0  0  0  0  0  0
    7.4095  -14.3332   26.9268 C   0  0  0  0  0  0  0  0  0  0  0  0
    7.1114  -14.6217   25.4945 C   0  0  0  0  0  0  0  0  0  0  0  0
    8.2930  -15.0773   24.6955 C   0  0  2  0  0  0  0  0  0  0  0  0
    7.9923  -15.1693   23.2986 N   0  0  0  0  0  0  0  0  0  0  0  0
    8.9149  -16.3109   25.2362 C   0  0  0  0  0  0  0  0  0  0  0  0
    8.3016  -17.4005   25.3687 O   0  0  0  0  0  0  0  0  0  0  0  0
   10.2765  -16.2900   25.6340 N   0  0  0  0  0  0  0  0  0  0  0  0
   11.0265  -17.3982   26.1424 C   0  0  1  0  0  0  0  0  0  0  0  0
   12.4924  -17.1213   25.9609 C   0  0  0  0  0  0  0  0  0  0  0  0
   12.8675  -17.2813   24.5574 C   0  0  0  0  0  0  0  0  0  0  0  0
   12.0988  -17.6046   23.6441 O   0  0  0  0  0  0  0  0  0  0  0  0
   10.6856  -17.7368   27.5364 C   0  0  0  0  0  0  0  0  0  0  0  0
   10.1770  -16.8778   28.2767 O   0  0  0  0  0  0  0  0  0  0  0  0
   14.2060  -17.0562   24.1819 O   0  0  0  0  0  0  0  0  0  0  0  0
   10.9306  -19.0004   28.0143 O   0  0  0  0  0  0  0  0  0  0  0  0
  2  1  1  6
  3  2  1  0
  4  2  1  0
  4  5  1  0
  5  6  1  1
  7  5  1  0
  7  8  2  0
 10 11  1  0
 10  9  1  0
 11 12  1  0
 13 12  1  1
 13 14  1  0
 14  7  1  0
 15 13  1  0
 16 15  2  0
 17 15  1  0
 18 22  1  0
 18 17  1  0
 18 19  1  1
 20 19  1  0
 20 21  2  0
 22 25  1  0
 23 22  2  0
 24 20  1  0
M  END
$$$$
