TIN.pdb
     RDKit          3D

 24 23  0  0  1  0  0  0  0  0999 V2000
   18.2409  -14.6860  -19.4775 C   0  0  0  0  0  0  0  0  0  0  0  0
   18.6773  -13.7125  -18.3911 C   0  0  1  0  0  0  0  0  0  0  0  0
   17.5439  -13.0662  -17.9370 O   0  0  0  0  0  0  0  0  0  0  0  0
   19.3526  -14.5214  -17.3112 C   0  0  2  0  0  0  0  0  0  0  0  0
   18.4460  -15.5413  -16.8643 N   0  0  0  0  0  0  0  0  0  0  0  0
   19.8123  -13.6635  -16.1843 C   0  0  0  0  0  0  0  0  0  0  0  0
   19.1208  -13.5620  -15.1512 O   0  0  0  0  0  0  0  0  0  0  0  0
   23.2326  -14.6974  -15.2753 C   0  0  0  0  0  0  0  0  0  0  0  0
   23.5214  -13.4469  -14.5167 C   0  0  0  0  0  0  0  0  0  0  0  0
   23.0554  -12.1822  -15.2179 C   0  0  2  0  0  0  0  0  0  0  0  0
   23.6482  -11.0440  -14.4249 C   0  0  0  0  0  0  0  0  0  0  0  0
   21.5543  -12.0716  -15.2293 C   0  0  2  0  0  0  0  0  0  0  0  0
   21.0360  -12.9707  -16.3036 N   0  0  0  0  0  0  0  0  0  0  0  0
   21.1813  -10.6881  -15.5961 C   0  0  0  0  0  0  0  0  0  0  0  0
   21.5014  -10.2469  -16.7625 O   0  0  0  0  0  0  0  0  0  0  0  0
   19.5271   -5.7382  -15.9921 N   0  0  0  0  0  0  0  0  0  0  0  0
   18.6496   -6.4410  -15.1053 C   0  0  0  0  0  0  0  0  0  0  0  0
   17.5759   -5.9308  -14.6918 O   0  0  0  0  0  0  0  0  0  0  0  0
   18.9655   -7.8177  -14.6310 C   0  0  0  0  0  0  0  0  0  0  0  0
   20.1650   -8.4135  -15.3156 C   0  0  2  0  0  0  0  0  0  0  0  0
   20.4897   -9.7474  -14.8060 N   0  0  0  0  0  0  0  0  0  0  0  0
   21.3105   -7.5363  -15.0251 C   0  0  0  0  0  0  0  0  0  0  0  0
   21.9942   -7.6610  -14.0004 O   0  0  0  0  0  0  0  0  0  0  0  0
   21.6409   -6.5331  -15.9267 O   0  0  0  0  0  0  0  0  0  0  0  0
  2  3  1  0
  2  1  1  6
  4  2  1  0
  4  5  1  1
  6  7  2  0
  6  4  1  0
  9  8  1  0
  9 10  1  0
 10 11  1  1
 12 10  1  0
 12 13  1  6
 13  6  1  0
 14 12  1  0
 15 14  2  0
 17 16  1  0
 18 17  2  0
 20 19  1  1
 19 17  1  0
 20 21  1  0
 21 14  1  0
 22 24  1  0
 22 20  1  0
 23 22  2  0
M  END
$$$$
