TIN.pdb
     RDKit          3D

 24 23  0  0  1  0  0  0  0  0999 V2000
   27.8853  -19.3976  -16.5914 C   0  0  0  0  0  0  0  0  0  0  0  0
   26.7115  -19.8400  -15.7284 C   0  0  1  0  0  0  0  0  0  0  0  0
   25.6416  -20.0670  -16.5723 O   0  0  0  0  0  0  0  0  0  0  0  0
   27.1416  -21.0855  -14.9933 C   0  0  2  0  0  0  0  0  0  0  0  0
   27.5472  -22.0714  -15.9553 N   0  0  0  0  0  0  0  0  0  0  0  0
   26.0662  -21.5994  -14.1008 C   0  0  0  0  0  0  0  0  0  0  0  0
   25.5053  -22.6840  -14.3553 O   0  0  0  0  0  0  0  0  0  0  0  0
   26.5308  -20.4827   -8.7947 C   0  0  0  0  0  0  0  0  0  0  0  0
   26.1294  -21.2036  -10.0364 C   0  0  0  0  0  0  0  0  0  0  0  0
   24.8793  -20.6442  -10.6939 C   0  0  2  0  0  0  0  0  0  0  0  0
   23.7516  -20.9616   -9.7434 C   0  0  0  0  0  0  0  0  0  0  0  0
   24.6180  -21.2843  -12.0309 C   0  0  2  0  0  0  0  0  0  0  0  0
   25.6936  -20.8432  -12.9689 N   0  0  0  0  0  0  0  0  0  0  0  0
   23.3355  -20.7733  -12.5614 C   0  0  0  0  0  0  0  0  0  0  0  0
   22.2589  -20.9746  -11.8845 O   0  0  0  0  0  0  0  0  0  0  0  0
   23.4002  -19.1087  -17.1094 N   0  0  0  0  0  0  0  0  0  0  0  0
   22.0984  -19.0022  -16.5229 C   0  0  0  0  0  0  0  0  0  0  0  0
   21.0637  -19.3825  -17.1303 O   0  0  0  0  0  0  0  0  0  0  0  0
   21.9064  -18.4371  -15.1577 C   0  0  0  0  0  0  0  0  0  0  0  0
   21.8162  -19.4947  -14.0920 C   0  0  2  0  0  0  0  0  0  0  0  0
   23.1249  -20.0620  -13.7603 N   0  0  0  0  0  0  0  0  0  0  0  0
   20.9841  -20.5829  -14.6300 C   0  0  0  0  0  0  0  0  0  0  0  0
   21.4750  -21.6004  -15.1365 O   0  0  0  0  0  0  0  0  0  0  0  0
   19.6013  -20.4706  -14.5706 O   0  0  0  0  0  0  0  0  0  0  0  0
  2  3  1  0
  2  1  1  6
  4  2  1  0
  4  5  1  6
  6  7  2  0
  6  4  1  0
  9  8  1  0
  9 10  1  0
 10 11  1  1
 12 10  1  0
 12 13  1  6
 13  6  1  0
 14 12  1  0
 15 14  2  0
 17 16  1  0
 18 17  2  0
 20 19  1  6
 19 17  1  0
 20 21  1  0
 21 14  1  0
 22 24  1  0
 22 20  1  0
 23 22  2  0
M  END
$$$$
