TIN.pdb
     RDKit          3D

 24 23  0  0  1  0  0  0  0  0999 V2000
   18.3874  -10.1469  -15.0493 C   0  0  0  0  0  0  0  0  0  0  0  0
   17.1567   -9.6536  -14.3006 C   0  0  1  0  0  0  0  0  0  0  0  0
   16.4854  -10.7664  -13.8321 O   0  0  0  0  0  0  0  0  0  0  0  0
   17.6404   -8.7592  -13.1859 C   0  0  2  0  0  0  0  0  0  0  0  0
   18.4624   -9.5326  -12.2983 N   0  0  0  0  0  0  0  0  0  0  0  0
   16.5086   -8.1147  -12.4641 C   0  0  0  0  0  0  0  0  0  0  0  0
   15.7105   -7.3795  -13.0790 O   0  0  0  0  0  0  0  0  0  0  0  0
   14.4203  -11.1351   -9.6991 C   0  0  0  0  0  0  0  0  0  0  0  0
   13.8901   -9.7437   -9.7730 C   0  0  0  0  0  0  0  0  0  0  0  0
   14.8399   -8.6948   -9.2198 C   0  0  2  0  0  0  0  0  0  0  0  0
   14.0632   -7.9814   -8.1412 C   0  0  0  0  0  0  0  0  0  0  0  0
   15.2657   -7.7137  -10.2789 C   0  0  2  0  0  0  0  0  0  0  0  0
   16.3549   -8.3476  -11.0807 N   0  0  0  0  0  0  0  0  0  0  0  0
   15.8419   -6.5215   -9.6200 C   0  0  0  0  0  0  0  0  0  0  0  0
   16.9810   -6.6278   -9.0294 O   0  0  0  0  0  0  0  0  0  0  0  0
   17.1722   -1.8830   -7.6431 N   0  0  0  0  0  0  0  0  0  0  0  0
   17.4896   -2.1845   -9.0063 C   0  0  0  0  0  0  0  0  0  0  0  0
   18.2984   -1.4848   -9.6698 O   0  0  0  0  0  0  0  0  0  0  0  0
   16.8776   -3.3489   -9.7061 C   0  0  0  0  0  0  0  0  0  0  0  0
   15.9579   -4.1471   -8.8233 C   0  0  2  0  0  0  0  0  0  0  0  0
   15.2879   -5.2269   -9.5511 N   0  0  0  0  0  0  0  0  0  0  0  0
   14.9172   -3.2273   -8.3365 C   0  0  0  0  0  0  0  0  0  0  0  0
   13.7901   -3.1767   -8.8464 O   0  0  0  0  0  0  0  0  0  0  0  0
   15.2027   -2.3854   -7.2698 O   0  0  0  0  0  0  0  0  0  0  0  0
  2  3  1  0
  2  1  1  1
  4  2  1  0
  4  5  1  1
  6  7  2  0
  6  4  1  0
  9  8  1  0
  9 10  1  0
 10 11  1  1
 12 10  1  0
 12 13  1  6
 13  6  1  0
 14 12  1  0
 15 14  2  0
 17 16  1  0
 18 17  2  0
 20 19  1  6
 19 17  1  0
 20 21  1  0
 21 14  1  0
 22 24  1  0
 22 20  1  0
 23 22  2  0
M  END
$$$$
