TIN.pdb
     RDKit          3D

 24 23  0  0  1  0  0  0  0  0999 V2000
   28.5239  -18.7674  -16.7186 C   0  0  0  0  0  0  0  0  0  0  0  0
   27.3813  -19.2969  -15.8628 C   0  0  1  0  0  0  0  0  0  0  0  0
   26.3299  -19.5854  -16.7112 O   0  0  0  0  0  0  0  0  0  0  0  0
   27.8928  -20.5189  -15.1407 C   0  0  2  0  0  0  0  0  0  0  0  0
   28.2425  -21.5160  -16.1129 N   0  0  0  0  0  0  0  0  0  0  0  0
   26.9009  -21.0352  -14.1575 C   0  0  0  0  0  0  0  0  0  0  0  0
   26.2137  -22.0400  -14.4290 O   0  0  0  0  0  0  0  0  0  0  0  0
   28.1342  -20.5663   -8.9338 C   0  0  0  0  0  0  0  0  0  0  0  0
   27.4580  -21.1222  -10.1406 C   0  0  0  0  0  0  0  0  0  0  0  0
   26.2148  -20.3539  -10.5561 C   0  0  2  0  0  0  0  0  0  0  0  0
   25.1766  -20.6784   -9.5108 C   0  0  0  0  0  0  0  0  0  0  0  0
   25.7246  -20.7785  -11.9144 C   0  0  2  0  0  0  0  0  0  0  0  0
   26.7514  -20.3725  -12.9204 N   0  0  0  0  0  0  0  0  0  0  0  0
   24.4848  -20.0352  -12.2272 C   0  0  0  0  0  0  0  0  0  0  0  0
   24.5784  -18.8698  -12.7665 O   0  0  0  0  0  0  0  0  0  0  0  0
   20.9041  -18.7368  -15.1120 N   0  0  0  0  0  0  0  0  0  0  0  0
   21.7265  -19.8696  -15.4131 C   0  0  0  0  0  0  0  0  0  0  0  0
   21.9426  -20.2367  -16.5975 O   0  0  0  0  0  0  0  0  0  0  0  0
   22.3716  -20.6689  -14.3338 C   0  0  0  0  0  0  0  0  0  0  0  0
   22.0883  -20.1328  -12.9573 C   0  0  2  0  0  0  0  0  0  0  0  0
   23.1559  -20.4510  -12.0068 N   0  0  0  0  0  0  0  0  0  0  0  0
   20.8597  -20.7882  -12.4808 C   0  0  0  0  0  0  0  0  0  0  0  0
   20.7803  -22.0151  -12.3345 O   0  0  0  0  0  0  0  0  0  0  0  0
   19.7487  -20.0099  -12.1836 O   0  0  0  0  0  0  0  0  0  0  0  0
  2  3  1  0
  2  1  1  6
  4  2  1  0
  4  5  1  6
  6  7  2  0
  6  4  1  0
  9  8  1  0
  9 10  1  0
 10 11  1  1
 12 10  1  0
 12 13  1  6
 13  6  1  0
 14 12  1  0
 15 14  2  0
 17 16  1  0
 18 17  2  0
 20 19  1  6
 19 17  1  0
 20 21  1  0
 21 14  1  0
 22 24  1  0
 22 20  1  0
 23 22  2  0
M  END
$$$$
