TIN.pdb
     RDKit          3D

 24 23  0  0  1  0  0  0  0  0999 V2000
   17.6894  -11.2307  -19.6083 C   0  0  0  0  0  0  0  0  0  0  0  0
   18.4336  -10.5882  -18.4457 C   0  0  1  0  0  0  0  0  0  0  0  0
   17.6851   -9.5062  -18.0244 O   0  0  0  0  0  0  0  0  0  0  0  0
   18.5823  -11.6399  -17.3741 C   0  0  2  0  0  0  0  0  0  0  0  0
   17.2794  -12.1387  -17.0341 N   0  0  0  0  0  0  0  0  0  0  0  0
   19.2976  -11.1137  -16.1789 C   0  0  0  0  0  0  0  0  0  0  0  0
   18.6569  -10.7724  -15.1647 O   0  0  0  0  0  0  0  0  0  0  0  0
   23.9497  -13.4087  -14.7746 C   0  0  0  0  0  0  0  0  0  0  0  0
   22.6849  -12.6289  -14.6535 C   0  0  0  0  0  0  0  0  0  0  0  0
   22.8245  -11.1680  -15.0467 C   0  0  2  0  0  0  0  0  0  0  0  0
   23.7143  -10.5542  -13.9946 C   0  0  0  0  0  0  0  0  0  0  0  0
   21.4934  -10.4657  -15.0654 C   0  0  2  0  0  0  0  0  0  0  0  0
   20.7046  -11.0075  -16.2123 N   0  0  0  0  0  0  0  0  0  0  0  0
   21.7172   -9.0272  -15.3265 C   0  0  0  0  0  0  0  0  0  0  0  0
   22.3292   -8.6794  -16.4046 O   0  0  0  0  0  0  0  0  0  0  0  0
   21.9007   -3.8438  -15.6630 N   0  0  0  0  0  0  0  0  0  0  0  0
   20.5950   -4.4246  -15.7520 C   0  0  0  0  0  0  0  0  0  0  0  0
   19.5968   -3.7586  -16.1316 O   0  0  0  0  0  0  0  0  0  0  0  0
   20.3558   -5.8529  -15.4015 C   0  0  0  0  0  0  0  0  0  0  0  0
   21.5966   -6.5557  -14.9232 C   0  0  2  0  0  0  0  0  0  0  0  0
   21.3312   -7.9379  -14.5190 N   0  0  0  0  0  0  0  0  0  0  0  0
   22.0757   -5.8301  -13.7357 C   0  0  0  0  0  0  0  0  0  0  0  0
   21.7608   -6.1649  -12.5861 O   0  0  0  0  0  0  0  0  0  0  0  0
   22.9093   -4.7323  -13.9036 O   0  0  0  0  0  0  0  0  0  0  0  0
  2  3  1  0
  2  1  1  6
  4  2  1  0
  4  5  1  1
  6  7  2  0
  6  4  1  0
  9  8  1  0
  9 10  1  0
 10 11  1  1
 12 10  1  0
 12 13  1  6
 13  6  1  0
 14 12  1  0
 15 14  2  0
 17 16  1  0
 18 17  2  0
 20 19  1  1
 19 17  1  0
 20 21  1  0
 21 14  1  0
 22 24  1  0
 22 20  1  0
 23 22  2  0
M  END
$$$$
