TIN.pdb
     RDKit          3D

 24 23  0  0  1  0  0  0  0  0999 V2000
   19.0723  -12.1490  -19.1574 C   0  0  0  0  0  0  0  0  0  0  0  0
   19.6874  -11.2198  -18.1198 C   0  0  1  0  0  0  0  0  0  0  0  0
   18.6478  -10.6148  -17.4402 O   0  0  0  0  0  0  0  0  0  0  0  0
   20.5517  -12.0662  -17.2182 C   0  0  2  0  0  0  0  0  0  0  0  0
   19.7412  -13.1028  -16.6434 N   0  0  0  0  0  0  0  0  0  0  0  0
   21.2225  -11.2491  -16.1697 C   0  0  0  0  0  0  0  0  0  0  0  0
   20.7698  -11.2261  -15.0077 O   0  0  0  0  0  0  0  0  0  0  0  0
   26.4892  -11.4408  -15.6654 C   0  0  0  0  0  0  0  0  0  0  0  0
   25.0405  -11.2094  -15.4004 C   0  0  0  0  0  0  0  0  0  0  0  0
   24.5681   -9.8092  -15.7534 C   0  0  2  0  0  0  0  0  0  0  0  0
   25.3366   -8.8861  -14.8407 C   0  0  0  0  0  0  0  0  0  0  0  0
   23.0899   -9.6444  -15.5224 C   0  0  2  0  0  0  0  0  0  0  0  0
   22.3722  -10.5047  -16.5103 N   0  0  0  0  0  0  0  0  0  0  0  0
   22.7165   -8.2421  -15.8079 C   0  0  0  0  0  0  0  0  0  0  0  0
   22.9966   -7.7474  -16.9632 O   0  0  0  0  0  0  0  0  0  0  0  0
   20.9486   -3.2917  -15.7982 N   0  0  0  0  0  0  0  0  0  0  0  0
   19.9336   -4.2388  -15.4471 C   0  0  0  0  0  0  0  0  0  0  0  0
   18.7228   -3.9090  -15.3512 O   0  0  0  0  0  0  0  0  0  0  0  0
   20.2639   -5.6672  -15.1814 C   0  0  0  0  0  0  0  0  0  0  0  0
   21.7209   -5.9803  -15.3845 C   0  0  2  0  0  0  0  0  0  0  0  0
   22.0640   -7.3353  -14.9478 N   0  0  0  0  0  0  0  0  0  0  0  0
   22.4872   -5.0384  -14.5528 C   0  0  0  0  0  0  0  0  0  0  0  0
   22.5278   -3.8252  -14.7963 O   0  0  0  0  0  0  0  0  0  0  0  0
   23.1904   -5.5204  -13.4567 O   0  0  0  0  0  0  0  0  0  0  0  0
  2  3  1  0
  2  1  1  6
  4  2  1  0
  4  5  1  1
  6  7  2  0
  6  4  1  0
  9  8  1  0
  9 10  1  0
 10 11  1  1
 12 10  1  0
 12 13  1  6
 13  6  1  0
 14 12  1  0
 15 14  2  0
 17 16  1  0
 18 17  2  0
 20 19  1  1
 19 17  1  0
 20 21  1  0
 21 14  1  0
 22 24  1  0
 22 20  1  0
 23 22  2  0
M  END
$$$$
