TIN.pdb
     RDKit          3D

 24 23  0  0  1  0  0  0  0  0999 V2000
   28.4092  -18.0681  -15.5202 C   0  0  0  0  0  0  0  0  0  0  0  0
   27.2217  -18.8358  -14.9556 C   0  0  1  0  0  0  0  0  0  0  0  0
   26.3344  -19.0447  -15.9937 O   0  0  0  0  0  0  0  0  0  0  0  0
   27.7548  -20.1260  -14.3831 C   0  0  2  0  0  0  0  0  0  0  0  0
   28.3047  -20.9118  -15.4517 N   0  0  0  0  0  0  0  0  0  0  0  0
   26.7064  -20.8735  -13.6354 C   0  0  0  0  0  0  0  0  0  0  0  0
   26.1997  -21.9022  -14.1261 O   0  0  0  0  0  0  0  0  0  0  0  0
   26.6309  -20.3625   -8.1296 C   0  0  0  0  0  0  0  0  0  0  0  0
   26.4276  -21.0020   -9.4609 C   0  0  0  0  0  0  0  0  0  0  0  0
   25.2061  -20.4921  -10.2066 C   0  0  2  0  0  0  0  0  0  0  0  0
   24.0199  -21.0075   -9.4301 C   0  0  0  0  0  0  0  0  0  0  0  0
   25.1583  -21.0101  -11.6190 C   0  0  2  0  0  0  0  0  0  0  0  0
   26.2972  -20.4016  -12.3698 N   0  0  0  0  0  0  0  0  0  0  0  0
   23.9098  -20.5393  -12.2571 C   0  0  0  0  0  0  0  0  0  0  0  0
   23.7516  -19.2773  -12.4566 O   0  0  0  0  0  0  0  0  0  0  0  0
   19.3748  -21.2241  -16.0879 N   0  0  0  0  0  0  0  0  0  0  0  0
   20.3815  -20.4214  -15.4615 C   0  0  0  0  0  0  0  0  0  0  0  0
   20.3104  -19.1650  -15.4401 O   0  0  0  0  0  0  0  0  0  0  0  0
   21.5646  -21.0387  -14.7987 C   0  0  0  0  0  0  0  0  0  0  0  0
   21.6518  -20.7140  -13.3326 C   0  0  2  0  0  0  0  0  0  0  0  0
   22.8231  -21.3220  -12.6978 N   0  0  0  0  0  0  0  0  0  0  0  0
   20.4547  -21.2808  -12.6908 C   0  0  0  0  0  0  0  0  0  0  0  0
   20.5096  -22.2704  -11.9489 O   0  0  0  0  0  0  0  0  0  0  0  0
   19.2193  -20.6901  -12.9210 O   0  0  0  0  0  0  0  0  0  0  0  0
  2  3  1  0
  2  1  1  6
  4  2  1  0
  4  5  1  6
  6  7  2  0
  6  4  1  0
  9  8  1  0
  9 10  1  0
 10 11  1  1
 12 10  1  0
 12 13  1  6
 13  6  1  0
 14 12  1  0
 15 14  2  0
 17 16  1  0
 18 17  2  0
 20 19  1  6
 19 17  1  0
 20 21  1  0
 21 14  1  0
 22 24  1  0
 22 20  1  0
 23 22  2  0
M  END
$$$$
