TIN.pdb
     RDKit          3D

 24 23  0  0  1  0  0  0  0  0999 V2000
   21.1921   -8.3173  -19.6644 C   0  0  0  0  0  0  0  0  0  0  0  0
   20.6789   -9.7440  -19.8040 C   0  0  1  0  0  0  0  0  0  0  0  0
   20.1985   -9.8854  -21.0916 O   0  0  0  0  0  0  0  0  0  0  0  0
   21.8378  -10.6662  -19.5155 C   0  0  2  0  0  0  0  0  0  0  0  0
   21.4462  -12.0110  -19.8315 N   0  0  0  0  0  0  0  0  0  0  0  0
   22.3013  -10.5464  -18.1055 C   0  0  0  0  0  0  0  0  0  0  0  0
   21.5280  -10.8205  -17.1660 O   0  0  0  0  0  0  0  0  0  0  0  0
   27.1681  -12.1373  -16.4639 C   0  0  0  0  0  0  0  0  0  0  0  0
   25.7433  -11.7020  -16.4086 C   0  0  0  0  0  0  0  0  0  0  0  0
   25.5623  -10.1936  -16.3987 C   0  0  2  0  0  0  0  0  0  0  0  0
   26.1505   -9.7291  -15.0895 C   0  0  0  0  0  0  0  0  0  0  0  0
   24.1100   -9.8054  -16.4745 C   0  0  2  0  0  0  0  0  0  0  0  0
   23.6222  -10.1195  -17.8508 N   0  0  0  0  0  0  0  0  0  0  0  0
   23.9978   -8.3420  -16.2917 C   0  0  0  0  0  0  0  0  0  0  0  0
   24.6006   -7.5642  -17.1219 O   0  0  0  0  0  0  0  0  0  0  0  0
   22.8659   -3.3880  -15.4167 N   0  0  0  0  0  0  0  0  0  0  0  0
   22.3101   -4.1821  -16.4706 C   0  0  0  0  0  0  0  0  0  0  0  0
   21.6896   -3.6640  -17.4353 O   0  0  0  0  0  0  0  0  0  0  0  0
   22.4439   -5.6660  -16.4771 C   0  0  0  0  0  0  0  0  0  0  0  0
   23.1912   -6.1931  -15.2830 C   0  0  2  0  0  0  0  0  0  0  0  0
   23.2858   -7.6545  -15.2877 N   0  0  0  0  0  0  0  0  0  0  0  0
   22.4289   -5.8014  -14.0865 C   0  0  0  0  0  0  0  0  0  0  0  0
   22.3706   -4.6280  -13.6960 O   0  0  0  0  0  0  0  0  0  0  0  0
   21.7500   -6.7760  -13.3671 O   0  0  0  0  0  0  0  0  0  0  0  0
  2  3  1  0
  2  1  1  6
  4  2  1  0
  4  5  1  1
  6  7  2  0
  6  4  1  0
  9  8  1  0
  9 10  1  0
 10 11  1  1
 12 10  1  0
 12 13  1  6
 13  6  1  0
 14 12  1  0
 15 14  2  0
 17 16  1  0
 18 17  2  0
 20 19  1  6
 19 17  1  0
 20 21  1  0
 21 14  1  0
 22 24  1  0
 22 20  1  0
 23 22  2  0
M  END
$$$$
