TIN.pdb
     RDKit          3D

 24 23  0  0  1  0  0  0  0  0999 V2000
   25.3216  -21.2061  -16.7660 C   0  0  0  0  0  0  0  0  0  0  0  0
   25.6357  -22.6897  -16.9035 C   0  0  1  0  0  0  0  0  0  0  0  0
   26.6286  -22.8144  -17.8559 O   0  0  0  0  0  0  0  0  0  0  0  0
   26.0728  -23.1817  -15.5458 C   0  0  2  0  0  0  0  0  0  0  0  0
   26.4330  -24.5676  -15.6520 N   0  0  0  0  0  0  0  0  0  0  0  0
   25.0205  -22.9656  -14.5148 C   0  0  0  0  0  0  0  0  0  0  0  0
   24.0609  -23.7571  -14.4229 O   0  0  0  0  0  0  0  0  0  0  0  0
   26.6372  -21.0127   -9.7374 C   0  0  0  0  0  0  0  0  0  0  0  0
   25.8215  -21.7283  -10.7598 C   0  0  0  0  0  0  0  0  0  0  0  0
   24.8111  -20.8424  -11.4687 C   0  0  2  0  0  0  0  0  0  0  0  0
   23.8109  -20.4502  -10.4096 C   0  0  0  0  0  0  0  0  0  0  0  0
   24.1151  -21.5731  -12.5854 C   0  0  2  0  0  0  0  0  0  0  0  0
   25.1255  -21.8564  -13.6484 N   0  0  0  0  0  0  0  0  0  0  0  0
   23.0946  -20.6801  -13.1759 C   0  0  0  0  0  0  0  0  0  0  0  0
   23.4821  -19.6467  -13.8390 O   0  0  0  0  0  0  0  0  0  0  0  0
   19.0704  -19.1569  -16.0690 N   0  0  0  0  0  0  0  0  0  0  0  0
   20.1199  -20.0419  -16.4758 C   0  0  0  0  0  0  0  0  0  0  0  0
   20.3091  -20.3356  -17.6849 O   0  0  0  0  0  0  0  0  0  0  0  0
   21.0446  -20.6570  -15.4825 C   0  0  0  0  0  0  0  0  0  0  0  0
   20.8149  -20.1611  -14.0812 C   0  0  2  0  0  0  0  0  0  0  0  0
   21.6929  -20.8161  -13.1093 N   0  0  0  0  0  0  0  0  0  0  0  0
   19.4275  -20.4979  -13.7237 C   0  0  0  0  0  0  0  0  0  0  0  0
   19.1544  -21.3653  -12.8835 O   0  0  0  0  0  0  0  0  0  0  0  0
   18.3852  -19.8237  -14.3462 O   0  0  0  0  0  0  0  0  0  0  0  0
  2  3  1  0
  2  1  1  1
  4  2  1  0
  4  5  1  6
  6  7  2  0
  6  4  1  0
  9  8  1  0
  9 10  1  0
 10 11  1  1
 12 10  1  0
 12 13  1  6
 13  6  1  0
 14 12  1  0
 15 14  2  0
 17 16  1  0
 18 17  2  0
 20 19  1  6
 19 17  1  0
 20 21  1  0
 21 14  1  0
 22 24  1  0
 22 20  1  0
 23 22  2  0
M  END
$$$$
