TIN.pdb
     RDKit          3D

 24 23  0  0  1  0  0  0  0  0999 V2000
   28.5892  -19.2109  -16.6257 C   0  0  0  0  0  0  0  0  0  0  0  0
   27.3111  -19.6979  -15.9566 C   0  0  1  0  0  0  0  0  0  0  0  0
   26.4157  -20.0154  -16.9596 O   0  0  0  0  0  0  0  0  0  0  0  0
   27.6770  -20.8918  -15.1097 C   0  0  2  0  0  0  0  0  0  0  0  0
   28.1986  -21.9207  -15.9647 N   0  0  0  0  0  0  0  0  0  0  0  0
   26.5187  -21.3776  -14.3101 C   0  0  0  0  0  0  0  0  0  0  0  0
   25.8573  -22.3612  -14.6984 O   0  0  0  0  0  0  0  0  0  0  0  0
   26.8187  -20.8670   -8.8911 C   0  0  0  0  0  0  0  0  0  0  0  0
   26.3824  -21.4292  -10.2012 C   0  0  0  0  0  0  0  0  0  0  0  0
   25.2692  -20.6389  -10.8679 C   0  0  2  0  0  0  0  0  0  0  0  0
   24.0463  -20.8749  -10.0167 C   0  0  0  0  0  0  0  0  0  0  0  0
   25.0140  -21.1120  -12.2738 C   0  0  2  0  0  0  0  0  0  0  0  0
   26.1829  -20.7105  -13.1125 N   0  0  0  0  0  0  0  0  0  0  0  0
   23.8281  -20.4064  -12.8061 C   0  0  0  0  0  0  0  0  0  0  0  0
   23.9734  -19.2188  -13.2817 O   0  0  0  0  0  0  0  0  0  0  0  0
   20.1179  -21.0454  -16.9308 N   0  0  0  0  0  0  0  0  0  0  0  0
   21.0139  -20.1384  -16.2793 C   0  0  0  0  0  0  0  0  0  0  0  0
   21.0083  -18.9050  -16.5302 O   0  0  0  0  0  0  0  0  0  0  0  0
   21.9973  -20.6132  -15.2656 C   0  0  0  0  0  0  0  0  0  0  0  0
   21.5497  -20.3631  -13.8516 C   0  0  2  0  0  0  0  0  0  0  0  0
   22.5022  -20.8818  -12.8676 N   0  0  0  0  0  0  0  0  0  0  0  0
   20.2807  -21.0846  -13.6641 C   0  0  0  0  0  0  0  0  0  0  0  0
   20.2409  -22.2623  -13.2842 O   0  0  0  0  0  0  0  0  0  0  0  0
   19.0843  -20.4279  -13.9203 O   0  0  0  0  0  0  0  0  0  0  0  0
  2  3  1  0
  2  1  1  6
  4  2  1  0
  4  5  1  6
  6  7  2  0
  6  4  1  0
  9  8  1  0
  9 10  1  0
 10 11  1  1
 12 10  1  0
 12 13  1  6
 13  6  1  0
 14 12  1  0
 15 14  2  0
 17 16  1  0
 18 17  2  0
 20 19  1  6
 19 17  1  0
 20 21  1  0
 21 14  1  0
 22 24  1  0
 22 20  1  0
 23 22  2  0
M  END
$$$$
