TIN.pdb
     RDKit          3D

 24 23  0  0  1  0  0  0  0  0999 V2000
   28.6771  -18.7331  -17.4718 C   0  0  0  0  0  0  0  0  0  0  0  0
   27.6467  -19.4789  -16.6349 C   0  0  1  0  0  0  0  0  0  0  0  0
   26.7490  -20.0612  -17.5087 O   0  0  0  0  0  0  0  0  0  0  0  0
   28.3936  -20.4980  -15.8101 C   0  0  2  0  0  0  0  0  0  0  0  0
   29.1455  -21.3441  -16.6936 N   0  0  0  0  0  0  0  0  0  0  0  0
   27.4756  -21.2873  -14.9434 C   0  0  0  0  0  0  0  0  0  0  0  0
   27.3310  -22.5114  -15.1343 O   0  0  0  0  0  0  0  0  0  0  0  0
   25.3630  -20.8722   -9.1757 C   0  0  0  0  0  0  0  0  0  0  0  0
   25.1905  -21.4198  -10.5516 C   0  0  0  0  0  0  0  0  0  0  0  0
   26.1241  -20.8027  -11.5792 C   0  0  2  0  0  0  0  0  0  0  0  0
   25.8150  -19.3263  -11.5644 C   0  0  0  0  0  0  0  0  0  0  0  0
   25.8862  -21.3623  -12.9561 C   0  0  2  0  0  0  0  0  0  0  0  0
   26.7751  -20.6315  -13.9084 N   0  0  0  0  0  0  0  0  0  0  0  0
   24.4898  -21.0772  -13.3515 C   0  0  0  0  0  0  0  0  0  0  0  0
   24.2012  -19.9115  -13.8156 O   0  0  0  0  0  0  0  0  0  0  0  0
   19.4877  -21.0904  -14.8551 N   0  0  0  0  0  0  0  0  0  0  0  0
   19.8975  -22.4535  -14.6991 C   0  0  0  0  0  0  0  0  0  0  0  0
   19.1424  -23.4127  -15.0054 O   0  0  0  0  0  0  0  0  0  0  0  0
   21.2452  -22.8025  -14.1681 C   0  0  0  0  0  0  0  0  0  0  0  0
   22.0952  -21.5944  -13.8844 C   0  0  2  0  0  0  0  0  0  0  0  0
   23.3844  -21.9500  -13.2879 N   0  0  0  0  0  0  0  0  0  0  0  0
   21.3658  -20.7707  -12.9068 C   0  0  0  0  0  0  0  0  0  0  0  0
   21.4321  -20.9791  -11.6882 O   0  0  0  0  0  0  0  0  0  0  0  0
   20.5752  -19.7229  -13.3601 O   0  0  0  0  0  0  0  0  0  0  0  0
  2  3  1  0
  2  1  1  6
  4  2  1  0
  4  5  1  6
  6  7  2  0
  6  4  1  0
  9  8  1  0
  9 10  1  0
 10 11  1  6
 12 10  1  0
 12 13  1  6
 13  6  1  0
 14 12  1  0
 15 14  2  0
 17 16  1  0
 18 17  2  0
 20 19  1  1
 19 17  1  0
 20 21  1  0
 21 14  1  0
 22 24  1  0
 22 20  1  0
 23 22  2  0
M  END
$$$$
