TIN.pdb
     RDKit          3D

 24 23  0  0  1  0  0  0  0  0999 V2000
   17.2969  -13.1970  -15.5270 C   0  0  0  0  0  0  0  0  0  0  0  0
   18.5649  -13.8813  -16.0192 C   0  0  1  0  0  0  0  0  0  0  0  0
   18.1784  -14.9572  -16.7949 O   0  0  0  0  0  0  0  0  0  0  0  0
   19.3503  -12.8577  -16.8016 C   0  0  2  0  0  0  0  0  0  0  0  0
   20.1448  -13.5394  -17.7844 N   0  0  0  0  0  0  0  0  0  0  0  0
   20.1883  -12.0068  -15.9124 C   0  0  0  0  0  0  0  0  0  0  0  0
   19.7076  -11.5320  -14.8639 O   0  0  0  0  0  0  0  0  0  0  0  0
   25.4777  -13.0862  -15.3363 C   0  0  0  0  0  0  0  0  0  0  0  0
   24.1320  -12.5323  -15.0123 C   0  0  0  0  0  0  0  0  0  0  0  0
   23.8255  -11.2176  -15.7093 C   0  0  2  0  0  0  0  0  0  0  0  0
   24.7488  -10.2056  -15.0776 C   0  0  0  0  0  0  0  0  0  0  0  0
   22.3934  -10.8003  -15.5083 C   0  0  2  0  0  0  0  0  0  0  0  0
   21.5277  -11.7470  -16.2735 N   0  0  0  0  0  0  0  0  0  0  0  0
   22.2016   -9.4567  -16.0959 C   0  0  0  0  0  0  0  0  0  0  0  0
   22.2434   -9.3268  -17.3762 O   0  0  0  0  0  0  0  0  0  0  0  0
   20.4268   -4.7228  -17.2997 N   0  0  0  0  0  0  0  0  0  0  0  0
   19.7121   -5.9569  -17.4274 C   0  0  0  0  0  0  0  0  0  0  0  0
   18.6192   -6.0298  -18.0474 O   0  0  0  0  0  0  0  0  0  0  0  0
   20.2327   -7.2201  -16.8330 C   0  0  0  0  0  0  0  0  0  0  0  0
   21.5459   -7.0369  -16.1228 C   0  0  2  0  0  0  0  0  0  0  0  0
   21.9665   -8.2463  -15.4122 N   0  0  0  0  0  0  0  0  0  0  0  0
   21.3527   -5.9772  -15.1199 C   0  0  0  0  0  0  0  0  0  0  0  0
   21.3332   -6.2141  -13.9049 O   0  0  0  0  0  0  0  0  0  0  0  0
   21.1862   -4.6656  -15.5443 O   0  0  0  0  0  0  0  0  0  0  0  0
  2  3  1  0
  2  1  1  6
  4  2  1  0
  4  5  1  6
  6  7  2  0
  6  4  1  0
  9  8  1  0
  9 10  1  0
 10 11  1  1
 12 10  1  0
 12 13  1  6
 13  6  1  0
 14 12  1  0
 15 14  2  0
 17 16  1  0
 18 17  2  0
 20 19  1  1
 19 17  1  0
 20 21  1  0
 21 14  1  0
 22 24  1  0
 22 20  1  0
 23 22  2  0
M  END
$$$$
