TIN.pdb
     RDKit          3D

 24 23  0  0  1  0  0  0  0  0999 V2000
   16.5583  -12.8377  -18.0002 C   0  0  0  0  0  0  0  0  0  0  0  0
   17.6117  -12.5845  -16.9302 C   0  0  1  0  0  0  0  0  0  0  0  0
   18.5875  -13.5516  -17.0751 O   0  0  0  0  0  0  0  0  0  0  0  0
   18.1441  -11.1897  -17.1483 C   0  0  2  0  0  0  0  0  0  0  0  0
   18.7299  -11.1196  -18.4574 N   0  0  0  0  0  0  0  0  0  0  0  0
   19.1158  -10.7976  -16.0905 C   0  0  0  0  0  0  0  0  0  0  0  0
   18.7899  -10.8540  -14.8878 O   0  0  0  0  0  0  0  0  0  0  0  0
   24.4926  -10.8455  -14.1157 C   0  0  0  0  0  0  0  0  0  0  0  0
   23.8694   -9.8355  -15.0180 C   0  0  0  0  0  0  0  0  0  0  0  0
   22.7587  -10.3947  -15.8908 C   0  0  2  0  0  0  0  0  0  0  0  0
   23.0782   -9.9307  -17.2903 C   0  0  0  0  0  0  0  0  0  0  0  0
   21.4080   -9.8767  -15.4750 C   0  0  2  0  0  0  0  0  0  0  0  0
   20.4042  -10.3630  -16.4685 N   0  0  0  0  0  0  0  0  0  0  0  0
   21.4205   -8.3996  -15.5499 C   0  0  0  0  0  0  0  0  0  0  0  0
   21.4941   -7.8367  -16.7055 O   0  0  0  0  0  0  0  0  0  0  0  0
   18.6368   -3.3043  -14.9130 N   0  0  0  0  0  0  0  0  0  0  0  0
   19.8760   -4.0210  -14.9412 C   0  0  0  0  0  0  0  0  0  0  0  0
   20.9747   -3.4394  -15.1375 O   0  0  0  0  0  0  0  0  0  0  0  0
   19.9241   -5.4958  -14.7346 C   0  0  0  0  0  0  0  0  0  0  0  0
   21.3262   -6.0395  -14.7092 C   0  0  2  0  0  0  0  0  0  0  0  0
   21.3573   -7.4853  -14.4786 N   0  0  0  0  0  0  0  0  0  0  0  0
   22.0210   -5.3952  -13.5830 C   0  0  0  0  0  0  0  0  0  0  0  0
   22.1603   -5.9539  -12.4869 O   0  0  0  0  0  0  0  0  0  0  0  0
   22.5401   -4.1180  -13.7490 O   0  0  0  0  0  0  0  0  0  0  0  0
  2  3  1  0
  2  1  1  6
  4  2  1  0
  4  5  1  6
  6  7  2  0
  6  4  1  0
  9  8  1  0
  9 10  1  0
 10 11  1  6
 12 10  1  0
 12 13  1  6
 13  6  1  0
 14 12  1  0
 15 14  2  0
 17 16  1  0
 18 17  2  0
 20 19  1  1
 19 17  1  0
 20 21  1  0
 21 14  1  0
 22 24  1  0
 22 20  1  0
 23 22  2  0
M  END
$$$$
