TIN.pdb
     RDKit          3D

 24 23  0  0  1  0  0  0  0  0999 V2000
   25.1600  -21.8451  -17.8462 C   0  0  0  0  0  0  0  0  0  0  0  0
   26.4873  -21.3528  -17.2855 C   0  0  1  0  0  0  0  0  0  0  0  0
   26.2965  -20.0545  -16.8537 O   0  0  0  0  0  0  0  0  0  0  0  0
   26.8712  -22.2845  -16.1625 C   0  0  2  0  0  0  0  0  0  0  0  0
   27.1673  -23.5759  -16.7159 N   0  0  0  0  0  0  0  0  0  0  0  0
   25.8084  -22.3635  -15.1226 C   0  0  0  0  0  0  0  0  0  0  0  0
   24.8126  -23.0938  -15.2983 O   0  0  0  0  0  0  0  0  0  0  0  0
   25.2470  -20.5118   -9.1701 C   0  0  0  0  0  0  0  0  0  0  0  0
   24.6320  -21.0079  -10.4343 C   0  0  0  0  0  0  0  0  0  0  0  0
   25.6153  -21.1390  -11.5850 C   0  0  2  0  0  0  0  0  0  0  0  0
   26.1288  -19.7423  -11.8330 C   0  0  0  0  0  0  0  0  0  0  0  0
   24.9522  -21.6693  -12.8278 C   0  0  2  0  0  0  0  0  0  0  0  0
   25.9450  -21.6027  -13.9418 N   0  0  0  0  0  0  0  0  0  0  0  0
   23.8287  -20.7768  -13.1864 C   0  0  0  0  0  0  0  0  0  0  0  0
   24.0657  -19.7413  -13.9140 O   0  0  0  0  0  0  0  0  0  0  0  0
   19.3289  -19.6108  -15.4357 N   0  0  0  0  0  0  0  0  0  0  0  0
   20.2261  -20.6382  -15.8714 C   0  0  0  0  0  0  0  0  0  0  0  0
   20.1409  -21.1516  -17.0173 O   0  0  0  0  0  0  0  0  0  0  0  0
   21.3107  -21.1478  -14.9859 C   0  0  0  0  0  0  0  0  0  0  0  0
   21.3986  -20.4072  -13.6797 C   0  0  2  0  0  0  0  0  0  0  0  0
   22.4732  -20.9152  -12.8244 N   0  0  0  0  0  0  0  0  0  0  0  0
   20.1269  -20.6247  -12.9713 C   0  0  0  0  0  0  0  0  0  0  0  0
   20.0365  -21.3797  -11.9943 O   0  0  0  0  0  0  0  0  0  0  0  0
   18.9867  -19.9636  -13.4084 O   0  0  0  0  0  0  0  0  0  0  0  0
  2  3  1  0
  2  1  1  1
  4  2  1  0
  4  5  1  6
  6  7  2  0
  6  4  1  0
  9  8  1  0
  9 10  1  0
 10 11  1  6
 12 10  1  0
 12 13  1  6
 13  6  1  0
 14 12  1  0
 15 14  2  0
 17 16  1  0
 18 17  2  0
 20 19  1  6
 19 17  1  0
 20 21  1  0
 21 14  1  0
 22 24  1  0
 22 20  1  0
 23 22  2  0
M  END
$$$$
