TIN.pdb
     RDKit          3D

 24 23  0  0  1  0  0  0  0  0999 V2000
   26.0217  -20.7734  -17.8159 C   0  0  0  0  0  0  0  0  0  0  0  0
   27.0760  -19.8768  -17.1811 C   0  0  1  0  0  0  0  0  0  0  0  0
   26.4122  -18.8419  -16.5512 O   0  0  0  0  0  0  0  0  0  0  0  0
   27.8652  -20.7282  -16.2174 C   0  0  2  0  0  0  0  0  0  0  0  0
   28.5495  -21.7498  -16.9589 N   0  0  0  0  0  0  0  0  0  0  0  0
   26.9982  -21.3084  -15.1550 C   0  0  0  0  0  0  0  0  0  0  0  0
   26.3448  -22.3474  -15.3772 O   0  0  0  0  0  0  0  0  0  0  0  0
   28.9410  -20.9792  -10.1790 C   0  0  0  0  0  0  0  0  0  0  0  0
   28.1231  -21.5149  -11.3044 C   0  0  0  0  0  0  0  0  0  0  0  0
   26.7892  -20.8101  -11.4835 C   0  0  2  0  0  0  0  0  0  0  0  0
   25.9481  -21.2418  -10.3078 C   0  0  0  0  0  0  0  0  0  0  0  0
   26.1157  -21.2088  -12.7692 C   0  0  2  0  0  0  0  0  0  0  0  0
   26.9277  -20.6671  -13.8998 N   0  0  0  0  0  0  0  0  0  0  0  0
   24.7875  -20.5611  -12.8322 C   0  0  0  0  0  0  0  0  0  0  0  0
   24.7254  -19.2773  -12.9076 O   0  0  0  0  0  0  0  0  0  0  0  0
   20.5820  -18.8940  -15.7964 N   0  0  0  0  0  0  0  0  0  0  0  0
   20.6366  -20.1017  -15.0292 C   0  0  0  0  0  0  0  0  0  0  0  0
   19.5933  -20.6922  -14.6459 O   0  0  0  0  0  0  0  0  0  0  0  0
   21.9373  -20.7217  -14.6498 C   0  0  0  0  0  0  0  0  0  0  0  0
   22.3115  -20.4692  -13.2151 C   0  0  2  0  0  0  0  0  0  0  0  0
   23.5251  -21.1887  -12.8228 N   0  0  0  0  0  0  0  0  0  0  0  0
   21.2074  -20.9744  -12.3833 C   0  0  0  0  0  0  0  0  0  0  0  0
   21.1440  -22.1553  -12.0170 O   0  0  0  0  0  0  0  0  0  0  0  0
   20.1999  -20.1022  -11.9929 O   0  0  0  0  0  0  0  0  0  0  0  0
  2  3  1  0
  2  1  1  1
  4  2  1  0
  4  5  1  6
  6  7  2  0
  6  4  1  0
  9  8  1  0
  9 10  1  0
 10 11  1  1
 12 10  1  0
 12 13  1  6
 13  6  1  0
 14 12  1  0
 15 14  2  0
 17 16  1  0
 18 17  2  0
 20 19  1  6
 19 17  1  0
 20 21  1  0
 21 14  1  0
 22 24  1  0
 22 20  1  0
 23 22  2  0
M  END
$$$$
