TIN.pdb
     RDKit          3D

 24 23  0  0  1  0  0  0  0  0999 V2000
   19.7456  -11.0175  -20.9993 C   0  0  0  0  0  0  0  0  0  0  0  0
   20.2692  -10.3697  -19.7247 C   0  0  1  0  0  0  0  0  0  0  0  0
   19.1994   -9.7515  -19.1068 O   0  0  0  0  0  0  0  0  0  0  0  0
   20.8693  -11.4663  -18.8799 C   0  0  2  0  0  0  0  0  0  0  0  0
   19.8694  -12.4710  -18.6508 N   0  0  0  0  0  0  0  0  0  0  0  0
   21.4210  -10.9394  -17.6012 C   0  0  0  0  0  0  0  0  0  0  0  0
   20.7855  -11.0835  -16.5377 O   0  0  0  0  0  0  0  0  0  0  0  0
   24.7627  -11.9494  -15.0042 C   0  0  0  0  0  0  0  0  0  0  0  0
   25.1430  -11.3500  -16.3152 C   0  0  0  0  0  0  0  0  0  0  0  0
   24.7614   -9.8859  -16.4544 C   0  0  2  0  0  0  0  0  0  0  0  0
   25.4311   -9.1867  -15.2975 C   0  0  0  0  0  0  0  0  0  0  0  0
   23.2712   -9.6882  -16.3794 C   0  0  2  0  0  0  0  0  0  0  0  0
   22.6675  -10.2774  -17.6121 N   0  0  0  0  0  0  0  0  0  0  0  0
   22.9814   -8.2380  -16.3982 C   0  0  0  0  0  0  0  0  0  0  0  0
   23.5258   -7.5074  -17.3079 O   0  0  0  0  0  0  0  0  0  0  0  0
   21.2997   -3.3292  -15.8740 N   0  0  0  0  0  0  0  0  0  0  0  0
   20.2176   -4.2606  -15.7650 C   0  0  0  0  0  0  0  0  0  0  0  0
   19.0171   -3.8833  -15.7400 O   0  0  0  0  0  0  0  0  0  0  0  0
   20.4626   -5.7278  -15.6795 C   0  0  0  0  0  0  0  0  0  0  0  0
   21.9249   -6.0799  -15.6827 C   0  0  2  0  0  0  0  0  0  0  0  0
   22.1505   -7.5172  -15.5163 N   0  0  0  0  0  0  0  0  0  0  0  0
   22.5378   -5.3981  -14.5313 C   0  0  0  0  0  0  0  0  0  0  0  0
   22.5835   -5.9137  -13.4066 O   0  0  0  0  0  0  0  0  0  0  0  0
   23.0850   -4.1338  -14.7058 O   0  0  0  0  0  0  0  0  0  0  0  0
  2  3  1  0
  2  1  1  6
  4  2  1  0
  4  5  1  1
  6  7  2  0
  6  4  1  0
  9  8  1  0
  9 10  1  0
 10 11  1  1
 12 10  1  0
 12 13  1  6
 13  6  1  0
 14 12  1  0
 15 14  2  0
 17 16  1  0
 18 17  2  0
 20 19  1  1
 19 17  1  0
 20 21  1  0
 21 14  1  0
 22 24  1  0
 22 20  1  0
 23 22  2  0
M  END
$$$$
