TIN.pdb
     RDKit          3D

 24 23  0  0  1  0  0  0  0  0999 V2000
   16.8941  -25.5359   -8.7358 C   0  0  0  0  0  0  0  0  0  0  0  0
   18.2424  -25.9044   -8.1320 C   0  0  1  0  0  0  0  0  0  0  0  0
   19.1086  -26.1542   -9.1788 O   0  0  0  0  0  0  0  0  0  0  0  0
   18.6849  -24.7392   -7.2817 C   0  0  2  0  0  0  0  0  0  0  0  0
   17.8050  -24.6326   -6.1521 N   0  0  0  0  0  0  0  0  0  0  0  0
   18.7319  -23.4721   -8.0624 C   0  0  0  0  0  0  0  0  0  0  0  0
   17.6951  -22.7985   -8.2271 O   0  0  0  0  0  0  0  0  0  0  0  0
   23.5832  -20.8935   -7.9880 C   0  0  0  0  0  0  0  0  0  0  0  0
   22.1061  -21.0921   -8.0246 C   0  0  0  0  0  0  0  0  0  0  0  0
   21.5641  -21.4127   -9.4072 C   0  0  2  0  0  0  0  0  0  0  0  0
   21.7649  -20.1557  -10.2167 C   0  0  0  0  0  0  0  0  0  0  0  0
   20.1018  -21.7668   -9.3648 C   0  0  2  0  0  0  0  0  0  0  0  0
   19.9615  -23.0482   -8.6103 N   0  0  0  0  0  0  0  0  0  0  0  0
   19.6316  -22.0157  -10.7449 C   0  0  0  0  0  0  0  0  0  0  0  0
   20.0682  -23.0516  -11.3726 O   0  0  0  0  0  0  0  0  0  0  0  0
   17.2742  -22.3445  -15.3778 N   0  0  0  0  0  0  0  0  0  0  0  0
   16.3685  -21.7849  -14.4202 C   0  0  0  0  0  0  0  0  0  0  0  0
   15.1504  -21.6084  -14.6832 O   0  0  0  0  0  0  0  0  0  0  0  0
   16.8266  -21.3868  -13.0595 C   0  0  0  0  0  0  0  0  0  0  0  0
   18.2891  -21.6536  -12.8311 C   0  0  2  0  0  0  0  0  0  0  0  0
   18.7279  -21.2380  -11.4972 N   0  0  0  0  0  0  0  0  0  0  0  0
   19.0352  -20.8513  -13.8139 C   0  0  0  0  0  0  0  0  0  0  0  0
   19.6003  -19.7928  -13.5091 O   0  0  0  0  0  0  0  0  0  0  0  0
   19.1115  -21.2911  -15.1289 O   0  0  0  0  0  0  0  0  0  0  0  0
  2  3  1  0
  2  1  1  6
  4  2  1  0
  4  5  1  1
  6  7  2  0
  6  4  1  0
  9  8  1  0
  9 10  1  0
 10 11  1  6
 12 10  1  0
 12 13  1  1
 13  6  1  0
 14 12  1  0
 15 14  2  0
 17 16  1  0
 18 17  2  0
 20 19  1  1
 19 17  1  0
 20 21  1  0
 21 14  1  0
 22 24  1  0
 22 20  1  0
 23 22  2  0
M  END
$$$$
