QKR.pdb
     RDKit          3D

 30 29  0  0  1  0  0  0  0  0999 V2000
   17.3054  -24.2077  -12.0577 N   0  0  0  0  0  0  0  0  0  0  0  0
   16.5464  -23.8632  -10.8772 C   0  0  0  0  0  0  0  0  0  0  0  0
   15.7380  -24.7227  -10.4753 O   0  0  0  0  0  0  0  0  0  0  0  0
   16.7287  -22.5761  -10.2034 C   0  0  0  0  0  0  0  0  0  0  0  0
   17.7668  -21.7111  -10.8046 C   0  0  0  0  0  0  0  0  0  0  0  0
   19.1718  -22.2159  -10.6888 C   0  0  2  0  0  0  0  0  0  0  0  0
   19.5567  -22.1540   -9.2922 N   0  0  0  0  0  0  0  0  0  0  0  0
   20.0744  -21.4022  -11.5438 C   0  0  0  0  0  0  0  0  0  0  0  0
   20.1290  -20.1660  -11.2816 O   0  0  0  0  0  0  0  0  0  0  0  0
   20.8541  -21.8881  -12.5968 N   0  0  0  0  0  0  0  0  0  0  0  0
   21.7458  -21.0565  -13.3852 C   0  0  1  0  0  0  0  0  0  0  0  0
   22.8521  -21.8751  -14.0019 C   0  0  0  0  0  0  0  0  0  0  0  0
   23.8081  -21.0736  -14.8218 C   0  0  0  0  0  0  0  0  0  0  0  0
   24.7659  -22.0361  -15.4927 C   0  0  0  0  0  0  0  0  0  0  0  0
   25.7351  -21.3336  -16.3985 C   0  0  0  0  0  0  0  0  0  0  0  0
   26.6677  -22.2619  -16.9950 N   0  0  0  0  0  0  0  0  0  0  0  0
   21.0314  -20.2338  -14.3685 C   0  0  0  0  0  0  0  0  0  0  0  0
   20.0281  -20.6819  -14.9749 O   0  0  0  0  0  0  0  0  0  0  0  0
   21.0053  -12.0681  -17.7668 N   0  0  0  0  0  0  0  0  0  0  0  0
   19.7792  -12.2966  -17.1039 C   0  0  0  0  0  0  0  0  0  0  0  0
   18.7031  -11.5918  -17.3519 N   0  0  0  0  0  0  0  0  0  0  0  0
   19.6400  -13.3122  -16.1199 N   0  0  0  0  0  0  0  0  0  0  0  0
   20.7155  -14.1606  -15.6996 C   0  0  0  0  0  0  0  0  0  0  0  0
   20.3509  -15.6084  -16.0234 C   0  0  0  0  0  0  0  0  0  0  0  0
   21.1809  -16.5844  -15.2492 C   0  0  0  0  0  0  0  0  0  0  0  0
   20.7396  -17.9845  -15.4982 C   0  0  2  0  0  0  0  0  0  0  0  0
   21.4844  -18.9164  -14.6332 N   0  0  0  0  0  0  0  0  0  0  0  0
   21.0597  -18.3899  -16.8734 C   0  0  0  0  0  0  0  0  0  0  0  0
   22.1615  -18.8875  -17.1576 O   0  0  0  0  0  0  0  0  0  0  0  0
   20.1497  -18.2332  -17.8975 O   0  0  0  0  0  0  0  0  0  0  0  0
  1  2  1  0
  2  3  2  0
  4  5  1  0
  4  2  1  0
  6  7  1  1
  6  5  1  0
  8  6  1  0
  8 10  1  0
  9  8  2  0
 11 10  1  0
 11 12  1  6
 13 12  1  0
 13 14  1  0
 14 15  1  0
 15 16  1  0
 17 11  1  0
 18 17  2  0
 19 20  1  0
 20 21  2  0
 22 23  1  0
 22 20  1  0
 23 24  1  0
 25 24  1  0
 26 25  1  6
 26 27  1  0
 27 17  1  0
 28 26  1  0
 29 28  2  0
 30 28  1  0
M  END
$$$$
