QKR.pdb
     RDKit          3D

 30 29  0  0  1  0  0  0  0  0999 V2000
   18.9259  -25.3564   -5.8906 N   0  0  0  0  0  0  0  0  0  0  0  0
   17.6204  -24.7534   -5.7472 C   0  0  0  0  0  0  0  0  0  0  0  0
   17.1718  -24.6873   -4.5861 O   0  0  0  0  0  0  0  0  0  0  0  0
   16.8812  -24.2528   -6.9077 C   0  0  0  0  0  0  0  0  0  0  0  0
   17.6533  -24.2443   -8.1692 C   0  0  0  0  0  0  0  0  0  0  0  0
   16.9526  -24.8283   -9.3568 C   0  0  2  0  0  0  0  0  0  0  0  0
   16.9542  -26.2712   -9.2135 N   0  0  0  0  0  0  0  0  0  0  0  0
   17.6320  -24.3997  -10.6069 C   0  0  0  0  0  0  0  0  0  0  0  0
   18.6066  -25.1114  -10.9859 O   0  0  0  0  0  0  0  0  0  0  0  0
   17.2838  -23.2909  -11.3828 N   0  0  0  0  0  0  0  0  0  0  0  0
   17.9022  -22.9784  -12.6588 C   0  0  1  0  0  0  0  0  0  0  0  0
   16.8989  -22.3979  -13.6235 C   0  0  0  0  0  0  0  0  0  0  0  0
   17.4704  -22.0761  -14.9646 C   0  0  0  0  0  0  0  0  0  0  0  0
   16.3570  -21.5093  -15.8207 C   0  0  0  0  0  0  0  0  0  0  0  0
   16.8363  -21.1157  -17.1878 C   0  0  0  0  0  0  0  0  0  0  0  0
   15.7375  -20.7210  -18.0387 N   0  0  0  0  0  0  0  0  0  0  0  0
   19.1027  -22.1459  -12.5177 C   0  0  0  0  0  0  0  0  0  0  0  0
   19.1308  -21.1897  -11.7052 O   0  0  0  0  0  0  0  0  0  0  0  0
   27.2372  -22.2684  -16.7479 N   0  0  0  0  0  0  0  0  0  0  0  0
   27.1434  -21.2305  -15.7946 C   0  0  0  0  0  0  0  0  0  0  0  0
   28.1256  -20.3942  -15.5658 N   0  0  0  0  0  0  0  0  0  0  0  0
   25.9688  -21.0314  -15.0202 N   0  0  0  0  0  0  0  0  0  0  0  0
   24.8019  -21.8563  -15.1247 C   0  0  0  0  0  0  0  0  0  0  0  0
   23.7433  -21.3302  -14.1570 C   0  0  0  0  0  0  0  0  0  0  0  0
   22.4923  -22.1518  -14.1903 C   0  0  0  0  0  0  0  0  0  0  0  0
   21.4667  -21.6107  -13.2564 C   0  0  2  0  0  0  0  0  0  0  0  0
   20.2428  -22.4297  -13.3116 N   0  0  0  0  0  0  0  0  0  0  0  0
   21.0520  -20.2633  -13.6694 C   0  0  0  0  0  0  0  0  0  0  0  0
   20.4289  -20.0778  -14.7275 O   0  0  0  0  0  0  0  0  0  0  0  0
   21.3389  -19.1568  -12.8981 O   0  0  0  0  0  0  0  0  0  0  0  0
  1  2  1  0
  2  3  2  0
  4  5  1  0
  4  2  1  0
  6  7  1  1
  6  5  1  0
  8  6  1  0
  8 10  1  0
  9  8  2  0
 11 10  1  0
 11 12  1  6
 13 12  1  0
 13 14  1  0
 14 15  1  0
 15 16  1  0
 17 11  1  0
 18 17  2  0
 19 20  1  0
 20 21  2  0
 22 23  1  0
 22 20  1  0
 23 24  1  0
 25 24  1  0
 26 25  1  6
 26 27  1  0
 27 17  1  0
 28 26  1  0
 29 28  2  0
 30 28  1  0
M  END
$$$$
