QKR.pdb
     RDKit          3D

 30 29  0  0  1  0  0  0  0  0999 V2000
   23.9626  -29.4583  -17.6592 N   0  0  0  0  0  0  0  0  0  0  0  0
   25.3828  -29.2000  -17.7271 C   0  0  0  0  0  0  0  0  0  0  0  0
   26.0940  -30.1467  -18.1166 O   0  0  0  0  0  0  0  0  0  0  0  0
   25.9383  -27.8966  -17.3576 C   0  0  0  0  0  0  0  0  0  0  0  0
   24.9283  -26.8859  -16.9757 C   0  0  0  0  0  0  0  0  0  0  0  0
   24.7453  -26.6831  -15.5033 C   0  0  2  0  0  0  0  0  0  0  0  0
   23.6179  -27.4889  -15.0765 N   0  0  0  0  0  0  0  0  0  0  0  0
   24.5311  -25.2415  -15.2135 C   0  0  0  0  0  0  0  0  0  0  0  0
   23.5995  -24.6747  -15.8545 O   0  0  0  0  0  0  0  0  0  0  0  0
   25.2660  -24.4769  -14.3036 N   0  0  0  0  0  0  0  0  0  0  0  0
   24.9836  -23.0820  -14.0154 C   0  0  1  0  0  0  0  0  0  0  0  0
   25.6001  -22.6601  -12.7053 C   0  0  0  0  0  0  0  0  0  0  0  0
   25.2083  -21.2867  -12.2708 C   0  0  0  0  0  0  0  0  0  0  0  0
   24.4700  -21.4084  -10.9540 C   0  0  0  0  0  0  0  0  0  0  0  0
   23.9788  -20.0811  -10.4537 C   0  0  0  0  0  0  0  0  0  0  0  0
   23.3688  -20.2017   -9.1496 N   0  0  0  0  0  0  0  0  0  0  0  0
   25.3411  -22.1907  -15.1252 C   0  0  0  0  0  0  0  0  0  0  0  0
   26.4666  -22.2674  -15.6751 O   0  0  0  0  0  0  0  0  0  0  0  0
   26.2353  -20.8328  -22.1776 N   0  0  0  0  0  0  0  0  0  0  0  0
   25.2400  -19.8497  -22.3716 C   0  0  0  0  0  0  0  0  0  0  0  0
   25.3055  -18.9620  -23.3330 N   0  0  0  0  0  0  0  0  0  0  0  0
   24.1000  -19.7640  -21.5277 N   0  0  0  0  0  0  0  0  0  0  0  0
   23.8387  -20.6766  -20.4545 C   0  0  0  0  0  0  0  0  0  0  0  0
   24.2874  -20.0315  -19.1443 C   0  0  0  0  0  0  0  0  0  0  0  0
   24.1009  -20.9460  -17.9739 C   0  0  0  0  0  0  0  0  0  0  0  0
   24.6619  -20.3509  -16.7297 C   0  0  2  0  0  0  0  0  0  0  0  0
   24.3993  -21.2324  -15.5784 N   0  0  0  0  0  0  0  0  0  0  0  0
   23.9867  -19.0853  -16.4127 C   0  0  0  0  0  0  0  0  0  0  0  0
   23.0103  -19.0513  -15.6460 O   0  0  0  0  0  0  0  0  0  0  0  0
   24.4119  -17.8905  -16.9541 O   0  0  0  0  0  0  0  0  0  0  0  0
  1  2  1  0
  2  3  2  0
  4  5  1  0
  4  2  1  0
  6  7  1  6
  6  5  1  0
  8  6  1  0
  8 10  1  0
  9  8  2  0
 11 10  1  0
 11 12  1  1
 13 12  1  0
 13 14  1  0
 14 15  1  0
 15 16  1  0
 17 11  1  0
 18 17  2  0
 19 20  1  0
 20 21  2  0
 22 23  1  0
 22 20  1  0
 23 24  1  0
 25 24  1  0
 26 25  1  6
 26 27  1  0
 27 17  1  0
 28 26  1  0
 29 28  2  0
 30 28  1  0
M  END
$$$$
