QKR.pdb
     RDKit          3D

 30 29  0  0  1  0  0  0  0  0999 V2000
   27.8787  -24.2002  -17.7254 N   0  0  0  0  0  0  0  0  0  0  0  0
   28.9653  -23.3180  -18.0850 C   0  0  0  0  0  0  0  0  0  0  0  0
   29.5346  -23.5623  -19.1667 O   0  0  0  0  0  0  0  0  0  0  0  0
   29.3616  -22.2058  -17.2191 C   0  0  0  0  0  0  0  0  0  0  0  0
   28.5617  -22.0772  -15.9817 C   0  0  0  0  0  0  0  0  0  0  0  0
   27.2512  -21.3686  -16.1330 C   0  0  2  0  0  0  0  0  0  0  0  0
   27.5166  -19.9447  -16.2012 N   0  0  0  0  0  0  0  0  0  0  0  0
   26.3582  -21.7069  -14.9946 C   0  0  0  0  0  0  0  0  0  0  0  0
   25.9455  -22.9015  -14.9433 O   0  0  0  0  0  0  0  0  0  0  0  0
   25.9462  -20.8232  -13.9936 N   0  0  0  0  0  0  0  0  0  0  0  0
   24.9265  -21.1432  -13.0107 C   0  0  1  0  0  0  0  0  0  0  0  0
   25.3487  -20.7153  -11.6276 C   0  0  0  0  0  0  0  0  0  0  0  0
   24.3708  -21.0803  -10.5602 C   0  0  0  0  0  0  0  0  0  0  0  0
   24.9578  -20.6607   -9.2285 C   0  0  0  0  0  0  0  0  0  0  0  0
   24.0579  -21.0056   -8.0776 C   0  0  0  0  0  0  0  0  0  0  0  0
   24.6277  -20.5854   -6.8181 N   0  0  0  0  0  0  0  0  0  0  0  0
   23.6011  -20.6347  -13.3833 C   0  0  0  0  0  0  0  0  0  0  0  0
   23.4206  -19.4133  -13.6084 O   0  0  0  0  0  0  0  0  0  0  0  0
   17.3655  -24.7497  -17.9057 N   0  0  0  0  0  0  0  0  0  0  0  0
   18.5583  -24.0057  -18.0419 C   0  0  0  0  0  0  0  0  0  0  0  0
   19.3698  -24.1568  -19.0593 N   0  0  0  0  0  0  0  0  0  0  0  0
   18.9522  -23.0421  -17.0747 N   0  0  0  0  0  0  0  0  0  0  0  0
   18.3650  -22.9421  -15.7716 C   0  0  0  0  0  0  0  0  0  0  0  0
   19.0787  -21.8351  -14.9976 C   0  0  0  0  0  0  0  0  0  0  0  0
   20.4875  -22.2069  -14.6540 C   0  0  0  0  0  0  0  0  0  0  0  0
   21.1692  -21.1102  -13.9127 C   0  0  2  0  0  0  0  0  0  0  0  0
   22.5140  -21.5389  -13.4892 N   0  0  0  0  0  0  0  0  0  0  0  0
   20.4496  -20.8023  -12.6695 C   0  0  0  0  0  0  0  0  0  0  0  0
   19.5224  -19.9763  -12.6503 O   0  0  0  0  0  0  0  0  0  0  0  0
   20.7769  -21.4185  -11.4801 O   0  0  0  0  0  0  0  0  0  0  0  0
  1  2  1  0
  2  3  2  0
  4  5  1  0
  4  2  1  0
  6  7  1  1
  6  5  1  0
  8  6  1  0
  8 10  1  0
  9  8  2  0
 11 10  1  0
 11 12  1  1
 13 12  1  0
 13 14  1  0
 14 15  1  0
 15 16  1  0
 17 11  1  0
 18 17  2  0
 19 20  1  0
 20 21  2  0
 22 23  1  0
 22 20  1  0
 23 24  1  0
 25 24  1  0
 26 25  1  1
 26 27  1  0
 27 17  1  0
 28 26  1  0
 29 28  2  0
 30 28  1  0
M  END
$$$$
