QKR.pdb
     RDKit          3D

 30 29  0  0  1  0  0  0  0  0999 V2000
   20.9153  -16.8747  -16.8805 N   0  0  0  0  0  0  0  0  0  0  0  0
   19.5021  -16.9373  -16.5853 C   0  0  0  0  0  0  0  0  0  0  0  0
   19.0060  -15.9207  -16.0617 O   0  0  0  0  0  0  0  0  0  0  0  0
   18.7125  -18.1320  -16.8908 C   0  0  0  0  0  0  0  0  0  0  0  0
   19.4355  -19.1626  -17.6671 C   0  0  0  0  0  0  0  0  0  0  0  0
   19.0867  -20.5807  -17.3357 C   0  0  2  0  0  0  0  0  0  0  0  0
   17.8769  -20.5698  -16.5365 N   0  0  0  0  0  0  0  0  0  0  0  0
   20.2153  -21.2245  -16.6149 C   0  0  0  0  0  0  0  0  0  0  0  0
   20.1958  -21.1369  -15.3532 O   0  0  0  0  0  0  0  0  0  0  0  0
   21.2781  -21.9074  -17.2123 N   0  0  0  0  0  0  0  0  0  0  0  0
   22.3086  -22.6024  -16.4615 C   0  0  1  0  0  0  0  0  0  0  0  0
   22.7936  -23.8231  -17.2025 C   0  0  0  0  0  0  0  0  0  0  0  0
   23.8289  -24.6038  -16.4627 C   0  0  0  0  0  0  0  0  0  0  0  0
   24.3056  -25.7197  -17.3691 C   0  0  0  0  0  0  0  0  0  0  0  0
   25.3482  -26.5777  -16.7131 C   0  0  0  0  0  0  0  0  0  0  0  0
   25.8324  -27.5997  -17.6122 N   0  0  0  0  0  0  0  0  0  0  0  0
   23.4029  -21.7163  -16.0478 C   0  0  0  0  0  0  0  0  0  0  0  0
   23.8307  -20.8204  -16.8156 O   0  0  0  0  0  0  0  0  0  0  0  0
   26.5340  -20.0571   -8.1422 N   0  0  0  0  0  0  0  0  0  0  0  0
   25.5236  -20.6892   -8.9000 C   0  0  0  0  0  0  0  0  0  0  0  0
   24.2986  -20.8331   -8.4582 N   0  0  0  0  0  0  0  0  0  0  0  0
   25.7786  -21.2117  -10.1966 N   0  0  0  0  0  0  0  0  0  0  0  0
   26.9653  -20.9250  -10.9466 C   0  0  0  0  0  0  0  0  0  0  0  0
   26.5634  -20.5444  -12.3705 C   0  0  0  0  0  0  0  0  0  0  0  0
   25.4059  -21.3553  -12.8643 C   0  0  0  0  0  0  0  0  0  0  0  0
   25.0827  -21.0272  -14.2803 C   0  0  2  0  0  0  0  0  0  0  0  0
   23.9809  -21.8784  -14.7631 N   0  0  0  0  0  0  0  0  0  0  0  0
   26.2228  -21.3338  -15.1545 C   0  0  0  0  0  0  0  0  0  0  0  0
   26.6610  -22.4912  -15.2586 O   0  0  0  0  0  0  0  0  0  0  0  0
   26.8473  -20.3490  -15.8905 O   0  0  0  0  0  0  0  0  0  0  0  0
  1  2  1  0
  2  3  2  0
  4  5  1  0
  4  2  1  0
  6  7  1  1
  6  5  1  0
  8  6  1  0
  8 10  1  0
  9  8  2  0
 11 10  1  0
 11 12  1  6
 13 12  1  0
 13 14  1  0
 14 15  1  0
 15 16  1  0
 17 11  1  0
 18 17  2  0
 19 20  1  0
 20 21  2  0
 22 23  1  0
 22 20  1  0
 23 24  1  0
 25 24  1  0
 26 25  1  1
 26 27  1  0
 27 17  1  0
 28 26  1  0
 29 28  2  0
 30 28  1  0
M  END
$$$$
