QKR.pdb
     RDKit          3D

 30 29  0  0  1  0  0  0  0  0999 V2000
   24.7564  -12.5351  -17.4207 N   0  0  0  0  0  0  0  0  0  0  0  0
   25.2267  -13.5994  -16.5638 C   0  0  0  0  0  0  0  0  0  0  0  0
   24.3510  -14.3498  -16.0908 O   0  0  0  0  0  0  0  0  0  0  0  0
   26.6523  -13.7737  -16.2786 C   0  0  0  0  0  0  0  0  0  0  0  0
   27.0578  -15.1709  -16.0123 C   0  0  0  0  0  0  0  0  0  0  0  0
   27.7686  -15.8602  -17.1357 C   0  0  2  0  0  0  0  0  0  0  0  0
   27.4589  -15.1531  -18.3631 N   0  0  0  0  0  0  0  0  0  0  0  0
   27.3500  -17.2844  -17.2017 C   0  0  0  0  0  0  0  0  0  0  0  0
   26.1556  -17.5003  -17.5578 O   0  0  0  0  0  0  0  0  0  0  0  0
   28.1593  -18.3846  -16.9062 N   0  0  0  0  0  0  0  0  0  0  0  0
   27.6706  -19.7512  -16.8614 C   0  0  1  0  0  0  0  0  0  0  0  0
   28.8109  -20.7381  -16.8531 C   0  0  0  0  0  0  0  0  0  0  0  0
   28.3731  -22.1636  -16.9236 C   0  0  0  0  0  0  0  0  0  0  0  0
   29.6147  -23.0291  -16.9815 C   0  0  0  0  0  0  0  0  0  0  0  0
   29.2897  -24.4715  -17.2411 C   0  0  0  0  0  0  0  0  0  0  0  0
   30.4870  -25.2530  -17.4484 N   0  0  0  0  0  0  0  0  0  0  0  0
   26.7161  -19.9759  -15.7694 C   0  0  0  0  0  0  0  0  0  0  0  0
   27.0143  -19.6879  -14.5848 O   0  0  0  0  0  0  0  0  0  0  0  0
   17.8267  -21.5985  -16.2628 N   0  0  0  0  0  0  0  0  0  0  0  0
   18.3595  -21.9864  -15.0136 C   0  0  0  0  0  0  0  0  0  0  0  0
   17.6163  -22.4791  -14.0539 N   0  0  0  0  0  0  0  0  0  0  0  0
   19.7447  -21.8630  -14.7215 N   0  0  0  0  0  0  0  0  0  0  0  0
   20.7240  -21.4552  -15.6847 C   0  0  0  0  0  0  0  0  0  0  0  0
   22.1118  -21.6034  -15.0633 C   0  0  0  0  0  0  0  0  0  0  0  0
   23.0642  -20.5597  -15.5579 C   0  0  0  0  0  0  0  0  0  0  0  0
   24.4339  -20.7800  -15.0174 C   0  0  2  0  0  0  0  0  0  0  0  0
   25.4421  -20.5256  -16.0616 N   0  0  0  0  0  0  0  0  0  0  0  0
   24.6176  -22.1861  -14.6336 C   0  0  0  0  0  0  0  0  0  0  0  0
   24.9043  -23.0512  -15.4772 O   0  0  0  0  0  0  0  0  0  0  0  0
   24.4786  -22.5961  -13.3244 O   0  0  0  0  0  0  0  0  0  0  0  0
  1  2  1  0
  2  3  2  0
  4  5  1  0
  4  2  1  0
  6  7  1  6
  6  5  1  0
  8  6  1  0
  8 10  1  0
  9  8  2  0
 11 10  1  0
 11 12  1  1
 13 12  1  0
 13 14  1  0
 14 15  1  0
 15 16  1  0
 17 11  1  0
 18 17  2  0
 19 20  1  0
 20 21  2  0
 22 23  1  0
 22 20  1  0
 23 24  1  0
 25 24  1  0
 26 25  1  6
 26 27  1  0
 27 17  1  0
 28 26  1  0
 29 28  2  0
 30 28  1  0
M  END
$$$$
