QKR.pdb
     RDKit          3D

 30 29  0  0  1  0  0  0  0  0999 V2000
   25.9288  -17.2190  -16.8671 N   0  0  0  0  0  0  0  0  0  0  0  0
   27.3194  -17.5968  -16.9762 C   0  0  0  0  0  0  0  0  0  0  0  0
   28.0463  -16.8276  -17.6347 O   0  0  0  0  0  0  0  0  0  0  0  0
   27.8295  -18.8146  -16.3433 C   0  0  0  0  0  0  0  0  0  0  0  0
   26.8459  -19.5234  -15.4961 C   0  0  0  0  0  0  0  0  0  0  0  0
   27.3367  -20.7867  -14.8592 C   0  0  2  0  0  0  0  0  0  0  0  0
   27.6523  -21.7282  -15.9158 N   0  0  0  0  0  0  0  0  0  0  0  0
   26.3032  -21.3231  -13.9362 C   0  0  0  0  0  0  0  0  0  0  0  0
   25.4875  -22.1532  -14.4317 O   0  0  0  0  0  0  0  0  0  0  0  0
   26.1648  -20.9876  -12.5868 N   0  0  0  0  0  0  0  0  0  0  0  0
   24.9115  -21.0852  -11.8601 C   0  0  1  0  0  0  0  0  0  0  0  0
   25.1211  -20.8787  -10.3810 C   0  0  0  0  0  0  0  0  0  0  0  0
   23.8924  -21.1001   -9.5626 C   0  0  0  0  0  0  0  0  0  0  0  0
   24.2733  -20.9577   -8.1037 C   0  0  0  0  0  0  0  0  0  0  0  0
   23.1160  -21.2255   -7.1859 C   0  0  0  0  0  0  0  0  0  0  0  0
   23.4840  -21.0319   -5.8023 N   0  0  0  0  0  0  0  0  0  0  0  0
   23.8669  -20.2152  -12.4132 C   0  0  0  0  0  0  0  0  0  0  0  0
   24.0828  -18.9943  -12.6078 O   0  0  0  0  0  0  0  0  0  0  0  0
   20.7071  -24.5212  -17.1264 N   0  0  0  0  0  0  0  0  0  0  0  0
   19.4114  -23.9733  -16.9998 C   0  0  0  0  0  0  0  0  0  0  0  0
   18.3270  -24.7029  -17.0888 N   0  0  0  0  0  0  0  0  0  0  0  0
   19.2062  -22.5864  -16.7677 N   0  0  0  0  0  0  0  0  0  0  0  0
   20.2732  -21.6472  -16.5875 C   0  0  0  0  0  0  0  0  0  0  0  0
   20.3674  -21.2933  -15.1043 C   0  0  0  0  0  0  0  0  0  0  0  0
   21.4610  -20.3088  -14.8290 C   0  0  0  0  0  0  0  0  0  0  0  0
   21.5364  -19.9780  -13.3792 C   0  0  2  0  0  0  0  0  0  0  0  0
   22.5992  -20.7659  -12.7302 N   0  0  0  0  0  0  0  0  0  0  0  0
   20.2942  -20.3636  -12.6964 C   0  0  0  0  0  0  0  0  0  0  0  0
   19.2230  -19.7811  -12.9317 O   0  0  0  0  0  0  0  0  0  0  0  0
   20.2723  -21.3852  -11.7704 O   0  0  0  0  0  0  0  0  0  0  0  0
  1  2  1  0
  2  3  2  0
  4  5  1  0
  4  2  1  0
  6  7  1  6
  6  5  1  0
  8  6  1  0
  8 10  1  0
  9  8  2  0
 11 10  1  0
 11 12  1  1
 13 12  1  0
 13 14  1  0
 14 15  1  0
 15 16  1  0
 17 11  1  0
 18 17  2  0
 19 20  1  0
 20 21  2  0
 22 23  1  0
 22 20  1  0
 23 24  1  0
 25 24  1  0
 26 25  1  6
 26 27  1  0
 27 17  1  0
 28 26  1  0
 29 28  2  0
 30 28  1  0
M  END
$$$$
