QKR.pdb
     RDKit          3D

 30 29  0  0  1  0  0  0  0  0999 V2000
   27.4261  -22.2333  -16.0603 N   0  0  0  0  0  0  0  0  0  0  0  0
   27.7917  -23.5366  -16.5665 C   0  0  0  0  0  0  0  0  0  0  0  0
   29.0019  -23.7109  -16.8083 O   0  0  0  0  0  0  0  0  0  0  0  0
   26.7873  -24.5812  -16.7763 C   0  0  0  0  0  0  0  0  0  0  0  0
   25.4337  -24.2366  -16.2899 C   0  0  0  0  0  0  0  0  0  0  0  0
   24.4848  -23.7302  -17.3319 C   0  0  2  0  0  0  0  0  0  0  0  0
   25.1875  -23.6966  -18.5998 N   0  0  0  0  0  0  0  0  0  0  0  0
   23.9808  -22.3862  -16.9475 C   0  0  0  0  0  0  0  0  0  0  0  0
   23.1969  -22.3455  -15.9557 O   0  0  0  0  0  0  0  0  0  0  0  0
   24.3003  -21.1847  -17.5856 N   0  0  0  0  0  0  0  0  0  0  0  0
   23.6444  -19.9225  -17.2943 C   0  0  1  0  0  0  0  0  0  0  0  0
   24.4539  -18.7568  -17.8044 C   0  0  0  0  0  0  0  0  0  0  0  0
   25.5823  -18.3695  -16.9071 C   0  0  0  0  0  0  0  0  0  0  0  0
   26.8097  -19.1422  -17.3435 C   0  0  0  0  0  0  0  0  0  0  0  0
   27.9741  -18.9266  -16.4208 C   0  0  0  0  0  0  0  0  0  0  0  0
   29.1366  -19.6652  -16.8570 N   0  0  0  0  0  0  0  0  0  0  0  0
   22.2501  -19.8898  -17.7513 C   0  0  0  0  0  0  0  0  0  0  0  0
   21.9242  -20.3833  -18.8583 O   0  0  0  0  0  0  0  0  0  0  0  0
   17.3657  -23.5599  -15.4732 N   0  0  0  0  0  0  0  0  0  0  0  0
   16.1667  -22.9514  -15.9054 C   0  0  0  0  0  0  0  0  0  0  0  0
   15.0305  -23.1067  -15.2719 N   0  0  0  0  0  0  0  0  0  0  0  0
   16.1216  -22.1287  -17.0631 N   0  0  0  0  0  0  0  0  0  0  0  0
   17.2300  -21.9538  -17.9541 C   0  0  0  0  0  0  0  0  0  0  0  0
   17.8130  -20.5580  -17.7406 C   0  0  0  0  0  0  0  0  0  0  0  0
   19.2847  -20.5982  -17.4693 C   0  0  0  0  0  0  0  0  0  0  0  0
   19.8431  -19.2261  -17.3194 C   0  0  2  0  0  0  0  0  0  0  0  0
   21.2623  -19.2922  -16.9281 N   0  0  0  0  0  0  0  0  0  0  0  0
   19.1709  -18.5117  -16.2259 C   0  0  0  0  0  0  0  0  0  0  0  0
   17.9633  -18.2288  -16.2885 O   0  0  0  0  0  0  0  0  0  0  0  0
   19.8554  -18.1298  -15.0913 O   0  0  0  0  0  0  0  0  0  0  0  0
  1  2  1  0
  2  3  2  0
  4  5  1  0
  4  2  1  0
  6  7  1  6
  6  5  1  0
  8  6  1  0
  8 10  1  0
  9  8  2  0
 11 10  1  0
 11 12  1  6
 13 12  1  0
 13 14  1  0
 14 15  1  0
 15 16  1  0
 17 11  1  0
 18 17  2  0
 19 20  1  0
 20 21  2  0
 22 23  1  0
 22 20  1  0
 23 24  1  0
 25 24  1  0
 26 25  1  1
 26 27  1  0
 27 17  1  0
 28 26  1  0
 29 28  2  0
 30 28  1  0
M  END
$$$$
