QKR.pdb
     RDKit          3D

 30 29  0  0  1  0  0  0  0  0999 V2000
   26.1138  -24.6678  -15.6855 N   0  0  0  0  0  0  0  0  0  0  0  0
   27.0612  -23.5795  -15.6037 C   0  0  0  0  0  0  0  0  0  0  0  0
   28.1879  -23.7959  -16.0910 O   0  0  0  0  0  0  0  0  0  0  0  0
   26.7027  -22.3030  -14.9826 C   0  0  0  0  0  0  0  0  0  0  0  0
   25.3445  -22.2655  -14.3983 C   0  0  0  0  0  0  0  0  0  0  0  0
   24.2223  -22.4960  -15.3626 C   0  0  2  0  0  0  0  0  0  0  0  0
   24.5277  -21.7792  -16.5855 N   0  0  0  0  0  0  0  0  0  0  0  0
   22.9399  -22.0415  -14.7652 C   0  0  0  0  0  0  0  0  0  0  0  0
   22.6727  -22.4843  -13.6109 O   0  0  0  0  0  0  0  0  0  0  0  0
   22.0224  -21.1777  -15.3692 N   0  0  0  0  0  0  0  0  0  0  0  0
   20.7029  -20.9035  -14.8287 C   0  0  1  0  0  0  0  0  0  0  0  0
   20.0589  -19.7335  -15.5293 C   0  0  0  0  0  0  0  0  0  0  0  0
   18.6942  -19.4051  -15.0212 C   0  0  0  0  0  0  0  0  0  0  0  0
   18.0992  -18.3525  -15.9334 C   0  0  0  0  0  0  0  0  0  0  0  0
   16.7113  -17.9596  -15.5174 C   0  0  0  0  0  0  0  0  0  0  0  0
   16.0746  -17.1340  -16.5175 N   0  0  0  0  0  0  0  0  0  0  0  0
   19.8435  -22.0929  -14.8013 C   0  0  0  0  0  0  0  0  0  0  0  0
   19.7708  -22.8572  -15.7941 O   0  0  0  0  0  0  0  0  0  0  0  0
   21.8950  -27.4445  -12.1159 N   0  0  0  0  0  0  0  0  0  0  0  0
   20.8061  -28.3262  -11.9375 C   0  0  0  0  0  0  0  0  0  0  0  0
   20.9043  -29.6164  -12.1427 N   0  0  0  0  0  0  0  0  0  0  0  0
   19.5289  -27.8615  -11.5226 N   0  0  0  0  0  0  0  0  0  0  0  0
   19.2509  -26.4941  -11.1974 C   0  0  0  0  0  0  0  0  0  0  0  0
   18.8287  -25.7648  -12.4717 C   0  0  0  0  0  0  0  0  0  0  0  0
   18.6010  -24.3042  -12.2350 C   0  0  0  0  0  0  0  0  0  0  0  0
   18.2711  -23.5974  -13.5033 C   0  0  2  0  0  0  0  0  0  0  0  0
   19.0878  -22.3780  -13.6358 N   0  0  0  0  0  0  0  0  0  0  0  0
   16.8777  -23.1326  -13.4880 C   0  0  0  0  0  0  0  0  0  0  0  0
   15.9325  -23.9282  -13.6148 O   0  0  0  0  0  0  0  0  0  0  0  0
   16.5687  -21.7977  -13.3325 O   0  0  0  0  0  0  0  0  0  0  0  0
  1  2  1  0
  2  3  2  0
  4  5  1  0
  4  2  1  0
  6  7  1  6
  6  5  1  0
  8  6  1  0
  8 10  1  0
  9  8  2  0
 11 10  1  0
 11 12  1  6
 13 12  1  0
 13 14  1  0
 14 15  1  0
 15 16  1  0
 17 11  1  0
 18 17  2  0
 19 20  1  0
 20 21  2  0
 22 23  1  0
 22 20  1  0
 23 24  1  0
 25 24  1  0
 26 25  1  1
 26 27  1  0
 27 17  1  0
 28 26  1  0
 29 28  2  0
 30 28  1  0
M  END
$$$$
