QKR.pdb
     RDKit          3D

 30 29  0  0  1  0  0  0  0  0999 V2000
   21.8865  -20.2241  -14.5203 N   0  0  0  0  0  0  0  0  0  0  0  0
   21.0045  -19.1476  -14.1312 C   0  0  0  0  0  0  0  0  0  0  0  0
   19.8550  -19.4799  -13.7820 O   0  0  0  0  0  0  0  0  0  0  0  0
   21.4504  -17.7531  -14.1503 C   0  0  0  0  0  0  0  0  0  0  0  0
   20.7142  -16.8869  -15.0964 C   0  0  0  0  0  0  0  0  0  0  0  0
   19.3614  -16.4370  -14.6382 C   0  0  2  0  0  0  0  0  0  0  0  0
   18.4791  -17.5877  -14.6483 N   0  0  0  0  0  0  0  0  0  0  0  0
   18.8612  -15.3536  -15.5237 C   0  0  0  0  0  0  0  0  0  0  0  0
   19.4761  -15.1971  -16.6180 O   0  0  0  0  0  0  0  0  0  0  0  0
   17.7831  -14.5091  -15.2462 N   0  0  0  0  0  0  0  0  0  0  0  0
   17.3081  -13.4870  -16.1617 C   0  0  1  0  0  0  0  0  0  0  0  0
   15.8036  -13.3869  -16.1344 C   0  0  0  0  0  0  0  0  0  0  0  0
   15.2557  -12.3176  -17.0205 C   0  0  0  0  0  0  0  0  0  0  0  0
   13.7544  -12.2755  -16.8248 C   0  0  0  0  0  0  0  0  0  0  0  0
   13.1048  -11.2004  -17.6468 C   0  0  0  0  0  0  0  0  0  0  0  0
   11.6681  -11.2156  -17.4947 N   0  0  0  0  0  0  0  0  0  0  0  0
   17.9680  -12.1921  -15.9570 C   0  0  0  0  0  0  0  0  0  0  0  0
   18.2937  -11.8108  -14.8065 O   0  0  0  0  0  0  0  0  0  0  0  0
   21.7824   -9.1368  -22.9267 N   0  0  0  0  0  0  0  0  0  0  0  0
   22.5235   -9.7565  -21.8964 C   0  0  0  0  0  0  0  0  0  0  0  0
   23.7482  -10.1874  -22.0716 N   0  0  0  0  0  0  0  0  0  0  0  0
   21.9792   -9.9519  -20.5983 N   0  0  0  0  0  0  0  0  0  0  0  0
   20.7452   -9.3695  -20.1611 C   0  0  0  0  0  0  0  0  0  0  0  0
   20.4352   -9.8799  -18.7549 C   0  0  0  0  0  0  0  0  0  0  0  0
   19.0899   -9.4300  -18.2767 C   0  0  0  0  0  0  0  0  0  0  0  0
   18.7753   -9.9996  -16.9375 C   0  0  2  0  0  0  0  0  0  0  0  0
   18.2388  -11.3651  -17.0765 N   0  0  0  0  0  0  0  0  0  0  0  0
   17.7092   -9.2273  -16.2854 C   0  0  0  0  0  0  0  0  0  0  0  0
   17.9718   -8.3407  -15.4564 O   0  0  0  0  0  0  0  0  0  0  0  0
   16.3798   -9.4583  -16.5698 O   0  0  0  0  0  0  0  0  0  0  0  0
  1  2  1  0
  2  3  2  0
  4  5  1  0
  4  2  1  0
  6  7  1  6
  6  5  1  0
  8  6  1  0
  8 10  1  0
  9  8  2  0
 11 10  1  0
 11 12  1  1
 13 12  1  0
 13 14  1  0
 14 15  1  0
 15 16  1  0
 17 11  1  0
 18 17  2  0
 19 20  1  0
 20 21  2  0
 22 23  1  0
 22 20  1  0
 23 24  1  0
 25 24  1  0
 26 25  1  6
 26 27  1  0
 27 17  1  0
 28 26  1  0
 29 28  2  0
 30 28  1  0
M  END
$$$$
