QKR.pdb
     RDKit          3D

 30 29  0  0  1  0  0  0  0  0999 V2000
   17.4189  -13.8507  -18.0713 N   0  0  0  0  0  0  0  0  0  0  0  0
   17.1640  -15.2021  -17.6273 C   0  0  0  0  0  0  0  0  0  0  0  0
   16.2403  -15.8048  -18.2081 O   0  0  0  0  0  0  0  0  0  0  0  0
   17.9544  -15.8139  -16.5573 C   0  0  0  0  0  0  0  0  0  0  0  0
   18.9751  -14.9235  -15.9633 C   0  0  0  0  0  0  0  0  0  0  0  0
   20.3975  -15.3306  -16.1944 C   0  0  2  0  0  0  0  0  0  0  0  0
   20.6426  -16.5483  -15.4463 N   0  0  0  0  0  0  0  0  0  0  0  0
   21.3117  -14.2361  -15.7768 C   0  0  0  0  0  0  0  0  0  0  0  0
   20.9896  -13.6086  -14.7268 O   0  0  0  0  0  0  0  0  0  0  0  0
   22.4791  -13.8530  -16.4424 N   0  0  0  0  0  0  0  0  0  0  0  0
   23.2432  -12.6657  -16.1033 C   0  0  1  0  0  0  0  0  0  0  0  0
   24.6149  -12.7028  -16.7289 C   0  0  0  0  0  0  0  0  0  0  0  0
   25.4573  -11.5144  -16.4024 C   0  0  0  0  0  0  0  0  0  0  0  0
   26.7444  -11.6253  -17.1930 C   0  0  0  0  0  0  0  0  0  0  0  0
   27.6511  -10.4501  -16.9694 C   0  0  0  0  0  0  0  0  0  0  0  0
   28.8144  -10.5111  -17.8240 N   0  0  0  0  0  0  0  0  0  0  0  0
   22.5186  -11.4232  -16.3953 C   0  0  0  0  0  0  0  0  0  0  0  0
   22.0634  -11.1984  -17.5431 O   0  0  0  0  0  0  0  0  0  0  0  0
   14.9796   -8.7183  -15.9224 N   0  0  0  0  0  0  0  0  0  0  0  0
   15.8195   -8.1389  -16.8990 C   0  0  0  0  0  0  0  0  0  0  0  0
   15.3698   -7.7247  -18.0577 N   0  0  0  0  0  0  0  0  0  0  0  0
   17.2135   -7.9708  -16.6808 N   0  0  0  0  0  0  0  0  0  0  0  0
   17.8760   -8.3454  -15.4669 C   0  0  0  0  0  0  0  0  0  0  0  0
   19.3800   -8.1502  -15.6507 C   0  0  0  0  0  0  0  0  0  0  0  0
   20.1377   -9.4313  -15.4899 C   0  0  0  0  0  0  0  0  0  0  0  0
   21.6064   -9.2041  -15.5803 C   0  0  2  0  0  0  0  0  0  0  0  0
   22.3329  -10.4679  -15.3640 N   0  0  0  0  0  0  0  0  0  0  0  0
   22.0573   -8.3077  -14.5074 C   0  0  0  0  0  0  0  0  0  0  0  0
   22.8231   -8.7066  -13.6148 O   0  0  0  0  0  0  0  0  0  0  0  0
   21.6471   -6.9923  -14.4522 O   0  0  0  0  0  0  0  0  0  0  0  0
  1  2  1  0
  2  3  2  0
  4  5  1  0
  4  2  1  0
  6  7  1  1
  6  5  1  0
  8  6  1  0
  8 10  1  0
  9  8  2  0
 11 10  1  0
 11 12  1  6
 13 12  1  0
 13 14  1  0
 14 15  1  0
 15 16  1  0
 17 11  1  0
 18 17  2  0
 19 20  1  0
 20 21  2  0
 22 23  1  0
 22 20  1  0
 23 24  1  0
 25 24  1  0
 26 25  1  1
 26 27  1  0
 27 17  1  0
 28 26  1  0
 29 28  2  0
 30 28  1  0
M  END
$$$$
