QKR.pdb
     RDKit          3D

 30 29  0  0  1  0  0  0  0  0999 V2000
   24.5800  -17.2508  -21.1861 N   0  0  0  0  0  0  0  0  0  0  0  0
   23.8951  -16.4371  -20.2078 C   0  0  0  0  0  0  0  0  0  0  0  0
   24.2806  -15.2557  -20.1108 O   0  0  0  0  0  0  0  0  0  0  0  0
   22.8124  -16.9831  -19.3869 C   0  0  0  0  0  0  0  0  0  0  0  0
   23.1547  -17.1587  -17.9588 C   0  0  0  0  0  0  0  0  0  0  0  0
   23.0986  -18.5666  -17.4518 C   0  0  2  0  0  0  0  0  0  0  0  0
   23.3276  -19.4565  -18.5735 N   0  0  0  0  0  0  0  0  0  0  0  0
   21.7836  -18.8211  -16.8084 C   0  0  0  0  0  0  0  0  0  0  0  0
   21.4878  -18.0789  -15.8278 O   0  0  0  0  0  0  0  0  0  0  0  0
   20.8644  -19.7997  -17.1959 N   0  0  0  0  0  0  0  0  0  0  0  0
   19.6575  -20.1073  -16.4495 C   0  0  1  0  0  0  0  0  0  0  0  0
   18.5269  -20.4865  -17.3728 C   0  0  0  0  0  0  0  0  0  0  0  0
   17.2261  -20.7035  -16.6733 C   0  0  0  0  0  0  0  0  0  0  0  0
   16.1890  -21.0568  -17.7190 C   0  0  0  0  0  0  0  0  0  0  0  0
   14.8305  -21.2773  -17.1196 C   0  0  0  0  0  0  0  0  0  0  0  0
   13.8729  -21.6890  -18.1200 N   0  0  0  0  0  0  0  0  0  0  0  0
   19.8834  -21.0982  -15.3906 C   0  0  0  0  0  0  0  0  0  0  0  0
   20.5940  -22.1116  -15.5987 O   0  0  0  0  0  0  0  0  0  0  0  0
   24.7915  -22.2047  -13.2225 N   0  0  0  0  0  0  0  0  0  0  0  0
   25.0825  -21.5632  -11.9984 C   0  0  0  0  0  0  0  0  0  0  0  0
   26.2965  -21.2005  -11.6651 N   0  0  0  0  0  0  0  0  0  0  0  0
   24.0673  -21.2721  -11.0477 N   0  0  0  0  0  0  0  0  0  0  0  0
   22.6661  -21.3453  -11.3378 C   0  0  0  0  0  0  0  0  0  0  0  0
   22.2189  -20.0095  -11.9289 C   0  0  0  0  0  0  0  0  0  0  0  0
   21.4144  -20.1882  -13.1787 C   0  0  0  0  0  0  0  0  0  0  0  0
   20.0865  -20.7933  -12.8833 C   0  0  2  0  0  0  0  0  0  0  0  0
   19.2894  -20.9034  -14.1178 N   0  0  0  0  0  0  0  0  0  0  0  0
   19.3078  -19.9209  -11.9941 C   0  0  0  0  0  0  0  0  0  0  0  0
   18.6854  -18.9417  -12.4366 O   0  0  0  0  0  0  0  0  0  0  0  0
   19.2397  -20.1573  -10.6372 O   0  0  0  0  0  0  0  0  0  0  0  0
  1  2  1  0
  2  3  2  0
  4  5  1  0
  4  2  1  0
  6  7  1  6
  6  5  1  0
  8  6  1  0
  8 10  1  0
  9  8  2  0
 11 10  1  0
 11 12  1  6
 13 12  1  0
 13 14  1  0
 14 15  1  0
 15 16  1  0
 17 11  1  0
 18 17  2  0
 19 20  1  0
 20 21  2  0
 22 23  1  0
 22 20  1  0
 23 24  1  0
 25 24  1  0
 26 25  1  6
 26 27  1  0
 27 17  1  0
 28 26  1  0
 29 28  2  0
 30 28  1  0
M  END
$$$$
