QKR.pdb
     RDKit          3D

 30 29  0  0  1  0  0  0  0  0999 V2000
   18.1856  -19.3737  -14.3725 N   0  0  0  0  0  0  0  0  0  0  0  0
   18.1522  -20.2085  -13.1933 C   0  0  0  0  0  0  0  0  0  0  0  0
   17.0403  -20.6822  -12.8885 O   0  0  0  0  0  0  0  0  0  0  0  0
   19.3628  -20.4737  -12.4137 C   0  0  0  0  0  0  0  0  0  0  0  0
   20.5796  -19.8059  -12.9246 C   0  0  0  0  0  0  0  0  0  0  0  0
   21.3257  -20.5524  -13.9869 C   0  0  2  0  0  0  0  0  0  0  0  0
   21.7168  -21.8376  -13.4410 N   0  0  0  0  0  0  0  0  0  0  0  0
   22.5039  -19.7620  -14.4287 C   0  0  0  0  0  0  0  0  0  0  0  0
   22.3021  -18.5328  -14.6483 O   0  0  0  0  0  0  0  0  0  0  0  0
   23.7948  -20.2626  -14.6171 N   0  0  0  0  0  0  0  0  0  0  0  0
   24.9006  -19.4635  -15.1143 C   0  0  1  0  0  0  0  0  0  0  0  0
   26.2170  -20.1733  -14.9201 C   0  0  0  0  0  0  0  0  0  0  0  0
   26.5657  -20.4129  -13.4885 C   0  0  0  0  0  0  0  0  0  0  0  0
   27.9123  -21.1050  -13.4473 C   0  0  0  0  0  0  0  0  0  0  0  0
   28.3459  -21.4205  -12.0452 C   0  0  0  0  0  0  0  0  0  0  0  0
   29.5921  -22.1512  -12.0302 N   0  0  0  0  0  0  0  0  0  0  0  0
   24.6967  -19.0116  -16.4957 C   0  0  0  0  0  0  0  0  0  0  0  0
   24.2757  -19.8013  -17.3755 O   0  0  0  0  0  0  0  0  0  0  0  0
   19.3054  -13.4393  -18.4739 N   0  0  0  0  0  0  0  0  0  0  0  0
   19.7026  -14.4386  -17.5582 C   0  0  0  0  0  0  0  0  0  0  0  0
   19.0802  -14.6408  -16.4233 N   0  0  0  0  0  0  0  0  0  0  0  0
   20.8109  -15.2898  -17.8157 N   0  0  0  0  0  0  0  0  0  0  0  0
   21.5434  -15.2858  -19.0472 C   0  0  0  0  0  0  0  0  0  0  0  0
   22.5754  -16.4115  -19.0055 C   0  0  0  0  0  0  0  0  0  0  0  0
   23.7759  -16.0445  -18.1899 C   0  0  0  0  0  0  0  0  0  0  0  0
   24.7877  -17.1368  -18.1979 C   0  0  2  0  0  0  0  0  0  0  0  0
   24.9805  -17.6644  -16.8355 N   0  0  0  0  0  0  0  0  0  0  0  0
   26.1016  -16.6206  -18.6046 C   0  0  0  0  0  0  0  0  0  0  0  0
   27.0705  -16.6434  -17.8280 O   0  0  0  0  0  0  0  0  0  0  0  0
   26.3068  -16.0926  -19.8618 O   0  0  0  0  0  0  0  0  0  0  0  0
  1  2  1  0
  2  3  2  0
  4  5  1  0
  4  2  1  0
  6  7  1  1
  6  5  1  0
  8  6  1  0
  8 10  1  0
  9  8  2  0
 11 10  1  0
 11 12  1  6
 13 12  1  0
 13 14  1  0
 14 15  1  0
 15 16  1  0
 17 11  1  0
 18 17  2  0
 19 20  1  0
 20 21  2  0
 22 23  1  0
 22 20  1  0
 23 24  1  0
 25 24  1  0
 26 25  1  1
 26 27  1  0
 27 17  1  0
 28 26  1  0
 29 28  2  0
 30 28  1  0
M  END
$$$$
