QKR.pdb
     RDKit          3D

 30 29  0  0  1  0  0  0  0  0999 V2000
   24.6854  -12.6354  -16.9723 N   0  0  0  0  0  0  0  0  0  0  0  0
   23.4652  -13.3641  -16.7109 C   0  0  0  0  0  0  0  0  0  0  0  0
   22.5535  -12.7238  -16.1517 O   0  0  0  0  0  0  0  0  0  0  0  0
   23.3232  -14.7717  -17.0881 C   0  0  0  0  0  0  0  0  0  0  0  0
   24.5376  -15.3731  -17.6805 C   0  0  0  0  0  0  0  0  0  0  0  0
   24.4471  -16.8358  -17.9883 C   0  0  2  0  0  0  0  0  0  0  0  0
   23.5202  -17.0056  -19.0903 N   0  0  0  0  0  0  0  0  0  0  0  0
   24.0068  -17.5811  -16.7805 C   0  0  0  0  0  0  0  0  0  0  0  0
   23.8240  -16.8934  -15.7348 O   0  0  0  0  0  0  0  0  0  0  0  0
   23.7829  -18.9587  -16.7117 N   0  0  0  0  0  0  0  0  0  0  0  0
   23.4224  -19.6529  -15.4883 C   0  0  1  0  0  0  0  0  0  0  0  0
   22.4835  -20.7994  -15.7681 C   0  0  0  0  0  0  0  0  0  0  0  0
   21.0778  -20.5452  -15.3344 C   0  0  0  0  0  0  0  0  0  0  0  0
   20.1642  -20.8914  -16.4917 C   0  0  0  0  0  0  0  0  0  0  0  0
   18.7291  -20.5607  -16.2008 C   0  0  0  0  0  0  0  0  0  0  0  0
   17.9003  -20.7326  -17.3716 N   0  0  0  0  0  0  0  0  0  0  0  0
   24.5929  -20.0559  -14.6998 C   0  0  0  0  0  0  0  0  0  0  0  0
   25.6685  -20.3752  -15.2622 O   0  0  0  0  0  0  0  0  0  0  0  0
   23.3010  -19.7061   -7.9855 N   0  0  0  0  0  0  0  0  0  0  0  0
   23.7563  -21.0377   -7.8658 C   0  0  0  0  0  0  0  0  0  0  0  0
   22.9933  -22.0051   -7.4204 N   0  0  0  0  0  0  0  0  0  0  0  0
   25.0805  -21.4094   -8.2233 N   0  0  0  0  0  0  0  0  0  0  0  0
   26.0864  -20.4702   -8.6221 C   0  0  0  0  0  0  0  0  0  0  0  0
   26.4088  -20.6967  -10.0981 C   0  0  0  0  0  0  0  0  0  0  0  0
   25.2844  -20.2736  -10.9912 C   0  0  0  0  0  0  0  0  0  0  0  0
   25.6532  -20.4154  -12.4267 C   0  0  2  0  0  0  0  0  0  0  0  0
   24.5023  -20.0833  -13.2850 N   0  0  0  0  0  0  0  0  0  0  0  0
   25.9816  -21.8126  -12.7398 C   0  0  0  0  0  0  0  0  0  0  0  0
   25.0902  -22.6575  -12.9237 O   0  0  0  0  0  0  0  0  0  0  0  0
   27.2899  -22.2364  -12.8409 O   0  0  0  0  0  0  0  0  0  0  0  0
  1  2  1  0
  2  3  2  0
  4  5  1  0
  4  2  1  0
  6  7  1  6
  6  5  1  0
  8  6  1  0
  8 10  1  0
  9  8  2  0
 11 10  1  0
 11 12  1  6
 13 12  1  0
 13 14  1  0
 14 15  1  0
 15 16  1  0
 17 11  1  0
 18 17  2  0
 19 20  1  0
 20 21  2  0
 22 23  1  0
 22 20  1  0
 23 24  1  0
 25 24  1  0
 26 25  1  1
 26 27  1  0
 27 17  1  0
 28 26  1  0
 29 28  2  0
 30 28  1  0
M  END
$$$$
