QKR.pdb
     RDKit          3D

 30 29  0  0  1  0  0  0  0  0999 V2000
   23.1408  -20.1901  -10.5386 N   0  0  0  0  0  0  0  0  0  0  0  0
   24.1400  -20.4642   -9.5312 C   0  0  0  0  0  0  0  0  0  0  0  0
   23.7117  -20.7037   -8.3854 O   0  0  0  0  0  0  0  0  0  0  0  0
   25.5682  -20.4585   -9.8539 C   0  0  0  0  0  0  0  0  0  0  0  0
   25.8800  -20.0778  -11.2486 C   0  0  0  0  0  0  0  0  0  0  0  0
   25.8614  -21.1987  -12.2414 C   0  0  2  0  0  0  0  0  0  0  0  0
   26.9146  -22.1298  -11.8860 N   0  0  0  0  0  0  0  0  0  0  0  0
   26.0435  -20.6617  -13.6149 C   0  0  0  0  0  0  0  0  0  0  0  0
   25.2823  -19.7081  -13.9480 O   0  0  0  0  0  0  0  0  0  0  0  0
   26.9743  -21.1206  -14.5507 N   0  0  0  0  0  0  0  0  0  0  0  0
   27.1052  -20.5707  -15.8883 C   0  0  1  0  0  0  0  0  0  0  0  0
   28.4115  -20.9802  -16.5209 C   0  0  0  0  0  0  0  0  0  0  0  0
   28.6585  -20.3511  -17.8520 C   0  0  0  0  0  0  0  0  0  0  0  0
   29.9724  -20.8860  -18.3826 C   0  0  0  0  0  0  0  0  0  0  0  0
   30.4033  -20.1880  -19.6397 C   0  0  0  0  0  0  0  0  0  0  0  0
   31.7382  -20.5798  -20.0296 N   0  0  0  0  0  0  0  0  0  0  0  0
   25.9451  -20.8651  -16.7377 C   0  0  0  0  0  0  0  0  0  0  0  0
   25.5235  -22.0402  -16.8664 O   0  0  0  0  0  0  0  0  0  0  0  0
   18.4024  -17.1050  -15.9159 N   0  0  0  0  0  0  0  0  0  0  0  0
   18.4190  -18.5066  -16.0890 C   0  0  0  0  0  0  0  0  0  0  0  0
   17.4026  -19.2677  -15.7660 N   0  0  0  0  0  0  0  0  0  0  0  0
   19.5489  -19.1796  -16.6271 N   0  0  0  0  0  0  0  0  0  0  0  0
   20.7821  -18.5246  -16.9481 C   0  0  0  0  0  0  0  0  0  0  0  0
   21.7359  -19.5504  -17.5581 C   0  0  0  0  0  0  0  0  0  0  0  0
   23.0679  -18.9530  -17.8895 C   0  0  0  0  0  0  0  0  0  0  0  0
   24.0681  -20.0088  -18.2088 C   0  0  2  0  0  0  0  0  0  0  0  0
   25.2957  -19.8048  -17.4196 N   0  0  0  0  0  0  0  0  0  0  0  0
   24.4883  -19.9141  -19.6132 C   0  0  0  0  0  0  0  0  0  0  0  0
   25.5827  -19.4171  -19.9254 O   0  0  0  0  0  0  0  0  0  0  0  0
   23.6839  -20.3732  -20.6349 O   0  0  0  0  0  0  0  0  0  0  0  0
  1  2  1  0
  2  3  2  0
  4  5  1  0
  4  2  1  0
  6  7  1  1
  6  5  1  0
  8  6  1  0
  8 10  1  0
  9  8  2  0
 11 10  1  0
 11 12  1  6
 13 12  1  0
 13 14  1  0
 14 15  1  0
 15 16  1  0
 17 11  1  0
 18 17  2  0
 19 20  1  0
 20 21  2  0
 22 23  1  0
 22 20  1  0
 23 24  1  0
 25 24  1  0
 26 25  1  1
 26 27  1  0
 27 17  1  0
 28 26  1  0
 29 28  2  0
 30 28  1  0
M  END
$$$$
