QKR.pdb
     RDKit          3D

 30 29  0  0  1  0  0  0  0  0999 V2000
   21.0462  -25.1600  -14.1049 N   0  0  0  0  0  0  0  0  0  0  0  0
   19.8543  -24.4796  -14.5576 C   0  0  0  0  0  0  0  0  0  0  0  0
   19.3146  -24.9421  -15.5815 O   0  0  0  0  0  0  0  0  0  0  0  0
   19.3237  -23.3168  -13.8432 C   0  0  0  0  0  0  0  0  0  0  0  0
   20.1186  -22.9054  -12.6659 C   0  0  0  0  0  0  0  0  0  0  0  0
   20.3678  -21.4342  -12.5395 C   0  0  2  0  0  0  0  0  0  0  0  0
   19.2905  -20.7374  -13.2152 N   0  0  0  0  0  0  0  0  0  0  0  0
   21.6921  -21.0931  -13.1206 C   0  0  0  0  0  0  0  0  0  0  0  0
   21.6894  -20.2452  -14.0593 O   0  0  0  0  0  0  0  0  0  0  0  0
   22.9190  -21.6271  -12.7177 N   0  0  0  0  0  0  0  0  0  0  0  0
   24.1792  -21.3263  -13.3733 C   0  0  1  0  0  0  0  0  0  0  0  0
   25.3485  -21.8291  -12.5645 C   0  0  0  0  0  0  0  0  0  0  0  0
   26.6674  -21.6558  -13.2419 C   0  0  0  0  0  0  0  0  0  0  0  0
   26.8501  -20.1808  -13.5337 C   0  0  0  0  0  0  0  0  0  0  0  0
   28.0847  -19.9110  -14.3438 C   0  0  0  0  0  0  0  0  0  0  0  0
   28.2833  -18.4945  -14.5470 N   0  0  0  0  0  0  0  0  0  0  0  0
   24.2148  -21.7818  -14.7681 C   0  0  0  0  0  0  0  0  0  0  0  0
   23.7949  -22.9216  -15.0837 O   0  0  0  0  0  0  0  0  0  0  0  0
   18.4621  -21.3067  -20.2893 N   0  0  0  0  0  0  0  0  0  0  0  0
   19.0243  -22.0735  -19.2449 C   0  0  0  0  0  0  0  0  0  0  0  0
   18.4756  -23.1813  -18.8112 N   0  0  0  0  0  0  0  0  0  0  0  0
   20.2276  -21.6845  -18.5969 N   0  0  0  0  0  0  0  0  0  0  0  0
   20.9725  -20.5118  -18.9472 C   0  0  0  0  0  0  0  0  0  0  0  0
   22.4608  -20.8070  -18.7696 C   0  0  0  0  0  0  0  0  0  0  0  0
   22.8800  -20.7424  -17.3339 C   0  0  0  0  0  0  0  0  0  0  0  0
   24.3341  -21.0249  -17.1834 C   0  0  2  0  0  0  0  0  0  0  0  0
   24.7312  -20.9192  -15.7682 N   0  0  0  0  0  0  0  0  0  0  0  0
   25.1323  -20.0128  -17.8880 C   0  0  0  0  0  0  0  0  0  0  0  0
   25.3225  -18.8876  -17.3979 O   0  0  0  0  0  0  0  0  0  0  0  0
   25.6989  -20.2748  -19.1176 O   0  0  0  0  0  0  0  0  0  0  0  0
  1  2  1  0
  2  3  2  0
  4  5  1  0
  4  2  1  0
  6  7  1  6
  6  5  1  0
  8  6  1  0
  8 10  1  0
  9  8  2  0
 11 10  1  0
 11 12  1  1
 13 12  1  0
 13 14  1  0
 14 15  1  0
 15 16  1  0
 17 11  1  0
 18 17  2  0
 19 20  1  0
 20 21  2  0
 22 23  1  0
 22 20  1  0
 23 24  1  0
 25 24  1  0
 26 25  1  1
 26 27  1  0
 27 17  1  0
 28 26  1  0
 29 28  2  0
 30 28  1  0
M  END
$$$$
