QKR.pdb
     RDKit          3D

 30 29  0  0  1  0  0  0  0  0999 V2000
   22.0991  -21.6826  -11.8498 N   0  0  0  0  0  0  0  0  0  0  0  0
   21.9002  -21.6929  -10.4185 C   0  0  0  0  0  0  0  0  0  0  0  0
   20.9347  -22.3636  -10.0041 O   0  0  0  0  0  0  0  0  0  0  0  0
   22.7906  -20.9546   -9.5206 C   0  0  0  0  0  0  0  0  0  0  0  0
   23.8990  -20.2494  -10.2000 C   0  0  0  0  0  0  0  0  0  0  0  0
   25.1087  -21.0822  -10.4923 C   0  0  2  0  0  0  0  0  0  0  0  0
   25.9789  -21.0310   -9.3335 N   0  0  0  0  0  0  0  0  0  0  0  0
   25.7889  -20.5764  -11.7127 C   0  0  0  0  0  0  0  0  0  0  0  0
   26.3773  -19.4620  -11.6038 O   0  0  0  0  0  0  0  0  0  0  0  0
   25.8285  -21.2251  -12.9498 N   0  0  0  0  0  0  0  0  0  0  0  0
   26.1123  -20.5476  -14.2023 C   0  0  1  0  0  0  0  0  0  0  0  0
   26.8856  -21.4388  -15.1414 C   0  0  0  0  0  0  0  0  0  0  0  0
   27.1997  -20.8009  -16.4540 C   0  0  0  0  0  0  0  0  0  0  0  0
   28.0107  -21.7874  -17.2683 C   0  0  0  0  0  0  0  0  0  0  0  0
   28.3810  -21.2416  -18.6168 C   0  0  0  0  0  0  0  0  0  0  0  0
   29.1015  -22.2177  -19.4014 N   0  0  0  0  0  0  0  0  0  0  0  0
   24.9110  -19.9753  -14.8216 C   0  0  0  0  0  0  0  0  0  0  0  0
   23.8685  -20.6607  -14.9576 O   0  0  0  0  0  0  0  0  0  0  0  0
   21.2552  -12.9419  -16.6347 N   0  0  0  0  0  0  0  0  0  0  0  0
   20.3589  -13.9322  -17.0940 C   0  0  0  0  0  0  0  0  0  0  0  0
   19.2353  -13.6379  -17.7001 N   0  0  0  0  0  0  0  0  0  0  0  0
   20.6249  -15.3176  -16.9233 N   0  0  0  0  0  0  0  0  0  0  0  0
   21.7000  -15.8249  -16.1234 C   0  0  0  0  0  0  0  0  0  0  0  0
   22.9478  -15.9387  -16.9975 C   0  0  0  0  0  0  0  0  0  0  0  0
   24.0871  -16.5829  -16.2707 C   0  0  0  0  0  0  0  0  0  0  0  0
   23.7732  -17.9954  -15.9197 C   0  0  2  0  0  0  0  0  0  0  0  0
   24.9336  -18.6303  -15.2702 N   0  0  0  0  0  0  0  0  0  0  0  0
   23.5255  -18.7861  -17.1327 C   0  0  0  0  0  0  0  0  0  0  0  0
   24.4524  -19.0973  -17.8984 O   0  0  0  0  0  0  0  0  0  0  0  0
   22.2564  -19.2110  -17.4650 O   0  0  0  0  0  0  0  0  0  0  0  0
  1  2  1  0
  2  3  2  0
  4  5  1  0
  4  2  1  0
  6  7  1  1
  6  5  1  0
  8  6  1  0
  8 10  1  0
  9  8  2  0
 11 10  1  0
 11 12  1  6
 13 12  1  0
 13 14  1  0
 14 15  1  0
 15 16  1  0
 17 11  1  0
 18 17  2  0
 19 20  1  0
 20 21  2  0
 22 23  1  0
 22 20  1  0
 23 24  1  0
 25 24  1  0
 26 25  1  6
 26 27  1  0
 27 17  1  0
 28 26  1  0
 29 28  2  0
 30 28  1  0
M  END
$$$$
