KKK.pdb
     RDKit          3D

 28 27  0  0  1  0  0  0  0  0999 V2000
    8.5603  -18.9062   19.3480 N   0  0  0  0  0  0  0  0  0  0  0  0
    9.9026  -18.3554   19.1570 C   0  0  1  0  0  0  0  0  0  0  0  0
    9.9777  -17.9613   17.7000 C   0  0  0  0  0  0  0  0  0  0  0  0
    9.0447  -18.7994   16.8979 C   0  0  0  0  0  0  0  0  0  0  0  0
    8.9553  -18.5087   15.4497 C   0  0  0  0  0  0  0  0  0  0  0  0
    8.1018  -19.4123   14.6340 C   0  0  0  0  0  0  0  0  0  0  0  0
    7.9732  -19.0093   13.2532 N   0  0  0  0  0  0  0  0  0  0  0  0
   10.0857  -17.2286   20.0701 C   0  0  0  0  0  0  0  0  0  0  0  0
   11.2439  -16.7900   20.2785 O   0  0  0  0  0  0  0  0  0  0  0  0
    9.0351  -16.5721   20.7586 N   0  0  0  0  0  0  0  0  0  0  0  0
    9.3415  -15.5475   21.7850 C   0  0  1  0  0  0  0  0  0  0  0  0
    8.0886  -14.7225   22.0084 C   0  0  0  0  0  0  0  0  0  0  0  0
    8.0032  -13.5053   21.1467 C   0  0  0  0  0  0  0  0  0  0  0  0
    7.7461  -13.8419   19.6899 C   0  0  0  0  0  0  0  0  0  0  0  0
    7.6739  -12.5836   18.8980 C   0  0  0  0  0  0  0  0  0  0  0  0
    7.5102  -12.9140   17.4912 N   0  0  0  0  0  0  0  0  0  0  0  0
    9.8626  -16.1996   23.0007 C   0  0  0  0  0  0  0  0  0  0  0  0
    9.1163  -16.9901   23.6902 O   0  0  0  0  0  0  0  0  0  0  0  0
   11.1716  -16.0480   23.5221 N   0  0  0  0  0  0  0  0  0  0  0  0
   11.7419  -16.9242   24.5275 C   0  0  1  0  0  0  0  0  0  0  0  0
   11.9044  -18.2972   23.8865 C   0  0  0  0  0  0  0  0  0  0  0  0
   12.5877  -19.2558   24.8102 C   0  0  0  0  0  0  0  0  0  0  0  0
   12.8082  -20.5581   24.0935 C   0  0  0  0  0  0  0  0  0  0  0  0
   13.5360  -21.5673   24.9289 C   0  0  0  0  0  0  0  0  0  0  0  0
   13.8186  -22.7463   24.1144 N   0  0  0  0  0  0  0  0  0  0  0  0
   13.0689  -16.4989   24.9840 C   0  0  0  0  0  0  0  0  0  0  0  0
   13.6734  -15.3983   24.4098 O   0  0  0  0  0  0  0  0  0  0  0  0
   13.6543  -17.1242   25.8863 O   0  0  0  0  0  0  0  0  0  0  0  0
  2  3  1  0
  2  1  1  6
  4  3  1  0
  4  5  1  0
  6  5  1  0
  6  7  1  0
  8 10  1  0
  8  2  1  0
  9  8  2  0
 11 10  1  0
 11 12  1  1
 13 12  1  0
 14 13  1  0
 15 14  1  0
 16 15  1  0
 17 18  2  0
 17 11  1  0
 19 17  1  0
 20 21  1  6
 20 19  1  0
 22 21  1  0
 22 23  1  0
 23 24  1  0
 24 25  1  0
 26 20  1  0
 27 26  1  0
 28 26  2  0
M  END
$$$$
