KKK.pdb
     RDKit          3D

 28 27  0  0  1  0  0  0  0  0999 V2000
    5.5400  -14.1643   19.8822 N   0  0  0  0  0  0  0  0  0  0  0  0
    6.7559  -14.9193   20.1871 C   0  0  1  0  0  0  0  0  0  0  0  0
    7.8837  -13.9149   20.1322 C   0  0  0  0  0  0  0  0  0  0  0  0
    8.3686  -13.7712   18.7320 C   0  0  0  0  0  0  0  0  0  0  0  0
    9.8321  -13.8220   18.5184 C   0  0  0  0  0  0  0  0  0  0  0  0
   10.3278  -13.4488   17.1674 C   0  0  0  0  0  0  0  0  0  0  0  0
   11.7606  -13.2844   17.0931 N   0  0  0  0  0  0  0  0  0  0  0  0
    6.6059  -15.5478   21.4985 C   0  0  0  0  0  0  0  0  0  0  0  0
    6.1835  -14.8624   22.4623 O   0  0  0  0  0  0  0  0  0  0  0  0
    6.9061  -16.9041   21.7796 N   0  0  0  0  0  0  0  0  0  0  0  0
    6.8882  -17.3980   23.1770 C   0  0  1  0  0  0  0  0  0  0  0  0
    6.6513  -18.8956   23.1390 C   0  0  0  0  0  0  0  0  0  0  0  0
    6.7233  -19.5544   24.4778 C   0  0  0  0  0  0  0  0  0  0  0  0
    6.3933  -21.0339   24.4155 C   0  0  0  0  0  0  0  0  0  0  0  0
    6.5137  -21.6241   25.7766 C   0  0  0  0  0  0  0  0  0  0  0  0
    6.0524  -23.0028   25.7414 N   0  0  0  0  0  0  0  0  0  0  0  0
    8.1307  -16.9982   23.8633 C   0  0  0  0  0  0  0  0  0  0  0  0
    9.2720  -17.1384   23.2845 O   0  0  0  0  0  0  0  0  0  0  0  0
    8.2126  -16.4395   25.1631 N   0  0  0  0  0  0  0  0  0  0  0  0
    9.4648  -16.1359   25.8291 C   0  0  1  0  0  0  0  0  0  0  0  0
    9.1176  -15.5068   27.1730 C   0  0  0  0  0  0  0  0  0  0  0  0
   10.3422  -15.2683   27.9992 C   0  0  0  0  0  0  0  0  0  0  0  0
    9.9475  -14.5884   29.2799 C   0  0  0  0  0  0  0  0  0  0  0  0
   11.1183  -14.2932   30.1680 C   0  0  0  0  0  0  0  0  0  0  0  0
   10.6559  -13.5452   31.3342 N   0  0  0  0  0  0  0  0  0  0  0  0
   10.2799  -17.3235   26.1039 C   0  0  0  0  0  0  0  0  0  0  0  0
   11.6556  -17.2494   26.0123 O   0  0  0  0  0  0  0  0  0  0  0  0
    9.7392  -18.3987   26.4194 O   0  0  0  0  0  0  0  0  0  0  0  0
  2  3  1  0
  2  1  1  1
  4  3  1  0
  4  5  1  0
  6  5  1  0
  6  7  1  0
  8 10  1  0
  8  2  1  0
  9  8  2  0
 11 10  1  0
 11 12  1  6
 13 12  1  0
 14 13  1  0
 15 14  1  0
 16 15  1  0
 17 18  2  0
 17 11  1  0
 19 17  1  0
 20 21  1  1
 20 19  1  0
 22 21  1  0
 22 23  1  0
 23 24  1  0
 24 25  1  0
 26 20  1  0
 27 26  1  0
 28 26  2  0
M  END
$$$$
