KKK.pdb
     RDKit          3D

 28 27  0  0  1  0  0  0  0  0999 V2000
    7.9456  -12.6034   18.6603 N   0  0  0  0  0  0  0  0  0  0  0  0
    8.8214  -13.7258   18.9990 C   0  0  1  0  0  0  0  0  0  0  0  0
   10.1923  -13.1248   19.2065 C   0  0  0  0  0  0  0  0  0  0  0  0
   11.1982  -13.8594   18.3913 C   0  0  0  0  0  0  0  0  0  0  0  0
   12.4635  -14.2336   19.0613 C   0  0  0  0  0  0  0  0  0  0  0  0
   13.4938  -14.9050   18.2259 C   0  0  0  0  0  0  0  0  0  0  0  0
   14.6551  -15.3415   18.9650 N   0  0  0  0  0  0  0  0  0  0  0  0
    8.2969  -14.3923   20.1897 C   0  0  0  0  0  0  0  0  0  0  0  0
    7.9543  -13.6994   21.1795 O   0  0  0  0  0  0  0  0  0  0  0  0
    8.1387  -15.7944   20.3229 N   0  0  0  0  0  0  0  0  0  0  0  0
    7.6046  -16.3688   21.5806 C   0  0  1  0  0  0  0  0  0  0  0  0
    7.1133  -17.7719   21.2804 C   0  0  0  0  0  0  0  0  0  0  0  0
    6.7986  -18.5772   22.4987 C   0  0  0  0  0  0  0  0  0  0  0  0
    6.4708  -20.0218   22.1713 C   0  0  0  0  0  0  0  0  0  0  0  0
    6.2101  -20.7669   23.4332 C   0  0  0  0  0  0  0  0  0  0  0  0
    6.1029  -22.1864   23.1358 N   0  0  0  0  0  0  0  0  0  0  0  0
    8.6318  -16.2992   22.6364 C   0  0  0  0  0  0  0  0  0  0  0  0
    9.8741  -16.4837   22.3537 O   0  0  0  0  0  0  0  0  0  0  0  0
    8.3900  -16.0314   24.0068 N   0  0  0  0  0  0  0  0  0  0  0  0
    9.4389  -15.9416   25.0046 C   0  0  1  0  0  0  0  0  0  0  0  0
    8.8107  -15.3600   26.2653 C   0  0  0  0  0  0  0  0  0  0  0  0
    9.7734  -15.3674   27.4109 C   0  0  0  0  0  0  0  0  0  0  0  0
    9.0821  -14.8450   28.6387 C   0  0  0  0  0  0  0  0  0  0  0  0
    9.9479  -14.8952   29.8610 C   0  0  0  0  0  0  0  0  0  0  0  0
    9.1705  -14.4507   31.0149 N   0  0  0  0  0  0  0  0  0  0  0  0
   10.0107  -17.2428   25.3656 C   0  0  0  0  0  0  0  0  0  0  0  0
   11.3305  -17.3276   25.7620 O   0  0  0  0  0  0  0  0  0  0  0  0
    9.3133  -18.2720   25.3168 O   0  0  0  0  0  0  0  0  0  0  0  0
  2  3  1  0
  2  1  1  1
  4  3  1  0
  4  5  1  0
  6  5  1  0
  6  7  1  0
  8 10  1  0
  8  2  1  0
  9  8  2  0
 11 10  1  0
 11 12  1  6
 13 12  1  0
 14 13  1  0
 15 14  1  0
 16 15  1  0
 17 18  2  0
 17 11  1  0
 19 17  1  0
 20 21  1  1
 20 19  1  0
 22 21  1  0
 22 23  1  0
 23 24  1  0
 24 25  1  0
 26 20  1  0
 27 26  1  0
 28 26  2  0
M  END
$$$$
