KKK.pdb
     RDKit          3D

 28 27  0  0  1  0  0  0  0  0999 V2000
   12.4447  -17.3392   18.4263 N   0  0  0  0  0  0  0  0  0  0  0  0
   12.9302  -16.4237   19.4596 C   0  0  1  0  0  0  0  0  0  0  0  0
   13.3039  -15.1518   18.7341 C   0  0  0  0  0  0  0  0  0  0  0  0
   14.5492  -15.3632   17.9461 C   0  0  0  0  0  0  0  0  0  0  0  0
   15.3194  -14.1572   17.5690 C   0  0  0  0  0  0  0  0  0  0  0  0
   16.5213  -14.3655   16.7191 C   0  0  0  0  0  0  0  0  0  0  0  0
   17.1433  -13.1411   16.2725 N   0  0  0  0  0  0  0  0  0  0  0  0
   11.8767  -16.2324   20.4549 C   0  0  0  0  0  0  0  0  0  0  0  0
   12.0165  -15.3459   21.3334 O   0  0  0  0  0  0  0  0  0  0  0  0
   10.6774  -16.9856   20.5118 N   0  0  0  0  0  0  0  0  0  0  0  0
    9.6542  -16.6826   21.5404 C   0  0  1  0  0  0  0  0  0  0  0  0
    8.4414  -17.5493   21.2609 C   0  0  0  0  0  0  0  0  0  0  0  0
    7.7613  -17.2405   19.9673 C   0  0  0  0  0  0  0  0  0  0  0  0
    6.5711  -18.1444   19.7066 C   0  0  0  0  0  0  0  0  0  0  0  0
    5.8428  -17.6657   18.4999 C   0  0  0  0  0  0  0  0  0  0  0  0
    4.7418  -18.5725   18.2161 N   0  0  0  0  0  0  0  0  0  0  0  0
   10.2308  -16.8625   22.8857 C   0  0  0  0  0  0  0  0  0  0  0  0
   11.0905  -17.7941   23.1097 O   0  0  0  0  0  0  0  0  0  0  0  0
    9.9298  -16.0749   24.0248 N   0  0  0  0  0  0  0  0  0  0  0  0
   10.3993  -16.3845   25.3618 C   0  0  1  0  0  0  0  0  0  0  0  0
    9.8869  -15.2845   26.2836 C   0  0  0  0  0  0  0  0  0  0  0  0
   10.3713  -15.4752   27.6864 C   0  0  0  0  0  0  0  0  0  0  0  0
    9.8276  -14.3717   28.5496 C   0  0  0  0  0  0  0  0  0  0  0  0
   10.3408  -14.4256   29.9567 C   0  0  0  0  0  0  0  0  0  0  0  0
    9.8106  -13.2869   30.7019 N   0  0  0  0  0  0  0  0  0  0  0  0
    9.8854  -17.6572   25.8781 C   0  0  0  0  0  0  0  0  0  0  0  0
   10.6827  -18.4438   26.6856 O   0  0  0  0  0  0  0  0  0  0  0  0
    8.7343  -18.0333   25.5928 O   0  0  0  0  0  0  0  0  0  0  0  0
  2  3  1  0
  2  1  1  6
  4  3  1  0
  4  5  1  0
  6  5  1  0
  6  7  1  0
  8 10  1  0
  8  2  1  0
  9  8  2  0
 11 10  1  0
 11 12  1  6
 13 12  1  0
 14 13  1  0
 15 14  1  0
 16 15  1  0
 17 18  2  0
 17 11  1  0
 19 17  1  0
 20 21  1  1
 20 19  1  0
 22 21  1  0
 22 23  1  0
 23 24  1  0
 24 25  1  0
 26 20  1  0
 27 26  1  0
 28 26  2  0
M  END
$$$$
