KKK.pdb
     RDKit          3D

 28 27  0  0  1  0  0  0  0  0999 V2000
    7.3357  -18.8212   16.7712 N   0  0  0  0  0  0  0  0  0  0  0  0
    7.1510  -19.9781   17.6481 C   0  0  1  0  0  0  0  0  0  0  0  0
    6.0806  -20.8196   16.9924 C   0  0  0  0  0  0  0  0  0  0  0  0
    4.9922  -19.9451   16.4754 C   0  0  0  0  0  0  0  0  0  0  0  0
    3.8105  -20.6167   15.8901 C   0  0  0  0  0  0  0  0  0  0  0  0
    2.7044  -19.7419   15.4196 C   0  0  0  0  0  0  0  0  0  0  0  0
    1.5927  -20.4610   14.8429 N   0  0  0  0  0  0  0  0  0  0  0  0
    8.4286  -20.6748   17.7871 C   0  0  0  0  0  0  0  0  0  0  0  0
    8.4721  -21.7540   18.4280 O   0  0  0  0  0  0  0  0  0  0  0  0
    9.6560  -20.2204   17.2434 N   0  0  0  0  0  0  0  0  0  0  0  0
   10.8961  -21.0082   17.4398 C   0  0  1  0  0  0  0  0  0  0  0  0
   11.8026  -20.7547   16.2506 C   0  0  0  0  0  0  0  0  0  0  0  0
   11.3258  -21.3813   14.9811 C   0  0  0  0  0  0  0  0  0  0  0  0
   12.1678  -20.9813   13.7841 C   0  0  0  0  0  0  0  0  0  0  0  0
   11.5978  -21.5938   12.5530 C   0  0  0  0  0  0  0  0  0  0  0  0
   12.3703  -21.1570   11.4010 N   0  0  0  0  0  0  0  0  0  0  0  0
   11.4986  -20.6732   18.7434 C   0  0  0  0  0  0  0  0  0  0  0  0
   11.0122  -19.7240   19.4643 O   0  0  0  0  0  0  0  0  0  0  0  0
   12.6157  -21.3209   19.3273 N   0  0  0  0  0  0  0  0  0  0  0  0
   13.1588  -20.9704   20.6257 C   0  0  1  0  0  0  0  0  0  0  0  0
   12.1147  -21.3537   21.6675 C   0  0  0  0  0  0  0  0  0  0  0  0
   12.5640  -20.9986   23.0500 C   0  0  0  0  0  0  0  0  0  0  0  0
   11.5054  -21.4122   24.0333 C   0  0  0  0  0  0  0  0  0  0  0  0
   11.9143  -21.1896   25.4579 C   0  0  0  0  0  0  0  0  0  0  0  0
   10.8251  -21.6060   26.3374 N   0  0  0  0  0  0  0  0  0  0  0  0
   14.3888  -21.6970   20.9567 C   0  0  0  0  0  0  0  0  0  0  0  0
   15.4104  -21.0512   21.6243 O   0  0  0  0  0  0  0  0  0  0  0  0
   14.5178  -22.8931   20.6394 O   0  0  0  0  0  0  0  0  0  0  0  0
  2  3  1  0
  2  1  1  6
  4  3  1  0
  4  5  1  0
  6  5  1  0
  6  7  1  0
  8 10  1  0
  8  2  1  0
  9  8  2  0
 11 10  1  0
 11 12  1  6
 13 12  1  0
 14 13  1  0
 15 14  1  0
 16 15  1  0
 17 18  2  0
 17 11  1  0
 19 17  1  0
 20 21  1  1
 20 19  1  0
 22 21  1  0
 22 23  1  0
 23 24  1  0
 24 25  1  0
 26 20  1  0
 27 26  1  0
 28 26  2  0
M  END
$$$$
