KKK.pdb
     RDKit          3D

 28 27  0  0  1  0  0  0  0  0999 V2000
    7.9136  -17.7064   19.0197 N   0  0  0  0  0  0  0  0  0  0  0  0
    8.9188  -16.9203   19.7362 C   0  0  1  0  0  0  0  0  0  0  0  0
    8.5921  -15.4747   19.4406 C   0  0  0  0  0  0  0  0  0  0  0  0
    8.6438  -15.2319   17.9727 C   0  0  0  0  0  0  0  0  0  0  0  0
    8.3118  -13.8679   17.5045 C   0  0  0  0  0  0  0  0  0  0  0  0
    8.3020  -13.6454   16.0346 C   0  0  0  0  0  0  0  0  0  0  0  0
    7.9150  -12.3094   15.6462 N   0  0  0  0  0  0  0  0  0  0  0  0
    8.8496  -17.2485   21.1591 C   0  0  0  0  0  0  0  0  0  0  0  0
    7.7264  -17.4074   21.6979 O   0  0  0  0  0  0  0  0  0  0  0  0
    9.9765  -17.4064   22.0040 N   0  0  0  0  0  0  0  0  0  0  0  0
    9.7990  -17.8307   23.4131 C   0  0  1  0  0  0  0  0  0  0  0  0
   10.7503  -18.9821   23.6765 C   0  0  0  0  0  0  0  0  0  0  0  0
   10.6383  -19.5582   25.0503 C   0  0  0  0  0  0  0  0  0  0  0  0
   11.5117  -20.7843   25.2388 C   0  0  0  0  0  0  0  0  0  0  0  0
   11.2387  -21.3842   26.5734 C   0  0  0  0  0  0  0  0  0  0  0  0
   11.9689  -22.6362   26.6922 N   0  0  0  0  0  0  0  0  0  0  0  0
    9.9841  -16.6743   24.3092 C   0  0  0  0  0  0  0  0  0  0  0  0
   11.0523  -15.9590   24.2420 O   0  0  0  0  0  0  0  0  0  0  0  0
    9.0609  -16.2341   25.2902 N   0  0  0  0  0  0  0  0  0  0  0  0
    9.3576  -15.2041   26.2672 C   0  0  1  0  0  0  0  0  0  0  0  0
    8.0284  -14.5912   26.6914 C   0  0  0  0  0  0  0  0  0  0  0  0
    7.9280  -13.1576   26.2744 C   0  0  0  0  0  0  0  0  0  0  0  0
    6.5738  -12.6280   26.6537 C   0  0  0  0  0  0  0  0  0  0  0  0
    6.3757  -11.1964   26.2569 C   0  0  0  0  0  0  0  0  0  0  0  0
    4.9976  -10.8077   26.5451 N   0  0  0  0  0  0  0  0  0  0  0  0
   10.0032  -15.7204   27.4784 C   0  0  0  0  0  0  0  0  0  0  0  0
   10.2000  -17.0789   27.6268 O   0  0  0  0  0  0  0  0  0  0  0  0
   10.3752  -14.9412   28.3742 O   0  0  0  0  0  0  0  0  0  0  0  0
  2  3  1  0
  2  1  1  6
  4  3  1  0
  4  5  1  0
  6  5  1  0
  6  7  1  0
  8 10  1  0
  8  2  1  0
  9  8  2  0
 11 10  1  0
 11 12  1  1
 13 12  1  0
 14 13  1  0
 15 14  1  0
 16 15  1  0
 17 18  2  0
 17 11  1  0
 19 17  1  0
 20 21  1  1
 20 19  1  0
 22 21  1  0
 22 23  1  0
 23 24  1  0
 24 25  1  0
 26 20  1  0
 27 26  1  0
 28 26  2  0
M  END
$$$$
