KKK.pdb
     RDKit          3D

 28 27  0  0  1  0  0  0  0  0999 V2000
    9.8431  -18.1800   14.5791 N   0  0  0  0  0  0  0  0  0  0  0  0
   10.9178  -19.0173   15.1135 C   0  0  1  0  0  0  0  0  0  0  0  0
   12.0768  -18.0809   15.3656 C   0  0  0  0  0  0  0  0  0  0  0  0
   13.2705  -18.5314   14.5985 C   0  0  0  0  0  0  0  0  0  0  0  0
   14.5444  -17.8256   14.8610 C   0  0  0  0  0  0  0  0  0  0  0  0
   15.7169  -18.2268   14.0397 C   0  0  0  0  0  0  0  0  0  0  0  0
   16.9500  -17.5797   14.4223 N   0  0  0  0  0  0  0  0  0  0  0  0
   10.4404  -19.6841   16.3237 C   0  0  0  0  0  0  0  0  0  0  0  0
    9.7107  -19.0504   17.1257 O   0  0  0  0  0  0  0  0  0  0  0  0
   10.7415  -21.0233   16.6764 N   0  0  0  0  0  0  0  0  0  0  0  0
   10.2370  -21.5911   17.9493 C   0  0  1  0  0  0  0  0  0  0  0  0
    9.8647  -23.0397   17.6983 C   0  0  0  0  0  0  0  0  0  0  0  0
    9.3478  -23.7504   18.9063 C   0  0  0  0  0  0  0  0  0  0  0  0
    9.0443  -25.2118   18.6349 C   0  0  0  0  0  0  0  0  0  0  0  0
    8.5547  -25.8546   19.8850 C   0  0  0  0  0  0  0  0  0  0  0  0
    8.2032  -27.2375   19.6045 N   0  0  0  0  0  0  0  0  0  0  0  0
   11.2398  -21.3986   19.0133 C   0  0  0  0  0  0  0  0  0  0  0  0
   12.4953  -21.3652   18.7307 O   0  0  0  0  0  0  0  0  0  0  0  0
   10.9585  -21.2317   20.3922 N   0  0  0  0  0  0  0  0  0  0  0  0
   11.9781  -21.0003   21.3974 C   0  0  1  0  0  0  0  0  0  0  0  0
   11.2672  -20.8885   22.7407 C   0  0  0  0  0  0  0  0  0  0  0  0
   12.2343  -20.6284   23.8525 C   0  0  0  0  0  0  0  0  0  0  0  0
   11.4830  -20.5561   25.1520 C   0  0  0  0  0  0  0  0  0  0  0  0
   12.3586  -20.1902   26.3121 C   0  0  0  0  0  0  0  0  0  0  0  0
   11.5521  -20.1659   27.5295 N   0  0  0  0  0  0  0  0  0  0  0  0
   12.9447  -22.0975   21.5083 C   0  0  0  0  0  0  0  0  0  0  0  0
   12.4975  -23.3947   21.6620 O   0  0  0  0  0  0  0  0  0  0  0  0
   14.1665  -21.8667   21.4647 O   0  0  0  0  0  0  0  0  0  0  0  0
  2  3  1  0
  2  1  1  1
  4  3  1  0
  4  5  1  0
  6  5  1  0
  6  7  1  0
  8 10  1  0
  8  2  1  0
  9  8  2  0
 11 10  1  0
 11 12  1  6
 13 12  1  0
 14 13  1  0
 15 14  1  0
 16 15  1  0
 17 18  2  0
 17 11  1  0
 19 17  1  0
 20 21  1  1
 20 19  1  0
 22 21  1  0
 22 23  1  0
 23 24  1  0
 24 25  1  0
 26 20  1  0
 27 26  1  0
 28 26  2  0
M  END
$$$$
