KKK.pdb
     RDKit          3D

 28 27  0  0  1  0  0  0  0  0999 V2000
   10.7787  -19.1122   18.7878 N   0  0  0  0  0  0  0  0  0  0  0  0
   11.9419  -18.2714   19.0734 C   0  0  1  0  0  0  0  0  0  0  0  0
   12.2880  -17.5971   17.7659 C   0  0  0  0  0  0  0  0  0  0  0  0
   12.1437  -18.5629   16.6421 C   0  0  0  0  0  0  0  0  0  0  0  0
   13.1548  -18.4959   15.5636 C   0  0  0  0  0  0  0  0  0  0  0  0
   12.9728  -19.4196   14.4131 C   0  0  0  0  0  0  0  0  0  0  0  0
   14.0059  -19.3168   13.4092 N   0  0  0  0  0  0  0  0  0  0  0  0
   11.5945  -17.3283   20.1350 C   0  0  0  0  0  0  0  0  0  0  0  0
   12.5125  -16.7256   20.7444 O   0  0  0  0  0  0  0  0  0  0  0  0
   10.2710  -17.0299   20.5446 N   0  0  0  0  0  0  0  0  0  0  0  0
   10.0311  -16.1001   21.6738 C   0  0  1  0  0  0  0  0  0  0  0  0
    8.7031  -15.4081   21.4336 C   0  0  0  0  0  0  0  0  0  0  0  0
    8.7356  -14.4007   20.3310 C   0  0  0  0  0  0  0  0  0  0  0  0
    7.3773  -13.7751   20.0758 C   0  0  0  0  0  0  0  0  0  0  0  0
    7.4838  -12.8064   18.9506 C   0  0  0  0  0  0  0  0  0  0  0  0
    6.1934  -12.1673   18.7475 N   0  0  0  0  0  0  0  0  0  0  0  0
   10.1098  -16.8347   22.9500 C   0  0  0  0  0  0  0  0  0  0  0  0
    9.2997  -17.8041   23.1980 O   0  0  0  0  0  0  0  0  0  0  0  0
   11.0351  -16.5807   23.9929 N   0  0  0  0  0  0  0  0  0  0  0  0
   11.1922  -17.4368   25.1531 C   0  0  1  0  0  0  0  0  0  0  0  0
   12.3963  -18.3330   24.8901 C   0  0  0  0  0  0  0  0  0  0  0  0
   12.5739  -19.3455   25.9775 C   0  0  0  0  0  0  0  0  0  0  0  0
   13.7559  -20.2148   25.6529 C   0  0  0  0  0  0  0  0  0  0  0  0
   13.9811  -21.2951   26.6671 C   0  0  0  0  0  0  0  0  0  0  0  0
   15.0606  -22.1645   26.2065 N   0  0  0  0  0  0  0  0  0  0  0  0
   11.4644  -16.6965   26.3893 C   0  0  0  0  0  0  0  0  0  0  0  0
   11.5649  -15.3198   26.3582 O   0  0  0  0  0  0  0  0  0  0  0  0
   11.6057  -17.3016   27.4671 O   0  0  0  0  0  0  0  0  0  0  0  0
  2  3  1  0
  2  1  1  6
  4  3  1  0
  4  5  1  0
  6  5  1  0
  6  7  1  0
  8 10  1  0
  8  2  1  0
  9  8  2  0
 11 10  1  0
 11 12  1  6
 13 12  1  0
 14 13  1  0
 15 14  1  0
 16 15  1  0
 17 18  2  0
 17 11  1  0
 19 17  1  0
 20 21  1  6
 20 19  1  0
 22 21  1  0
 22 23  1  0
 23 24  1  0
 24 25  1  0
 26 20  1  0
 27 26  1  0
 28 26  2  0
M  END
$$$$
