KKK.pdb
     RDKit          3D

 28 27  0  0  1  0  0  0  0  0999 V2000
    7.8267  -12.6738   18.5702 N   0  0  0  0  0  0  0  0  0  0  0  0
    8.2676  -14.0653   18.6755 C   0  0  1  0  0  0  0  0  0  0  0  0
    9.7594  -14.0392   18.4355 C   0  0  0  0  0  0  0  0  0  0  0  0
   10.1108  -14.9592   17.3191 C   0  0  0  0  0  0  0  0  0  0  0  0
   11.5349  -15.0214   16.9217 C   0  0  0  0  0  0  0  0  0  0  0  0
   11.8950  -15.9995   15.8615 C   0  0  0  0  0  0  0  0  0  0  0  0
   13.3154  -16.1151   15.6281 N   0  0  0  0  0  0  0  0  0  0  0  0
    7.9040  -14.5779   19.9954 C   0  0  0  0  0  0  0  0  0  0  0  0
    7.6726  -13.7668   20.9259 O   0  0  0  0  0  0  0  0  0  0  0  0
    7.7880  -15.9525   20.3206 N   0  0  0  0  0  0  0  0  0  0  0  0
    7.3128  -16.3641   21.6629 C   0  0  1  0  0  0  0  0  0  0  0  0
    6.6791  -17.7358   21.5326 C   0  0  0  0  0  0  0  0  0  0  0  0
    6.2748  -18.3426   22.8364 C   0  0  0  0  0  0  0  0  0  0  0  0
    5.6594  -19.7194   22.6702 C   0  0  0  0  0  0  0  0  0  0  0  0
    5.1113  -20.1758   23.9767 C   0  0  0  0  0  0  0  0  0  0  0  0
    4.7010  -21.5663   23.8623 N   0  0  0  0  0  0  0  0  0  0  0  0
    8.4264  -16.3000   22.6275 C   0  0  0  0  0  0  0  0  0  0  0  0
    9.5870  -16.7633   22.3185 O   0  0  0  0  0  0  0  0  0  0  0  0
    8.3584  -15.7486   23.9312 N   0  0  0  0  0  0  0  0  0  0  0  0
    9.4761  -15.7327   24.8555 C   0  0  1  0  0  0  0  0  0  0  0  0
    8.9313  -15.3001   26.2114 C   0  0  0  0  0  0  0  0  0  0  0  0
    9.9946  -15.3292   27.2638 C   0  0  0  0  0  0  0  0  0  0  0  0
    9.4135  -14.8506   28.5644 C   0  0  0  0  0  0  0  0  0  0  0  0
   10.3942  -14.9061   29.6965 C   0  0  0  0  0  0  0  0  0  0  0  0
    9.7215  -14.5080   30.9304 N   0  0  0  0  0  0  0  0  0  0  0  0
   10.0985  -17.0479   25.0377 C   0  0  0  0  0  0  0  0  0  0  0  0
   11.4741  -17.1573   25.0820 O   0  0  0  0  0  0  0  0  0  0  0  0
    9.3940  -18.0669   25.1528 O   0  0  0  0  0  0  0  0  0  0  0  0
  2  3  1  0
  2  1  1  1
  4  3  1  0
  4  5  1  0
  6  5  1  0
  6  7  1  0
  8 10  1  0
  8  2  1  0
  9  8  2  0
 11 10  1  0
 11 12  1  6
 13 12  1  0
 14 13  1  0
 15 14  1  0
 16 15  1  0
 17 18  2  0
 17 11  1  0
 19 17  1  0
 20 21  1  1
 20 19  1  0
 22 21  1  0
 22 23  1  0
 23 24  1  0
 24 25  1  0
 26 20  1  0
 27 26  1  0
 28 26  2  0
M  END
$$$$
