KKK.pdb
     RDKit          3D

 28 27  0  0  1  0  0  0  0  0999 V2000
    6.5023  -20.0825   18.0473 N   0  0  0  0  0  0  0  0  0  0  0  0
    5.8807  -19.3172   19.1288 C   0  0  1  0  0  0  0  0  0  0  0  0
    5.6141  -20.3145   20.2325 C   0  0  0  0  0  0  0  0  0  0  0  0
    5.2352  -21.6303   19.6482 C   0  0  0  0  0  0  0  0  0  0  0  0
    4.9605  -22.7331   20.5959 C   0  0  0  0  0  0  0  0  0  0  0  0
    4.5789  -24.0446   20.0090 C   0  0  0  0  0  0  0  0  0  0  0  0
    4.4196  -25.0990   20.9829 N   0  0  0  0  0  0  0  0  0  0  0  0
    6.7868  -18.2420   19.5286 C   0  0  0  0  0  0  0  0  0  0  0  0
    8.0250  -18.4523   19.5304 O   0  0  0  0  0  0  0  0  0  0  0  0
    6.3720  -16.9461   19.9253 N   0  0  0  0  0  0  0  0  0  0  0  0
    7.3680  -15.9570   20.4013 C   0  0  1  0  0  0  0  0  0  0  0  0
    6.6929  -14.5995   20.4442 C   0  0  0  0  0  0  0  0  0  0  0  0
    7.6150  -13.4750   20.7859 C   0  0  0  0  0  0  0  0  0  0  0  0
    8.6583  -13.2325   19.7114 C   0  0  0  0  0  0  0  0  0  0  0  0
    9.4626  -12.0315   20.0666 C   0  0  0  0  0  0  0  0  0  0  0  0
   10.4839  -11.8241   19.0523 N   0  0  0  0  0  0  0  0  0  0  0  0
    7.9292  -16.3960   21.6924 C   0  0  0  0  0  0  0  0  0  0  0  0
    7.1533  -16.6939   22.6755 O   0  0  0  0  0  0  0  0  0  0  0  0
    9.3079  -16.5394   21.9871 N   0  0  0  0  0  0  0  0  0  0  0  0
    9.8125  -16.9758   23.2750 C   0  0  1  0  0  0  0  0  0  0  0  0
   10.9987  -17.8936   23.0049 C   0  0  0  0  0  0  0  0  0  0  0  0
   11.6436  -18.3445   24.2776 C   0  0  0  0  0  0  0  0  0  0  0  0
   12.8339  -19.2013   23.9500 C   0  0  0  0  0  0  0  0  0  0  0  0
   13.5548  -19.6889   25.1702 C   0  0  0  0  0  0  0  0  0  0  0  0
   14.7021  -20.4929   24.7572 N   0  0  0  0  0  0  0  0  0  0  0  0
   10.2983  -15.8744   24.1125 C   0  0  0  0  0  0  0  0  0  0  0  0
   10.2678  -15.9915   25.4879 O   0  0  0  0  0  0  0  0  0  0  0  0
   10.7381  -14.8340   23.5910 O   0  0  0  0  0  0  0  0  0  0  0  0
  2  3  1  0
  2  1  1  6
  4  3  1  0
  4  5  1  0
  6  5  1  0
  6  7  1  0
  8 10  1  0
  8  2  1  0
  9  8  2  0
 11 10  1  0
 11 12  1  1
 13 12  1  0
 14 13  1  0
 15 14  1  0
 16 15  1  0
 17 18  2  0
 17 11  1  0
 19 17  1  0
 20 21  1  6
 20 19  1  0
 22 21  1  0
 22 23  1  0
 23 24  1  0
 24 25  1  0
 26 20  1  0
 27 26  1  0
 28 26  2  0
M  END
$$$$
