KKK.pdb
     RDKit          3D

 28 27  0  0  1  0  0  0  0  0999 V2000
    5.2201  -21.1336   21.8123 N   0  0  0  0  0  0  0  0  0  0  0  0
    4.9960  -19.8841   22.5404 C   0  0  1  0  0  0  0  0  0  0  0  0
    4.8196  -20.2818   23.9876 C   0  0  0  0  0  0  0  0  0  0  0  0
    5.1928  -21.7113   24.1710 C   0  0  0  0  0  0  0  0  0  0  0  0
    5.0348  -22.2788   25.5286 C   0  0  0  0  0  0  0  0  0  0  0  0
    5.2675  -23.7396   25.6779 C   0  0  0  0  0  0  0  0  0  0  0  0
    5.2075  -24.2065   27.0432 N   0  0  0  0  0  0  0  0  0  0  0  0
    6.1372  -18.9974   22.3203 C   0  0  0  0  0  0  0  0  0  0  0  0
    7.2859  -19.4925   22.2086 O   0  0  0  0  0  0  0  0  0  0  0  0
    6.0519  -17.5862   22.2198 N   0  0  0  0  0  0  0  0  0  0  0  0
    7.2706  -16.7812   21.9674 C   0  0  1  0  0  0  0  0  0  0  0  0
    6.8341  -15.4271   21.4419 C   0  0  0  0  0  0  0  0  0  0  0  0
    7.9259  -14.6554   20.7756 C   0  0  0  0  0  0  0  0  0  0  0  0
    7.4165  -13.3998   20.0931 C   0  0  0  0  0  0  0  0  0  0  0  0
    8.5283  -12.7651   19.3338 C   0  0  0  0  0  0  0  0  0  0  0  0
    8.0121  -11.6217   18.5983 N   0  0  0  0  0  0  0  0  0  0  0  0
    8.0907  -16.7207   23.1915 C   0  0  0  0  0  0  0  0  0  0  0  0
    7.5655  -16.3729   24.3143 O   0  0  0  0  0  0  0  0  0  0  0  0
    9.4722  -17.0252   23.2754 N   0  0  0  0  0  0  0  0  0  0  0  0
   10.2586  -16.8612   24.4830 C   0  0  1  0  0  0  0  0  0  0  0  0
   10.6146  -18.2571   24.9800 C   0  0  0  0  0  0  0  0  0  0  0  0
   11.4478  -18.2008   26.2216 C   0  0  0  0  0  0  0  0  0  0  0  0
   11.6918  -19.5992   26.7149 C   0  0  0  0  0  0  0  0  0  0  0  0
   12.5242  -19.6410   27.9605 C   0  0  0  0  0  0  0  0  0  0  0  0
   12.7175  -21.0329   28.3587 N   0  0  0  0  0  0  0  0  0  0  0  0
   11.5190  -16.1446   24.2630 C   0  0  0  0  0  0  0  0  0  0  0  0
   12.2148  -15.6311   25.3393 O   0  0  0  0  0  0  0  0  0  0  0  0
   11.9659  -15.9963   23.1114 O   0  0  0  0  0  0  0  0  0  0  0  0
  2  3  1  0
  2  1  1  6
  4  3  1  0
  4  5  1  0
  6  5  1  0
  6  7  1  0
  8 10  1  0
  8  2  1  0
  9  8  2  0
 11 10  1  0
 11 12  1  1
 13 12  1  0
 14 13  1  0
 15 14  1  0
 16 15  1  0
 17 18  2  0
 17 11  1  0
 19 17  1  0
 20 21  1  6
 20 19  1  0
 22 21  1  0
 22 23  1  0
 23 24  1  0
 24 25  1  0
 26 20  1  0
 27 26  1  0
 28 26  2  0
M  END
$$$$
