KKK.pdb
     RDKit          3D

 28 27  0  0  1  0  0  0  0  0999 V2000
    3.1477  -18.5120   22.1596 N   0  0  0  0  0  0  0  0  0  0  0  0
    4.1740  -19.3596   22.7679 C   0  0  1  0  0  0  0  0  0  0  0  0
    4.2169  -20.6145   21.9270 C   0  0  0  0  0  0  0  0  0  0  0  0
    2.8460  -20.9622   21.4623 C   0  0  0  0  0  0  0  0  0  0  0  0
    2.4951  -20.5992   20.0712 C   0  0  0  0  0  0  0  0  0  0  0  0
    1.2232  -21.1497   19.5331 C   0  0  0  0  0  0  0  0  0  0  0  0
    1.0289  -20.9064   18.1230 N   0  0  0  0  0  0  0  0  0  0  0  0
    5.4413  -18.6309   22.7826 C   0  0  0  0  0  0  0  0  0  0  0  0
    6.5146  -19.2698   22.9135 O   0  0  0  0  0  0  0  0  0  0  0  0
    5.5619  -17.2243   22.6580 N   0  0  0  0  0  0  0  0  0  0  0  0
    6.8984  -16.5842   22.6921 C   0  0  1  0  0  0  0  0  0  0  0  0
    6.7889  -15.2394   21.9994 C   0  0  0  0  0  0  0  0  0  0  0  0
    7.4776  -15.1824   20.6751 C   0  0  0  0  0  0  0  0  0  0  0  0
    7.3246  -13.8331   19.9986 C   0  0  0  0  0  0  0  0  0  0  0  0
    8.0249  -13.8572   18.6853 C   0  0  0  0  0  0  0  0  0  0  0  0
    7.7981  -12.5946   18.0003 N   0  0  0  0  0  0  0  0  0  0  0  0
    7.3813  -16.5117   24.0836 C   0  0  0  0  0  0  0  0  0  0  0  0
    6.6318  -16.0280   25.0118 O   0  0  0  0  0  0  0  0  0  0  0  0
    8.6509  -16.9450   24.5403 N   0  0  0  0  0  0  0  0  0  0  0  0
    9.1029  -16.8018   25.9111 C   0  0  1  0  0  0  0  0  0  0  0  0
    9.5131  -18.1872   26.3957 C   0  0  0  0  0  0  0  0  0  0  0  0
    9.8937  -18.1711   27.8427 C   0  0  0  0  0  0  0  0  0  0  0  0
   10.2210  -19.5706   28.2815 C   0  0  0  0  0  0  0  0  0  0  0  0
   10.5671  -19.6593   29.7371 C   0  0  0  0  0  0  0  0  0  0  0  0
   10.9087  -21.0415   30.0629 N   0  0  0  0  0  0  0  0  0  0  0  0
   10.2738  -15.9298   26.0490 C   0  0  0  0  0  0  0  0  0  0  0  0
   10.5929  -15.3971   27.2821 O   0  0  0  0  0  0  0  0  0  0  0  0
   10.9824  -15.6667   25.0607 O   0  0  0  0  0  0  0  0  0  0  0  0
  2  3  1  0
  2  1  1  6
  4  3  1  0
  4  5  1  0
  6  5  1  0
  6  7  1  0
  8 10  1  0
  8  2  1  0
  9  8  2  0
 11 10  1  0
 11 12  1  1
 13 12  1  0
 14 13  1  0
 15 14  1  0
 16 15  1  0
 17 18  2  0
 17 11  1  0
 19 17  1  0
 20 21  1  6
 20 19  1  0
 22 21  1  0
 22 23  1  0
 23 24  1  0
 24 25  1  0
 26 20  1  0
 27 26  1  0
 28 26  2  0
M  END
$$$$
