KKK.pdb
     RDKit          3D

 28 27  0  0  1  0  0  0  0  0999 V2000
    6.1651  -15.8214   20.5663 N   0  0  0  0  0  0  0  0  0  0  0  0
    7.5707  -15.5341   20.2773 C   0  0  1  0  0  0  0  0  0  0  0  0
    7.7100  -14.0331   20.3841 C   0  0  0  0  0  0  0  0  0  0  0  0
    7.1930  -13.3854   19.1474 C   0  0  0  0  0  0  0  0  0  0  0  0
    7.9458  -13.6267   17.8964 C   0  0  0  0  0  0  0  0  0  0  0  0
    7.4333  -12.9689   16.6657 C   0  0  0  0  0  0  0  0  0  0  0  0
    8.2161  -13.2445   15.4839 N   0  0  0  0  0  0  0  0  0  0  0  0
    8.4076  -16.2609   21.2305 C   0  0  0  0  0  0  0  0  0  0  0  0
    8.0164  -16.3887   22.4170 O   0  0  0  0  0  0  0  0  0  0  0  0
    9.6583  -16.8494   20.9174 N   0  0  0  0  0  0  0  0  0  0  0  0
   10.3882  -17.6380   21.9384 C   0  0  1  0  0  0  0  0  0  0  0  0
   11.3666  -18.5440   21.2158 C   0  0  0  0  0  0  0  0  0  0  0  0
   12.1797  -19.4057   22.1257 C   0  0  0  0  0  0  0  0  0  0  0  0
   13.1759  -20.2674   21.3729 C   0  0  0  0  0  0  0  0  0  0  0  0
   13.9278  -21.1122   22.3405 C   0  0  0  0  0  0  0  0  0  0  0  0
   14.9243  -21.8898   21.6213 N   0  0  0  0  0  0  0  0  0  0  0  0
   11.0132  -16.7294   22.9175 C   0  0  0  0  0  0  0  0  0  0  0  0
   11.6287  -15.6688   22.5257 O   0  0  0  0  0  0  0  0  0  0  0  0
   11.0070  -16.9014   24.3242 N   0  0  0  0  0  0  0  0  0  0  0  0
   11.6547  -15.9893   25.2474 C   0  0  1  0  0  0  0  0  0  0  0  0
   10.9011  -16.0779   26.5690 C   0  0  0  0  0  0  0  0  0  0  0  0
   11.5823  -15.2885   27.6422 C   0  0  0  0  0  0  0  0  0  0  0  0
   10.7711  -15.3709   28.9045 C   0  0  0  0  0  0  0  0  0  0  0  0
   11.4172  -14.6676   30.0597 C   0  0  0  0  0  0  0  0  0  0  0  0
   10.5428  -14.7628   31.2257 N   0  0  0  0  0  0  0  0  0  0  0  0
   13.0530  -16.3354   25.5215 C   0  0  0  0  0  0  0  0  0  0  0  0
   13.4208  -17.6599   25.6512 O   0  0  0  0  0  0  0  0  0  0  0  0
   13.9112  -15.4421   25.6381 O   0  0  0  0  0  0  0  0  0  0  0  0
  2  3  1  0
  2  1  1  1
  4  3  1  0
  4  5  1  0
  6  5  1  0
  6  7  1  0
  8 10  1  0
  8  2  1  0
  9  8  2  0
 11 10  1  0
 11 12  1  6
 13 12  1  0
 14 13  1  0
 15 14  1  0
 16 15  1  0
 17 18  2  0
 17 11  1  0
 19 17  1  0
 20 21  1  1
 20 19  1  0
 22 21  1  0
 22 23  1  0
 23 24  1  0
 24 25  1  0
 26 20  1  0
 27 26  1  0
 28 26  2  0
M  END
$$$$
