KKK.pdb
     RDKit          3D

 28 27  0  0  1  0  0  0  0  0999 V2000
    8.3856  -17.8380   18.9723 N   0  0  0  0  0  0  0  0  0  0  0  0
    9.5656  -16.9727   18.9532 C   0  0  1  0  0  0  0  0  0  0  0  0
    9.0717  -15.6014   19.3524 C   0  0  0  0  0  0  0  0  0  0  0  0
    8.1919  -15.0478   18.2866 C   0  0  0  0  0  0  0  0  0  0  0  0
    7.5534  -13.7398   18.5536 C   0  0  0  0  0  0  0  0  0  0  0  0
    6.7526  -13.1451   17.4512 C   0  0  0  0  0  0  0  0  0  0  0  0
    6.1304  -11.8869   17.7909 N   0  0  0  0  0  0  0  0  0  0  0  0
   10.5653  -17.5161   19.8711 C   0  0  0  0  0  0  0  0  0  0  0  0
   10.1858  -18.1665   20.8762 O   0  0  0  0  0  0  0  0  0  0  0  0
   11.9660  -17.3653   19.7160 N   0  0  0  0  0  0  0  0  0  0  0  0
   12.8962  -18.0066   20.6755 C   0  0  1  0  0  0  0  0  0  0  0  0
   14.1819  -18.3245   19.9366 C   0  0  0  0  0  0  0  0  0  0  0  0
   15.2304  -18.9592   20.7907 C   0  0  0  0  0  0  0  0  0  0  0  0
   16.4991  -19.2691   20.0187 C   0  0  0  0  0  0  0  0  0  0  0  0
   17.4833  -19.9184   20.9272 C   0  0  0  0  0  0  0  0  0  0  0  0
   18.6778  -20.2596   20.1710 N   0  0  0  0  0  0  0  0  0  0  0  0
   13.0733  -17.1386   21.8544 C   0  0  0  0  0  0  0  0  0  0  0  0
   13.3312  -15.8855   21.7114 O   0  0  0  0  0  0  0  0  0  0  0  0
   12.9810  -17.5536   23.2063 N   0  0  0  0  0  0  0  0  0  0  0  0
   13.1715  -16.6623   24.3346 C   0  0  1  0  0  0  0  0  0  0  0  0
   12.6265  -17.3747   25.5666 C   0  0  0  0  0  0  0  0  0  0  0  0
   12.7949  -16.5437   26.7995 C   0  0  0  0  0  0  0  0  0  0  0  0
   12.1535  -17.2496   27.9608 C   0  0  0  0  0  0  0  0  0  0  0  0
   12.1723  -16.4366   29.2197 C   0  0  0  0  0  0  0  0  0  0  0  0
   11.5713  -17.2152   30.2995 N   0  0  0  0  0  0  0  0  0  0  0  0
   14.5802  -16.3534   24.6000 C   0  0  0  0  0  0  0  0  0  0  0  0
   14.9383  -15.0906   25.0281 O   0  0  0  0  0  0  0  0  0  0  0  0
   15.4558  -17.2231   24.4416 O   0  0  0  0  0  0  0  0  0  0  0  0
  2  3  1  0
  2  1  1  1
  4  3  1  0
  4  5  1  0
  6  5  1  0
  6  7  1  0
  8 10  1  0
  8  2  1  0
  9  8  2  0
 11 10  1  0
 11 12  1  6
 13 12  1  0
 14 13  1  0
 15 14  1  0
 16 15  1  0
 17 18  2  0
 17 11  1  0
 19 17  1  0
 20 21  1  1
 20 19  1  0
 22 21  1  0
 22 23  1  0
 23 24  1  0
 24 25  1  0
 26 20  1  0
 27 26  1  0
 28 26  2  0
M  END
$$$$
