KKK.pdb
     RDKit          3D

 28 27  0  0  1  0  0  0  0  0999 V2000
    9.6740  -15.5239   18.4671 N   0  0  0  0  0  0  0  0  0  0  0  0
    9.2486  -14.5046   19.4271 C   0  0  1  0  0  0  0  0  0  0  0  0
    8.1617  -13.7182   18.7316 C   0  0  0  0  0  0  0  0  0  0  0  0
    8.0778  -14.1225   17.3012 C   0  0  0  0  0  0  0  0  0  0  0  0
    7.1171  -13.3865   16.4495 C   0  0  0  0  0  0  0  0  0  0  0  0
    7.0142  -13.8129   15.0290 C   0  0  0  0  0  0  0  0  0  0  0  0
    5.9339  -13.1850   14.3049 N   0  0  0  0  0  0  0  0  0  0  0  0
    8.7914  -15.1663   20.6479 C   0  0  0  0  0  0  0  0  0  0  0  0
    8.4204  -14.4667   21.6226 O   0  0  0  0  0  0  0  0  0  0  0  0
    8.7306  -16.5709   20.8271 N   0  0  0  0  0  0  0  0  0  0  0  0
    8.2409  -17.1394   22.1054 C   0  0  1  0  0  0  0  0  0  0  0  0
    7.9174  -18.6025   21.8711 C   0  0  0  0  0  0  0  0  0  0  0  0
    7.5085  -19.3376   23.1056 C   0  0  0  0  0  0  0  0  0  0  0  0
    6.3418  -20.2765   22.8629 C   0  0  0  0  0  0  0  0  0  0  0  0
    6.0005  -20.9776   24.1308 C   0  0  0  0  0  0  0  0  0  0  0  0
    4.9025  -21.8992   23.8858 N   0  0  0  0  0  0  0  0  0  0  0  0
    9.2331  -16.9009   23.1699 C   0  0  0  0  0  0  0  0  0  0  0  0
   10.4921  -17.0205   22.9295 O   0  0  0  0  0  0  0  0  0  0  0  0
    8.9379  -16.5282   24.5049 N   0  0  0  0  0  0  0  0  0  0  0  0
    9.9496  -16.3253   25.5243 C   0  0  1  0  0  0  0  0  0  0  0  0
    9.3361  -15.4297   26.5938 C   0  0  0  0  0  0  0  0  0  0  0  0
   10.2664  -15.2413   27.7505 C   0  0  0  0  0  0  0  0  0  0  0  0
    9.6383  -14.3003   28.7397 C   0  0  0  0  0  0  0  0  0  0  0  0
   10.4779  -14.0960   29.9642 C   0  0  0  0  0  0  0  0  0  0  0  0
    9.7828  -13.1885   30.8734 N   0  0  0  0  0  0  0  0  0  0  0  0
   10.3662  -17.5665   26.1849 C   0  0  0  0  0  0  0  0  0  0  0  0
   11.6624  -17.7008   26.6412 O   0  0  0  0  0  0  0  0  0  0  0  0
    9.5583  -18.5004   26.3368 O   0  0  0  0  0  0  0  0  0  0  0  0
  2  3  1  0
  2  1  1  6
  4  3  1  0
  4  5  1  0
  6  5  1  0
  6  7  1  0
  8 10  1  0
  8  2  1  0
  9  8  2  0
 11 10  1  0
 11 12  1  6
 13 12  1  0
 14 13  1  0
 15 14  1  0
 16 15  1  0
 17 18  2  0
 17 11  1  0
 19 17  1  0
 20 21  1  1
 20 19  1  0
 22 21  1  0
 22 23  1  0
 23 24  1  0
 24 25  1  0
 26 20  1  0
 27 26  1  0
 28 26  2  0
M  END
$$$$
