KKK.pdb
     RDKit          3D

 28 27  0  0  1  0  0  0  0  0999 V2000
    8.0346  -15.9105   19.1211 N   0  0  0  0  0  0  0  0  0  0  0  0
    8.0491  -14.9809   20.2512 C   0  0  1  0  0  0  0  0  0  0  0  0
    6.9108  -14.0187   20.0018 C   0  0  0  0  0  0  0  0  0  0  0  0
    6.9077  -13.5937   18.5751 C   0  0  0  0  0  0  0  0  0  0  0  0
    8.2235  -13.4489   17.9135 C   0  0  0  0  0  0  0  0  0  0  0  0
    8.2216  -12.9381   16.5173 C   0  0  0  0  0  0  0  0  0  0  0  0
    9.5337  -12.8607   15.9193 N   0  0  0  0  0  0  0  0  0  0  0  0
    7.9012  -15.7412   21.4910 C   0  0  0  0  0  0  0  0  0  0  0  0
    7.5849  -15.1382   22.5462 O   0  0  0  0  0  0  0  0  0  0  0  0
    8.0906  -17.1413   21.6035 N   0  0  0  0  0  0  0  0  0  0  0  0
    7.9289  -17.8131   22.9148 C   0  0  1  0  0  0  0  0  0  0  0  0
    7.7500  -19.2973   22.6591 C   0  0  0  0  0  0  0  0  0  0  0  0
    7.6537  -20.1189   23.9030 C   0  0  0  0  0  0  0  0  0  0  0  0
    7.4973  -21.5993   23.6105 C   0  0  0  0  0  0  0  0  0  0  0  0
    7.4089  -22.3492   24.8933 C   0  0  0  0  0  0  0  0  0  0  0  0
    6.0887  -22.1531   25.4707 N   0  0  0  0  0  0  0  0  0  0  0  0
    9.0693  -17.4817   23.7889 C   0  0  0  0  0  0  0  0  0  0  0  0
   10.2780  -17.6142   23.3659 O   0  0  0  0  0  0  0  0  0  0  0  0
    8.9775  -17.0010   25.1189 N   0  0  0  0  0  0  0  0  0  0  0  0
   10.1301  -16.7440   25.9611 C   0  0  1  0  0  0  0  0  0  0  0  0
    9.6296  -15.9962   27.1910 C   0  0  0  0  0  0  0  0  0  0  0  0
   10.7268  -15.7806   28.1854 C   0  0  0  0  0  0  0  0  0  0  0  0
   10.1802  -15.0299   29.3669 C   0  0  0  0  0  0  0  0  0  0  0  0
   11.2136  -14.7692   30.4207 C   0  0  0  0  0  0  0  0  0  0  0  0
   10.6033  -14.0120   31.5104 N   0  0  0  0  0  0  0  0  0  0  0  0
   10.7881  -17.9660   26.4346 C   0  0  0  0  0  0  0  0  0  0  0  0
   10.0266  -19.0360   26.8608 O   0  0  0  0  0  0  0  0  0  0  0  0
   12.0296  -18.0449   26.4547 O   0  0  0  0  0  0  0  0  0  0  0  0
  2  3  1  0
  2  1  1  6
  4  3  1  0
  4  5  1  0
  6  5  1  0
  6  7  1  0
  8 10  1  0
  8  2  1  0
  9  8  2  0
 11 10  1  0
 11 12  1  6
 13 12  1  0
 14 13  1  0
 15 14  1  0
 16 15  1  0
 17 18  2  0
 17 11  1  0
 19 17  1  0
 20 21  1  1
 20 19  1  0
 22 21  1  0
 22 23  1  0
 23 24  1  0
 24 25  1  0
 26 20  1  0
 27 26  1  0
 28 26  2  0
M  END
$$$$
