PPV.pdb
     RDKit          3D

 22 23  0  0  1  0  0  0  0  0999 V2000
    8.7791  -14.8011   20.7983 N   0  0  0  0  0  0  0  0  0  0  0  0
    8.2269  -15.6003   19.7498 C   0  0  0  0  0  0  0  0  0  0  0  0
    6.9062  -16.1347   20.2310 C   0  0  0  0  0  0  0  0  0  0  0  0
    7.0508  -15.9725   21.7507 C   0  0  0  0  0  0  0  0  0  0  0  0
    7.7450  -14.6082   21.8050 C   0  0  1  0  0  0  0  0  0  0  0  0
    8.3433  -14.5068   23.1800 C   0  0  0  0  0  0  0  0  0  0  0  0
    9.4770  -15.0808   23.2884 O   0  0  0  0  0  0  0  0  0  0  0  0
    7.7060  -13.8460   24.2193 N   0  0  0  0  0  0  0  0  0  0  0  0
    6.6978  -12.7875   23.9892 C   0  0  0  0  0  0  0  0  0  0  0  0
    5.7227  -12.9301   25.1317 C   0  0  0  0  0  0  0  0  0  0  0  0
    6.2673  -14.0784   25.9415 C   0  0  0  0  0  0  0  0  0  0  0  0
    7.7785  -13.9324   25.6188 C   0  0  1  0  0  0  0  0  0  0  0  0
    8.5321  -14.9769   26.2741 C   0  0  0  0  0  0  0  0  0  0  0  0
    8.4806  -16.1571   25.9220 O   0  0  0  0  0  0  0  0  0  0  0  0
   10.2652  -15.1191   30.2513 C   0  0  0  0  0  0  0  0  0  0  0  0
   11.1347  -15.2855   29.0388 C   0  0  2  0  0  0  0  0  0  0  0  0
   11.8389  -13.9730   28.7101 C   0  0  0  0  0  0  0  0  0  0  0  0
   10.2928  -15.7517   27.8689 C   0  0  2  0  0  0  0  0  0  0  0  0
    9.4071  -14.7107   27.3975 N   0  0  0  0  0  0  0  0  0  0  0  0
    9.4881  -16.9062   28.3524 C   0  0  0  0  0  0  0  0  0  0  0  0
    8.2515  -16.7911   28.5436 O   0  0  0  0  0  0  0  0  0  0  0  0
   10.1385  -18.1010   28.5832 O   0  0  0  0  0  0  0  0  0  0  0  0
  1  5  1  0
  2  1  1  0
  3  2  1  0
  3  4  1  0
  4  5  1  0
  5  6  1  1
  6  7  2  0
  8  6  1  0
  9  8  1  0
 10 11  1  0
 10  9  1  0
 11 12  1  0
 12  8  1  0
 12 13  1  6
 13 19  1  0
 13 14  2  0
 16 15  1  1
 17 16  1  0
 18 16  1  0
 18 19  1  1
 20 22  1  0
 20 18  1  0
 21 20  2  0
M  END
$$$$
