PPV.pdb
     RDKit          3D

 22 23  0  0  1  0  0  0  0  0999 V2000
    8.5855  -14.5249   21.3920 N   0  0  0  0  0  0  0  0  0  0  0  0
    7.9219  -15.1076   20.2681 C   0  0  0  0  0  0  0  0  0  0  0  0
    6.5058  -15.4042   20.6782 C   0  0  0  0  0  0  0  0  0  0  0  0
    6.6279  -15.4007   22.2085 C   0  0  0  0  0  0  0  0  0  0  0  0
    7.5766  -14.2126   22.3942 C   0  0  1  0  0  0  0  0  0  0  0  0
    8.1360  -14.3474   23.7827 C   0  0  0  0  0  0  0  0  0  0  0  0
    8.9752  -15.2997   23.9060 O   0  0  0  0  0  0  0  0  0  0  0  0
    7.7616  -13.5044   24.8181 N   0  0  0  0  0  0  0  0  0  0  0  0
    7.1013  -12.2010   24.5834 C   0  0  0  0  0  0  0  0  0  0  0  0
    6.1720  -12.0234   25.7587 C   0  0  0  0  0  0  0  0  0  0  0  0
    6.3854  -13.2625   26.5894 C   0  0  0  0  0  0  0  0  0  0  0  0
    7.8592  -13.5764   26.2169 C   0  0  1  0  0  0  0  0  0  0  0  0
    8.2968  -14.7816   26.8835 C   0  0  0  0  0  0  0  0  0  0  0  0
    7.5671  -15.7641   27.0310 O   0  0  0  0  0  0  0  0  0  0  0  0
   12.4096  -15.7336   27.4140 C   0  0  0  0  0  0  0  0  0  0  0  0
   11.2891  -16.7197   27.2532 C   0  0  2  0  0  0  0  0  0  0  0  0
   11.0097  -16.9647   25.7738 C   0  0  0  0  0  0  0  0  0  0  0  0
   10.0508  -16.2020   27.9556 C   0  0  2  0  0  0  0  0  0  0  0  0
    9.6313  -14.9225   27.4290 N   0  0  0  0  0  0  0  0  0  0  0  0
   10.4033  -16.0549   29.3938 C   0  0  0  0  0  0  0  0  0  0  0  0
   10.7119  -17.0581   30.0847 O   0  0  0  0  0  0  0  0  0  0  0  0
   10.3807  -14.7891   29.9426 O   0  0  0  0  0  0  0  0  0  0  0  0
  1  5  1  0
  2  1  1  0
  3  2  1  0
  3  4  1  0
  4  5  1  0
  5  6  1  1
  6  7  2  0
  8  6  1  0
  9  8  1  0
 10 11  1  0
 10  9  1  0
 11 12  1  0
 12  8  1  0
 12 13  1  6
 13 19  1  0
 13 14  2  0
 16 15  1  6
 17 16  1  0
 18 16  1  0
 18 19  1  6
 20 22  1  0
 20 18  1  0
 21 20  2  0
M  END
$$$$
