PPV.pdb
     RDKit          3D

 22 23  0  0  1  0  0  0  0  0999 V2000
    8.6331  -14.4707   21.4505 N   0  0  0  0  0  0  0  0  0  0  0  0
    7.9728  -14.9776   20.2885 C   0  0  0  0  0  0  0  0  0  0  0  0
    6.5398  -15.2442   20.6582 C   0  0  0  0  0  0  0  0  0  0  0  0
    6.6314  -15.3157   22.1889 C   0  0  0  0  0  0  0  0  0  0  0  0
    7.6154  -14.1707   22.4475 C   0  0  1  0  0  0  0  0  0  0  0  0
    8.1422  -14.3887   23.8382 C   0  0  0  0  0  0  0  0  0  0  0  0
    8.9233  -15.3917   23.9380 O   0  0  0  0  0  0  0  0  0  0  0  0
    7.7989  -13.5643   24.8990 N   0  0  0  0  0  0  0  0  0  0  0  0
    7.2078  -12.2217   24.7041 C   0  0  0  0  0  0  0  0  0  0  0  0
    6.2752  -12.0381   25.8758 C   0  0  0  0  0  0  0  0  0  0  0  0
    6.4161  -13.3146   26.6642 C   0  0  0  0  0  0  0  0  0  0  0  0
    7.8764  -13.6898   26.2953 C   0  0  1  0  0  0  0  0  0  0  0  0
    8.2450  -14.9381   26.9232 C   0  0  0  0  0  0  0  0  0  0  0  0
    7.4431  -15.8575   27.0997 O   0  0  0  0  0  0  0  0  0  0  0  0
   12.2349  -16.3729   27.1687 C   0  0  0  0  0  0  0  0  0  0  0  0
   10.9848  -17.2043   27.1752 C   0  0  2  0  0  0  0  0  0  0  0  0
   10.5247  -17.4768   25.7467 C   0  0  0  0  0  0  0  0  0  0  0  0
    9.9038  -16.4917   27.9616 C   0  0  2  0  0  0  0  0  0  0  0  0
    9.5901  -15.2001   27.3926 N   0  0  0  0  0  0  0  0  0  0  0  0
   10.4264  -16.3112   29.3431 C   0  0  0  0  0  0  0  0  0  0  0  0
   10.7031  -15.1660   29.7799 O   0  0  0  0  0  0  0  0  0  0  0  0
   10.5969  -17.4348   30.1257 O   0  0  0  0  0  0  0  0  0  0  0  0
  1  5  1  0
  2  1  1  0
  3  2  1  0
  3  4  1  0
  4  5  1  0
  5  6  1  1
  6  7  2  0
  8  6  1  0
  9  8  1  0
 10 11  1  0
 10  9  1  0
 11 12  1  0
 12  8  1  0
 12 13  1  6
 13 19  1  0
 13 14  2  0
 16 15  1  6
 17 16  1  0
 18 16  1  0
 18 19  1  6
 20 22  1  0
 20 18  1  0
 21 20  2  0
M  END
$$$$
