PPV.pdb
     RDKit          3D

 22 23  0  0  1  0  0  0  0  0999 V2000
   11.2252  -16.6826   20.1574 N   0  0  0  0  0  0  0  0  0  0  0  0
   11.4279  -17.8740   19.3942 C   0  0  0  0  0  0  0  0  0  0  0  0
   10.4151  -18.8868   19.8521 C   0  0  0  0  0  0  0  0  0  0  0  0
   10.0183  -18.3186   21.2219 C   0  0  0  0  0  0  0  0  0  0  0  0
    9.9716  -16.8254   20.8840 C   0  0  1  0  0  0  0  0  0  0  0  0
   10.0269  -16.1046   22.2017 C   0  0  0  0  0  0  0  0  0  0  0  0
   11.1982  -16.0429   22.7023 O   0  0  0  0  0  0  0  0  0  0  0  0
    8.8984  -15.5643   22.7995 N   0  0  0  0  0  0  0  0  0  0  0  0
    7.7543  -15.0466   22.0166 C   0  0  0  0  0  0  0  0  0  0  0  0
    6.5422  -15.3433   22.8647 C   0  0  0  0  0  0  0  0  0  0  0  0
    7.1042  -16.0153   24.0908 C   0  0  0  0  0  0  0  0  0  0  0  0
    8.5077  -15.3535   24.1315 C   0  0  1  0  0  0  0  0  0  0  0  0
    9.2756  -15.8790   25.2372 C   0  0  0  0  0  0  0  0  0  0  0  0
    9.6802  -17.0427   25.2741 O   0  0  0  0  0  0  0  0  0  0  0  0
    9.4096  -14.5682   29.4046 C   0  0  0  0  0  0  0  0  0  0  0  0
   10.6570  -14.6724   28.5758 C   0  0  2  0  0  0  0  0  0  0  0  0
   11.0510  -13.2997   28.0400 C   0  0  0  0  0  0  0  0  0  0  0  0
   10.4332  -15.6491   27.4397 C   0  0  2  0  0  0  0  0  0  0  0  0
    9.6271  -15.0716   26.3875 N   0  0  0  0  0  0  0  0  0  0  0  0
    9.7267  -16.8245   28.0172 C   0  0  0  0  0  0  0  0  0  0  0  0
    8.5068  -17.0173   27.7856 O   0  0  0  0  0  0  0  0  0  0  0  0
   10.4490  -17.6918   28.8109 O   0  0  0  0  0  0  0  0  0  0  0  0
  1  5  1  0
  2  1  1  0
  3  2  1  0
  3  4  1  0
  4  5  1  0
  5  6  1  1
  6  7  2  0
  8  6  1  0
  9  8  1  0
 10 11  1  0
 10  9  1  0
 11 12  1  0
 12  8  1  0
 12 13  1  1
 13 19  1  0
 13 14  2  0
 16 15  1  6
 17 16  1  0
 18 16  1  0
 18 19  1  6
 20 22  1  0
 20 18  1  0
 21 20  2  0
M  END
$$$$
