PPV.pdb
     RDKit          3D

 22 23  0  0  1  0  0  0  0  0999 V2000
    8.5747  -18.4066   20.0860 N   0  0  0  0  0  0  0  0  0  0  0  0
    7.7243  -19.5387   19.8916 C   0  0  0  0  0  0  0  0  0  0  0  0
    6.3094  -19.0945   20.1408 C   0  0  0  0  0  0  0  0  0  0  0  0
    6.5348  -17.8107   20.9519 C   0  0  0  0  0  0  0  0  0  0  0  0
    7.7295  -17.2258   20.1925 C   0  0  1  0  0  0  0  0  0  0  0  0
    8.3408  -16.2062   21.1121 C   0  0  0  0  0  0  0  0  0  0  0  0
    8.9321  -16.7159   22.1204 O   0  0  0  0  0  0  0  0  0  0  0  0
    8.2585  -14.8436   20.8680 N   0  0  0  0  0  0  0  0  0  0  0  0
    7.9040  -14.2932   19.5410 C   0  0  0  0  0  0  0  0  0  0  0  0
    7.1400  -13.0273   19.8412 C   0  0  0  0  0  0  0  0  0  0  0  0
    7.1245  -12.9528   21.3462 C   0  0  0  0  0  0  0  0  0  0  0  0
    8.4492  -13.6990   21.6585 C   0  0  1  0  0  0  0  0  0  0  0  0
    8.6458  -13.7906   23.0872 C   0  0  0  0  0  0  0  0  0  0  0  0
    9.7467  -14.0117   23.5957 O   0  0  0  0  0  0  0  0  0  0  0  0
    7.4468  -12.3345   27.5556 C   0  0  0  0  0  0  0  0  0  0  0  0
    7.0298  -12.4593   26.1188 C   0  0  2  0  0  0  0  0  0  0  0  0
    5.5403  -12.7745   26.0269 C   0  0  0  0  0  0  0  0  0  0  0  0
    7.8504  -13.5384   25.4426 C   0  0  2  0  0  0  0  0  0  0  0  0
    7.5576  -13.6280   24.0296 N   0  0  0  0  0  0  0  0  0  0  0  0
    7.4980  -14.8236   26.1045 C   0  0  0  0  0  0  0  0  0  0  0  0
    6.6820  -15.6170   25.5719 O   0  0  0  0  0  0  0  0  0  0  0  0
    8.0920  -15.1158   27.3152 O   0  0  0  0  0  0  0  0  0  0  0  0
  1  5  1  0
  2  1  1  0
  3  2  1  0
  3  4  1  0
  4  5  1  0
  5  6  1  1
  6  7  2  0
  8  6  1  0
  9  8  1  0
 10 11  1  0
 10  9  1  0
 11 12  1  0
 12  8  1  0
 12 13  1  1
 13 19  1  0
 13 14  2  0
 16 15  1  1
 17 16  1  0
 18 16  1  0
 18 19  1  6
 20 22  1  0
 20 18  1  0
 21 20  2  0
M  END
$$$$
