PPV.pdb
     RDKit          3D

 22 23  0  0  1  0  0  0  0  0999 V2000
    9.8517  -16.7806   19.8995 N   0  0  0  0  0  0  0  0  0  0  0  0
   10.8390  -17.4233   19.0902 C   0  0  0  0  0  0  0  0  0  0  0  0
   11.3890  -18.5817   19.8758 C   0  0  0  0  0  0  0  0  0  0  0  0
   10.9877  -18.1940   21.3059 C   0  0  0  0  0  0  0  0  0  0  0  0
    9.5840  -17.6395   21.0443 C   0  0  1  0  0  0  0  0  0  0  0  0
    9.2314  -16.8261   22.2580 C   0  0  0  0  0  0  0  0  0  0  0  0
    9.9970  -15.8229   22.4416 O   0  0  0  0  0  0  0  0  0  0  0  0
    8.1688  -17.1529   23.0868 N   0  0  0  0  0  0  0  0  0  0  0  0
    6.9086  -17.7337   22.5726 C   0  0  0  0  0  0  0  0  0  0  0  0
    6.4338  -18.6546   23.6695 C   0  0  0  0  0  0  0  0  0  0  0  0
    7.4799  -18.5182   24.7455 C   0  0  0  0  0  0  0  0  0  0  0  0
    7.9496  -17.0645   24.4707 C   0  0  1  0  0  0  0  0  0  0  0  0
    9.0100  -16.7016   25.3829 C   0  0  0  0  0  0  0  0  0  0  0  0
   10.0867  -17.3003   25.4251 O   0  0  0  0  0  0  0  0  0  0  0  0
   10.9377  -13.6747   28.8037 C   0  0  0  0  0  0  0  0  0  0  0  0
    9.8216  -13.9154   27.8289 C   0  0  2  0  0  0  0  0  0  0  0  0
    8.4735  -13.8226   28.5366 C   0  0  0  0  0  0  0  0  0  0  0  0
    9.9961  -15.2733   27.1806 C   0  0  2  0  0  0  0  0  0  0  0  0
    8.8835  -15.6024   26.3179 N   0  0  0  0  0  0  0  0  0  0  0  0
   10.0791  -16.2682   28.2840 C   0  0  0  0  0  0  0  0  0  0  0  0
    9.1137  -17.0332   28.5321 O   0  0  0  0  0  0  0  0  0  0  0  0
   11.2433  -16.3243   29.0227 O   0  0  0  0  0  0  0  0  0  0  0  0
  1  5  1  0
  2  1  1  0
  3  2  1  0
  3  4  1  0
  4  5  1  0
  5  6  1  1
  6  7  2  0
  8  6  1  0
  9  8  1  0
 10 11  1  0
 10  9  1  0
 11 12  1  0
 12  8  1  0
 12 13  1  1
 13 19  1  0
 13 14  2  0
 16 15  1  1
 17 16  1  0
 18 16  1  0
 18 19  1  6
 20 22  1  0
 20 18  1  0
 21 20  2  0
M  END
$$$$
