PPV.pdb
     RDKit          3D

 22 23  0  0  1  0  0  0  0  0999 V2000
    9.1918  -13.8566   17.7384 N   0  0  0  0  0  0  0  0  0  0  0  0
    8.2910  -13.9060   16.6298 C   0  0  0  0  0  0  0  0  0  0  0  0
    6.9307  -14.2619   17.1631 C   0  0  0  0  0  0  0  0  0  0  0  0
    7.2910  -14.8742   18.5239 C   0  0  0  0  0  0  0  0  0  0  0  0
    8.4011  -13.9130   18.9596 C   0  0  1  0  0  0  0  0  0  0  0  0
    9.1496  -14.6200   20.0545 C   0  0  0  0  0  0  0  0  0  0  0  0
   10.0007  -15.4681   19.6273 O   0  0  0  0  0  0  0  0  0  0  0  0
    8.9212  -14.3591   21.3971 N   0  0  0  0  0  0  0  0  0  0  0  0
    8.3161  -13.0942   21.8699 C   0  0  0  0  0  0  0  0  0  0  0  0
    7.5117  -13.4833   23.0856 C   0  0  0  0  0  0  0  0  0  0  0  0
    7.7315  -14.9685   23.2146 C   0  0  0  0  0  0  0  0  0  0  0  0
    9.1443  -15.0797   22.5814 C   0  0  1  0  0  0  0  0  0  0  0  0
    9.5737  -16.4593   22.5579 C   0  0  0  0  0  0  0  0  0  0  0  0
    8.8402  -17.3794   22.1904 O   0  0  0  0  0  0  0  0  0  0  0  0
   13.1343  -17.6224   21.2790 C   0  0  0  0  0  0  0  0  0  0  0  0
   12.7899  -18.3677   22.5359 C   0  0  2  0  0  0  0  0  0  0  0  0
   13.1953  -19.8327   22.4087 C   0  0  0  0  0  0  0  0  0  0  0  0
   11.3056  -18.2425   22.8114 C   0  0  2  0  0  0  0  0  0  0  0  0
   10.9038  -16.8623   22.9663 N   0  0  0  0  0  0  0  0  0  0  0  0
   11.0400  -18.9811   24.0756 C   0  0  0  0  0  0  0  0  0  0  0  0
   10.8251  -18.3617   25.1475 O   0  0  0  0  0  0  0  0  0  0  0  0
   11.0371  -20.3603   24.0345 O   0  0  0  0  0  0  0  0  0  0  0  0
  1  5  1  0
  2  1  1  0
  3  2  1  0
  3  4  1  0
  4  5  1  0
  5  6  1  1
  6  7  2  0
  8  6  1  0
  9  8  1  0
 10 11  1  0
 10  9  1  0
 11 12  1  0
 12  8  1  0
 12 13  1  6
 13 19  1  0
 13 14  2  0
 16 15  1  6
 17 16  1  0
 18 16  1  0
 18 19  1  1
 20 22  1  0
 20 18  1  0
 21 20  2  0
M  END
$$$$
