PPV.pdb
     RDKit          3D

 22 23  0  0  1  0  0  0  0  0999 V2000
    8.9192  -14.8692   20.7359 N   0  0  0  0  0  0  0  0  0  0  0  0
    8.3701  -15.7032   19.7131 C   0  0  0  0  0  0  0  0  0  0  0  0
    7.0628  -16.2462   20.2205 C   0  0  0  0  0  0  0  0  0  0  0  0
    7.2191  -16.0436   21.7341 C   0  0  0  0  0  0  0  0  0  0  0  0
    7.8917  -14.6675   21.7475 C   0  0  1  0  0  0  0  0  0  0  0  0
    8.5011  -14.5220   23.1136 C   0  0  0  0  0  0  0  0  0  0  0  0
    9.6417  -15.0811   23.2272 O   0  0  0  0  0  0  0  0  0  0  0  0
    7.8663  -13.8392   24.1401 N   0  0  0  0  0  0  0  0  0  0  0  0
    6.8925  -12.7534   23.8900 C   0  0  0  0  0  0  0  0  0  0  0  0
    5.8955  -12.8637   25.0171 C   0  0  0  0  0  0  0  0  0  0  0  0
    6.3938  -14.0239   25.8394 C   0  0  0  0  0  0  0  0  0  0  0  0
    7.9137  -13.9223   25.5409 C   0  0  1  0  0  0  0  0  0  0  0  0
    8.6265  -14.9853   26.2119 C   0  0  0  0  0  0  0  0  0  0  0  0
    8.4884  -16.1730   25.9123 O   0  0  0  0  0  0  0  0  0  0  0  0
   10.5370  -14.8474   30.0690 C   0  0  0  0  0  0  0  0  0  0  0  0
   11.3143  -15.3484   28.8864 C   0  0  2  0  0  0  0  0  0  0  0  0
   12.2311  -14.2516   28.3543 C   0  0  0  0  0  0  0  0  0  0  0  0
   10.3572  -15.8182   27.8102 C   0  0  2  0  0  0  0  0  0  0  0  0
    9.5594  -14.7302   27.2903 N   0  0  0  0  0  0  0  0  0  0  0  0
    9.4660  -16.8296   28.4403 C   0  0  0  0  0  0  0  0  0  0  0  0
    8.2509  -16.5787   28.6395 O   0  0  0  0  0  0  0  0  0  0  0  0
   10.0124  -18.0452   28.7974 O   0  0  0  0  0  0  0  0  0  0  0  0
  1  5  1  0
  2  1  1  0
  3  2  1  0
  3  4  1  0
  4  5  1  0
  5  6  1  1
  6  7  2  0
  8  6  1  0
  9  8  1  0
 10 11  1  0
 10  9  1  0
 11 12  1  0
 12  8  1  0
 12 13  1  6
 13 19  1  0
 13 14  2  0
 16 15  1  1
 17 16  1  0
 18 16  1  0
 18 19  1  1
 20 22  1  0
 20 18  1  0
 21 20  2  0
M  END
$$$$
