PPV.pdb
     RDKit          3D

 22 23  0  0  1  0  0  0  0  0999 V2000
   11.0740  -16.8640   19.7861 N   0  0  0  0  0  0  0  0  0  0  0  0
   11.2361  -18.1139   19.1120 C   0  0  0  0  0  0  0  0  0  0  0  0
   10.2052  -19.0632   19.6573 C   0  0  0  0  0  0  0  0  0  0  0  0
    9.8424  -18.3841   20.9855 C   0  0  0  0  0  0  0  0  0  0  0  0
    9.8279  -16.9196   20.5370 C   0  0  1  0  0  0  0  0  0  0  0  0
    9.9201  -16.1041   21.7962 C   0  0  0  0  0  0  0  0  0  0  0  0
   11.0876  -16.0849   22.3089 O   0  0  0  0  0  0  0  0  0  0  0  0
    8.8263  -15.4420   22.3328 N   0  0  0  0  0  0  0  0  0  0  0  0
    7.7170  -14.9314   21.4969 C   0  0  0  0  0  0  0  0  0  0  0  0
    6.4880  -15.0724   22.3607 C   0  0  0  0  0  0  0  0  0  0  0  0
    7.0063  -15.6591   23.6483 C   0  0  0  0  0  0  0  0  0  0  0  0
    8.4477  -15.0834   23.6364 C   0  0  1  0  0  0  0  0  0  0  0  0
    9.1806  -15.5485   24.7918 C   0  0  0  0  0  0  0  0  0  0  0  0
    9.5486  -16.7178   24.9213 O   0  0  0  0  0  0  0  0  0  0  0  0
   11.1731  -14.7586   29.2638 C   0  0  0  0  0  0  0  0  0  0  0  0
   10.5912  -14.1272   28.0323 C   0  0  2  0  0  0  0  0  0  0  0  0
    9.3391  -13.3321   28.3881 C   0  0  0  0  0  0  0  0  0  0  0  0
   10.2746  -15.2004   27.0112 C   0  0  2  0  0  0  0  0  0  0  0  0
    9.5375  -14.6694   25.8865 N   0  0  0  0  0  0  0  0  0  0  0  0
    9.4483  -16.2241   27.7068 C   0  0  0  0  0  0  0  0  0  0  0  0
    8.2050  -16.2721   27.5317 O   0  0  0  0  0  0  0  0  0  0  0  0
   10.0866  -17.1144   28.5457 O   0  0  0  0  0  0  0  0  0  0  0  0
  1  5  1  0
  2  1  1  0
  3  2  1  0
  3  4  1  0
  4  5  1  0
  5  6  1  1
  6  7  2  0
  8  6  1  0
  9  8  1  0
 10 11  1  0
 10  9  1  0
 11 12  1  0
 12  8  1  0
 12 13  1  1
 13 19  1  0
 13 14  2  0
 16 15  1  1
 17 16  1  0
 18 16  1  0
 18 19  1  6
 20 22  1  0
 20 18  1  0
 21 20  2  0
M  END
$$$$
