PPV.pdb
     RDKit          3D

 22 23  0  0  1  0  0  0  0  0999 V2000
    8.9482  -14.9474   20.6344 N   0  0  0  0  0  0  0  0  0  0  0  0
    8.4120  -15.7823   19.6056 C   0  0  0  0  0  0  0  0  0  0  0  0
    7.0973  -16.3230   20.0961 C   0  0  0  0  0  0  0  0  0  0  0  0
    7.2333  -16.1181   21.6114 C   0  0  0  0  0  0  0  0  0  0  0  0
    7.9073  -14.7428   21.6317 C   0  0  1  0  0  0  0  0  0  0  0  0
    8.4984  -14.5959   23.0057 C   0  0  0  0  0  0  0  0  0  0  0  0
    9.6276  -15.1727   23.1413 O   0  0  0  0  0  0  0  0  0  0  0  0
    7.8594  -13.8942   24.0168 N   0  0  0  0  0  0  0  0  0  0  0  0
    6.8474  -12.8498   23.7433 C   0  0  0  0  0  0  0  0  0  0  0  0
    5.8735  -12.9476   24.8915 C   0  0  0  0  0  0  0  0  0  0  0  0
    6.4224  -14.0592   25.7483 C   0  0  0  0  0  0  0  0  0  0  0  0
    7.9330  -13.9217   25.4186 C   0  0  1  0  0  0  0  0  0  0  0  0
    8.6905  -14.9352   26.1166 C   0  0  0  0  0  0  0  0  0  0  0  0
    8.6785  -16.1225   25.7854 O   0  0  0  0  0  0  0  0  0  0  0  0
   10.1033  -15.2482   30.2195 C   0  0  0  0  0  0  0  0  0  0  0  0
   11.0733  -15.1899   29.0751 C   0  0  2  0  0  0  0  0  0  0  0  0
   11.6166  -13.7736   28.9153 C   0  0  0  0  0  0  0  0  0  0  0  0
   10.3892  -15.6498   27.8042 C   0  0  2  0  0  0  0  0  0  0  0  0
    9.5230  -14.6273   27.2614 N   0  0  0  0  0  0  0  0  0  0  0  0
    9.5802  -16.8466   28.1613 C   0  0  0  0  0  0  0  0  0  0  0  0
    8.3262  -16.7826   28.2084 O   0  0  0  0  0  0  0  0  0  0  0  0
   10.2464  -18.0229   28.4377 O   0  0  0  0  0  0  0  0  0  0  0  0
  1  5  1  0
  2  1  1  0
  3  2  1  0
  3  4  1  0
  4  5  1  0
  5  6  1  1
  6  7  2  0
  8  6  1  0
  9  8  1  0
 10 11  1  0
 10  9  1  0
 11 12  1  0
 12  8  1  0
 12 13  1  6
 13 19  1  0
 13 14  2  0
 16 15  1  1
 17 16  1  0
 18 16  1  0
 18 19  1  1
 20 22  1  0
 20 18  1  0
 21 20  2  0
M  END
$$$$
