PPV.pdb
     RDKit          3D

 22 23  0  0  1  0  0  0  0  0999 V2000
    8.7345  -14.7261   20.7063 N   0  0  0  0  0  0  0  0  0  0  0  0
    8.2060  -15.5395   19.6566 C   0  0  0  0  0  0  0  0  0  0  0  0
    6.9110  -16.1285   20.1441 C   0  0  0  0  0  0  0  0  0  0  0  0
    7.0610  -15.9706   21.6637 C   0  0  0  0  0  0  0  0  0  0  0  0
    7.7015  -14.5805   21.7220 C   0  0  1  0  0  0  0  0  0  0  0  0
    8.3060  -14.4646   23.0932 C   0  0  0  0  0  0  0  0  0  0  0  0
    9.4267  -15.0617   23.2104 O   0  0  0  0  0  0  0  0  0  0  0  0
    7.6869  -13.7682   24.1202 N   0  0  0  0  0  0  0  0  0  0  0  0
    6.6469  -12.7449   23.8733 C   0  0  0  0  0  0  0  0  0  0  0  0
    5.7127  -12.8534   25.0532 C   0  0  0  0  0  0  0  0  0  0  0  0
    6.3102  -13.9485   25.8984 C   0  0  0  0  0  0  0  0  0  0  0  0
    7.8064  -13.7849   25.5190 C   0  0  1  0  0  0  0  0  0  0  0  0
    8.6054  -14.7792   26.1982 C   0  0  0  0  0  0  0  0  0  0  0  0
    8.5827  -15.9736   25.8941 O   0  0  0  0  0  0  0  0  0  0  0  0
   11.8879  -16.0522   29.6832 C   0  0  0  0  0  0  0  0  0  0  0  0
   11.2359  -14.9158   28.9502 C   0  0  2  0  0  0  0  0  0  0  0  0
   10.4177  -14.0648   29.9161 C   0  0  0  0  0  0  0  0  0  0  0  0
   10.3608  -15.4612   27.8404 C   0  0  2  0  0  0  0  0  0  0  0  0
    9.4950  -14.4422   27.2906 N   0  0  0  0  0  0  0  0  0  0  0  0
    9.5342  -16.5443   28.4388 C   0  0  0  0  0  0  0  0  0  0  0  0
    8.3469  -16.3267   28.7877 O   0  0  0  0  0  0  0  0  0  0  0  0
   10.1091  -17.7885   28.5978 O   0  0  0  0  0  0  0  0  0  0  0  0
  1  5  1  0
  2  1  1  0
  3  2  1  0
  3  4  1  0
  4  5  1  0
  5  6  1  1
  6  7  2  0
  8  6  1  0
  9  8  1  0
 10 11  1  0
 10  9  1  0
 11 12  1  0
 12  8  1  0
 12 13  1  6
 13 19  1  0
 13 14  2  0
 16 15  1  1
 17 16  1  0
 18 16  1  0
 18 19  1  1
 20 22  1  0
 20 18  1  0
 21 20  2  0
M  END
$$$$
