PPV.pdb
     RDKit          3D

 22 23  0  0  1  0  0  0  0  0999 V2000
   10.8742  -16.4078   20.0742 N   0  0  0  0  0  0  0  0  0  0  0  0
   11.5811  -17.4143   19.3461 C   0  0  0  0  0  0  0  0  0  0  0  0
   11.2107  -18.7477   19.9345 C   0  0  0  0  0  0  0  0  0  0  0  0
   10.6700  -18.3309   21.3095 C   0  0  0  0  0  0  0  0  0  0  0  0
    9.8895  -17.0733   20.9153 C   0  0  1  0  0  0  0  0  0  0  0  0
    9.6675  -16.3113   22.1916 C   0  0  0  0  0  0  0  0  0  0  0  0
   10.7051  -15.6982   22.6086 O   0  0  0  0  0  0  0  0  0  0  0  0
    8.4413  -16.2896   22.8387 N   0  0  0  0  0  0  0  0  0  0  0  0
    7.1565  -16.3959   22.1121 C   0  0  0  0  0  0  0  0  0  0  0  0
    6.2422  -17.1397   23.0540 C   0  0  0  0  0  0  0  0  0  0  0  0
    7.0947  -17.3986   24.2694 C   0  0  0  0  0  0  0  0  0  0  0  0
    8.0507  -16.1788   24.1828 C   0  0  1  0  0  0  0  0  0  0  0  0
    9.0161  -16.2238   25.2572 C   0  0  0  0  0  0  0  0  0  0  0  0
    9.8913  -17.0888   25.3309 O   0  0  0  0  0  0  0  0  0  0  0  0
    9.8656  -12.9710   27.8110 C   0  0  0  0  0  0  0  0  0  0  0  0
    9.7933  -14.3208   28.4642 C   0  0  2  0  0  0  0  0  0  0  0  0
   10.8604  -14.4408   29.5475 C   0  0  0  0  0  0  0  0  0  0  0  0
    9.9654  -15.4025   27.4178 C   0  0  2  0  0  0  0  0  0  0  0  0
    9.0250  -15.2506   26.3302 N   0  0  0  0  0  0  0  0  0  0  0  0
    9.7272  -16.7026   28.1013 C   0  0  0  0  0  0  0  0  0  0  0  0
    8.5876  -17.2320   28.0941 O   0  0  0  0  0  0  0  0  0  0  0  0
   10.7911  -17.3059   28.7401 O   0  0  0  0  0  0  0  0  0  0  0  0
  1  5  1  0
  2  1  1  0
  3  2  1  0
  3  4  1  0
  4  5  1  0
  5  6  1  1
  6  7  2  0
  8  6  1  0
  9  8  1  0
 10 11  1  0
 10  9  1  0
 11 12  1  0
 12  8  1  0
 12 13  1  1
 13 19  1  0
 13 14  2  0
 16 15  1  6
 17 16  1  0
 18 16  1  0
 18 19  1  6
 20 22  1  0
 20 18  1  0
 21 20  2  0
M  END
$$$$
