PPV.pdb
     RDKit          3D

 22 23  0  0  1  0  0  0  0  0999 V2000
    9.3268  -15.5054   20.3427 N   0  0  0  0  0  0  0  0  0  0  0  0
    8.9215  -16.4983   19.3978 C   0  0  0  0  0  0  0  0  0  0  0  0
    7.6687  -17.1433   19.9230 C   0  0  0  0  0  0  0  0  0  0  0  0
    7.7396  -16.7725   21.4111 C   0  0  0  0  0  0  0  0  0  0  0  0
    8.2433  -15.3303   21.2993 C   0  0  1  0  0  0  0  0  0  0  0  0
    8.7764  -14.9755   22.6590 C   0  0  0  0  0  0  0  0  0  0  0  0
    9.9437  -15.4358   22.8870 O   0  0  0  0  0  0  0  0  0  0  0  0
    8.0511  -14.2170   23.5654 N   0  0  0  0  0  0  0  0  0  0  0  0
    6.9896  -13.2756   23.1449 C   0  0  0  0  0  0  0  0  0  0  0  0
    5.9736  -13.3187   24.2595 C   0  0  0  0  0  0  0  0  0  0  0  0
    6.5516  -14.2971   25.2492 C   0  0  0  0  0  0  0  0  0  0  0  0
    8.0639  -14.0948   24.9640 C   0  0  1  0  0  0  0  0  0  0  0  0
    8.8509  -14.9786   25.7934 C   0  0  0  0  0  0  0  0  0  0  0  0
    8.9169  -16.1937   25.5971 O   0  0  0  0  0  0  0  0  0  0  0  0
   11.7572  -15.7882   29.7119 C   0  0  0  0  0  0  0  0  0  0  0  0
   11.1685  -14.7445   28.8075 C   0  0  2  0  0  0  0  0  0  0  0  0
   10.1881  -13.8683   29.5806 C   0  0  0  0  0  0  0  0  0  0  0  0
   10.4816  -15.4153   27.6357 C   0  0  2  0  0  0  0  0  0  0  0  0
    9.6230  -14.4976   26.9207 N   0  0  0  0  0  0  0  0  0  0  0  0
    9.6638  -16.5252   28.1957 C   0  0  0  0  0  0  0  0  0  0  0  0
    8.4147  -16.4210   28.2830 O   0  0  0  0  0  0  0  0  0  0  0  0
   10.3165  -17.6667   28.6141 O   0  0  0  0  0  0  0  0  0  0  0  0
  1  5  1  0
  2  1  1  0
  3  2  1  0
  3  4  1  0
  4  5  1  0
  5  6  1  1
  6  7  2  0
  8  6  1  0
  9  8  1  0
 10 11  1  0
 10  9  1  0
 11 12  1  0
 12  8  1  0
 12 13  1  1
 13 19  1  0
 13 14  2  0
 16 15  1  1
 17 16  1  0
 18 16  1  0
 18 19  1  1
 20 22  1  0
 20 18  1  0
 21 20  2  0
M  END
$$$$
