PPV.pdb
     RDKit          3D

 22 23  0  0  1  0  0  0  0  0999 V2000
    9.0275  -16.9269   19.6365 N   0  0  0  0  0  0  0  0  0  0  0  0
   10.2151  -17.1932   18.8870 C   0  0  0  0  0  0  0  0  0  0  0  0
   11.2782  -17.6298   19.8568 C   0  0  0  0  0  0  0  0  0  0  0  0
   10.7159  -17.0952   21.1815 C   0  0  0  0  0  0  0  0  0  0  0  0
    9.2323  -17.4239   20.9896 C   0  0  1  0  0  0  0  0  0  0  0  0
    8.4927  -16.5819   21.9910 C   0  0  0  0  0  0  0  0  0  0  0  0
    8.7052  -15.3309   21.8641 O   0  0  0  0  0  0  0  0  0  0  0  0
    7.6614  -17.1336   22.9541 N   0  0  0  0  0  0  0  0  0  0  0  0
    6.8845  -18.3711   22.7198 C   0  0  0  0  0  0  0  0  0  0  0  0
    6.8327  -19.0533   24.0646 C   0  0  0  0  0  0  0  0  0  0  0  0
    7.5953  -18.1286   24.9779 C   0  0  0  0  0  0  0  0  0  0  0  0
    7.3211  -16.7756   24.2684 C   0  0  1  0  0  0  0  0  0  0  0  0
    7.9991  -15.7029   24.9598 C   0  0  0  0  0  0  0  0  0  0  0  0
    9.2238  -15.6657   25.0939 O   0  0  0  0  0  0  0  0  0  0  0  0
    5.9782  -12.6216   27.2539 C   0  0  0  0  0  0  0  0  0  0  0  0
    7.1992  -12.3064   26.4391 C   0  0  2  0  0  0  0  0  0  0  0  0
    6.7966  -11.7155   25.0918 C   0  0  0  0  0  0  0  0  0  0  0  0
    8.0234  -13.5633   26.2503 C   0  0  2  0  0  0  0  0  0  0  0  0
    7.2845  -14.5883   25.5477 N   0  0  0  0  0  0  0  0  0  0  0  0
    8.3783  -14.0520   27.6103 C   0  0  0  0  0  0  0  0  0  0  0  0
    7.8760  -15.1111   28.0628 O   0  0  0  0  0  0  0  0  0  0  0  0
    9.2717  -13.3099   28.3552 O   0  0  0  0  0  0  0  0  0  0  0  0
  1  5  1  0
  2  1  1  0
  3  2  1  0
  3  4  1  0
  4  5  1  0
  5  6  1  1
  6  7  2  0
  8  6  1  0
  9  8  1  0
 10 11  1  0
 10  9  1  0
 11 12  1  0
 12  8  1  0
 12 13  1  1
 13 19  1  0
 13 14  2  0
 16 15  1  1
 17 16  1  0
 18 16  1  0
 18 19  1  1
 20 22  1  0
 20 18  1  0
 21 20  2  0
M  END
$$$$
