PPV.pdb
     RDKit          3D

 22 23  0  0  1  0  0  0  0  0999 V2000
    8.9615  -14.8172   20.6868 N   0  0  0  0  0  0  0  0  0  0  0  0
    8.4456  -15.6278   19.6287 C   0  0  0  0  0  0  0  0  0  0  0  0
    7.1164  -16.1702   20.0764 C   0  0  0  0  0  0  0  0  0  0  0  0
    7.2170  -15.9969   21.5984 C   0  0  0  0  0  0  0  0  0  0  0  0
    7.8981  -14.6264   21.6628 C   0  0  1  0  0  0  0  0  0  0  0  0
    8.4568  -14.5110   23.0533 C   0  0  0  0  0  0  0  0  0  0  0  0
    9.5842  -15.0883   23.2014 O   0  0  0  0  0  0  0  0  0  0  0  0
    7.7927  -13.8349   24.0656 N   0  0  0  0  0  0  0  0  0  0  0  0
    6.7844  -12.7865   23.7935 C   0  0  0  0  0  0  0  0  0  0  0  0
    5.7844  -12.9137   24.9162 C   0  0  0  0  0  0  0  0  0  0  0  0
    6.3165  -14.0440   25.7589 C   0  0  0  0  0  0  0  0  0  0  0  0
    7.8339  -13.8954   25.4678 C   0  0  1  0  0  0  0  0  0  0  0  0
    8.5780  -14.9235   26.1590 C   0  0  0  0  0  0  0  0  0  0  0  0
    8.6558  -16.0820   25.7453 O   0  0  0  0  0  0  0  0  0  0  0  0
   10.0653  -15.1253   30.2843 C   0  0  0  0  0  0  0  0  0  0  0  0
   10.9871  -15.1333   29.0994 C   0  0  2  0  0  0  0  0  0  0  0  0
   11.5441  -13.7346   28.8545 C   0  0  0  0  0  0  0  0  0  0  0  0
   10.2436  -15.6370   27.8795 C   0  0  2  0  0  0  0  0  0  0  0  0
    9.2897  -14.6651   27.3939 N   0  0  0  0  0  0  0  0  0  0  0  0
    9.5252  -16.8723   28.2946 C   0  0  0  0  0  0  0  0  0  0  0  0
    8.2784  -16.8677   28.4505 O   0  0  0  0  0  0  0  0  0  0  0  0
   10.2669  -18.0172   28.5020 O   0  0  0  0  0  0  0  0  0  0  0  0
  1  5  1  0
  2  1  1  0
  3  2  1  0
  3  4  1  0
  4  5  1  0
  5  6  1  1
  6  7  2  0
  8  6  1  0
  9  8  1  0
 10 11  1  0
 10  9  1  0
 11 12  1  0
 12  8  1  0
 12 13  1  6
 13 19  1  0
 13 14  2  0
 16 15  1  1
 17 16  1  0
 18 16  1  0
 18 19  1  1
 20 22  1  0
 20 18  1  0
 21 20  2  0
M  END
$$$$
