NNT.pdb
     RDKit          3D

 24 23  0  0  1  0  0  0  0  0999 V2000
    7.7749  -17.7436   16.8402 N   0  0  0  0  0  0  0  0  0  0  0  0
    7.9522  -16.5828   17.6270 C   0  0  0  0  0  0  0  0  0  0  0  0
    8.7363  -15.6668   17.2681 O   0  0  0  0  0  0  0  0  0  0  0  0
    7.2287  -16.3876   18.9050 C   0  0  0  0  0  0  0  0  0  0  0  0
    8.2011  -15.8667   19.9247 C   0  0  2  0  0  0  0  0  0  0  0  0
    9.3754  -16.6866   19.8922 N   0  0  0  0  0  0  0  0  0  0  0  0
    7.5727  -15.8640   21.2761 C   0  0  0  0  0  0  0  0  0  0  0  0
    6.5255  -15.2139   21.4819 O   0  0  0  0  0  0  0  0  0  0  0  0
    5.8269  -18.0225   25.7666 N   0  0  0  0  0  0  0  0  0  0  0  0
    7.2419  -17.9728   25.6830 C   0  0  0  0  0  0  0  0  0  0  0  0
    7.9348  -17.9396   26.7299 O   0  0  0  0  0  0  0  0  0  0  0  0
    7.8433  -17.9625   24.3227 C   0  0  0  0  0  0  0  0  0  0  0  0
    7.6377  -16.6307   23.6340 C   0  0  2  0  0  0  0  0  0  0  0  0
    8.2024  -16.6186   22.3049 N   0  0  0  0  0  0  0  0  0  0  0  0
    8.2860  -15.5748   24.4377 C   0  0  0  0  0  0  0  0  0  0  0  0
    9.5221  -15.3892   24.3829 O   0  0  0  0  0  0  0  0  0  0  0  0
    6.8144  -11.8883   24.9443 C   0  0  0  0  0  0  0  0  0  0  0  0
    7.0109  -12.6163   26.2337 C   0  0  1  0  0  0  0  0  0  0  0  0
    5.8539  -13.2351   26.7057 O   0  0  0  0  0  0  0  0  0  0  0  0
    8.0658  -13.6959   26.0792 C   0  0  2  0  0  0  0  0  0  0  0  0
    7.4909  -14.7617   25.2828 N   0  0  0  0  0  0  0  0  0  0  0  0
    8.5493  -14.1977   27.3666 C   0  0  0  0  0  0  0  0  0  0  0  0
    9.2004  -13.3566   28.2506 O   0  0  0  0  0  0  0  0  0  0  0  0
    8.3841  -15.3934   27.6925 O   0  0  0  0  0  0  0  0  0  0  0  0
  2  1  1  0
  2  3  2  0
  4  5  1  0
  4  2  1  0
  5  6  1  1
  7  5  1  0
  8  7  2  0
  9 10  1  0
 10 12  1  0
 11 10  2  0
 13 12  1  1
 13 15  1  0
 13 14  1  0
 14  7  1  0
 15 21  1  0
 16 15  2  0
 18 19  1  0
 18 17  1  6
 20 18  1  0
 20 22  1  0
 20 21  1  6
 22 24  2  0
 22 23  1  0
M  END
$$$$
