NNT.pdb
     RDKit          3D

 24 23  0  0  1  0  0  0  0  0999 V2000
    7.8473  -12.3829   17.4238 N   0  0  0  0  0  0  0  0  0  0  0  0
    7.9418  -13.7747   17.6517 C   0  0  0  0  0  0  0  0  0  0  0  0
    8.4172  -14.5462   16.7791 O   0  0  0  0  0  0  0  0  0  0  0  0
    7.4889  -14.3908   18.9206 C   0  0  0  0  0  0  0  0  0  0  0  0
    8.5123  -14.0981   19.9806 C   0  0  2  0  0  0  0  0  0  0  0  0
    9.7815  -14.5900   19.5340 N   0  0  0  0  0  0  0  0  0  0  0  0
    8.1059  -14.7241   21.2706 C   0  0  0  0  0  0  0  0  0  0  0  0
    6.9386  -14.5886   21.6956 O   0  0  0  0  0  0  0  0  0  0  0  0
   10.2404  -18.7927   21.6689 N   0  0  0  0  0  0  0  0  0  0  0  0
    9.1894  -18.3657   22.5200 C   0  0  0  0  0  0  0  0  0  0  0  0
    8.0421  -18.8634   22.4039 O   0  0  0  0  0  0  0  0  0  0  0  0
    9.5129  -17.3236   23.5307 C   0  0  0  0  0  0  0  0  0  0  0  0
    8.7520  -16.0415   23.2703 C   0  0  2  0  0  0  0  0  0  0  0  0
    9.0839  -15.4694   21.9866 N   0  0  0  0  0  0  0  0  0  0  0  0
    9.0866  -15.0668   24.3282 C   0  0  0  0  0  0  0  0  0  0  0  0
   10.2455  -14.6086   24.4405 O   0  0  0  0  0  0  0  0  0  0  0  0
    6.8047  -11.9802   25.4203 C   0  0  0  0  0  0  0  0  0  0  0  0
    7.0736  -12.9195   26.5501 C   0  0  1  0  0  0  0  0  0  0  0  0
    6.0522  -13.8452   26.7598 O   0  0  0  0  0  0  0  0  0  0  0  0
    8.3462  -13.7058   26.2961 C   0  0  2  0  0  0  0  0  0  0  0  0
    8.0757  -14.6472   25.2278 N   0  0  0  0  0  0  0  0  0  0  0  0
    8.8329  -14.3902   27.4952 C   0  0  0  0  0  0  0  0  0  0  0  0
    9.1972  -13.6698   28.6181 O   0  0  0  0  0  0  0  0  0  0  0  0
    8.9289  -15.6363   27.5287 O   0  0  0  0  0  0  0  0  0  0  0  0
  2  1  1  0
  2  3  2  0
  4  5  1  0
  4  2  1  0
  5  6  1  6
  7  5  1  0
  8  7  2  0
  9 10  1  0
 10 12  1  0
 11 10  2  0
 13 12  1  1
 13 15  1  0
 13 14  1  0
 14  7  1  0
 15 21  1  0
 16 15  2  0
 18 19  1  0
 18 17  1  6
 20 18  1  0
 20 22  1  0
 20 21  1  6
 22 24  2  0
 22 23  1  0
M  END
$$$$
