NNT.pdb
     RDKit          3D

 24 23  0  0  1  0  0  0  0  0999 V2000
    8.2764  -12.9423   16.8927 N   0  0  0  0  0  0  0  0  0  0  0  0
    8.1786  -14.1733   17.5806 C   0  0  0  0  0  0  0  0  0  0  0  0
    8.8077  -15.1896   17.1884 O   0  0  0  0  0  0  0  0  0  0  0  0
    7.3363  -14.3275   18.7895 C   0  0  0  0  0  0  0  0  0  0  0  0
    8.1822  -14.0359   19.9962 C   0  0  2  0  0  0  0  0  0  0  0  0
    9.4725  -14.6261   19.7991 N   0  0  0  0  0  0  0  0  0  0  0  0
    7.5212  -14.5626   21.2236 C   0  0  0  0  0  0  0  0  0  0  0  0
    6.3609  -14.2031   21.5171 O   0  0  0  0  0  0  0  0  0  0  0  0
    6.0946  -17.9935   25.0348 N   0  0  0  0  0  0  0  0  0  0  0  0
    7.4903  -17.7696   24.9190 C   0  0  0  0  0  0  0  0  0  0  0  0
    8.2383  -17.9214   25.9165 O   0  0  0  0  0  0  0  0  0  0  0  0
    8.0051  -17.3561   23.5863 C   0  0  0  0  0  0  0  0  0  0  0  0
    7.7115  -15.8983   23.3048 C   0  0  2  0  0  0  0  0  0  0  0  0
    8.2519  -15.4756   22.0341 N   0  0  0  0  0  0  0  0  0  0  0  0
    8.3115  -15.0772   24.3756 C   0  0  0  0  0  0  0  0  0  0  0  0
    9.5478  -14.8927   24.4316 O   0  0  0  0  0  0  0  0  0  0  0  0
    6.8174  -11.6180   25.6500 C   0  0  0  0  0  0  0  0  0  0  0  0
    6.9394  -12.6200   26.7511 C   0  0  1  0  0  0  0  0  0  0  0  0
    5.7554  -13.3093   27.0105 O   0  0  0  0  0  0  0  0  0  0  0  0
    7.9961  -13.6551   26.4131 C   0  0  2  0  0  0  0  0  0  0  0  0
    7.4695  -14.4912   25.3528 N   0  0  0  0  0  0  0  0  0  0  0  0
    8.3900  -14.4558   27.5736 C   0  0  0  0  0  0  0  0  0  0  0  0
    8.9637  -13.8569   28.6803 O   0  0  0  0  0  0  0  0  0  0  0  0
    8.2163  -15.6939   27.5880 O   0  0  0  0  0  0  0  0  0  0  0  0
  2  1  1  0
  2  3  2  0
  4  5  1  0
  4  2  1  0
  5  6  1  6
  7  5  1  0
  8  7  2  0
  9 10  1  0
 10 12  1  0
 11 10  2  0
 13 12  1  1
 13 15  1  0
 13 14  1  0
 14  7  1  0
 15 21  1  0
 16 15  2  0
 18 19  1  0
 18 17  1  6
 20 18  1  0
 20 22  1  0
 20 21  1  6
 22 24  2  0
 22 23  1  0
M  END
$$$$
