NNT.pdb
     RDKit          3D

 24 23  0  0  1  0  0  0  0  0999 V2000
    6.3296  -12.4183   17.6172 N   0  0  0  0  0  0  0  0  0  0  0  0
    7.4855  -13.2300   17.5610 C   0  0  0  0  0  0  0  0  0  0  0  0
    7.6786  -14.0219   16.6028 O   0  0  0  0  0  0  0  0  0  0  0  0
    8.5205  -13.1893   18.6202 C   0  0  0  0  0  0  0  0  0  0  0  0
    9.3183  -14.4603   18.5515 C   0  0  2  0  0  0  0  0  0  0  0  0
    8.4125  -15.5684   18.6132 N   0  0  0  0  0  0  0  0  0  0  0  0
   10.3105  -14.5020   19.6628 C   0  0  0  0  0  0  0  0  0  0  0  0
   11.2543  -13.6836   19.6948 O   0  0  0  0  0  0  0  0  0  0  0  0
    9.6844  -14.5243   24.2426 N   0  0  0  0  0  0  0  0  0  0  0  0
    9.4182  -15.7664   23.6118 C   0  0  0  0  0  0  0  0  0  0  0  0
    8.2682  -16.2683   23.6674 O   0  0  0  0  0  0  0  0  0  0  0  0
   10.5465  -16.4239   22.9000 C   0  0  0  0  0  0  0  0  0  0  0  0
   11.0710  -15.5609   21.7728 C   0  0  2  0  0  0  0  0  0  0  0  0
   10.1428  -15.4944   20.6685 N   0  0  0  0  0  0  0  0  0  0  0  0
   12.3456  -16.1308   21.2913 C   0  0  0  0  0  0  0  0  0  0  0  0
   12.4383  -17.3417   20.9902 O   0  0  0  0  0  0  0  0  0  0  0  0
   14.1981  -14.6761   18.5577 C   0  0  0  0  0  0  0  0  0  0  0  0
   15.2428  -14.8465   19.6116 C   0  0  1  0  0  0  0  0  0  0  0  0
   15.6060  -13.6528   20.2340 O   0  0  0  0  0  0  0  0  0  0  0  0
   14.7543  -15.7876   20.6970 C   0  0  2  0  0  0  0  0  0  0  0  0
   13.4785  -15.2887   21.1702 N   0  0  0  0  0  0  0  0  0  0  0  0
   15.7115  -15.9228   21.7963 C   0  0  0  0  0  0  0  0  0  0  0  0
   15.3967  -15.4680   23.0639 O   0  0  0  0  0  0  0  0  0  0  0  0
   16.8299  -16.4505   21.6125 O   0  0  0  0  0  0  0  0  0  0  0  0
  2  1  1  0
  2  3  2  0
  4  5  1  0
  4  2  1  0
  5  6  1  1
  7  5  1  0
  8  7  2  0
  9 10  1  0
 10 12  1  0
 11 10  2  0
 13 12  1  1
 13 15  1  0
 13 14  1  0
 14  7  1  0
 15 21  1  0
 16 15  2  0
 18 19  1  0
 18 17  1  6
 20 18  1  0
 20 22  1  0
 20 21  1  1
 22 24  2  0
 22 23  1  0
M  END
$$$$
