NNT.pdb
     RDKit          3D

 24 23  0  0  1  0  0  0  0  0999 V2000
    7.6943  -12.2216   17.6766 N   0  0  0  0  0  0  0  0  0  0  0  0
    7.7630  -13.6116   17.9238 C   0  0  0  0  0  0  0  0  0  0  0  0
    8.1576  -14.4115   17.0367 O   0  0  0  0  0  0  0  0  0  0  0  0
    7.3765  -14.1924   19.2307 C   0  0  0  0  0  0  0  0  0  0  0  0
    8.5021  -13.9679   20.1999 C   0  0  2  0  0  0  0  0  0  0  0  0
    9.7110  -14.4662   19.6146 N   0  0  0  0  0  0  0  0  0  0  0  0
    8.2035  -14.6411   21.4955 C   0  0  0  0  0  0  0  0  0  0  0  0
    7.0875  -14.4943   22.0384 O   0  0  0  0  0  0  0  0  0  0  0  0
    8.9403  -19.2388   22.8177 N   0  0  0  0  0  0  0  0  0  0  0  0
    9.9121  -18.2241   22.6236 C   0  0  0  0  0  0  0  0  0  0  0  0
   10.6589  -18.2508   21.6142 O   0  0  0  0  0  0  0  0  0  0  0  0
    9.9953  -17.1553   23.6546 C   0  0  0  0  0  0  0  0  0  0  0  0
    9.0116  -16.0388   23.3784 C   0  0  2  0  0  0  0  0  0  0  0  0
    9.2228  -15.4439   22.0795 N   0  0  0  0  0  0  0  0  0  0  0  0
    9.1726  -14.9968   24.4125 C   0  0  0  0  0  0  0  0  0  0  0  0
   10.2115  -14.3021   24.4726 O   0  0  0  0  0  0  0  0  0  0  0  0
    6.6873  -12.2060   25.1908 C   0  0  0  0  0  0  0  0  0  0  0  0
    6.8779  -13.0424   26.4137 C   0  0  1  0  0  0  0  0  0  0  0  0
    5.8963  -14.0189   26.5791 O   0  0  0  0  0  0  0  0  0  0  0  0
    8.2164  -13.7556   26.3665 C   0  0  2  0  0  0  0  0  0  0  0  0
    8.1310  -14.7843   25.3491 N   0  0  0  0  0  0  0  0  0  0  0  0
    8.5978  -14.3212   27.6617 C   0  0  0  0  0  0  0  0  0  0  0  0
    8.7414  -15.6878   27.8185 O   0  0  0  0  0  0  0  0  0  0  0  0
    8.8011  -13.5827   28.6499 O   0  0  0  0  0  0  0  0  0  0  0  0
  2  1  1  0
  2  3  2  0
  4  5  1  0
  4  2  1  0
  5  6  1  6
  7  5  1  0
  8  7  2  0
  9 10  1  0
 10 12  1  0
 11 10  2  0
 13 12  1  1
 13 15  1  0
 13 14  1  0
 14  7  1  0
 15 21  1  0
 16 15  2  0
 18 19  1  0
 18 17  1  6
 20 18  1  0
 20 22  1  0
 20 21  1  6
 22 24  2  0
 22 23  1  0
M  END
$$$$
