NNT.pdb
     RDKit          3D

 24 23  0  0  1  0  0  0  0  0999 V2000
    8.8348  -12.9471   17.6610 N   0  0  0  0  0  0  0  0  0  0  0  0
    7.6888  -13.7688   17.7584 C   0  0  0  0  0  0  0  0  0  0  0  0
    6.9435  -13.9666   16.7645 O   0  0  0  0  0  0  0  0  0  0  0  0
    7.3103  -14.4338   19.0270 C   0  0  0  0  0  0  0  0  0  0  0  0
    8.1948  -13.9059   20.1204 C   0  0  2  0  0  0  0  0  0  0  0  0
    9.5587  -14.1595   19.7630 N   0  0  0  0  0  0  0  0  0  0  0  0
    7.8412  -14.5467   21.4186 C   0  0  0  0  0  0  0  0  0  0  0  0
    6.6842  -14.4399   21.8786 O   0  0  0  0  0  0  0  0  0  0  0  0
   10.1511  -18.4763   25.5368 N   0  0  0  0  0  0  0  0  0  0  0  0
    9.0954  -17.7631   24.9137 C   0  0  0  0  0  0  0  0  0  0  0  0
    7.9782  -17.6681   25.4796 O   0  0  0  0  0  0  0  0  0  0  0  0
    9.3775  -17.1503   23.5881 C   0  0  0  0  0  0  0  0  0  0  0  0
    8.5641  -15.8923   23.3727 C   0  0  2  0  0  0  0  0  0  0  0  0
    8.8566  -15.2727   22.1015 N   0  0  0  0  0  0  0  0  0  0  0  0
    8.8746  -14.9346   24.4532 C   0  0  0  0  0  0  0  0  0  0  0  0
    9.9800  -14.3502   24.4998 O   0  0  0  0  0  0  0  0  0  0  0  0
    6.9692  -11.8290   25.6438 C   0  0  0  0  0  0  0  0  0  0  0  0
    6.9686  -12.8696   26.7154 C   0  0  1  0  0  0  0  0  0  0  0  0
    5.8294  -13.6736   26.7104 O   0  0  0  0  0  0  0  0  0  0  0  0
    8.1667  -13.7885   26.5647 C   0  0  2  0  0  0  0  0  0  0  0  0
    7.9020  -14.6771   25.4506 N   0  0  0  0  0  0  0  0  0  0  0  0
    8.4547  -14.5415   27.7866 C   0  0  0  0  0  0  0  0  0  0  0  0
    8.7743  -13.8835   28.9603 O   0  0  0  0  0  0  0  0  0  0  0  0
    8.4179  -15.7912   27.7942 O   0  0  0  0  0  0  0  0  0  0  0  0
  2  1  1  0
  2  3  2  0
  4  5  1  0
  4  2  1  0
  5  6  1  6
  7  5  1  0
  8  7  2  0
  9 10  1  0
 10 12  1  0
 11 10  2  0
 13 12  1  1
 13 15  1  0
 13 14  1  0
 14  7  1  0
 15 21  1  0
 16 15  2  0
 18 19  1  0
 18 17  1  6
 20 18  1  0
 20 22  1  0
 20 21  1  6
 22 24  2  0
 22 23  1  0
M  END
$$$$
