NNT.pdb
     RDKit          3D

 24 23  0  0  1  0  0  0  0  0999 V2000
    7.6534  -12.4248   17.4248 N   0  0  0  0  0  0  0  0  0  0  0  0
    7.6751  -13.8211   17.6432 C   0  0  0  0  0  0  0  0  0  0  0  0
    7.9807  -14.6194   16.7202 O   0  0  0  0  0  0  0  0  0  0  0  0
    7.3414  -14.4108   18.9607 C   0  0  0  0  0  0  0  0  0  0  0  0
    8.4966  -14.1742   19.8914 C   0  0  2  0  0  0  0  0  0  0  0  0
    9.6760  -14.7346   19.3024 N   0  0  0  0  0  0  0  0  0  0  0  0
    8.2112  -14.7767   21.2243 C   0  0  0  0  0  0  0  0  0  0  0  0
    7.1160  -14.5671   21.7882 O   0  0  0  0  0  0  0  0  0  0  0  0
   10.5935  -18.9269   21.4720 N   0  0  0  0  0  0  0  0  0  0  0  0
    9.5409  -18.5020   22.3224 C   0  0  0  0  0  0  0  0  0  0  0  0
    8.4035  -19.0261   22.2284 O   0  0  0  0  0  0  0  0  0  0  0  0
    9.8509  -17.4296   23.3053 C   0  0  0  0  0  0  0  0  0  0  0  0
    8.9744  -16.2136   23.0963 C   0  0  2  0  0  0  0  0  0  0  0  0
    9.2189  -15.5865   21.8187 N   0  0  0  0  0  0  0  0  0  0  0  0
    9.2529  -15.2370   24.1685 C   0  0  0  0  0  0  0  0  0  0  0  0
   10.3472  -14.6329   24.2231 O   0  0  0  0  0  0  0  0  0  0  0  0
    7.0755  -12.2532   25.3317 C   0  0  0  0  0  0  0  0  0  0  0  0
    7.2246  -13.2493   26.4348 C   0  0  1  0  0  0  0  0  0  0  0  0
    6.1627  -14.1490   26.5199 O   0  0  0  0  0  0  0  0  0  0  0  0
    8.4899  -14.0654   26.2466 C   0  0  2  0  0  0  0  0  0  0  0  0
    8.2617  -14.9836   25.1486 N   0  0  0  0  0  0  0  0  0  0  0  0
    8.8840  -14.7797   27.4620 C   0  0  0  0  0  0  0  0  0  0  0  0
    9.2250  -14.0846   28.6080 O   0  0  0  0  0  0  0  0  0  0  0  0
    8.9202  -16.0291   27.4891 O   0  0  0  0  0  0  0  0  0  0  0  0
  2  1  1  0
  2  3  2  0
  4  5  1  0
  4  2  1  0
  5  6  1  6
  7  5  1  0
  8  7  2  0
  9 10  1  0
 10 12  1  0
 11 10  2  0
 13 12  1  1
 13 15  1  0
 13 14  1  0
 14  7  1  0
 15 21  1  0
 16 15  2  0
 18 19  1  0
 18 17  1  6
 20 18  1  0
 20 22  1  0
 20 21  1  6
 22 24  2  0
 22 23  1  0
M  END
$$$$
