NNT.pdb
     RDKit          3D

 24 23  0  0  1  0  0  0  0  0999 V2000
    7.5283  -12.7491   16.9777 N   0  0  0  0  0  0  0  0  0  0  0  0
    7.9551  -13.6276   17.9995 C   0  0  0  0  0  0  0  0  0  0  0  0
    8.8253  -14.5088   17.7786 O   0  0  0  0  0  0  0  0  0  0  0  0
    7.4030  -13.5555   19.3724 C   0  0  0  0  0  0  0  0  0  0  0  0
    8.4088  -14.1467   20.3187 C   0  0  2  0  0  0  0  0  0  0  0  0
    8.9602  -15.3242   19.7173 N   0  0  0  0  0  0  0  0  0  0  0  0
    7.7629  -14.4515   21.6267 C   0  0  0  0  0  0  0  0  0  0  0  0
    7.1219  -13.5667   22.2333 O   0  0  0  0  0  0  0  0  0  0  0  0
    6.1678  -16.8319   25.7472 N   0  0  0  0  0  0  0  0  0  0  0  0
    6.7436  -17.9037   25.0184 C   0  0  0  0  0  0  0  0  0  0  0  0
    6.6598  -19.0790   25.4531 O   0  0  0  0  0  0  0  0  0  0  0  0
    7.4339  -17.5673   23.7446 C   0  0  0  0  0  0  0  0  0  0  0  0
    7.3692  -16.0837   23.4522 C   0  0  2  0  0  0  0  0  0  0  0  0
    7.9031  -15.7679   22.1481 N   0  0  0  0  0  0  0  0  0  0  0  0
    8.1523  -15.3629   24.4760 C   0  0  0  0  0  0  0  0  0  0  0  0
    9.3962  -15.4813   24.5390 O   0  0  0  0  0  0  0  0  0  0  0  0
    7.5204  -11.5724   25.6634 C   0  0  0  0  0  0  0  0  0  0  0  0
    7.4016  -12.5647   26.7735 C   0  0  1  0  0  0  0  0  0  0  0  0
    6.0886  -12.9556   27.0329 O   0  0  0  0  0  0  0  0  0  0  0  0
    8.1880  -13.8213   26.4497 C   0  0  2  0  0  0  0  0  0  0  0  0
    7.4794  -14.5251   25.3994 N   0  0  0  0  0  0  0  0  0  0  0  0
    8.3871  -14.6772   27.6205 C   0  0  0  0  0  0  0  0  0  0  0  0
    9.0566  -14.2028   28.7338 O   0  0  0  0  0  0  0  0  0  0  0  0
    7.9572  -15.8511   27.6380 O   0  0  0  0  0  0  0  0  0  0  0  0
  2  1  1  0
  2  3  2  0
  4  5  1  0
  4  2  1  0
  5  6  1  6
  7  5  1  0
  8  7  2  0
  9 10  1  0
 10 12  1  0
 11 10  2  0
 13 12  1  1
 13 15  1  0
 13 14  1  0
 14  7  1  0
 15 21  1  0
 16 15  2  0
 18 19  1  0
 18 17  1  6
 20 18  1  0
 20 22  1  0
 20 21  1  6
 22 24  2  0
 22 23  1  0
M  END
$$$$
