NNT.pdb
     RDKit          3D

 24 23  0  0  1  0  0  0  0  0999 V2000
    8.0628  -12.3990   17.5201 N   0  0  0  0  0  0  0  0  0  0  0  0
    7.9263  -13.7790   17.7939 C   0  0  0  0  0  0  0  0  0  0  0  0
    8.2069  -14.6454   16.9261 O   0  0  0  0  0  0  0  0  0  0  0  0
    7.4493  -14.2711   19.1073 C   0  0  0  0  0  0  0  0  0  0  0  0
    8.5607  -14.1101   20.1051 C   0  0  2  0  0  0  0  0  0  0  0  0
    9.7428  -14.7167   19.5694 N   0  0  0  0  0  0  0  0  0  0  0  0
    8.1725  -14.7236   21.4066 C   0  0  0  0  0  0  0  0  0  0  0  0
    7.0276  -14.5397   21.8724 O   0  0  0  0  0  0  0  0  0  0  0  0
   10.6101  -18.5861   21.8316 N   0  0  0  0  0  0  0  0  0  0  0  0
    9.5250  -18.3381   22.7105 C   0  0  0  0  0  0  0  0  0  0  0  0
    8.4730  -19.0183   22.6214 O   0  0  0  0  0  0  0  0  0  0  0  0
    9.6978  -17.2565   23.7168 C   0  0  0  0  0  0  0  0  0  0  0  0
    8.8404  -16.0525   23.3915 C   0  0  2  0  0  0  0  0  0  0  0  0
    9.1414  -15.5138   22.0859 N   0  0  0  0  0  0  0  0  0  0  0  0
    9.0834  -15.0077   24.4066 C   0  0  0  0  0  0  0  0  0  0  0  0
   10.1614  -14.3731   24.4345 O   0  0  0  0  0  0  0  0  0  0  0  0
    6.8876  -11.9928   25.2937 C   0  0  0  0  0  0  0  0  0  0  0  0
    6.9960  -12.8988   26.4763 C   0  0  1  0  0  0  0  0  0  0  0  0
    5.9298  -13.7895   26.5950 O   0  0  0  0  0  0  0  0  0  0  0  0
    8.2653  -13.7266   26.3972 C   0  0  2  0  0  0  0  0  0  0  0  0
    8.0765  -14.7231   25.3618 N   0  0  0  0  0  0  0  0  0  0  0  0
    8.6106  -14.3495   27.6761 C   0  0  0  0  0  0  0  0  0  0  0  0
    8.8701  -13.5726   28.7904 O   0  0  0  0  0  0  0  0  0  0  0  0
    8.6780  -15.5930   27.7869 O   0  0  0  0  0  0  0  0  0  0  0  0
  2  1  1  0
  2  3  2  0
  4  5  1  0
  4  2  1  0
  5  6  1  6
  7  5  1  0
  8  7  2  0
  9 10  1  0
 10 12  1  0
 11 10  2  0
 13 12  1  1
 13 15  1  0
 13 14  1  0
 14  7  1  0
 15 21  1  0
 16 15  2  0
 18 19  1  0
 18 17  1  6
 20 18  1  0
 20 22  1  0
 20 21  1  6
 22 24  2  0
 22 23  1  0
M  END
$$$$
