NNT.pdb
     RDKit          3D

 24 23  0  0  1  0  0  0  0  0999 V2000
   -0.8785  -22.0899   17.6772 N   0  0  0  0  0  0  0  0  0  0  0  0
    0.0850  -21.2075   18.2167 C   0  0  0  0  0  0  0  0  0  0  0  0
   -0.0162  -19.9626   18.0662 O   0  0  0  0  0  0  0  0  0  0  0  0
    1.2542  -21.7007   18.9812 C   0  0  0  0  0  0  0  0  0  0  0  0
    2.4828  -21.0051   18.4681 C   0  0  2  0  0  0  0  0  0  0  0  0
    2.7065  -21.4186   17.1148 N   0  0  0  0  0  0  0  0  0  0  0  0
    3.6509  -21.3225   19.3375 C   0  0  0  0  0  0  0  0  0  0  0  0
    4.1059  -22.4856   19.3803 O   0  0  0  0  0  0  0  0  0  0  0  0
    8.1808  -19.9290   19.3092 N   0  0  0  0  0  0  0  0  0  0  0  0
    6.9906  -19.1944   19.5444 C   0  0  0  0  0  0  0  0  0  0  0  0
    6.5171  -18.4560   18.6456 O   0  0  0  0  0  0  0  0  0  0  0  0
    6.3515  -19.3433   20.8792 C   0  0  0  0  0  0  0  0  0  0  0  0
    5.3910  -20.5125   20.9084 C   0  0  2  0  0  0  0  0  0  0  0  0
    4.2176  -20.2659   20.1036 N   0  0  0  0  0  0  0  0  0  0  0  0
    4.9714  -20.7483   22.3046 C   0  0  0  0  0  0  0  0  0  0  0  0
    4.5801  -19.8061   23.0288 O   0  0  0  0  0  0  0  0  0  0  0  0
    2.2049  -22.5363   23.4476 C   0  0  0  0  0  0  0  0  0  0  0  0
    3.3522  -23.2728   24.0578 C   0  0  1  0  0  0  0  0  0  0  0  0
    3.7432  -24.3961   23.3301 O   0  0  0  0  0  0  0  0  0  0  0  0
    4.5648  -22.3677   24.1714 C   0  0  2  0  0  0  0  0  0  0  0  0
    5.0146  -22.0644   22.8275 N   0  0  0  0  0  0  0  0  0  0  0  0
    5.6385  -22.9640   24.9680 C   0  0  0  0  0  0  0  0  0  0  0  0
    6.8835  -23.1941   24.4116 O   0  0  0  0  0  0  0  0  0  0  0  0
    5.4526  -23.2765   26.1643 O   0  0  0  0  0  0  0  0  0  0  0  0
  2  1  1  0
  2  3  2  0
  4  5  1  0
  4  2  1  0
  5  6  1  6
  7  5  1  0
  8  7  2  0
  9 10  1  0
 10 12  1  0
 11 10  2  0
 13 12  1  1
 13 15  1  0
 13 14  1  0
 14  7  1  0
 15 21  1  0
 16 15  2  0
 18 19  1  0
 18 17  1  6
 20 18  1  0
 20 22  1  0
 20 21  1  6
 22 24  2  0
 22 23  1  0
M  END
$$$$
