NNT.pdb
     RDKit          3D

 24 23  0  0  1  0  0  0  0  0999 V2000
    7.9210  -12.7210   16.6734 N   0  0  0  0  0  0  0  0  0  0  0  0
    7.8637  -14.1294   16.5678 C   0  0  0  0  0  0  0  0  0  0  0  0
    7.8237  -14.6967   15.4457 O   0  0  0  0  0  0  0  0  0  0  0  0
    7.8478  -15.0022   17.7648 C   0  0  0  0  0  0  0  0  0  0  0  0
    8.7232  -14.3806   18.8155 C   0  0  2  0  0  0  0  0  0  0  0  0
   10.0254  -14.1720   18.2558 N   0  0  0  0  0  0  0  0  0  0  0  0
    8.7790  -15.2576   20.0191 C   0  0  0  0  0  0  0  0  0  0  0  0
    7.7240  -15.6747   20.5432 O   0  0  0  0  0  0  0  0  0  0  0  0
   12.5981  -17.8216   19.5530 N   0  0  0  0  0  0  0  0  0  0  0  0
   11.6203  -18.1431   20.5287 C   0  0  0  0  0  0  0  0  0  0  0  0
   10.9092  -19.1696   20.3946 O   0  0  0  0  0  0  0  0  0  0  0  0
   11.4876  -17.2216   21.6886 C   0  0  0  0  0  0  0  0  0  0  0  0
   10.1633  -16.4891   21.6680 C   0  0  2  0  0  0  0  0  0  0  0  0
   10.0599  -15.5950   20.5387 N   0  0  0  0  0  0  0  0  0  0  0  0
   10.0351  -15.7036   22.9120 C   0  0  0  0  0  0  0  0  0  0  0  0
   10.8800  -14.8320   23.2151 O   0  0  0  0  0  0  0  0  0  0  0  0
    7.3240  -13.4944   24.1578 C   0  0  0  0  0  0  0  0  0  0  0  0
    7.4155  -14.6520   25.0974 C   0  0  1  0  0  0  0  0  0  0  0  0
    6.5018  -15.6681   24.8198 O   0  0  0  0  0  0  0  0  0  0  0  0
    8.8010  -15.2688   25.0477 C   0  0  2  0  0  0  0  0  0  0  0  0
    8.9359  -15.9448   23.7727 N   0  0  0  0  0  0  0  0  0  0  0  0
    9.0488  -16.1847   26.1624 C   0  0  0  0  0  0  0  0  0  0  0  0
    9.0234  -15.7284   27.4677 O   0  0  0  0  0  0  0  0  0  0  0  0
    9.2878  -17.3948   25.9579 O   0  0  0  0  0  0  0  0  0  0  0  0
  2  1  1  0
  2  3  2  0
  4  5  1  0
  4  2  1  0
  5  6  1  6
  7  5  1  0
  8  7  2  0
  9 10  1  0
 10 12  1  0
 11 10  2  0
 13 12  1  1
 13 15  1  0
 13 14  1  0
 14  7  1  0
 15 21  1  0
 16 15  2  0
 18 19  1  0
 18 17  1  6
 20 18  1  0
 20 22  1  0
 20 21  1  6
 22 24  2  0
 22 23  1  0
M  END
$$$$
