NNT.pdb
     RDKit          3D

 24 23  0  0  1  0  0  0  0  0999 V2000
    7.8033  -12.6027   17.5275 N   0  0  0  0  0  0  0  0  0  0  0  0
    8.4545  -13.2967   18.5726 C   0  0  0  0  0  0  0  0  0  0  0  0
    9.6639  -13.6297   18.4780 O   0  0  0  0  0  0  0  0  0  0  0  0
    7.7506  -13.6643   19.8233 C   0  0  0  0  0  0  0  0  0  0  0  0
    7.9278  -15.1386   20.0504 C   0  0  2  0  0  0  0  0  0  0  0  0
    7.2884  -15.8429   18.9792 N   0  0  0  0  0  0  0  0  0  0  0  0
    7.3612  -15.5240   21.3738 C   0  0  0  0  0  0  0  0  0  0  0  0
    6.1243  -15.6161   21.5262 O   0  0  0  0  0  0  0  0  0  0  0  0
    6.2157  -18.2348   25.5991 N   0  0  0  0  0  0  0  0  0  0  0  0
    7.5927  -17.9282   25.4530 C   0  0  0  0  0  0  0  0  0  0  0  0
    8.3546  -17.9570   26.4511 O   0  0  0  0  0  0  0  0  0  0  0  0
    8.0714  -17.5800   24.0885 C   0  0  0  0  0  0  0  0  0  0  0  0
    7.7643  -16.1389   23.7426 C   0  0  2  0  0  0  0  0  0  0  0  0
    8.2699  -15.7785   22.4388 N   0  0  0  0  0  0  0  0  0  0  0  0
    8.3883  -15.2636   24.7553 C   0  0  0  0  0  0  0  0  0  0  0  0
    9.6322  -15.1990   24.8743 O   0  0  0  0  0  0  0  0  0  0  0  0
    7.0406  -11.5924   25.7631 C   0  0  0  0  0  0  0  0  0  0  0  0
    7.1092  -12.5365   26.9186 C   0  0  1  0  0  0  0  0  0  0  0  0
    5.8910  -13.1490   27.2104 O   0  0  0  0  0  0  0  0  0  0  0  0
    8.1121  -13.6414   26.6434 C   0  0  2  0  0  0  0  0  0  0  0  0
    7.5608  -14.4866   25.6031 N   0  0  0  0  0  0  0  0  0  0  0  0
    8.4358  -14.4178   27.8415 C   0  0  0  0  0  0  0  0  0  0  0  0
    9.0708  -13.8224   28.9162 O   0  0  0  0  0  0  0  0  0  0  0  0
    8.1458  -15.6316   27.9175 O   0  0  0  0  0  0  0  0  0  0  0  0
  2  1  1  0
  2  3  2  0
  4  5  1  0
  4  2  1  0
  5  6  1  6
  7  5  1  0
  8  7  2  0
  9 10  1  0
 10 12  1  0
 11 10  2  0
 13 12  1  1
 13 15  1  0
 13 14  1  0
 14  7  1  0
 15 21  1  0
 16 15  2  0
 18 19  1  0
 18 17  1  6
 20 18  1  0
 20 22  1  0
 20 21  1  6
 22 24  2  0
 22 23  1  0
M  END
$$$$
