YVN.pdb
     RDKit          3D

 28 28  0  0  1  0  0  0  0  0999 V2000
   28.1563  -20.0740   -3.6696 O   0  0  0  0  0  0  0  0  0  0  0  0
   27.8943  -19.9571   -5.0211 C   0  0  0  0  0  0  0  0  0  0  0  0
   26.7730  -20.5748   -5.5329 C   0  0  0  0  0  0  0  0  0  0  0  0
   26.4959  -20.4684   -6.8805 C   0  0  0  0  0  0  0  0  0  0  0  0
   27.2834  -19.7707   -7.7655 C   0  0  0  0  0  0  0  0  0  0  0  0
   27.0181  -19.6343   -9.2117 C   0  0  0  0  0  0  0  0  0  0  0  0
   26.9648  -20.9693   -9.9186 C   0  0  2  0  0  0  0  0  0  0  0  0
   28.2451  -21.6082   -9.8245 N   0  0  0  0  0  0  0  0  0  0  0  0
   26.4902  -20.8420  -11.3200 C   0  0  0  0  0  0  0  0  0  0  0  0
   27.2642  -20.5001  -12.2608 O   0  0  0  0  0  0  0  0  0  0  0  0
   28.4128  -19.1505   -7.2420 C   0  0  0  0  0  0  0  0  0  0  0  0
   28.6966  -19.2525   -5.8945 C   0  0  0  0  0  0  0  0  0  0  0  0
   23.0325  -22.8458  -12.8637 C   0  0  0  0  0  0  0  0  0  0  0  0
   24.1880  -22.2569  -13.6352 C   0  0  2  0  0  0  0  0  0  0  0  0
   25.3469  -23.2308  -13.7714 C   0  0  0  0  0  0  0  0  0  0  0  0
   24.6573  -20.9373  -13.0482 C   0  0  2  0  0  0  0  0  0  0  0  0
   25.1428  -21.0949  -11.6973 N   0  0  0  0  0  0  0  0  0  0  0  0
   23.5803  -19.9273  -13.1602 C   0  0  0  0  0  0  0  0  0  0  0  0
   22.8618  -19.5536  -12.1981 O   0  0  0  0  0  0  0  0  0  0  0  0
   21.9052  -15.1332  -16.0176 N   0  0  0  0  0  0  0  0  0  0  0  0
   21.6294  -16.5136  -16.1627 C   0  0  0  0  0  0  0  0  0  0  0  0
   20.5137  -16.8969  -16.5780 O   0  0  0  0  0  0  0  0  0  0  0  0
   22.6515  -17.5208  -15.8268 C   0  0  0  0  0  0  0  0  0  0  0  0
   22.2562  -18.3335  -14.6108 C   0  0  2  0  0  0  0  0  0  0  0  0
   23.3253  -19.3298  -14.4219 N   0  0  0  0  0  0  0  0  0  0  0  0
   20.9473  -18.9761  -14.7151 C   0  0  0  0  0  0  0  0  0  0  0  0
   20.7636  -20.0296  -15.3683 O   0  0  0  0  0  0  0  0  0  0  0  0
   19.8257  -18.4358  -14.0811 O   0  0  0  0  0  0  0  0  0  0  0  0
  2  1  1  0
  3  2  2  0
  4  3  1  0
  5 11  1  0
  5  4  2  0
  6  7  1  0
  6  5  1  0
  7  8  1  6
  7  9  1  0
  9 10  2  0
 11 12  2  0
 12  2  1  0
 14 16  1  0
 14 13  1  1
 14 15  1  0
 17  9  1  0
 16 17  1  1
 18 16  1  0
 18 19  2  0
 20 21  1  0
 21 23  1  0
 21 22  2  0
 24 23  1  6
 24 25  1  0
 25 18  1  0
 26 24  1  0
 26 28  1  0
 27 26  2  0
M  END
$$$$
