YVN.pdb
     RDKit          3D

 28 28  0  0  1  0  0  0  0  0999 V2000
   14.3633  -17.2337  -17.9089 O   0  0  0  0  0  0  0  0  0  0  0  0
   15.0241  -16.1335  -17.3973 C   0  0  0  0  0  0  0  0  0  0  0  0
   15.0780  -15.9720  -16.0291 C   0  0  0  0  0  0  0  0  0  0  0  0
   15.7339  -14.8789  -15.5008 C   0  0  0  0  0  0  0  0  0  0  0  0
   16.3509  -13.9191  -16.2677 C   0  0  0  0  0  0  0  0  0  0  0  0
   17.0623  -12.7384  -15.7382 C   0  0  0  0  0  0  0  0  0  0  0  0
   18.5618  -12.8491  -15.8929 C   0  0  2  0  0  0  0  0  0  0  0  0
   19.0209  -14.0382  -15.2359 N   0  0  0  0  0  0  0  0  0  0  0  0
   19.2645  -11.6280  -15.4232 C   0  0  0  0  0  0  0  0  0  0  0  0
   19.2912  -11.2986  -14.2018 O   0  0  0  0  0  0  0  0  0  0  0  0
   16.2923  -14.0887  -17.6469 C   0  0  0  0  0  0  0  0  0  0  0  0
   15.6377  -15.1800  -18.1829 C   0  0  0  0  0  0  0  0  0  0  0  0
   22.7285   -8.1940  -15.9521 C   0  0  0  0  0  0  0  0  0  0  0  0
   22.0240   -9.4449  -16.4168 C   0  0  2  0  0  0  0  0  0  0  0  0
   22.0307   -9.5825  -17.9304 C   0  0  0  0  0  0  0  0  0  0  0  0
   20.6100   -9.5438  -15.8715 C   0  0  2  0  0  0  0  0  0  0  0  0
   19.9513  -10.7523  -16.3084 N   0  0  0  0  0  0  0  0  0  0  0  0
   19.8535   -8.3180  -16.2142 C   0  0  0  0  0  0  0  0  0  0  0  0
   19.2700   -8.1340  -17.3130 O   0  0  0  0  0  0  0  0  0  0  0  0
   16.3293   -4.3089  -13.9265 N   0  0  0  0  0  0  0  0  0  0  0  0
   16.8478   -4.9758  -15.0619 C   0  0  0  0  0  0  0  0  0  0  0  0
   16.6159   -4.5428  -16.2121 O   0  0  0  0  0  0  0  0  0  0  0  0
   17.6685   -6.1900  -14.9073 C   0  0  0  0  0  0  0  0  0  0  0  0
   19.0373   -6.0224  -15.5346 C   0  0  2  0  0  0  0  0  0  0  0  0
   19.7673   -7.2723  -15.2587 N   0  0  0  0  0  0  0  0  0  0  0  0
   19.7814   -4.8589  -15.0553 C   0  0  0  0  0  0  0  0  0  0  0  0
   20.6375   -4.9350  -14.1436 O   0  0  0  0  0  0  0  0  0  0  0  0
   19.5677   -3.5908  -15.6014 O   0  0  0  0  0  0  0  0  0  0  0  0
  2  1  1  0
  3  2  2  0
  4  3  1  0
  5 11  1  0
  5  4  2  0
  6  7  1  0
  6  5  1  0
  7  8  1  1
  7  9  1  0
  9 10  2  0
 11 12  2  0
 12  2  1  0
 14 16  1  0
 14 13  1  6
 14 15  1  0
 17  9  1  0
 16 17  1  6
 18 16  1  0
 18 19  2  0
 20 21  1  0
 21 23  1  0
 21 22  2  0
 24 23  1  1
 24 25  1  0
 25 18  1  0
 26 24  1  0
 26 28  1  0
 27 26  2  0
M  END
$$$$
