YVN.pdb
     RDKit          3D

 28 28  0  0  1  0  0  0  0  0999 V2000
   22.3935  -10.3351  -21.1300 O   0  0  0  0  0  0  0  0  0  0  0  0
   22.5884  -11.6423  -20.7275 C   0  0  0  0  0  0  0  0  0  0  0  0
   23.0287  -12.5612  -21.6562 C   0  0  0  0  0  0  0  0  0  0  0  0
   23.2288  -13.8713  -21.2716 C   0  0  0  0  0  0  0  0  0  0  0  0
   23.0126  -14.3295  -19.9936 C   0  0  0  0  0  0  0  0  0  0  0  0
   23.2168  -15.7218  -19.5458 C   0  0  0  0  0  0  0  0  0  0  0  0
   24.6397  -15.9864  -19.1099 C   0  0  2  0  0  0  0  0  0  0  0  0
   25.4909  -16.0237  -20.2633 N   0  0  0  0  0  0  0  0  0  0  0  0
   24.7513  -17.2104  -18.2763 C   0  0  0  0  0  0  0  0  0  0  0  0
   24.9996  -18.3439  -18.7807 O   0  0  0  0  0  0  0  0  0  0  0  0
   22.5684  -13.3970  -19.0623 C   0  0  0  0  0  0  0  0  0  0  0  0
   22.3659  -12.0842  -19.4398 C   0  0  0  0  0  0  0  0  0  0  0  0
   25.7614  -17.1311  -14.1308 C   0  0  0  0  0  0  0  0  0  0  0  0
   25.8802  -18.2893  -15.0908 C   0  0  2  0  0  0  0  0  0  0  0  0
   27.1906  -18.2689  -15.8605 C   0  0  0  0  0  0  0  0  0  0  0  0
   24.6974  -18.3723  -16.0397 C   0  0  2  0  0  0  0  0  0  0  0  0
   24.5886  -17.1915  -16.8638 N   0  0  0  0  0  0  0  0  0  0  0  0
   23.4613  -18.6593  -15.2766 C   0  0  0  0  0  0  0  0  0  0  0  0
   22.7629  -17.7804  -14.7098 O   0  0  0  0  0  0  0  0  0  0  0  0
   19.4156  -21.3437  -13.4089 N   0  0  0  0  0  0  0  0  0  0  0  0
   20.0609  -22.1250  -14.3967 C   0  0  0  0  0  0  0  0  0  0  0  0
   19.6181  -23.2545  -14.7007 O   0  0  0  0  0  0  0  0  0  0  0  0
   21.2640  -21.6207  -15.0824 C   0  0  0  0  0  0  0  0  0  0  0  0
   21.7920  -20.3600  -14.4288 C   0  0  2  0  0  0  0  0  0  0  0  0
   23.0176  -20.0026  -15.1647 N   0  0  0  0  0  0  0  0  0  0  0  0
   22.0541  -20.4883  -12.9963 C   0  0  0  0  0  0  0  0  0  0  0  0
   23.0983  -21.0149  -12.5466 O   0  0  0  0  0  0  0  0  0  0  0  0
   21.1377  -20.0217  -12.0506 O   0  0  0  0  0  0  0  0  0  0  0  0
  2  1  1  0
  3  2  2  0
  4  3  1  0
  5 11  1  0
  5  4  2  0
  6  7  1  0
  6  5  1  0
  7  8  1  6
  7  9  1  0
  9 10  2  0
 11 12  2  0
 12  2  1  0
 14 16  1  0
 14 13  1  6
 14 15  1  0
 17  9  1  0
 16 17  1  1
 18 16  1  0
 18 19  2  0
 20 21  1  0
 21 23  1  0
 21 22  2  0
 24 23  1  6
 24 25  1  0
 25 18  1  0
 26 24  1  0
 26 28  1  0
 27 26  2  0
M  END
$$$$
