YVN.pdb
     RDKit          3D

 28 28  0  0  1  0  0  0  0  0999 V2000
   22.3829  -21.9665  -18.2626 O   0  0  0  0  0  0  0  0  0  0  0  0
   21.8131  -20.7138  -18.3848 C   0  0  0  0  0  0  0  0  0  0  0  0
   22.4303  -19.6442  -17.7719 C   0  0  0  0  0  0  0  0  0  0  0  0
   21.8750  -18.3859  -17.8836 C   0  0  0  0  0  0  0  0  0  0  0  0
   20.7202  -18.1242  -18.5824 C   0  0  0  0  0  0  0  0  0  0  0  0
   20.0982  -16.7924  -18.7245 C   0  0  0  0  0  0  0  0  0  0  0  0
   19.2748  -16.4067  -17.5171 C   0  0  2  0  0  0  0  0  0  0  0  0
   18.2160  -17.3575  -17.3405 N   0  0  0  0  0  0  0  0  0  0  0  0
   18.7807  -15.0087  -17.6000 C   0  0  0  0  0  0  0  0  0  0  0  0
   17.5745  -14.7396  -17.8717 O   0  0  0  0  0  0  0  0  0  0  0  0
   20.1033  -19.2080  -19.1979 C   0  0  0  0  0  0  0  0  0  0  0  0
   20.6531  -20.4701  -19.0905 C   0  0  0  0  0  0  0  0  0  0  0  0
   17.4834  -10.8920  -16.4646 C   0  0  0  0  0  0  0  0  0  0  0  0
   18.0478  -12.2893  -16.3869 C   0  0  2  0  0  0  0  0  0  0  0  0
   18.5255  -12.6417  -14.9876 C   0  0  0  0  0  0  0  0  0  0  0  0
   19.1477  -12.5220  -17.4079 C   0  0  2  0  0  0  0  0  0  0  0  0
   19.6239  -13.8850  -17.3803 N   0  0  0  0  0  0  0  0  0  0  0  0
   20.2290  -11.5289  -17.2153 C   0  0  0  0  0  0  0  0  0  0  0  0
   21.2338  -11.7143  -16.4820 O   0  0  0  0  0  0  0  0  0  0  0  0
   23.5055   -8.7976  -19.9702 N   0  0  0  0  0  0  0  0  0  0  0  0
   23.1342  -10.1564  -20.1059 C   0  0  0  0  0  0  0  0  0  0  0  0
   23.8151  -10.9320  -20.8124 O   0  0  0  0  0  0  0  0  0  0  0  0
   21.9404  -10.6789  -19.4175 C   0  0  0  0  0  0  0  0  0  0  0  0
   21.3318   -9.6447  -18.4926 C   0  0  2  0  0  0  0  0  0  0  0  0
   20.1482  -10.2834  -17.8906 N   0  0  0  0  0  0  0  0  0  0  0  0
   20.9783   -8.3857  -19.1460 C   0  0  0  0  0  0  0  0  0  0  0  0
   19.9308   -8.2467  -19.8194 O   0  0  0  0  0  0  0  0  0  0  0  0
   21.8054   -7.2642  -19.0468 O   0  0  0  0  0  0  0  0  0  0  0  0
  2  1  1  0
  3  2  2  0
  4  3  1  0
  5 11  1  0
  5  4  2  0
  6  7  1  0
  6  5  1  0
  7  8  1  6
  7  9  1  0
  9 10  2  0
 11 12  2  0
 12  2  1  0
 14 16  1  0
 14 13  1  1
 14 15  1  0
 17  9  1  0
 16 17  1  1
 18 16  1  0
 18 19  2  0
 20 21  1  0
 21 23  1  0
 21 22  2  0
 24 23  1  6
 24 25  1  0
 25 18  1  0
 26 24  1  0
 26 28  1  0
 27 26  2  0
M  END
$$$$
