YVN.pdb
     RDKit          3D

 28 28  0  0  1  0  0  0  0  0999 V2000
   14.5424  -13.1965  -21.3276 O   0  0  0  0  0  0  0  0  0  0  0  0
   15.2449  -12.6369  -20.2777 C   0  0  0  0  0  0  0  0  0  0  0  0
   14.9885  -13.0830  -18.9986 C   0  0  0  0  0  0  0  0  0  0  0  0
   15.6808  -12.5352  -17.9380 C   0  0  0  0  0  0  0  0  0  0  0  0
   16.6310  -11.5514  -18.0777 C   0  0  0  0  0  0  0  0  0  0  0  0
   17.3918  -10.9433  -16.9678 C   0  0  0  0  0  0  0  0  0  0  0  0
   18.7166  -11.6309  -16.7295 C   0  0  2  0  0  0  0  0  0  0  0  0
   18.4837  -12.9989  -16.3680 N   0  0  0  0  0  0  0  0  0  0  0  0
   19.5504  -10.9099  -15.7344 C   0  0  0  0  0  0  0  0  0  0  0  0
   19.2794  -10.9227  -14.4985 O   0  0  0  0  0  0  0  0  0  0  0  0
   16.8841  -11.1064  -19.3708 C   0  0  0  0  0  0  0  0  0  0  0  0
   16.1952  -11.6499  -20.4371 C   0  0  0  0  0  0  0  0  0  0  0  0
   23.5904   -9.6327  -16.5328 C   0  0  0  0  0  0  0  0  0  0  0  0
   22.9572   -9.8593  -15.1819 C   0  0  2  0  0  0  0  0  0  0  0  0
   23.1034  -11.2967  -14.7100 C   0  0  0  0  0  0  0  0  0  0  0  0
   21.5022   -9.4253  -15.1497 C   0  0  2  0  0  0  0  0  0  0  0  0
   20.7029  -10.1617  -16.1005 N   0  0  0  0  0  0  0  0  0  0  0  0
   21.4121   -7.9588  -15.3332 C   0  0  0  0  0  0  0  0  0  0  0  0
   21.0209   -7.4038  -16.3918 O   0  0  0  0  0  0  0  0  0  0  0  0
   21.1671   -2.9489  -14.6118 N   0  0  0  0  0  0  0  0  0  0  0  0
   20.0899   -3.8430  -14.8187 C   0  0  0  0  0  0  0  0  0  0  0  0
   18.9438   -3.4080  -15.0666 O   0  0  0  0  0  0  0  0  0  0  0  0
   20.3011   -5.2997  -14.7453 C   0  0  0  0  0  0  0  0  0  0  0  0
   21.7312   -5.6387  -14.3778 C   0  0  2  0  0  0  0  0  0  0  0  0
   21.7846   -7.1066  -14.2613 N   0  0  0  0  0  0  0  0  0  0  0  0
   22.2083   -4.9938  -13.1557 C   0  0  0  0  0  0  0  0  0  0  0  0
   22.3475   -5.6145  -12.0761 O   0  0  0  0  0  0  0  0  0  0  0  0
   22.5357   -3.6357  -13.1370 O   0  0  0  0  0  0  0  0  0  0  0  0
  2  1  1  0
  3  2  2  0
  4  3  1  0
  5 11  1  0
  5  4  2  0
  6  7  1  0
  6  5  1  0
  7  8  1  1
  7  9  1  0
  9 10  2  0
 11 12  2  0
 12  2  1  0
 14 16  1  0
 14 13  1  6
 14 15  1  0
 17  9  1  0
 16 17  1  6
 18 16  1  0
 18 19  2  0
 20 21  1  0
 21 23  1  0
 21 22  2  0
 24 23  1  1
 24 25  1  0
 25 18  1  0
 26 24  1  0
 26 28  1  0
 27 26  2  0
M  END
$$$$
