YVN.pdb
     RDKit          3D

 28 28  0  0  1  0  0  0  0  0999 V2000
   19.7145  -16.2230  -22.2957 O   0  0  0  0  0  0  0  0  0  0  0  0
   19.4245  -15.2008  -21.4126 C   0  0  0  0  0  0  0  0  0  0  0  0
   19.4298  -13.9033  -21.8787 C   0  0  0  0  0  0  0  0  0  0  0  0
   19.1424  -12.8699  -21.0105 C   0  0  0  0  0  0  0  0  0  0  0  0
   18.8445  -13.0548  -19.6812 C   0  0  0  0  0  0  0  0  0  0  0  0
   18.5310  -11.9749  -18.7240 C   0  0  0  0  0  0  0  0  0  0  0  0
   19.7727  -11.3444  -18.1362 C   0  0  2  0  0  0  0  0  0  0  0  0
   20.4433  -12.3011  -17.3047 N   0  0  0  0  0  0  0  0  0  0  0  0
   19.4728  -10.0768  -17.4230 C   0  0  0  0  0  0  0  0  0  0  0  0
   18.8751   -9.1155  -17.9885 O   0  0  0  0  0  0  0  0  0  0  0  0
   18.8412  -14.3662  -19.2182 C   0  0  0  0  0  0  0  0  0  0  0  0
   19.1278  -15.4055  -20.0811 C   0  0  0  0  0  0  0  0  0  0  0  0
   19.8157   -9.6248  -13.0548 C   0  0  0  0  0  0  0  0  0  0  0  0
   18.8746   -8.9294  -14.0076 C   0  0  2  0  0  0  0  0  0  0  0  0
   17.5711   -9.6896  -14.1890 C   0  0  0  0  0  0  0  0  0  0  0  0
   19.5246   -8.6432  -15.3501 C   0  0  2  0  0  0  0  0  0  0  0  0
   19.8337   -9.8592  -16.0650 N   0  0  0  0  0  0  0  0  0  0  0  0
   20.7049   -7.7696  -15.1598 C   0  0  0  0  0  0  0  0  0  0  0  0
   21.8894   -8.1260  -15.3869 O   0  0  0  0  0  0  0  0  0  0  0  0
   24.1625   -4.2103  -17.0584 N   0  0  0  0  0  0  0  0  0  0  0  0
   23.5120   -4.5761  -15.8560 C   0  0  0  0  0  0  0  0  0  0  0  0
   23.9240   -4.1459  -14.7562 O   0  0  0  0  0  0  0  0  0  0  0  0
   22.3399   -5.4692  -15.8804 C   0  0  0  0  0  0  0  0  0  0  0  0
   21.6331   -5.4996  -14.5407 C   0  0  2  0  0  0  0  0  0  0  0  0
   20.5118   -6.4433  -14.6934 N   0  0  0  0  0  0  0  0  0  0  0  0
   21.1663   -4.1946  -14.0759 C   0  0  0  0  0  0  0  0  0  0  0  0
   20.0416   -3.7335  -14.3803 O   0  0  0  0  0  0  0  0  0  0  0  0
   21.9656   -3.3914  -13.2588 O   0  0  0  0  0  0  0  0  0  0  0  0
  2  1  1  0
  3  2  2  0
  4  3  1  0
  5 11  1  0
  5  4  2  0
  6  7  1  0
  6  5  1  0
  7  8  1  1
  7  9  1  0
  9 10  2  0
 11 12  2  0
 12  2  1  0
 14 16  1  0
 14 13  1  1
 14 15  1  0
 17  9  1  0
 16 17  1  1
 18 16  1  0
 18 19  2  0
 20 21  1  0
 21 23  1  0
 21 22  2  0
 24 23  1  6
 24 25  1  0
 25 18  1  0
 26 24  1  0
 26 28  1  0
 27 26  2  0
M  END
$$$$
