YVN.pdb
     RDKit          3D

 28 28  0  0  1  0  0  0  0  0999 V2000
   18.3253  -22.3920   -9.7867 O   0  0  0  0  0  0  0  0  0  0  0  0
   19.4798  -21.7525  -10.1955 C   0  0  0  0  0  0  0  0  0  0  0  0
   20.2572  -22.3481  -11.1659 C   0  0  0  0  0  0  0  0  0  0  0  0
   21.4136  -21.7234  -11.5862 C   0  0  0  0  0  0  0  0  0  0  0  0
   21.8502  -20.5184  -11.0886 C   0  0  0  0  0  0  0  0  0  0  0  0
   23.0798  -19.8204  -11.5144 C   0  0  0  0  0  0  0  0  0  0  0  0
   24.3347  -20.5255  -11.0531 C   0  0  2  0  0  0  0  0  0  0  0  0
   24.3946  -20.5004   -9.6206 N   0  0  0  0  0  0  0  0  0  0  0  0
   25.5559  -19.9667  -11.6870 C   0  0  0  0  0  0  0  0  0  0  0  0
   26.0828  -18.8872  -11.2893 O   0  0  0  0  0  0  0  0  0  0  0  0
   21.0610  -19.9237  -10.1100 C   0  0  0  0  0  0  0  0  0  0  0  0
   19.9025  -20.5430   -9.6844 C   0  0  0  0  0  0  0  0  0  0  0  0
   29.5418  -19.8907  -14.4390 C   0  0  0  0  0  0  0  0  0  0  0  0
   28.4897  -20.6663  -13.6850 C   0  0  2  0  0  0  0  0  0  0  0  0
   28.3050  -22.0717  -14.2335 C   0  0  0  0  0  0  0  0  0  0  0  0
   27.1630  -19.9295  -13.6289 C   0  0  2  0  0  0  0  0  0  0  0  0
   26.2122  -20.6032  -12.7761 N   0  0  0  0  0  0  0  0  0  0  0  0
   26.6528  -19.7100  -15.0015 C   0  0  0  0  0  0  0  0  0  0  0  0
   27.2796  -19.0847  -15.8948 O   0  0  0  0  0  0  0  0  0  0  0  0
   25.3963  -23.7386  -16.3551 N   0  0  0  0  0  0  0  0  0  0  0  0
   25.5642  -22.4920  -17.0036 C   0  0  0  0  0  0  0  0  0  0  0  0
   26.6702  -22.1772  -17.4954 O   0  0  0  0  0  0  0  0  0  0  0  0
   24.4394  -21.5457  -17.1096 C   0  0  0  0  0  0  0  0  0  0  0  0
   24.8549  -20.1396  -16.7281 C   0  0  2  0  0  0  0  0  0  0  0  0
   25.3799  -20.2289  -15.3541 N   0  0  0  0  0  0  0  0  0  0  0  0
   23.7843  -19.1486  -16.8214 C   0  0  0  0  0  0  0  0  0  0  0  0
   23.0504  -18.8554  -15.8490 O   0  0  0  0  0  0  0  0  0  0  0  0
   23.5281  -18.4737  -18.0176 O   0  0  0  0  0  0  0  0  0  0  0  0
  2  1  1  0
  3  2  2  0
  4  3  1  0
  5 11  1  0
  5  4  2  0
  6  7  1  0
  6  5  1  0
  7  8  1  1
  7  9  1  0
  9 10  2  0
 11 12  2  0
 12  2  1  0
 14 16  1  0
 14 13  1  6
 14 15  1  0
 17  9  1  0
 16 17  1  1
 18 16  1  0
 18 19  2  0
 20 21  1  0
 21 23  1  0
 21 22  2  0
 24 23  1  1
 24 25  1  0
 25 18  1  0
 26 24  1  0
 26 28  1  0
 27 26  2  0
M  END
$$$$
