YVN.pdb
     RDKit          3D

 28 28  0  0  1  0  0  0  0  0999 V2000
   20.4345  -21.5004  -19.0127 O   0  0  0  0  0  0  0  0  0  0  0  0
   20.8156  -20.3921  -18.2810 C   0  0  0  0  0  0  0  0  0  0  0  0
   21.4250  -19.3441  -18.9377 C   0  0  0  0  0  0  0  0  0  0  0  0
   21.8122  -18.2293  -18.2225 C   0  0  0  0  0  0  0  0  0  0  0  0
   21.6254  -18.0931  -16.8673 C   0  0  0  0  0  0  0  0  0  0  0  0
   22.0249  -16.9161  -16.0700 C   0  0  0  0  0  0  0  0  0  0  0  0
   23.5193  -16.8431  -15.8552 C   0  0  2  0  0  0  0  0  0  0  0  0
   23.9478  -17.9867  -15.1037 N   0  0  0  0  0  0  0  0  0  0  0  0
   23.9331  -15.5605  -15.2315 C   0  0  0  0  0  0  0  0  0  0  0  0
   23.9220  -15.3912  -13.9776 O   0  0  0  0  0  0  0  0  0  0  0  0
   21.0102  -19.1542  -16.2117 C   0  0  0  0  0  0  0  0  0  0  0  0
   20.6199  -20.2732  -16.9207 C   0  0  0  0  0  0  0  0  0  0  0  0
   26.3972  -12.5904  -17.2039 C   0  0  0  0  0  0  0  0  0  0  0  0
   26.1808  -12.8129  -15.7271 C   0  0  2  0  0  0  0  0  0  0  0  0
   27.1418  -13.8401  -15.1514 C   0  0  0  0  0  0  0  0  0  0  0  0
   24.7423  -13.1793  -15.4064 C   0  0  2  0  0  0  0  0  0  0  0  0
   24.3678  -14.4431  -15.9961 N   0  0  0  0  0  0  0  0  0  0  0  0
   23.8429  -12.0704  -15.7985 C   0  0  0  0  0  0  0  0  0  0  0  0
   23.2033  -12.0308  -16.8806 O   0  0  0  0  0  0  0  0  0  0  0  0
   19.9938   -8.3949  -13.7763 N   0  0  0  0  0  0  0  0  0  0  0  0
   21.3878   -8.2097  -13.9346 C   0  0  0  0  0  0  0  0  0  0  0  0
   21.8528   -7.0746  -14.1788 O   0  0  0  0  0  0  0  0  0  0  0  0
   22.3133   -9.3503  -13.8145 C   0  0  0  0  0  0  0  0  0  0  0  0
   22.6934   -9.9063  -15.1717 C   0  0  2  0  0  0  0  0  0  0  0  0
   23.6761  -10.9735  -14.9137 N   0  0  0  0  0  0  0  0  0  0  0  0
   23.2245   -8.9123  -16.1027 C   0  0  0  0  0  0  0  0  0  0  0  0
   24.4432   -8.6266  -16.1609 O   0  0  0  0  0  0  0  0  0  0  0  0
   22.3839   -8.2263  -16.9829 O   0  0  0  0  0  0  0  0  0  0  0  0
  2  1  1  0
  3  2  2  0
  4  3  1  0
  5 11  1  0
  5  4  2  0
  6  7  1  0
  6  5  1  0
  7  8  1  1
  7  9  1  0
  9 10  2  0
 11 12  2  0
 12  2  1  0
 14 16  1  0
 14 13  1  6
 14 15  1  0
 17  9  1  0
 16 17  1  6
 18 16  1  0
 18 19  2  0
 20 21  1  0
 21 23  1  0
 21 22  2  0
 24 23  1  1
 24 25  1  0
 25 18  1  0
 26 24  1  0
 26 28  1  0
 27 26  2  0
M  END
$$$$
