YVN.pdb
     RDKit          3D

 28 28  0  0  1  0  0  0  0  0999 V2000
   20.0300  -16.2340  -21.6000 O   0  0  0  0  0  0  0  0  0  0  0  0
   20.6744  -17.0705  -20.7090 C   0  0  0  0  0  0  0  0  0  0  0  0
   20.8434  -18.3955  -21.0503 C   0  0  0  0  0  0  0  0  0  0  0  0
   21.4849  -19.2452  -20.1723 C   0  0  0  0  0  0  0  0  0  0  0  0
   21.9772  -18.8468  -18.9521 C   0  0  0  0  0  0  0  0  0  0  0  0
   22.6693  -19.7261  -17.9886 C   0  0  0  0  0  0  0  0  0  0  0  0
   24.1670  -19.7419  -18.1921 C   0  0  2  0  0  0  0  0  0  0  0  0
   24.4698  -20.3724  -19.4439 N   0  0  0  0  0  0  0  0  0  0  0  0
   24.8805  -20.3665  -17.0492 C   0  0  0  0  0  0  0  0  0  0  0  0
   24.8659  -21.6164  -16.8528 O   0  0  0  0  0  0  0  0  0  0  0  0
   21.8029  -17.5089  -18.6147 C   0  0  0  0  0  0  0  0  0  0  0  0
   21.1620  -16.6526  -19.4881 C   0  0  0  0  0  0  0  0  0  0  0  0
   27.8947  -18.2869  -14.6345 C   0  0  0  0  0  0  0  0  0  0  0  0
   27.7494  -19.7671  -14.8897 C   0  0  2  0  0  0  0  0  0  0  0  0
   28.5145  -20.2178  -16.1232 C   0  0  0  0  0  0  0  0  0  0  0  0
   26.2948  -20.1961  -14.9693 C   0  0  2  0  0  0  0  0  0  0  0  0
   25.6246  -19.6072  -16.1048 N   0  0  0  0  0  0  0  0  0  0  0  0
   25.6160  -19.9081  -13.6853 C   0  0  0  0  0  0  0  0  0  0  0  0
   25.0678  -18.8105  -13.4086 O   0  0  0  0  0  0  0  0  0  0  0  0
   23.5377  -20.2614   -9.0481 N   0  0  0  0  0  0  0  0  0  0  0  0
   22.8653  -20.8707  -10.1340 C   0  0  0  0  0  0  0  0  0  0  0  0
   21.6844  -21.2633  -10.0086 O   0  0  0  0  0  0  0  0  0  0  0  0
   23.5451  -21.0523  -11.4290 C   0  0  0  0  0  0  0  0  0  0  0  0
   25.0082  -20.6671  -11.3503 C   0  0  2  0  0  0  0  0  0  0  0  0
   25.5679  -20.9185  -12.6901 N   0  0  0  0  0  0  0  0  0  0  0  0
   25.7637  -21.3775  -10.3200 C   0  0  0  0  0  0  0  0  0  0  0  0
   25.8532  -20.9606   -9.1417 O   0  0  0  0  0  0  0  0  0  0  0  0
   26.4297  -22.5715  -10.6078 O   0  0  0  0  0  0  0  0  0  0  0  0
  2  1  1  0
  3  2  2  0
  4  3  1  0
  5 11  1  0
  5  4  2  0
  6  7  1  0
  6  5  1  0
  7  8  1  6
  7  9  1  0
  9 10  2  0
 11 12  2  0
 12  2  1  0
 14 16  1  0
 14 13  1  6
 14 15  1  0
 17  9  1  0
 16 17  1  6
 18 16  1  0
 18 19  2  0
 20 21  1  0
 21 23  1  0
 21 22  2  0
 24 23  1  6
 24 25  1  0
 25 18  1  0
 26 24  1  0
 26 28  1  0
 27 26  2  0
M  END
$$$$
