YVN.pdb
     RDKit          3D

 28 28  0  0  1  0  0  0  0  0999 V2000
   20.3101  -13.2919  -24.7252 O   0  0  0  0  0  0  0  0  0  0  0  0
   20.1759  -12.6793  -23.4940 C   0  0  0  0  0  0  0  0  0  0  0  0
   18.9085  -12.4822  -22.9885 C   0  0  0  0  0  0  0  0  0  0  0  0
   18.7558  -11.8719  -21.7603 C   0  0  0  0  0  0  0  0  0  0  0  0
   19.8095  -11.4381  -20.9911 C   0  0  0  0  0  0  0  0  0  0  0  0
   19.6847  -10.7832  -19.6735 C   0  0  0  0  0  0  0  0  0  0  0  0
   20.1717  -11.6604  -18.5430 C   0  0  2  0  0  0  0  0  0  0  0  0
   19.3389  -12.8242  -18.4519 N   0  0  0  0  0  0  0  0  0  0  0  0
   20.2627  -10.9196  -17.2591 C   0  0  0  0  0  0  0  0  0  0  0  0
   19.2651  -10.7826  -16.4927 O   0  0  0  0  0  0  0  0  0  0  0  0
   21.0849  -11.6402  -21.5076 C   0  0  0  0  0  0  0  0  0  0  0  0
   21.2455  -12.2502  -22.7360 C   0  0  0  0  0  0  0  0  0  0  0  0
   22.8292  -11.1549  -14.3310 C   0  0  0  0  0  0  0  0  0  0  0  0
   22.7730   -9.7266  -14.8146 C   0  0  2  0  0  0  0  0  0  0  0  0
   22.8865   -8.7268  -13.6755 C   0  0  0  0  0  0  0  0  0  0  0  0
   21.5367   -9.4525  -15.6529 C   0  0  2  0  0  0  0  0  0  0  0  0
   21.4693  -10.3187  -16.8064 N   0  0  0  0  0  0  0  0  0  0  0  0
   21.4786   -8.0156  -16.0061 C   0  0  0  0  0  0  0  0  0  0  0  0
   22.3697   -7.4137  -16.6583 O   0  0  0  0  0  0  0  0  0  0  0  0
   18.2385   -5.2529  -18.9509 N   0  0  0  0  0  0  0  0  0  0  0  0
   18.8401   -6.0695  -17.9641 C   0  0  0  0  0  0  0  0  0  0  0  0
   18.2415   -7.0747  -17.5219 O   0  0  0  0  0  0  0  0  0  0  0  0
   20.1805   -5.7488  -17.4420 C   0  0  0  0  0  0  0  0  0  0  0  0
   20.2226   -5.8215  -15.9293 C   0  0  2  0  0  0  0  0  0  0  0  0
   20.3571   -7.2501  -15.5940 N   0  0  0  0  0  0  0  0  0  0  0  0
   19.0627   -5.2296  -15.2651 C   0  0  0  0  0  0  0  0  0  0  0  0
   18.7980   -4.0067  -15.3336 O   0  0  0  0  0  0  0  0  0  0  0  0
   18.1841   -6.0132  -14.5129 O   0  0  0  0  0  0  0  0  0  0  0  0
  2  1  1  0
  3  2  2  0
  4  3  1  0
  5 11  1  0
  5  4  2  0
  6  7  1  0
  6  5  1  0
  7  8  1  1
  7  9  1  0
  9 10  2  0
 11 12  2  0
 12  2  1  0
 14 16  1  0
 14 13  1  1
 14 15  1  0
 17  9  1  0
 16 17  1  6
 18 16  1  0
 18 19  2  0
 20 21  1  0
 21 23  1  0
 21 22  2  0
 24 23  1  6
 24 25  1  0
 25 18  1  0
 26 24  1  0
 26 28  1  0
 27 26  2  0
M  END
$$$$
