YVN.pdb
     RDKit          3D

 28 28  0  0  1  0  0  0  0  0999 V2000
   28.0989  -19.9242   -5.0915 O   0  0  0  0  0  0  0  0  0  0  0  0
   27.5026  -19.9024   -6.3376 C   0  0  0  0  0  0  0  0  0  0  0  0
   26.9005  -21.0523   -6.8025 C   0  0  0  0  0  0  0  0  0  0  0  0
   26.3001  -21.0484   -8.0449 C   0  0  0  0  0  0  0  0  0  0  0  0
   26.2627  -19.9474   -8.8674 C   0  0  0  0  0  0  0  0  0  0  0  0
   25.6291  -19.9058  -10.2007 C   0  0  0  0  0  0  0  0  0  0  0  0
   25.9790  -21.1096  -11.0452 C   0  0  2  0  0  0  0  0  0  0  0  0
   27.3976  -21.1495  -11.2510 N   0  0  0  0  0  0  0  0  0  0  0  0
   25.2148  -21.1413  -12.3182 C   0  0  0  0  0  0  0  0  0  0  0  0
   25.5007  -20.3831  -13.2901 O   0  0  0  0  0  0  0  0  0  0  0  0
   26.8721  -18.7913   -8.3919 C   0  0  0  0  0  0  0  0  0  0  0  0
   27.4751  -18.7876   -7.1496 C   0  0  0  0  0  0  0  0  0  0  0  0
   24.9541  -23.9654  -14.5592 C   0  0  0  0  0  0  0  0  0  0  0  0
   23.5224  -23.5261  -14.3733 C   0  0  2  0  0  0  0  0  0  0  0  0
   22.7134  -23.6377  -15.6551 C   0  0  0  0  0  0  0  0  0  0  0  0
   23.4220  -22.1270  -13.7911 C   0  0  2  0  0  0  0  0  0  0  0  0
   24.1178  -22.0209  -12.5302 N   0  0  0  0  0  0  0  0  0  0  0  0
   22.0006  -21.7218  -13.7018 C   0  0  0  0  0  0  0  0  0  0  0  0
   21.2224  -22.0795  -12.7809 O   0  0  0  0  0  0  0  0  0  0  0  0
   17.5078  -19.4500  -15.0621 N   0  0  0  0  0  0  0  0  0  0  0  0
   18.5251  -18.9258  -15.8945 C   0  0  0  0  0  0  0  0  0  0  0  0
   18.2574  -18.0536  -16.7500 O   0  0  0  0  0  0  0  0  0  0  0  0
   19.9150  -19.3989  -15.7668 C   0  0  0  0  0  0  0  0  0  0  0  0
   20.0435  -20.4750  -14.7081 C   0  0  2  0  0  0  0  0  0  0  0  0
   21.4611  -20.8771  -14.7064 N   0  0  0  0  0  0  0  0  0  0  0  0
   19.1674  -21.6275  -14.9110 C   0  0  0  0  0  0  0  0  0  0  0  0
   19.3376  -22.4479  -15.8428 O   0  0  0  0  0  0  0  0  0  0  0  0
   18.0848  -21.8693  -14.0617 O   0  0  0  0  0  0  0  0  0  0  0  0
  2  1  1  0
  3  2  2  0
  4  3  1  0
  5 11  1  0
  5  4  2  0
  6  7  1  0
  6  5  1  0
  7  8  1  6
  7  9  1  0
  9 10  2  0
 11 12  2  0
 12  2  1  0
 14 16  1  0
 14 13  1  6
 14 15  1  0
 17  9  1  0
 16 17  1  1
 18 16  1  0
 18 19  2  0
 20 21  1  0
 21 23  1  0
 21 22  2  0
 24 23  1  6
 24 25  1  0
 25 18  1  0
 26 24  1  0
 26 28  1  0
 27 26  2  0
M  END
$$$$
