YVN.pdb
     RDKit          3D

 28 28  0  0  1  0  0  0  0  0999 V2000
   20.4477  -16.0102  -23.0674 O   0  0  0  0  0  0  0  0  0  0  0  0
   20.1881  -15.1135  -22.0489 C   0  0  0  0  0  0  0  0  0  0  0  0
   18.9454  -15.1329  -21.4520 C   0  0  0  0  0  0  0  0  0  0  0  0
   18.6688  -14.2443  -20.4331 C   0  0  0  0  0  0  0  0  0  0  0  0
   19.5726  -13.3203  -19.9644 C   0  0  0  0  0  0  0  0  0  0  0  0
   19.3129  -12.3560  -18.8767 C   0  0  0  0  0  0  0  0  0  0  0  0
   20.2158  -12.5723  -17.6839 C   0  0  2  0  0  0  0  0  0  0  0  0
   19.9850  -13.8806  -17.1443 N   0  0  0  0  0  0  0  0  0  0  0  0
   20.0673  -11.4996  -16.6677 C   0  0  0  0  0  0  0  0  0  0  0  0
   19.1121  -11.4906  -15.8379 O   0  0  0  0  0  0  0  0  0  0  0  0
   20.8238  -13.3066  -20.5714 C   0  0  0  0  0  0  0  0  0  0  0  0
   21.1079  -14.1928  -21.5916 C   0  0  0  0  0  0  0  0  0  0  0  0
   23.3643   -8.9484  -15.4726 C   0  0  0  0  0  0  0  0  0  0  0  0
   22.1495   -9.3597  -14.6774 C   0  0  2  0  0  0  0  0  0  0  0  0
   22.3568  -10.6761  -13.9466 C   0  0  0  0  0  0  0  0  0  0  0  0
   20.8939   -9.4071  -15.5304 C   0  0  2  0  0  0  0  0  0  0  0  0
   20.9831  -10.4173  -16.5585 N   0  0  0  0  0  0  0  0  0  0  0  0
   20.6027   -8.0591  -16.0696 C   0  0  0  0  0  0  0  0  0  0  0  0
   21.1062   -7.5988  -17.1262 O   0  0  0  0  0  0  0  0  0  0  0  0
   16.2531   -3.7568  -15.6597 N   0  0  0  0  0  0  0  0  0  0  0  0
   17.5570   -4.2312  -15.9381 C   0  0  0  0  0  0  0  0  0  0  0  0
   18.3787   -3.5084  -16.5436 O   0  0  0  0  0  0  0  0  0  0  0  0
   17.9672   -5.5834  -15.5194 C   0  0  0  0  0  0  0  0  0  0  0  0
   19.4361   -5.8317  -15.7950 C   0  0  2  0  0  0  0  0  0  0  0  0
   19.7020   -7.2166  -15.3676 N   0  0  0  0  0  0  0  0  0  0  0  0
   20.3403   -4.8918  -15.1347 C   0  0  0  0  0  0  0  0  0  0  0  0
   20.6675   -5.0042  -13.9304 O   0  0  0  0  0  0  0  0  0  0  0  0
   20.8886   -3.8099  -15.8281 O   0  0  0  0  0  0  0  0  0  0  0  0
  2  1  1  0
  3  2  2  0
  4  3  1  0
  5 11  1  0
  5  4  2  0
  6  7  1  0
  6  5  1  0
  7  8  1  1
  7  9  1  0
  9 10  2  0
 11 12  2  0
 12  2  1  0
 14 16  1  0
 14 13  1  6
 14 15  1  0
 17  9  1  0
 16 17  1  6
 18 16  1  0
 18 19  2  0
 20 21  1  0
 21 23  1  0
 21 22  2  0
 24 23  1  1
 24 25  1  0
 25 18  1  0
 26 24  1  0
 26 28  1  0
 27 26  2  0
M  END
$$$$
