YVN.pdb
     RDKit          3D

 28 28  0  0  1  0  0  0  0  0999 V2000
   25.0347  -16.8098  -22.2728 O   0  0  0  0  0  0  0  0  0  0  0  0
   25.1416  -17.6594  -21.1885 C   0  0  0  0  0  0  0  0  0  0  0  0
   24.9919  -19.0146  -21.3934 C   0  0  0  0  0  0  0  0  0  0  0  0
   25.0956  -19.8778  -20.3218 C   0  0  0  0  0  0  0  0  0  0  0  0
   25.3441  -19.4644  -19.0343 C   0  0  0  0  0  0  0  0  0  0  0  0
   25.4628  -20.3578  -17.8646 C   0  0  0  0  0  0  0  0  0  0  0  0
   26.9011  -20.6562  -17.5081 C   0  0  2  0  0  0  0  0  0  0  0  0
   27.4497  -21.5678  -18.4695 N   0  0  0  0  0  0  0  0  0  0  0  0
   27.0423  -21.1428  -16.1122 C   0  0  0  0  0  0  0  0  0  0  0  0
   26.7342  -22.3244  -15.7804 O   0  0  0  0  0  0  0  0  0  0  0  0
   25.4938  -18.0961  -18.8354 C   0  0  0  0  0  0  0  0  0  0  0  0
   25.3914  -17.2262  -19.9029 C   0  0  0  0  0  0  0  0  0  0  0  0
   28.9756  -20.9228  -11.6081 C   0  0  0  0  0  0  0  0  0  0  0  0
   28.8837  -20.3863  -13.0155 C   0  0  2  0  0  0  0  0  0  0  0  0
   29.1391  -18.8894  -13.0803 C   0  0  0  0  0  0  0  0  0  0  0  0
   27.5639  -20.7384  -13.6792 C   0  0  2  0  0  0  0  0  0  0  0  0
   27.5311  -20.3197  -15.0608 N   0  0  0  0  0  0  0  0  0  0  0  0
   26.4409  -20.1918  -12.8837 C   0  0  0  0  0  0  0  0  0  0  0  0
   25.6718  -19.2807  -13.2837 O   0  0  0  0  0  0  0  0  0  0  0  0
   22.4659  -18.8418  -11.2376 N   0  0  0  0  0  0  0  0  0  0  0  0
   22.5487  -20.2509  -11.3397 C   0  0  0  0  0  0  0  0  0  0  0  0
   21.5425  -20.9622  -11.1254 O   0  0  0  0  0  0  0  0  0  0  0  0
   23.8208  -20.9022  -11.6997 C   0  0  0  0  0  0  0  0  0  0  0  0
   24.9653  -20.4052  -10.8405 C   0  0  2  0  0  0  0  0  0  0  0  0
   26.1981  -20.7134  -11.5865 N   0  0  0  0  0  0  0  0  0  0  0  0
   25.0032  -20.9791   -9.4965 C   0  0  0  0  0  0  0  0  0  0  0  0
   25.4050  -22.1446   -9.2724 O   0  0  0  0  0  0  0  0  0  0  0  0
   24.5868  -20.2420   -8.3851 O   0  0  0  0  0  0  0  0  0  0  0  0
  2  1  1  0
  3  2  2  0
  4  3  1  0
  5 11  1  0
  5  4  2  0
  6  7  1  0
  6  5  1  0
  7  8  1  6
  7  9  1  0
  9 10  2  0
 11 12  2  0
 12  2  1  0
 14 16  1  0
 14 13  1  1
 14 15  1  0
 17  9  1  0
 16 17  1  6
 18 16  1  0
 18 19  2  0
 20 21  1  0
 21 23  1  0
 21 22  2  0
 24 23  1  6
 24 25  1  0
 25 18  1  0
 26 24  1  0
 26 28  1  0
 27 26  2  0
M  END
$$$$
