SSI.pdb
     RDKit          3D

 21 20  0  0  1  0  0  0  0  0999 V2000
   43.8853   -8.6883   -5.3781 O   0  0  0  0  0  0  0  0  0  0  0  0
   43.7820  -10.0033   -4.9344 C   0  0  0  0  0  0  0  0  0  0  0  0
   43.7015  -10.8911   -6.1558 C   0  0  2  0  0  0  0  0  0  0  0  0
   44.9840  -10.7687   -6.8535 N   0  0  0  0  0  0  0  0  0  0  0  0
   42.6456  -10.4736   -7.0936 C   0  0  0  0  0  0  0  0  0  0  0  0
   42.9125   -9.8980   -8.2047 O   0  0  0  0  0  0  0  0  0  0  0  0
   38.7186  -10.5634   -5.9192 O   0  0  0  0  0  0  0  0  0  0  0  0
   38.9059  -10.7775   -7.2657 C   0  0  0  0  0  0  0  0  0  0  0  0
   40.2194  -10.1660   -7.7344 C   0  0  2  0  0  0  0  0  0  0  0  0
   41.2549  -10.6720   -6.8473 N   0  0  0  0  0  0  0  0  0  0  0  0
   40.1543   -8.6872   -7.7163 C   0  0  0  0  0  0  0  0  0  0  0  0
   40.6826   -7.9923   -6.8073 O   0  0  0  0  0  0  0  0  0  0  0  0
   39.6905   -6.2638  -12.5182 C   0  0  0  0  0  0  0  0  0  0  0  0
   40.0118   -6.4782  -11.0756 C   0  0  0  0  0  0  0  0  0  0  0  0
   38.7936   -6.2580  -10.1684 C   0  0  2  0  0  0  0  0  0  0  0  0
   38.3016   -4.8509  -10.3532 C   0  0  0  0  0  0  0  0  0  0  0  0
   39.2375   -6.5799   -8.7785 C   0  0  2  0  0  0  0  0  0  0  0  0
   39.4800   -8.0273   -8.7482 N   0  0  0  0  0  0  0  0  0  0  0  0
   38.2960   -6.2518   -7.7193 C   0  0  0  0  0  0  0  0  0  0  0  0
   37.2973   -7.1217   -7.3312 O   0  0  0  0  0  0  0  0  0  0  0  0
   38.3793   -5.1514   -7.1310 O   0  0  0  0  0  0  0  0  0  0  0  0
  2  1  1  0
  3  4  1  6
  3  2  1  0
  5  3  1  0
  5  6  2  0
  7  8  1  0
  9  8  1  1
  9 10  1  0
  9 11  1  0
 10  5  1  0
 11 18  1  0
 11 12  2  0
 13 14  1  0
 14 15  1  0
 15 16  1  1
 17 15  1  0
 17 18  1  6
 19 20  1  0
 19 17  1  0
 21 19  2  0
M  END
$$$$
