SSI.pdb
     RDKit          3D

 21 20  0  0  1  0  0  0  0  0999 V2000
   14.9002  -14.8792  -13.4041 O   0  0  0  0  0  0  0  0  0  0  0  0
   16.0674  -14.2492  -13.8253 C   0  0  0  0  0  0  0  0  0  0  0  0
   15.9249  -13.9676  -15.3041 C   0  0  2  0  0  0  0  0  0  0  0  0
   16.2415  -15.2146  -16.0050 N   0  0  0  0  0  0  0  0  0  0  0  0
   16.8664  -12.9404  -15.7807 C   0  0  0  0  0  0  0  0  0  0  0  0
   18.0258  -13.2386  -16.2322 O   0  0  0  0  0  0  0  0  0  0  0  0
   15.8171   -8.8975  -15.8909 O   0  0  0  0  0  0  0  0  0  0  0  0
   16.6763   -9.4066  -16.8377 C   0  0  0  0  0  0  0  0  0  0  0  0
   17.5091  -10.5426  -16.2591 C   0  0  2  0  0  0  0  0  0  0  0  0
   16.5709  -11.5451  -15.7797 N   0  0  0  0  0  0  0  0  0  0  0  0
   18.3943  -10.0559  -15.1770 C   0  0  0  0  0  0  0  0  0  0  0  0
   18.0477  -10.0448  -13.9654 O   0  0  0  0  0  0  0  0  0  0  0  0
   23.1557  -11.7846  -15.4139 C   0  0  0  0  0  0  0  0  0  0  0  0
   21.8983  -11.1383  -14.9327 C   0  0  0  0  0  0  0  0  0  0  0  0
   21.9792   -9.6062  -14.9714 C   0  0  2  0  0  0  0  0  0  0  0  0
   23.1312   -9.1615  -14.1161 C   0  0  0  0  0  0  0  0  0  0  0  0
   20.6462   -9.1008  -14.5238 C   0  0  2  0  0  0  0  0  0  0  0  0
   19.6700   -9.5875  -15.5062 N   0  0  0  0  0  0  0  0  0  0  0  0
   20.5152   -7.6553  -14.4267 C   0  0  0  0  0  0  0  0  0  0  0  0
   20.7236   -6.9784  -13.2422 O   0  0  0  0  0  0  0  0  0  0  0  0
   20.2047   -6.9890  -15.4385 O   0  0  0  0  0  0  0  0  0  0  0  0
  2  1  1  0
  3  4  1  6
  3  2  1  0
  5  3  1  0
  5  6  2  0
  7  8  1  0
  9  8  1  1
  9 10  1  0
  9 11  1  0
 10  5  1  0
 11 18  1  0
 11 12  2  0
 13 14  1  0
 14 15  1  0
 15 16  1  1
 17 15  1  0
 17 18  1  6
 19 20  1  0
 19 17  1  0
 21 19  2  0
M  END
$$$$
