SSI.pdb
     RDKit          3D

 21 20  0  0  1  0  0  0  0  0999 V2000
   24.0916   -3.0171  -19.3269 O   0  0  0  0  0  0  0  0  0  0  0  0
   23.7822   -4.3169  -19.7160 C   0  0  0  0  0  0  0  0  0  0  0  0
   24.3361   -5.2513  -18.6641 C   0  0  2  0  0  0  0  0  0  0  0  0
   25.0650   -6.3048  -19.3752 N   0  0  0  0  0  0  0  0  0  0  0  0
   23.2810   -5.9020  -17.8691 C   0  0  0  0  0  0  0  0  0  0  0  0
   22.4823   -6.7635  -18.3759 O   0  0  0  0  0  0  0  0  0  0  0  0
   22.2657   -4.5626  -14.0385 O   0  0  0  0  0  0  0  0  0  0  0  0
   22.2302   -5.9194  -14.2659 C   0  0  0  0  0  0  0  0  0  0  0  0
   21.9621   -6.2160  -15.7353 C   0  0  2  0  0  0  0  0  0  0  0  0
   23.0620   -5.6315  -16.4861 N   0  0  0  0  0  0  0  0  0  0  0  0
   20.6542   -5.6671  -16.1589 C   0  0  0  0  0  0  0  0  0  0  0  0
   20.5051   -4.4736  -16.5355 O   0  0  0  0  0  0  0  0  0  0  0  0
   15.5788   -7.7736  -18.7003 C   0  0  0  0  0  0  0  0  0  0  0  0
   16.2201   -6.7751  -17.7936 C   0  0  0  0  0  0  0  0  0  0  0  0
   17.6015   -7.2332  -17.3066 C   0  0  2  0  0  0  0  0  0  0  0  0
   17.4364   -8.4856  -16.4938 C   0  0  0  0  0  0  0  0  0  0  0  0
   18.1885   -6.0823  -16.5560 C   0  0  2  0  0  0  0  0  0  0  0  0
   19.5331   -6.5024  -16.1431 N   0  0  0  0  0  0  0  0  0  0  0  0
   17.4582   -5.6582  -15.3715 C   0  0  0  0  0  0  0  0  0  0  0  0
   17.8169   -6.0683  -14.1035 O   0  0  0  0  0  0  0  0  0  0  0  0
   16.4719   -4.8981  -15.4871 O   0  0  0  0  0  0  0  0  0  0  0  0
  2  1  1  0
  3  4  1  6
  3  2  1  0
  5  3  1  0
  5  6  2  0
  7  8  1  0
  9  8  1  1
  9 10  1  0
  9 11  1  0
 10  5  1  0
 11 18  1  0
 11 12  2  0
 13 14  1  0
 14 15  1  0
 15 16  1  1
 17 15  1  0
 17 18  1  1
 19 20  1  0
 19 17  1  0
 21 19  2  0
M  END
$$$$
