SSI.pdb
     RDKit          3D

 21 20  0  0  1  0  0  0  0  0999 V2000
   14.2809   -6.7444   -5.3283 O   0  0  0  0  0  0  0  0  0  0  0  0
   14.8305   -7.2795   -6.4894 C   0  0  0  0  0  0  0  0  0  0  0  0
   14.0175   -6.7667   -7.6565 C   0  0  2  0  0  0  0  0  0  0  0  0
   12.7012   -7.4043   -7.5683 N   0  0  0  0  0  0  0  0  0  0  0  0
   14.5998   -7.1313   -8.9591 C   0  0  0  0  0  0  0  0  0  0  0  0
   13.8874   -7.5931   -9.9164 O   0  0  0  0  0  0  0  0  0  0  0  0
   16.1013   -4.8900  -11.2284 O   0  0  0  0  0  0  0  0  0  0  0  0
   15.7440   -6.1922  -11.4941 C   0  0  0  0  0  0  0  0  0  0  0  0
   16.5172   -7.1582  -10.6065 C   0  0  2  0  0  0  0  0  0  0  0  0
   15.9877   -7.0030   -9.2609 N   0  0  0  0  0  0  0  0  0  0  0  0
   17.9708   -6.8833  -10.6606 C   0  0  0  0  0  0  0  0  0  0  0  0
   18.5630   -6.1733   -9.8041 O   0  0  0  0  0  0  0  0  0  0  0  0
   22.8132   -9.8681  -12.7780 C   0  0  0  0  0  0  0  0  0  0  0  0
   22.1914   -8.5693  -12.3822 C   0  0  0  0  0  0  0  0  0  0  0  0
   20.6597   -8.6496  -12.3270 C   0  0  2  0  0  0  0  0  0  0  0  0
   20.1444   -8.9935  -13.6954 C   0  0  0  0  0  0  0  0  0  0  0  0
   20.1858   -7.3339  -11.8009 C   0  0  2  0  0  0  0  0  0  0  0  0
   18.7244   -7.4315  -11.7030 N   0  0  0  0  0  0  0  0  0  0  0  0
   20.5129   -6.1710  -12.6115 C   0  0  0  0  0  0  0  0  0  0  0  0
   19.5561   -5.4908  -13.3370 O   0  0  0  0  0  0  0  0  0  0  0  0
   21.6932   -5.7609  -12.6640 O   0  0  0  0  0  0  0  0  0  0  0  0
  2  1  1  0
  3  4  1  6
  3  2  1  0
  5  3  1  0
  5  6  2  0
  7  8  1  0
  9  8  1  6
  9 10  1  0
  9 11  1  0
 10  5  1  0
 11 18  1  0
 11 12  2  0
 13 14  1  0
 14 15  1  0
 15 16  1  6
 17 15  1  0
 17 18  1  6
 19 20  1  0
 19 17  1  0
 21 19  2  0
M  END
$$$$
