SSI.pdb
     RDKit          3D

 21 20  0  0  1  0  0  0  0  0999 V2000
   16.6766  -13.2470  -14.0053 O   0  0  0  0  0  0  0  0  0  0  0  0
   16.0623  -13.8078  -15.1210 C   0  0  0  0  0  0  0  0  0  0  0  0
   15.2923  -12.7086  -15.8176 C   0  0  2  0  0  0  0  0  0  0  0  0
   14.6971  -13.3033  -17.0171 N   0  0  0  0  0  0  0  0  0  0  0  0
   16.1558  -11.5989  -16.2554 C   0  0  0  0  0  0  0  0  0  0  0  0
   17.0995  -11.7661  -17.1030 O   0  0  0  0  0  0  0  0  0  0  0  0
   17.0547   -6.8510  -16.3862 O   0  0  0  0  0  0  0  0  0  0  0  0
   16.2190   -7.9019  -16.0840 C   0  0  0  0  0  0  0  0  0  0  0  0
   16.9853   -9.2178  -16.0722 C   0  0  2  0  0  0  0  0  0  0  0  0
   16.0164  -10.2619  -15.7789 N   0  0  0  0  0  0  0  0  0  0  0  0
   18.0796   -9.1874  -15.0757 C   0  0  0  0  0  0  0  0  0  0  0  0
   17.9025   -9.4661  -13.8595 O   0  0  0  0  0  0  0  0  0  0  0  0
   23.3838  -10.9208  -13.9504 C   0  0  0  0  0  0  0  0  0  0  0  0
   22.7714   -9.5860  -14.2216 C   0  0  0  0  0  0  0  0  0  0  0  0
   21.5537   -9.6817  -15.1509 C   0  0  2  0  0  0  0  0  0  0  0  0
   21.9907   -9.3689  -16.5536 C   0  0  0  0  0  0  0  0  0  0  0  0
   20.5269   -8.7462  -14.6005 C   0  0  2  0  0  0  0  0  0  0  0  0
   19.3663   -8.8357  -15.4949 N   0  0  0  0  0  0  0  0  0  0  0  0
   20.9252   -7.3502  -14.5068 C   0  0  0  0  0  0  0  0  0  0  0  0
   20.6666   -6.4450  -15.5160 O   0  0  0  0  0  0  0  0  0  0  0  0
   21.5215   -6.9401  -13.4869 O   0  0  0  0  0  0  0  0  0  0  0  0
  2  1  1  0
  3  4  1  6
  3  2  1  0
  5  3  1  0
  5  6  2  0
  7  8  1  0
  9  8  1  1
  9 10  1  0
  9 11  1  0
 10  5  1  0
 11 18  1  0
 11 12  2  0
 13 14  1  0
 14 15  1  0
 15 16  1  6
 17 15  1  0
 17 18  1  6
 19 20  1  0
 19 17  1  0
 21 19  2  0
M  END
$$$$
