SSI.pdb
     RDKit          3D

 21 20  0  0  1  0  0  0  0  0999 V2000
   20.1579  -13.9781  -18.3155 O   0  0  0  0  0  0  0  0  0  0  0  0
   19.6363  -12.7150  -18.0527 C   0  0  0  0  0  0  0  0  0  0  0  0
   19.3098  -12.6548  -16.5776 C   0  0  2  0  0  0  0  0  0  0  0  0
   18.1547  -13.5304  -16.3635 N   0  0  0  0  0  0  0  0  0  0  0  0
   18.9290  -11.3031  -16.1341 C   0  0  0  0  0  0  0  0  0  0  0  0
   17.7365  -10.8572  -16.2611 O   0  0  0  0  0  0  0  0  0  0  0  0
   18.1305   -8.1251  -13.3087 O   0  0  0  0  0  0  0  0  0  0  0  0
   18.3843   -9.2912  -13.9941 C   0  0  0  0  0  0  0  0  0  0  0  0
   19.4440   -9.0707  -15.0652 C   0  0  2  0  0  0  0  0  0  0  0  0
   19.8437  -10.3882  -15.5338 N   0  0  0  0  0  0  0  0  0  0  0  0
   20.5924   -8.3063  -14.5282 C   0  0  0  0  0  0  0  0  0  0  0  0
   21.4562   -8.8183  -13.7666 O   0  0  0  0  0  0  0  0  0  0  0  0
   24.3570   -4.6401  -17.1762 C   0  0  0  0  0  0  0  0  0  0  0  0
   23.6770   -4.9377  -15.8805 C   0  0  0  0  0  0  0  0  0  0  0  0
   22.4169   -5.7939  -16.0671 C   0  0  2  0  0  0  0  0  0  0  0  0
   21.4082   -5.0044  -16.8515 C   0  0  0  0  0  0  0  0  0  0  0  0
   21.9653   -6.1860  -14.6978 C   0  0  2  0  0  0  0  0  0  0  0  0
   20.7306   -6.9593  -14.8769 N   0  0  0  0  0  0  0  0  0  0  0  0
   21.6893   -5.0898  -13.7822 C   0  0  0  0  0  0  0  0  0  0  0  0
   20.4166   -4.5869  -13.6035 O   0  0  0  0  0  0  0  0  0  0  0  0
   22.6227   -4.5749  -13.1282 O   0  0  0  0  0  0  0  0  0  0  0  0
  2  1  1  0
  3  4  1  6
  3  2  1  0
  5  3  1  0
  5  6  2  0
  7  8  1  0
  9  8  1  1
  9 10  1  0
  9 11  1  0
 10  5  1  0
 11 18  1  0
 11 12  2  0
 13 14  1  0
 14 15  1  0
 15 16  1  1
 17 15  1  0
 17 18  1  6
 19 20  1  0
 19 17  1  0
 21 19  2  0
M  END
$$$$
