SSI.pdb
     RDKit          3D

 21 20  0  0  1  0  0  0  0  0999 V2000
   34.7202  -24.2677  -19.7659 O   0  0  0  0  0  0  0  0  0  0  0  0
   33.5533  -24.9171  -19.3746 C   0  0  0  0  0  0  0  0  0  0  0  0
   33.5285  -24.9380  -17.8629 C   0  0  2  0  0  0  0  0  0  0  0  0
   34.4691  -25.9781  -17.4383 N   0  0  0  0  0  0  0  0  0  0  0  0
   32.2052  -25.2894  -17.3206 C   0  0  0  0  0  0  0  0  0  0  0  0
   31.9026  -26.4881  -16.9911 O   0  0  0  0  0  0  0  0  0  0  0  0
   28.9957  -22.6469  -17.4317 O   0  0  0  0  0  0  0  0  0  0  0  0
   29.1351  -23.3917  -16.2829 C   0  0  0  0  0  0  0  0  0  0  0  0
   29.8654  -24.6972  -16.5685 C   0  0  2  0  0  0  0  0  0  0  0  0
   31.1625  -24.3375  -17.1192 N   0  0  0  0  0  0  0  0  0  0  0  0
   29.0898  -25.5482  -17.4989 C   0  0  0  0  0  0  0  0  0  0  0  0
   29.1971  -25.4627  -18.7517 O   0  0  0  0  0  0  0  0  0  0  0  0
   26.5055  -31.0384  -17.4926 C   0  0  0  0  0  0  0  0  0  0  0  0
   26.5113  -29.6323  -17.9955 C   0  0  0  0  0  0  0  0  0  0  0  0
   27.4011  -28.7138  -17.1469 C   0  0  2  0  0  0  0  0  0  0  0  0
   26.9117  -28.7443  -15.7270 C   0  0  0  0  0  0  0  0  0  0  0  0
   27.3511  -27.3655  -17.7888 C   0  0  2  0  0  0  0  0  0  0  0  0
   28.1993  -26.4887  -16.9722 N   0  0  0  0  0  0  0  0  0  0  0  0
   26.0325  -26.7596  -17.8914 C   0  0  0  0  0  0  0  0  0  0  0  0
   25.1249  -27.1392  -18.8593 O   0  0  0  0  0  0  0  0  0  0  0  0
   25.6939  -25.8653  -17.0855 O   0  0  0  0  0  0  0  0  0  0  0  0
  2  1  1  0
  3  4  1  6
  3  2  1  0
  5  3  1  0
  5  6  2  0
  7  8  1  0
  9  8  1  6
  9 10  1  0
  9 11  1  0
 10  5  1  0
 11 18  1  0
 11 12  2  0
 13 14  1  0
 14 15  1  0
 15 16  1  1
 17 15  1  0
 17 18  1  1
 19 20  1  0
 19 17  1  0
 21 19  2  0
M  END
$$$$
