SSI.pdb
     RDKit          3D

 21 20  0  0  1  0  0  0  0  0999 V2000
   17.5647   -8.5725  -18.4104 O   0  0  0  0  0  0  0  0  0  0  0  0
   16.7838   -9.5131  -17.7455 C   0  0  0  0  0  0  0  0  0  0  0  0
   17.7203  -10.4414  -17.0056 C   0  0  2  0  0  0  0  0  0  0  0  0
   16.8847  -11.4473  -16.3447 N   0  0  0  0  0  0  0  0  0  0  0  0
   18.4947   -9.7524  -15.9595 C   0  0  0  0  0  0  0  0  0  0  0  0
   17.9311   -9.1677  -14.9709 O   0  0  0  0  0  0  0  0  0  0  0  0
   22.6689   -9.8916  -15.8370 O   0  0  0  0  0  0  0  0  0  0  0  0
   21.9387   -9.7124  -14.6844 C   0  0  0  0  0  0  0  0  0  0  0  0
   20.6666   -8.9239  -14.9656 C   0  0  2  0  0  0  0  0  0  0  0  0
   19.9190   -9.6790  -15.9587 N   0  0  0  0  0  0  0  0  0  0  0  0
   20.9814   -7.5564  -15.4371 C   0  0  0  0  0  0  0  0  0  0  0  0
   21.0757   -7.2609  -16.6586 O   0  0  0  0  0  0  0  0  0  0  0  0
   19.0729   -2.4262  -16.0427 C   0  0  0  0  0  0  0  0  0  0  0  0
   20.3182   -3.0995  -15.5674 C   0  0  0  0  0  0  0  0  0  0  0  0
   20.0779   -4.5664  -15.1854 C   0  0  2  0  0  0  0  0  0  0  0  0
   19.0684   -4.6172  -14.0743 C   0  0  0  0  0  0  0  0  0  0  0  0
   21.4136   -5.1360  -14.8331 C   0  0  2  0  0  0  0  0  0  0  0  0
   21.1837   -6.5453  -14.4927 N   0  0  0  0  0  0  0  0  0  0  0  0
   22.0999   -4.5025  -13.7179 C   0  0  0  0  0  0  0  0  0  0  0  0
   22.1609   -5.0853  -12.4684 O   0  0  0  0  0  0  0  0  0  0  0  0
   22.6577   -3.3948  -13.8784 O   0  0  0  0  0  0  0  0  0  0  0  0
  2  1  1  0
  3  4  1  1
  3  2  1  0
  5  3  1  0
  5  6  2  0
  7  8  1  0
  9  8  1  6
  9 10  1  0
  9 11  1  0
 10  5  1  0
 11 18  1  0
 11 12  2  0
 13 14  1  0
 14 15  1  0
 15 16  1  1
 17 15  1  0
 17 18  1  1
 19 20  1  0
 19 17  1  0
 21 19  2  0
M  END
$$$$
