SSI.pdb
     RDKit          3D

 21 20  0  0  1  0  0  0  0  0999 V2000
   15.7312   -9.5510  -17.6622 O   0  0  0  0  0  0  0  0  0  0  0  0
   16.4442   -9.2012  -16.5195 C   0  0  0  0  0  0  0  0  0  0  0  0
   17.3631  -10.3545  -16.1851 C   0  0  2  0  0  0  0  0  0  0  0  0
   16.6416  -11.2104  -15.2398 N   0  0  0  0  0  0  0  0  0  0  0  0
   18.6066   -9.9186  -15.5275 C   0  0  0  0  0  0  0  0  0  0  0  0
   18.6100   -9.3914  -14.3617 O   0  0  0  0  0  0  0  0  0  0  0  0
   22.5946  -11.3313  -15.6094 O   0  0  0  0  0  0  0  0  0  0  0  0
   22.2798  -10.1395  -16.2215 C   0  0  0  0  0  0  0  0  0  0  0  0
   21.0952   -9.4735  -15.5344 C   0  0  2  0  0  0  0  0  0  0  0  0
   19.8953  -10.0447  -16.1253 N   0  0  0  0  0  0  0  0  0  0  0  0
   21.1426   -8.0031  -15.6986 C   0  0  0  0  0  0  0  0  0  0  0  0
   20.8400   -7.4272  -16.7780 O   0  0  0  0  0  0  0  0  0  0  0  0
   19.0483   -3.2115  -15.4504 C   0  0  0  0  0  0  0  0  0  0  0  0
   20.0557   -3.8134  -14.5268 C   0  0  0  0  0  0  0  0  0  0  0  0
   20.0801   -5.3457  -14.6100 C   0  0  2  0  0  0  0  0  0  0  0  0
   19.2839   -5.9044  -13.4653 C   0  0  0  0  0  0  0  0  0  0  0  0
   21.5195   -5.7462  -14.6150 C   0  0  2  0  0  0  0  0  0  0  0  0
   21.5388   -7.2140  -14.6144 N   0  0  0  0  0  0  0  0  0  0  0  0
   22.3127   -5.2782  -13.4890 C   0  0  0  0  0  0  0  0  0  0  0  0
   22.5606   -6.0714  -12.3871 O   0  0  0  0  0  0  0  0  0  0  0  0
   22.7930   -4.1236  -13.5029 O   0  0  0  0  0  0  0  0  0  0  0  0
  2  1  1  0
  3  4  1  1
  3  2  1  0
  5  3  1  0
  5  6  2  0
  7  8  1  0
  9  8  1  6
  9 10  1  0
  9 11  1  0
 10  5  1  0
 11 18  1  0
 11 12  2  0
 13 14  1  0
 14 15  1  0
 15 16  1  1
 17 15  1  0
 17 18  1  1
 19 20  1  0
 19 17  1  0
 21 19  2  0
M  END
$$$$
