SSI.pdb
     RDKit          3D

 21 20  0  0  1  0  0  0  0  0999 V2000
   26.8285  -22.0258  -20.7413 O   0  0  0  0  0  0  0  0  0  0  0  0
   27.1777  -21.8563  -19.4049 C   0  0  0  0  0  0  0  0  0  0  0  0
   27.4515  -20.3850  -19.1889 C   0  0  2  0  0  0  0  0  0  0  0  0
   28.9008  -20.2028  -19.3029 N   0  0  0  0  0  0  0  0  0  0  0  0
   27.0511  -19.9228  -17.8492 C   0  0  0  0  0  0  0  0  0  0  0  0
   27.8687  -19.9019  -16.8652 O   0  0  0  0  0  0  0  0  0  0  0  0
   23.0476  -18.9443  -16.8006 O   0  0  0  0  0  0  0  0  0  0  0  0
   24.0996  -18.1554  -16.3944 C   0  0  0  0  0  0  0  0  0  0  0  0
   25.3632  -18.9863  -16.2166 C   0  0  2  0  0  0  0  0  0  0  0  0
   25.7365  -19.4655  -17.5380 N   0  0  0  0  0  0  0  0  0  0  0  0
   25.1375  -20.1023  -15.2705 C   0  0  0  0  0  0  0  0  0  0  0  0
   24.8084  -21.2593  -15.6466 O   0  0  0  0  0  0  0  0  0  0  0  0
   28.7219  -21.0383  -11.9050 C   0  0  0  0  0  0  0  0  0  0  0  0
   27.4673  -21.2174  -12.6950 C   0  0  0  0  0  0  0  0  0  0  0  0
   26.2204  -20.7767  -11.9160 C   0  0  2  0  0  0  0  0  0  0  0  0
   26.0934  -21.6287  -10.6855 C   0  0  0  0  0  0  0  0  0  0  0  0
   25.0700  -20.8840  -12.8634 C   0  0  2  0  0  0  0  0  0  0  0  0
   25.2945  -19.8699  -13.9007 N   0  0  0  0  0  0  0  0  0  0  0  0
   23.7517  -20.6657  -12.2885 C   0  0  0  0  0  0  0  0  0  0  0  0
   22.9263  -21.7119  -11.9295 O   0  0  0  0  0  0  0  0  0  0  0  0
   23.3370  -19.5000  -12.1066 O   0  0  0  0  0  0  0  0  0  0  0  0
  2  1  1  0
  3  4  1  1
  3  2  1  0
  5  3  1  0
  5  6  2  0
  7  8  1  0
  9  8  1  6
  9 10  1  0
  9 11  1  0
 10  5  1  0
 11 18  1  0
 11 12  2  0
 13 14  1  0
 14 15  1  0
 15 16  1  1
 17 15  1  0
 17 18  1  6
 19 20  1  0
 19 17  1  0
 21 19  2  0
M  END
$$$$
