SSI.pdb
     RDKit          3D

 21 20  0  0  1  0  0  0  0  0999 V2000
   30.7770    2.8673  -10.9921 O   0  0  0  0  0  0  0  0  0  0  0  0
   30.7907    3.2366   -9.6505 C   0  0  0  0  0  0  0  0  0  0  0  0
   29.9488    4.4851   -9.5131 C   0  0  2  0  0  0  0  0  0  0  0  0
   30.8591    5.6260   -9.6419 N   0  0  0  0  0  0  0  0  0  0  0  0
   29.2940    4.5875   -8.1980 C   0  0  0  0  0  0  0  0  0  0  0  0
   29.9181    4.9949   -7.1581 O   0  0  0  0  0  0  0  0  0  0  0  0
   25.2110    4.5663   -7.7958 O   0  0  0  0  0  0  0  0  0  0  0  0
   26.0225    5.1374   -6.8423 C   0  0  0  0  0  0  0  0  0  0  0  0
   27.3010    4.3295   -6.6641 C   0  0  2  0  0  0  0  0  0  0  0  0
   27.9275    4.2461   -7.9740 N   0  0  0  0  0  0  0  0  0  0  0  0
   27.0101    2.9891   -6.1073 C   0  0  0  0  0  0  0  0  0  0  0  0
   26.6882    2.0064   -6.8278 O   0  0  0  0  0  0  0  0  0  0  0  0
   30.3886    0.5944   -3.3107 C   0  0  0  0  0  0  0  0  0  0  0  0
   29.1738    1.0143   -4.0710 C   0  0  0  0  0  0  0  0  0  0  0  0
   27.9658    1.2511   -3.1545 C   0  0  2  0  0  0  0  0  0  0  0  0
   27.7932    0.0540   -2.2637 C   0  0  0  0  0  0  0  0  0  0  0  0
   26.8026    1.5274   -4.0506 C   0  0  2  0  0  0  0  0  0  0  0  0
   27.0945    2.7982   -4.7247 N   0  0  0  0  0  0  0  0  0  0  0  0
   25.5095    1.6444   -3.3946 C   0  0  0  0  0  0  0  0  0  0  0  0
   24.6199    0.5909   -3.3349 O   0  0  0  0  0  0  0  0  0  0  0  0
   25.1769    2.7262   -2.8626 O   0  0  0  0  0  0  0  0  0  0  0  0
  2  1  1  0
  3  4  1  1
  3  2  1  0
  5  3  1  0
  5  6  2  0
  7  8  1  0
  9  8  1  6
  9 10  1  0
  9 11  1  0
 10  5  1  0
 11 18  1  0
 11 12  2  0
 13 14  1  0
 14 15  1  0
 15 16  1  6
 17 15  1  0
 17 18  1  1
 19 20  1  0
 19 17  1  0
 21 19  2  0
M  END
$$$$
