SSI.pdb
     RDKit          3D

 21 20  0  0  1  0  0  0  0  0999 V2000
   13.7942  -10.4865  -17.9835 O   0  0  0  0  0  0  0  0  0  0  0  0
   15.0671   -9.9762  -17.7472 C   0  0  0  0  0  0  0  0  0  0  0  0
   16.0269  -10.7052  -18.6604 C   0  0  2  0  0  0  0  0  0  0  0  0
   15.8464  -12.1371  -18.4081 N   0  0  0  0  0  0  0  0  0  0  0  0
   17.4358  -10.3803  -18.3805 C   0  0  0  0  0  0  0  0  0  0  0  0
   18.1796  -11.1399  -17.6686 O   0  0  0  0  0  0  0  0  0  0  0  0
   19.1619   -6.5817  -19.0855 O   0  0  0  0  0  0  0  0  0  0  0  0
   19.8497   -7.7132  -19.4606 C   0  0  0  0  0  0  0  0  0  0  0  0
   19.4719   -8.8949  -18.5775 C   0  0  2  0  0  0  0  0  0  0  0  0
   18.0825   -9.2081  -18.8719 N   0  0  0  0  0  0  0  0  0  0  0  0
   19.6721   -8.5749  -17.1460 C   0  0  0  0  0  0  0  0  0  0  0  0
   18.7274   -8.2330  -16.3851 O   0  0  0  0  0  0  0  0  0  0  0  0
   21.9756  -10.3399  -12.3290 C   0  0  0  0  0  0  0  0  0  0  0  0
   22.4132   -9.2445  -13.2448 C   0  0  0  0  0  0  0  0  0  0  0  0
   22.0707   -9.5396  -14.7114 C   0  0  2  0  0  0  0  0  0  0  0  0
   23.3456   -9.7959  -15.4632 C   0  0  0  0  0  0  0  0  0  0  0  0
   21.2862   -8.3683  -15.2066 C   0  0  2  0  0  0  0  0  0  0  0  0
   20.9607   -8.6536  -16.6093 N   0  0  0  0  0  0  0  0  0  0  0  0
   21.9612   -7.0811  -15.1467 C   0  0  0  0  0  0  0  0  0  0  0  0
   22.4365   -6.4494  -16.2780 O   0  0  0  0  0  0  0  0  0  0  0  0
   22.1246   -6.5145  -14.0438 O   0  0  0  0  0  0  0  0  0  0  0  0
  2  1  1  0
  3  4  1  1
  3  2  1  0
  5  3  1  0
  5  6  2  0
  7  8  1  0
  9  8  1  6
  9 10  1  0
  9 11  1  0
 10  5  1  0
 11 18  1  0
 11 12  2  0
 13 14  1  0
 14 15  1  0
 15 16  1  6
 17 15  1  0
 17 18  1  6
 19 20  1  0
 19 17  1  0
 21 19  2  0
M  END
$$$$
