TDM.pdb
     RDKit          3D

 24 23  0  0  1  0  0  0  0  0999 V2000
    8.0626  -12.6426   18.7430 C   0  0  0  0  0  0  0  0  0  0  0  0
    8.5467  -13.4984   19.8785 C   0  0  1  0  0  0  0  0  0  0  0  0
    8.4878  -12.7935   21.0713 O   0  0  0  0  0  0  0  0  0  0  0  0
    7.7701  -14.8043   19.9666 C   0  0  2  0  0  0  0  0  0  0  0  0
    6.3543  -14.4920   19.9906 N   0  0  0  0  0  0  0  0  0  0  0  0
    8.1918  -15.6189   21.1063 C   0  0  0  0  0  0  0  0  0  0  0  0
    7.4125  -15.6272   22.1156 O   0  0  0  0  0  0  0  0  0  0  0  0
    9.3836  -16.3890   21.1734 N   0  0  0  0  0  0  0  0  0  0  0  0
    9.7402  -17.0517   22.3820 C   0  0  1  0  0  0  0  0  0  0  0  0
   10.9183  -17.9896   22.2152 C   0  0  0  0  0  0  0  0  0  0  0  0
   11.2416  -18.7134   23.4475 C   0  0  0  0  0  0  0  0  0  0  0  0
   12.2666  -18.4125   24.1124 O   0  0  0  0  0  0  0  0  0  0  0  0
    9.9549  -16.1110   23.5191 C   0  0  0  0  0  0  0  0  0  0  0  0
   10.7506  -15.1591   23.3334 O   0  0  0  0  0  0  0  0  0  0  0  0
   10.4682  -19.7478   23.9536 O   0  0  0  0  0  0  0  0  0  0  0  0
    5.6155  -12.8114   26.3697 C   0  0  0  0  0  0  0  0  0  0  0  0
    7.1188  -12.1765   27.1125 S   0  0  0  0  0  0  0  0  0  0  0  0
    8.4530  -13.4073   27.0942 C   0  0  0  0  0  0  0  0  0  0  0  0
    8.3200  -14.3714   25.9589 C   0  0  0  0  0  0  0  0  0  0  0  0
    9.4824  -15.2914   25.8733 C   0  0  2  0  0  0  0  0  0  0  0  0
    9.3136  -16.2452   24.7683 N   0  0  0  0  0  0  0  0  0  0  0  0
    9.7283  -15.9761   27.1334 C   0  0  0  0  0  0  0  0  0  0  0  0
   10.0717  -15.3176   28.2832 O   0  0  0  0  0  0  0  0  0  0  0  0
    9.6238  -17.2332   27.1669 O   0  0  0  0  0  0  0  0  0  0  0  0
  2  1  1  6
  3  2  1  0
  4  2  1  0
  4  6  1  0
  4  5  1  1
  6  7  2  0
  8  6  1  0
  8  9  1  0
  9 10  1  6
 10 11  1  0
 11 12  2  0
 13  9  1  0
 13 21  1  0
 14 13  2  0
 15 11  1  0
 16 17  1  0
 18 17  1  0
 19 18  1  0
 20 21  1  0
 20 19  1  1
 22 20  1  0
 23 22  1  0
 24 22  2  0
M  END
$$$$
