TDM.pdb
     RDKit          3D

 24 23  0  0  1  0  0  0  0  0999 V2000
    9.0909  -12.6769   20.2873 C   0  0  0  0  0  0  0  0  0  0  0  0
    8.0354  -13.3119   19.4278 C   0  0  1  0  0  0  0  0  0  0  0  0
    7.7893  -12.5282   18.3104 O   0  0  0  0  0  0  0  0  0  0  0  0
    8.4116  -14.7337   19.0367 C   0  0  2  0  0  0  0  0  0  0  0  0
    7.3133  -15.3045   18.2814 N   0  0  0  0  0  0  0  0  0  0  0  0
    8.7845  -15.5427   20.1972 C   0  0  0  0  0  0  0  0  0  0  0  0
    7.8314  -15.9126   20.9593 O   0  0  0  0  0  0  0  0  0  0  0  0
   10.1056  -15.9414   20.5343 N   0  0  0  0  0  0  0  0  0  0  0  0
   10.3561  -16.6263   21.7572 C   0  0  1  0  0  0  0  0  0  0  0  0
   11.7154  -17.2945   21.7914 C   0  0  0  0  0  0  0  0  0  0  0  0
   11.8741  -18.3039   20.7411 C   0  0  0  0  0  0  0  0  0  0  0  0
   10.9686  -19.1518   20.5310 O   0  0  0  0  0  0  0  0  0  0  0  0
   10.1455  -15.7674   22.9579 C   0  0  0  0  0  0  0  0  0  0  0  0
   10.8094  -14.7052   23.0267 O   0  0  0  0  0  0  0  0  0  0  0  0
   12.9957  -18.3954   19.9299 O   0  0  0  0  0  0  0  0  0  0  0  0
    6.1919  -11.1104   26.2106 C   0  0  0  0  0  0  0  0  0  0  0  0
    5.9583  -12.8793   26.3874 S   0  0  0  0  0  0  0  0  0  0  0  0
    7.5401  -13.7691   26.4212 C   0  0  0  0  0  0  0  0  0  0  0  0
    7.7686  -14.5678   25.1779 C   0  0  0  0  0  0  0  0  0  0  0  0
    9.0744  -15.2743   25.2045 C   0  0  2  0  0  0  0  0  0  0  0  0
    9.2497  -16.0938   23.9975 N   0  0  0  0  0  0  0  0  0  0  0  0
    9.2398  -16.0666   26.4135 C   0  0  0  0  0  0  0  0  0  0  0  0
    9.3809  -15.5084   27.6553 O   0  0  0  0  0  0  0  0  0  0  0  0
    9.2576  -17.3243   26.3124 O   0  0  0  0  0  0  0  0  0  0  0  0
  2  1  1  6
  3  2  1  0
  4  2  1  0
  4  6  1  0
  4  5  1  1
  6  7  2  0
  8  6  1  0
  8  9  1  0
  9 10  1  6
 10 11  1  0
 11 12  2  0
 13  9  1  0
 13 21  1  0
 14 13  2  0
 15 11  1  0
 16 17  1  0
 18 17  1  0
 19 18  1  0
 20 21  1  0
 20 19  1  6
 22 20  1  0
 23 22  1  0
 24 22  2  0
M  END
$$$$
