TDM.pdb
     RDKit          3D

 24 23  0  0  1  0  0  0  0  0999 V2000
    9.4488  -12.6359   19.6512 C   0  0  0  0  0  0  0  0  0  0  0  0
    8.1074  -13.1380   19.1986 C   0  0  1  0  0  0  0  0  0  0  0  0
    7.6934  -12.4512   18.0671 O   0  0  0  0  0  0  0  0  0  0  0  0
    8.1227  -14.6411   18.9610 C   0  0  2  0  0  0  0  0  0  0  0  0
    6.8179  -15.0381   18.4686 N   0  0  0  0  0  0  0  0  0  0  0  0
    8.5293  -15.3823   20.1549 C   0  0  0  0  0  0  0  0  0  0  0  0
    7.6163  -15.6182   21.0133 O   0  0  0  0  0  0  0  0  0  0  0  0
    9.8422  -15.8520   20.4267 N   0  0  0  0  0  0  0  0  0  0  0  0
   10.0996  -16.6182   21.5988 C   0  0  1  0  0  0  0  0  0  0  0  0
   11.4243  -17.3515   21.5451 C   0  0  0  0  0  0  0  0  0  0  0  0
   11.6731  -18.1549   22.7450 C   0  0  0  0  0  0  0  0  0  0  0  0
   10.7453  -18.8272   23.2647 O   0  0  0  0  0  0  0  0  0  0  0  0
    9.9730  -15.8218   22.8531 C   0  0  0  0  0  0  0  0  0  0  0  0
   10.8241  -14.9212   23.0490 O   0  0  0  0  0  0  0  0  0  0  0  0
   12.9072  -18.2302   23.3740 O   0  0  0  0  0  0  0  0  0  0  0  0
    6.5193  -10.9514   27.2432 C   0  0  0  0  0  0  0  0  0  0  0  0
    6.2666  -12.5059   26.3862 S   0  0  0  0  0  0  0  0  0  0  0  0
    7.8302  -13.3846   26.1065 C   0  0  0  0  0  0  0  0  0  0  0  0
    7.6454  -14.6276   25.2959 C   0  0  0  0  0  0  0  0  0  0  0  0
    8.9204  -15.3674   25.1165 C   0  0  2  0  0  0  0  0  0  0  0  0
    8.9571  -16.0353   23.8082 N   0  0  0  0  0  0  0  0  0  0  0  0
    9.1608  -16.3079   26.2003 C   0  0  0  0  0  0  0  0  0  0  0  0
    9.2646  -17.6586   26.0039 O   0  0  0  0  0  0  0  0  0  0  0  0
    9.2752  -15.8589   27.3740 O   0  0  0  0  0  0  0  0  0  0  0  0
  2  1  1  6
  3  2  1  0
  4  2  1  0
  4  6  1  0
  4  5  1  1
  6  7  2  0
  8  6  1  0
  8  9  1  0
  9 10  1  6
 10 11  1  0
 11 12  2  0
 13  9  1  0
 13 21  1  0
 14 13  2  0
 15 11  1  0
 16 17  1  0
 18 17  1  0
 19 18  1  0
 20 21  1  0
 20 19  1  1
 22 20  1  0
 23 22  1  0
 24 22  2  0
M  END
$$$$
