TDM.pdb
     RDKit          3D

 24 23  0  0  1  0  0  0  0  0999 V2000
   10.0004  -13.0738   17.2764 C   0  0  0  0  0  0  0  0  0  0  0  0
    9.7878  -13.7726   18.5890 C   0  0  1  0  0  0  0  0  0  0  0  0
    9.9267  -12.8771   19.6388 O   0  0  0  0  0  0  0  0  0  0  0  0
    8.4405  -14.4787   18.6362 C   0  0  2  0  0  0  0  0  0  0  0  0
    7.4044  -13.5028   18.3590 N   0  0  0  0  0  0  0  0  0  0  0  0
    8.2334  -15.1837   19.9013 C   0  0  0  0  0  0  0  0  0  0  0  0
    7.3811  -14.6737   20.7008 O   0  0  0  0  0  0  0  0  0  0  0  0
    8.8983  -16.3739   20.3004 N   0  0  0  0  0  0  0  0  0  0  0  0
    8.5708  -16.9955   21.5388 C   0  0  1  0  0  0  0  0  0  0  0  0
    9.1517  -18.3885   21.6715 C   0  0  0  0  0  0  0  0  0  0  0  0
    8.6772  -19.2993   20.6264 C   0  0  0  0  0  0  0  0  0  0  0  0
    9.4929  -19.8456   19.8395 O   0  0  0  0  0  0  0  0  0  0  0  0
    8.9123  -16.1524   22.7205 C   0  0  0  0  0  0  0  0  0  0  0  0
   10.1115  -15.8087   22.8522 O   0  0  0  0  0  0  0  0  0  0  0  0
    7.3400  -19.6148   20.4346 O   0  0  0  0  0  0  0  0  0  0  0  0
    6.2151  -10.8530   27.9429 C   0  0  0  0  0  0  0  0  0  0  0  0
    5.8633  -12.0399   26.6458 S   0  0  0  0  0  0  0  0  0  0  0  0
    7.3284  -13.0199   26.2119 C   0  0  0  0  0  0  0  0  0  0  0  0
    7.0580  -13.9832   25.1005 C   0  0  0  0  0  0  0  0  0  0  0  0
    8.2608  -14.7821   24.7540 C   0  0  2  0  0  0  0  0  0  0  0  0
    7.9622  -15.7349   23.6758 N   0  0  0  0  0  0  0  0  0  0  0  0
    8.8213  -15.4538   25.9166 C   0  0  0  0  0  0  0  0  0  0  0  0
    9.7166  -14.8554   26.7617 O   0  0  0  0  0  0  0  0  0  0  0  0
    8.4692  -16.6420   26.1545 O   0  0  0  0  0  0  0  0  0  0  0  0
  2  1  1  6
  3  2  1  0
  4  2  1  0
  4  6  1  0
  4  5  1  1
  6  7  2  0
  8  6  1  0
  8  9  1  0
  9 10  1  1
 10 11  1  0
 11 12  2  0
 13  9  1  0
 13 21  1  0
 14 13  2  0
 15 11  1  0
 16 17  1  0
 18 17  1  0
 19 18  1  0
 20 21  1  0
 20 19  1  1
 22 20  1  0
 23 22  1  0
 24 22  2  0
M  END
$$$$
