TDM.pdb
     RDKit          3D

 24 23  0  0  1  0  0  0  0  0999 V2000
    9.8092  -12.5252   19.6272 C   0  0  0  0  0  0  0  0  0  0  0  0
    8.6269  -12.9793   18.8196 C   0  0  1  0  0  0  0  0  0  0  0  0
    8.5718  -12.2896   17.6177 O   0  0  0  0  0  0  0  0  0  0  0  0
    8.6460  -14.4844   18.5955 C   0  0  2  0  0  0  0  0  0  0  0  0
    7.4864  -14.8419   17.8018 N   0  0  0  0  0  0  0  0  0  0  0  0
    8.7243  -15.2267   19.8538 C   0  0  0  0  0  0  0  0  0  0  0  0
    7.6846  -15.2014   20.5917 O   0  0  0  0  0  0  0  0  0  0  0  0
    9.8515  -15.9617   20.3089 N   0  0  0  0  0  0  0  0  0  0  0  0
    9.7851  -16.6898   21.5306 C   0  0  1  0  0  0  0  0  0  0  0  0
   10.8773  -17.7323   21.6562 C   0  0  0  0  0  0  0  0  0  0  0  0
   10.8360  -18.7247   20.5790 C   0  0  0  0  0  0  0  0  0  0  0  0
   11.8583  -18.9493   19.8808 O   0  0  0  0  0  0  0  0  0  0  0  0
    9.7398  -15.8069   22.7316 C   0  0  0  0  0  0  0  0  0  0  0  0
   10.4121  -14.7486   22.6910 O   0  0  0  0  0  0  0  0  0  0  0  0
    9.7057  -19.4634   20.2610 O   0  0  0  0  0  0  0  0  0  0  0  0
    6.0232  -11.2618   27.4663 C   0  0  0  0  0  0  0  0  0  0  0  0
    6.0641  -12.4646   26.1373 S   0  0  0  0  0  0  0  0  0  0  0  0
    7.6072  -13.4207   26.1392 C   0  0  0  0  0  0  0  0  0  0  0  0
    7.6696  -14.3998   25.0107 C   0  0  0  0  0  0  0  0  0  0  0  0
    8.9070  -15.2194   25.0551 C   0  0  2  0  0  0  0  0  0  0  0  0
    8.9880  -16.1070   23.8868 N   0  0  0  0  0  0  0  0  0  0  0  0
    9.0207  -15.9661   26.2987 C   0  0  0  0  0  0  0  0  0  0  0  0
    9.1849  -15.3628   27.5164 O   0  0  0  0  0  0  0  0  0  0  0  0
    8.9692  -17.2261   26.2522 O   0  0  0  0  0  0  0  0  0  0  0  0
  2  1  1  6
  3  2  1  0
  4  2  1  0
  4  6  1  0
  4  5  1  1
  6  7  2  0
  8  6  1  0
  8  9  1  0
  9 10  1  1
 10 11  1  0
 11 12  2  0
 13  9  1  0
 13 21  1  0
 14 13  2  0
 15 11  1  0
 16 17  1  0
 18 17  1  0
 19 18  1  0
 20 21  1  0
 20 19  1  1
 22 20  1  0
 23 22  1  0
 24 22  2  0
M  END
$$$$
