TDM.pdb
     RDKit          3D

 24 23  0  0  1  0  0  0  0  0999 V2000
    8.0584  -12.7758   18.4733 C   0  0  0  0  0  0  0  0  0  0  0  0
    8.4788  -13.6042   19.6537 C   0  0  1  0  0  0  0  0  0  0  0  0
    7.6871  -13.3108   20.7538 O   0  0  0  0  0  0  0  0  0  0  0  0
    8.4531  -15.0915   19.3322 C   0  0  2  0  0  0  0  0  0  0  0  0
    7.1203  -15.4366   18.8770 N   0  0  0  0  0  0  0  0  0  0  0  0
    8.8961  -15.9062   20.4636 C   0  0  0  0  0  0  0  0  0  0  0  0
    7.9814  -16.3570   21.2293 O   0  0  0  0  0  0  0  0  0  0  0  0
   10.2454  -16.2286   20.7695 N   0  0  0  0  0  0  0  0  0  0  0  0
   10.5636  -16.8940   21.9874 C   0  0  1  0  0  0  0  0  0  0  0  0
   11.9284  -17.5512   21.9614 C   0  0  0  0  0  0  0  0  0  0  0  0
   12.0853  -18.4809   20.8397 C   0  0  0  0  0  0  0  0  0  0  0  0
   11.2509  -19.4047   20.6570 O   0  0  0  0  0  0  0  0  0  0  0  0
   10.4072  -16.0197   23.1853 C   0  0  0  0  0  0  0  0  0  0  0  0
   11.1907  -15.0457   23.2905 O   0  0  0  0  0  0  0  0  0  0  0  0
   13.1294  -18.4131   19.9289 O   0  0  0  0  0  0  0  0  0  0  0  0
    6.7804  -11.1163   27.5983 C   0  0  0  0  0  0  0  0  0  0  0  0
    6.7630  -12.3128   26.2631 S   0  0  0  0  0  0  0  0  0  0  0  0
    8.0737  -13.5544   26.4520 C   0  0  0  0  0  0  0  0  0  0  0  0
    8.2190  -14.4154   25.2380 C   0  0  0  0  0  0  0  0  0  0  0  0
    9.3110  -15.4099   25.3907 C   0  0  2  0  0  0  0  0  0  0  0  0
    9.4352  -16.2389   24.1838 N   0  0  0  0  0  0  0  0  0  0  0  0
    9.1394  -16.2278   26.5818 C   0  0  0  0  0  0  0  0  0  0  0  0
    9.3521  -15.7524   27.8477 O   0  0  0  0  0  0  0  0  0  0  0  0
    8.7820  -17.4298   26.4414 O   0  0  0  0  0  0  0  0  0  0  0  0
  2  1  1  6
  3  2  1  0
  4  2  1  0
  4  6  1  0
  4  5  1  1
  6  7  2  0
  8  6  1  0
  8  9  1  0
  9 10  1  6
 10 11  1  0
 11 12  2  0
 13  9  1  0
 13 21  1  0
 14 13  2  0
 15 11  1  0
 16 17  1  0
 18 17  1  0
 19 18  1  0
 20 21  1  0
 20 19  1  6
 22 20  1  0
 23 22  1  0
 24 22  2  0
M  END
$$$$
