TDM.pdb
     RDKit          3D

 24 23  0  0  1  0  0  0  0  0999 V2000
    8.0335  -12.4976   19.2502 C   0  0  0  0  0  0  0  0  0  0  0  0
    8.3949  -13.3414   20.4391 C   0  0  1  0  0  0  0  0  0  0  0  0
    8.0332  -12.6983   21.6133 O   0  0  0  0  0  0  0  0  0  0  0  0
    7.7740  -14.7281   20.3517 C   0  0  2  0  0  0  0  0  0  0  0  0
    6.3435  -14.5764   20.1687 N   0  0  0  0  0  0  0  0  0  0  0  0
    8.1143  -15.5568   21.5083 C   0  0  0  0  0  0  0  0  0  0  0  0
    7.2157  -15.6732   22.4055 O   0  0  0  0  0  0  0  0  0  0  0  0
    9.3491  -16.2309   21.7050 N   0  0  0  0  0  0  0  0  0  0  0  0
    9.6020  -16.9192   22.9255 C   0  0  1  0  0  0  0  0  0  0  0  0
   10.6395  -18.0138   22.7814 C   0  0  0  0  0  0  0  0  0  0  0  0
   10.4351  -18.8301   21.5818 C   0  0  0  0  0  0  0  0  0  0  0  0
    9.4989  -19.6693   21.5347 O   0  0  0  0  0  0  0  0  0  0  0  0
    9.9376  -16.0011   24.0517 C   0  0  0  0  0  0  0  0  0  0  0  0
   10.8949  -15.2088   23.8798 O   0  0  0  0  0  0  0  0  0  0  0  0
   11.2316  -18.7405   20.4496 O   0  0  0  0  0  0  0  0  0  0  0  0
    6.3985  -10.9979   25.5216 C   0  0  0  0  0  0  0  0  0  0  0  0
    6.8426  -12.2987   26.6729 S   0  0  0  0  0  0  0  0  0  0  0  0
    8.1500  -13.3694   26.0101 C   0  0  0  0  0  0  0  0  0  0  0  0
    8.5998  -14.3955   27.0007 C   0  0  0  0  0  0  0  0  0  0  0  0
    9.6906  -15.2464   26.4614 C   0  0  2  0  0  0  0  0  0  0  0  0
    9.2376  -15.9877   25.2763 N   0  0  0  0  0  0  0  0  0  0  0  0
   10.2332  -16.1410   27.4725 C   0  0  0  0  0  0  0  0  0  0  0  0
   10.2306  -17.5033   27.3391 O   0  0  0  0  0  0  0  0  0  0  0  0
   10.7248  -15.6389   28.5207 O   0  0  0  0  0  0  0  0  0  0  0  0
  2  1  1  6
  3  2  1  0
  4  2  1  0
  4  6  1  0
  4  5  1  1
  6  7  2  0
  8  6  1  0
  8  9  1  0
  9 10  1  6
 10 11  1  0
 11 12  2  0
 13  9  1  0
 13 21  1  0
 14 13  2  0
 15 11  1  0
 16 17  1  0
 18 17  1  0
 19 18  1  0
 20 21  1  0
 20 19  1  1
 22 20  1  0
 23 22  1  0
 24 22  2  0
M  END
$$$$
