TDM.pdb
     RDKit          3D

 24 23  0  0  1  0  0  0  0  0999 V2000
    9.1912  -12.5431   20.3346 C   0  0  0  0  0  0  0  0  0  0  0  0
    8.2322  -13.0380   19.2898 C   0  0  1  0  0  0  0  0  0  0  0  0
    8.1883  -12.1558   18.2207 O   0  0  0  0  0  0  0  0  0  0  0  0
    8.5798  -14.4474   18.8326 C   0  0  2  0  0  0  0  0  0  0  0  0
    7.6133  -14.8529   17.8305 N   0  0  0  0  0  0  0  0  0  0  0  0
    8.6635  -15.3839   19.9534 C   0  0  0  0  0  0  0  0  0  0  0  0
    7.5557  -15.7642   20.4575 O   0  0  0  0  0  0  0  0  0  0  0  0
    9.8650  -15.8941   20.5137 N   0  0  0  0  0  0  0  0  0  0  0  0
    9.8165  -16.7622   21.6412 C   0  0  1  0  0  0  0  0  0  0  0  0
   10.9093  -17.8116   21.6252 C   0  0  0  0  0  0  0  0  0  0  0  0
   12.1390  -17.3354   20.9863 C   0  0  0  0  0  0  0  0  0  0  0  0
   12.1298  -16.2883   20.2888 O   0  0  0  0  0  0  0  0  0  0  0  0
    9.7906  -16.0283   22.9390 C   0  0  0  0  0  0  0  0  0  0  0  0
   10.6539  -15.1343   23.1096 O   0  0  0  0  0  0  0  0  0  0  0  0
   13.3609  -17.9821   21.0996 O   0  0  0  0  0  0  0  0  0  0  0  0
    6.6666  -10.7665   26.0009 C   0  0  0  0  0  0  0  0  0  0  0  0
    6.3873  -12.5376   26.0077 S   0  0  0  0  0  0  0  0  0  0  0  0
    7.8927  -13.4601   25.5861 C   0  0  0  0  0  0  0  0  0  0  0  0
    7.6747  -14.9394   25.6013 C   0  0  0  0  0  0  0  0  0  0  0  0
    8.9213  -15.6870   25.2981 C   0  0  2  0  0  0  0  0  0  0  0  0
    8.8551  -16.2929   23.9611 N   0  0  0  0  0  0  0  0  0  0  0  0
    9.2214  -16.6808   26.3176 C   0  0  0  0  0  0  0  0  0  0  0  0
    9.5448  -16.3506   27.6061 O   0  0  0  0  0  0  0  0  0  0  0  0
    9.1853  -17.9012   25.9991 O   0  0  0  0  0  0  0  0  0  0  0  0
  2  1  1  1
  3  2  1  0
  4  2  1  0
  4  6  1  0
  4  5  1  6
  6  7  2  0
  8  6  1  0
  8  9  1  0
  9 10  1  1
 10 11  1  0
 11 12  2  0
 13  9  1  0
 13 21  1  0
 14 13  2  0
 15 11  1  0
 16 17  1  0
 18 17  1  0
 19 18  1  0
 20 21  1  0
 20 19  1  1
 22 20  1  0
 23 22  1  0
 24 22  2  0
M  END
$$$$
