TDM.pdb
     RDKit          3D

 24 23  0  0  1  0  0  0  0  0999 V2000
    7.5247  -12.6239   21.0731 C   0  0  0  0  0  0  0  0  0  0  0  0
    8.1411  -13.3125   19.8891 C   0  0  1  0  0  0  0  0  0  0  0  0
    9.5205  -13.1716   19.9149 O   0  0  0  0  0  0  0  0  0  0  0  0
    7.7340  -14.7772   19.8180 C   0  0  2  0  0  0  0  0  0  0  0  0
    6.2976  -14.8426   19.6305 N   0  0  0  0  0  0  0  0  0  0  0  0
    8.1898  -15.5317   20.9856 C   0  0  0  0  0  0  0  0  0  0  0  0
    7.3667  -15.6270   21.9548 O   0  0  0  0  0  0  0  0  0  0  0  0
    9.4584  -16.1566   21.1199 N   0  0  0  0  0  0  0  0  0  0  0  0
    9.7689  -16.9007   22.2933 C   0  0  1  0  0  0  0  0  0  0  0  0
   10.9834  -17.7905   22.1236 C   0  0  0  0  0  0  0  0  0  0  0  0
   11.1742  -18.7054   23.2521 C   0  0  0  0  0  0  0  0  0  0  0  0
   10.2080  -19.0026   24.0013 O   0  0  0  0  0  0  0  0  0  0  0  0
    9.8910  -16.0453   23.5086 C   0  0  0  0  0  0  0  0  0  0  0  0
   10.7903  -15.1707   23.5063 O   0  0  0  0  0  0  0  0  0  0  0  0
   12.3921  -19.2906   23.5663 O   0  0  0  0  0  0  0  0  0  0  0  0
    6.2487  -10.7779   25.4978 C   0  0  0  0  0  0  0  0  0  0  0  0
    6.3109  -12.4512   26.1388 S   0  0  0  0  0  0  0  0  0  0  0  0
    7.8143  -13.3208   25.6112 C   0  0  0  0  0  0  0  0  0  0  0  0
    7.9059  -14.6973   26.1885 C   0  0  0  0  0  0  0  0  0  0  0  0
    9.1921  -15.3569   25.8486 C   0  0  2  0  0  0  0  0  0  0  0  0
    9.0545  -16.1767   24.6368 N   0  0  0  0  0  0  0  0  0  0  0  0
    9.7146  -16.1360   26.9608 C   0  0  0  0  0  0  0  0  0  0  0  0
   10.1920  -15.5651   28.1096 O   0  0  0  0  0  0  0  0  0  0  0  0
    9.7317  -17.3938   26.8604 O   0  0  0  0  0  0  0  0  0  0  0  0
  2  1  1  1
  3  2  1  0
  4  2  1  0
  4  6  1  0
  4  5  1  1
  6  7  2  0
  8  6  1  0
  8  9  1  0
  9 10  1  6
 10 11  1  0
 11 12  2  0
 13  9  1  0
 13 21  1  0
 14 13  2  0
 15 11  1  0
 16 17  1  0
 18 17  1  0
 19 18  1  0
 20 21  1  0
 20 19  1  1
 22 20  1  0
 23 22  1  0
 24 22  2  0
M  END
$$$$
