TDM.pdb
     RDKit          3D

 24 23  0  0  1  0  0  0  0  0999 V2000
    9.3325  -12.6292   19.7677 C   0  0  0  0  0  0  0  0  0  0  0  0
    8.1903  -13.2687   19.0311 C   0  0  1  0  0  0  0  0  0  0  0  0
    7.8914  -12.5459   17.8859 O   0  0  0  0  0  0  0  0  0  0  0  0
    8.4788  -14.7275   18.7073 C   0  0  2  0  0  0  0  0  0  0  0  0
    7.3343  -15.2734   18.0040 N   0  0  0  0  0  0  0  0  0  0  0  0
    8.8322  -15.4961   19.9009 C   0  0  0  0  0  0  0  0  0  0  0  0
    7.8610  -15.9076   20.6174 O   0  0  0  0  0  0  0  0  0  0  0  0
   10.1530  -15.8142   20.3157 N   0  0  0  0  0  0  0  0  0  0  0  0
   10.3676  -16.5685   21.5041 C   0  0  1  0  0  0  0  0  0  0  0  0
   11.6899  -17.3081   21.5027 C   0  0  0  0  0  0  0  0  0  0  0  0
   11.9009  -18.0881   22.7251 C   0  0  0  0  0  0  0  0  0  0  0  0
   12.8806  -17.8431   23.4755 O   0  0  0  0  0  0  0  0  0  0  0  0
   10.2029  -15.7577   22.7447 C   0  0  0  0  0  0  0  0  0  0  0  0
   11.0609  -14.8702   22.9678 O   0  0  0  0  0  0  0  0  0  0  0  0
   11.0649  -19.1184   23.1302 O   0  0  0  0  0  0  0  0  0  0  0  0
    6.2762  -11.3828   27.6032 C   0  0  0  0  0  0  0  0  0  0  0  0
    6.1852  -12.7175   26.4094 S   0  0  0  0  0  0  0  0  0  0  0  0
    7.7937  -13.5261   26.1770 C   0  0  0  0  0  0  0  0  0  0  0  0
    7.7556  -14.5674   25.1045 C   0  0  0  0  0  0  0  0  0  0  0  0
    9.0617  -15.2579   24.9550 C   0  0  2  0  0  0  0  0  0  0  0  0
    9.1444  -15.9442   23.6583 N   0  0  0  0  0  0  0  0  0  0  0  0
    9.3237  -16.1709   26.0572 C   0  0  0  0  0  0  0  0  0  0  0  0
    9.5206  -17.5139   25.8800 O   0  0  0  0  0  0  0  0  0  0  0  0
    9.3678  -15.7046   27.2289 O   0  0  0  0  0  0  0  0  0  0  0  0
  2  1  1  6
  3  2  1  0
  4  2  1  0
  4  6  1  0
  4  5  1  1
  6  7  2  0
  8  6  1  0
  8  9  1  0
  9 10  1  6
 10 11  1  0
 11 12  2  0
 13  9  1  0
 13 21  1  0
 14 13  2  0
 15 11  1  0
 16 17  1  0
 18 17  1  0
 19 18  1  0
 20 21  1  0
 20 19  1  1
 22 20  1  0
 23 22  1  0
 24 22  2  0
M  END
$$$$
