TDM.pdb
     RDKit          3D

 24 23  0  0  1  0  0  0  0  0999 V2000
    9.4984  -12.5837   20.1071 C   0  0  0  0  0  0  0  0  0  0  0  0
    8.3382  -13.0825   19.2939 C   0  0  1  0  0  0  0  0  0  0  0  0
    8.2080  -12.3354   18.1329 O   0  0  0  0  0  0  0  0  0  0  0  0
    8.4663  -14.5676   18.9870 C   0  0  2  0  0  0  0  0  0  0  0  0
    7.3252  -14.9677   18.1867 N   0  0  0  0  0  0  0  0  0  0  0  0
    8.6178  -15.3690   20.2015 C   0  0  0  0  0  0  0  0  0  0  0  0
    7.5604  -15.5635   20.8871 O   0  0  0  0  0  0  0  0  0  0  0  0
    9.8330  -15.9381   20.6678 N   0  0  0  0  0  0  0  0  0  0  0  0
    9.8549  -16.6837   21.8805 C   0  0  1  0  0  0  0  0  0  0  0  0
   11.0483  -17.6117   21.9810 C   0  0  0  0  0  0  0  0  0  0  0  0
   12.3145  -16.9359   21.6855 C   0  0  0  0  0  0  0  0  0  0  0  0
   13.0660  -16.5551   22.6199 O   0  0  0  0  0  0  0  0  0  0  0  0
    9.7346  -15.8244   23.0933 C   0  0  0  0  0  0  0  0  0  0  0  0
   10.6005  -14.9306   23.2510 O   0  0  0  0  0  0  0  0  0  0  0  0
   12.7615  -16.6755   20.3984 O   0  0  0  0  0  0  0  0  0  0  0  0
    5.5634  -11.3789   26.0401 C   0  0  0  0  0  0  0  0  0  0  0  0
    7.1709  -12.0761   26.4205 S   0  0  0  0  0  0  0  0  0  0  0  0
    7.0784  -13.8649   26.7149 C   0  0  0  0  0  0  0  0  0  0  0  0
    7.2219  -14.6557   25.4538 C   0  0  0  0  0  0  0  0  0  0  0  0
    8.6084  -15.1527   25.2654 C   0  0  2  0  0  0  0  0  0  0  0  0
    8.7087  -15.9727   24.0501 N   0  0  0  0  0  0  0  0  0  0  0  0
    9.0917  -15.8727   26.4337 C   0  0  0  0  0  0  0  0  0  0  0  0
    9.4304  -17.1986   26.4030 O   0  0  0  0  0  0  0  0  0  0  0  0
    9.2001  -15.2480   27.5247 O   0  0  0  0  0  0  0  0  0  0  0  0
  2  1  1  6
  3  2  1  0
  4  2  1  0
  4  6  1  0
  4  5  1  1
  6  7  2  0
  8  6  1  0
  8  9  1  0
  9 10  1  1
 10 11  1  0
 11 12  2  0
 13  9  1  0
 13 21  1  0
 14 13  2  0
 15 11  1  0
 16 17  1  0
 18 17  1  0
 19 18  1  0
 20 21  1  0
 20 19  1  1
 22 20  1  0
 23 22  1  0
 24 22  2  0
M  END
$$$$
