TDM.pdb
     RDKit          3D

 24 23  0  0  1  0  0  0  0  0999 V2000
    9.4519  -12.6798   20.1275 C   0  0  0  0  0  0  0  0  0  0  0  0
    8.0983  -13.1379   19.6649 C   0  0  1  0  0  0  0  0  0  0  0  0
    7.6846  -12.3899   18.5728 O   0  0  0  0  0  0  0  0  0  0  0  0
    8.0869  -14.6276   19.3538 C   0  0  2  0  0  0  0  0  0  0  0  0
    6.7531  -14.9918   18.9170 N   0  0  0  0  0  0  0  0  0  0  0  0
    8.5531  -15.4291   20.4854 C   0  0  0  0  0  0  0  0  0  0  0  0
    7.6972  -15.6703   21.3992 O   0  0  0  0  0  0  0  0  0  0  0  0
    9.8651  -15.9509   20.6413 N   0  0  0  0  0  0  0  0  0  0  0  0
   10.2088  -16.6846   21.8121 C   0  0  1  0  0  0  0  0  0  0  0  0
   11.5078  -17.4510   21.6679 C   0  0  0  0  0  0  0  0  0  0  0  0
   11.8783  -18.1678   22.8910 C   0  0  0  0  0  0  0  0  0  0  0  0
   10.9998  -18.7486   23.5795 O   0  0  0  0  0  0  0  0  0  0  0  0
   10.2103  -15.8451   23.0445 C   0  0  0  0  0  0  0  0  0  0  0  0
   11.1136  -14.9808   23.1484 O   0  0  0  0  0  0  0  0  0  0  0  0
   13.1798  -18.2553   23.3631 O   0  0  0  0  0  0  0  0  0  0  0  0
    5.4518  -12.1365   26.4413 C   0  0  0  0  0  0  0  0  0  0  0  0
    7.2078  -11.7936   26.3229 S   0  0  0  0  0  0  0  0  0  0  0  0
    8.2037  -13.3000   26.5069 C   0  0  0  0  0  0  0  0  0  0  0  0
    8.2263  -14.1215   25.2576 C   0  0  0  0  0  0  0  0  0  0  0  0
    9.2727  -15.1740   25.3046 C   0  0  2  0  0  0  0  0  0  0  0  0
    9.2580  -15.9805   24.0763 N   0  0  0  0  0  0  0  0  0  0  0  0
    9.1517  -16.0090   26.4900 C   0  0  0  0  0  0  0  0  0  0  0  0
    9.3563  -15.5351   27.7578 O   0  0  0  0  0  0  0  0  0  0  0  0
    8.8482  -17.2249   26.3426 O   0  0  0  0  0  0  0  0  0  0  0  0
  2  1  1  6
  3  2  1  0
  4  2  1  0
  4  6  1  0
  4  5  1  1
  6  7  2  0
  8  6  1  0
  8  9  1  0
  9 10  1  6
 10 11  1  0
 11 12  2  0
 13  9  1  0
 13 21  1  0
 14 13  2  0
 15 11  1  0
 16 17  1  0
 18 17  1  0
 19 18  1  0
 20 21  1  0
 20 19  1  6
 22 20  1  0
 23 22  1  0
 24 22  2  0
M  END
$$$$
