TDM.pdb
     RDKit          3D

 24 23  0  0  1  0  0  0  0  0999 V2000
    8.9346  -12.4944   20.3391 C   0  0  0  0  0  0  0  0  0  0  0  0
    7.9557  -13.0801   19.3618 C   0  0  1  0  0  0  0  0  0  0  0  0
    7.8616  -12.2767   18.2353 O   0  0  0  0  0  0  0  0  0  0  0  0
    8.3192  -14.5114   18.9940 C   0  0  2  0  0  0  0  0  0  0  0  0
    7.3047  -15.0222   18.0927 N   0  0  0  0  0  0  0  0  0  0  0  0
    8.5046  -15.3526   20.1764 C   0  0  0  0  0  0  0  0  0  0  0  0
    7.4796  -15.9937   20.5817 O   0  0  0  0  0  0  0  0  0  0  0  0
    9.7197  -15.5078   20.8958 N   0  0  0  0  0  0  0  0  0  0  0  0
    9.8141  -16.4688   21.9420 C   0  0  1  0  0  0  0  0  0  0  0  0
   10.8975  -17.4999   21.7000 C   0  0  0  0  0  0  0  0  0  0  0  0
   10.9824  -18.4917   22.7753 C   0  0  0  0  0  0  0  0  0  0  0  0
   10.0214  -19.2725   22.9986 O   0  0  0  0  0  0  0  0  0  0  0  0
    9.9504  -15.8480   23.2910 C   0  0  0  0  0  0  0  0  0  0  0  0
   11.0119  -15.2238   23.5304 O   0  0  0  0  0  0  0  0  0  0  0  0
   12.0903  -18.6371   23.5974 O   0  0  0  0  0  0  0  0  0  0  0  0
    5.7352  -11.1107   25.6234 C   0  0  0  0  0  0  0  0  0  0  0  0
    5.9845  -12.7967   26.1803 S   0  0  0  0  0  0  0  0  0  0  0  0
    7.5581  -13.4784   25.5853 C   0  0  0  0  0  0  0  0  0  0  0  0
    7.8378  -14.8353   26.1484 C   0  0  0  0  0  0  0  0  0  0  0  0
    9.1188  -15.3918   25.6443 C   0  0  2  0  0  0  0  0  0  0  0  0
    8.9557  -15.9323   24.2876 N   0  0  0  0  0  0  0  0  0  0  0  0
    9.6735  -16.3867   26.5495 C   0  0  0  0  0  0  0  0  0  0  0  0
   10.1222  -16.0811   27.8061 O   0  0  0  0  0  0  0  0  0  0  0  0
    9.7475  -17.5838   26.1576 O   0  0  0  0  0  0  0  0  0  0  0  0
  2  1  1  1
  3  2  1  0
  4  2  1  0
  4  6  1  0
  4  5  1  6
  6  7  2  0
  8  6  1  0
  8  9  1  0
  9 10  1  6
 10 11  1  0
 11 12  2  0
 13  9  1  0
 13 21  1  0
 14 13  2  0
 15 11  1  0
 16 17  1  0
 18 17  1  0
 19 18  1  0
 20 21  1  0
 20 19  1  1
 22 20  1  0
 23 22  1  0
 24 22  2  0
M  END
$$$$
