TDM.pdb
     RDKit          3D

 24 23  0  0  1  0  0  0  0  0999 V2000
    8.1960  -12.3397   18.0522 C   0  0  0  0  0  0  0  0  0  0  0  0
    8.1553  -13.6396   18.8037 C   0  0  1  0  0  0  0  0  0  0  0  0
    8.4879  -14.6916   17.9635 O   0  0  0  0  0  0  0  0  0  0  0  0
    9.0530  -13.6051   20.0321 C   0  0  2  0  0  0  0  0  0  0  0  0
   10.4210  -13.4118   19.5917 N   0  0  0  0  0  0  0  0  0  0  0  0
    8.8875  -14.7946   20.8675 C   0  0  0  0  0  0  0  0  0  0  0  0
    7.7167  -15.0059   21.3263 O   0  0  0  0  0  0  0  0  0  0  0  0
    9.9147  -15.7175   21.2010 N   0  0  0  0  0  0  0  0  0  0  0  0
    9.6803  -16.7268   22.1775 C   0  0  1  0  0  0  0  0  0  0  0  0
   10.6411  -17.8926   22.0633 C   0  0  0  0  0  0  0  0  0  0  0  0
   12.0318  -17.4627   21.8950 C   0  0  0  0  0  0  0  0  0  0  0  0
   12.9158  -18.2881   21.5482 O   0  0  0  0  0  0  0  0  0  0  0  0
    9.6424  -16.1917   23.5689 C   0  0  0  0  0  0  0  0  0  0  0  0
   10.5846  -15.4419   23.9208 O   0  0  0  0  0  0  0  0  0  0  0  0
   12.4606  -16.1593   22.0990 O   0  0  0  0  0  0  0  0  0  0  0  0
    6.5723  -11.7179   27.7550 C   0  0  0  0  0  0  0  0  0  0  0  0
    6.5291  -12.4564   26.1218 S   0  0  0  0  0  0  0  0  0  0  0  0
    7.8946  -13.6264   25.8735 C   0  0  0  0  0  0  0  0  0  0  0  0
    7.4699  -15.0457   26.0766 C   0  0  0  0  0  0  0  0  0  0  0  0
    8.5924  -15.9956   25.8703 C   0  0  2  0  0  0  0  0  0  0  0  0
    8.6124  -16.4880   24.4860 N   0  0  0  0  0  0  0  0  0  0  0  0
    8.5585  -17.0934   26.8245 C   0  0  0  0  0  0  0  0  0  0  0  0
    8.8917  -16.9432   28.1436 O   0  0  0  0  0  0  0  0  0  0  0  0
    8.2097  -18.2357   26.4171 O   0  0  0  0  0  0  0  0  0  0  0  0
  2  1  1  6
  3  2  1  0
  4  2  1  0
  4  6  1  0
  4  5  1  6
  6  7  2  0
  8  6  1  0
  8  9  1  0
  9 10  1  1
 10 11  1  0
 11 12  2  0
 13  9  1  0
 13 21  1  0
 14 13  2  0
 15 11  1  0
 16 17  1  0
 18 17  1  0
 19 18  1  0
 20 21  1  0
 20 19  1  6
 22 20  1  0
 23 22  1  0
 24 22  2  0
M  END
$$$$
