TDM.pdb
     RDKit          3D

 24 23  0  0  1  0  0  0  0  0999 V2000
    7.5680  -12.7708   18.7094 C   0  0  0  0  0  0  0  0  0  0  0  0
    8.2786  -13.5286   19.7944 C   0  0  1  0  0  0  0  0  0  0  0  0
    7.5606  -13.4596   20.9788 O   0  0  0  0  0  0  0  0  0  0  0  0
    8.5435  -14.9714   19.3891 C   0  0  2  0  0  0  0  0  0  0  0  0
    7.3036  -15.5427   18.9006 N   0  0  0  0  0  0  0  0  0  0  0  0
    9.1372  -15.7480   20.4775 C   0  0  0  0  0  0  0  0  0  0  0  0
    8.4043  -16.6570   20.9898 O   0  0  0  0  0  0  0  0  0  0  0  0
   10.4467  -15.5699   20.9987 N   0  0  0  0  0  0  0  0  0  0  0  0
   10.9226  -16.4143   22.0416 C   0  0  1  0  0  0  0  0  0  0  0  0
   12.4350  -16.4822   22.1019 C   0  0  0  0  0  0  0  0  0  0  0  0
   12.9174  -17.3960   23.1408 C   0  0  0  0  0  0  0  0  0  0  0  0
   13.8905  -17.0737   23.8704 O   0  0  0  0  0  0  0  0  0  0  0  0
   10.3431  -16.0761   23.3733 C   0  0  0  0  0  0  0  0  0  0  0  0
   10.6051  -16.8493   24.3258 O   0  0  0  0  0  0  0  0  0  0  0  0
   12.3560  -18.6404   23.3872 O   0  0  0  0  0  0  0  0  0  0  0  0
    6.4341  -11.5760   27.8518 C   0  0  0  0  0  0  0  0  0  0  0  0
    7.2966  -12.1481   26.3878 S   0  0  0  0  0  0  0  0  0  0  0  0
    6.7771  -13.8200   25.9083 C   0  0  0  0  0  0  0  0  0  0  0  0
    7.4377  -14.2800   24.6481 C   0  0  0  0  0  0  0  0  0  0  0  0
    8.8495  -14.6801   24.8760 C   0  0  2  0  0  0  0  0  0  0  0  0
    9.5293  -14.9466   23.6008 N   0  0  0  0  0  0  0  0  0  0  0  0
    8.9541  -15.8144   25.7812 C   0  0  0  0  0  0  0  0  0  0  0  0
    8.5049  -17.0668   25.4596 O   0  0  0  0  0  0  0  0  0  0  0  0
    9.4792  -15.6349   26.9145 O   0  0  0  0  0  0  0  0  0  0  0  0
  2  1  1  6
  3  2  1  0
  4  2  1  0
  4  6  1  0
  4  5  1  1
  6  7  2  0
  8  6  1  0
  8  9  1  0
  9 10  1  1
 10 11  1  0
 11 12  2  0
 13  9  1  0
 13 21  1  0
 14 13  2  0
 15 11  1  0
 16 17  1  0
 18 17  1  0
 19 18  1  0
 20 21  1  0
 20 19  1  6
 22 20  1  0
 23 22  1  0
 24 22  2  0
M  END
$$$$
