VFE.pdb
     RDKit          3D

 28 28  0  0  1  0  0  0  0  0999 V2000
   10.0476  -19.4696   20.0320 C   0  0  0  0  0  0  0  0  0  0  0  0
   10.0432  -18.5537   21.2376 C   0  0  2  0  0  0  0  0  0  0  0  0
    8.9044  -18.9996   22.1316 C   0  0  0  0  0  0  0  0  0  0  0  0
    9.7565  -17.1234   20.8374 C   0  0  2  0  0  0  0  0  0  0  0  0
   10.6839  -16.7633   19.7864 N   0  0  0  0  0  0  0  0  0  0  0  0
    9.8842  -16.1850   21.9846 C   0  0  0  0  0  0  0  0  0  0  0  0
   10.9978  -15.7397   22.3646 O   0  0  0  0  0  0  0  0  0  0  0  0
    8.7412  -15.7791   22.6678 N   0  0  0  0  0  0  0  0  0  0  0  0
    8.7468  -14.8751   23.8436 C   0  0  1  0  0  0  0  0  0  0  0  0
    7.3976  -14.2150   23.7766 C   0  0  0  0  0  0  0  0  0  0  0  0
    7.1193  -13.3804   24.9454 C   0  0  0  0  0  0  0  0  0  0  0  0
    6.2153  -13.8071   25.8994 C   0  0  0  0  0  0  0  0  0  0  0  0
    5.9219  -13.0061   26.9911 C   0  0  0  0  0  0  0  0  0  0  0  0
    6.5470  -11.7865   27.1035 C   0  0  0  0  0  0  0  0  0  0  0  0
    7.4534  -11.3476   26.1584 C   0  0  0  0  0  0  0  0  0  0  0  0
    7.7441  -12.1441   25.0732 C   0  0  0  0  0  0  0  0  0  0  0  0
    9.0542  -15.6083   25.0503 C   0  0  0  0  0  0  0  0  0  0  0  0
    9.1153  -15.0235   26.1727 O   0  0  0  0  0  0  0  0  0  0  0  0
    9.2905  -16.9965   25.0514 N   0  0  0  0  0  0  0  0  0  0  0  0
    9.6389  -17.6549   26.3161 C   0  0  1  0  0  0  0  0  0  0  0  0
    9.6782  -19.1601   26.0801 C   0  0  0  0  0  0  0  0  0  0  0  0
   10.7943  -19.4594   25.1265 C   0  0  0  0  0  0  0  0  0  0  0  0
   10.8935  -20.9334   24.8567 C   0  0  0  0  0  0  0  0  0  0  0  0
   12.0391  -21.4323   24.9901 O   0  0  0  0  0  0  0  0  0  0  0  0
   10.9545  -17.2000   26.7289 C   0  0  0  0  0  0  0  0  0  0  0  0
   11.6632  -16.4937   25.9921 O   0  0  0  0  0  0  0  0  0  0  0  0
    9.8413  -21.7213   24.4890 O   0  0  0  0  0  0  0  0  0  0  0  0
   11.4531  -17.5581   27.9970 O   0  0  0  0  0  0  0  0  0  0  0  0
  2  3  1  1
  2  1  1  0
  4  2  1  0
  4  5  1  6
  6  4  1  0
  6  7  2  0
  8  6  1  0
  9  8  1  0
  9 10  1  1
 10 11  1  0
 11 12  2  0
 11 16  1  0
 12 13  1  0
 13 14  2  0
 15 14  1  0
 16 15  2  0
 17  9  1  0
 18 17  2  0
 19 17  1  0
 20 21  1  6
 20 19  1  0
 22 23  1  0
 22 21  1  0
 23 24  2  0
 25 28  1  0
 25 20  1  0
 26 25  2  0
 27 23  1  0
M  END
$$$$
