VFE.pdb
     RDKit          3D

 28 28  0  0  1  0  0  0  0  0999 V2000
    8.0410  -19.0112   18.4955 C   0  0  0  0  0  0  0  0  0  0  0  0
    8.5080  -18.3331   19.7662 C   0  0  2  0  0  0  0  0  0  0  0  0
    7.6352  -18.8476   20.8923 C   0  0  0  0  0  0  0  0  0  0  0  0
    8.3013  -16.8363   19.6957 C   0  0  2  0  0  0  0  0  0  0  0  0
    9.0034  -16.3468   18.5287 N   0  0  0  0  0  0  0  0  0  0  0  0
    8.7879  -16.1459   20.9202 C   0  0  0  0  0  0  0  0  0  0  0  0
   10.0093  -16.0896   21.2165 O   0  0  0  0  0  0  0  0  0  0  0  0
    7.8712  -15.5384   21.7739 N   0  0  0  0  0  0  0  0  0  0  0  0
    8.2247  -14.9119   23.0709 C   0  0  1  0  0  0  0  0  0  0  0  0
    7.0944  -13.9490   23.3074 C   0  0  0  0  0  0  0  0  0  0  0  0
    7.1320  -13.3519   24.6423 C   0  0  0  0  0  0  0  0  0  0  0  0
    6.3019  -13.8316   25.6373 C   0  0  0  0  0  0  0  0  0  0  0  0
    6.3084  -13.2480   26.8938 C   0  0  0  0  0  0  0  0  0  0  0  0
    7.1542  -12.1892   27.1269 C   0  0  0  0  0  0  0  0  0  0  0  0
    7.9901  -11.7000   26.1424 C   0  0  0  0  0  0  0  0  0  0  0  0
    7.9827  -12.2802   24.8935 C   0  0  0  0  0  0  0  0  0  0  0  0
    8.4439  -15.9203   24.0825 C   0  0  0  0  0  0  0  0  0  0  0  0
    7.5841  -16.8251   24.3005 O   0  0  0  0  0  0  0  0  0  0  0  0
    9.6126  -15.9621   24.8670 N   0  0  0  0  0  0  0  0  0  0  0  0
    9.8783  -17.1552   25.6795 C   0  0  1  0  0  0  0  0  0  0  0  0
   10.9109  -18.0105   24.9550 C   0  0  0  0  0  0  0  0  0  0  0  0
   12.2646  -17.6873   25.5099 C   0  0  0  0  0  0  0  0  0  0  0  0
   13.3511  -18.3062   24.6782 C   0  0  0  0  0  0  0  0  0  0  0  0
   13.5081  -17.8081   23.5353 O   0  0  0  0  0  0  0  0  0  0  0  0
   10.4181  -16.7338   26.9597 C   0  0  0  0  0  0  0  0  0  0  0  0
   10.6825  -17.5499   27.8585 O   0  0  0  0  0  0  0  0  0  0  0  0
   14.1413  -19.3402   25.0898 O   0  0  0  0  0  0  0  0  0  0  0  0
   10.6570  -15.3668   27.2030 O   0  0  0  0  0  0  0  0  0  0  0  0
  2  3  1  1
  2  1  1  0
  4  2  1  0
  4  5  1  6
  6  4  1  0
  6  7  2  0
  8  6  1  0
  9  8  1  0
  9 10  1  1
 10 11  1  0
 11 12  2  0
 11 16  1  0
 12 13  1  0
 13 14  2  0
 15 14  1  0
 16 15  2  0
 17  9  1  0
 18 17  2  0
 19 17  1  0
 20 21  1  6
 20 19  1  0
 22 23  1  0
 22 21  1  0
 23 24  2  0
 25 28  1  0
 25 20  1  0
 26 25  2  0
 27 23  1  0
M  END
$$$$
