VFE.pdb
     RDKit          3D

 28 28  0  0  1  0  0  0  0  0999 V2000
    8.0417  -18.3597   18.1802 C   0  0  0  0  0  0  0  0  0  0  0  0
    8.4172  -17.8803   19.5665 C   0  0  2  0  0  0  0  0  0  0  0  0
    7.2647  -18.2289   20.4857 C   0  0  0  0  0  0  0  0  0  0  0  0
    8.5712  -16.3759   19.6024 C   0  0  2  0  0  0  0  0  0  0  0  0
    9.5520  -16.0073   18.6041 N   0  0  0  0  0  0  0  0  0  0  0  0
    8.9894  -15.8881   20.9440 C   0  0  0  0  0  0  0  0  0  0  0  0
   10.1186  -16.1538   21.4310 O   0  0  0  0  0  0  0  0  0  0  0  0
    8.1112  -15.1113   21.6945 N   0  0  0  0  0  0  0  0  0  0  0  0
    8.3808  -14.6427   23.0757 C   0  0  1  0  0  0  0  0  0  0  0  0
    7.2993  -13.6251   23.3111 C   0  0  0  0  0  0  0  0  0  0  0  0
    7.2632  -13.1500   24.6942 C   0  0  0  0  0  0  0  0  0  0  0  0
    6.2730  -13.5916   25.5508 C   0  0  0  0  0  0  0  0  0  0  0  0
    6.2133  -13.1192   26.8518 C   0  0  0  0  0  0  0  0  0  0  0  0
    7.1554  -12.2086   27.2686 C   0  0  0  0  0  0  0  0  0  0  0  0
    8.1515  -11.7592   26.4240 C   0  0  0  0  0  0  0  0  0  0  0  0
    8.2099  -12.2288   25.1307 C   0  0  0  0  0  0  0  0  0  0  0  0
    8.4361  -15.7586   23.9921 C   0  0  0  0  0  0  0  0  0  0  0  0
    7.4605  -16.5588   24.1072 O   0  0  0  0  0  0  0  0  0  0  0  0
    9.5643  -16.0242   24.7920 N   0  0  0  0  0  0  0  0  0  0  0  0
    9.5689  -17.2267   25.6334 C   0  0  1  0  0  0  0  0  0  0  0  0
   10.4178  -18.2906   24.9476 C   0  0  0  0  0  0  0  0  0  0  0  0
   11.8614  -17.9356   25.1347 C   0  0  0  0  0  0  0  0  0  0  0  0
   12.6864  -18.3955   23.9672 C   0  0  0  0  0  0  0  0  0  0  0  0
   13.8292  -17.8809   23.8757 O   0  0  0  0  0  0  0  0  0  0  0  0
   10.1624  -16.8933   26.9158 C   0  0  0  0  0  0  0  0  0  0  0  0
   10.2507  -17.7275   27.8324 O   0  0  0  0  0  0  0  0  0  0  0  0
   12.2691  -19.3074   23.0413 O   0  0  0  0  0  0  0  0  0  0  0  0
   10.6588  -15.5941   27.1409 O   0  0  0  0  0  0  0  0  0  0  0  0
  2  3  1  1
  2  1  1  0
  4  2  1  0
  4  5  1  6
  6  4  1  0
  6  7  2  0
  8  6  1  0
  9  8  1  0
  9 10  1  1
 10 11  1  0
 11 12  2  0
 11 16  1  0
 12 13  1  0
 13 14  2  0
 15 14  1  0
 16 15  2  0
 17  9  1  0
 18 17  2  0
 19 17  1  0
 20 21  1  6
 20 19  1  0
 22 23  1  0
 22 21  1  0
 23 24  2  0
 25 28  1  0
 25 20  1  0
 26 25  2  0
 27 23  1  0
M  END
$$$$
