VFE.pdb
     RDKit          3D

 28 28  0  0  1  0  0  0  0  0999 V2000
    8.9980  -19.1763   18.5620 C   0  0  0  0  0  0  0  0  0  0  0  0
    9.3848  -18.3148   19.7455 C   0  0  2  0  0  0  0  0  0  0  0  0
    9.1278  -19.1324   20.9946 C   0  0  0  0  0  0  0  0  0  0  0  0
    8.5102  -17.0839   19.8356 C   0  0  2  0  0  0  0  0  0  0  0  0
    8.5739  -16.4011   18.5612 N   0  0  0  0  0  0  0  0  0  0  0  0
    8.9361  -16.1738   20.9325 C   0  0  0  0  0  0  0  0  0  0  0  0
   10.1091  -15.7261   21.0135 O   0  0  0  0  0  0  0  0  0  0  0  0
    8.0156  -15.7981   21.9069 N   0  0  0  0  0  0  0  0  0  0  0  0
    8.3441  -14.9686   23.0918 C   0  0  1  0  0  0  0  0  0  0  0  0
    7.0201  -14.3618   23.4648 C   0  0  0  0  0  0  0  0  0  0  0  0
    7.0757  -13.6155   24.7218 C   0  0  0  0  0  0  0  0  0  0  0  0
    6.4617  -14.1198   25.8523 C   0  0  0  0  0  0  0  0  0  0  0  0
    6.4816  -13.4018   27.0370 C   0  0  0  0  0  0  0  0  0  0  0  0
    7.1225  -12.1855   27.0624 C   0  0  0  0  0  0  0  0  0  0  0  0
    7.7414  -11.6696   25.9406 C   0  0  0  0  0  0  0  0  0  0  0  0
    7.7207  -12.3836   24.7633 C   0  0  0  0  0  0  0  0  0  0  0  0
    9.0055  -15.7613   24.1029 C   0  0  0  0  0  0  0  0  0  0  0  0
    8.5281  -16.8737   24.4772 O   0  0  0  0  0  0  0  0  0  0  0  0
   10.2066  -15.3551   24.7155 N   0  0  0  0  0  0  0  0  0  0  0  0
   10.9341  -16.3149   25.5544 C   0  0  1  0  0  0  0  0  0  0  0  0
   12.4187  -15.9751   25.4977 C   0  0  0  0  0  0  0  0  0  0  0  0
   13.1480  -17.1429   24.9068 C   0  0  0  0  0  0  0  0  0  0  0  0
   14.3278  -16.6888   24.0961 C   0  0  0  0  0  0  0  0  0  0  0  0
   14.3503  -17.0854   22.9039 O   0  0  0  0  0  0  0  0  0  0  0  0
   10.4645  -16.1848   26.9220 C   0  0  0  0  0  0  0  0  0  0  0  0
    9.7673  -15.2227   27.2854 O   0  0  0  0  0  0  0  0  0  0  0  0
   15.3329  -15.8993   24.5749 O   0  0  0  0  0  0  0  0  0  0  0  0
   10.7972  -17.1695   27.8732 O   0  0  0  0  0  0  0  0  0  0  0  0
  2  3  1  1
  2  1  1  0
  4  2  1  0
  4  5  1  6
  6  4  1  0
  6  7  2  0
  8  6  1  0
  9  8  1  0
  9 10  1  1
 10 11  1  0
 11 12  2  0
 11 16  1  0
 12 13  1  0
 13 14  2  0
 15 14  1  0
 16 15  2  0
 17  9  1  0
 18 17  2  0
 19 17  1  0
 20 21  1  1
 20 19  1  0
 22 23  1  0
 22 21  1  0
 23 24  2  0
 25 28  1  0
 25 20  1  0
 26 25  2  0
 27 23  1  0
M  END
$$$$
