VFE.pdb
     RDKit          3D

 28 28  0  0  1  0  0  0  0  0999 V2000
    7.6730  -15.0751   17.0919 C   0  0  0  0  0  0  0  0  0  0  0  0
    8.1640  -15.1157   18.5236 C   0  0  2  0  0  0  0  0  0  0  0  0
    7.4043  -16.2237   19.2237 C   0  0  0  0  0  0  0  0  0  0  0  0
    7.8388  -13.8297   19.2505 C   0  0  2  0  0  0  0  0  0  0  0  0
    8.4138  -12.7369   18.4958 N   0  0  0  0  0  0  0  0  0  0  0  0
    8.3598  -13.8272   20.6438 C   0  0  0  0  0  0  0  0  0  0  0  0
    9.5905  -13.8866   20.8986 O   0  0  0  0  0  0  0  0  0  0  0  0
    7.4662  -13.7573   21.7090 N   0  0  0  0  0  0  0  0  0  0  0  0
    7.8626  -13.8069   23.1374 C   0  0  1  0  0  0  0  0  0  0  0  0
    6.7641  -13.0454   23.8259 C   0  0  0  0  0  0  0  0  0  0  0  0
    6.9782  -12.9269   25.2682 C   0  0  0  0  0  0  0  0  0  0  0  0
    6.1552  -13.6051   26.1468 C   0  0  0  0  0  0  0  0  0  0  0  0
    6.3313  -13.4700   27.5143 C   0  0  0  0  0  0  0  0  0  0  0  0
    7.3370  -12.6528   27.9741 C   0  0  0  0  0  0  0  0  0  0  0  0
    8.1680  -11.9698   27.1077 C   0  0  0  0  0  0  0  0  0  0  0  0
    7.9919  -12.1041   25.7485 C   0  0  0  0  0  0  0  0  0  0  0  0
    8.0742  -15.1719   23.5619 C   0  0  0  0  0  0  0  0  0  0  0  0
    7.5534  -16.1403   22.9322 O   0  0  0  0  0  0  0  0  0  0  0  0
    8.8677  -15.5018   24.6774 N   0  0  0  0  0  0  0  0  0  0  0  0
    9.4636  -16.8411   24.7517 C   0  0  1  0  0  0  0  0  0  0  0  0
   10.4391  -16.9987   23.5913 C   0  0  0  0  0  0  0  0  0  0  0  0
   11.1357  -18.3173   23.7361 C   0  0  0  0  0  0  0  0  0  0  0  0
   12.1155  -18.5360   22.6192 C   0  0  0  0  0  0  0  0  0  0  0  0
   13.3160  -18.6606   22.9690 O   0  0  0  0  0  0  0  0  0  0  0  0
   10.1870  -16.9580   26.0051 C   0  0  0  0  0  0  0  0  0  0  0  0
   10.5718  -18.0573   26.4381 O   0  0  0  0  0  0  0  0  0  0  0  0
   11.7758  -18.6026   21.2990 O   0  0  0  0  0  0  0  0  0  0  0  0
   10.4704  -15.8029   26.7603 O   0  0  0  0  0  0  0  0  0  0  0  0
  2  3  1  1
  2  1  1  0
  4  2  1  0
  4  5  1  6
  6  4  1  0
  6  7  2  0
  8  6  1  0
  9  8  1  0
  9 10  1  1
 10 11  1  0
 11 12  2  0
 11 16  1  0
 12 13  1  0
 13 14  2  0
 15 14  1  0
 16 15  2  0
 17  9  1  0
 18 17  2  0
 19 17  1  0
 20 21  1  6
 20 19  1  0
 22 23  1  0
 22 21  1  0
 23 24  2  0
 25 28  1  0
 25 20  1  0
 26 25  2  0
 27 23  1  0
M  END
$$$$
