VFE.pdb
     RDKit          3D

 28 28  0  0  1  0  0  0  0  0999 V2000
    8.8252  -18.7172   20.4668 C   0  0  0  0  0  0  0  0  0  0  0  0
    7.7312  -17.7651   20.0319 C   0  0  2  0  0  0  0  0  0  0  0  0
    7.2301  -18.2471   18.6860 C   0  0  0  0  0  0  0  0  0  0  0  0
    8.2716  -16.3672   19.8272 C   0  0  2  0  0  0  0  0  0  0  0  0
    9.3562  -16.4471   18.8725 N   0  0  0  0  0  0  0  0  0  0  0  0
    8.7452  -15.7585   21.0992 C   0  0  0  0  0  0  0  0  0  0  0  0
    9.9488  -15.8151   21.4611 O   0  0  0  0  0  0  0  0  0  0  0  0
    7.8362  -15.1021   21.9245 N   0  0  0  0  0  0  0  0  0  0  0  0
    8.1690  -14.5448   23.2581 C   0  0  1  0  0  0  0  0  0  0  0  0
    6.9888  -13.6665   23.5682 C   0  0  0  0  0  0  0  0  0  0  0  0
    7.0126  -13.1525   24.9377 C   0  0  0  0  0  0  0  0  0  0  0  0
    6.1290  -13.6485   25.8771 C   0  0  0  0  0  0  0  0  0  0  0  0
    6.1235  -13.1419   27.1666 C   0  0  0  0  0  0  0  0  0  0  0  0
    7.0116  -12.1426   27.4882 C   0  0  0  0  0  0  0  0  0  0  0  0
    7.9011  -11.6380   26.5600 C   0  0  0  0  0  0  0  0  0  0  0  0
    7.9056  -12.1417   25.2783 C   0  0  0  0  0  0  0  0  0  0  0  0
    8.4572  -15.6046   24.1973 C   0  0  0  0  0  0  0  0  0  0  0  0
    7.6122  -16.5198   24.4294 O   0  0  0  0  0  0  0  0  0  0  0  0
    9.6793  -15.6869   24.8919 N   0  0  0  0  0  0  0  0  0  0  0  0
    9.9523  -16.8767   25.7069 C   0  0  1  0  0  0  0  0  0  0  0  0
   11.1803  -17.5779   25.1383 C   0  0  0  0  0  0  0  0  0  0  0  0
   12.3293  -16.6169   25.1693 C   0  0  0  0  0  0  0  0  0  0  0  0
   13.4980  -17.1470   24.3893 C   0  0  0  0  0  0  0  0  0  0  0  0
   14.6291  -16.7669   24.7835 O   0  0  0  0  0  0  0  0  0  0  0  0
   10.2294  -16.4532   27.0677 C   0  0  0  0  0  0  0  0  0  0  0  0
   10.2943  -15.2520   27.3785 O   0  0  0  0  0  0  0  0  0  0  0  0
   13.3917  -17.9864   23.3183 O   0  0  0  0  0  0  0  0  0  0  0  0
   10.4289  -17.4185   28.0744 O   0  0  0  0  0  0  0  0  0  0  0  0
  2  3  1  6
  2  1  1  0
  4  2  1  0
  4  5  1  6
  6  4  1  0
  6  7  2  0
  8  6  1  0
  9  8  1  0
  9 10  1  1
 10 11  1  0
 11 12  2  0
 11 16  1  0
 12 13  1  0
 13 14  2  0
 15 14  1  0
 16 15  2  0
 17  9  1  0
 18 17  2  0
 19 17  1  0
 20 21  1  6
 20 19  1  0
 22 23  1  0
 22 21  1  0
 23 24  2  0
 25 28  1  0
 25 20  1  0
 26 25  2  0
 27 23  1  0
M  END
$$$$
