VFE.pdb
     RDKit          3D

 28 28  0  0  1  0  0  0  0  0999 V2000
    9.3889  -19.5590   19.2438 C   0  0  0  0  0  0  0  0  0  0  0  0
    9.6821  -18.5507   20.3346 C   0  0  2  0  0  0  0  0  0  0  0  0
    9.9760  -19.3337   21.5977 C   0  0  0  0  0  0  0  0  0  0  0  0
    8.4735  -17.6875   20.6214 C   0  0  2  0  0  0  0  0  0  0  0  0
    7.9281  -17.2539   19.3529 N   0  0  0  0  0  0  0  0  0  0  0  0
    8.8133  -16.5123   21.4677 C   0  0  0  0  0  0  0  0  0  0  0  0
    9.6506  -15.6460   21.1054 O   0  0  0  0  0  0  0  0  0  0  0  0
    8.1910  -16.3553   22.7031 N   0  0  0  0  0  0  0  0  0  0  0  0
    8.3811  -15.1833   23.5920 C   0  0  1  0  0  0  0  0  0  0  0  0
    7.0999  -15.1355   24.3772 C   0  0  0  0  0  0  0  0  0  0  0  0
    7.0767  -14.0460   25.3532 C   0  0  0  0  0  0  0  0  0  0  0  0
    6.3446  -12.9029   25.0952 C   0  0  0  0  0  0  0  0  0  0  0  0
    6.3460  -11.8537   25.9999 C   0  0  0  0  0  0  0  0  0  0  0  0
    7.0860  -11.9752   27.1524 C   0  0  0  0  0  0  0  0  0  0  0  0
    7.8215  -13.1121   27.4241 C   0  0  0  0  0  0  0  0  0  0  0  0
    7.8201  -14.1545   26.5240 C   0  0  0  0  0  0  0  0  0  0  0  0
    9.6052  -15.3098   24.3495 C   0  0  0  0  0  0  0  0  0  0  0  0
    9.9855  -14.3913   25.1350 O   0  0  0  0  0  0  0  0  0  0  0  0
   10.4299  -16.4483   24.2680 N   0  0  0  0  0  0  0  0  0  0  0  0
   11.6774  -16.4763   25.0408 C   0  0  1  0  0  0  0  0  0  0  0  0
   11.3321  -16.7347   26.5026 C   0  0  0  0  0  0  0  0  0  0  0  0
   10.9930  -18.1858   26.6581 C   0  0  0  0  0  0  0  0  0  0  0  0
   10.7805  -18.5391   28.1021 C   0  0  0  0  0  0  0  0  0  0  0  0
    9.5854  -18.5338   28.4905 O   0  0  0  0  0  0  0  0  0  0  0  0
   12.5060  -17.5605   24.5451 C   0  0  0  0  0  0  0  0  0  0  0  0
   12.0476  -18.4496   23.8081 O   0  0  0  0  0  0  0  0  0  0  0  0
   11.7831  -18.8520   28.9738 O   0  0  0  0  0  0  0  0  0  0  0  0
   13.8688  -17.6178   24.8979 O   0  0  0  0  0  0  0  0  0  0  0  0
  2  3  1  1
  2  1  1  0
  4  2  1  0
  4  5  1  6
  6  4  1  0
  6  7  2  0
  8  6  1  0
  9  8  1  0
  9 10  1  1
 10 11  1  0
 11 12  2  0
 11 16  1  0
 12 13  1  0
 13 14  2  0
 15 14  1  0
 16 15  2  0
 17  9  1  0
 18 17  2  0
 19 17  1  0
 20 21  1  1
 20 19  1  0
 22 23  1  0
 22 21  1  0
 23 24  2  0
 25 28  1  0
 25 20  1  0
 26 25  2  0
 27 23  1  0
M  END
$$$$
