VFE.pdb
     RDKit          3D

 28 28  0  0  1  0  0  0  0  0999 V2000
    7.7500  -18.7890   18.5466 C   0  0  0  0  0  0  0  0  0  0  0  0
    8.2508  -18.1333   19.8162 C   0  0  2  0  0  0  0  0  0  0  0  0
    7.2622  -18.4727   20.9127 C   0  0  0  0  0  0  0  0  0  0  0  0
    8.2650  -16.6264   19.6851 C   0  0  2  0  0  0  0  0  0  0  0  0
    9.0730  -16.2897   18.5327 N   0  0  0  0  0  0  0  0  0  0  0  0
    8.8005  -15.9637   20.9044 C   0  0  0  0  0  0  0  0  0  0  0  0
   10.0265  -15.9710   21.1867 O   0  0  0  0  0  0  0  0  0  0  0  0
    7.9262  -15.3109   21.7690 N   0  0  0  0  0  0  0  0  0  0  0  0
    8.3304  -14.6858   23.0519 C   0  0  1  0  0  0  0  0  0  0  0  0
    7.1985  -13.7410   23.3461 C   0  0  0  0  0  0  0  0  0  0  0  0
    7.2813  -13.1616   24.6868 C   0  0  0  0  0  0  0  0  0  0  0  0
    6.2841  -13.4112   25.6101 C   0  0  0  0  0  0  0  0  0  0  0  0
    6.3394  -12.8378   26.8700 C   0  0  0  0  0  0  0  0  0  0  0  0
    7.4020  -12.0216   27.1790 C   0  0  0  0  0  0  0  0  0  0  0  0
    8.4065  -11.7641   26.2668 C   0  0  0  0  0  0  0  0  0  0  0  0
    8.3505  -12.3340   25.0144 C   0  0  0  0  0  0  0  0  0  0  0  0
    8.6112  -15.6959   24.0464 C   0  0  0  0  0  0  0  0  0  0  0  0
    7.7698  -16.6062   24.3089 O   0  0  0  0  0  0  0  0  0  0  0  0
    9.8220  -15.7335   24.7643 N   0  0  0  0  0  0  0  0  0  0  0  0
   10.2375  -16.9959   25.3872 C   0  0  1  0  0  0  0  0  0  0  0  0
   11.7148  -17.2180   25.0855 C   0  0  0  0  0  0  0  0  0  0  0  0
   12.1809  -18.4115   25.8621 C   0  0  0  0  0  0  0  0  0  0  0  0
   13.6252  -18.7098   25.5788 C   0  0  0  0  0  0  0  0  0  0  0  0
   14.1056  -19.6943   26.1945 O   0  0  0  0  0  0  0  0  0  0  0  0
   10.0525  -16.8876   26.8231 C   0  0  0  0  0  0  0  0  0  0  0  0
   10.0585  -15.7883   27.4023 O   0  0  0  0  0  0  0  0  0  0  0  0
   14.4058  -17.9910   24.7202 O   0  0  0  0  0  0  0  0  0  0  0  0
    9.8566  -18.0508   27.5935 O   0  0  0  0  0  0  0  0  0  0  0  0
  2  3  1  1
  2  1  1  0
  4  2  1  0
  4  5  1  6
  6  4  1  0
  6  7  2  0
  8  6  1  0
  9  8  1  0
  9 10  1  1
 10 11  1  0
 11 12  2  0
 11 16  1  0
 12 13  1  0
 13 14  2  0
 15 14  1  0
 16 15  2  0
 17  9  1  0
 18 17  2  0
 19 17  1  0
 20 21  1  1
 20 19  1  0
 22 23  1  0
 22 21  1  0
 23 24  2  0
 25 28  1  0
 25 20  1  0
 26 25  2  0
 27 23  1  0
M  END
$$$$
