VFE.pdb
     RDKit          3D

 28 28  0  0  1  0  0  0  0  0999 V2000
    9.1179  -18.6442   18.4736 C   0  0  0  0  0  0  0  0  0  0  0  0
    9.3435  -18.0570   19.8509 C   0  0  2  0  0  0  0  0  0  0  0  0
    8.2547  -18.6029   20.7516 C   0  0  0  0  0  0  0  0  0  0  0  0
    9.1911  -16.5521   19.8360 C   0  0  2  0  0  0  0  0  0  0  0  0
   10.1018  -16.0246   18.8426 N   0  0  0  0  0  0  0  0  0  0  0  0
    9.4701  -15.9482   21.1666 C   0  0  0  0  0  0  0  0  0  0  0  0
   10.6189  -15.9592   21.6793 O   0  0  0  0  0  0  0  0  0  0  0  0
    8.4340  -15.3485   21.8772 N   0  0  0  0  0  0  0  0  0  0  0  0
    8.5788  -14.7634   23.2324 C   0  0  1  0  0  0  0  0  0  0  0  0
    7.3809  -13.8624   23.3480 C   0  0  0  0  0  0  0  0  0  0  0  0
    7.2231  -13.3032   24.6906 C   0  0  0  0  0  0  0  0  0  0  0  0
    6.2737  -13.8242   25.5488 C   0  0  0  0  0  0  0  0  0  0  0  0
    6.0961  -13.2768   26.8090 C   0  0  0  0  0  0  0  0  0  0  0  0
    6.8811  -12.2121   27.1842 C   0  0  0  0  0  0  0  0  0  0  0  0
    7.8347  -11.6818   26.3375 C   0  0  0  0  0  0  0  0  0  0  0  0
    8.0102  -12.2260   25.0847 C   0  0  0  0  0  0  0  0  0  0  0  0
    8.7100  -15.8038   24.2267 C   0  0  0  0  0  0  0  0  0  0  0  0
    7.8348  -16.7129   24.3407 O   0  0  0  0  0  0  0  0  0  0  0  0
    9.8065  -15.8732   25.1074 N   0  0  0  0  0  0  0  0  0  0  0  0
    9.9108  -17.0179   26.0202 C   0  0  1  0  0  0  0  0  0  0  0  0
   11.0199  -17.9345   25.5177 C   0  0  0  0  0  0  0  0  0  0  0  0
   12.1931  -17.0871   25.1299 C   0  0  0  0  0  0  0  0  0  0  0  0
   13.3055  -17.9276   24.5718 C   0  0  0  0  0  0  0  0  0  0  0  0
   14.4683  -17.5266   24.8289 O   0  0  0  0  0  0  0  0  0  0  0  0
   10.2566  -16.5272   27.3421 C   0  0  0  0  0  0  0  0  0  0  0  0
   10.4742  -17.3000   28.2904 O   0  0  0  0  0  0  0  0  0  0  0  0
   13.1186  -19.0582   23.8302 O   0  0  0  0  0  0  0  0  0  0  0  0
   10.3552  -15.1404   27.5704 O   0  0  0  0  0  0  0  0  0  0  0  0
  2  3  1  1
  2  1  1  0
  4  2  1  0
  4  5  1  6
  6  4  1  0
  6  7  2  0
  8  6  1  0
  9  8  1  0
  9 10  1  1
 10 11  1  0
 11 12  2  0
 11 16  1  0
 12 13  1  0
 13 14  2  0
 15 14  1  0
 16 15  2  0
 17  9  1  0
 18 17  2  0
 19 17  1  0
 20 21  1  6
 20 19  1  0
 22 23  1  0
 22 21  1  0
 23 24  2  0
 25 28  1  0
 25 20  1  0
 26 25  2  0
 27 23  1  0
M  END
$$$$
