VFE.pdb
     RDKit          3D

 28 28  0  0  1  0  0  0  0  0999 V2000
    9.8513  -18.7515   20.4214 C   0  0  0  0  0  0  0  0  0  0  0  0
    8.4796  -18.2098   20.0785 C   0  0  2  0  0  0  0  0  0  0  0  0
    8.0393  -18.8898   18.7985 C   0  0  0  0  0  0  0  0  0  0  0  0
    8.5329  -16.7251   19.7941 C   0  0  2  0  0  0  0  0  0  0  0  0
    9.4705  -16.5148   18.7119 N   0  0  0  0  0  0  0  0  0  0  0  0
    8.9389  -15.9403   20.9908 C   0  0  0  0  0  0  0  0  0  0  0  0
   10.1452  -15.7034   21.2584 O   0  0  0  0  0  0  0  0  0  0  0  0
    7.9612  -15.4466   21.8501 N   0  0  0  0  0  0  0  0  0  0  0  0
    8.2461  -14.7240   23.1136 C   0  0  1  0  0  0  0  0  0  0  0  0
    6.9122  -14.1363   23.4822 C   0  0  0  0  0  0  0  0  0  0  0  0
    6.9303  -13.4684   24.7836 C   0  0  0  0  0  0  0  0  0  0  0  0
    6.0980  -13.9057   25.7962 C   0  0  0  0  0  0  0  0  0  0  0  0
    6.0858  -13.2560   27.0197 C   0  0  0  0  0  0  0  0  0  0  0  0
    6.9155  -12.1749   27.2027 C   0  0  0  0  0  0  0  0  0  0  0  0
    7.7535  -11.7274   26.2002 C   0  0  0  0  0  0  0  0  0  0  0  0
    7.7646  -12.3734   24.9840 C   0  0  0  0  0  0  0  0  0  0  0  0
    8.8587  -15.6066   24.0800 C   0  0  0  0  0  0  0  0  0  0  0  0
    8.3595  -16.7427   24.3362 O   0  0  0  0  0  0  0  0  0  0  0  0
   10.0343  -15.2654   24.7761 N   0  0  0  0  0  0  0  0  0  0  0  0
   10.8177  -16.3328   25.4095 C   0  0  1  0  0  0  0  0  0  0  0  0
   12.2757  -16.1691   24.9968 C   0  0  0  0  0  0  0  0  0  0  0  0
   13.0689  -17.2795   25.6156 C   0  0  0  0  0  0  0  0  0  0  0  0
   14.5215  -17.1746   25.2495 C   0  0  0  0  0  0  0  0  0  0  0  0
   14.7576  -16.8340   24.0632 O   0  0  0  0  0  0  0  0  0  0  0  0
   10.7091  -16.1952   26.8507 C   0  0  0  0  0  0  0  0  0  0  0  0
   10.2053  -15.1879   27.3754 O   0  0  0  0  0  0  0  0  0  0  0  0
   15.5521  -17.4219   26.1096 O   0  0  0  0  0  0  0  0  0  0  0  0
   11.1802  -17.2243   27.6897 O   0  0  0  0  0  0  0  0  0  0  0  0
  2  3  1  6
  2  1  1  0
  4  2  1  0
  4  5  1  6
  6  4  1  0
  6  7  2  0
  8  6  1  0
  9  8  1  0
  9 10  1  1
 10 11  1  0
 11 12  2  0
 11 16  1  0
 12 13  1  0
 13 14  2  0
 15 14  1  0
 16 15  2  0
 17  9  1  0
 18 17  2  0
 19 17  1  0
 20 21  1  1
 20 19  1  0
 22 23  1  0
 22 21  1  0
 23 24  2  0
 25 28  1  0
 25 20  1  0
 26 25  2  0
 27 23  1  0
M  END
$$$$
