VFE.pdb
     RDKit          3D

 28 28  0  0  1  0  0  0  0  0999 V2000
    8.4347  -19.6128   19.0667 C   0  0  0  0  0  0  0  0  0  0  0  0
    8.9216  -18.7254   20.1927 C   0  0  2  0  0  0  0  0  0  0  0  0
    8.6392  -19.4559   21.4895 C   0  0  0  0  0  0  0  0  0  0  0  0
    8.1478  -17.4266   20.2399 C   0  0  2  0  0  0  0  0  0  0  0  0
    8.2210  -16.8196   18.9281 N   0  0  0  0  0  0  0  0  0  0  0  0
    8.6790  -16.4958   21.2715 C   0  0  0  0  0  0  0  0  0  0  0  0
    9.8081  -15.9512   21.1641 O   0  0  0  0  0  0  0  0  0  0  0  0
    7.9109  -16.2102   22.3968 N   0  0  0  0  0  0  0  0  0  0  0  0
    8.3336  -15.2993   23.4884 C   0  0  1  0  0  0  0  0  0  0  0  0
    7.0288  -14.8229   24.0637 C   0  0  0  0  0  0  0  0  0  0  0  0
    7.2093  -13.9409   25.2168 C   0  0  0  0  0  0  0  0  0  0  0  0
    7.9211  -14.3792   26.3171 C   0  0  0  0  0  0  0  0  0  0  0  0
    8.0664  -13.5613   27.4258 C   0  0  0  0  0  0  0  0  0  0  0  0
    7.4916  -12.3123   27.4062 C   0  0  0  0  0  0  0  0  0  0  0  0
    6.7785  -11.8606   26.3131 C   0  0  0  0  0  0  0  0  0  0  0  0
    6.6339  -12.6743   25.2116 C   0  0  0  0  0  0  0  0  0  0  0  0
    9.2379  -15.9714   24.3932 C   0  0  0  0  0  0  0  0  0  0  0  0
    8.9209  -17.0711   24.9370 O   0  0  0  0  0  0  0  0  0  0  0  0
   10.5094  -15.4566   24.7114 N   0  0  0  0  0  0  0  0  0  0  0  0
   11.5793  -16.3905   25.0822 C   0  0  1  0  0  0  0  0  0  0  0  0
   12.8990  -15.8472   24.5472 C   0  0  0  0  0  0  0  0  0  0  0  0
   13.9962  -16.7791   24.9627 C   0  0  0  0  0  0  0  0  0  0  0  0
   15.2716  -16.4716   24.2320 C   0  0  0  0  0  0  0  0  0  0  0  0
   16.0166  -17.4577   24.0047 O   0  0  0  0  0  0  0  0  0  0  0  0
   11.6453  -16.4689   26.5305 C   0  0  0  0  0  0  0  0  0  0  0  0
   12.1138  -17.4626   27.1110 O   0  0  0  0  0  0  0  0  0  0  0  0
   15.6420  -15.2236   23.8214 O   0  0  0  0  0  0  0  0  0  0  0  0
   11.1723  -15.3964   27.3120 O   0  0  0  0  0  0  0  0  0  0  0  0
  2  3  1  1
  2  1  1  0
  4  2  1  0
  4  5  1  6
  6  4  1  0
  6  7  2  0
  8  6  1  0
  9  8  1  0
  9 10  1  1
 10 11  1  0
 11 12  2  0
 11 16  1  0
 12 13  1  0
 13 14  2  0
 15 14  1  0
 16 15  2  0
 17  9  1  0
 18 17  2  0
 19 17  1  0
 20 21  1  1
 20 19  1  0
 22 23  1  0
 22 21  1  0
 23 24  2  0
 25 28  1  0
 25 20  1  0
 26 25  2  0
 27 23  1  0
M  END
$$$$
