VFE.pdb
     RDKit          3D

 28 28  0  0  1  0  0  0  0  0999 V2000
    8.4713  -18.7627   18.4955 C   0  0  0  0  0  0  0  0  0  0  0  0
    8.7807  -18.0808   19.8116 C   0  0  2  0  0  0  0  0  0  0  0  0
    7.8877  -18.7110   20.8605 C   0  0  0  0  0  0  0  0  0  0  0  0
    8.4324  -16.6097   19.7611 C   0  0  2  0  0  0  0  0  0  0  0  0
    9.0964  -16.0367   18.6099 N   0  0  0  0  0  0  0  0  0  0  0  0
    8.8381  -15.8957   21.0014 C   0  0  0  0  0  0  0  0  0  0  0  0
   10.0449  -15.6903   21.2914 O   0  0  0  0  0  0  0  0  0  0  0  0
    7.8593  -15.4351   21.8777 N   0  0  0  0  0  0  0  0  0  0  0  0
    8.1426  -14.7748   23.1752 C   0  0  1  0  0  0  0  0  0  0  0  0
    6.8653  -14.0398   23.4734 C   0  0  0  0  0  0  0  0  0  0  0  0
    6.8758  -13.4018   24.7898 C   0  0  0  0  0  0  0  0  0  0  0  0
    6.3634  -14.0699   25.8854 C   0  0  0  0  0  0  0  0  0  0  0  0
    6.3392  -13.4579   27.1280 C   0  0  0  0  0  0  0  0  0  0  0  0
    6.8342  -12.1805   27.2458 C   0  0  0  0  0  0  0  0  0  0  0  0
    7.3504  -11.5010   26.1599 C   0  0  0  0  0  0  0  0  0  0  0  0
    7.3735  -12.1098   24.9248 C   0  0  0  0  0  0  0  0  0  0  0  0
    8.5821  -15.7415   24.1553 C   0  0  0  0  0  0  0  0  0  0  0  0
    8.1311  -16.9256   24.1532 O   0  0  0  0  0  0  0  0  0  0  0  0
    9.5305  -15.4321   25.1491 N   0  0  0  0  0  0  0  0  0  0  0  0
   10.4344  -16.4886   25.6193 C   0  0  1  0  0  0  0  0  0  0  0  0
   11.7243  -16.4131   24.8109 C   0  0  0  0  0  0  0  0  0  0  0  0
   12.6855  -17.4225   25.3606 C   0  0  0  0  0  0  0  0  0  0  0  0
   13.9608  -17.4414   24.5679 C   0  0  0  0  0  0  0  0  0  0  0  0
   13.9027  -18.0372   23.4630 O   0  0  0  0  0  0  0  0  0  0  0  0
   10.7326  -16.2543   27.0207 C   0  0  0  0  0  0  0  0  0  0  0  0
   10.3873  -15.2090   27.5970 O   0  0  0  0  0  0  0  0  0  0  0  0
   15.1293  -16.8658   24.9756 O   0  0  0  0  0  0  0  0  0  0  0  0
   11.4285  -17.2302   27.7611 O   0  0  0  0  0  0  0  0  0  0  0  0
  2  3  1  1
  2  1  1  0
  4  2  1  0
  4  5  1  6
  6  4  1  0
  6  7  2  0
  8  6  1  0
  9  8  1  0
  9 10  1  1
 10 11  1  0
 11 12  2  0
 11 16  1  0
 12 13  1  0
 13 14  2  0
 15 14  1  0
 16 15  2  0
 17  9  1  0
 18 17  2  0
 19 17  1  0
 20 21  1  6
 20 19  1  0
 22 23  1  0
 22 21  1  0
 23 24  2  0
 25 28  1  0
 25 20  1  0
 26 25  2  0
 27 23  1  0
M  END
$$$$
