VCW.pdb
     RDKit          3D

 28 29  0  0  1  0  0  0  0  0999 V2000
   21.1212  -17.7088  -13.8193 C   0  0  0  0  0  0  0  0  0  0  0  0
   22.3395  -17.6301  -14.6941 C   0  0  2  0  0  0  0  0  0  0  0  0
   22.1218  -16.5275  -15.7001 C   0  0  0  0  0  0  0  0  0  0  0  0
   22.6471  -18.9508  -15.3408 C   0  0  2  0  0  0  0  0  0  0  0  0
   21.4594  -19.4147  -16.0195 N   0  0  0  0  0  0  0  0  0  0  0  0
   23.0993  -19.9025  -14.2760 C   0  0  0  0  0  0  0  0  0  0  0  0
   22.2797  -20.1734  -13.3595 O   0  0  0  0  0  0  0  0  0  0  0  0
   24.3542  -20.4985  -14.2362 N   0  0  0  0  0  0  0  0  0  0  0  0
   24.8410  -21.4124  -13.2477 C   0  0  1  0  0  0  0  0  0  0  0  0
   25.5892  -22.6005  -13.7625 C   0  0  0  0  0  0  0  0  0  0  0  0
   27.3827  -22.4265  -13.5433 S   0  0  0  0  0  0  0  0  0  0  0  0
   25.4695  -20.7173  -12.1134 C   0  0  0  0  0  0  0  0  0  0  0  0
   26.0232  -19.5673  -12.2864 O   0  0  0  0  0  0  0  0  0  0  0  0
   25.5451  -21.1845  -10.7651 N   0  0  0  0  0  0  0  0  0  0  0  0
   26.4167  -20.5364   -9.8105 C   0  0  1  0  0  0  0  0  0  0  0  0
   25.8552  -20.1734   -8.5021 C   0  0  0  0  0  0  0  0  0  0  0  0
   26.7083  -19.5107   -7.5388 C   0  0  0  0  0  0  0  0  0  0  0  0
   27.0229  -18.1427   -7.6059 C   0  0  0  0  0  0  0  0  0  0  0  0
   27.8556  -17.8436   -6.6190 N   0  0  0  0  0  0  0  0  0  0  0  0
   28.1197  -18.9432   -5.8832 C   0  0  0  0  0  0  0  0  0  0  0  0
   28.9024  -19.1463   -4.7667 C   0  0  0  0  0  0  0  0  0  0  0  0
   29.0031  -20.3865   -4.1757 C   0  0  0  0  0  0  0  0  0  0  0  0
   28.2997  -21.4103   -4.7334 C   0  0  0  0  0  0  0  0  0  0  0  0
   27.5138  -21.2163   -5.8551 C   0  0  0  0  0  0  0  0  0  0  0  0
   27.3934  -19.9836   -6.4709 C   0  0  0  0  0  0  0  0  0  0  0  0
   27.6685  -21.3912   -9.6339 C   0  0  0  0  0  0  0  0  0  0  0  0
   28.9086  -20.7811   -9.6043 O   0  0  0  0  0  0  0  0  0  0  0  0
   27.6244  -22.6296   -9.5133 O   0  0  0  0  0  0  0  0  0  0  0  0
  2  3  1  6
  2  1  1  0
  4  2  1  0
  4  5  1  1
  6  7  2  0
  6  4  1  0
  8  6  1  0
  9 12  1  0
  9  8  1  0
  9 10  1  6
 11 10  1  0
 12 13  2  0
 14 15  1  0
 14 12  1  0
 15 16  1  1
 17 16  1  0
 18 17  2  0
 19 20  1  0
 19 18  1  0
 20 25  2  0
 21 22  2  0
 21 20  1  0
 22 23  1  0
 23 24  2  0
 25 24  1  0
 25 17  1  0
 26 15  1  0
 26 27  1  0
 28 26  2  0
M  END
$$$$
