VCW.pdb
     RDKit          3D

 28 29  0  0  1  0  0  0  0  0999 V2000
   25.9114  -15.4829  -15.5666 C   0  0  0  0  0  0  0  0  0  0  0  0
   26.0308  -16.6377  -14.6137 C   0  0  2  0  0  0  0  0  0  0  0  0
   26.7723  -16.1592  -13.3904 C   0  0  0  0  0  0  0  0  0  0  0  0
   26.6850  -17.8265  -15.2586 C   0  0  2  0  0  0  0  0  0  0  0  0
   25.9753  -18.1323  -16.4790 N   0  0  0  0  0  0  0  0  0  0  0  0
   26.6558  -18.9653  -14.2858 C   0  0  0  0  0  0  0  0  0  0  0  0
   25.5281  -19.4378  -13.9856 O   0  0  0  0  0  0  0  0  0  0  0  0
   27.7838  -19.5267  -13.6993 N   0  0  0  0  0  0  0  0  0  0  0  0
   27.8139  -20.5604  -12.7093 C   0  0  1  0  0  0  0  0  0  0  0  0
   29.0013  -21.4688  -12.7433 C   0  0  0  0  0  0  0  0  0  0  0  0
   28.9561  -22.7030  -11.4130 S   0  0  0  0  0  0  0  0  0  0  0  0
   27.4432  -20.0606  -11.3761 C   0  0  0  0  0  0  0  0  0  0  0  0
   28.3526  -19.6349  -10.5694 O   0  0  0  0  0  0  0  0  0  0  0  0
   26.1237  -19.9818  -10.8333 N   0  0  0  0  0  0  0  0  0  0  0  0
   25.5290  -21.1253  -10.1779 C   0  0  1  0  0  0  0  0  0  0  0  0
   25.8663  -21.3623   -8.7676 C   0  0  0  0  0  0  0  0  0  0  0  0
   26.4930  -20.2973   -8.0138 C   0  0  0  0  0  0  0  0  0  0  0  0
   26.4208  -18.9455   -8.3906 C   0  0  0  0  0  0  0  0  0  0  0  0
   27.1274  -18.2215   -7.5342 N   0  0  0  0  0  0  0  0  0  0  0  0
   27.6743  -19.0174   -6.5921 C   0  0  0  0  0  0  0  0  0  0  0  0
   28.4691  -18.7487   -5.4981 C   0  0  0  0  0  0  0  0  0  0  0  0
   28.8992  -19.7526   -4.6586 C   0  0  0  0  0  0  0  0  0  0  0  0
   28.5107  -21.0255   -4.9462 C   0  0  0  0  0  0  0  0  0  0  0  0
   27.7154  -21.3047   -6.0430 C   0  0  0  0  0  0  0  0  0  0  0  0
   27.2686  -20.3187   -6.9041 C   0  0  0  0  0  0  0  0  0  0  0  0
   24.0152  -21.0591  -10.3593 C   0  0  0  0  0  0  0  0  0  0  0  0
   23.4577  -19.9844  -11.0265 O   0  0  0  0  0  0  0  0  0  0  0  0
   23.2483  -21.9404   -9.9289 O   0  0  0  0  0  0  0  0  0  0  0  0
  2  3  1  1
  2  1  1  0
  4  2  1  0
  4  5  1  6
  6  7  2  0
  6  4  1  0
  8  6  1  0
  9 12  1  0
  9  8  1  0
  9 10  1  1
 11 10  1  0
 12 13  2  0
 14 15  1  0
 14 12  1  0
 15 16  1  1
 17 16  1  0
 18 17  2  0
 19 20  1  0
 19 18  1  0
 20 25  2  0
 21 22  2  0
 21 20  1  0
 22 23  1  0
 23 24  2  0
 25 24  1  0
 25 17  1  0
 26 15  1  0
 26 27  1  0
 28 26  2  0
M  END
$$$$
