VCW.pdb
     RDKit          3D

 28 29  0  0  1  0  0  0  0  0999 V2000
   30.9415  -20.9429  -18.7025 C   0  0  0  0  0  0  0  0  0  0  0  0
   30.4122  -22.2917  -19.0978 C   0  0  2  0  0  0  0  0  0  0  0  0
   29.2682  -22.6332  -18.1758 C   0  0  0  0  0  0  0  0  0  0  0  0
   31.4914  -23.3370  -19.0924 C   0  0  2  0  0  0  0  0  0  0  0  0
   32.5157  -22.9407  -20.0306 N   0  0  0  0  0  0  0  0  0  0  0  0
   30.8734  -24.6535  -19.4510 C   0  0  0  0  0  0  0  0  0  0  0  0
   30.4542  -24.7912  -20.6302 O   0  0  0  0  0  0  0  0  0  0  0  0
   30.7344  -25.7216  -18.5726 N   0  0  0  0  0  0  0  0  0  0  0  0
   30.1894  -27.0121  -18.8675 C   0  0  1  0  0  0  0  0  0  0  0  0
   31.1102  -27.9752  -19.5463 C   0  0  0  0  0  0  0  0  0  0  0  0
   32.7149  -28.0944  -18.7061 S   0  0  0  0  0  0  0  0  0  0  0  0
   29.4275  -27.5626  -17.7357 C   0  0  0  0  0  0  0  0  0  0  0  0
   29.9555  -27.6075  -16.5617 O   0  0  0  0  0  0  0  0  0  0  0  0
   28.0971  -28.0824  -17.7777 N   0  0  0  0  0  0  0  0  0  0  0  0
   27.4469  -28.5367  -16.5687 C   0  0  1  0  0  0  0  0  0  0  0  0
   26.0777  -28.0719  -16.3074 C   0  0  0  0  0  0  0  0  0  0  0  0
   25.8598  -26.6666  -16.0381 C   0  0  0  0  0  0  0  0  0  0  0  0
   26.8661  -25.6948  -16.1712 C   0  0  0  0  0  0  0  0  0  0  0  0
   26.3772  -24.5166  -15.8112 N   0  0  0  0  0  0  0  0  0  0  0  0
   25.0856  -24.6416  -15.4421 C   0  0  0  0  0  0  0  0  0  0  0  0
   24.1527  -23.7252  -15.0056 C   0  0  0  0  0  0  0  0  0  0  0  0
   22.8649  -24.1030  -14.6956 C   0  0  0  0  0  0  0  0  0  0  0  0
   22.5419  -25.4183  -14.8359 C   0  0  0  0  0  0  0  0  0  0  0  0
   23.4721  -26.3452  -15.2708 C   0  0  0  0  0  0  0  0  0  0  0  0
   24.7723  -25.9965  -15.5889 C   0  0  0  0  0  0  0  0  0  0  0  0
   27.5093  -30.0609  -16.5243 C   0  0  0  0  0  0  0  0  0  0  0  0
   27.1899  -30.7196  -15.3516 O   0  0  0  0  0  0  0  0  0  0  0  0
   27.8385  -30.7483  -17.5087 O   0  0  0  0  0  0  0  0  0  0  0  0
  2  3  1  1
  2  1  1  0
  4  2  1  0
  4  5  1  6
  6  7  2  0
  6  4  1  0
  8  6  1  0
  9 12  1  0
  9  8  1  0
  9 10  1  1
 11 10  1  0
 12 13  2  0
 14 15  1  0
 14 12  1  0
 15 16  1  6
 17 16  1  0
 18 17  2  0
 19 20  1  0
 19 18  1  0
 20 25  2  0
 21 22  2  0
 21 20  1  0
 22 23  1  0
 23 24  2  0
 25 24  1  0
 25 17  1  0
 26 15  1  0
 26 27  1  0
 28 26  2  0
M  END
$$$$
