VCW.pdb
     RDKit          3D

 28 29  0  0  1  0  0  0  0  0999 V2000
   28.0859  -17.0258  -14.6410 C   0  0  0  0  0  0  0  0  0  0  0  0
   28.3774  -18.1304  -15.6160 C   0  0  2  0  0  0  0  0  0  0  0  0
   29.3212  -17.5927  -16.6626 C   0  0  0  0  0  0  0  0  0  0  0  0
   27.1183  -18.6967  -16.2087 C   0  0  2  0  0  0  0  0  0  0  0  0
   26.4726  -17.6624  -16.9832 N   0  0  0  0  0  0  0  0  0  0  0  0
   26.2526  -19.1910  -15.0906 C   0  0  0  0  0  0  0  0  0  0  0  0
   25.5077  -18.3493  -14.5232 O   0  0  0  0  0  0  0  0  0  0  0  0
   26.2208  -20.5068  -14.6443 N   0  0  0  0  0  0  0  0  0  0  0  0
   25.4422  -21.0292  -13.5624 C   0  0  1  0  0  0  0  0  0  0  0  0
   24.5961  -22.2215  -13.8771 C   0  0  0  0  0  0  0  0  0  0  0  0
   23.9158  -22.9911  -12.3804 S   0  0  0  0  0  0  0  0  0  0  0  0
   26.2185  -21.1210  -12.3160 C   0  0  0  0  0  0  0  0  0  0  0  0
   27.3670  -21.7041  -12.3111 O   0  0  0  0  0  0  0  0  0  0  0  0
   25.8366  -20.6132  -11.0361 N   0  0  0  0  0  0  0  0  0  0  0  0
   26.3083  -21.2450   -9.8240 C   0  0  1  0  0  0  0  0  0  0  0  0
   27.6012  -20.8089   -9.2790 C   0  0  0  0  0  0  0  0  0  0  0  0
   27.6113  -19.9625   -8.1049 C   0  0  0  0  0  0  0  0  0  0  0  0
   26.8176  -18.8092   -7.9838 C   0  0  0  0  0  0  0  0  0  0  0  0
   27.0806  -18.2255   -6.8232 N   0  0  0  0  0  0  0  0  0  0  0  0
   28.0138  -18.9290   -6.1491 C   0  0  0  0  0  0  0  0  0  0  0  0
   28.6042  -18.7444   -4.9171 C   0  0  0  0  0  0  0  0  0  0  0  0
   29.5425  -19.6276   -4.4304 C   0  0  0  0  0  0  0  0  0  0  0  0
   29.8688  -20.6950   -5.2103 C   0  0  0  0  0  0  0  0  0  0  0  0
   29.2833  -20.8869   -6.4488 C   0  0  0  0  0  0  0  0  0  0  0  0
   28.3391  -20.0175   -6.9645 C   0  0  0  0  0  0  0  0  0  0  0  0
   25.2186  -21.1363   -8.7611 C   0  0  0  0  0  0  0  0  0  0  0  0
   25.3965  -21.7597   -7.5402 O   0  0  0  0  0  0  0  0  0  0  0  0
   24.1624  -20.5032   -8.9447 O   0  0  0  0  0  0  0  0  0  0  0  0
  2  3  1  6
  2  1  1  0
  4  2  1  0
  4  5  1  1
  6  7  2  0
  6  4  1  0
  8  6  1  0
  9 12  1  0
  9  8  1  0
  9 10  1  6
 11 10  1  0
 12 13  2  0
 14 15  1  0
 14 12  1  0
 15 16  1  1
 17 16  1  0
 18 17  2  0
 19 20  1  0
 19 18  1  0
 20 25  2  0
 21 22  2  0
 21 20  1  0
 22 23  1  0
 23 24  2  0
 25 24  1  0
 25 17  1  0
 26 15  1  0
 26 27  1  0
 28 26  2  0
M  END
$$$$
