VCW.pdb
     RDKit          3D

 28 29  0  0  1  0  0  0  0  0999 V2000
   27.1774  -20.5641  -20.9563 C   0  0  0  0  0  0  0  0  0  0  0  0
   27.0988  -20.3639  -19.4698 C   0  0  2  0  0  0  0  0  0  0  0  0
   26.1125  -21.3615  -18.9156 C   0  0  0  0  0  0  0  0  0  0  0  0
   26.7484  -18.9463  -19.1165 C   0  0  2  0  0  0  0  0  0  0  0  0
   27.7604  -18.0749  -19.6669 N   0  0  0  0  0  0  0  0  0  0  0  0
   26.6603  -18.8410  -17.6248 C   0  0  0  0  0  0  0  0  0  0  0  0
   27.7250  -18.5917  -17.0009 O   0  0  0  0  0  0  0  0  0  0  0  0
   25.4890  -19.0000  -16.8938 N   0  0  0  0  0  0  0  0  0  0  0  0
   25.2864  -18.6778  -15.5137 C   0  0  1  0  0  0  0  0  0  0  0  0
   24.6719  -17.3435  -15.2336 C   0  0  0  0  0  0  0  0  0  0  0  0
   22.9791  -17.4911  -14.5950 S   0  0  0  0  0  0  0  0  0  0  0  0
   24.7128  -19.8042  -14.7610 C   0  0  0  0  0  0  0  0  0  0  0  0
   23.7806  -20.5232  -15.2837 O   0  0  0  0  0  0  0  0  0  0  0  0
   25.0832  -20.2264  -13.4470 N   0  0  0  0  0  0  0  0  0  0  0  0
   24.3546  -21.2837  -12.7820 C   0  0  1  0  0  0  0  0  0  0  0  0
   24.9958  -21.9473  -11.6386 C   0  0  0  0  0  0  0  0  0  0  0  0
   25.6938  -21.1351  -10.6648 C   0  0  0  0  0  0  0  0  0  0  0  0
   25.0339  -20.2907   -9.7558 C   0  0  0  0  0  0  0  0  0  0  0  0
   25.9384  -19.6480   -9.0307 N   0  0  0  0  0  0  0  0  0  0  0  0
   27.1815  -20.0176   -9.4026 C   0  0  0  0  0  0  0  0  0  0  0  0
   28.4319  -19.6498   -8.9536 C   0  0  0  0  0  0  0  0  0  0  0  0
   29.5775  -20.1893   -9.4959 C   0  0  0  0  0  0  0  0  0  0  0  0
   29.4330  -21.1030  -10.4951 C   0  0  0  0  0  0  0  0  0  0  0  0
   28.1824  -21.4762  -10.9537 C   0  0  0  0  0  0  0  0  0  0  0  0
   27.0146  -20.9518  -10.4296 C   0  0  0  0  0  0  0  0  0  0  0  0
   22.9786  -20.7547  -12.3875 C   0  0  0  0  0  0  0  0  0  0  0  0
   22.7985  -19.3954  -12.2119 O   0  0  0  0  0  0  0  0  0  0  0  0
   21.9969  -21.5006  -12.2142 O   0  0  0  0  0  0  0  0  0  0  0  0
  2  3  1  6
  2  1  1  0
  4  2  1  0
  4  5  1  1
  6  7  2  0
  6  4  1  0
  8  6  1  0
  9 12  1  0
  9  8  1  0
  9 10  1  6
 11 10  1  0
 12 13  2  0
 14 15  1  0
 14 12  1  0
 15 16  1  1
 17 16  1  0
 18 17  2  0
 19 20  1  0
 19 18  1  0
 20 25  2  0
 21 22  2  0
 21 20  1  0
 22 23  1  0
 23 24  2  0
 25 24  1  0
 25 17  1  0
 26 15  1  0
 26 27  1  0
 28 26  2  0
M  END
$$$$
