VCW.pdb
     RDKit          3D

 28 29  0  0  1  0  0  0  0  0999 V2000
   25.5046  -23.7028  -17.6602 C   0  0  0  0  0  0  0  0  0  0  0  0
   26.3842  -23.0297  -16.6459 C   0  0  2  0  0  0  0  0  0  0  0  0
   25.7161  -21.7434  -16.2284 C   0  0  0  0  0  0  0  0  0  0  0  0
   27.7757  -22.8152  -17.1702 C   0  0  2  0  0  0  0  0  0  0  0  0
   27.6982  -21.9699  -18.3389 N   0  0  0  0  0  0  0  0  0  0  0  0
   28.3744  -24.1535  -17.4777 C   0  0  0  0  0  0  0  0  0  0  0  0
   27.9910  -24.7281  -18.5303 O   0  0  0  0  0  0  0  0  0  0  0  0
   29.3164  -24.7944  -16.6819 N   0  0  0  0  0  0  0  0  0  0  0  0
   29.9152  -26.0731  -16.9188 C   0  0  1  0  0  0  0  0  0  0  0  0
   31.2974  -26.2616  -16.3800 C   0  0  0  0  0  0  0  0  0  0  0  0
   31.9086  -24.7780  -15.5313 S   0  0  0  0  0  0  0  0  0  0  0  0
   28.9814  -27.1788  -16.6543 C   0  0  0  0  0  0  0  0  0  0  0  0
   28.4284  -27.2952  -15.4968 O   0  0  0  0  0  0  0  0  0  0  0  0
   28.5866  -28.1980  -17.5747 N   0  0  0  0  0  0  0  0  0  0  0  0
   27.6260  -29.2068  -17.1868 C   0  0  1  0  0  0  0  0  0  0  0  0
   26.5149  -29.4884  -18.1061 C   0  0  0  0  0  0  0  0  0  0  0  0
   25.5381  -30.4884  -17.7307 C   0  0  0  0  0  0  0  0  0  0  0  0
   24.3285  -30.1758  -17.0875 C   0  0  0  0  0  0  0  0  0  0  0  0
   23.6726  -31.2994  -16.8343 N   0  0  0  0  0  0  0  0  0  0  0  0
   24.3784  -32.3604  -17.2772 C   0  0  0  0  0  0  0  0  0  0  0  0
   24.1251  -33.7155  -17.2603 C   0  0  0  0  0  0  0  0  0  0  0  0
   25.0141  -34.6193  -17.7990 C   0  0  0  0  0  0  0  0  0  0  0  0
   26.1569  -34.1274  -18.3522 C   0  0  0  0  0  0  0  0  0  0  0  0
   26.4205  -32.7696  -18.3715 C   0  0  0  0  0  0  0  0  0  0  0  0
   25.5480  -31.8381  -17.8381 C   0  0  0  0  0  0  0  0  0  0  0  0
   28.3770  -30.4918  -16.8499 C   0  0  0  0  0  0  0  0  0  0  0  0
   29.3811  -30.9321  -17.6919 O   0  0  0  0  0  0  0  0  0  0  0  0
   28.1243  -31.1715  -15.8378 O   0  0  0  0  0  0  0  0  0  0  0  0
  2  3  1  6
  2  1  1  0
  4  2  1  0
  4  5  1  6
  6  7  2  0
  6  4  1  0
  8  6  1  0
  9 12  1  0
  9  8  1  0
  9 10  1  1
 11 10  1  0
 12 13  2  0
 14 15  1  0
 14 12  1  0
 15 16  1  6
 17 16  1  0
 18 17  2  0
 19 20  1  0
 19 18  1  0
 20 25  2  0
 21 22  2  0
 21 20  1  0
 22 23  1  0
 23 24  2  0
 25 24  1  0
 25 17  1  0
 26 15  1  0
 26 27  1  0
 28 26  2  0
M  END
$$$$
