VCW.pdb
     RDKit          3D

 28 29  0  0  1  0  0  0  0  0999 V2000
   25.0920  -20.7460  -17.3149 C   0  0  0  0  0  0  0  0  0  0  0  0
   25.6024  -19.3354  -17.2416 C   0  0  2  0  0  0  0  0  0  0  0  0
   24.9525  -18.5452  -18.3500 C   0  0  0  0  0  0  0  0  0  0  0  0
   27.1029  -19.2825  -17.2964 C   0  0  2  0  0  0  0  0  0  0  0  0
   27.5370  -19.8988  -18.5286 N   0  0  0  0  0  0  0  0  0  0  0  0
   27.6431  -19.9868  -16.0898 C   0  0  0  0  0  0  0  0  0  0  0  0
   28.0693  -21.1605  -16.2503 O   0  0  0  0  0  0  0  0  0  0  0  0
   27.7023  -19.4318  -14.8169 N   0  0  0  0  0  0  0  0  0  0  0  0
   28.2417  -20.0394  -13.6382 C   0  0  1  0  0  0  0  0  0  0  0  0
   29.7325  -20.0364  -13.5205 C   0  0  0  0  0  0  0  0  0  0  0  0
   30.2923  -20.6623  -11.9111 S   0  0  0  0  0  0  0  0  0  0  0  0
   27.5148  -19.6343  -12.4249 C   0  0  0  0  0  0  0  0  0  0  0  0
   27.3342  -18.3856  -12.1660 O   0  0  0  0  0  0  0  0  0  0  0  0
   26.9495  -20.5033  -11.4415 N   0  0  0  0  0  0  0  0  0  0  0  0
   25.9081  -20.0322  -10.5558 C   0  0  1  0  0  0  0  0  0  0  0  0
   24.6591  -19.5475  -11.1590 C   0  0  0  0  0  0  0  0  0  0  0  0
   23.6594  -20.5142  -11.5603 C   0  0  0  0  0  0  0  0  0  0  0  0
   22.3113  -20.4297  -11.1727 C   0  0  0  0  0  0  0  0  0  0  0  0
   21.6582  -21.4773  -11.6550 N   0  0  0  0  0  0  0  0  0  0  0  0
   22.4984  -22.2685  -12.3538 C   0  0  0  0  0  0  0  0  0  0  0  0
   22.3050  -23.4460  -13.0441 C   0  0  0  0  0  0  0  0  0  0  0  0
   23.3405  -24.0707  -13.7036 C   0  0  0  0  0  0  0  0  0  0  0  0
   24.5678  -23.4831  -13.6513 C   0  0  0  0  0  0  0  0  0  0  0  0
   24.7716  -22.3030  -12.9591 C   0  0  0  0  0  0  0  0  0  0  0  0
   23.7522  -21.6530  -12.2870 C   0  0  0  0  0  0  0  0  0  0  0  0
   25.6149  -21.1193   -9.5256 C   0  0  0  0  0  0  0  0  0  0  0  0
   24.8821  -20.8047   -8.3964 O   0  0  0  0  0  0  0  0  0  0  0  0
   26.0101  -22.2926   -9.6566 O   0  0  0  0  0  0  0  0  0  0  0  0
  2  3  1  6
  2  1  1  0
  4  2  1  0
  4  5  1  6
  6  7  2  0
  6  4  1  0
  8  6  1  0
  9 12  1  0
  9  8  1  0
  9 10  1  1
 11 10  1  0
 12 13  2  0
 14 15  1  0
 14 12  1  0
 15 16  1  6
 17 16  1  0
 18 17  2  0
 19 20  1  0
 19 18  1  0
 20 25  2  0
 21 22  2  0
 21 20  1  0
 22 23  1  0
 23 24  2  0
 25 24  1  0
 25 17  1  0
 26 15  1  0
 26 27  1  0
 28 26  2  0
M  END
$$$$
