VCW.pdb
     RDKit          3D

 28 29  0  0  1  0  0  0  0  0999 V2000
   27.9252  -14.6684  -15.7110 C   0  0  0  0  0  0  0  0  0  0  0  0
   28.4182  -15.9527  -16.3135 C   0  0  2  0  0  0  0  0  0  0  0  0
   29.2999  -15.6094  -17.4883 C   0  0  0  0  0  0  0  0  0  0  0  0
   27.2838  -16.8637  -16.6883 C   0  0  2  0  0  0  0  0  0  0  0  0
   26.4462  -16.1799  -17.6461 N   0  0  0  0  0  0  0  0  0  0  0  0
   26.5385  -17.2254  -15.4402 C   0  0  0  0  0  0  0  0  0  0  0  0
   25.8110  -16.3361  -14.9255 O   0  0  0  0  0  0  0  0  0  0  0  0
   26.5995  -18.4680  -14.8209 N   0  0  0  0  0  0  0  0  0  0  0  0
   25.8013  -18.9213  -13.7222 C   0  0  1  0  0  0  0  0  0  0  0  0
   24.4148  -19.3699  -14.0580 C   0  0  0  0  0  0  0  0  0  0  0  0
   23.4726  -19.8426  -12.5802 S   0  0  0  0  0  0  0  0  0  0  0  0
   26.5509  -19.8147  -12.8253 C   0  0  0  0  0  0  0  0  0  0  0  0
   27.4548  -20.5991  -13.3015 O   0  0  0  0  0  0  0  0  0  0  0  0
   26.3940  -19.9263  -11.4094 N   0  0  0  0  0  0  0  0  0  0  0  0
   26.9969  -21.0246  -10.6874 C   0  0  1  0  0  0  0  0  0  0  0  0
   28.0059  -20.7063   -9.6678 C   0  0  0  0  0  0  0  0  0  0  0  0
   27.5636  -20.3901   -8.3264 C   0  0  0  0  0  0  0  0  0  0  0  0
   26.2165  -20.1644   -7.9960 C   0  0  0  0  0  0  0  0  0  0  0  0
   26.1348  -19.8535   -6.7102 N   0  0  0  0  0  0  0  0  0  0  0  0
   27.3625  -19.8596   -6.1508 C   0  0  0  0  0  0  0  0  0  0  0  0
   27.7974  -19.6172   -4.8652 C   0  0  0  0  0  0  0  0  0  0  0  0
   29.1310  -19.7000   -4.5303 C   0  0  0  0  0  0  0  0  0  0  0  0
   30.0099  -20.0314   -5.5160 C   0  0  0  0  0  0  0  0  0  0  0  0
   29.5829  -20.2739   -6.8092 C   0  0  0  0  0  0  0  0  0  0  0  0
   28.2513  -20.1979   -7.1760 C   0  0  0  0  0  0  0  0  0  0  0  0
   25.8863  -21.8825  -10.0878 C   0  0  0  0  0  0  0  0  0  0  0  0
   26.1778  -23.1603   -9.6482 O   0  0  0  0  0  0  0  0  0  0  0  0
   24.7138  -21.4795   -9.9740 O   0  0  0  0  0  0  0  0  0  0  0  0
  2  3  1  6
  2  1  1  0
  4  2  1  0
  4  5  1  6
  6  7  2  0
  6  4  1  0
  8  6  1  0
  9 12  1  0
  9  8  1  0
  9 10  1  6
 11 10  1  0
 12 13  2  0
 14 15  1  0
 14 12  1  0
 15 16  1  1
 17 16  1  0
 18 17  2  0
 19 20  1  0
 19 18  1  0
 20 25  2  0
 21 22  2  0
 21 20  1  0
 22 23  1  0
 23 24  2  0
 25 24  1  0
 25 17  1  0
 26 15  1  0
 26 27  1  0
 28 26  2  0
M  END
$$$$
