VCW.pdb
     RDKit          3D

 28 29  0  0  1  0  0  0  0  0999 V2000
   26.5259  -25.2306  -17.7565 C   0  0  0  0  0  0  0  0  0  0  0  0
   27.0660  -24.2809  -16.7260 C   0  0  2  0  0  0  0  0  0  0  0  0
   26.3860  -24.5797  -15.4132 C   0  0  0  0  0  0  0  0  0  0  0  0
   26.9032  -22.8485  -17.1490 C   0  0  2  0  0  0  0  0  0  0  0  0
   27.6317  -22.6502  -18.3804 N   0  0  0  0  0  0  0  0  0  0  0  0
   27.4077  -21.9712  -16.0446 C   0  0  0  0  0  0  0  0  0  0  0  0
   28.5936  -22.1511  -15.6620 O   0  0  0  0  0  0  0  0  0  0  0  0
   26.6565  -20.9815  -15.4218 N   0  0  0  0  0  0  0  0  0  0  0  0
   27.0514  -20.1768  -14.3056 C   0  0  1  0  0  0  0  0  0  0  0  0
   26.9922  -18.6964  -14.5089 C   0  0  0  0  0  0  0  0  0  0  0  0
   27.1437  -17.7852  -12.9462 S   0  0  0  0  0  0  0  0  0  0  0  0
   26.4734  -20.6611  -13.0423 C   0  0  0  0  0  0  0  0  0  0  0  0
   25.2388  -21.0252  -12.9939 O   0  0  0  0  0  0  0  0  0  0  0  0
   27.1498  -20.7874  -11.7900 N   0  0  0  0  0  0  0  0  0  0  0  0
   26.4387  -21.2318  -10.6120 C   0  0  1  0  0  0  0  0  0  0  0  0
   27.2282  -21.5852   -9.4242 C   0  0  0  0  0  0  0  0  0  0  0  0
   27.2719  -20.6551   -8.3161 C   0  0  0  0  0  0  0  0  0  0  0  0
   26.5476  -19.4511   -8.2961 C   0  0  0  0  0  0  0  0  0  0  0  0
   26.8281  -18.7984   -7.1771 N   0  0  0  0  0  0  0  0  0  0  0  0
   27.7070  -19.5033   -6.4348 C   0  0  0  0  0  0  0  0  0  0  0  0
   28.2891  -19.2619   -5.2086 C   0  0  0  0  0  0  0  0  0  0  0  0
   29.1649  -20.1600   -4.6398 C   0  0  0  0  0  0  0  0  0  0  0  0
   29.4377  -21.3003   -5.3321 C   0  0  0  0  0  0  0  0  0  0  0  0
   28.8602  -21.5498   -6.5640 C   0  0  0  0  0  0  0  0  0  0  0  0
   27.9780  -20.6672   -7.1608 C   0  0  0  0  0  0  0  0  0  0  0  0
   25.3817  -20.1896  -10.2579 C   0  0  0  0  0  0  0  0  0  0  0  0
   24.2221  -20.5884   -9.6198 O   0  0  0  0  0  0  0  0  0  0  0  0
   25.5171  -18.9801  -10.5202 O   0  0  0  0  0  0  0  0  0  0  0  0
  2  3  1  1
  2  1  1  0
  4  2  1  0
  4  5  1  6
  6  7  2  0
  6  4  1  0
  8  6  1  0
  9 12  1  0
  9  8  1  0
  9 10  1  6
 11 10  1  0
 12 13  2  0
 14 15  1  0
 14 12  1  0
 15 16  1  1
 17 16  1  0
 18 17  2  0
 19 20  1  0
 19 18  1  0
 20 25  2  0
 21 22  2  0
 21 20  1  0
 22 23  1  0
 23 24  2  0
 25 24  1  0
 25 17  1  0
 26 15  1  0
 26 27  1  0
 28 26  2  0
M  END
$$$$
