DTR.pdb
     RDKit          3D

 27 26  0  0  1  0  0  0  0  0999 V2000
   20.6388   -3.3907  -17.0820 N   0  0  0  0  0  0  0  0  0  0  0  0
   20.5406   -4.6010  -16.2899 C   0  0  1  0  0  0  0  0  0  0  0  0
   19.0544   -4.9839  -16.2787 C   0  0  0  0  0  0  0  0  0  0  0  0
   18.4121   -4.2884  -15.1584 C   0  0  0  0  0  0  0  0  0  0  0  0
   19.1132   -3.6048  -14.3594 O   0  0  0  0  0  0  0  0  0  0  0  0
   21.3037   -5.6937  -17.0013 C   0  0  0  0  0  0  0  0  0  0  0  0
   21.5645   -5.5606  -18.2146 O   0  0  0  0  0  0  0  0  0  0  0  0
   17.0379   -4.3577  -14.9443 O   0  0  0  0  0  0  0  0  0  0  0  0
   24.3132   -7.8417  -15.3576 C   0  0  0  0  0  0  0  0  0  0  0  0
   23.8480   -7.9348  -16.7888 C   0  0  1  0  0  0  0  0  0  0  0  0
   24.5367   -8.9962  -17.3426 O   0  0  0  0  0  0  0  0  0  0  0  0
   22.3729   -7.9518  -16.9449 C   0  0  2  0  0  0  0  0  0  0  0  0
   21.7192   -6.8483  -16.3154 N   0  0  0  0  0  0  0  0  0  0  0  0
   21.7101   -9.2685  -16.7522 C   0  0  0  0  0  0  0  0  0  0  0  0
   21.0612   -9.5978  -15.7102 O   0  0  0  0  0  0  0  0  0  0  0  0
   17.1993  -14.3098  -14.0690 N   0  0  0  0  0  0  0  0  0  0  0  0
   17.0617  -15.0625  -15.2730 C   0  0  0  0  0  0  0  0  0  0  0  0
   16.4290  -16.1758  -15.3302 N   0  0  0  0  0  0  0  0  0  0  0  0
   17.6501  -14.5448  -16.4441 N   0  0  0  0  0  0  0  0  0  0  0  0
   18.3516  -13.2512  -16.3702 C   0  0  0  0  0  0  0  0  0  0  0  0
   18.9439  -12.8957  -17.6904 C   0  0  0  0  0  0  0  0  0  0  0  0
   19.6662  -11.6079  -17.7612 C   0  0  0  0  0  0  0  0  0  0  0  0
   21.1364  -11.6160  -17.5265 C   0  0  2  0  0  0  0  0  0  0  0  0
   21.7379  -10.2985  -17.7319 N   0  0  0  0  0  0  0  0  0  0  0  0
   21.9048  -12.5934  -18.3022 C   0  0  0  0  0  0  0  0  0  0  0  0
   22.7513  -12.2436  -19.3498 O   0  0  0  0  0  0  0  0  0  0  0  0
   21.8192  -13.8189  -18.0345 O   0  0  0  0  0  0  0  0  0  0  0  0
  2  1  1  6
  3  4  1  0
  3  2  1  0
  4  5  2  0
  6  7  2  0
  6  2  1  0
  8  4  1  0
 10  9  1  1
 10 12  1  0
 11 10  1  0
 12 13  1  1
 13  6  1  0
 14 12  1  0
 15 14  2  0
 16 17  1  0
 17 18  2  0
 19 17  1  0
 19 20  1  0
 21 20  1  0
 23 22  1  6
 22 21  1  0
 23 24  1  0
 24 14  1  0
 25 23  1  0
 26 25  1  0
 27 25  2  0
M  END
$$$$
