DTR.pdb
     RDKit          3D

 27 26  0  0  1  0  0  0  0  0999 V2000
   17.8567  -24.8000  -11.8533 N   0  0  0  0  0  0  0  0  0  0  0  0
   17.9547  -23.3541  -11.8132 C   0  0  1  0  0  0  0  0  0  0  0  0
   17.8185  -22.9583  -10.3366 C   0  0  0  0  0  0  0  0  0  0  0  0
   16.4016  -23.0487   -9.9685 C   0  0  0  0  0  0  0  0  0  0  0  0
   15.5497  -23.3993  -10.8337 O   0  0  0  0  0  0  0  0  0  0  0  0
   19.3366  -22.9617  -12.2809 C   0  0  0  0  0  0  0  0  0  0  0  0
   20.2806  -23.7632  -12.1244 O   0  0  0  0  0  0  0  0  0  0  0  0
   15.9593  -22.7573   -8.6806 O   0  0  0  0  0  0  0  0  0  0  0  0
   20.8243  -23.8789  -14.3051 C   0  0  0  0  0  0  0  0  0  0  0  0
   20.8809  -22.4552  -14.7987 C   0  0  1  0  0  0  0  0  0  0  0  0
   20.0204  -22.3940  -15.8774 O   0  0  0  0  0  0  0  0  0  0  0  0
   20.6812  -21.4390  -13.7366 C   0  0  2  0  0  0  0  0  0  0  0  0
   19.5669  -21.7137  -12.8857 N   0  0  0  0  0  0  0  0  0  0  0  0
   20.8172  -20.0194  -14.1561 C   0  0  0  0  0  0  0  0  0  0  0  0
   19.8457  -19.2060  -14.2558 O   0  0  0  0  0  0  0  0  0  0  0  0
   28.0999  -15.3667  -15.6350 N   0  0  0  0  0  0  0  0  0  0  0  0
   27.3970  -16.2067  -16.5490 C   0  0  0  0  0  0  0  0  0  0  0  0
   27.9632  -16.7778  -17.5473 N   0  0  0  0  0  0  0  0  0  0  0  0
   26.0201  -16.4111  -16.3299 N   0  0  0  0  0  0  0  0  0  0  0  0
   25.3995  -15.8191  -15.1318 C   0  0  0  0  0  0  0  0  0  0  0  0
   23.9557  -16.1786  -15.0528 C   0  0  0  0  0  0  0  0  0  0  0  0
   23.6393  -17.6220  -15.0110 C   0  0  0  0  0  0  0  0  0  0  0  0
   22.2126  -18.0219  -14.8652 C   0  0  2  0  0  0  0  0  0  0  0  0
   22.0667  -19.4278  -14.4879 N   0  0  0  0  0  0  0  0  0  0  0  0
   21.3537  -17.7704  -16.0255 C   0  0  0  0  0  0  0  0  0  0  0  0
   21.2168  -18.6631  -17.0841 O   0  0  0  0  0  0  0  0  0  0  0  0
   20.6920  -16.7039  -16.1011 O   0  0  0  0  0  0  0  0  0  0  0  0
  2  1  1  1
  3  4  1  0
  3  2  1  0
  4  5  2  0
  6  7  2  0
  6  2  1  0
  8  4  1  0
 10  9  1  1
 10 12  1  0
 11 10  1  0
 12 13  1  6
 13  6  1  0
 14 12  1  0
 15 14  2  0
 16 17  1  0
 17 18  2  0
 19 17  1  0
 19 20  1  0
 21 20  1  0
 23 22  1  6
 22 21  1  0
 23 24  1  0
 24 14  1  0
 25 23  1  0
 26 25  1  0
 27 25  2  0
M  END
$$$$
