DTR.pdb
     RDKit          3D

 27 26  0  0  1  0  0  0  0  0999 V2000
   22.8194  -20.8762   -8.7835 N   0  0  0  0  0  0  0  0  0  0  0  0
   22.6519  -21.3730  -10.1350 C   0  0  1  0  0  0  0  0  0  0  0  0
   21.2056  -21.0480  -10.5327 C   0  0  0  0  0  0  0  0  0  0  0  0
   20.3152  -21.9479   -9.7918 C   0  0  0  0  0  0  0  0  0  0  0  0
   20.7973  -22.7429   -8.9359 O   0  0  0  0  0  0  0  0  0  0  0  0
   23.5763  -20.5948  -11.0418 C   0  0  0  0  0  0  0  0  0  0  0  0
   23.6762  -19.3599  -10.8911 O   0  0  0  0  0  0  0  0  0  0  0  0
   18.9388  -21.9544  -10.0037 O   0  0  0  0  0  0  0  0  0  0  0  0
   27.1700  -20.8336  -11.4898 C   0  0  0  0  0  0  0  0  0  0  0  0
   26.5903  -20.9548  -12.8765 C   0  0  1  0  0  0  0  0  0  0  0  0
   26.9054  -22.2283  -13.3085 O   0  0  0  0  0  0  0  0  0  0  0  0
   25.1637  -20.5596  -12.9717 C   0  0  2  0  0  0  0  0  0  0  0  0
   24.3186  -21.2430  -12.0444 N   0  0  0  0  0  0  0  0  0  0  0  0
   24.6121  -20.4275  -14.3459 C   0  0  0  0  0  0  0  0  0  0  0  0
   23.8748  -21.2968  -14.9080 O   0  0  0  0  0  0  0  0  0  0  0  0
   18.4304  -17.8985  -18.3460 N   0  0  0  0  0  0  0  0  0  0  0  0
   19.2585  -16.8108  -17.9380 C   0  0  0  0  0  0  0  0  0  0  0  0
   18.9601  -15.5849  -18.1641 N   0  0  0  0  0  0  0  0  0  0  0  0
   20.4529  -17.1131  -17.2541 N   0  0  0  0  0  0  0  0  0  0  0  0
   20.7742  -18.5253  -16.9830 C   0  0  0  0  0  0  0  0  0  0  0  0
   21.9796  -18.6351  -16.1141 C   0  0  0  0  0  0  0  0  0  0  0  0
   23.2718  -18.2737  -16.7344 C   0  0  0  0  0  0  0  0  0  0  0  0
   24.4163  -19.2106  -16.5641 C   0  0  2  0  0  0  0  0  0  0  0  0
   24.8592  -19.2976  -15.1726 N   0  0  0  0  0  0  0  0  0  0  0  0
   25.5907  -18.9480  -17.4002 C   0  0  0  0  0  0  0  0  0  0  0  0
   25.7345  -19.4403  -18.6938 O   0  0  0  0  0  0  0  0  0  0  0  0
   26.5353  -18.2457  -16.9584 O   0  0  0  0  0  0  0  0  0  0  0  0
  2  1  1  1
  3  4  1  0
  3  2  1  0
  4  5  2  0
  6  7  2  0
  6  2  1  0
  8  4  1  0
 10  9  1  1
 10 12  1  0
 11 10  1  0
 12 13  1  1
 13  6  1  0
 14 12  1  0
 15 14  2  0
 16 17  1  0
 17 18  2  0
 19 17  1  0
 19 20  1  0
 21 20  1  0
 23 22  1  1
 22 21  1  0
 23 24  1  0
 24 14  1  0
 25 23  1  0
 26 25  1  0
 27 25  2  0
M  END
$$$$
