DTR.pdb
     RDKit          3D

 27 26  0  0  1  0  0  0  0  0999 V2000
   24.3190  -16.3402  -18.4452 N   0  0  0  0  0  0  0  0  0  0  0  0
   23.6952  -17.6488  -18.4581 C   0  0  1  0  0  0  0  0  0  0  0  0
   23.5939  -18.0583  -19.9338 C   0  0  0  0  0  0  0  0  0  0  0  0
   22.6583  -17.1446  -20.5979 C   0  0  0  0  0  0  0  0  0  0  0  0
   22.2072  -16.1440  -19.9715 O   0  0  0  0  0  0  0  0  0  0  0  0
   24.6203  -18.6194  -17.7620 C   0  0  0  0  0  0  0  0  0  0  0  0
   24.3911  -19.8433  -17.8471 O   0  0  0  0  0  0  0  0  0  0  0  0
   22.2461  -17.3465  -21.9127 O   0  0  0  0  0  0  0  0  0  0  0  0
   28.2804  -18.9029  -18.1301 C   0  0  0  0  0  0  0  0  0  0  0  0
   28.0224  -18.8831  -16.6446 C   0  0  1  0  0  0  0  0  0  0  0  0
   28.6783  -17.7679  -16.1612 O   0  0  0  0  0  0  0  0  0  0  0  0
   26.5913  -19.0177  -16.2780 C   0  0  2  0  0  0  0  0  0  0  0  0
   25.7270  -18.1608  -17.0262 N   0  0  0  0  0  0  0  0  0  0  0  0
   26.2935  -19.0967  -14.8237 C   0  0  0  0  0  0  0  0  0  0  0  0
   26.0003  -18.0956  -14.0975 O   0  0  0  0  0  0  0  0  0  0  0  0
   20.6584  -20.1444   -9.2769 N   0  0  0  0  0  0  0  0  0  0  0  0
   21.6247  -20.8198   -8.4737 C   0  0  0  0  0  0  0  0  0  0  0  0
   21.4029  -21.1646   -7.2592 N   0  0  0  0  0  0  0  0  0  0  0  0
   22.8729  -21.1175   -9.0561 N   0  0  0  0  0  0  0  0  0  0  0  0
   23.0479  -20.8990  -10.5027 C   0  0  0  0  0  0  0  0  0  0  0  0
   24.4127  -21.3098  -10.9373 C   0  0  0  0  0  0  0  0  0  0  0  0
   24.7522  -21.0652  -12.3551 C   0  0  0  0  0  0  0  0  0  0  0  0
   26.0484  -20.3991  -12.6596 C   0  0  2  0  0  0  0  0  0  0  0  0
   26.3061  -20.3188  -14.0974 N   0  0  0  0  0  0  0  0  0  0  0  0
   27.2326  -20.9747  -12.0162 C   0  0  0  0  0  0  0  0  0  0  0  0
   27.4604  -20.9205  -10.6445 O   0  0  0  0  0  0  0  0  0  0  0  0
   28.1074  -21.5547  -12.7084 O   0  0  0  0  0  0  0  0  0  0  0  0
  2  1  1  6
  3  4  1  0
  3  2  1  0
  4  5  2  0
  6  7  2  0
  6  2  1  0
  8  4  1  0
 10  9  1  6
 10 12  1  0
 11 10  1  0
 12 13  1  1
 13  6  1  0
 14 12  1  0
 15 14  2  0
 16 17  1  0
 17 18  2  0
 19 17  1  0
 19 20  1  0
 21 20  1  0
 23 22  1  6
 22 21  1  0
 23 24  1  0
 24 14  1  0
 25 23  1  0
 26 25  1  0
 27 25  2  0
M  END
$$$$
