DTR.pdb
     RDKit          3D

 27 26  0  0  1  0  0  0  0  0999 V2000
   26.1650  -21.9110  -10.4126 N   0  0  0  0  0  0  0  0  0  0  0  0
   25.2494  -21.4743  -11.4482 C   0  0  1  0  0  0  0  0  0  0  0  0
   24.1136  -20.7341  -10.7287 C   0  0  0  0  0  0  0  0  0  0  0  0
   22.8383  -21.2598  -11.2271 C   0  0  0  0  0  0  0  0  0  0  0  0
   21.7509  -20.8037  -10.7725 O   0  0  0  0  0  0  0  0  0  0  0  0
   25.9727  -20.4841  -12.3306 C   0  0  0  0  0  0  0  0  0  0  0  0
   26.7665  -19.6739  -11.8097 O   0  0  0  0  0  0  0  0  0  0  0  0
   22.7863  -22.2576  -12.1972 O   0  0  0  0  0  0  0  0  0  0  0  0
   28.2048  -19.2347  -16.3288 C   0  0  0  0  0  0  0  0  0  0  0  0
   27.3516  -20.2021  -15.5479 C   0  0  1  0  0  0  0  0  0  0  0  0
   28.2253  -21.1219  -15.0017 O   0  0  0  0  0  0  0  0  0  0  0  0
   26.4058  -19.5515  -14.6084 C   0  0  2  0  0  0  0  0  0  0  0  0
   25.7622  -20.4672  -13.7205 N   0  0  0  0  0  0  0  0  0  0  0  0
   25.5180  -18.5107  -15.1904 C   0  0  0  0  0  0  0  0  0  0  0  0
   24.4798  -18.7593  -15.8801 O   0  0  0  0  0  0  0  0  0  0  0  0
   22.4515  -11.5164  -16.2198 N   0  0  0  0  0  0  0  0  0  0  0  0
   22.7118  -11.2456  -14.8435 C   0  0  0  0  0  0  0  0  0  0  0  0
   21.8345  -10.7459  -14.0537 N   0  0  0  0  0  0  0  0  0  0  0  0
   23.9939  -11.5492  -14.3437 N   0  0  0  0  0  0  0  0  0  0  0  0
   24.9568  -12.2245  -15.2313 C   0  0  0  0  0  0  0  0  0  0  0  0
   24.4620  -13.5762  -15.6161 C   0  0  0  0  0  0  0  0  0  0  0  0
   25.1988  -14.7294  -15.0570 C   0  0  0  0  0  0  0  0  0  0  0  0
   24.8550  -16.0889  -15.5571 C   0  0  2  0  0  0  0  0  0  0  0  0
   25.7489  -17.1176  -15.0256 N   0  0  0  0  0  0  0  0  0  0  0  0
   24.7995  -16.2420  -17.0135 C   0  0  0  0  0  0  0  0  0  0  0  0
   23.6173  -16.1799  -17.7449 O   0  0  0  0  0  0  0  0  0  0  0  0
   25.8548  -16.4405  -17.6675 O   0  0  0  0  0  0  0  0  0  0  0  0
  2  1  1  1
  3  4  1  0
  3  2  1  0
  4  5  2  0
  6  7  2  0
  6  2  1  0
  8  4  1  0
 10  9  1  1
 10 12  1  0
 11 10  1  0
 12 13  1  6
 13  6  1  0
 14 12  1  0
 15 14  2  0
 16 17  1  0
 17 18  2  0
 19 17  1  0
 19 20  1  0
 21 20  1  0
 23 22  1  6
 22 21  1  0
 23 24  1  0
 24 14  1  0
 25 23  1  0
 26 25  1  0
 27 25  2  0
M  END
$$$$
