DTR.pdb
     RDKit          3D

 27 26  0  0  1  0  0  0  0  0999 V2000
   25.1155  -20.2140  -17.9373 N   0  0  0  0  0  0  0  0  0  0  0  0
   25.7512  -21.5082  -17.7862 C   0  0  1  0  0  0  0  0  0  0  0  0
   26.8251  -21.5860  -18.8799 C   0  0  0  0  0  0  0  0  0  0  0  0
   26.1526  -21.5560  -20.1830 C   0  0  0  0  0  0  0  0  0  0  0  0
   25.5321  -20.5163  -20.5452 O   0  0  0  0  0  0  0  0  0  0  0  0
   26.4427  -21.5403  -16.4434 C   0  0  0  0  0  0  0  0  0  0  0  0
   27.1196  -22.5420  -16.1332 O   0  0  0  0  0  0  0  0  0  0  0  0
   26.1762  -22.6497  -21.0448 O   0  0  0  0  0  0  0  0  0  0  0  0
   28.4963  -18.5507  -14.7645 C   0  0  0  0  0  0  0  0  0  0  0  0
   28.3335  -19.9596  -14.2528 C   0  0  1  0  0  0  0  0  0  0  0  0
   28.9996  -20.0026  -13.0436 O   0  0  0  0  0  0  0  0  0  0  0  0
   26.9313  -20.4438  -14.2514 C   0  0  2  0  0  0  0  0  0  0  0  0
   26.3321  -20.4619  -15.5482 N   0  0  0  0  0  0  0  0  0  0  0  0
   26.0612  -19.9244  -13.1638 C   0  0  0  0  0  0  0  0  0  0  0  0
   25.3601  -18.8678  -13.2508 O   0  0  0  0  0  0  0  0  0  0  0  0
   18.6008  -20.5512  -10.1828 N   0  0  0  0  0  0  0  0  0  0  0  0
   18.8801  -19.7961  -11.3605 C   0  0  0  0  0  0  0  0  0  0  0  0
   18.0340  -18.9914  -11.8893 N   0  0  0  0  0  0  0  0  0  0  0  0
   20.1481  -19.9497  -11.9558 N   0  0  0  0  0  0  0  0  0  0  0  0
   20.9971  -21.0761  -11.5301 C   0  0  0  0  0  0  0  0  0  0  0  0
   22.2484  -20.5816  -10.8898 C   0  0  0  0  0  0  0  0  0  0  0  0
   23.4932  -20.7396  -11.6713 C   0  0  0  0  0  0  0  0  0  0  0  0
   24.7803  -20.3721  -11.0194 C   0  0  2  0  0  0  0  0  0  0  0  0
   25.9272  -20.5720  -11.9052 N   0  0  0  0  0  0  0  0  0  0  0  0
   25.0674  -21.0371   -9.7455 C   0  0  0  0  0  0  0  0  0  0  0  0
   24.6889  -20.5203   -8.5102 O   0  0  0  0  0  0  0  0  0  0  0  0
   25.6853  -22.1320   -9.7308 O   0  0  0  0  0  0  0  0  0  0  0  0
  2  1  1  6
  3  4  1  0
  3  2  1  0
  4  5  2  0
  6  7  2  0
  6  2  1  0
  8  4  1  0
 10  9  1  1
 10 12  1  0
 11 10  1  0
 12 13  1  6
 13  6  1  0
 14 12  1  0
 15 14  2  0
 16 17  1  0
 17 18  2  0
 19 17  1  0
 19 20  1  0
 21 20  1  0
 23 22  1  6
 22 21  1  0
 23 24  1  0
 24 14  1  0
 25 23  1  0
 26 25  1  0
 27 25  2  0
M  END
$$$$
