DTR.pdb
     RDKit          3D

 27 26  0  0  1  0  0  0  0  0999 V2000
   21.7759  -21.9216  -14.2621 N   0  0  0  0  0  0  0  0  0  0  0  0
   20.5762  -22.6974  -14.0164 C   0  0  1  0  0  0  0  0  0  0  0  0
   20.8896  -24.1260  -14.4814 C   0  0  0  0  0  0  0  0  0  0  0  0
   20.8402  -24.1503  -15.9471 C   0  0  0  0  0  0  0  0  0  0  0  0
   20.5406  -23.0997  -16.5823 O   0  0  0  0  0  0  0  0  0  0  0  0
   20.3321  -22.7296  -12.5259 C   0  0  0  0  0  0  0  0  0  0  0  0
   20.8848  -21.8763  -11.8018 O   0  0  0  0  0  0  0  0  0  0  0  0
   21.1162  -25.3080  -16.6702 O   0  0  0  0  0  0  0  0  0  0  0  0
   18.9919  -21.0774  -10.9877 C   0  0  0  0  0  0  0  0  0  0  0  0
   18.2074  -22.2576  -10.4727 C   0  0  1  0  0  0  0  0  0  0  0  0
   16.9407  -22.1334  -11.0091 O   0  0  0  0  0  0  0  0  0  0  0  0
   18.8821  -23.5639  -10.6692 C   0  0  2  0  0  0  0  0  0  0  0  0
   19.4954  -23.7028  -11.9521 N   0  0  0  0  0  0  0  0  0  0  0  0
   18.1401  -24.7612  -10.1939 C   0  0  0  0  0  0  0  0  0  0  0  0
   17.4191  -25.4983  -10.9371 O   0  0  0  0  0  0  0  0  0  0  0  0
   17.7940  -28.4843   -2.1922 N   0  0  0  0  0  0  0  0  0  0  0  0
   18.6091  -27.6475   -3.0112 C   0  0  0  0  0  0  0  0  0  0  0  0
   19.6279  -27.0124   -2.5621 N   0  0  0  0  0  0  0  0  0  0  0  0
   18.2684  -27.5262   -4.3732 N   0  0  0  0  0  0  0  0  0  0  0  0
   16.8673  -27.7440   -4.7735 C   0  0  0  0  0  0  0  0  0  0  0  0
   16.7089  -27.5882   -6.2469 C   0  0  0  0  0  0  0  0  0  0  0  0
   17.4760  -26.4936   -6.8781 C   0  0  0  0  0  0  0  0  0  0  0  0
   17.4031  -26.3508   -8.3583 C   0  0  2  0  0  0  0  0  0  0  0  0
   18.1696  -25.2029   -8.8429 N   0  0  0  0  0  0  0  0  0  0  0  0
   16.0561  -26.2730   -8.9300 C   0  0  0  0  0  0  0  0  0  0  0  0
   15.4500  -27.3271   -9.6067 O   0  0  0  0  0  0  0  0  0  0  0  0
   15.3851  -25.2152   -8.8219 O   0  0  0  0  0  0  0  0  0  0  0  0
  2  1  1  1
  3  4  1  0
  3  2  1  0
  4  5  2  0
  6  7  2  0
  6  2  1  0
  8  4  1  0
 10  9  1  6
 10 12  1  0
 11 10  1  0
 12 13  1  6
 13  6  1  0
 14 12  1  0
 15 14  2  0
 16 17  1  0
 17 18  2  0
 19 17  1  0
 19 20  1  0
 21 20  1  0
 23 22  1  1
 22 21  1  0
 23 24  1  0
 24 14  1  0
 25 23  1  0
 26 25  1  0
 27 25  2  0
M  END
$$$$
