DTR.pdb
     RDKit          3D

 27 26  0  0  1  0  0  0  0  0999 V2000
   28.0268  -10.4748  -20.8714 N   0  0  0  0  0  0  0  0  0  0  0  0
   26.6954  -10.4663  -20.2978 C   0  0  1  0  0  0  0  0  0  0  0  0
   26.7034  -11.5245  -19.1861 C   0  0  0  0  0  0  0  0  0  0  0  0
   26.5623  -12.8440  -19.8108 C   0  0  0  0  0  0  0  0  0  0  0  0
   26.3775  -12.9313  -21.0579 O   0  0  0  0  0  0  0  0  0  0  0  0
   26.4644   -9.1157  -19.6614 C   0  0  0  0  0  0  0  0  0  0  0  0
   26.9361   -8.8903  -18.5280 O   0  0  0  0  0  0  0  0  0  0  0  0
   26.6265  -14.0182  -19.0649 O   0  0  0  0  0  0  0  0  0  0  0  0
   27.2768   -5.7689  -21.2318 C   0  0  0  0  0  0  0  0  0  0  0  0
   25.8531   -5.7208  -20.7374 C   0  0  1  0  0  0  0  0  0  0  0  0
   25.0643   -5.6047  -21.8652 O   0  0  0  0  0  0  0  0  0  0  0  0
   25.5029   -6.8129  -19.7966 C   0  0  2  0  0  0  0  0  0  0  0  0
   25.7301   -8.1195  -20.3282 N   0  0  0  0  0  0  0  0  0  0  0  0
   24.2267   -6.6503  -19.0518 C   0  0  0  0  0  0  0  0  0  0  0  0
   23.3199   -7.5382  -18.9826 O   0  0  0  0  0  0  0  0  0  0  0  0
   20.7094   -8.6499  -12.2546 N   0  0  0  0  0  0  0  0  0  0  0  0
   19.5966   -7.9546  -12.8146 C   0  0  0  0  0  0  0  0  0  0  0  0
   18.4090   -8.0438  -12.3407 N   0  0  0  0  0  0  0  0  0  0  0  0
   19.8297   -7.1345  -13.9366 N   0  0  0  0  0  0  0  0  0  0  0  0
   21.1204   -7.2468  -14.6383 C   0  0  0  0  0  0  0  0  0  0  0  0
   21.1677   -6.3242  -15.8074 C   0  0  0  0  0  0  0  0  0  0  0  0
   22.3675   -6.4130  -16.6664 C   0  0  0  0  0  0  0  0  0  0  0  0
   22.6348   -5.2954  -17.6131 C   0  0  2  0  0  0  0  0  0  0  0  0
   23.8962   -5.4688  -18.3334 N   0  0  0  0  0  0  0  0  0  0  0  0
   22.6212   -3.9484  -17.0362 C   0  0  0  0  0  0  0  0  0  0  0  0
   21.4557   -3.2920  -16.6526 O   0  0  0  0  0  0  0  0  0  0  0  0
   23.6994   -3.3248  -16.8647 O   0  0  0  0  0  0  0  0  0  0  0  0
  2  1  1  1
  3  4  1  0
  3  2  1  0
  4  5  2  0
  6  7  2  0
  6  2  1  0
  8  4  1  0
 10  9  1  6
 10 12  1  0
 11 10  1  0
 12 13  1  6
 13  6  1  0
 14 12  1  0
 15 14  2  0
 16 17  1  0
 17 18  2  0
 19 17  1  0
 19 20  1  0
 21 20  1  0
 23 22  1  1
 22 21  1  0
 23 24  1  0
 24 14  1  0
 25 23  1  0
 26 25  1  0
 27 25  2  0
M  END
$$$$
