DTR.pdb
     RDKit          3D

 27 26  0  0  1  0  0  0  0  0999 V2000
   21.3910   -6.0374  -17.1252 N   0  0  0  0  0  0  0  0  0  0  0  0
   21.2429   -6.1620  -15.6885 C   0  0  1  0  0  0  0  0  0  0  0  0
   21.1223   -4.7312  -15.1465 C   0  0  0  0  0  0  0  0  0  0  0  0
   21.5630   -4.7342  -13.7476 C   0  0  0  0  0  0  0  0  0  0  0  0
   21.9447   -5.8134  -13.2123 O   0  0  0  0  0  0  0  0  0  0  0  0
   19.9452   -6.8831  -15.4087 C   0  0  0  0  0  0  0  0  0  0  0  0
   18.8765   -6.3946  -15.8297 O   0  0  0  0  0  0  0  0  0  0  0  0
   21.5746   -3.5717  -12.9808 O   0  0  0  0  0  0  0  0  0  0  0  0
   18.7944   -9.7256  -16.8177 C   0  0  0  0  0  0  0  0  0  0  0  0
   18.6403  -10.0448  -15.3522 C   0  0  1  0  0  0  0  0  0  0  0  0
   19.5079  -11.0892  -15.0989 O   0  0  0  0  0  0  0  0  0  0  0  0
   18.7513   -8.8638  -14.4615 C   0  0  2  0  0  0  0  0  0  0  0  0
   19.9302   -8.0884  -14.6853 N   0  0  0  0  0  0  0  0  0  0  0  0
   18.4079   -9.0879  -13.0326 C   0  0  0  0  0  0  0  0  0  0  0  0
   19.2608   -9.1484  -12.0922 O   0  0  0  0  0  0  0  0  0  0  0  0
   12.6575   -5.7474   -8.1997 N   0  0  0  0  0  0  0  0  0  0  0  0
   14.0161   -5.3465   -8.3690 C   0  0  0  0  0  0  0  0  0  0  0  0
   14.4010   -4.1280   -8.2673 N   0  0  0  0  0  0  0  0  0  0  0  0
   14.9665   -6.3462   -8.6572 N   0  0  0  0  0  0  0  0  0  0  0  0
   14.5471   -7.7575   -8.6006 C   0  0  0  0  0  0  0  0  0  0  0  0
   15.6330   -8.6511   -9.0934 C   0  0  0  0  0  0  0  0  0  0  0  0
   16.0688   -8.4463  -10.4911 C   0  0  0  0  0  0  0  0  0  0  0  0
   16.7338   -9.5802  -11.1901 C   0  0  2  0  0  0  0  0  0  0  0  0
   17.0720   -9.2555  -12.5758 N   0  0  0  0  0  0  0  0  0  0  0  0
   16.0068  -10.8526  -11.1849 C   0  0  0  0  0  0  0  0  0  0  0  0
   15.8312  -11.6288  -10.0435 O   0  0  0  0  0  0  0  0  0  0  0  0
   15.5028  -11.2954  -12.2483 O   0  0  0  0  0  0  0  0  0  0  0  0
  2  1  1  6
  3  4  1  0
  3  2  1  0
  4  5  2  0
  6  7  2  0
  6  2  1  0
  8  4  1  0
 10  9  1  6
 10 12  1  0
 11 10  1  0
 12 13  1  1
 13  6  1  0
 14 12  1  0
 15 14  2  0
 16 17  1  0
 17 18  2  0
 19 17  1  0
 19 20  1  0
 21 20  1  0
 23 22  1  6
 22 21  1  0
 23 24  1  0
 24 14  1  0
 25 23  1  0
 26 25  1  0
 27 25  2  0
M  END
$$$$
