DTR.pdb
     RDKit          3D

 27 26  0  0  1  0  0  0  0  0999 V2000
   29.4185  -22.5414  -17.1308 N   0  0  0  0  0  0  0  0  0  0  0  0
   28.1927  -22.5516  -17.9048 C   0  0  1  0  0  0  0  0  0  0  0  0
   27.5810  -23.9466  -17.7163 C   0  0  0  0  0  0  0  0  0  0  0  0
   27.9561  -24.7694  -18.8711 C   0  0  0  0  0  0  0  0  0  0  0  0
   27.8165  -24.3106  -20.0403 O   0  0  0  0  0  0  0  0  0  0  0  0
   27.2474  -21.5373  -17.3049 C   0  0  0  0  0  0  0  0  0  0  0  0
   27.6372  -20.8355  -16.3491 O   0  0  0  0  0  0  0  0  0  0  0  0
   28.4674  -26.0557  -18.7188 O   0  0  0  0  0  0  0  0  0  0  0  0
   25.9886  -18.6275  -18.8384 C   0  0  0  0  0  0  0  0  0  0  0  0
   24.7517  -19.3155  -18.3185 C   0  0  1  0  0  0  0  0  0  0  0  0
   24.0213  -19.6755  -19.4341 O   0  0  0  0  0  0  0  0  0  0  0  0
   25.0269  -20.3910  -17.3346 C   0  0  2  0  0  0  0  0  0  0  0  0
   25.9447  -21.3778  -17.8088 N   0  0  0  0  0  0  0  0  0  0  0  0
   23.8477  -20.9277  -16.6056 C   0  0  0  0  0  0  0  0  0  0  0  0
   23.6369  -22.1635  -16.3964 O   0  0  0  0  0  0  0  0  0  0  0  0
   25.7940  -20.6197   -9.0962 N   0  0  0  0  0  0  0  0  0  0  0  0
   24.4009  -20.7525   -8.8190 C   0  0  0  0  0  0  0  0  0  0  0  0
   23.9418  -20.9621   -7.6407 N   0  0  0  0  0  0  0  0  0  0  0  0
   23.5015  -20.6428   -9.8983 N   0  0  0  0  0  0  0  0  0  0  0  0
   24.0455  -20.4877  -11.2588 C   0  0  0  0  0  0  0  0  0  0  0  0
   22.9468  -20.4368  -12.2640 C   0  0  0  0  0  0  0  0  0  0  0  0
   23.3561  -20.3109  -13.6789 C   0  0  0  0  0  0  0  0  0  0  0  0
   22.2881  -20.2687  -14.7153 C   0  0  2  0  0  0  0  0  0  0  0  0
   22.8301  -20.0961  -16.0631 N   0  0  0  0  0  0  0  0  0  0  0  0
   21.2383  -19.2662  -14.5148 C   0  0  0  0  0  0  0  0  0  0  0  0
   20.0606  -19.5203  -13.8185 O   0  0  0  0  0  0  0  0  0  0  0  0
   21.3757  -18.1069  -14.9819 O   0  0  0  0  0  0  0  0  0  0  0  0
  2  1  1  1
  3  4  1  0
  3  2  1  0
  4  5  2  0
  6  7  2  0
  6  2  1  0
  8  4  1  0
 10  9  1  6
 10 12  1  0
 11 10  1  0
 12 13  1  6
 13  6  1  0
 14 12  1  0
 15 14  2  0
 16 17  1  0
 17 18  2  0
 19 17  1  0
 19 20  1  0
 21 20  1  0
 23 22  1  1
 22 21  1  0
 23 24  1  0
 24 14  1  0
 25 23  1  0
 26 25  1  0
 27 25  2  0
M  END
$$$$
