DTR.pdb
     RDKit          3D

 27 26  0  0  1  0  0  0  0  0999 V2000
   23.5658  -18.7103  -18.8853 N   0  0  0  0  0  0  0  0  0  0  0  0
   23.9866  -18.4563  -17.5215 C   0  0  1  0  0  0  0  0  0  0  0  0
   23.3952  -17.0924  -17.1399 C   0  0  0  0  0  0  0  0  0  0  0  0
   24.3351  -16.0511  -17.5686 C   0  0  0  0  0  0  0  0  0  0  0  0
   24.3161  -15.6425  -18.7644 O   0  0  0  0  0  0  0  0  0  0  0  0
   23.3629  -19.5060  -16.6320 C   0  0  0  0  0  0  0  0  0  0  0  0
   22.2875  -20.0354  -16.9801 O   0  0  0  0  0  0  0  0  0  0  0  0
   25.2589  -15.4913  -16.6898 O   0  0  0  0  0  0  0  0  0  0  0  0
   25.6027  -22.1328  -14.7057 C   0  0  0  0  0  0  0  0  0  0  0  0
   24.4759  -21.6556  -13.8248 C   0  0  1  0  0  0  0  0  0  0  0  0
   25.0753  -21.0386  -12.7441 O   0  0  0  0  0  0  0  0  0  0  0  0
   23.4394  -20.8722  -14.5406 C   0  0  2  0  0  0  0  0  0  0  0  0
   23.9772  -19.8890  -15.4268 N   0  0  0  0  0  0  0  0  0  0  0  0
   22.2832  -20.4177  -13.7242 C   0  0  0  0  0  0  0  0  0  0  0  0
   22.1781  -19.2580  -13.2149 O   0  0  0  0  0  0  0  0  0  0  0  0
   15.7682  -19.0153  -15.9471 N   0  0  0  0  0  0  0  0  0  0  0  0
   15.4698  -18.3993  -14.6954 C   0  0  0  0  0  0  0  0  0  0  0  0
   14.2721  -18.1840  -14.2927 N   0  0  0  0  0  0  0  0  0  0  0  0
   16.5503  -18.0192  -13.8745 N   0  0  0  0  0  0  0  0  0  0  0  0
   17.9218  -18.2100  -14.3780 C   0  0  0  0  0  0  0  0  0  0  0  0
   18.4514  -19.5432  -13.9752 C   0  0  0  0  0  0  0  0  0  0  0  0
   19.4815  -19.5479  -12.9150 C   0  0  0  0  0  0  0  0  0  0  0  0
   20.0858  -20.8536  -12.5321 C   0  0  2  0  0  0  0  0  0  0  0  0
   21.1674  -21.2496  -13.4340 N   0  0  0  0  0  0  0  0  0  0  0  0
   19.1567  -21.9805  -12.4128 C   0  0  0  0  0  0  0  0  0  0  0  0
   18.1261  -22.0270  -11.4790 O   0  0  0  0  0  0  0  0  0  0  0  0
   19.2671  -22.9726  -13.1773 O   0  0  0  0  0  0  0  0  0  0  0  0
  2  1  1  6
  3  4  1  0
  3  2  1  0
  4  5  2  0
  6  7  2  0
  6  2  1  0
  8  4  1  0
 10  9  1  6
 10 12  1  0
 11 10  1  0
 12 13  1  1
 13  6  1  0
 14 12  1  0
 15 14  2  0
 16 17  1  0
 17 18  2  0
 19 17  1  0
 19 20  1  0
 21 20  1  0
 23 22  1  6
 22 21  1  0
 23 24  1  0
 24 14  1  0
 25 23  1  0
 26 25  1  0
 27 25  2  0
M  END
$$$$
