DTR.pdb
     RDKit          3D

 27 26  0  0  1  0  0  0  0  0999 V2000
   26.7767  -22.4062  -17.4270 N   0  0  0  0  0  0  0  0  0  0  0  0
   26.0986  -21.3452  -16.7087 C   0  0  1  0  0  0  0  0  0  0  0  0
   25.2294  -20.6176  -17.7434 C   0  0  0  0  0  0  0  0  0  0  0  0
   26.0928  -19.7130  -18.5099 C   0  0  0  0  0  0  0  0  0  0  0  0
   26.0448  -19.7197  -19.7727 O   0  0  0  0  0  0  0  0  0  0  0  0
   25.1841  -21.9775  -15.6858 C   0  0  0  0  0  0  0  0  0  0  0  0
   25.0856  -23.2211  -15.6463 O   0  0  0  0  0  0  0  0  0  0  0  0
   26.9746  -18.8360  -17.8832 O   0  0  0  0  0  0  0  0  0  0  0  0
   25.5580  -21.5576  -12.1360 C   0  0  0  0  0  0  0  0  0  0  0  0
   24.0871  -21.3346  -12.3814 C   0  0  1  0  0  0  0  0  0  0  0  0
   23.8318  -20.0333  -11.9953 O   0  0  0  0  0  0  0  0  0  0  0  0
   23.6360  -21.7203  -13.7409 C   0  0  2  0  0  0  0  0  0  0  0  0
   24.4499  -21.1852  -14.7860 N   0  0  0  0  0  0  0  0  0  0  0  0
   22.1715  -21.6531  -13.9874 C   0  0  0  0  0  0  0  0  0  0  0  0
   21.6170  -20.8366  -14.7881 O   0  0  0  0  0  0  0  0  0  0  0  0
   15.6948  -27.2119  -12.0859 N   0  0  0  0  0  0  0  0  0  0  0  0
   16.2727  -27.0079  -13.3742 C   0  0  0  0  0  0  0  0  0  0  0  0
   16.2533  -27.8989  -14.2955 N   0  0  0  0  0  0  0  0  0  0  0  0
   16.8855  -25.7654  -13.6317 N   0  0  0  0  0  0  0  0  0  0  0  0
   16.8572  -24.7322  -12.5816 C   0  0  0  0  0  0  0  0  0  0  0  0
   17.5665  -23.5018  -13.0324 C   0  0  0  0  0  0  0  0  0  0  0  0
   19.0436  -23.5413  -12.9876 C   0  0  0  0  0  0  0  0  0  0  0  0
   19.7899  -22.3332  -13.4349 C   0  0  2  0  0  0  0  0  0  0  0  0
   21.2390  -22.5111  -13.3427 N   0  0  0  0  0  0  0  0  0  0  0  0
   19.4415  -21.0782  -12.7634 C   0  0  0  0  0  0  0  0  0  0  0  0
   18.3857  -20.2643  -13.1625 O   0  0  0  0  0  0  0  0  0  0  0  0
   20.1090  -20.6866  -11.7725 O   0  0  0  0  0  0  0  0  0  0  0  0
  2  1  1  6
  3  4  1  0
  3  2  1  0
  4  5  2  0
  6  7  2  0
  6  2  1  0
  8  4  1  0
 10  9  1  6
 10 12  1  0
 11 10  1  0
 12 13  1  6
 13  6  1  0
 14 12  1  0
 15 14  2  0
 16 17  1  0
 17 18  2  0
 19 17  1  0
 19 20  1  0
 21 20  1  0
 23 22  1  1
 22 21  1  0
 23 24  1  0
 24 14  1  0
 25 23  1  0
 26 25  1  0
 27 25  2  0
M  END
$$$$
