DTR.pdb
     RDKit          3D

 27 26  0  0  1  0  0  0  0  0999 V2000
   17.2600  -11.9199  -15.3089 N   0  0  0  0  0  0  0  0  0  0  0  0
   16.3002  -11.0215  -14.6980 C   0  0  1  0  0  0  0  0  0  0  0  0
   15.5417  -11.8533  -13.6548 C   0  0  0  0  0  0  0  0  0  0  0  0
   14.3938  -12.4809  -14.3180 C   0  0  0  0  0  0  0  0  0  0  0  0
   13.8233  -11.8892  -15.2780 O   0  0  0  0  0  0  0  0  0  0  0  0
   17.0633   -9.9380  -13.9727 C   0  0  0  0  0  0  0  0  0  0  0  0
   18.0458  -10.2537  -13.2707 O   0  0  0  0  0  0  0  0  0  0  0  0
   13.9064  -13.7229  -13.9193 O   0  0  0  0  0  0  0  0  0  0  0  0
   18.9913   -7.1912  -15.2816 C   0  0  0  0  0  0  0  0  0  0  0  0
   18.0028   -6.5589  -14.3347 C   0  0  1  0  0  0  0  0  0  0  0  0
   17.1623   -5.7942  -15.1199 O   0  0  0  0  0  0  0  0  0  0  0  0
   17.3507   -7.5197  -13.4116 C   0  0  2  0  0  0  0  0  0  0  0  0
   16.6806   -8.5895  -14.0806 N   0  0  0  0  0  0  0  0  0  0  0  0
   16.6053   -6.9267  -12.2702 C   0  0  0  0  0  0  0  0  0  0  0  0
   15.3497   -7.0316  -12.1032 O   0  0  0  0  0  0  0  0  0  0  0  0
   11.9269   -8.3503   -6.3576 N   0  0  0  0  0  0  0  0  0  0  0  0
   12.2019   -8.4303   -7.7552 C   0  0  0  0  0  0  0  0  0  0  0  0
   11.6695   -9.3097   -8.5209 N   0  0  0  0  0  0  0  0  0  0  0  0
   13.0982   -7.4920   -8.3046 N   0  0  0  0  0  0  0  0  0  0  0  0
   14.1268   -6.9013   -7.4305 C   0  0  0  0  0  0  0  0  0  0  0  0
   14.9652   -5.9278   -8.1852 C   0  0  0  0  0  0  0  0  0  0  0  0
   15.6956   -6.4585   -9.3557 C   0  0  0  0  0  0  0  0  0  0  0  0
   16.4990   -5.5059  -10.1703 C   0  0  2  0  0  0  0  0  0  0  0  0
   17.2368   -6.1770  -11.2405 N   0  0  0  0  0  0  0  0  0  0  0  0
   17.4397   -4.6619   -9.4286 C   0  0  0  0  0  0  0  0  0  0  0  0
   17.0397   -3.6645   -8.5445 O   0  0  0  0  0  0  0  0  0  0  0  0
   18.6786   -4.8198   -9.5739 O   0  0  0  0  0  0  0  0  0  0  0  0
  2  1  1  1
  3  4  1  0
  3  2  1  0
  4  5  2  0
  6  7  2  0
  6  2  1  0
  8  4  1  0
 10  9  1  6
 10 12  1  0
 11 10  1  0
 12 13  1  6
 13  6  1  0
 14 12  1  0
 15 14  2  0
 16 17  1  0
 17 18  2  0
 19 17  1  0
 19 20  1  0
 21 20  1  0
 23 22  1  1
 22 21  1  0
 23 24  1  0
 24 14  1  0
 25 23  1  0
 26 25  1  0
 27 25  2  0
M  END
$$$$
