DTR.pdb
     RDKit          3D

 27 26  0  0  1  0  0  0  0  0999 V2000
   19.4436  -14.0298  -16.3270 N   0  0  0  0  0  0  0  0  0  0  0  0
   19.0517  -12.8632  -17.0931 C   0  0  1  0  0  0  0  0  0  0  0  0
   17.5583  -13.0374  -17.4012 C   0  0  0  0  0  0  0  0  0  0  0  0
   17.4056  -14.2056  -18.2749 C   0  0  0  0  0  0  0  0  0  0  0  0
   16.6814  -15.1737  -17.9071 O   0  0  0  0  0  0  0  0  0  0  0  0
   19.2127  -11.6453  -16.2137 C   0  0  0  0  0  0  0  0  0  0  0  0
   18.7354  -11.6621  -15.0606 O   0  0  0  0  0  0  0  0  0  0  0  0
   18.0407  -14.2832  -19.5118 O   0  0  0  0  0  0  0  0  0  0  0  0
   22.1544  -10.2527  -14.7861 C   0  0  0  0  0  0  0  0  0  0  0  0
   21.5186   -9.1042  -15.5279 C   0  0  1  0  0  0  0  0  0  0  0  0
   22.3768   -8.8033  -16.5674 O   0  0  0  0  0  0  0  0  0  0  0  0
   20.0979   -9.3308  -15.8895 C   0  0  2  0  0  0  0  0  0  0  0  0
   19.8894  -10.5039  -16.6780 N   0  0  0  0  0  0  0  0  0  0  0  0
   19.3364   -8.1328  -16.3309 C   0  0  0  0  0  0  0  0  0  0  0  0
   18.5397   -8.1157  -17.3211 O   0  0  0  0  0  0  0  0  0  0  0  0
   11.9938   -5.7895  -16.5610 N   0  0  0  0  0  0  0  0  0  0  0  0
   12.4628   -4.6066  -15.9159 C   0  0  0  0  0  0  0  0  0  0  0  0
   11.6762   -3.7023  -15.4614 N   0  0  0  0  0  0  0  0  0  0  0  0
   13.8551   -4.4406  -15.7766 N   0  0  0  0  0  0  0  0  0  0  0  0
   14.7521   -5.3836  -16.4675 C   0  0  0  0  0  0  0  0  0  0  0  0
   16.1763   -4.9821  -16.2923 C   0  0  0  0  0  0  0  0  0  0  0  0
   17.1523   -6.0795  -16.1242 C   0  0  0  0  0  0  0  0  0  0  0  0
   18.5952   -5.7246  -16.0299 C   0  0  2  0  0  0  0  0  0  0  0  0
   19.4269   -6.8746  -15.6753 N   0  0  0  0  0  0  0  0  0  0  0  0
   18.9275   -4.6245  -15.1207 C   0  0  0  0  0  0  0  0  0  0  0  0
   18.8192   -3.2824  -15.4718 O   0  0  0  0  0  0  0  0  0  0  0  0
   19.3341   -4.8694  -13.9564 O   0  0  0  0  0  0  0  0  0  0  0  0
  2  1  1  1
  3  4  1  0
  3  2  1  0
  4  5  2  0
  6  7  2  0
  6  2  1  0
  8  4  1  0
 10  9  1  6
 10 12  1  0
 11 10  1  0
 12 13  1  6
 13  6  1  0
 14 12  1  0
 15 14  2  0
 16 17  1  0
 17 18  2  0
 19 17  1  0
 19 20  1  0
 21 20  1  0
 23 22  1  1
 22 21  1  0
 23 24  1  0
 24 14  1  0
 25 23  1  0
 26 25  1  0
 27 25  2  0
M  END
$$$$
