DTR.pdb
     RDKit          3D

 27 26  0  0  1  0  0  0  0  0999 V2000
   19.3917  -10.7287  -14.8652 N   0  0  0  0  0  0  0  0  0  0  0  0
   18.2709   -9.8425  -14.6198 C   0  0  1  0  0  0  0  0  0  0  0  0
   17.0205  -10.7322  -14.5993 C   0  0  0  0  0  0  0  0  0  0  0  0
   16.6375  -11.0136  -15.9869 C   0  0  0  0  0  0  0  0  0  0  0  0
   17.3183  -10.5308  -16.9359 O   0  0  0  0  0  0  0  0  0  0  0  0
   18.4407   -9.2362  -13.2465 C   0  0  0  0  0  0  0  0  0  0  0  0
   18.6268   -9.9900  -12.2692 O   0  0  0  0  0  0  0  0  0  0  0  0
   15.5345  -11.8054  -16.2962 O   0  0  0  0  0  0  0  0  0  0  0  0
   21.0198   -7.3177  -11.8776 C   0  0  0  0  0  0  0  0  0  0  0  0
   19.7947   -6.4813  -11.6075 C   0  0  1  0  0  0  0  0  0  0  0  0
   19.9539   -5.3263  -12.3480 O   0  0  0  0  0  0  0  0  0  0  0  0
   18.5146   -7.2090  -11.7868 C   0  0  2  0  0  0  0  0  0  0  0  0
   18.3920   -7.8436  -13.0610 N   0  0  0  0  0  0  0  0  0  0  0  0
   17.2921   -6.5083  -11.3130 C   0  0  0  0  0  0  0  0  0  0  0  0
   16.3658   -6.0895  -12.0759 O   0  0  0  0  0  0  0  0  0  0  0  0
   10.9745   -8.1898   -6.1637 N   0  0  0  0  0  0  0  0  0  0  0  0
   11.5428   -8.5567   -7.4197 C   0  0  0  0  0  0  0  0  0  0  0  0
   11.2772   -9.6643   -8.0078 N   0  0  0  0  0  0  0  0  0  0  0  0
   12.4315   -7.6495   -8.0304 N   0  0  0  0  0  0  0  0  0  0  0  0
   12.8449   -6.4511   -7.2795 C   0  0  0  0  0  0  0  0  0  0  0  0
   13.7572   -5.6038   -8.0981 C   0  0  0  0  0  0  0  0  0  0  0  0
   14.9621   -6.2681   -8.6388 C   0  0  0  0  0  0  0  0  0  0  0  0
   15.8913   -5.4596   -9.4752 C   0  0  2  0  0  0  0  0  0  0  0  0
   17.0388   -6.2387   -9.9403 N   0  0  0  0  0  0  0  0  0  0  0  0
   16.3953   -4.2261   -8.8654 C   0  0  0  0  0  0  0  0  0  0  0  0
   17.7346   -4.0213   -8.5482 O   0  0  0  0  0  0  0  0  0  0  0  0
   15.6053   -3.2841   -8.6023 O   0  0  0  0  0  0  0  0  0  0  0  0
  2  1  1  1
  3  4  1  0
  3  2  1  0
  4  5  2  0
  6  7  2  0
  6  2  1  0
  8  4  1  0
 10  9  1  6
 10 12  1  0
 11 10  1  0
 12 13  1  6
 13  6  1  0
 14 12  1  0
 15 14  2  0
 16 17  1  0
 17 18  2  0
 19 17  1  0
 19 20  1  0
 21 20  1  0
 23 22  1  1
 22 21  1  0
 23 24  1  0
 24 14  1  0
 25 23  1  0
 26 25  1  0
 27 25  2  0
M  END
$$$$
