NKM.pdb
     RDKit          3D

 26 25  0  0  1  0  0  0  0  0999 V2000
   18.9679  -15.0063  -17.6554 N   0  0  0  0  0  0  0  0  0  0  0  0
   17.8201  -14.3553  -18.2343 C   0  0  0  0  0  0  0  0  0  0  0  0
   17.1033  -14.9870  -19.0355 O   0  0  0  0  0  0  0  0  0  0  0  0
   17.5741  -12.9656  -17.8288 C   0  0  0  0  0  0  0  0  0  0  0  0
   18.5789  -12.4443  -16.8299 C   0  0  2  0  0  0  0  0  0  0  0  0
   18.3289  -13.1569  -15.5912 N   0  0  0  0  0  0  0  0  0  0  0  0
   18.4321  -10.9958  -16.6890 C   0  0  0  0  0  0  0  0  0  0  0  0
   18.6111  -10.2009  -17.6399 O   0  0  0  0  0  0  0  0  0  0  0  0
   18.0657  -10.3770  -15.4265 N   0  0  0  0  0  0  0  0  0  0  0  0
   17.9691   -8.9750  -15.2928 C   0  0  1  0  0  0  0  0  0  0  0  0
   16.8938   -8.3759  -14.4852 C   0  0  0  0  0  0  0  0  0  0  0  0
   15.4823   -8.6887  -14.7126 C   0  0  0  0  0  0  0  0  0  0  0  0
   14.4566   -8.0487  -13.8333 C   0  0  0  0  0  0  0  0  0  0  0  0
   13.0436   -8.4683  -14.2672 C   0  0  0  0  0  0  0  0  0  0  0  0
   12.0268   -7.8315  -13.4874 N   0  0  0  0  0  0  0  0  0  0  0  0
   19.3018   -8.3346  -14.9802 C   0  0  0  0  0  0  0  0  0  0  0  0
   19.9554   -8.8862  -14.0584 O   0  0  0  0  0  0  0  0  0  0  0  0
   26.3394   -6.8261  -17.2671 C   0  0  0  0  0  0  0  0  0  0  0  0
   24.6520   -7.5193  -17.4523 S   0  0  0  0  0  0  0  0  0  0  0  0
   23.5026   -6.8736  -16.3059 C   0  0  0  0  0  0  0  0  0  0  0  0
   22.0817   -7.1962  -16.2956 C   0  0  0  0  0  0  0  0  0  0  0  0
   21.1114   -6.6830  -15.3061 C   0  0  2  0  0  0  0  0  0  0  0  0
   19.7522   -7.2072  -15.6809 N   0  0  0  0  0  0  0  0  0  0  0  0
   20.9066   -5.1871  -15.3865 C   0  0  0  0  0  0  0  0  0  0  0  0
   19.9768   -4.7020  -16.1151 O   0  0  0  0  0  0  0  0  0  0  0  0
   21.6793   -4.3229  -14.7111 O   0  0  0  0  0  0  0  0  0  0  0  0
  1  2  1  0
  2  4  1  0
  2  3  2  0
  5  4  1  0
  5  6  1  1
  7  5  1  0
  7  9  1  0
  8  7  2  0
 10 11  1  1
 10  9  1  0
 10 16  1  0
 11 12  1  0
 12 13  1  0
 13 14  1  0
 14 15  1  0
 16 23  1  0
 17 16  2  0
 19 20  1  0
 19 18  1  0
 21 20  1  0
 22 21  1  6
 23 22  1  0
 24 22  1  0
 24 26  1  0
 25 24  2  0
M  END
$$$$
