NKM.pdb
     RDKit          3D

 26 25  0  0  1  0  0  0  0  0999 V2000
   14.5069  -12.6277  -12.2960 N   0  0  0  0  0  0  0  0  0  0  0  0
   13.4231  -11.8564  -11.7422 C   0  0  0  0  0  0  0  0  0  0  0  0
   12.2497  -12.2313  -11.9357 O   0  0  0  0  0  0  0  0  0  0  0  0
   13.7888  -10.6597  -10.9738 C   0  0  0  0  0  0  0  0  0  0  0  0
   15.2775  -10.4177  -10.9110 C   0  0  2  0  0  0  0  0  0  0  0  0
   15.7419  -11.0512   -9.6914 N   0  0  0  0  0  0  0  0  0  0  0  0
   15.5478   -8.9804  -10.9404 C   0  0  0  0  0  0  0  0  0  0  0  0
   15.4407   -8.2919  -11.9809 O   0  0  0  0  0  0  0  0  0  0  0  0
   15.9618   -8.2492   -9.7550 N   0  0  0  0  0  0  0  0  0  0  0  0
   16.2262   -6.8632   -9.7983 C   0  0  1  0  0  0  0  0  0  0  0  0
   15.7103   -5.9731   -8.7452 C   0  0  0  0  0  0  0  0  0  0  0  0
   14.2797   -5.8471   -8.4635 C   0  0  0  0  0  0  0  0  0  0  0  0
   13.8434   -4.9210   -7.3741 C   0  0  0  0  0  0  0  0  0  0  0  0
   12.3096   -4.8703   -7.2978 C   0  0  0  0  0  0  0  0  0  0  0  0
   11.8479   -3.9894   -6.2691 N   0  0  0  0  0  0  0  0  0  0  0  0
   17.6771   -6.5642  -10.0969 C   0  0  0  0  0  0  0  0  0  0  0  0
   18.5059   -7.1451   -9.3506 O   0  0  0  0  0  0  0  0  0  0  0  0
   23.3111   -9.0148  -13.5409 C   0  0  0  0  0  0  0  0  0  0  0  0
   22.0176   -8.5741  -12.3182 S   0  0  0  0  0  0  0  0  0  0  0  0
   20.6422   -7.7576  -13.0210 C   0  0  0  0  0  0  0  0  0  0  0  0
   19.5125   -7.2438  -12.2574 C   0  0  0  0  0  0  0  0  0  0  0  0
   19.4270   -5.8772  -11.7015 C   0  0  2  0  0  0  0  0  0  0  0  0
   18.0451   -5.6973  -11.1351 N   0  0  0  0  0  0  0  0  0  0  0  0
   19.4794   -4.7956  -12.7568 C   0  0  0  0  0  0  0  0  0  0  0  0
   18.4569   -4.5527  -13.4822 O   0  0  0  0  0  0  0  0  0  0  0  0
   20.5814   -4.0615  -12.9732 O   0  0  0  0  0  0  0  0  0  0  0  0
  1  2  1  0
  2  4  1  0
  2  3  2  0
  5  4  1  0
  5  6  1  1
  7  5  1  0
  7  9  1  0
  8  7  2  0
 10 11  1  1
 10  9  1  0
 10 16  1  0
 11 12  1  0
 12 13  1  0
 13 14  1  0
 14 15  1  0
 16 23  1  0
 17 16  2  0
 19 20  1  0
 19 18  1  0
 21 20  1  0
 22 21  1  6
 23 22  1  0
 24 22  1  0
 24 26  1  0
 25 24  2  0
M  END
$$$$
