NKM.pdb
     RDKit          3D

 26 25  0  0  1  0  0  0  0  0999 V2000
   17.2550  -20.5403  -13.6157 N   0  0  0  0  0  0  0  0  0  0  0  0
   17.9894  -20.5233  -14.8553 C   0  0  0  0  0  0  0  0  0  0  0  0
   17.3632  -20.4592  -15.9317 O   0  0  0  0  0  0  0  0  0  0  0  0
   19.4533  -20.5837  -14.7570 C   0  0  0  0  0  0  0  0  0  0  0  0
   19.9585  -20.6335  -13.3353 C   0  0  2  0  0  0  0  0  0  0  0  0
   20.0188  -19.2587  -12.8763 N   0  0  0  0  0  0  0  0  0  0  0  0
   21.2593  -21.3013  -13.2945 C   0  0  0  0  0  0  0  0  0  0  0  0
   21.7642  -21.7374  -12.2347 O   0  0  0  0  0  0  0  0  0  0  0  0
   22.0592  -21.5052  -14.4902 N   0  0  0  0  0  0  0  0  0  0  0  0
   23.3243  -22.1290  -14.4337 C   0  0  1  0  0  0  0  0  0  0  0  0
   23.7960  -22.9600  -15.5537 C   0  0  0  0  0  0  0  0  0  0  0  0
   25.1162  -23.5917  -15.5530 C   0  0  0  0  0  0  0  0  0  0  0  0
   25.5211  -24.4054  -16.7399 C   0  0  0  0  0  0  0  0  0  0  0  0
   26.9337  -24.9759  -16.5402 C   0  0  0  0  0  0  0  0  0  0  0  0
   27.3721  -25.7415  -17.6667 N   0  0  0  0  0  0  0  0  0  0  0  0
   24.4088  -21.1870  -13.9644 C   0  0  0  0  0  0  0  0  0  0  0  0
   24.2615  -19.9879  -14.3133 O   0  0  0  0  0  0  0  0  0  0  0  0
   30.8677  -22.1847  -10.5388 C   0  0  0  0  0  0  0  0  0  0  0  0
   29.4405  -21.2958   -9.8073 S   0  0  0  0  0  0  0  0  0  0  0  0
   28.4053  -20.5408  -10.9952 C   0  0  0  0  0  0  0  0  0  0  0  0
   27.2982  -21.2103  -11.6655 C   0  0  0  0  0  0  0  0  0  0  0  0
   26.4595  -20.5979  -12.7167 C   0  0  2  0  0  0  0  0  0  0  0  0
   25.4905  -21.6429  -13.1983 N   0  0  0  0  0  0  0  0  0  0  0  0
   27.2240  -20.2699  -13.9793 C   0  0  0  0  0  0  0  0  0  0  0  0
   27.5364  -21.1950  -14.8024 O   0  0  0  0  0  0  0  0  0  0  0  0
   27.6015  -19.0183  -14.2811 O   0  0  0  0  0  0  0  0  0  0  0  0
  1  2  1  0
  2  4  1  0
  2  3  2  0
  5  4  1  0
  5  6  1  6
  7  5  1  0
  7  9  1  0
  8  7  2  0
 10 11  1  6
 10  9  1  0
 10 16  1  0
 11 12  1  0
 12 13  1  0
 13 14  1  0
 14 15  1  0
 16 23  1  0
 17 16  2  0
 19 20  1  0
 19 18  1  0
 21 20  1  0
 22 21  1  1
 23 22  1  0
 24 22  1  0
 24 26  1  0
 25 24  2  0
M  END
$$$$
