NKM.pdb
     RDKit          3D

 26 25  0  0  1  0  0  0  0  0999 V2000
   17.1932  -19.3745  -12.0009 N   0  0  0  0  0  0  0  0  0  0  0  0
   18.3716  -19.5092  -12.8192 C   0  0  0  0  0  0  0  0  0  0  0  0
   18.5070  -18.7717  -13.8155 O   0  0  0  0  0  0  0  0  0  0  0  0
   19.3474  -20.5274  -12.4101 C   0  0  0  0  0  0  0  0  0  0  0  0
   20.0969  -21.1409  -13.5680 C   0  0  2  0  0  0  0  0  0  0  0  0
   19.2163  -22.1432  -14.1377 N   0  0  0  0  0  0  0  0  0  0  0  0
   21.3632  -21.7019  -13.0974 C   0  0  0  0  0  0  0  0  0  0  0  0
   21.4730  -22.3049  -12.0053 O   0  0  0  0  0  0  0  0  0  0  0  0
   22.5883  -21.5965  -13.8715 N   0  0  0  0  0  0  0  0  0  0  0  0
   23.7870  -22.2059  -13.4418 C   0  0  1  0  0  0  0  0  0  0  0  0
   24.5380  -23.0922  -14.3461 C   0  0  0  0  0  0  0  0  0  0  0  0
   24.0496  -24.4208  -14.7177 C   0  0  0  0  0  0  0  0  0  0  0  0
   24.8282  -25.2165  -15.7155 C   0  0  0  0  0  0  0  0  0  0  0  0
   24.0395  -26.4666  -16.1351 C   0  0  0  0  0  0  0  0  0  0  0  0
   24.7225  -27.2262  -17.1370 N   0  0  0  0  0  0  0  0  0  0  0  0
   24.7107  -21.2311  -12.7489 C   0  0  0  0  0  0  0  0  0  0  0  0
   24.7393  -20.0770  -13.2475 O   0  0  0  0  0  0  0  0  0  0  0  0
   26.7186  -19.3460   -6.6508 C   0  0  0  0  0  0  0  0  0  0  0  0
   28.1437  -20.2417   -7.3781 S   0  0  0  0  0  0  0  0  0  0  0  0
   28.0636  -20.3854   -9.1175 C   0  0  0  0  0  0  0  0  0  0  0  0
   26.9619  -21.0061   -9.8415 C   0  0  0  0  0  0  0  0  0  0  0  0
   26.5858  -20.6850  -11.2341 C   0  0  2  0  0  0  0  0  0  0  0  0
   25.4705  -21.6117  -11.6342 N   0  0  0  0  0  0  0  0  0  0  0  0
   27.6601  -21.0300  -12.2406 C   0  0  0  0  0  0  0  0  0  0  0  0
   27.7410  -22.2120  -12.7174 O   0  0  0  0  0  0  0  0  0  0  0  0
   28.5576  -20.1277  -12.6652 O   0  0  0  0  0  0  0  0  0  0  0  0
  1  2  1  0
  2  4  1  0
  2  3  2  0
  5  4  1  0
  5  6  1  1
  7  5  1  0
  7  9  1  0
  8  7  2  0
 10 11  1  6
 10  9  1  0
 10 16  1  0
 11 12  1  0
 12 13  1  0
 13 14  1  0
 14 15  1  0
 16 23  1  0
 17 16  2  0
 19 20  1  0
 19 18  1  0
 21 20  1  0
 22 21  1  1
 23 22  1  0
 24 22  1  0
 24 26  1  0
 25 24  2  0
M  END
$$$$
