NKM.pdb
     RDKit          3D

 26 25  0  0  1  0  0  0  0  0999 V2000
   23.7641  -14.3169  -16.9404 N   0  0  0  0  0  0  0  0  0  0  0  0
   24.2505  -13.1199  -16.3025 C   0  0  0  0  0  0  0  0  0  0  0  0
   25.3723  -13.1344  -15.7583 O   0  0  0  0  0  0  0  0  0  0  0  0
   23.3697  -11.9456  -16.3416 C   0  0  0  0  0  0  0  0  0  0  0  0
   22.0789  -12.1872  -17.0862 C   0  0  2  0  0  0  0  0  0  0  0  0
   22.4455  -12.4274  -18.4692 N   0  0  0  0  0  0  0  0  0  0  0  0
   21.1920  -11.0348  -16.9278 C   0  0  0  0  0  0  0  0  0  0  0  0
   21.3000   -9.9965  -17.6195 O   0  0  0  0  0  0  0  0  0  0  0  0
   20.1177  -11.0173  -15.9497 N   0  0  0  0  0  0  0  0  0  0  0  0
   19.2725   -9.8962  -15.8026 C   0  0  1  0  0  0  0  0  0  0  0  0
   17.9224  -10.0503  -15.2360 C   0  0  0  0  0  0  0  0  0  0  0  0
   16.9684  -11.0328  -15.7522 C   0  0  0  0  0  0  0  0  0  0  0  0
   16.1723  -11.8386  -14.7767 C   0  0  0  0  0  0  0  0  0  0  0  0
   15.2519  -12.8197  -15.5190 C   0  0  0  0  0  0  0  0  0  0  0  0
   14.4523  -13.5959  -14.6215 N   0  0  0  0  0  0  0  0  0  0  0  0
   19.9865   -8.7153  -15.1867 C   0  0  0  0  0  0  0  0  0  0  0  0
   20.6265   -8.9687  -14.1343 O   0  0  0  0  0  0  0  0  0  0  0  0
   25.1537   -3.2323  -16.7643 C   0  0  0  0  0  0  0  0  0  0  0  0
   23.9806   -4.5381  -17.2944 S   0  0  0  0  0  0  0  0  0  0  0  0
   22.8294   -4.9855  -16.0586 C   0  0  0  0  0  0  0  0  0  0  0  0
   21.8211   -6.0262  -16.2121 C   0  0  0  0  0  0  0  0  0  0  0  0
   20.8279   -6.3913  -15.1806 C   0  0  2  0  0  0  0  0  0  0  0  0
   19.9224   -7.4404  -15.7657 N   0  0  0  0  0  0  0  0  0  0  0  0
   19.8565   -5.2773  -14.8618 C   0  0  0  0  0  0  0  0  0  0  0  0
   18.7214   -5.2254  -15.4446 O   0  0  0  0  0  0  0  0  0  0  0  0
   20.1414   -4.3138  -13.9727 O   0  0  0  0  0  0  0  0  0  0  0  0
  1  2  1  0
  2  4  1  0
  2  3  2  0
  5  4  1  0
  5  6  1  6
  7  5  1  0
  7  9  1  0
  8  7  2  0
 10 11  1  1
 10  9  1  0
 10 16  1  0
 11 12  1  0
 12 13  1  0
 13 14  1  0
 14 15  1  0
 16 23  1  0
 17 16  2  0
 19 20  1  0
 19 18  1  0
 21 20  1  0
 22 21  1  6
 23 22  1  0
 24 22  1  0
 24 26  1  0
 25 24  2  0
M  END
$$$$
