NKM.pdb
     RDKit          3D

 26 25  0  0  1  0  0  0  0  0999 V2000
   26.0034  -35.3672  -16.2515 N   0  0  0  0  0  0  0  0  0  0  0  0
   24.5928  -35.0919  -16.1494 C   0  0  0  0  0  0  0  0  0  0  0  0
   23.8597  -35.3025  -17.1359 O   0  0  0  0  0  0  0  0  0  0  0  0
   24.1122  -34.5723  -14.8628 C   0  0  0  0  0  0  0  0  0  0  0  0
   25.1973  -34.4524  -13.8202 C   0  0  2  0  0  0  0  0  0  0  0  0
   25.2187  -35.7158  -13.1076 N   0  0  0  0  0  0  0  0  0  0  0  0
   24.9202  -33.3136  -12.9449 C   0  0  0  0  0  0  0  0  0  0  0  0
   24.8579  -32.1355  -13.3650 O   0  0  0  0  0  0  0  0  0  0  0  0
   24.6967  -33.4740  -11.5182 N   0  0  0  0  0  0  0  0  0  0  0  0
   24.1910  -32.4194  -10.7277 C   0  0  1  0  0  0  0  0  0  0  0  0
   23.0924  -31.5754  -11.2260 C   0  0  0  0  0  0  0  0  0  0  0  0
   22.5532  -30.4592  -10.4481 C   0  0  0  0  0  0  0  0  0  0  0  0
   21.4124  -29.6767  -11.0148 C   0  0  0  0  0  0  0  0  0  0  0  0
   20.9870  -28.5687  -10.0390 C   0  0  0  0  0  0  0  0  0  0  0  0
   19.9142  -27.7754  -10.5557 N   0  0  0  0  0  0  0  0  0  0  0  0
   23.9439  -32.8408   -9.2976 C   0  0  0  0  0  0  0  0  0  0  0  0
   22.9867  -33.6399   -9.1349 O   0  0  0  0  0  0  0  0  0  0  0  0
   29.5917  -32.3333   -6.0089 C   0  0  0  0  0  0  0  0  0  0  0  0
   28.5986  -33.4016   -4.8977 S   0  0  0  0  0  0  0  0  0  0  0  0
   27.0033  -33.7580   -5.5144 C   0  0  0  0  0  0  0  0  0  0  0  0
   26.3338  -32.9899   -6.5560 C   0  0  0  0  0  0  0  0  0  0  0  0
   25.0059  -33.3153   -7.1168 C   0  0  2  0  0  0  0  0  0  0  0  0
   24.7379  -32.3598   -8.2473 N   0  0  0  0  0  0  0  0  0  0  0  0
   23.8649  -33.0144   -6.1714 C   0  0  0  0  0  0  0  0  0  0  0  0
   23.6921  -33.7235   -5.1234 O   0  0  0  0  0  0  0  0  0  0  0  0
   23.0013  -32.0114   -6.3903 O   0  0  0  0  0  0  0  0  0  0  0  0
  1  2  1  0
  2  4  1  0
  2  3  2  0
  5  4  1  0
  5  6  1  1
  7  5  1  0
  7  9  1  0
  8  7  2  0
 10 11  1  6
 10  9  1  0
 10 16  1  0
 11 12  1  0
 12 13  1  0
 13 14  1  0
 14 15  1  0
 16 23  1  0
 17 16  2  0
 19 20  1  0
 19 18  1  0
 21 20  1  0
 22 21  1  1
 23 22  1  0
 24 22  1  0
 24 26  1  0
 25 24  2  0
M  END
$$$$
