NKM.pdb
     RDKit          3D

 26 25  0  0  1  0  0  0  0  0999 V2000
   28.2699  -26.6508  -15.8519 N   0  0  0  0  0  0  0  0  0  0  0  0
   27.2146  -25.8508  -16.4198 C   0  0  0  0  0  0  0  0  0  0  0  0
   27.4966  -24.7521  -16.9376 O   0  0  0  0  0  0  0  0  0  0  0  0
   25.8552  -26.4009  -16.3452 C   0  0  0  0  0  0  0  0  0  0  0  0
   24.7901  -25.3475  -16.1581 C   0  0  2  0  0  0  0  0  0  0  0  0
   25.0623  -24.7158  -14.8809 N   0  0  0  0  0  0  0  0  0  0  0  0
   23.4658  -25.9663  -16.2126 C   0  0  0  0  0  0  0  0  0  0  0  0
   23.2978  -27.2072  -16.2293 O   0  0  0  0  0  0  0  0  0  0  0  0
   22.2467  -25.1767  -16.2512 N   0  0  0  0  0  0  0  0  0  0  0  0
   21.1097  -25.5380  -15.4965 C   0  0  1  0  0  0  0  0  0  0  0  0
   21.2578  -26.0427  -14.1214 C   0  0  0  0  0  0  0  0  0  0  0  0
   20.1067  -26.4362  -13.3079 C   0  0  0  0  0  0  0  0  0  0  0  0
   20.3539  -27.0639  -11.9738 C   0  0  0  0  0  0  0  0  0  0  0  0
   19.0294  -27.2540  -11.2187 C   0  0  0  0  0  0  0  0  0  0  0  0
   19.2175  -27.8786   -9.9452 N   0  0  0  0  0  0  0  0  0  0  0  0
   20.0133  -24.5012  -15.5774 C   0  0  0  0  0  0  0  0  0  0  0  0
   20.3101  -23.3733  -15.1075 O   0  0  0  0  0  0  0  0  0  0  0  0
   18.2090  -22.5990  -21.1119 C   0  0  0  0  0  0  0  0  0  0  0  0
   16.6229  -22.3572  -20.2242 S   0  0  0  0  0  0  0  0  0  0  0  0
   16.7500  -22.5773  -18.4957 C   0  0  0  0  0  0  0  0  0  0  0  0
   17.6464  -23.5284  -17.8515 C   0  0  0  0  0  0  0  0  0  0  0  0
   17.8449  -23.6383  -16.3913 C   0  0  2  0  0  0  0  0  0  0  0  0
   18.7646  -24.8016  -16.1389 N   0  0  0  0  0  0  0  0  0  0  0  0
   16.5971  -24.0542  -15.6455 C   0  0  0  0  0  0  0  0  0  0  0  0
   15.9025  -25.0451  -16.0535 O   0  0  0  0  0  0  0  0  0  0  0  0
   16.1736  -23.4109  -14.5470 O   0  0  0  0  0  0  0  0  0  0  0  0
  1  2  1  0
  2  4  1  0
  2  3  2  0
  5  4  1  0
  5  6  1  1
  7  5  1  0
  7  9  1  0
  8  7  2  0
 10 11  1  1
 10  9  1  0
 10 16  1  0
 11 12  1  0
 12 13  1  0
 13 14  1  0
 14 15  1  0
 16 23  1  0
 17 16  2  0
 19 20  1  0
 19 18  1  0
 21 20  1  0
 22 21  1  6
 23 22  1  0
 24 22  1  0
 24 26  1  0
 25 24  2  0
M  END
$$$$
