NKM.pdb
     RDKit          3D

 26 25  0  0  1  0  0  0  0  0999 V2000
   24.6952  -21.2136   -9.0891 N   0  0  0  0  0  0  0  0  0  0  0  0
   25.5507  -20.1039   -9.4250 C   0  0  0  0  0  0  0  0  0  0  0  0
   25.8370  -19.2690   -8.5443 O   0  0  0  0  0  0  0  0  0  0  0  0
   26.0330  -20.0371  -10.8104 C   0  0  0  0  0  0  0  0  0  0  0  0
   25.5295  -21.1660  -11.6771 C   0  0  2  0  0  0  0  0  0  0  0  0
   26.2121  -22.3630  -11.2236 N   0  0  0  0  0  0  0  0  0  0  0  0
   25.7902  -20.8647  -13.0845 C   0  0  0  0  0  0  0  0  0  0  0  0
   26.9077  -21.0444  -13.6202 O   0  0  0  0  0  0  0  0  0  0  0  0
   24.7620  -20.3325  -13.9625 N   0  0  0  0  0  0  0  0  0  0  0  0
   24.9570  -20.2439  -15.3578 C   0  0  1  0  0  0  0  0  0  0  0  0
   24.0100  -20.8853  -16.2847 C   0  0  0  0  0  0  0  0  0  0  0  0
   24.2910  -22.1751  -16.9166 C   0  0  0  0  0  0  0  0  0  0  0  0
   24.7455  -23.3099  -16.0561 C   0  0  0  0  0  0  0  0  0  0  0  0
   25.1082  -24.5259  -16.9224 C   0  0  0  0  0  0  0  0  0  0  0  0
   25.6727  -25.5907  -16.1511 N   0  0  0  0  0  0  0  0  0  0  0  0
   25.2827  -18.8373  -15.8042 C   0  0  0  0  0  0  0  0  0  0  0  0
   24.5342  -17.9422  -15.3354 O   0  0  0  0  0  0  0  0  0  0  0  0
   31.3586  -16.9246  -17.3998 C   0  0  0  0  0  0  0  0  0  0  0  0
   30.3550  -15.5011  -17.9730 S   0  0  0  0  0  0  0  0  0  0  0  0
   28.6378  -15.7164  -17.7333 C   0  0  0  0  0  0  0  0  0  0  0  0
   28.0248  -16.9381  -17.2283 C   0  0  0  0  0  0  0  0  0  0  0  0
   26.5711  -17.1373  -17.0527 C   0  0  2  0  0  0  0  0  0  0  0  0
   26.3464  -18.5770  -16.6791 N   0  0  0  0  0  0  0  0  0  0  0  0
   25.7890  -17.0192  -18.3413 C   0  0  0  0  0  0  0  0  0  0  0  0
   25.1843  -15.9324  -18.6311 O   0  0  0  0  0  0  0  0  0  0  0  0
   25.6968  -18.0320  -19.2164 O   0  0  0  0  0  0  0  0  0  0  0  0
  1  2  1  0
  2  4  1  0
  2  3  2  0
  5  4  1  0
  5  6  1  1
  7  5  1  0
  7  9  1  0
  8  7  2  0
 10 11  1  6
 10  9  1  0
 10 16  1  0
 11 12  1  0
 12 13  1  0
 13 14  1  0
 14 15  1  0
 16 23  1  0
 17 16  2  0
 19 20  1  0
 19 18  1  0
 21 20  1  0
 22 21  1  6
 23 22  1  0
 24 22  1  0
 24 26  1  0
 25 24  2  0
M  END
$$$$
