NKM.pdb
     RDKit          3D

 26 25  0  0  1  0  0  0  0  0999 V2000
   20.7400  -21.2751  -11.7441 N   0  0  0  0  0  0  0  0  0  0  0  0
   20.6395  -21.9484  -13.0140 C   0  0  0  0  0  0  0  0  0  0  0  0
   20.0635  -23.0527  -13.0723 O   0  0  0  0  0  0  0  0  0  0  0  0
   21.2360  -21.2691  -14.1712 C   0  0  0  0  0  0  0  0  0  0  0  0
   21.9245  -19.9729  -13.8179 C   0  0  2  0  0  0  0  0  0  0  0  0
   20.9624  -19.1938  -13.0618 N   0  0  0  0  0  0  0  0  0  0  0  0
   22.3659  -19.2975  -15.0380 C   0  0  0  0  0  0  0  0  0  0  0  0
   23.2033  -19.7968  -15.8239 O   0  0  0  0  0  0  0  0  0  0  0  0
   21.8585  -17.9916  -15.4231 N   0  0  0  0  0  0  0  0  0  0  0  0
   22.2229  -17.3904  -16.6473 C   0  0  1  0  0  0  0  0  0  0  0  0
   21.2504  -16.5782  -17.3971 C   0  0  0  0  0  0  0  0  0  0  0  0
   19.9021  -17.0602  -17.6999 C   0  0  0  0  0  0  0  0  0  0  0  0
   18.9679  -16.1566  -18.4386 C   0  0  0  0  0  0  0  0  0  0  0  0
   17.5991  -16.8316  -18.6152 C   0  0  0  0  0  0  0  0  0  0  0  0
   16.7065  -16.0451  -19.4102 N   0  0  0  0  0  0  0  0  0  0  0  0
   23.5627  -16.6956  -16.5698 C   0  0  0  0  0  0  0  0  0  0  0  0
   23.6890  -15.8855  -15.6163 O   0  0  0  0  0  0  0  0  0  0  0  0
   31.3541  -16.8071  -17.6702 C   0  0  0  0  0  0  0  0  0  0  0  0
   29.7305  -17.6534  -17.7695 S   0  0  0  0  0  0  0  0  0  0  0  0
   28.3709  -16.5876  -17.5084 C   0  0  0  0  0  0  0  0  0  0  0  0
   26.9813  -17.0236  -17.4617 C   0  0  0  0  0  0  0  0  0  0  0  0
   25.8180  -16.1146  -17.3973 C   0  0  2  0  0  0  0  0  0  0  0  0
   24.5735  -16.9526  -17.5062 N   0  0  0  0  0  0  0  0  0  0  0  0
   25.6961  -15.2095  -18.6023 C   0  0  0  0  0  0  0  0  0  0  0  0
   25.1960  -15.6502  -19.6916 O   0  0  0  0  0  0  0  0  0  0  0  0
   26.1026  -13.9311  -18.5796 O   0  0  0  0  0  0  0  0  0  0  0  0
  1  2  1  0
  2  4  1  0
  2  3  2  0
  5  4  1  0
  5  6  1  6
  7  5  1  0
  7  9  1  0
  8  7  2  0
 10 11  1  1
 10  9  1  0
 10 16  1  0
 11 12  1  0
 12 13  1  0
 13 14  1  0
 14 15  1  0
 16 23  1  0
 17 16  2  0
 19 20  1  0
 19 18  1  0
 21 20  1  0
 22 21  1  6
 23 22  1  0
 24 22  1  0
 24 26  1  0
 25 24  2  0
M  END
$$$$
