NKM.pdb
     RDKit          3D

 26 25  0  0  1  0  0  0  0  0999 V2000
   18.8415  -16.3725  -17.2064 N   0  0  0  0  0  0  0  0  0  0  0  0
   18.6784  -15.6669  -18.4521 C   0  0  0  0  0  0  0  0  0  0  0  0
   18.5810  -16.3181  -19.5109 O   0  0  0  0  0  0  0  0  0  0  0  0
   18.6378  -14.2008  -18.3807 C   0  0  0  0  0  0  0  0  0  0  0  0
   18.7237  -13.6652  -16.9719 C   0  0  2  0  0  0  0  0  0  0  0  0
   17.5070  -14.0842  -16.3021 N   0  0  0  0  0  0  0  0  0  0  0  0
   18.8805  -12.2112  -17.0031 C   0  0  0  0  0  0  0  0  0  0  0  0
   19.6250  -11.6273  -17.8235 O   0  0  0  0  0  0  0  0  0  0  0  0
   18.1775  -11.3397  -16.0771 N   0  0  0  0  0  0  0  0  0  0  0  0
   18.3337   -9.9374  -16.1209 C   0  0  1  0  0  0  0  0  0  0  0  0
   17.2100   -9.0514  -15.7746 C   0  0  0  0  0  0  0  0  0  0  0  0
   15.8282   -9.3673  -16.1386 C   0  0  0  0  0  0  0  0  0  0  0  0
   14.7360   -8.4726  -15.6471 C   0  0  0  0  0  0  0  0  0  0  0  0
   13.3650   -9.0163  -16.0779 C   0  0  0  0  0  0  0  0  0  0  0  0
   12.2894   -8.1819  -15.6372 N   0  0  0  0  0  0  0  0  0  0  0  0
   19.6094   -9.4803  -15.4520 C   0  0  0  0  0  0  0  0  0  0  0  0
   19.7757   -9.8992  -14.2780 O   0  0  0  0  0  0  0  0  0  0  0  0
   26.7635  -10.6427  -14.5712 C   0  0  0  0  0  0  0  0  0  0  0  0
   25.0537  -10.8749  -15.1915 S   0  0  0  0  0  0  0  0  0  0  0  0
   24.2241   -9.3749  -15.5291 C   0  0  0  0  0  0  0  0  0  0  0  0
   22.8439   -9.2836  -15.9872 C   0  0  0  0  0  0  0  0  0  0  0  0
   21.8245   -8.3848  -15.4069 C   0  0  2  0  0  0  0  0  0  0  0  0
   20.5232   -8.6487  -16.1139 N   0  0  0  0  0  0  0  0  0  0  0  0
   22.0637   -6.9249  -15.7193 C   0  0  0  0  0  0  0  0  0  0  0  0
   21.6126   -6.4146  -16.7996 O   0  0  0  0  0  0  0  0  0  0  0  0
   22.7486   -6.1202  -14.8927 O   0  0  0  0  0  0  0  0  0  0  0  0
  1  2  1  0
  2  4  1  0
  2  3  2  0
  5  4  1  0
  5  6  1  1
  7  5  1  0
  7  9  1  0
  8  7  2  0
 10 11  1  1
 10  9  1  0
 10 16  1  0
 11 12  1  0
 12 13  1  0
 13 14  1  0
 14 15  1  0
 16 23  1  0
 17 16  2  0
 19 20  1  0
 19 18  1  0
 21 20  1  0
 22 21  1  6
 23 22  1  0
 24 22  1  0
 24 26  1  0
 25 24  2  0
M  END
$$$$
