NKM.pdb
     RDKit          3D

 26 25  0  0  1  0  0  0  0  0999 V2000
   28.0926  -19.6479  -14.5322 N   0  0  0  0  0  0  0  0  0  0  0  0
   27.8810  -21.0729  -14.5597 C   0  0  0  0  0  0  0  0  0  0  0  0
   28.8668  -21.8321  -14.6409 O   0  0  0  0  0  0  0  0  0  0  0  0
   26.4893  -21.5359  -14.4883 C   0  0  0  0  0  0  0  0  0  0  0  0
   25.4871  -20.4122  -14.3793 C   0  0  2  0  0  0  0  0  0  0  0  0
   26.1137  -19.3849  -13.5689 N   0  0  0  0  0  0  0  0  0  0  0  0
   24.2427  -20.9127  -13.7957 C   0  0  0  0  0  0  0  0  0  0  0  0
   23.5016  -21.7344  -14.3820 O   0  0  0  0  0  0  0  0  0  0  0  0
   23.7791  -20.4867  -12.4861 N   0  0  0  0  0  0  0  0  0  0  0  0
   22.4584  -20.7360  -12.0542 C   0  0  1  0  0  0  0  0  0  0  0  0
   22.1498  -20.8315  -10.6179 C   0  0  0  0  0  0  0  0  0  0  0  0
   21.2515  -21.8543  -10.0805 C   0  0  0  0  0  0  0  0  0  0  0  0
   21.0289  -21.9069   -8.6032 C   0  0  0  0  0  0  0  0  0  0  0  0
   19.9794  -22.9748   -8.2583 C   0  0  0  0  0  0  0  0  0  0  0  0
   19.6950  -23.0211   -6.8568 N   0  0  0  0  0  0  0  0  0  0  0  0
   21.4472  -19.8696  -12.7687 C   0  0  0  0  0  0  0  0  0  0  0  0
   21.7218  -18.6428  -12.7979 O   0  0  0  0  0  0  0  0  0  0  0  0
   22.3959  -18.9599  -18.1332 C   0  0  0  0  0  0  0  0  0  0  0  0
   20.7384  -18.1814  -18.0394 S   0  0  0  0  0  0  0  0  0  0  0  0
   19.7320  -18.8335  -16.7688 C   0  0  0  0  0  0  0  0  0  0  0  0
   20.2415  -19.4664  -15.5592 C   0  0  0  0  0  0  0  0  0  0  0  0
   19.5166  -19.5240  -14.2728 C   0  0  2  0  0  0  0  0  0  0  0  0
   20.2943  -20.4187  -13.3469 N   0  0  0  0  0  0  0  0  0  0  0  0
   18.1885  -20.2410  -14.3638 C   0  0  0  0  0  0  0  0  0  0  0  0
   18.1329  -21.5117  -14.2496 O   0  0  0  0  0  0  0  0  0  0  0  0
   17.0354  -19.5859  -14.5670 O   0  0  0  0  0  0  0  0  0  0  0  0
  1  2  1  0
  2  4  1  0
  2  3  2  0
  5  4  1  0
  5  6  1  1
  7  5  1  0
  7  9  1  0
  8  7  2  0
 10 11  1  1
 10  9  1  0
 10 16  1  0
 11 12  1  0
 12 13  1  0
 13 14  1  0
 14 15  1  0
 16 23  1  0
 17 16  2  0
 19 20  1  0
 19 18  1  0
 21 20  1  0
 22 21  1  6
 23 22  1  0
 24 22  1  0
 24 26  1  0
 25 24  2  0
M  END
$$$$
