LWL.pdb
     RDKit          3D

 31 32  0  0  1  0  0  0  0  0999 V2000
   28.2961  -18.8011  -16.8562 C   0  0  0  0  0  0  0  0  0  0  0  0
   28.9119  -19.2494  -15.5485 C   0  0  1  0  0  0  0  0  0  0  0  0
   29.6216  -18.1008  -14.9315 C   0  0  0  0  0  0  0  0  0  0  0  0
   27.8975  -19.9183  -14.6744 C   0  0  0  0  0  0  0  0  0  0  0  0
   28.4667  -20.3248  -13.3424 C   0  0  2  0  0  0  0  0  0  0  0  0
   29.3807  -21.4339  -13.5501 N   0  0  0  0  0  0  0  0  0  0  0  0
   27.4451  -20.7733  -12.3892 C   0  0  0  0  0  0  0  0  0  0  0  0
   27.0700  -21.9722  -12.4427 O   0  0  0  0  0  0  0  0  0  0  0  0
   26.8476  -19.9532  -11.4094 N   0  0  0  0  0  0  0  0  0  0  0  0
   25.8201  -20.4567  -10.4659 C   0  0  1  0  0  0  0  0  0  0  0  0
   25.9946  -19.6728   -9.2202 C   0  0  0  0  0  0  0  0  0  0  0  0
   27.2620  -19.8832   -8.4990 C   0  0  0  0  0  0  0  0  0  0  0  0
   28.5750  -19.8618   -8.9137 C   0  0  0  0  0  0  0  0  0  0  0  0
   29.4191  -20.1351   -7.9236 N   0  0  0  0  0  0  0  0  0  0  0  0
   28.6692  -20.3440   -6.8261 C   0  0  0  0  0  0  0  0  0  0  0  0
   29.0735  -20.6598   -5.5444 C   0  0  0  0  0  0  0  0  0  0  0  0
   28.1461  -20.8367   -4.5451 C   0  0  0  0  0  0  0  0  0  0  0  0
   26.8041  -20.6918   -4.8516 C   0  0  0  0  0  0  0  0  0  0  0  0
   26.4154  -20.3765   -6.1349 C   0  0  0  0  0  0  0  0  0  0  0  0
   27.3457  -20.1992   -7.1363 C   0  0  0  0  0  0  0  0  0  0  0  0
   24.5082  -20.4687  -11.0962 C   0  0  0  0  0  0  0  0  0  0  0  0
   24.2056  -19.4529  -11.8164 O   0  0  0  0  0  0  0  0  0  0  0  0
   22.1282  -24.4960  -14.0804 C   0  0  0  0  0  0  0  0  0  0  0  0
   22.4306  -23.1097  -13.6130 C   0  0  1  0  0  0  0  0  0  0  0  0
   22.0681  -22.0798  -14.6954 C   0  0  0  0  0  0  0  0  0  0  0  0
   21.9787  -22.7034  -12.2800 C   0  0  0  0  0  0  0  0  0  0  0  0
   22.2741  -21.3593  -11.7344 C   0  0  2  0  0  0  0  0  0  0  0  0
   23.5588  -21.5082  -10.9768 N   0  0  0  0  0  0  0  0  0  0  0  0
   21.3144  -20.7588  -10.8119 C   0  0  0  0  0  0  0  0  0  0  0  0
   20.1739  -20.0582  -11.1683 O   0  0  0  0  0  0  0  0  0  0  0  0
   21.5031  -20.8575   -9.5723 O   0  0  0  0  0  0  0  0  0  0  0  0
  2  1  1  6
  2  3  1  0
  4  2  1  0
  5  4  1  0
  5  6  1  6
  7  8  2  0
  7  5  1  0
  9  7  1  0
 10  9  1  0
 10 11  1  1
 12 11  1  0
 13 12  2  0
 14 13  1  0
 15 14  1  0
 15 20  2  0
 16 15  1  0
 17 16  2  0
 17 18  1  0
 18 19  2  0
 19 20  1  0
 20 12  1  0
 21 10  1  0
 21 28  1  0
 22 21  2  0
 24 23  1  6
 24 25  1  0
 24 26  1  0
 27 26  1  1
 27 28  1  0
 27 29  1  0
 29 31  2  0
 29 30  1  0
M  END
$$$$
