LWL.pdb
     RDKit          3D

 31 32  0  0  1  0  0  0  0  0999 V2000
   26.0681  -17.6531  -19.8881 C   0  0  0  0  0  0  0  0  0  0  0  0
   26.2857  -19.1407  -19.7146 C   0  0  1  0  0  0  0  0  0  0  0  0
   27.0235  -19.6602  -20.8933 C   0  0  0  0  0  0  0  0  0  0  0  0
   26.9062  -19.4451  -18.3869 C   0  0  0  0  0  0  0  0  0  0  0  0
   25.9149  -19.3635  -17.2581 C   0  0  2  0  0  0  0  0  0  0  0  0
   25.8113  -17.9786  -16.8341 N   0  0  0  0  0  0  0  0  0  0  0  0
   26.3086  -20.1514  -16.0843 C   0  0  0  0  0  0  0  0  0  0  0  0
   26.4868  -21.3871  -16.2324 O   0  0  0  0  0  0  0  0  0  0  0  0
   26.5038  -19.6214  -14.7918 N   0  0  0  0  0  0  0  0  0  0  0  0
   26.9155  -20.4595  -13.6397 C   0  0  1  0  0  0  0  0  0  0  0  0
   27.8195  -19.6132  -12.8251 C   0  0  0  0  0  0  0  0  0  0  0  0
   28.3537  -20.2344  -11.6007 C   0  0  0  0  0  0  0  0  0  0  0  0
   29.4026  -21.1006  -11.3866 C   0  0  0  0  0  0  0  0  0  0  0  0
   29.5225  -21.4377  -10.1063 N   0  0  0  0  0  0  0  0  0  0  0  0
   28.5438  -20.7925   -9.4457 C   0  0  0  0  0  0  0  0  0  0  0  0
   28.2447  -20.8131   -8.0982 C   0  0  0  0  0  0  0  0  0  0  0  0
   27.1919  -20.0780   -7.6069 C   0  0  0  0  0  0  0  0  0  0  0  0
   26.4421  -19.3203   -8.4899 C   0  0  0  0  0  0  0  0  0  0  0  0
   26.7521  -19.3094   -9.8318 C   0  0  0  0  0  0  0  0  0  0  0  0
   27.8078  -20.0466  -10.3237 C   0  0  0  0  0  0  0  0  0  0  0  0
   25.7520  -21.0484  -12.9932 C   0  0  0  0  0  0  0  0  0  0  0  0
   25.9763  -21.9718  -12.1334 O   0  0  0  0  0  0  0  0  0  0  0  0
   22.8295  -21.3081   -8.8248 C   0  0  0  0  0  0  0  0  0  0  0  0
   22.2980  -20.7598  -10.1087 C   0  0  1  0  0  0  0  0  0  0  0  0
   21.3182  -19.6053   -9.8426 C   0  0  0  0  0  0  0  0  0  0  0  0
   23.2418  -20.4557  -11.1870 C   0  0  0  0  0  0  0  0  0  0  0  0
   23.3528  -21.3131  -12.3889 C   0  0  2  0  0  0  0  0  0  0  0  0
   24.4111  -20.6767  -13.2383 N   0  0  0  0  0  0  0  0  0  0  0  0
   22.1762  -21.4711  -13.2392 C   0  0  0  0  0  0  0  0  0  0  0  0
   21.1961  -22.4397  -13.0983 O   0  0  0  0  0  0  0  0  0  0  0  0
   21.9986  -20.6818  -14.2022 O   0  0  0  0  0  0  0  0  0  0  0  0
  2  1  1  6
  2  3  1  0
  4  2  1  0
  5  4  1  0
  5  6  1  1
  7  8  2  0
  7  5  1  0
  9  7  1  0
 10  9  1  0
 10 11  1  1
 12 11  1  0
 13 12  2  0
 14 13  1  0
 15 14  1  0
 15 20  2  0
 16 15  1  0
 17 16  2  0
 17 18  1  0
 18 19  2  0
 19 20  1  0
 20 12  1  0
 21 10  1  0
 21 28  1  0
 22 21  2  0
 24 23  1  1
 24 25  1  0
 24 26  1  0
 27 26  1  1
 27 28  1  0
 27 29  1  0
 29 31  2  0
 29 30  1  0
M  END
$$$$
