LWL.pdb
     RDKit          3D

 31 32  0  0  1  0  0  0  0  0999 V2000
   26.2918  -26.1075  -15.9711 C   0  0  0  0  0  0  0  0  0  0  0  0
   26.6169  -24.8007  -16.6617 C   0  0  1  0  0  0  0  0  0  0  0  0
   26.1100  -24.8535  -18.0558 C   0  0  0  0  0  0  0  0  0  0  0  0
   26.1469  -23.6311  -15.8544 C   0  0  0  0  0  0  0  0  0  0  0  0
   26.3806  -22.3199  -16.5543 C   0  0  2  0  0  0  0  0  0  0  0  0
   27.7283  -21.8702  -16.2540 N   0  0  0  0  0  0  0  0  0  0  0  0
   25.4606  -21.2615  -16.1222 C   0  0  0  0  0  0  0  0  0  0  0  0
   25.6211  -20.7674  -14.9772 O   0  0  0  0  0  0  0  0  0  0  0  0
   24.4009  -20.7528  -16.9019 N   0  0  0  0  0  0  0  0  0  0  0  0
   23.5616  -19.6126  -16.4607 C   0  0  1  0  0  0  0  0  0  0  0  0
   23.0200  -19.0045  -17.6991 C   0  0  0  0  0  0  0  0  0  0  0  0
   22.0840  -17.8827  -17.5099 C   0  0  0  0  0  0  0  0  0  0  0  0
   22.2333  -16.6436  -16.9280 C   0  0  0  0  0  0  0  0  0  0  0  0
   21.1056  -15.9398  -16.9483 N   0  0  0  0  0  0  0  0  0  0  0  0
   20.1822  -16.7111  -17.5507 C   0  0  0  0  0  0  0  0  0  0  0  0
   18.8555  -16.4338  -17.8135 C   0  0  0  0  0  0  0  0  0  0  0  0
   18.0620  -17.3614  -18.4459 C   0  0  0  0  0  0  0  0  0  0  0  0
   18.6206  -18.5739  -18.8114 C   0  0  0  0  0  0  0  0  0  0  0  0
   19.9457  -18.8367  -18.5428 C   0  0  0  0  0  0  0  0  0  0  0  0
   20.7408  -17.9063  -17.9088 C   0  0  0  0  0  0  0  0  0  0  0  0
   22.6232  -20.0356  -15.4316 C   0  0  0  0  0  0  0  0  0  0  0  0
   22.2430  -21.2589  -15.4661 O   0  0  0  0  0  0  0  0  0  0  0  0
   21.6258  -19.5146   -9.5479 C   0  0  0  0  0  0  0  0  0  0  0  0
   21.0294  -19.9094  -10.8594 C   0  0  1  0  0  0  0  0  0  0  0  0
   19.5335  -19.5571  -10.9045 C   0  0  0  0  0  0  0  0  0  0  0  0
   21.7298  -19.5358  -12.0906 C   0  0  0  0  0  0  0  0  0  0  0  0
   21.1636  -19.8278  -13.4271 C   0  0  2  0  0  0  0  0  0  0  0  0
   22.1117  -19.2069  -14.4079 N   0  0  0  0  0  0  0  0  0  0  0  0
   19.8363  -19.3096  -13.7464 C   0  0  0  0  0  0  0  0  0  0  0  0
   18.6589  -20.0393  -13.7522 O   0  0  0  0  0  0  0  0  0  0  0  0
   19.7033  -18.0975  -14.0550 O   0  0  0  0  0  0  0  0  0  0  0  0
  2  1  1  1
  2  3  1  0
  4  2  1  0
  5  4  1  0
  5  6  1  1
  7  8  2  0
  7  5  1  0
  9  7  1  0
 10  9  1  0
 10 11  1  6
 12 11  1  0
 13 12  2  0
 14 13  1  0
 15 14  1  0
 15 20  2  0
 16 15  1  0
 17 16  2  0
 17 18  1  0
 18 19  2  0
 19 20  1  0
 20 12  1  0
 21 10  1  0
 21 28  1  0
 22 21  2  0
 24 23  1  1
 24 25  1  0
 24 26  1  0
 27 26  1  1
 27 28  1  0
 27 29  1  0
 29 31  2  0
 29 30  1  0
M  END
$$$$
