LWL.pdb
     RDKit          3D

 31 32  0  0  1  0  0  0  0  0999 V2000
   22.8802  -22.1010  -15.4656 C   0  0  0  0  0  0  0  0  0  0  0  0
   22.9502  -21.1607  -14.2819 C   0  0  1  0  0  0  0  0  0  0  0  0
   21.8856  -20.1352  -14.4177 C   0  0  0  0  0  0  0  0  0  0  0  0
   22.9485  -21.9167  -12.9900 C   0  0  0  0  0  0  0  0  0  0  0  0
   23.2347  -21.0321  -11.8072 C   0  0  2  0  0  0  0  0  0  0  0  0
   23.2310  -19.6500  -12.2528 N   0  0  0  0  0  0  0  0  0  0  0  0
   24.5432  -21.2901  -11.1950 C   0  0  0  0  0  0  0  0  0  0  0  0
   24.7932  -22.4574  -10.8003 O   0  0  0  0  0  0  0  0  0  0  0  0
   25.5496  -20.3184  -11.0148 N   0  0  0  0  0  0  0  0  0  0  0  0
   26.8383  -20.6190  -10.3453 C   0  0  1  0  0  0  0  0  0  0  0  0
   27.8840  -19.9626  -11.1652 C   0  0  0  0  0  0  0  0  0  0  0  0
   28.8904  -20.8576  -11.7625 C   0  0  0  0  0  0  0  0  0  0  0  0
   28.9764  -21.4549  -13.0003 C   0  0  0  0  0  0  0  0  0  0  0  0
   30.0576  -22.2199  -13.1149 N   0  0  0  0  0  0  0  0  0  0  0  0
   30.7112  -22.1398  -11.9414 C   0  0  0  0  0  0  0  0  0  0  0  0
   31.8881  -22.7514  -11.5585 C   0  0  0  0  0  0  0  0  0  0  0  0
   32.4038  -22.5441  -10.3011 C   0  0  0  0  0  0  0  0  0  0  0  0
   31.7196  -21.7122   -9.4318 C   0  0  0  0  0  0  0  0  0  0  0  0
   30.5465  -21.1086   -9.8276 C   0  0  0  0  0  0  0  0  0  0  0  0
   30.0299  -21.3169  -11.0885 C   0  0  0  0  0  0  0  0  0  0  0  0
   26.7670  -20.2946   -8.9282 C   0  0  0  0  0  0  0  0  0  0  0  0
   25.9185  -19.3980   -8.5843 O   0  0  0  0  0  0  0  0  0  0  0  0
   29.1718  -21.9671   -3.4232 C   0  0  0  0  0  0  0  0  0  0  0  0
   28.3951  -20.9844   -4.2372 C   0  0  1  0  0  0  0  0  0  0  0  0
   28.8774  -19.5504   -3.9639 C   0  0  0  0  0  0  0  0  0  0  0  0
   28.2065  -21.2488   -5.6657 C   0  0  0  0  0  0  0  0  0  0  0  0
   27.4519  -20.3188   -6.5362 C   0  0  2  0  0  0  0  0  0  0  0  0
   27.5520  -20.8928   -7.9171 N   0  0  0  0  0  0  0  0  0  0  0  0
   27.9042  -18.9333   -6.6278 C   0  0  0  0  0  0  0  0  0  0  0  0
   27.3158  -17.8438   -6.0070 O   0  0  0  0  0  0  0  0  0  0  0  0
   28.9125  -18.6569   -7.3269 O   0  0  0  0  0  0  0  0  0  0  0  0
  2  1  1  6
  2  3  1  0
  4  2  1  0
  5  4  1  0
  5  6  1  6
  7  8  2  0
  7  5  1  0
  9  7  1  0
 10  9  1  0
 10 11  1  6
 12 11  1  0
 13 12  2  0
 14 13  1  0
 15 14  1  0
 15 20  2  0
 16 15  1  0
 17 16  2  0
 17 18  1  0
 18 19  2  0
 19 20  1  0
 20 12  1  0
 21 10  1  0
 21 28  1  0
 22 21  2  0
 24 23  1  6
 24 25  1  0
 24 26  1  0
 27 26  1  1
 27 28  1  0
 27 29  1  0
 29 31  2  0
 29 30  1  0
M  END
$$$$
