LWL.pdb
     RDKit          3D

 31 32  0  0  1  0  0  0  0  0999 V2000
   30.6286  -18.9422  -19.5958 C   0  0  0  0  0  0  0  0  0  0  0  0
   29.1893  -18.7228  -19.1827 C   0  0  1  0  0  0  0  0  0  0  0  0
   28.4117  -18.2750  -20.3653 C   0  0  0  0  0  0  0  0  0  0  0  0
   28.6413  -19.9220  -18.4741 C   0  0  0  0  0  0  0  0  0  0  0  0
   27.2363  -19.7052  -17.9818 C   0  0  2  0  0  0  0  0  0  0  0  0
   26.9608  -18.2795  -17.9852 N   0  0  0  0  0  0  0  0  0  0  0  0
   27.0219  -20.1881  -16.6127 C   0  0  0  0  0  0  0  0  0  0  0  0
   27.1872  -21.4133  -16.3836 O   0  0  0  0  0  0  0  0  0  0  0  0
   26.6414  -19.3738  -15.5257 N   0  0  0  0  0  0  0  0  0  0  0  0
   26.3464  -19.9248  -14.1809 C   0  0  1  0  0  0  0  0  0  0  0  0
   27.0850  -19.0701  -13.2214 C   0  0  0  0  0  0  0  0  0  0  0  0
   26.6445  -19.1483  -11.8177 C   0  0  0  0  0  0  0  0  0  0  0  0
   25.6443  -18.5018  -11.1264 C   0  0  0  0  0  0  0  0  0  0  0  0
   25.6090  -18.8561   -9.8455 N   0  0  0  0  0  0  0  0  0  0  0  0
   26.5964  -19.7526   -9.6674 C   0  0  0  0  0  0  0  0  0  0  0  0
   26.9703  -20.4166   -8.5163 C   0  0  0  0  0  0  0  0  0  0  0  0
   28.0187  -21.3057   -8.5343 C   0  0  0  0  0  0  0  0  0  0  0  0
   28.6879  -21.5190   -9.7270 C   0  0  0  0  0  0  0  0  0  0  0  0
   28.3037  -20.8494  -10.8677 C   0  0  0  0  0  0  0  0  0  0  0  0
   27.2525  -19.9581  -10.8490 C   0  0  0  0  0  0  0  0  0  0  0  0
   24.9116  -20.0879  -13.9978 C   0  0  0  0  0  0  0  0  0  0  0  0
   24.1580  -19.6609  -14.9422 O   0  0  0  0  0  0  0  0  0  0  0  0
   23.6829  -24.3743  -11.9069 C   0  0  0  0  0  0  0  0  0  0  0  0
   24.2600  -23.7583  -13.1394 C   0  0  1  0  0  0  0  0  0  0  0  0
   24.7539  -24.8439  -14.1096 C   0  0  0  0  0  0  0  0  0  0  0  0
   23.5032  -22.7034  -13.8181 C   0  0  0  0  0  0  0  0  0  0  0  0
   23.0561  -21.4851  -13.1055 C   0  0  2  0  0  0  0  0  0  0  0  0
   24.2983  -20.6798  -12.8710 N   0  0  0  0  0  0  0  0  0  0  0  0
   22.4092  -21.6400  -11.8055 C   0  0  0  0  0  0  0  0  0  0  0  0
   22.9496  -21.2824  -10.5813 O   0  0  0  0  0  0  0  0  0  0  0  0
   21.2586  -22.1441  -11.7435 O   0  0  0  0  0  0  0  0  0  0  0  0
  2  1  1  6
  2  3  1  0
  4  2  1  0
  5  4  1  0
  5  6  1  1
  7  8  2  0
  7  5  1  0
  9  7  1  0
 10  9  1  0
 10 11  1  1
 12 11  1  0
 13 12  2  0
 14 13  1  0
 15 14  1  0
 15 20  2  0
 16 15  1  0
 17 16  2  0
 17 18  1  0
 18 19  2  0
 19 20  1  0
 20 12  1  0
 21 10  1  0
 21 28  1  0
 22 21  2  0
 24 23  1  1
 24 25  1  0
 24 26  1  0
 27 26  1  1
 27 28  1  0
 27 29  1  0
 29 31  2  0
 29 30  1  0
M  END
$$$$
