LWL.pdb
     RDKit          3D

 31 32  0  0  1  0  0  0  0  0999 V2000
   22.8108  -17.9167  -14.6645 C   0  0  0  0  0  0  0  0  0  0  0  0
   24.1364  -18.4340  -15.1800 C   0  0  1  0  0  0  0  0  0  0  0  0
   25.0661  -17.2896  -15.3517 C   0  0  0  0  0  0  0  0  0  0  0  0
   24.6492  -19.5518  -14.3268 C   0  0  0  0  0  0  0  0  0  0  0  0
   26.0531  -19.9529  -14.6895 C   0  0  2  0  0  0  0  0  0  0  0  0
   26.0039  -20.7758  -15.8849 N   0  0  0  0  0  0  0  0  0  0  0  0
   26.7182  -20.7398  -13.6446 C   0  0  0  0  0  0  0  0  0  0  0  0
   26.3276  -21.9192  -13.4516 O   0  0  0  0  0  0  0  0  0  0  0  0
   27.7718  -20.2681  -12.8340 N   0  0  0  0  0  0  0  0  0  0  0  0
   28.4053  -21.1018  -11.7838 C   0  0  1  0  0  0  0  0  0  0  0  0
   29.7511  -20.5217  -11.5625 C   0  0  0  0  0  0  0  0  0  0  0  0
   30.6476  -21.2917  -10.6828 C   0  0  0  0  0  0  0  0  0  0  0  0
   31.5011  -22.3444  -10.9274 C   0  0  0  0  0  0  0  0  0  0  0  0
   32.1120  -22.7629   -9.8234 N   0  0  0  0  0  0  0  0  0  0  0  0
   31.6674  -21.9847   -8.8197 C   0  0  0  0  0  0  0  0  0  0  0  0
   31.9998  -22.0195   -7.4802 C   0  0  0  0  0  0  0  0  0  0  0  0
   31.4317  -21.1310   -6.5983 C   0  0  0  0  0  0  0  0  0  0  0  0
   30.5232  -20.2052   -7.0813 C   0  0  0  0  0  0  0  0  0  0  0  0
   30.2011  -20.1822   -8.4203 C   0  0  0  0  0  0  0  0  0  0  0  0
   30.7710  -21.0733   -9.3041 C   0  0  0  0  0  0  0  0  0  0  0  0
   27.5180  -21.2444  -10.6388 C   0  0  0  0  0  0  0  0  0  0  0  0
   27.5698  -22.3568  -10.0048 O   0  0  0  0  0  0  0  0  0  0  0  0
   27.3032  -18.6075   -6.0001 C   0  0  0  0  0  0  0  0  0  0  0  0
   26.9992  -19.7510   -6.9121 C   0  0  1  0  0  0  0  0  0  0  0  0
   26.7215  -21.0303   -6.1059 C   0  0  0  0  0  0  0  0  0  0  0  0
   26.0312  -19.5494   -7.9930 C   0  0  0  0  0  0  0  0  0  0  0  0
   25.7598  -20.5999   -9.0004 C   0  0  2  0  0  0  0  0  0  0  0  0
   26.6192  -20.2559  -10.1791 N   0  0  0  0  0  0  0  0  0  0  0  0
   24.3970  -20.7404   -9.5060 C   0  0  0  0  0  0  0  0  0  0  0  0
   23.3650  -21.4217   -8.8819 O   0  0  0  0  0  0  0  0  0  0  0  0
   24.0887  -20.2160  -10.6068 O   0  0  0  0  0  0  0  0  0  0  0  0
  2  1  1  1
  2  3  1  0
  4  2  1  0
  5  4  1  0
  5  6  1  6
  7  8  2  0
  7  5  1  0
  9  7  1  0
 10  9  1  0
 10 11  1  1
 12 11  1  0
 13 12  2  0
 14 13  1  0
 15 14  1  0
 15 20  2  0
 16 15  1  0
 17 16  2  0
 17 18  1  0
 18 19  2  0
 19 20  1  0
 20 12  1  0
 21 10  1  0
 21 28  1  0
 22 21  2  0
 24 23  1  1
 24 25  1  0
 24 26  1  0
 27 26  1  1
 27 28  1  0
 27 29  1  0
 29 31  2  0
 29 30  1  0
M  END
$$$$
