LWL.pdb
     RDKit          3D

 31 32  0  0  1  0  0  0  0  0999 V2000
   26.1206  -19.5553  -20.8661 C   0  0  0  0  0  0  0  0  0  0  0  0
   24.7242  -19.9537  -20.4397 C   0  0  1  0  0  0  0  0  0  0  0  0
   24.5944  -21.4294  -20.5341 C   0  0  0  0  0  0  0  0  0  0  0  0
   24.3772  -19.3654  -19.1078 C   0  0  0  0  0  0  0  0  0  0  0  0
   23.0933  -19.9196  -18.5528 C   0  0  2  0  0  0  0  0  0  0  0  0
   21.9853  -19.3615  -19.3073 N   0  0  0  0  0  0  0  0  0  0  0  0
   22.8775  -19.5774  -17.1422 C   0  0  0  0  0  0  0  0  0  0  0  0
   22.6654  -18.3731  -16.8500 O   0  0  0  0  0  0  0  0  0  0  0  0
   22.8903  -20.5064  -16.0808 N   0  0  0  0  0  0  0  0  0  0  0  0
   22.8042  -20.0944  -14.6588 C   0  0  1  0  0  0  0  0  0  0  0  0
   22.2813  -21.2721  -13.9264 C   0  0  0  0  0  0  0  0  0  0  0  0
   22.0402  -21.0797  -12.4858 C   0  0  0  0  0  0  0  0  0  0  0  0
   22.7406  -21.4819  -11.3705 C   0  0  0  0  0  0  0  0  0  0  0  0
   22.1444  -21.1105  -10.2418 N   0  0  0  0  0  0  0  0  0  0  0  0
   21.0276  -20.4493  -10.5967 C   0  0  0  0  0  0  0  0  0  0  0  0
   20.0693  -19.8669   -9.7915 C   0  0  0  0  0  0  0  0  0  0  0  0
   18.9860  -19.2289  -10.3478 C   0  0  0  0  0  0  0  0  0  0  0  0
   18.8783  -19.1839  -11.7271 C   0  0  0  0  0  0  0  0  0  0  0  0
   19.8421  -19.7694  -12.5179 C   0  0  0  0  0  0  0  0  0  0  0  0
   20.9280  -20.4089  -11.9595 C   0  0  0  0  0  0  0  0  0  0  0  0
   24.0621  -19.5098  -14.2180 C   0  0  0  0  0  0  0  0  0  0  0  0
   24.0355  -18.8425  -13.1244 O   0  0  0  0  0  0  0  0  0  0  0  0
   25.5831  -19.7794  -11.1980 C   0  0  0  0  0  0  0  0  0  0  0  0
   26.8858  -20.1237  -11.8429 C   0  0  1  0  0  0  0  0  0  0  0  0
   27.5471  -21.3149  -11.1304 C   0  0  0  0  0  0  0  0  0  0  0  0
   26.9370  -20.2455  -13.3018 C   0  0  0  0  0  0  0  0  0  0  0  0
   26.5220  -19.1364  -14.1903 C   0  0  2  0  0  0  0  0  0  0  0  0
   25.2952  -19.6275  -14.8976 N   0  0  0  0  0  0  0  0  0  0  0  0
   27.4505  -18.6935  -15.2268 C   0  0  0  0  0  0  0  0  0  0  0  0
   27.3285  -18.9370  -16.5849 O   0  0  0  0  0  0  0  0  0  0  0  0
   28.4701  -18.0325  -14.9023 O   0  0  0  0  0  0  0  0  0  0  0  0
  2  1  1  1
  2  3  1  0
  4  2  1  0
  5  4  1  0
  5  6  1  6
  7  8  2  0
  7  5  1  0
  9  7  1  0
 10  9  1  0
 10 11  1  1
 12 11  1  0
 13 12  2  0
 14 13  1  0
 15 14  1  0
 15 20  2  0
 16 15  1  0
 17 16  2  0
 17 18  1  0
 18 19  2  0
 19 20  1  0
 20 12  1  0
 21 10  1  0
 21 28  1  0
 22 21  2  0
 24 23  1  1
 24 25  1  0
 24 26  1  0
 27 26  1  6
 27 28  1  0
 27 29  1  0
 29 31  2  0
 29 30  1  0
M  END
$$$$
