LWL.pdb
     RDKit          3D

 31 32  0  0  1  0  0  0  0  0999 V2000
   29.5762  -24.6113  -16.7109 C   0  0  0  0  0  0  0  0  0  0  0  0
   29.1286  -23.2218  -16.3118 C   0  0  1  0  0  0  0  0  0  0  0  0
   28.6250  -22.5138  -17.5153 C   0  0  0  0  0  0  0  0  0  0  0  0
   28.1798  -23.2709  -15.1552 C   0  0  0  0  0  0  0  0  0  0  0  0
   27.7608  -21.9000  -14.6983 C   0  0  2  0  0  0  0  0  0  0  0  0
   28.9540  -21.1027  -14.4765 N   0  0  0  0  0  0  0  0  0  0  0  0
   27.0057  -21.9152  -13.4401 C   0  0  0  0  0  0  0  0  0  0  0  0
   25.8918  -22.4981  -13.4242 O   0  0  0  0  0  0  0  0  0  0  0  0
   27.4399  -21.3200  -12.2372 N   0  0  0  0  0  0  0  0  0  0  0  0
   26.5774  -21.2315  -11.0341 C   0  0  1  0  0  0  0  0  0  0  0  0
   27.4824  -20.8923   -9.9104 C   0  0  0  0  0  0  0  0  0  0  0  0
   26.8367  -20.6906   -8.6017 C   0  0  0  0  0  0  0  0  0  0  0  0
   25.5231  -20.7751   -8.1973 C   0  0  0  0  0  0  0  0  0  0  0  0
   25.3744  -20.4839   -6.9087 N   0  0  0  0  0  0  0  0  0  0  0  0
   26.6012  -20.1989   -6.4351 C   0  0  0  0  0  0  0  0  0  0  0  0
   26.9769  -19.8368   -5.1570 C   0  0  0  0  0  0  0  0  0  0  0  0
   28.2959  -19.5824   -4.8645 C   0  0  0  0  0  0  0  0  0  0  0  0
   29.2342  -19.6969   -5.8756 C   0  0  0  0  0  0  0  0  0  0  0  0
   28.8447  -20.0590   -7.1462 C   0  0  0  0  0  0  0  0  0  0  0  0
   27.5221  -20.3140   -7.4388 C   0  0  0  0  0  0  0  0  0  0  0  0
   25.4346  -20.3659  -11.2858 C   0  0  0  0  0  0  0  0  0  0  0  0
   24.7006  -20.0728  -10.2772 O   0  0  0  0  0  0  0  0  0  0  0  0
   24.0646  -17.5245  -15.8277 C   0  0  0  0  0  0  0  0  0  0  0  0
   24.9296  -17.7648  -14.6337 C   0  0  1  0  0  0  0  0  0  0  0  0
   26.2189  -16.9318  -14.7199 C   0  0  0  0  0  0  0  0  0  0  0  0
   24.3194  -17.7156  -13.3027 C   0  0  0  0  0  0  0  0  0  0  0  0
   23.8759  -18.9433  -12.6042 C   0  0  2  0  0  0  0  0  0  0  0  0
   25.0839  -19.8286  -12.5446 N   0  0  0  0  0  0  0  0  0  0  0  0
   22.8080  -19.7366  -13.2064 C   0  0  0  0  0  0  0  0  0  0  0  0
   22.9521  -20.9868  -13.7850 O   0  0  0  0  0  0  0  0  0  0  0  0
   21.6361  -19.2804  -13.2288 O   0  0  0  0  0  0  0  0  0  0  0  0
  2  1  1  6
  2  3  1  0
  4  2  1  0
  5  4  1  0
  5  6  1  1
  7  8  2  0
  7  5  1  0
  9  7  1  0
 10  9  1  0
 10 11  1  1
 12 11  1  0
 13 12  2  0
 14 13  1  0
 15 14  1  0
 15 20  2  0
 16 15  1  0
 17 16  2  0
 17 18  1  0
 18 19  2  0
 19 20  1  0
 20 12  1  0
 21 10  1  0
 21 28  1  0
 22 21  2  0
 24 23  1  6
 24 25  1  0
 24 26  1  0
 27 26  1  6
 27 28  1  0
 27 29  1  0
 29 31  2  0
 29 30  1  0
M  END
$$$$
