LWL.pdb
     RDKit          3D

 31 32  0  0  1  0  0  0  0  0999 V2000
   27.3524  -17.5094  -16.9813 C   0  0  0  0  0  0  0  0  0  0  0  0
   28.0825  -18.6697  -16.3402 C   0  0  1  0  0  0  0  0  0  0  0  0
   29.4150  -18.2052  -15.8797 C   0  0  0  0  0  0  0  0  0  0  0  0
   27.2383  -19.3280  -15.2940 C   0  0  0  0  0  0  0  0  0  0  0  0
   27.9728  -20.4231  -14.5696 C   0  0  2  0  0  0  0  0  0  0  0  0
   28.0750  -21.5722  -15.4515 N   0  0  0  0  0  0  0  0  0  0  0  0
   27.2902  -20.8685  -13.3493 C   0  0  0  0  0  0  0  0  0  0  0  0
   26.3034  -21.6384  -13.4693 O   0  0  0  0  0  0  0  0  0  0  0  0
   27.6615  -20.4945  -12.0409 N   0  0  0  0  0  0  0  0  0  0  0  0
   26.8450  -20.8366  -10.8512 C   0  0  1  0  0  0  0  0  0  0  0  0
   27.6916  -20.5251   -9.6752 C   0  0  0  0  0  0  0  0  0  0  0  0
   27.0303  -20.6209   -8.3621 C   0  0  0  0  0  0  0  0  0  0  0  0
   25.7677  -21.0267   -7.9914 C   0  0  0  0  0  0  0  0  0  0  0  0
   25.5734  -20.9289   -6.6799 N   0  0  0  0  0  0  0  0  0  0  0  0
   26.7173  -20.4514   -6.1565 C   0  0  0  0  0  0  0  0  0  0  0  0
   27.0207  -20.1736   -4.8387 C   0  0  0  0  0  0  0  0  0  0  0  0
   28.2595  -19.6849   -4.4972 C   0  0  0  0  0  0  0  0  0  0  0  0
   29.1912  -19.4785   -5.4998 C   0  0  0  0  0  0  0  0  0  0  0  0
   28.8744  -19.7602   -6.8104 C   0  0  0  0  0  0  0  0  0  0  0  0
   27.6322  -20.2502   -7.1521 C   0  0  0  0  0  0  0  0  0  0  0  0
   25.5297  -20.2193  -10.9382 C   0  0  0  0  0  0  0  0  0  0  0  0
   25.4940  -18.9384  -10.9508 O   0  0  0  0  0  0  0  0  0  0  0  0
   23.1865  -19.4004  -15.0198 C   0  0  0  0  0  0  0  0  0  0  0  0
   22.8743  -20.0988  -13.7367 C   0  0  1  0  0  0  0  0  0  0  0  0
   23.3821  -21.5496  -13.7698 C   0  0  0  0  0  0  0  0  0  0  0  0
   23.1893  -19.4242  -12.4750 C   0  0  0  0  0  0  0  0  0  0  0  0
   23.0547  -20.1113  -11.1705 C   0  0  2  0  0  0  0  0  0  0  0  0
   24.3060  -20.9214  -11.0138 N   0  0  0  0  0  0  0  0  0  0  0  0
   21.9368  -21.0322  -10.9837 C   0  0  0  0  0  0  0  0  0  0  0  0
   22.0311  -22.4073  -10.8464 O   0  0  0  0  0  0  0  0  0  0  0  0
   20.7637  -20.5805  -10.9430 O   0  0  0  0  0  0  0  0  0  0  0  0
  2  1  1  1
  2  3  1  0
  4  2  1  0
  5  4  1  0
  5  6  1  6
  7  8  2  0
  7  5  1  0
  9  7  1  0
 10  9  1  0
 10 11  1  1
 12 11  1  0
 13 12  2  0
 14 13  1  0
 15 14  1  0
 15 20  2  0
 16 15  1  0
 17 16  2  0
 17 18  1  0
 18 19  2  0
 19 20  1  0
 20 12  1  0
 21 10  1  0
 21 28  1  0
 22 21  2  0
 24 23  1  6
 24 25  1  0
 24 26  1  0
 27 26  1  6
 27 28  1  0
 27 29  1  0
 29 31  2  0
 29 30  1  0
M  END
$$$$
