LWL.pdb
     RDKit          3D

 31 32  0  0  1  0  0  0  0  0999 V2000
   22.4164  -18.8021  -15.1256 C   0  0  0  0  0  0  0  0  0  0  0  0
   22.6743  -19.8740  -14.0888 C   0  0  1  0  0  0  0  0  0  0  0  0
   22.5984  -21.2045  -14.7425 C   0  0  0  0  0  0  0  0  0  0  0  0
   23.9386  -19.6035  -13.3345 C   0  0  0  0  0  0  0  0  0  0  0  0
   24.2460  -20.6772  -12.3264 C   0  0  2  0  0  0  0  0  0  0  0  0
   23.0941  -20.8376  -11.4570 N   0  0  0  0  0  0  0  0  0  0  0  0
   25.3961  -20.3572  -11.4730 C   0  0  0  0  0  0  0  0  0  0  0  0
   26.3959  -19.8116  -12.0055 O   0  0  0  0  0  0  0  0  0  0  0  0
   25.4643  -20.6180  -10.0884 N   0  0  0  0  0  0  0  0  0  0  0  0
   26.6442  -20.2573   -9.2657 C   0  0  1  0  0  0  0  0  0  0  0  0
   26.1033  -19.6964   -8.0049 C   0  0  0  0  0  0  0  0  0  0  0  0
   27.0949  -19.1294   -7.0746 C   0  0  0  0  0  0  0  0  0  0  0  0
   27.8078  -17.9513   -7.0900 C   0  0  0  0  0  0  0  0  0  0  0  0
   28.6289  -17.8472   -6.0496 N   0  0  0  0  0  0  0  0  0  0  0  0
   28.4702  -18.9675   -5.3213 C   0  0  0  0  0  0  0  0  0  0  0  0
   29.0970  -19.3376   -4.1483 C   0  0  0  0  0  0  0  0  0  0  0  0
   28.7977  -20.5372   -3.5471 C   0  0  0  0  0  0  0  0  0  0  0  0
   27.8583  -21.3617   -4.1418 C   0  0  0  0  0  0  0  0  0  0  0  0
   27.2409  -20.9793   -5.3122 C   0  0  0  0  0  0  0  0  0  0  0  0
   27.5414  -19.7764   -5.9145 C   0  0  0  0  0  0  0  0  0  0  0  0
   27.5713  -21.3762   -9.1819 C   0  0  0  0  0  0  0  0  0  0  0  0
   27.0562  -22.5473   -9.1096 O   0  0  0  0  0  0  0  0  0  0  0  0
   33.0734  -21.1391  -10.6040 C   0  0  0  0  0  0  0  0  0  0  0  0
   31.6661  -21.6313  -10.5099 C   0  0  1  0  0  0  0  0  0  0  0  0
   31.3432  -22.5810  -11.6750 C   0  0  0  0  0  0  0  0  0  0  0  0
   31.1841  -22.1397   -9.2233 C   0  0  0  0  0  0  0  0  0  0  0  0
   29.7703  -22.5295   -9.0209 C   0  0  2  0  0  0  0  0  0  0  0  0
   28.9799  -21.2659   -9.1796 N   0  0  0  0  0  0  0  0  0  0  0  0
   29.3860  -23.1017   -7.7335 C   0  0  0  0  0  0  0  0  0  0  0  0
   29.1679  -22.3945   -6.5627 O   0  0  0  0  0  0  0  0  0  0  0  0
   29.2330  -24.3459   -7.6307 O   0  0  0  0  0  0  0  0  0  0  0  0
  2  1  1  6
  2  3  1  0
  4  2  1  0
  5  4  1  0
  5  6  1  1
  7  8  2  0
  7  5  1  0
  9  7  1  0
 10  9  1  0
 10 11  1  1
 12 11  1  0
 13 12  2  0
 14 13  1  0
 15 14  1  0
 15 20  2  0
 16 15  1  0
 17 16  2  0
 17 18  1  0
 18 19  2  0
 19 20  1  0
 20 12  1  0
 21 10  1  0
 21 28  1  0
 22 21  2  0
 24 23  1  1
 24 25  1  0
 24 26  1  0
 27 26  1  1
 27 28  1  0
 27 29  1  0
 29 31  2  0
 29 30  1  0
M  END
$$$$
