LWL.pdb
     RDKit          3D

 31 32  0  0  1  0  0  0  0  0999 V2000
   27.4962  -16.4890  -18.3860 C   0  0  0  0  0  0  0  0  0  0  0  0
   27.8580  -17.7731  -17.6715 C   0  0  1  0  0  0  0  0  0  0  0  0
   29.3348  -17.9220  -17.6665 C   0  0  0  0  0  0  0  0  0  0  0  0
   27.2036  -17.8467  -16.3272 C   0  0  0  0  0  0  0  0  0  0  0  0
   27.7469  -18.9690  -15.4853 C   0  0  2  0  0  0  0  0  0  0  0  0
   27.6399  -20.2053  -16.2394 N   0  0  0  0  0  0  0  0  0  0  0  0
   27.0117  -19.1583  -14.2295 C   0  0  0  0  0  0  0  0  0  0  0  0
   26.8982  -18.1745  -13.4548 O   0  0  0  0  0  0  0  0  0  0  0  0
   26.4179  -20.3715  -13.8232 N   0  0  0  0  0  0  0  0  0  0  0  0
   25.4512  -20.4504  -12.7014 C   0  0  1  0  0  0  0  0  0  0  0  0
   24.2516  -21.1288  -13.2467 C   0  0  0  0  0  0  0  0  0  0  0  0
   23.2772  -20.2620  -13.9321 C   0  0  0  0  0  0  0  0  0  0  0  0
   23.1505  -19.8751  -15.2476 C   0  0  0  0  0  0  0  0  0  0  0  0
   22.1256  -19.0487  -15.4318 N   0  0  0  0  0  0  0  0  0  0  0  0
   21.5517  -18.8738  -14.2274 C   0  0  0  0  0  0  0  0  0  0  0  0
   20.4548  -18.1064  -13.8904 C   0  0  0  0  0  0  0  0  0  0  0  0
   20.0142  -18.0544  -12.5892 C   0  0  0  0  0  0  0  0  0  0  0  0
   20.6920  -18.7856  -11.6291 C   0  0  0  0  0  0  0  0  0  0  0  0
   21.7849  -19.5470  -11.9799 C   0  0  0  0  0  0  0  0  0  0  0  0
   22.2262  -19.5986  -13.2847 C   0  0  0  0  0  0  0  0  0  0  0  0
   26.0848  -21.0133  -11.5181 C   0  0  0  0  0  0  0  0  0  0  0  0
   26.6861  -22.1353  -11.6650 O   0  0  0  0  0  0  0  0  0  0  0  0
   26.7193  -19.2421   -6.6212 C   0  0  0  0  0  0  0  0  0  0  0  0
   27.6336  -19.4884   -7.7765 C   0  0  1  0  0  0  0  0  0  0  0  0
   29.0674  -19.0481   -7.4386 C   0  0  0  0  0  0  0  0  0  0  0  0
   27.5907  -20.7934   -8.4408 C   0  0  0  0  0  0  0  0  0  0  0  0
   26.3501  -21.3100   -9.0619 C   0  0  2  0  0  0  0  0  0  0  0  0
   26.0889  -20.4172  -10.2371 N   0  0  0  0  0  0  0  0  0  0  0  0
   25.1264  -21.3173   -8.2649 C   0  0  0  0  0  0  0  0  0  0  0  0
   23.9585  -20.6349   -8.5631 O   0  0  0  0  0  0  0  0  0  0  0  0
   25.0857  -21.9859   -7.2004 O   0  0  0  0  0  0  0  0  0  0  0  0
  2  1  1  1
  2  3  1  0
  4  2  1  0
  5  4  1  0
  5  6  1  6
  7  8  2  0
  7  5  1  0
  9  7  1  0
 10  9  1  0
 10 11  1  6
 12 11  1  0
 13 12  2  0
 14 13  1  0
 15 14  1  0
 15 20  2  0
 16 15  1  0
 17 16  2  0
 17 18  1  0
 18 19  2  0
 19 20  1  0
 20 12  1  0
 21 10  1  0
 21 28  1  0
 22 21  2  0
 24 23  1  1
 24 25  1  0
 24 26  1  0
 27 26  1  1
 27 28  1  0
 27 29  1  0
 29 31  2  0
 29 30  1  0
M  END
$$$$
