STV.pdb
     RDKit          3D

 21 20  0  0  1  0  0  0  0  0999 V2000
   11.3055  -12.9764   19.3005 O   0  0  0  0  0  0  0  0  0  0  0  0
   10.9254  -14.2938   19.5476 C   0  0  0  0  0  0  0  0  0  0  0  0
    9.5054  -14.5406   19.0699 C   0  0  2  0  0  0  0  0  0  0  0  0
    9.1618  -13.4638   18.1694 N   0  0  0  0  0  0  0  0  0  0  0  0
    8.5381  -14.5598   20.1930 C   0  0  0  0  0  0  0  0  0  0  0  0
    7.4517  -13.9128   20.1201 O   0  0  0  0  0  0  0  0  0  0  0  0
    6.4119  -17.3920   21.3631 C   0  0  0  0  0  0  0  0  0  0  0  0
    7.1981  -16.8565   22.5402 C   0  0  1  0  0  0  0  0  0  0  0  0
    8.1818  -17.7462   22.9649 O   0  0  0  0  0  0  0  0  0  0  0  0
    7.6903  -15.4728   22.3492 C   0  0  2  0  0  0  0  0  0  0  0  0
    8.7145  -15.2619   21.3962 N   0  0  0  0  0  0  0  0  0  0  0  0
    8.1267  -14.9384   23.6601 C   0  0  0  0  0  0  0  0  0  0  0  0
    9.3773  -14.8125   23.8489 O   0  0  0  0  0  0  0  0  0  0  0  0
    5.9949  -12.1931   25.8043 C   0  0  0  0  0  0  0  0  0  0  0  0
    6.6567  -13.2575   26.6646 C   0  0  2  0  0  0  0  0  0  0  0  0
    7.2438  -12.5823   27.8838 C   0  0  0  0  0  0  0  0  0  0  0  0
    7.7677  -13.9558   25.9073 C   0  0  2  0  0  0  0  0  0  0  0  0
    7.2358  -14.5630   24.7046 N   0  0  0  0  0  0  0  0  0  0  0  0
    8.3876  -14.9687   26.7897 C   0  0  0  0  0  0  0  0  0  0  0  0
    9.4430  -14.6020   27.6107 O   0  0  0  0  0  0  0  0  0  0  0  0
    7.9867  -16.1644   26.8221 O   0  0  0  0  0  0  0  0  0  0  0  0
  2  1  1  0
  3  2  1  0
  3  4  1  6
  5 11  1  0
  5  3  1  0
  6  5  2  0
  8  7  1  6
  9  8  1  0
 10  8  1  0
 10 12  1  0
 10 11  1  6
 12 18  1  0
 13 12  2  0
 15 16  1  1
 15 14  1  0
 17 15  1  0
 17 18  1  6
 19 20  1  0
 19 17  1  0
 21 19  2  0
M  END
$$$$
