STV.pdb
     RDKit          3D

 21 20  0  0  1  0  0  0  0  0999 V2000
   12.6066  -18.6493   22.4219 O   0  0  0  0  0  0  0  0  0  0  0  0
   11.7397  -18.6606   21.3312 C   0  0  0  0  0  0  0  0  0  0  0  0
   11.6342  -17.2766   20.7158 C   0  0  2  0  0  0  0  0  0  0  0  0
   12.9804  -16.8118   20.4704 N   0  0  0  0  0  0  0  0  0  0  0  0
   10.9485  -16.3199   21.6169 C   0  0  0  0  0  0  0  0  0  0  0  0
   11.5622  -15.3109   22.0744 O   0  0  0  0  0  0  0  0  0  0  0  0
    6.9191  -14.2587   23.6335 C   0  0  0  0  0  0  0  0  0  0  0  0
    7.4959  -15.3864   22.8053 C   0  0  1  0  0  0  0  0  0  0  0  0
    7.0031  -15.3885   21.5026 O   0  0  0  0  0  0  0  0  0  0  0  0
    8.9712  -15.4897   22.8829 C   0  0  2  0  0  0  0  0  0  0  0  0
    9.6130  -16.4254   22.0377 N   0  0  0  0  0  0  0  0  0  0  0  0
    9.3556  -15.7582   24.2881 C   0  0  0  0  0  0  0  0  0  0  0  0
    9.7722  -16.9272   24.5631 O   0  0  0  0  0  0  0  0  0  0  0  0
   10.1820  -12.7786   27.1305 C   0  0  0  0  0  0  0  0  0  0  0  0
    9.4394  -14.0106   27.6222 C   0  0  2  0  0  0  0  0  0  0  0  0
    9.9822  -14.3773   28.9852 C   0  0  0  0  0  0  0  0  0  0  0  0
    9.6434  -15.1804   26.6813 C   0  0  2  0  0  0  0  0  0  0  0  0
    9.2858  -14.7935   25.3320 N   0  0  0  0  0  0  0  0  0  0  0  0
    8.8228  -16.3201   27.1469 C   0  0  0  0  0  0  0  0  0  0  0  0
    9.4100  -17.3115   27.9182 O   0  0  0  0  0  0  0  0  0  0  0  0
    7.5975  -16.4230   26.8649 O   0  0  0  0  0  0  0  0  0  0  0  0
  2  1  1  0
  3  2  1  0
  3  4  1  1
  5 11  1  0
  5  3  1  0
  6  5  2  0
  8  7  1  6
  9  8  1  0
 10  8  1  0
 10 12  1  0
 10 11  1  6
 12 18  1  0
 13 12  2  0
 15 16  1  1
 15 14  1  0
 17 15  1  0
 17 18  1  6
 19 20  1  0
 19 17  1  0
 21 19  2  0
M  END
$$$$
