STV.pdb
     RDKit          3D

 21 20  0  0  1  0  0  0  0  0999 V2000
   11.3337  -15.8386   20.4272 O   0  0  0  0  0  0  0  0  0  0  0  0
   11.2934  -17.1655   20.8501 C   0  0  0  0  0  0  0  0  0  0  0  0
    9.9178  -17.7626   20.6119 C   0  0  2  0  0  0  0  0  0  0  0  0
    9.4827  -17.3306   19.3033 N   0  0  0  0  0  0  0  0  0  0  0  0
    8.9338  -17.3089   21.6235 C   0  0  0  0  0  0  0  0  0  0  0  0
    7.9110  -16.6468   21.2774 O   0  0  0  0  0  0  0  0  0  0  0  0
    6.5170  -17.9331   25.8453 C   0  0  0  0  0  0  0  0  0  0  0  0
    7.6076  -18.3410   24.8785 C   0  0  1  0  0  0  0  0  0  0  0  0
    7.3379  -19.5621   24.2654 O   0  0  0  0  0  0  0  0  0  0  0  0
    7.9943  -17.2719   23.9295 C   0  0  2  0  0  0  0  0  0  0  0  0
    9.0263  -17.5528   23.0032 N   0  0  0  0  0  0  0  0  0  0  0  0
    8.3484  -16.0574   24.7003 C   0  0  0  0  0  0  0  0  0  0  0  0
    9.5826  -15.7689   24.7953 O   0  0  0  0  0  0  0  0  0  0  0  0
    6.1444  -12.5295   25.2411 C   0  0  0  0  0  0  0  0  0  0  0  0
    6.6997  -13.1947   26.4901 C   0  0  2  0  0  0  0  0  0  0  0  0
    7.1856  -12.1113   27.4267 C   0  0  0  0  0  0  0  0  0  0  0  0
    7.8606  -14.1070   26.1502 C   0  0  2  0  0  0  0  0  0  0  0  0
    7.3966  -15.2076   25.3307 N   0  0  0  0  0  0  0  0  0  0  0  0
    8.4718  -14.5948   27.4062 C   0  0  0  0  0  0  0  0  0  0  0  0
    9.5150  -13.8820   27.9772 O   0  0  0  0  0  0  0  0  0  0  0  0
    8.0744  -15.6451   27.9809 O   0  0  0  0  0  0  0  0  0  0  0  0
  2  1  1  0
  3  2  1  0
  3  4  1  6
  5 11  1  0
  5  3  1  0
  6  5  2  0
  8  7  1  6
  9  8  1  0
 10  8  1  0
 10 12  1  0
 10 11  1  1
 12 18  1  0
 13 12  2  0
 15 16  1  1
 15 14  1  0
 17 15  1  0
 17 18  1  6
 19 20  1  0
 19 17  1  0
 21 19  2  0
M  END
$$$$
