STV.pdb
     RDKit          3D

 21 20  0  0  1  0  0  0  0  0999 V2000
   11.5849  -15.9496   20.7180 O   0  0  0  0  0  0  0  0  0  0  0  0
   10.9060  -15.9306   19.5014 C   0  0  0  0  0  0  0  0  0  0  0  0
    9.6183  -16.7297   19.5936 C   0  0  2  0  0  0  0  0  0  0  0  0
    8.9990  -16.6986   18.2882 N   0  0  0  0  0  0  0  0  0  0  0  0
    8.6802  -16.1569   20.5882 C   0  0  0  0  0  0  0  0  0  0  0  0
    7.8640  -15.2470   20.2563 O   0  0  0  0  0  0  0  0  0  0  0  0
    5.9105  -18.0777   22.3166 C   0  0  0  0  0  0  0  0  0  0  0  0
    6.7231  -17.3305   23.3518 C   0  0  1  0  0  0  0  0  0  0  0  0
    7.4553  -18.1900   24.1672 O   0  0  0  0  0  0  0  0  0  0  0  0
    7.5229  -16.2166   22.7925 C   0  0  2  0  0  0  0  0  0  0  0  0
    8.6008  -16.5426   21.9360 N   0  0  0  0  0  0  0  0  0  0  0  0
    8.0231  -15.3827   23.9100 C   0  0  0  0  0  0  0  0  0  0  0  0
    9.2826  -15.3195   24.0691 O   0  0  0  0  0  0  0  0  0  0  0  0
    6.2393  -11.9969   25.4312 C   0  0  0  0  0  0  0  0  0  0  0  0
    6.7603  -12.9626   26.4834 C   0  0  2  0  0  0  0  0  0  0  0  0
    7.4198  -12.1564   27.5799 C   0  0  0  0  0  0  0  0  0  0  0  0
    7.7806  -13.9135   25.8915 C   0  0  2  0  0  0  0  0  0  0  0  0
    7.1836  -14.6583   24.8021 N   0  0  0  0  0  0  0  0  0  0  0  0
    8.2676  -14.8186   26.9557 C   0  0  0  0  0  0  0  0  0  0  0  0
    9.3642  -14.4455   27.7177 O   0  0  0  0  0  0  0  0  0  0  0  0
    7.7159  -15.9273   27.1967 O   0  0  0  0  0  0  0  0  0  0  0  0
  2  1  1  0
  3  2  1  0
  3  4  1  6
  5 11  1  0
  5  3  1  0
  6  5  2  0
  8  7  1  6
  9  8  1  0
 10  8  1  0
 10 12  1  0
 10 11  1  1
 12 18  1  0
 13 12  2  0
 15 16  1  1
 15 14  1  0
 17 15  1  0
 17 18  1  6
 19 20  1  0
 19 17  1  0
 21 19  2  0
M  END
$$$$
