STV.pdb
     RDKit          3D

 21 20  0  0  1  0  0  0  0  0999 V2000
   11.1875  -12.9575   19.4587 O   0  0  0  0  0  0  0  0  0  0  0  0
   11.1857  -14.3470   19.5601 C   0  0  0  0  0  0  0  0  0  0  0  0
    9.8477  -14.9149   19.1213 C   0  0  2  0  0  0  0  0  0  0  0  0
    9.2774  -13.9863   18.1721 N   0  0  0  0  0  0  0  0  0  0  0  0
    8.9136  -15.0771   20.2609 C   0  0  0  0  0  0  0  0  0  0  0  0
    7.7539  -14.5694   20.2221 O   0  0  0  0  0  0  0  0  0  0  0  0
    9.3173  -18.2656   23.0595 C   0  0  0  0  0  0  0  0  0  0  0  0
    8.0342  -17.5168   22.7707 C   0  0  1  0  0  0  0  0  0  0  0  0
    7.0696  -17.7266   23.7533 O   0  0  0  0  0  0  0  0  0  0  0  0
    8.2392  -16.0893   22.4340 C   0  0  2  0  0  0  0  0  0  0  0  0
    9.2007  -15.7757   21.4447 N   0  0  0  0  0  0  0  0  0  0  0  0
    8.5589  -15.3490   23.6766 C   0  0  0  0  0  0  0  0  0  0  0  0
    9.7851  -15.1108   23.9117 O   0  0  0  0  0  0  0  0  0  0  0  0
    6.6063  -12.2033   25.1222 C   0  0  0  0  0  0  0  0  0  0  0  0
    6.9185  -13.2088   26.2188 C   0  0  2  0  0  0  0  0  0  0  0  0
    7.3907  -12.4479   27.4375 C   0  0  0  0  0  0  0  0  0  0  0  0
    8.0096  -14.1662   25.7845 C   0  0  2  0  0  0  0  0  0  0  0  0
    7.5830  -14.8956   24.6080 N   0  0  0  0  0  0  0  0  0  0  0  0
    8.3153  -15.0852   26.9030 C   0  0  0  0  0  0  0  0  0  0  0  0
    9.2785  -14.7276   27.8340 O   0  0  0  0  0  0  0  0  0  0  0  0
    7.7259  -16.1920   27.0410 O   0  0  0  0  0  0  0  0  0  0  0  0
  2  1  1  0
  3  2  1  0
  3  4  1  6
  5 11  1  0
  5  3  1  0
  6  5  2  0
  8  7  1  1
  9  8  1  0
 10  8  1  0
 10 12  1  0
 10 11  1  6
 12 18  1  0
 13 12  2  0
 15 16  1  1
 15 14  1  0
 17 15  1  0
 17 18  1  6
 19 20  1  0
 19 17  1  0
 21 19  2  0
M  END
$$$$
