STV.pdb
     RDKit          3D

 21 20  0  0  1  0  0  0  0  0999 V2000
   13.4642  -18.2961   21.8506 O   0  0  0  0  0  0  0  0  0  0  0  0
   12.1242  -18.0101   22.1038 C   0  0  0  0  0  0  0  0  0  0  0  0
   11.5580  -17.0995   21.0289 C   0  0  2  0  0  0  0  0  0  0  0  0
   12.6780  -16.5146   20.3275 N   0  0  0  0  0  0  0  0  0  0  0  0
   10.7262  -16.0150   21.6027 C   0  0  0  0  0  0  0  0  0  0  0  0
   11.1347  -14.8161   21.5961 O   0  0  0  0  0  0  0  0  0  0  0  0
    7.1969  -14.7275   20.5731 C   0  0  0  0  0  0  0  0  0  0  0  0
    7.2487  -15.0802   22.0439 C   0  0  1  0  0  0  0  0  0  0  0  0
    6.4832  -16.2047   22.3429 O   0  0  0  0  0  0  0  0  0  0  0  0
    8.6213  -15.1310   22.5975 C   0  0  2  0  0  0  0  0  0  0  0  0
    9.4608  -16.1925   22.1850 N   0  0  0  0  0  0  0  0  0  0  0  0
    8.5379  -15.1219   24.0765 C   0  0  0  0  0  0  0  0  0  0  0  0
    9.0577  -16.1040   24.6936 O   0  0  0  0  0  0  0  0  0  0  0  0
    5.8292  -12.7386   26.3125 C   0  0  0  0  0  0  0  0  0  0  0  0
    7.2278  -12.9590   26.8658 C   0  0  2  0  0  0  0  0  0  0  0  0
    8.0758  -11.7620   26.4982 C   0  0  0  0  0  0  0  0  0  0  0  0
    7.8559  -14.2055   26.2762 C   0  0  2  0  0  0  0  0  0  0  0  0
    7.9174  -14.0890   24.8337 N   0  0  0  0  0  0  0  0  0  0  0  0
    7.0599  -15.3837   26.6851 C   0  0  0  0  0  0  0  0  0  0  0  0
    7.3082  -15.9806   27.9117 O   0  0  0  0  0  0  0  0  0  0  0  0
    6.1557  -15.8688   25.9513 O   0  0  0  0  0  0  0  0  0  0  0  0
  2  1  1  0
  3  2  1  0
  3  4  1  1
  5 11  1  0
  5  3  1  0
  6  5  2  0
  8  7  1  6
  9  8  1  0
 10  8  1  0
 10 12  1  0
 10 11  1  1
 12 18  1  0
 13 12  2  0
 15 16  1  6
 15 14  1  0
 17 15  1  0
 17 18  1  6
 19 20  1  0
 19 17  1  0
 21 19  2  0
M  END
$$$$
