STV.pdb
     RDKit          3D

 21 20  0  0  1  0  0  0  0  0999 V2000
    7.1756  -19.2786   18.4173 O   0  0  0  0  0  0  0  0  0  0  0  0
    6.7064  -18.4759   17.3796 C   0  0  0  0  0  0  0  0  0  0  0  0
    7.7718  -17.4857   16.9439 C   0  0  2  0  0  0  0  0  0  0  0  0
    8.8442  -18.2454   16.3428 N   0  0  0  0  0  0  0  0  0  0  0  0
    8.3094  -16.7107   18.0875 C   0  0  0  0  0  0  0  0  0  0  0  0
    9.4672  -16.9499   18.5418 O   0  0  0  0  0  0  0  0  0  0  0  0
    8.1800  -12.7515   21.1238 C   0  0  0  0  0  0  0  0  0  0  0  0
    7.5450  -13.5351   19.9955 C   0  0  1  0  0  0  0  0  0  0  0  0
    7.3275  -12.7496   18.8661 O   0  0  0  0  0  0  0  0  0  0  0  0
    8.2234  -14.8191   19.7049 C   0  0  2  0  0  0  0  0  0  0  0  0
    7.6267  -15.6810   18.7548 N   0  0  0  0  0  0  0  0  0  0  0  0
    8.4154  -15.5537   20.9768 C   0  0  0  0  0  0  0  0  0  0  0  0
    7.4098  -16.1720   21.4480 O   0  0  0  0  0  0  0  0  0  0  0  0
   11.7053  -17.6353   22.1362 C   0  0  0  0  0  0  0  0  0  0  0  0
   11.1523  -16.7281   23.2235 C   0  0  2  0  0  0  0  0  0  0  0  0
   11.2043  -17.4772   24.5362 C   0  0  0  0  0  0  0  0  0  0  0  0
    9.7155  -16.3448   22.9334 C   0  0  2  0  0  0  0  0  0  0  0  0
    9.6460  -15.6053   21.6898 N   0  0  0  0  0  0  0  0  0  0  0  0
    9.1948  -15.5434   24.0629 C   0  0  0  0  0  0  0  0  0  0  0  0
    9.4056  -14.1731   24.0796 O   0  0  0  0  0  0  0  0  0  0  0  0
    8.5605  -16.0669   25.0195 O   0  0  0  0  0  0  0  0  0  0  0  0
  2  1  1  0
  3  2  1  0
  3  4  1  1
  5 11  1  0
  5  3  1  0
  6  5  2  0
  8  7  1  1
  9  8  1  0
 10  8  1  0
 10 12  1  0
 10 11  1  6
 12 18  1  0
 13 12  2  0
 15 16  1  1
 15 14  1  0
 17 15  1  0
 17 18  1  6
 19 20  1  0
 19 17  1  0
 21 19  2  0
M  END
$$$$
