STV.pdb
     RDKit          3D

 21 20  0  0  1  0  0  0  0  0999 V2000
   10.5124  -15.5081   20.6271 O   0  0  0  0  0  0  0  0  0  0  0  0
    9.5323  -15.7174   19.6592 C   0  0  0  0  0  0  0  0  0  0  0  0
    8.5866  -16.8263   20.0848 C   0  0  2  0  0  0  0  0  0  0  0  0
    7.6420  -17.0219   19.0087 N   0  0  0  0  0  0  0  0  0  0  0  0
    7.8465  -16.4796   21.3216 C   0  0  0  0  0  0  0  0  0  0  0  0
    6.7855  -15.7901   21.2669 O   0  0  0  0  0  0  0  0  0  0  0  0
    6.2906  -17.3916   25.8595 C   0  0  0  0  0  0  0  0  0  0  0  0
    7.1396  -17.7574   24.6613 C   0  0  1  0  0  0  0  0  0  0  0  0
    6.6436  -18.8686   23.9839 O   0  0  0  0  0  0  0  0  0  0  0  0
    7.4485  -16.6108   23.7764 C   0  0  2  0  0  0  0  0  0  0  0  0
    8.2241  -16.8597   22.6195 N   0  0  0  0  0  0  0  0  0  0  0  0
    8.0995  -15.5511   24.5811 C   0  0  0  0  0  0  0  0  0  0  0  0
    9.3700  -15.5135   24.5730 O   0  0  0  0  0  0  0  0  0  0  0  0
    5.9972  -12.8456   27.1825 C   0  0  0  0  0  0  0  0  0  0  0  0
    7.2550  -12.4237   26.4403 C   0  0  2  0  0  0  0  0  0  0  0  0
    6.8407  -11.7743   25.1388 C   0  0  0  0  0  0  0  0  0  0  0  0
    8.1333  -13.6198   26.1345 C   0  0  2  0  0  0  0  0  0  0  0  0
    7.3914  -14.5864   25.3513 N   0  0  0  0  0  0  0  0  0  0  0  0
    8.6026  -14.2091   27.4079 C   0  0  0  0  0  0  0  0  0  0  0  0
    8.1587  -15.4690   27.7794 O   0  0  0  0  0  0  0  0  0  0  0  0
    9.3990  -13.6009   28.1743 O   0  0  0  0  0  0  0  0  0  0  0  0
  2  1  1  0
  3  2  1  0
  3  4  1  6
  5 11  1  0
  5  3  1  0
  6  5  2  0
  8  7  1  1
  9  8  1  0
 10  8  1  0
 10 12  1  0
 10 11  1  6
 12 18  1  0
 13 12  2  0
 15 16  1  6
 15 14  1  0
 17 15  1  0
 17 18  1  1
 19 20  1  0
 19 17  1  0
 21 19  2  0
M  END
$$$$
