STV.pdb
     RDKit          3D

 21 20  0  0  1  0  0  0  0  0999 V2000
-14572.9697181680.968899987.9062 O   0  0  0  0  0  0  0  0  0  0  0  0
-14573.5908181680.234499986.8672 C   0  0  0  0  0  0  0  0  0  0  0  0
-14575.1006181680.125099987.0625 C   0  0  2  0  0  0  0  0  0  0  0  0
-14575.5234181681.281299987.7656 N   0  0  0  0  0  0  0  0  0  0  0  0
-14575.4971181678.921999987.8203 C   0  0  0  0  0  0  0  0  0  0  0  0
-14575.2754181677.781299987.3438 O   0  0  0  0  0  0  0  0  0  0  0  0
-14579.8037181679.171999989.5625 C   0  0  0  0  0  0  0  0  0  0  0  0
-14578.4121181678.656299989.8281 C   0  0  1  0  0  0  0  0  0  0  0  0
-14578.2793181677.328199989.3672 O   0  0  0  0  0  0  0  0  0  0  0  0
-14577.3291181679.515699989.4062 C   0  0  2  0  0  0  0  0  0  0  0  0
-14576.0693181678.953199989.0859 N   0  0  0  0  0  0  0  0  0  0  0  0
-14577.1494181680.546999990.4453 C   0  0  0  0  0  0  0  0  0  0  0  0
-14578.2021181681.140699990.8672 O   0  0  0  0  0  0  0  0  0  0  0  0
-14572.8926181682.109499989.1797 C   0  0  0  0  0  0  0  0  0  0  0  0
-14574.2275181681.343899989.1875 C   0  0  2  0  0  0  0  0  0  0  0  0
-14574.8770181681.546999987.8672 C   0  0  0  0  0  0  0  0  0  0  0  0
-14575.1504181682.031299990.2969 C   0  0  2  0  0  0  0  0  0  0  0  0
-14575.8926181680.968899990.9453 N   0  0  0  0  0  0  0  0  0  0  0  0
-14576.0635181682.953199989.6016 C   0  0  0  0  0  0  0  0  0  0  0  0
-14576.2119181684.234499990.0938 O   0  0  0  0  0  0  0  0  0  0  0  0
-14576.7363181682.703199988.5703 O   0  0  0  0  0  0  0  0  0  0  0  0
  2  1  1  0
  3  2  1  0
  3  4  1  1
  5 11  1  0
  5  3  1  0
  6  5  2  0
  8  7  1  6
  9  8  1  0
 10  8  1  0
 10 12  1  0
 10 11  1  1
 12 18  1  0
 13 12  2  0
 15 16  1  6
 15 14  1  0
 17 15  1  0
 17 18  1  6
 19 20  1  0
 19 17  1  0
 21 19  2  0
M  END
$$$$
