STV.pdb
     RDKit          3D

 21 20  0  0  1  0  0  0  0  0999 V2000
   11.9502  -13.7965   18.7606 O   0  0  0  0  0  0  0  0  0  0  0  0
   10.8804  -13.5597   19.6213 C   0  0  0  0  0  0  0  0  0  0  0  0
    9.6649  -14.3662   19.2002 C   0  0  2  0  0  0  0  0  0  0  0  0
    9.0526  -13.6725   18.0900 N   0  0  0  0  0  0  0  0  0  0  0  0
    8.6758  -14.4921   20.2972 C   0  0  0  0  0  0  0  0  0  0  0  0
    7.5863  -13.8472   20.2610 O   0  0  0  0  0  0  0  0  0  0  0  0
    6.6040  -17.4771   21.3177 C   0  0  0  0  0  0  0  0  0  0  0  0
    7.3369  -16.9456   22.5304 C   0  0  1  0  0  0  0  0  0  0  0  0
    8.3216  -17.8235   22.9772 O   0  0  0  0  0  0  0  0  0  0  0  0
    7.8092  -15.5503   22.3783 C   0  0  2  0  0  0  0  0  0  0  0  0
    8.8338  -15.2990   21.4355 N   0  0  0  0  0  0  0  0  0  0  0  0
    8.2325  -15.0445   23.7047 C   0  0  0  0  0  0  0  0  0  0  0  0
    9.4805  -14.9070   23.9027 O   0  0  0  0  0  0  0  0  0  0  0  0
    6.3080  -12.1149   25.5211 C   0  0  0  0  0  0  0  0  0  0  0  0
    6.7662  -13.1560   26.5297 C   0  0  2  0  0  0  0  0  0  0  0  0
    7.3350  -12.4333   27.7301 C   0  0  0  0  0  0  0  0  0  0  0  0
    7.8389  -14.0491   25.9404 C   0  0  2  0  0  0  0  0  0  0  0  0
    7.3321  -14.7082   24.7543 N   0  0  0  0  0  0  0  0  0  0  0  0
    8.2589  -15.0335   26.9620 C   0  0  0  0  0  0  0  0  0  0  0  0
    7.8861  -16.3615   26.8216 O   0  0  0  0  0  0  0  0  0  0  0  0
    8.9501  -14.7048   27.9649 O   0  0  0  0  0  0  0  0  0  0  0  0
  2  1  1  0
  3  2  1  0
  3  4  1  6
  5 11  1  0
  5  3  1  0
  6  5  2  0
  8  7  1  6
  9  8  1  0
 10  8  1  0
 10 12  1  0
 10 11  1  6
 12 18  1  0
 13 12  2  0
 15 16  1  1
 15 14  1  0
 17 15  1  0
 17 18  1  6
 19 20  1  0
 19 17  1  0
 21 19  2  0
M  END
$$$$
