STV.pdb
     RDKit          3D

 21 20  0  0  1  0  0  0  0  0999 V2000
   11.9928  -13.3987   18.8020 O   0  0  0  0  0  0  0  0  0  0  0  0
   10.8553  -13.3385   19.6045 C   0  0  0  0  0  0  0  0  0  0  0  0
    9.9052  -14.4758   19.2741 C   0  0  2  0  0  0  0  0  0  0  0  0
    9.2326  -14.1297   18.0427 N   0  0  0  0  0  0  0  0  0  0  0  0
    8.8931  -14.6796   20.3378 C   0  0  0  0  0  0  0  0  0  0  0  0
    7.6984  -14.2919   20.1747 O   0  0  0  0  0  0  0  0  0  0  0  0
    7.2562  -17.7761   21.4686 C   0  0  0  0  0  0  0  0  0  0  0  0
    7.8561  -17.1036   22.6844 C   0  0  1  0  0  0  0  0  0  0  0  0
    8.9390  -17.8131   23.1979 O   0  0  0  0  0  0  0  0  0  0  0  0
    8.1271  -15.6601   22.4950 C   0  0  2  0  0  0  0  0  0  0  0  0
    9.1390  -15.2931   21.5767 N   0  0  0  0  0  0  0  0  0  0  0  0
    8.4233  -15.0550   23.8144 C   0  0  0  0  0  0  0  0  0  0  0  0
    9.6359  -14.7646   24.0611 O   0  0  0  0  0  0  0  0  0  0  0  0
    6.2489  -12.2252   25.5332 C   0  0  0  0  0  0  0  0  0  0  0  0
    6.6673  -13.2800   26.5449 C   0  0  2  0  0  0  0  0  0  0  0  0
    7.0958  -12.5756   27.8127 C   0  0  0  0  0  0  0  0  0  0  0  0
    7.8279  -14.1031   26.0242 C   0  0  2  0  0  0  0  0  0  0  0  0
    7.4394  -14.7842   24.8063 N   0  0  0  0  0  0  0  0  0  0  0  0
    8.2401  -15.0666   27.0686 C   0  0  0  0  0  0  0  0  0  0  0  0
    9.0654  -14.6422   28.0987 O   0  0  0  0  0  0  0  0  0  0  0  0
    7.8644  -16.2708   27.0552 O   0  0  0  0  0  0  0  0  0  0  0  0
  2  1  1  0
  3  2  1  0
  3  4  1  6
  5 11  1  0
  5  3  1  0
  6  5  2  0
  8  7  1  6
  9  8  1  0
 10  8  1  0
 10 12  1  0
 10 11  1  6
 12 18  1  0
 13 12  2  0
 15 16  1  1
 15 14  1  0
 17 15  1  0
 17 18  1  6
 19 20  1  0
 19 17  1  0
 21 19  2  0
M  END
$$$$
