STV.pdb
     RDKit          3D

 21 20  0  0  1  0  0  0  0  0999 V2000
    9.6579  -12.0867   19.5767 O   0  0  0  0  0  0  0  0  0  0  0  0
   10.2510  -13.3310   19.3735 C   0  0  0  0  0  0  0  0  0  0  0  0
    9.2071  -14.3676   18.9981 C   0  0  2  0  0  0  0  0  0  0  0  0
    8.3843  -13.7919   17.9589 N   0  0  0  0  0  0  0  0  0  0  0  0
    8.3479  -14.7317   20.1499 C   0  0  0  0  0  0  0  0  0  0  0  0
    7.1044  -14.4917   20.1288 O   0  0  0  0  0  0  0  0  0  0  0  0
    9.2342  -17.8789   22.8528 C   0  0  0  0  0  0  0  0  0  0  0  0
    7.8803  -17.2318   22.6564 C   0  0  1  0  0  0  0  0  0  0  0  0
    6.9865  -17.5621   23.6722 O   0  0  0  0  0  0  0  0  0  0  0  0
    7.9482  -15.7798   22.3733 C   0  0  2  0  0  0  0  0  0  0  0  0
    8.7985  -15.3501   21.3273 N   0  0  0  0  0  0  0  0  0  0  0  0
    8.3123  -15.0688   23.6208 C   0  0  0  0  0  0  0  0  0  0  0  0
    9.5172  -14.6815   23.7381 O   0  0  0  0  0  0  0  0  0  0  0  0
    6.1888  -12.2398   25.3460 C   0  0  0  0  0  0  0  0  0  0  0  0
    6.7095  -13.2193   26.3854 C   0  0  2  0  0  0  0  0  0  0  0  0
    7.2078  -12.4275   27.5735 C   0  0  0  0  0  0  0  0  0  0  0  0
    7.8527  -14.0445   25.8307 C   0  0  2  0  0  0  0  0  0  0  0  0
    7.4007  -14.7988   24.6797 N   0  0  0  0  0  0  0  0  0  0  0  0
    8.3581  -14.9408   26.8938 C   0  0  0  0  0  0  0  0  0  0  0  0
    9.3269  -14.4778   27.7709 O   0  0  0  0  0  0  0  0  0  0  0  0
    7.9354  -16.1214   27.0318 O   0  0  0  0  0  0  0  0  0  0  0  0
  2  1  1  0
  3  2  1  0
  3  4  1  6
  5 11  1  0
  5  3  1  0
  6  5  2  0
  8  7  1  1
  9  8  1  0
 10  8  1  0
 10 12  1  0
 10 11  1  6
 12 18  1  0
 13 12  2  0
 15 16  1  1
 15 14  1  0
 17 15  1  0
 17 18  1  6
 19 20  1  0
 19 17  1  0
 21 19  2  0
M  END
$$$$
