HSH.pdb
     RDKit          3D

 27 28  0  0  1  0  0  0  0  0999 V2000
   13.5310  -26.2249    0.1085 N   0  0  0  0  0  0  0  0  0  0  0  0
   13.9496  -26.6066    1.4332 C   0  0  1  0  0  0  0  0  0  0  0  0
   15.0021  -27.6686    1.3690 C   0  0  0  0  0  0  0  0  0  0  0  0
   14.3696  -28.9001    0.8270 C   0  0  0  0  0  0  0  0  0  0  0  0
   14.5374  -29.4773   -0.4118 C   0  0  0  0  0  0  0  0  0  0  0  0
   13.7855  -30.5881   -0.5158 N   0  0  0  0  0  0  0  0  0  0  0  0
   13.1454  -30.7058    0.6616 C   0  0  0  0  0  0  0  0  0  0  0  0
   13.4896  -29.6885    1.4876 N   0  0  0  0  0  0  0  0  0  0  0  0
   14.4051  -25.3868    2.1487 C   0  0  0  0  0  0  0  0  0  0  0  0
   15.2863  -24.6168    1.6745 O   0  0  0  0  0  0  0  0  0  0  0  0
   13.5346  -22.0640    5.4898 O   0  0  0  0  0  0  0  0  0  0  0  0
   13.3190  -23.4180    5.2196 C   0  0  0  0  0  0  0  0  0  0  0  0
   14.2337  -23.8172    4.1135 C   0  0  2  0  0  0  0  0  0  0  0  0
   13.8725  -25.0070    3.4235 N   0  0  0  0  0  0  0  0  0  0  0  0
   15.6606  -23.8788    4.5904 C   0  0  0  0  0  0  0  0  0  0  0  0
   16.1502  -24.9311    5.0605 O   0  0  0  0  0  0  0  0  0  0  0  0
   16.5077  -22.7405    4.5244 N   0  0  0  0  0  0  0  0  0  0  0  0
   17.8489  -22.7197    5.1034 C   0  0  1  0  0  0  0  0  0  0  0  0
   18.1761  -21.3887    5.6849 C   0  0  0  0  0  0  0  0  0  0  0  0
   17.8592  -20.2880    4.7556 C   0  0  0  0  0  0  0  0  0  0  0  0
   17.5700  -20.3337    3.3879 C   0  0  0  0  0  0  0  0  0  0  0  0
   17.3602  -19.0860    2.9244 N   0  0  0  0  0  0  0  0  0  0  0  0
   17.5091  -18.2540    3.9622 C   0  0  0  0  0  0  0  0  0  0  0  0
   17.8073  -18.9647    5.0594 N   0  0  0  0  0  0  0  0  0  0  0  0
   18.0544  -23.8422    6.0316 C   0  0  0  0  0  0  0  0  0  0  0  0
   19.2526  -24.0490    6.6548 O   0  0  0  0  0  0  0  0  0  0  0  0
   17.1021  -24.6256    6.2502 O   0  0  0  0  0  0  0  0  0  0  0  0
  2  1  1  6
  3  2  1  0
  3  4  1  0
  4  8  1  0
  5  4  2  0
  5  6  1  0
  6  7  1  0
  8  7  2  0
  9  2  1  0
  9 10  2  0
 11 12  1  0
 13 12  1  1
 13 15  1  0
 13 14  1  0
 14  9  1  0
 15 17  1  0
 16 15  2  0
 17 18  1  0
 18 19  1  1
 19 20  1  0
 20 21  2  0
 20 24  1  0
 21 22  1  0
 22 23  1  0
 24 23  2  0
 25 26  1  0
 25 18  1  0
 27 25  2  0
M  END
$$$$
