HSH.pdb
     RDKit          3D

 27 28  0  0  1  0  0  0  0  0999 V2000
   17.0720  -25.4888  -11.3514 N   0  0  0  0  0  0  0  0  0  0  0  0
   18.0515  -26.2430  -10.6112 C   0  0  1  0  0  0  0  0  0  0  0  0
   19.2347  -25.3891  -10.2788 C   0  0  0  0  0  0  0  0  0  0  0  0
   19.9029  -25.0252  -11.5560 C   0  0  0  0  0  0  0  0  0  0  0  0
   20.7098  -25.8040  -12.3549 C   0  0  0  0  0  0  0  0  0  0  0  0
   21.1197  -25.1047  -13.4288 N   0  0  0  0  0  0  0  0  0  0  0  0
   20.5672  -23.8847  -13.3009 C   0  0  0  0  0  0  0  0  0  0  0  0
   19.8256  -23.8207  -12.1689 N   0  0  0  0  0  0  0  0  0  0  0  0
   17.3922  -26.8082   -9.4057 C   0  0  0  0  0  0  0  0  0  0  0  0
   16.6133  -26.1274   -8.6818 O   0  0  0  0  0  0  0  0  0  0  0  0
   18.4897  -30.5566   -7.8277 O   0  0  0  0  0  0  0  0  0  0  0  0
   17.1429  -30.2078   -7.6963 C   0  0  0  0  0  0  0  0  0  0  0  0
   17.0390  -28.7258   -7.8084 C   0  0  2  0  0  0  0  0  0  0  0  0
   17.5992  -28.1631   -8.9881 N   0  0  0  0  0  0  0  0  0  0  0  0
   17.5828  -28.0532   -6.5758 C   0  0  0  0  0  0  0  0  0  0  0  0
   18.7760  -27.6802   -6.5044 O   0  0  0  0  0  0  0  0  0  0  0  0
   16.7586  -27.8159   -5.4434 N   0  0  0  0  0  0  0  0  0  0  0  0
   17.2658  -27.2234   -4.2080 C   0  0  1  0  0  0  0  0  0  0  0  0
   16.2221  -26.4186   -3.5154 C   0  0  0  0  0  0  0  0  0  0  0  0
   15.7872  -25.2652   -4.3255 C   0  0  0  0  0  0  0  0  0  0  0  0
   16.5256  -24.4668   -5.2052 C   0  0  0  0  0  0  0  0  0  0  0  0
   15.7351  -23.5050   -5.7205 N   0  0  0  0  0  0  0  0  0  0  0  0
   14.5180  -23.6745   -5.1902 C   0  0  0  0  0  0  0  0  0  0  0  0
   14.5413  -24.7240   -4.3560 N   0  0  0  0  0  0  0  0  0  0  0  0
   17.9088  -28.2302   -3.3498 C   0  0  0  0  0  0  0  0  0  0  0  0
   18.7758  -27.8777   -2.3543 O   0  0  0  0  0  0  0  0  0  0  0  0
   17.6512  -29.4404   -3.5435 O   0  0  0  0  0  0  0  0  0  0  0  0
  2  1  1  1
  3  2  1  0
  3  4  1  0
  4  8  1  0
  5  4  2  0
  5  6  1  0
  6  7  1  0
  8  7  2  0
  9  2  1  0
  9 10  2  0
 11 12  1  0
 13 12  1  1
 13 15  1  0
 13 14  1  0
 14  9  1  0
 15 17  1  0
 16 15  2  0
 17 18  1  0
 18 19  1  1
 19 20  1  0
 20 21  2  0
 20 24  1  0
 21 22  1  0
 22 23  1  0
 24 23  2  0
 25 26  1  0
 25 18  1  0
 27 25  2  0
M  END
$$$$
