HSH.pdb
     RDKit          3D

 27 28  0  0  1  0  0  0  0  0999 V2000
   16.0982  -10.1331  -17.5570 N   0  0  0  0  0  0  0  0  0  0  0  0
   16.5233   -9.6788  -16.2575 C   0  0  1  0  0  0  0  0  0  0  0  0
   17.0631  -10.8176  -15.4504 C   0  0  0  0  0  0  0  0  0  0  0  0
   15.9616  -11.7971  -15.2570 C   0  0  0  0  0  0  0  0  0  0  0  0
   14.8166  -11.6637  -14.5039 C   0  0  0  0  0  0  0  0  0  0  0  0
   14.0686  -12.7788  -14.5884 N   0  0  0  0  0  0  0  0  0  0  0  0
   14.7481  -13.6122  -15.3970 C   0  0  0  0  0  0  0  0  0  0  0  0
   15.8995  -13.0306  -15.8112 N   0  0  0  0  0  0  0  0  0  0  0  0
   17.5124   -8.5862  -16.4453 C   0  0  0  0  0  0  0  0  0  0  0  0
   18.6546   -8.7893  -16.9436 O   0  0  0  0  0  0  0  0  0  0  0  0
   16.5120   -4.6076  -15.5800 O   0  0  0  0  0  0  0  0  0  0  0  0
   17.4547   -4.8349  -16.5862 C   0  0  0  0  0  0  0  0  0  0  0  0
   18.1142   -6.1422  -16.3112 C   0  0  2  0  0  0  0  0  0  0  0  0
   17.2320   -7.2315  -16.0722 N   0  0  0  0  0  0  0  0  0  0  0  0
   19.1272   -6.0120  -15.2047 C   0  0  0  0  0  0  0  0  0  0  0  0
   18.7946   -6.0817  -13.9995 O   0  0  0  0  0  0  0  0  0  0  0  0
   20.5035   -5.8043  -15.4884 N   0  0  0  0  0  0  0  0  0  0  0  0
   21.5138   -5.6691  -14.4418 C   0  0  1  0  0  0  0  0  0  0  0  0
   22.7768   -6.3698  -14.8030 C   0  0  0  0  0  0  0  0  0  0  0  0
   22.5775   -7.8237  -14.9523 C   0  0  0  0  0  0  0  0  0  0  0  0
   21.4339   -8.5938  -14.7170 C   0  0  0  0  0  0  0  0  0  0  0  0
   21.7001   -9.8917  -14.9618 N   0  0  0  0  0  0  0  0  0  0  0  0
   22.9805   -9.9619  -15.3453 C   0  0  0  0  0  0  0  0  0  0  0  0
   23.5112   -8.7306  -15.3421 N   0  0  0  0  0  0  0  0  0  0  0  0
   21.7029   -4.2636  -14.0514 C   0  0  0  0  0  0  0  0  0  0  0  0
   22.4747   -3.9131  -12.9797 O   0  0  0  0  0  0  0  0  0  0  0  0
   21.1373   -3.3703  -14.7225 O   0  0  0  0  0  0  0  0  0  0  0  0
  2  1  1  6
  3  2  1  0
  3  4  1  0
  4  8  1  0
  5  4  2  0
  5  6  1  0
  6  7  1  0
  8  7  2  0
  9  2  1  0
  9 10  2  0
 11 12  1  0
 13 12  1  1
 13 15  1  0
 13 14  1  0
 14  9  1  0
 15 17  1  0
 16 15  2  0
 17 18  1  0
 18 19  1  6
 19 20  1  0
 20 21  2  0
 20 24  1  0
 21 22  1  0
 22 23  1  0
 24 23  2  0
 25 26  1  0
 25 18  1  0
 27 25  2  0
M  END
$$$$
