HSH.pdb
     RDKit          3D

 27 28  0  0  1  0  0  0  0  0999 V2000
   20.7874  -13.1985  -19.6605 N   0  0  0  0  0  0  0  0  0  0  0  0
   20.6798  -12.5523  -18.3772 C   0  0  1  0  0  0  0  0  0  0  0  0
   20.9924  -13.5138  -17.2739 C   0  0  0  0  0  0  0  0  0  0  0  0
   19.9290  -14.5528  -17.2647 C   0  0  0  0  0  0  0  0  0  0  0  0
   20.0469  -15.9038  -17.5031 C   0  0  0  0  0  0  0  0  0  0  0  0
   18.8469  -16.5034  -17.3999 N   0  0  0  0  0  0  0  0  0  0  0  0
   17.9759  -15.5242  -17.0959 C   0  0  0  0  0  0  0  0  0  0  0  0
   18.6176  -14.3340  -17.0103 N   0  0  0  0  0  0  0  0  0  0  0  0
   21.5724  -11.3646  -18.3762 C   0  0  0  0  0  0  0  0  0  0  0  0
   22.7803  -11.4288  -18.7384 O   0  0  0  0  0  0  0  0  0  0  0  0
   23.1760   -7.3135  -19.1419 O   0  0  0  0  0  0  0  0  0  0  0  0
   22.2811   -8.3728  -19.3146 C   0  0  0  0  0  0  0  0  0  0  0  0
   21.9317   -8.9035  -17.9671 C   0  0  2  0  0  0  0  0  0  0  0  0
   21.1182  -10.0698  -17.9636 N   0  0  0  0  0  0  0  0  0  0  0  0
   21.3366   -7.8247  -17.1013 C   0  0  0  0  0  0  0  0  0  0  0  0
   20.1256   -7.5155  -17.1783 O   0  0  0  0  0  0  0  0  0  0  0  0
   22.1304   -7.1150  -16.1611 N   0  0  0  0  0  0  0  0  0  0  0  0
   21.5682   -6.1400  -15.2296 C   0  0  1  0  0  0  0  0  0  0  0  0
   21.8166   -6.5261  -13.8133 C   0  0  0  0  0  0  0  0  0  0  0  0
   20.9551   -7.6452  -13.3877 C   0  0  0  0  0  0  0  0  0  0  0  0
   19.9944   -8.3551  -14.1153 C   0  0  0  0  0  0  0  0  0  0  0  0
   19.4243   -9.2884  -13.3282 N   0  0  0  0  0  0  0  0  0  0  0  0
   19.9989   -9.1870  -12.1237 C   0  0  0  0  0  0  0  0  0  0  0  0
   20.9143   -8.2077  -12.1515 N   0  0  0  0  0  0  0  0  0  0  0  0
   21.9947   -4.7709  -15.5574 C   0  0  0  0  0  0  0  0  0  0  0  0
   21.5166   -3.6870  -14.8767 O   0  0  0  0  0  0  0  0  0  0  0  0
   22.8166   -4.6020  -16.4871 O   0  0  0  0  0  0  0  0  0  0  0  0
  2  1  1  6
  3  2  1  0
  3  4  1  0
  4  8  1  0
  5  4  2  0
  5  6  1  0
  6  7  1  0
  8  7  2  0
  9  2  1  0
  9 10  2  0
 11 12  1  0
 13 12  1  6
 13 15  1  0
 13 14  1  0
 14  9  1  0
 15 17  1  0
 16 15  2  0
 17 18  1  0
 18 19  1  1
 19 20  1  0
 20 21  2  0
 20 24  1  0
 21 22  1  0
 22 23  1  0
 24 23  2  0
 25 26  1  0
 25 18  1  0
 27 25  2  0
M  END
$$$$
