HSH.pdb
     RDKit          3D

 27 28  0  0  1  0  0  0  0  0999 V2000
   18.3381  -11.8968  -16.4284 N   0  0  0  0  0  0  0  0  0  0  0  0
   17.4832  -11.3131  -15.4262 C   0  0  1  0  0  0  0  0  0  0  0  0
   17.1788  -12.3057  -14.3484 C   0  0  0  0  0  0  0  0  0  0  0  0
   16.4200  -13.4253  -14.9657 C   0  0  0  0  0  0  0  0  0  0  0  0
   15.1158  -13.4378  -15.4070 C   0  0  0  0  0  0  0  0  0  0  0  0
   14.8020  -14.6478  -15.9045 N   0  0  0  0  0  0  0  0  0  0  0  0
   15.9137  -15.3943  -15.7738 C   0  0  0  0  0  0  0  0  0  0  0  0
   16.9048  -14.6662  -15.2055 N   0  0  0  0  0  0  0  0  0  0  0  0
   18.1405  -10.0850  -14.9093 C   0  0  0  0  0  0  0  0  0  0  0  0
   17.6638   -9.4188  -13.9486 O   0  0  0  0  0  0  0  0  0  0  0  0
   21.7328   -8.6327  -16.5787 O   0  0  0  0  0  0  0  0  0  0  0  0
   21.4722   -8.3396  -15.2375 C   0  0  0  0  0  0  0  0  0  0  0  0
   19.9968   -8.3845  -15.0355 C   0  0  2  0  0  0  0  0  0  0  0  0
   19.3584   -9.5789  -15.4693 N   0  0  0  0  0  0  0  0  0  0  0  0
   19.3348   -7.1694  -15.6295 C   0  0  0  0  0  0  0  0  0  0  0  0
   18.8454   -7.1866  -16.7820 O   0  0  0  0  0  0  0  0  0  0  0  0
   19.2406   -5.9536  -14.9011 N   0  0  0  0  0  0  0  0  0  0  0  0
   18.6136   -4.7524  -15.4475 C   0  0  1  0  0  0  0  0  0  0  0  0
   18.3065   -3.7592  -14.3817 C   0  0  0  0  0  0  0  0  0  0  0  0
   17.6429   -2.5578  -14.9221 C   0  0  0  0  0  0  0  0  0  0  0  0
   17.2531   -2.2711  -16.2345 C   0  0  0  0  0  0  0  0  0  0  0  0
   16.6977   -1.0446  -16.2873 N   0  0  0  0  0  0  0  0  0  0  0  0
   16.7263   -0.5493  -15.0442 C   0  0  0  0  0  0  0  0  0  0  0  0
   17.2895   -1.4475  -14.2232 N   0  0  0  0  0  0  0  0  0  0  0  0
   19.3879   -4.2014  -16.5701 C   0  0  0  0  0  0  0  0  0  0  0  0
   18.7826   -3.5651  -17.6169 O   0  0  0  0  0  0  0  0  0  0  0  0
   20.6342   -4.3238  -16.5602 O   0  0  0  0  0  0  0  0  0  0  0  0
  2  1  1  6
  3  2  1  0
  3  4  1  0
  4  8  1  0
  5  4  2  0
  5  6  1  0
  6  7  1  0
  8  7  2  0
  9  2  1  0
  9 10  2  0
 11 12  1  0
 13 12  1  6
 13 15  1  0
 13 14  1  0
 14  9  1  0
 15 17  1  0
 16 15  2  0
 17 18  1  0
 18 19  1  1
 19 20  1  0
 20 21  2  0
 20 24  1  0
 21 22  1  0
 22 23  1  0
 24 23  2  0
 25 26  1  0
 25 18  1  0
 27 25  2  0
M  END
$$$$
