HSH.pdb
     RDKit          3D

 27 28  0  0  1  0  0  0  0  0999 V2000
   19.1912  -12.9955  -15.8106 N   0  0  0  0  0  0  0  0  0  0  0  0
   19.1405  -11.6705  -16.3743 C   0  0  1  0  0  0  0  0  0  0  0  0
   17.7357  -11.1548  -16.3856 C   0  0  0  0  0  0  0  0  0  0  0  0
   16.9510  -12.0002  -17.3237 C   0  0  0  0  0  0  0  0  0  0  0  0
   15.7301  -12.6031  -17.1194 C   0  0  0  0  0  0  0  0  0  0  0  0
   15.3557  -13.2848  -18.2173 N   0  0  0  0  0  0  0  0  0  0  0  0
   16.3457  -13.1075  -19.1108 C   0  0  0  0  0  0  0  0  0  0  0  0
   17.3216  -12.3298  -18.5832 N   0  0  0  0  0  0  0  0  0  0  0  0
   20.0673  -10.8002  -15.6057 C   0  0  0  0  0  0  0  0  0  0  0  0
   19.9108  -10.5707  -14.3740 O   0  0  0  0  0  0  0  0  0  0  0  0
   23.7982  -10.8505  -15.0816 O   0  0  0  0  0  0  0  0  0  0  0  0
   23.5438   -9.6237  -15.7005 C   0  0  0  0  0  0  0  0  0  0  0  0
   22.0984   -9.3098  -15.5217 C   0  0  2  0  0  0  0  0  0  0  0  0
   21.1986  -10.1657  -16.2145 N   0  0  0  0  0  0  0  0  0  0  0  0
   21.8190   -7.8633  -15.8330 C   0  0  0  0  0  0  0  0  0  0  0  0
   21.4431   -7.4979  -16.9701 O   0  0  0  0  0  0  0  0  0  0  0  0
   21.9722   -6.8554  -14.8438 N   0  0  0  0  0  0  0  0  0  0  0  0
   21.7279   -5.4405  -15.1137 C   0  0  1  0  0  0  0  0  0  0  0  0
   21.6711   -4.6430  -13.8577 C   0  0  0  0  0  0  0  0  0  0  0  0
   21.3534   -3.2263  -14.1180 C   0  0  0  0  0  0  0  0  0  0  0  0
   22.1959   -2.1851  -14.5211 C   0  0  0  0  0  0  0  0  0  0  0  0
   21.4912   -1.0410  -14.6202 N   0  0  0  0  0  0  0  0  0  0  0  0
   20.2269   -1.3315  -14.2907 C   0  0  0  0  0  0  0  0  0  0  0  0
   20.1369   -2.6350  -13.9894 N   0  0  0  0  0  0  0  0  0  0  0  0
   22.6675   -4.9108  -16.1138 C   0  0  0  0  0  0  0  0  0  0  0  0
   22.2517   -4.1001  -17.1320 O   0  0  0  0  0  0  0  0  0  0  0  0
   23.8787   -5.2165  -16.0242 O   0  0  0  0  0  0  0  0  0  0  0  0
  2  1  1  1
  3  2  1  0
  3  4  1  0
  4  8  1  0
  5  4  2  0
  5  6  1  0
  6  7  1  0
  8  7  2  0
  9  2  1  0
  9 10  2  0
 11 12  1  0
 13 12  1  6
 13 15  1  0
 13 14  1  0
 14  9  1  0
 15 17  1  0
 16 15  2  0
 17 18  1  0
 18 19  1  1
 19 20  1  0
 20 21  2  0
 20 24  1  0
 21 22  1  0
 22 23  1  0
 24 23  2  0
 25 26  1  0
 25 18  1  0
 27 25  2  0
M  END
$$$$
