HSH.pdb
     RDKit          3D

 27 28  0  0  1  0  0  0  0  0999 V2000
   16.9111  -13.9873  -14.1473 N   0  0  0  0  0  0  0  0  0  0  0  0
   16.2623  -12.7260  -14.4004 C   0  0  1  0  0  0  0  0  0  0  0  0
   14.7746  -12.8755  -14.3386 C   0  0  0  0  0  0  0  0  0  0  0  0
   14.3635  -13.7724  -15.4507 C   0  0  0  0  0  0  0  0  0  0  0  0
   14.1431  -13.4553  -16.7724 C   0  0  0  0  0  0  0  0  0  0  0  0
   13.7832  -14.5526  -17.4628 N   0  0  0  0  0  0  0  0  0  0  0  0
   13.7785  -15.5590  -16.5699 C   0  0  0  0  0  0  0  0  0  0  0  0
   14.1287  -15.1012  -15.3438 N   0  0  0  0  0  0  0  0  0  0  0  0
   16.7820  -11.7301  -13.4280 C   0  0  0  0  0  0  0  0  0  0  0  0
   16.5364  -11.8036  -12.1916 O   0  0  0  0  0  0  0  0  0  0  0  0
   18.7156   -8.1723  -14.6364 O   0  0  0  0  0  0  0  0  0  0  0  0
   19.2141   -8.7996  -13.4915 C   0  0  0  0  0  0  0  0  0  0  0  0
   18.1349   -9.6617  -12.9332 C   0  0  2  0  0  0  0  0  0  0  0  0
   17.5956  -10.6222  -13.8325 N   0  0  0  0  0  0  0  0  0  0  0  0
   17.0454   -8.8271  -12.3137 C   0  0  0  0  0  0  0  0  0  0  0  0
   16.0535   -8.4466  -12.9767 O   0  0  0  0  0  0  0  0  0  0  0  0
   17.1026   -8.4390  -10.9485 N   0  0  0  0  0  0  0  0  0  0  0  0
   16.0962   -7.5802  -10.3289 C   0  0  1  0  0  0  0  0  0  0  0  0
   16.2122   -7.5799   -8.8446 C   0  0  0  0  0  0  0  0  0  0  0  0
   15.1028   -6.8478   -8.2049 C   0  0  0  0  0  0  0  0  0  0  0  0
   13.9841   -6.2423   -8.7864 C   0  0  0  0  0  0  0  0  0  0  0  0
   13.2309   -5.6634   -7.8309 N   0  0  0  0  0  0  0  0  0  0  0  0
   13.8436   -5.8869   -6.6621 C   0  0  0  0  0  0  0  0  0  0  0  0
   14.9624   -6.5939   -6.8775 N   0  0  0  0  0  0  0  0  0  0  0  0
   16.0908   -6.2360  -10.9263 C   0  0  0  0  0  0  0  0  0  0  0  0
   14.9274   -5.6072  -11.2700 O   0  0  0  0  0  0  0  0  0  0  0  0
   17.1850   -5.6598  -11.1237 O   0  0  0  0  0  0  0  0  0  0  0  0
  2  1  1  1
  3  2  1  0
  3  4  1  0
  4  8  1  0
  5  4  2  0
  5  6  1  0
  6  7  1  0
  8  7  2  0
  9  2  1  0
  9 10  2  0
 11 12  1  0
 13 12  1  6
 13 15  1  0
 13 14  1  0
 14  9  1  0
 15 17  1  0
 16 15  2  0
 17 18  1  0
 18 19  1  1
 19 20  1  0
 20 21  2  0
 20 24  1  0
 21 22  1  0
 22 23  1  0
 24 23  2  0
 25 26  1  0
 25 18  1  0
 27 25  2  0
M  END
$$$$
