HSH.pdb
     RDKit          3D

 27 28  0  0  1  0  0  0  0  0999 V2000
   21.3328  -14.2941  -20.3610 N   0  0  0  0  0  0  0  0  0  0  0  0
   21.8188  -13.6421  -19.1716 C   0  0  1  0  0  0  0  0  0  0  0  0
   23.3138  -13.5762  -19.1788 C   0  0  0  0  0  0  0  0  0  0  0  0
   23.8280  -14.9712  -19.1769 C   0  0  0  0  0  0  0  0  0  0  0  0
   24.4614  -15.6539  -20.1911 C   0  0  0  0  0  0  0  0  0  0  0  0
   24.7720  -16.9009  -19.7927 N   0  0  0  0  0  0  0  0  0  0  0  0
   24.3314  -16.9981  -18.5252 C   0  0  0  0  0  0  0  0  0  0  0  0
   23.7559  -15.8347  -18.1369 N   0  0  0  0  0  0  0  0  0  0  0  0
   21.1836  -12.3020  -19.0811 C   0  0  0  0  0  0  0  0  0  0  0  0
   21.5083  -11.3494  -19.8435 O   0  0  0  0  0  0  0  0  0  0  0  0
   17.7013  -11.6866  -16.8142 O   0  0  0  0  0  0  0  0  0  0  0  0
   17.9660  -10.9078  -17.9439 C   0  0  0  0  0  0  0  0  0  0  0  0
   19.4443  -10.7789  -18.0770 C   0  0  2  0  0  0  0  0  0  0  0  0
   20.1615  -12.0060  -18.1216 N   0  0  0  0  0  0  0  0  0  0  0  0
   20.0022   -9.8628  -17.0202 C   0  0  0  0  0  0  0  0  0  0  0  0
   20.3288  -10.2888  -15.8888 O   0  0  0  0  0  0  0  0  0  0  0  0
   20.1796   -8.4755  -17.2686 N   0  0  0  0  0  0  0  0  0  0  0  0
   20.5786   -7.5316  -16.2274 C   0  0  1  0  0  0  0  0  0  0  0  0
   20.9009   -6.1927  -16.7932 C   0  0  0  0  0  0  0  0  0  0  0  0
   21.3694   -5.2541  -15.7563 C   0  0  0  0  0  0  0  0  0  0  0  0
   22.0123   -5.5177  -14.5424 C   0  0  0  0  0  0  0  0  0  0  0  0
   22.2439   -4.3623  -13.8889 N   0  0  0  0  0  0  0  0  0  0  0  0
   21.7648   -3.3767  -14.6572 C   0  0  0  0  0  0  0  0  0  0  0  0
   21.2410   -3.9015  -15.7743 N   0  0  0  0  0  0  0  0  0  0  0  0
   19.6016   -7.4943  -15.1283 C   0  0  0  0  0  0  0  0  0  0  0  0
   19.9932   -7.4696  -13.8195 O   0  0  0  0  0  0  0  0  0  0  0  0
   18.3808   -7.4869  -15.4071 O   0  0  0  0  0  0  0  0  0  0  0  0
  2  1  1  6
  3  2  1  0
  3  4  1  0
  4  8  1  0
  5  4  2  0
  5  6  1  0
  6  7  1  0
  8  7  2  0
  9  2  1  0
  9 10  2  0
 11 12  1  0
 13 12  1  1
 13 15  1  0
 13 14  1  0
 14  9  1  0
 15 17  1  0
 16 15  2  0
 17 18  1  0
 18 19  1  6
 19 20  1  0
 20 21  2  0
 20 24  1  0
 21 22  1  0
 22 23  1  0
 24 23  2  0
 25 26  1  0
 25 18  1  0
 27 25  2  0
M  END
$$$$
