HSH.pdb
     RDKit          3D

 27 28  0  0  1  0  0  0  0  0999 V2000
   20.0445  -12.8587  -16.8155 N   0  0  0  0  0  0  0  0  0  0  0  0
   19.2604  -11.7039  -16.4583 C   0  0  1  0  0  0  0  0  0  0  0  0
   18.0099  -12.1142  -15.7460 C   0  0  0  0  0  0  0  0  0  0  0  0
   17.3488  -13.1662  -16.5625 C   0  0  0  0  0  0  0  0  0  0  0  0
   16.3353  -14.0245  -16.1989 C   0  0  0  0  0  0  0  0  0  0  0  0
   16.0139  -14.8306  -17.2271 N   0  0  0  0  0  0  0  0  0  0  0  0
   16.8290  -14.4752  -18.2367 C   0  0  0  0  0  0  0  0  0  0  0  0
   17.6453  -13.4659  -17.8488 N   0  0  0  0  0  0  0  0  0  0  0  0
   20.1116  -10.7935  -15.6496 C   0  0  0  0  0  0  0  0  0  0  0  0
   19.6457  -10.0967  -14.7053 O   0  0  0  0  0  0  0  0  0  0  0  0
   24.2231  -10.1740  -16.5160 O   0  0  0  0  0  0  0  0  0  0  0  0
   23.8086  -10.0967  -15.1837 C   0  0  0  0  0  0  0  0  0  0  0  0
   22.3584   -9.7553  -15.1727 C   0  0  2  0  0  0  0  0  0  0  0  0
   21.5166  -10.6488  -15.8905 N   0  0  0  0  0  0  0  0  0  0  0  0
   22.1370   -8.3318  -15.6109 C   0  0  0  0  0  0  0  0  0  0  0  0
   21.8193   -8.0500  -16.7888 O   0  0  0  0  0  0  0  0  0  0  0  0
   22.2812   -7.2513  -14.7001 N   0  0  0  0  0  0  0  0  0  0  0  0
   22.0221   -5.8631  -15.0745 C   0  0  1  0  0  0  0  0  0  0  0  0
   20.6111   -5.6643  -15.5063 C   0  0  0  0  0  0  0  0  0  0  0  0
   20.3318   -4.2566  -15.8470 C   0  0  0  0  0  0  0  0  0  0  0  0
   20.6233   -3.5500  -17.0184 C   0  0  0  0  0  0  0  0  0  0  0  0
   20.2087   -2.2738  -16.8960 N   0  0  0  0  0  0  0  0  0  0  0  0
   19.6634   -2.1556  -15.6794 C   0  0  0  0  0  0  0  0  0  0  0  0
   19.7333   -3.3358  -15.0469 N   0  0  0  0  0  0  0  0  0  0  0  0
   22.4616   -4.9294  -14.0263 C   0  0  0  0  0  0  0  0  0  0  0  0
   22.6627   -3.6027  -14.2841 O   0  0  0  0  0  0  0  0  0  0  0  0
   22.6560   -5.3695  -12.8701 O   0  0  0  0  0  0  0  0  0  0  0  0
  2  1  1  1
  3  2  1  0
  3  4  1  0
  4  8  1  0
  5  4  2  0
  5  6  1  0
  6  7  1  0
  8  7  2  0
  9  2  1  0
  9 10  2  0
 11 12  1  0
 13 12  1  6
 13 15  1  0
 13 14  1  0
 14  9  1  0
 15 17  1  0
 16 15  2  0
 17 18  1  0
 18 19  1  1
 19 20  1  0
 20 21  2  0
 20 24  1  0
 21 22  1  0
 22 23  1  0
 24 23  2  0
 25 26  1  0
 25 18  1  0
 27 25  2  0
M  END
$$$$
