HSH.pdb
     RDKit          3D

 27 28  0  0  1  0  0  0  0  0999 V2000
   24.8664  -14.5466  -20.3993 N   0  0  0  0  0  0  0  0  0  0  0  0
   23.5654  -14.1863  -19.8957 C   0  0  1  0  0  0  0  0  0  0  0  0
   23.1252  -15.1462  -18.8353 C   0  0  0  0  0  0  0  0  0  0  0  0
   22.8731  -16.4576  -19.4887 C   0  0  0  0  0  0  0  0  0  0  0  0
   23.5642  -17.6389  -19.3375 C   0  0  0  0  0  0  0  0  0  0  0  0
   23.0205  -18.6004  -20.1056 N   0  0  0  0  0  0  0  0  0  0  0  0
   21.9862  -18.0184  -20.7392 C   0  0  0  0  0  0  0  0  0  0  0  0
   21.8837  -16.7175  -20.3752 N   0  0  0  0  0  0  0  0  0  0  0  0
   23.6238  -12.7823  -19.4134 C   0  0  0  0  0  0  0  0  0  0  0  0
   24.3575  -12.4313  -18.4476 O   0  0  0  0  0  0  0  0  0  0  0  0
   21.0319   -9.6822  -20.8463 O   0  0  0  0  0  0  0  0  0  0  0  0
   22.3668   -9.3856  -20.5585 C   0  0  0  0  0  0  0  0  0  0  0  0
   22.8569  -10.3863  -19.5695 C   0  0  2  0  0  0  0  0  0  0  0  0
   22.8501  -11.7368  -20.0145 N   0  0  0  0  0  0  0  0  0  0  0  0
   22.1336  -10.2444  -18.2564 C   0  0  0  0  0  0  0  0  0  0  0  0
   21.1290  -10.9400  -17.9825 O   0  0  0  0  0  0  0  0  0  0  0  0
   22.5660   -9.3122  -17.2757 N   0  0  0  0  0  0  0  0  0  0  0  0
   21.8828   -9.1383  -15.9961 C   0  0  1  0  0  0  0  0  0  0  0  0
   22.7660   -9.4872  -14.8494 C   0  0  0  0  0  0  0  0  0  0  0  0
   22.0759   -9.3329  -13.5549 C   0  0  0  0  0  0  0  0  0  0  0  0
   20.7564   -8.9520  -13.2900 C   0  0  0  0  0  0  0  0  0  0  0  0
   20.5500   -8.9198  -11.9588 N   0  0  0  0  0  0  0  0  0  0  0  0
   21.7030   -9.2700  -11.3764 C   0  0  0  0  0  0  0  0  0  0  0  0
   22.6192   -9.5183  -12.3234 N   0  0  0  0  0  0  0  0  0  0  0  0
   21.2656   -7.8074  -15.8893 C   0  0  0  0  0  0  0  0  0  0  0  0
   20.1067   -7.6065  -15.1939 O   0  0  0  0  0  0  0  0  0  0  0  0
   21.8216   -6.8380  -16.4545 O   0  0  0  0  0  0  0  0  0  0  0  0
  2  1  1  1
  3  2  1  0
  3  4  1  0
  4  8  1  0
  5  4  2  0
  5  6  1  0
  6  7  1  0
  8  7  2  0
  9  2  1  0
  9 10  2  0
 11 12  1  0
 13 12  1  6
 13 15  1  0
 13 14  1  0
 14  9  1  0
 15 17  1  0
 16 15  2  0
 17 18  1  0
 18 19  1  1
 19 20  1  0
 20 21  2  0
 20 24  1  0
 21 22  1  0
 22 23  1  0
 24 23  2  0
 25 26  1  0
 25 18  1  0
 27 25  2  0
M  END
$$$$
