HSH.pdb
     RDKit          3D

 27 28  0  0  1  0  0  0  0  0999 V2000
   22.9048  -19.8677   12.1086 N   0  0  0  0  0  0  0  0  0  0  0  0
   23.1394  -20.6872   10.9470 C   0  0  1  0  0  0  0  0  0  0  0  0
   24.1113  -20.0253   10.0212 C   0  0  0  0  0  0  0  0  0  0  0  0
   23.4139  -18.8823    9.3751 C   0  0  0  0  0  0  0  0  0  0  0  0
   23.6388  -17.5342    9.5422 C   0  0  0  0  0  0  0  0  0  0  0  0
   22.7942  -16.8206    8.7757 N   0  0  0  0  0  0  0  0  0  0  0  0
   22.0387  -17.7255    8.1272 C   0  0  0  0  0  0  0  0  0  0  0  0
   22.4029  -18.9817    8.4805 N   0  0  0  0  0  0  0  0  0  0  0  0
   23.5983  -22.0244   11.4039 C   0  0  0  0  0  0  0  0  0  0  0  0
   24.4357  -22.1667   12.3381 O   0  0  0  0  0  0  0  0  0  0  0  0
   22.9460  -26.6836   11.9398 O   0  0  0  0  0  0  0  0  0  0  0  0
   22.4398  -25.5552   11.2893 C   0  0  0  0  0  0  0  0  0  0  0  0
   23.5258  -24.5374   11.2228 C   0  0  2  0  0  0  0  0  0  0  0  0
   23.1190  -23.2381   10.8123 N   0  0  0  0  0  0  0  0  0  0  0  0
   24.6782  -25.0332   10.3900 C   0  0  0  0  0  0  0  0  0  0  0  0
   24.7823  -24.7442    9.1761 O   0  0  0  0  0  0  0  0  0  0  0  0
   25.6942  -25.8507   10.9532 N   0  0  0  0  0  0  0  0  0  0  0  0
   26.8350  -26.3370   10.1807 C   0  0  1  0  0  0  0  0  0  0  0  0
   28.1284  -25.9775   10.8246 C   0  0  0  0  0  0  0  0  0  0  0  0
   28.5254  -24.5885   10.5266 C   0  0  0  0  0  0  0  0  0  0  0  0
   27.9919  -23.6908    9.5961 C   0  0  0  0  0  0  0  0  0  0  0  0
   28.6731  -22.5291    9.6412 N   0  0  0  0  0  0  0  0  0  0  0  0
   29.6219  -22.6690   10.5747 C   0  0  0  0  0  0  0  0  0  0  0  0
   29.5400  -23.8965   11.1080 N   0  0  0  0  0  0  0  0  0  0  0  0
   26.7038  -27.7677    9.8653 C   0  0  0  0  0  0  0  0  0  0  0  0
   27.5168  -28.3800    8.9537 O   0  0  0  0  0  0  0  0  0  0  0  0
   25.8206  -28.4354   10.4505 O   0  0  0  0  0  0  0  0  0  0  0  0
  2  1  1  1
  3  2  1  0
  3  4  1  0
  4  8  1  0
  5  4  2  0
  5  6  1  0
  6  7  1  0
  8  7  2  0
  9  2  1  0
  9 10  2  0
 11 12  1  0
 13 12  1  6
 13 15  1  0
 13 14  1  0
 14  9  1  0
 15 17  1  0
 16 15  2  0
 17 18  1  0
 18 19  1  1
 19 20  1  0
 20 21  2  0
 20 24  1  0
 21 22  1  0
 22 23  1  0
 24 23  2  0
 25 26  1  0
 25 18  1  0
 27 25  2  0
M  END
$$$$
