QID.pdb
     RDKit          3D

 26 25  0  0  1  0  0  0  0  0999 V2000
    9.2648  -19.8826   18.3955 N   0  0  0  0  0  0  0  0  0  0  0  0
   10.0932  -19.6534   17.2351 C   0  0  0  0  0  0  0  0  0  0  0  0
   10.9341  -20.5262   16.9868 O   0  0  0  0  0  0  0  0  0  0  0  0
    9.8569  -18.4394   16.4947 C   0  0  0  0  0  0  0  0  0  0  0  0
    8.7215  -17.5665   16.8583 C   0  0  0  0  0  0  0  0  0  0  0  0
    8.7498  -16.1561   16.3947 C   0  0  2  0  0  0  0  0  0  0  0  0
    9.4012  -16.0422   15.1301 N   0  0  0  0  0  0  0  0  0  0  0  0
    9.5591  -15.3730   17.3841 C   0  0  0  0  0  0  0  0  0  0  0  0
   10.7374  -15.0930   17.0622 O   0  0  0  0  0  0  0  0  0  0  0  0
    7.0084  -12.8212   21.7144 C   0  0  0  0  0  0  0  0  0  0  0  0
    7.8354  -13.8744   21.0043 C   0  0  0  0  0  0  0  0  0  0  0  0
    8.9143  -13.1791   20.2289 C   0  0  2  0  0  0  0  0  0  0  0  0
    8.2240  -12.3680   19.1356 C   0  0  0  0  0  0  0  0  0  0  0  0
    9.8529  -14.1270   19.5474 C   0  0  2  0  0  0  0  0  0  0  0  0
    9.0652  -14.9462   18.6363 N   0  0  0  0  0  0  0  0  0  0  0  0
   10.6035  -14.9827   20.4848 C   0  0  0  0  0  0  0  0  0  0  0  0
   11.3420  -14.4326   21.3495 O   0  0  0  0  0  0  0  0  0  0  0  0
   10.5614  -16.3848   20.4922 N   0  0  0  0  0  0  0  0  0  0  0  0
   11.3135  -17.2107   21.4239 C   0  0  1  0  0  0  0  0  0  0  0  0
   10.9675  -18.6493   21.3394 C   0  0  0  0  0  0  0  0  0  0  0  0
    9.5439  -18.8573   21.6649 C   0  0  0  0  0  0  0  0  0  0  0  0
    9.0369  -18.3889   22.7141 O   0  0  0  0  0  0  0  0  0  0  0  0
   12.7661  -17.0007   21.2869 C   0  0  0  0  0  0  0  0  0  0  0  0
   13.2482  -16.4748   20.0752 O   0  0  0  0  0  0  0  0  0  0  0  0
    8.7180  -19.5806   20.8166 O   0  0  0  0  0  0  0  0  0  0  0  0
   13.5787  -17.2666   22.1899 O   0  0  0  0  0  0  0  0  0  0  0  0
  1  2  1  0
  2  4  1  0
  2  3  2  0
  4  5  1  0
  5  6  1  0
  6  8  1  0
  6  7  1  6
  8  9  2  0
 11 10  1  0
 12 11  1  0
 12 14  1  0
 12 13  1  6
 14 15  1  6
 15  8  1  0
 16 17  2  0
 16 14  1  0
 18 16  1  0
 19 18  1  0
 19 23  1  0
 19 20  1  6
 21 20  1  0
 22 21  2  0
 23 24  1  0
 25 21  1  0
 26 23  2  0
M  END
$$$$
