QID.pdb
     RDKit          3D

 26 25  0  0  1  0  0  0  0  0999 V2000
    8.6427  -17.6987   18.8467 N   0  0  0  0  0  0  0  0  0  0  0  0
    7.2420  -17.4543   18.5943 C   0  0  0  0  0  0  0  0  0  0  0  0
    6.7757  -17.9713   17.5717 O   0  0  0  0  0  0  0  0  0  0  0  0
    6.5397  -16.6377   19.5523 C   0  0  0  0  0  0  0  0  0  0  0  0
    7.2407  -16.1552   20.7602 C   0  0  0  0  0  0  0  0  0  0  0  0
    7.0430  -14.7397   21.1628 C   0  0  2  0  0  0  0  0  0  0  0  0
    7.5424  -13.8464   20.1682 N   0  0  0  0  0  0  0  0  0  0  0  0
    7.8434  -14.5099   22.4092 C   0  0  0  0  0  0  0  0  0  0  0  0
    9.0613  -14.2522   22.2651 O   0  0  0  0  0  0  0  0  0  0  0  0
    5.8669  -11.6748   26.4544 C   0  0  0  0  0  0  0  0  0  0  0  0
    6.8611  -12.2341   25.4563 C   0  0  0  0  0  0  0  0  0  0  0  0
    7.2380  -13.6176   25.8951 C   0  0  2  0  0  0  0  0  0  0  0  0
    8.0534  -13.4709   27.1771 C   0  0  0  0  0  0  0  0  0  0  0  0
    8.1022  -14.3343   24.9034 C   0  0  2  0  0  0  0  0  0  0  0  0
    7.2996  -14.5704   23.7110 N   0  0  0  0  0  0  0  0  0  0  0  0
    8.6467  -15.6063   25.4130 C   0  0  0  0  0  0  0  0  0  0  0  0
    7.8416  -16.5249   25.7350 O   0  0  0  0  0  0  0  0  0  0  0  0
   10.0131  -15.8817   25.5713 N   0  0  0  0  0  0  0  0  0  0  0  0
   10.5296  -17.1472   26.0691 C   0  0  1  0  0  0  0  0  0  0  0  0
   11.9567  -17.3669   25.7350 C   0  0  0  0  0  0  0  0  0  0  0  0
   12.1133  -17.6358   24.2931 C   0  0  0  0  0  0  0  0  0  0  0  0
   13.2467  -17.7959   23.7761 O   0  0  0  0  0  0  0  0  0  0  0  0
   10.2885  -17.3024   27.5150 C   0  0  0  0  0  0  0  0  0  0  0  0
   10.1849  -18.6052   28.0334 O   0  0  0  0  0  0  0  0  0  0  0  0
   11.0069  -17.7203   23.4604 O   0  0  0  0  0  0  0  0  0  0  0  0
   10.1735  -16.3378   28.2915 O   0  0  0  0  0  0  0  0  0  0  0  0
  1  2  1  0
  2  4  1  0
  2  3  2  0
  4  5  1  0
  5  6  1  0
  6  8  1  0
  6  7  1  6
  8  9  2  0
 11 10  1  0
 12 11  1  0
 12 14  1  0
 12 13  1  1
 14 15  1  6
 15  8  1  0
 16 17  2  0
 16 14  1  0
 18 16  1  0
 19 18  1  0
 19 23  1  0
 19 20  1  1
 21 20  1  0
 22 21  2  0
 23 24  1  0
 25 21  1  0
 26 23  2  0
M  END
$$$$
