QID.pdb
     RDKit          3D

 26 25  0  0  1  0  0  0  0  0999 V2000
    9.4551  -16.7931   17.8266 N   0  0  0  0  0  0  0  0  0  0  0  0
    8.0826  -16.4612   18.1290 C   0  0  0  0  0  0  0  0  0  0  0  0
    7.2210  -17.1549   17.5753 O   0  0  0  0  0  0  0  0  0  0  0  0
    7.8622  -15.3627   19.0359 C   0  0  0  0  0  0  0  0  0  0  0  0
    8.6088  -15.3004   20.3094 C   0  0  0  0  0  0  0  0  0  0  0  0
    8.0105  -15.9532   21.5014 C   0  0  2  0  0  0  0  0  0  0  0  0
    6.6040  -15.7201   21.5651 N   0  0  0  0  0  0  0  0  0  0  0  0
    8.6215  -15.3209   22.7155 C   0  0  0  0  0  0  0  0  0  0  0  0
    9.7952  -14.8954   22.6070 O   0  0  0  0  0  0  0  0  0  0  0  0
    6.1332  -12.0245   25.9402 C   0  0  0  0  0  0  0  0  0  0  0  0
    7.2149  -12.7239   25.1412 C   0  0  0  0  0  0  0  0  0  0  0  0
    7.7031  -13.8960   25.9390 C   0  0  2  0  0  0  0  0  0  0  0  0
    8.4912  -13.3336   27.1191 C   0  0  0  0  0  0  0  0  0  0  0  0
    8.6341  -14.7835   25.1711 C   0  0  2  0  0  0  0  0  0  0  0  0
    7.9495  -15.1867   23.9502 N   0  0  0  0  0  0  0  0  0  0  0  0
    9.0691  -15.9710   25.9291 C   0  0  0  0  0  0  0  0  0  0  0  0
    8.1915  -16.7737   26.3548 O   0  0  0  0  0  0  0  0  0  0  0  0
   10.4049  -16.2855   26.2199 N   0  0  0  0  0  0  0  0  0  0  0  0
   10.8169  -17.4935   26.9178 C   0  0  1  0  0  0  0  0  0  0  0  0
   12.1799  -17.9442   26.5495 C   0  0  0  0  0  0  0  0  0  0  0  0
   12.2945  -18.0985   25.0870 C   0  0  0  0  0  0  0  0  0  0  0  0
   11.3534  -18.5712   24.4027 O   0  0  0  0  0  0  0  0  0  0  0  0
   10.6762  -17.3529   28.3784 C   0  0  0  0  0  0  0  0  0  0  0  0
   10.4841  -16.0632   28.9045 O   0  0  0  0  0  0  0  0  0  0  0  0
   13.4520  -17.7237   24.4202 O   0  0  0  0  0  0  0  0  0  0  0  0
   10.7196  -18.3186   29.1607 O   0  0  0  0  0  0  0  0  0  0  0  0
  1  2  1  0
  2  4  1  0
  2  3  2  0
  4  5  1  0
  5  6  1  0
  6  8  1  0
  6  7  1  1
  8  9  2  0
 11 10  1  0
 12 11  1  0
 12 14  1  0
 12 13  1  1
 14 15  1  6
 15  8  1  0
 16 17  2  0
 16 14  1  0
 18 16  1  0
 19 18  1  0
 19 23  1  0
 19 20  1  1
 21 20  1  0
 22 21  2  0
 23 24  1  0
 25 21  1  0
 26 23  2  0
M  END
$$$$
