QID.pdb
     RDKit          3D

 26 25  0  0  1  0  0  0  0  0999 V2000
    5.8100  -17.7171   18.6950 N   0  0  0  0  0  0  0  0  0  0  0  0
    7.1656  -17.9888   19.1119 C   0  0  0  0  0  0  0  0  0  0  0  0
    7.4147  -19.1604   19.4211 O   0  0  0  0  0  0  0  0  0  0  0  0
    8.0792  -16.8738   19.1262 C   0  0  0  0  0  0  0  0  0  0  0  0
    8.5395  -16.3179   20.4155 C   0  0  0  0  0  0  0  0  0  0  0  0
    7.6207  -15.4144   21.1533 C   0  0  2  0  0  0  0  0  0  0  0  0
    7.4616  -14.1715   20.4704 N   0  0  0  0  0  0  0  0  0  0  0  0
    8.2519  -15.1155   22.4798 C   0  0  0  0  0  0  0  0  0  0  0  0
    9.4938  -15.2590   22.5652 O   0  0  0  0  0  0  0  0  0  0  0  0
    6.1029  -11.4205   25.8636 C   0  0  0  0  0  0  0  0  0  0  0  0
    7.1026  -12.2152   25.0471 C   0  0  0  0  0  0  0  0  0  0  0  0
    7.2773  -13.5559   25.6957 C   0  0  2  0  0  0  0  0  0  0  0  0
    7.9652  -13.3148   27.0369 C   0  0  0  0  0  0  0  0  0  0  0  0
    8.1568  -14.4794   24.9098 C   0  0  2  0  0  0  0  0  0  0  0  0
    7.5261  -14.6897   23.6137 N   0  0  0  0  0  0  0  0  0  0  0  0
    8.3940  -15.7719   25.5784 C   0  0  0  0  0  0  0  0  0  0  0  0
    7.3979  -16.4679   25.9237 O   0  0  0  0  0  0  0  0  0  0  0  0
    9.6616  -16.2993   25.8666 N   0  0  0  0  0  0  0  0  0  0  0  0
    9.8757  -17.6137   26.4518 C   0  0  1  0  0  0  0  0  0  0  0  0
   10.3256  -18.6251   25.4664 C   0  0  0  0  0  0  0  0  0  0  0  0
   11.7968  -18.7327   25.4730 C   0  0  0  0  0  0  0  0  0  0  0  0
   12.4890  -18.1908   26.3700 O   0  0  0  0  0  0  0  0  0  0  0  0
   10.7863  -17.5522   27.6093 C   0  0  0  0  0  0  0  0  0  0  0  0
   10.9385  -18.7083   28.3949 O   0  0  0  0  0  0  0  0  0  0  0  0
   12.4633  -19.4398   24.4828 O   0  0  0  0  0  0  0  0  0  0  0  0
   11.4219  -16.5292   27.9195 O   0  0  0  0  0  0  0  0  0  0  0  0
  1  2  1  0
  2  4  1  0
  2  3  2  0
  4  5  1  0
  5  6  1  0
  6  8  1  0
  6  7  1  6
  8  9  2  0
 11 10  1  0
 12 11  1  0
 12 14  1  0
 12 13  1  1
 14 15  1  6
 15  8  1  0
 16 17  2  0
 16 14  1  0
 18 16  1  0
 19 18  1  0
 19 23  1  0
 19 20  1  6
 21 20  1  0
 22 21  2  0
 23 24  1  0
 25 21  1  0
 26 23  2  0
M  END
$$$$
