QID.pdb
     RDKit          3D

 26 25  0  0  1  0  0  0  0  0999 V2000
    6.8447  -19.3480   20.8117 N   0  0  0  0  0  0  0  0  0  0  0  0
    6.1115  -18.5696   19.8412 C   0  0  0  0  0  0  0  0  0  0  0  0
    5.4872  -19.2125   18.9885 O   0  0  0  0  0  0  0  0  0  0  0  0
    6.1856  -17.1354   19.9655 C   0  0  0  0  0  0  0  0  0  0  0  0
    6.9420  -16.5330   21.0827 C   0  0  0  0  0  0  0  0  0  0  0  0
    6.9565  -15.0526   21.1972 C   0  0  2  0  0  0  0  0  0  0  0  0
    7.6054  -14.4552   20.0753 N   0  0  0  0  0  0  0  0  0  0  0  0
    7.7595  -14.7027   22.4136 C   0  0  0  0  0  0  0  0  0  0  0  0
    9.0045  -14.6523   22.2796 O   0  0  0  0  0  0  0  0  0  0  0  0
    5.9217  -11.2540   26.1558 C   0  0  0  0  0  0  0  0  0  0  0  0
    6.8677  -11.9619   25.2062 C   0  0  0  0  0  0  0  0  0  0  0  0
    7.1852  -13.3106   25.7797 C   0  0  2  0  0  0  0  0  0  0  0  0
    8.0256  -13.0749   27.0319 C   0  0  0  0  0  0  0  0  0  0  0  0
    7.9998  -14.1649   24.8574 C   0  0  2  0  0  0  0  0  0  0  0  0
    7.1894  -14.4340   23.6773 N   0  0  0  0  0  0  0  0  0  0  0  0
    8.4445  -15.4297   25.4711 C   0  0  0  0  0  0  0  0  0  0  0  0
    7.5780  -16.3044   25.7535 O   0  0  0  0  0  0  0  0  0  0  0  0
    9.7783  -15.7439   25.7716 N   0  0  0  0  0  0  0  0  0  0  0  0
   10.2371  -17.0831   26.1061 C   0  0  1  0  0  0  0  0  0  0  0  0
   11.4405  -17.4948   25.3454 C   0  0  0  0  0  0  0  0  0  0  0  0
   11.9425  -18.7919   25.8368 C   0  0  0  0  0  0  0  0  0  0  0  0
   11.2198  -19.5564   26.5228 O   0  0  0  0  0  0  0  0  0  0  0  0
   10.4412  -17.2417   27.5574 C   0  0  0  0  0  0  0  0  0  0  0  0
   10.5589  -18.5452   28.0714 O   0  0  0  0  0  0  0  0  0  0  0  0
   13.2354  -19.2082   25.5541 O   0  0  0  0  0  0  0  0  0  0  0  0
   10.5134  -16.2796   28.3420 O   0  0  0  0  0  0  0  0  0  0  0  0
  1  2  1  0
  2  4  1  0
  2  3  2  0
  4  5  1  0
  5  6  1  0
  6  8  1  0
  6  7  1  6
  8  9  2  0
 11 10  1  0
 12 11  1  0
 12 14  1  0
 12 13  1  1
 14 15  1  6
 15  8  1  0
 16 17  2  0
 16 14  1  0
 18 16  1  0
 19 18  1  0
 19 23  1  0
 19 20  1  6
 21 20  1  0
 22 21  2  0
 23 24  1  0
 25 21  1  0
 26 23  2  0
M  END
$$$$
