QID.pdb
     RDKit          3D

 26 25  0  0  1  0  0  0  0  0999 V2000
    5.7585  -18.5324   24.2121 N   0  0  0  0  0  0  0  0  0  0  0  0
    6.6941  -18.8310   23.1535 C   0  0  0  0  0  0  0  0  0  0  0  0
    7.3602  -19.8642   23.2923 O   0  0  0  0  0  0  0  0  0  0  0  0
    6.7551  -17.8994   22.0552 C   0  0  0  0  0  0  0  0  0  0  0  0
    5.9088  -16.6884   22.0714 C   0  0  0  0  0  0  0  0  0  0  0  0
    6.5537  -15.3828   21.7808 C   0  0  2  0  0  0  0  0  0  0  0  0
    7.3287  -15.4458   20.5842 N   0  0  0  0  0  0  0  0  0  0  0  0
    7.4976  -15.0861   22.9070 C   0  0  0  0  0  0  0  0  0  0  0  0
    8.7210  -15.2334   22.6790 O   0  0  0  0  0  0  0  0  0  0  0  0
    5.9545  -11.4692   26.6636 C   0  0  0  0  0  0  0  0  0  0  0  0
    6.8497  -12.1534   25.6498 C   0  0  0  0  0  0  0  0  0  0  0  0
    7.3069  -13.4572   26.2327 C   0  0  2  0  0  0  0  0  0  0  0  0
    8.3017  -13.1241   27.3414 C   0  0  0  0  0  0  0  0  0  0  0  0
    8.0242  -14.3243   25.2438 C   0  0  2  0  0  0  0  0  0  0  0  0
    7.0799  -14.6583   24.1862 N   0  0  0  0  0  0  0  0  0  0  0  0
    8.5811  -15.5532   25.8387 C   0  0  0  0  0  0  0  0  0  0  0  0
    7.7841  -16.4282   26.2801 O   0  0  0  0  0  0  0  0  0  0  0  0
    9.9509  -15.8323   25.9550 N   0  0  0  0  0  0  0  0  0  0  0  0
   10.4792  -17.0596   26.5299 C   0  0  1  0  0  0  0  0  0  0  0  0
   11.8557  -17.3708   26.0773 C   0  0  0  0  0  0  0  0  0  0  0  0
   11.8557  -17.7560   24.6534 C   0  0  0  0  0  0  0  0  0  0  0  0
   10.8094  -18.1511   24.0819 O   0  0  0  0  0  0  0  0  0  0  0  0
   10.3879  -17.0547   28.0012 C   0  0  0  0  0  0  0  0  0  0  0  0
   10.3947  -18.2916   28.6697 O   0  0  0  0  0  0  0  0  0  0  0  0
   13.0182  -17.6927   23.8988 O   0  0  0  0  0  0  0  0  0  0  0  0
   10.3058  -16.0113   28.6728 O   0  0  0  0  0  0  0  0  0  0  0  0
  1  2  1  0
  2  4  1  0
  2  3  2  0
  4  5  1  0
  5  6  1  0
  6  8  1  0
  6  7  1  6
  8  9  2  0
 11 10  1  0
 12 11  1  0
 12 14  1  0
 12 13  1  1
 14 15  1  6
 15  8  1  0
 16 17  2  0
 16 14  1  0
 18 16  1  0
 19 18  1  0
 19 23  1  0
 19 20  1  1
 21 20  1  0
 22 21  2  0
 23 24  1  0
 25 21  1  0
 26 23  2  0
M  END
$$$$
