QID.pdb
     RDKit          3D

 26 25  0  0  1  0  0  0  0  0999 V2000
    7.5416  -20.7429   20.4355 N   0  0  0  0  0  0  0  0  0  0  0  0
    7.8462  -21.2836   19.1316 C   0  0  0  0  0  0  0  0  0  0  0  0
    8.2448  -22.4544   19.1083 O   0  0  0  0  0  0  0  0  0  0  0  0
    7.6574  -20.4078   18.0023 C   0  0  0  0  0  0  0  0  0  0  0  0
    7.1099  -19.0510   18.2085 C   0  0  0  0  0  0  0  0  0  0  0  0
    7.7996  -17.9130   17.5494 C   0  0  2  0  0  0  0  0  0  0  0  0
    8.7283  -18.3719   16.5677 N   0  0  0  0  0  0  0  0  0  0  0  0
    8.5858  -17.1919   18.6025 C   0  0  0  0  0  0  0  0  0  0  0  0
    9.8264  -17.3688   18.6088 O   0  0  0  0  0  0  0  0  0  0  0  0
    6.8084  -12.2934   20.2122 C   0  0  0  0  0  0  0  0  0  0  0  0
    7.7678  -13.3671   19.7388 C   0  0  0  0  0  0  0  0  0  0  0  0
    7.9744  -14.3393   20.8618 C   0  0  2  0  0  0  0  0  0  0  0  0
    8.7384  -13.5988   21.9562 C   0  0  0  0  0  0  0  0  0  0  0  0
    8.8044  -15.5231   20.4696 C   0  0  2  0  0  0  0  0  0  0  0  0
    8.0045  -16.3412   19.5682 N   0  0  0  0  0  0  0  0  0  0  0  0
    9.2595  -16.3256   21.6198 C   0  0  0  0  0  0  0  0  0  0  0  0
    8.4113  -17.0177   22.2501 O   0  0  0  0  0  0  0  0  0  0  0  0
   10.5843  -16.3822   22.0777 N   0  0  0  0  0  0  0  0  0  0  0  0
   11.0224  -17.2223   23.1814 C   0  0  1  0  0  0  0  0  0  0  0  0
   12.4622  -17.5674   23.1165 C   0  0  0  0  0  0  0  0  0  0  0  0
   12.8712  -18.3035   24.3276 C   0  0  0  0  0  0  0  0  0  0  0  0
   13.0963  -17.7088   25.4106 O   0  0  0  0  0  0  0  0  0  0  0  0
   10.6716  -16.6331   24.4863 C   0  0  0  0  0  0  0  0  0  0  0  0
   10.5198  -17.4979   25.5845 O   0  0  0  0  0  0  0  0  0  0  0  0
   13.0201  -19.6828   24.3061 O   0  0  0  0  0  0  0  0  0  0  0  0
   10.5052  -15.4126   24.6574 O   0  0  0  0  0  0  0  0  0  0  0  0
  1  2  1  0
  2  4  1  0
  2  3  2  0
  4  5  1  0
  5  6  1  0
  6  8  1  0
  6  7  1  6
  8  9  2  0
 11 10  1  0
 12 11  1  0
 12 14  1  0
 12 13  1  1
 14 15  1  6
 15  8  1  0
 16 17  2  0
 16 14  1  0
 18 16  1  0
 19 18  1  0
 19 23  1  0
 19 20  1  1
 21 20  1  0
 22 21  2  0
 23 24  1  0
 25 21  1  0
 26 23  2  0
M  END
$$$$
