QID.pdb
     RDKit          3D

 26 25  0  0  1  0  0  0  0  0999 V2000
    8.3216  -12.1881   18.4737 N   0  0  0  0  0  0  0  0  0  0  0  0
    7.8703  -13.4595   17.9588 C   0  0  0  0  0  0  0  0  0  0  0  0
    7.6198  -13.4974   16.7479 O   0  0  0  0  0  0  0  0  0  0  0  0
    7.7575  -14.5426   18.9032 C   0  0  0  0  0  0  0  0  0  0  0  0
    8.0417  -14.3028   20.3332 C   0  0  0  0  0  0  0  0  0  0  0  0
    7.9808  -15.4612   21.2603 C   0  0  2  0  0  0  0  0  0  0  0  0
    6.6302  -15.8358   21.5287 N   0  0  0  0  0  0  0  0  0  0  0  0
    8.5895  -15.0300   22.5605 C   0  0  0  0  0  0  0  0  0  0  0  0
    9.7818  -14.6451   22.5318 O   0  0  0  0  0  0  0  0  0  0  0  0
    5.9921  -12.0736   25.9707 C   0  0  0  0  0  0  0  0  0  0  0  0
    7.1809  -12.6379   25.2184 C   0  0  0  0  0  0  0  0  0  0  0  0
    7.5829  -13.9249   25.8747 C   0  0  2  0  0  0  0  0  0  0  0  0
    8.2950  -13.5581   27.1740 C   0  0  0  0  0  0  0  0  0  0  0  0
    8.5472  -14.7267   25.0555 C   0  0  2  0  0  0  0  0  0  0  0  0
    7.8959  -15.0385   23.7905 N   0  0  0  0  0  0  0  0  0  0  0  0
    8.9913  -15.9655   25.7206 C   0  0  0  0  0  0  0  0  0  0  0  0
    8.1195  -16.8024   26.0885 O   0  0  0  0  0  0  0  0  0  0  0  0
   10.3299  -16.2941   25.9816 N   0  0  0  0  0  0  0  0  0  0  0  0
   10.7571  -17.5773   26.5172 C   0  0  1  0  0  0  0  0  0  0  0  0
   12.0668  -18.0242   25.9869 C   0  0  0  0  0  0  0  0  0  0  0  0
   12.4527  -19.3154   26.5869 C   0  0  0  0  0  0  0  0  0  0  0  0
   11.7077  -20.3233   26.5070 O   0  0  0  0  0  0  0  0  0  0  0  0
   10.7467  -17.5823   27.9913 C   0  0  0  0  0  0  0  0  0  0  0  0
   10.6844  -16.3458   28.6577 O   0  0  0  0  0  0  0  0  0  0  0  0
   13.6572  -19.4554   27.2611 O   0  0  0  0  0  0  0  0  0  0  0  0
   10.7904  -18.6254   28.6669 O   0  0  0  0  0  0  0  0  0  0  0  0
  1  2  1  0
  2  4  1  0
  2  3  2  0
  4  5  1  0
  5  6  1  0
  6  8  1  0
  6  7  1  1
  8  9  2  0
 11 10  1  0
 12 11  1  0
 12 14  1  0
 12 13  1  1
 14 15  1  6
 15  8  1  0
 16 17  2  0
 16 14  1  0
 18 16  1  0
 19 18  1  0
 19 23  1  0
 19 20  1  1
 21 20  1  0
 22 21  2  0
 23 24  1  0
 25 21  1  0
 26 23  2  0
M  END
$$$$
