QID.pdb
     RDKit          3D

 26 25  0  0  1  0  0  0  0  0999 V2000
    9.3527  -12.7580   18.6932 N   0  0  0  0  0  0  0  0  0  0  0  0
    8.0807  -13.2608   18.2300 C   0  0  0  0  0  0  0  0  0  0  0  0
    7.9154  -13.2740   17.0041 O   0  0  0  0  0  0  0  0  0  0  0  0
    7.1430  -13.6892   19.2374 C   0  0  0  0  0  0  0  0  0  0  0  0
    7.5221  -13.6347   20.6645 C   0  0  0  0  0  0  0  0  0  0  0  0
    7.7113  -14.9190   21.3854 C   0  0  2  0  0  0  0  0  0  0  0  0
    6.4589  -15.5468   21.6574 N   0  0  0  0  0  0  0  0  0  0  0  0
    8.3474  -14.6048   22.7060 C   0  0  0  0  0  0  0  0  0  0  0  0
    9.4298  -13.9737   22.6815 O   0  0  0  0  0  0  0  0  0  0  0  0
    6.0704  -12.0268   26.3619 C   0  0  0  0  0  0  0  0  0  0  0  0
    7.1723  -12.6225   25.5083 C   0  0  0  0  0  0  0  0  0  0  0  0
    7.5454  -13.9546   26.0872 C   0  0  2  0  0  0  0  0  0  0  0  0
    8.2816  -13.6803   27.3959 C   0  0  0  0  0  0  0  0  0  0  0  0
    8.4781  -14.7354   25.2129 C   0  0  2  0  0  0  0  0  0  0  0  0
    7.7948  -14.9804   23.9500 N   0  0  0  0  0  0  0  0  0  0  0  0
    8.9145  -16.0094   25.8134 C   0  0  0  0  0  0  0  0  0  0  0  0
    8.0361  -16.8469   26.1639 O   0  0  0  0  0  0  0  0  0  0  0  0
   10.2524  -16.3714   26.0299 N   0  0  0  0  0  0  0  0  0  0  0  0
   10.6596  -17.6022   26.6897 C   0  0  1  0  0  0  0  0  0  0  0  0
   12.0589  -17.9888   26.3918 C   0  0  0  0  0  0  0  0  0  0  0  0
   12.1616  -18.5436   25.0288 C   0  0  0  0  0  0  0  0  0  0  0  0
   11.4943  -18.0688   24.0766 O   0  0  0  0  0  0  0  0  0  0  0  0
   10.4177  -17.5462   28.1428 C   0  0  0  0  0  0  0  0  0  0  0  0
   10.7220  -16.3520   28.8197 O   0  0  0  0  0  0  0  0  0  0  0  0
   13.0033  -19.6124   24.7568 O   0  0  0  0  0  0  0  0  0  0  0  0
    9.9592  -18.5027   28.7920 O   0  0  0  0  0  0  0  0  0  0  0  0
  1  2  1  0
  2  4  1  0
  2  3  2  0
  4  5  1  0
  5  6  1  0
  6  8  1  0
  6  7  1  1
  8  9  2  0
 11 10  1  0
 12 11  1  0
 12 14  1  0
 12 13  1  1
 14 15  1  6
 15  8  1  0
 16 17  2  0
 16 14  1  0
 18 16  1  0
 19 18  1  0
 19 23  1  0
 19 20  1  1
 21 20  1  0
 22 21  2  0
 23 24  1  0
 25 21  1  0
 26 23  2  0
M  END
$$$$
