QID.pdb
     RDKit          3D

 26 25  0  0  1  0  0  0  0  0999 V2000
    9.4085  -12.7033   18.3893 N   0  0  0  0  0  0  0  0  0  0  0  0
    8.2322  -13.3712   17.8836 C   0  0  0  0  0  0  0  0  0  0  0  0
    8.1561  -13.4809   16.6538 O   0  0  0  0  0  0  0  0  0  0  0  0
    7.2761  -13.8345   18.8578 C   0  0  0  0  0  0  0  0  0  0  0  0
    7.5739  -13.7041   20.2991 C   0  0  0  0  0  0  0  0  0  0  0  0
    7.7832  -14.9474   21.0834 C   0  0  2  0  0  0  0  0  0  0  0  0
    6.5487  -15.6253   21.3139 N   0  0  0  0  0  0  0  0  0  0  0  0
    8.3286  -14.5493   22.4217 C   0  0  0  0  0  0  0  0  0  0  0  0
    9.4738  -14.0410   22.4423 O   0  0  0  0  0  0  0  0  0  0  0  0
    5.6174  -12.0619   26.1164 C   0  0  0  0  0  0  0  0  0  0  0  0
    6.8541  -12.4894   25.3514 C   0  0  0  0  0  0  0  0  0  0  0  0
    7.2492  -13.8562   25.8252 C   0  0  2  0  0  0  0  0  0  0  0  0
    7.9079  -13.6802   27.1909 C   0  0  0  0  0  0  0  0  0  0  0  0
    8.2541  -14.5199   24.9342 C   0  0  2  0  0  0  0  0  0  0  0  0
    7.6260  -14.7183   23.6350 N   0  0  0  0  0  0  0  0  0  0  0  0
    8.7485  -15.8039   25.4642 C   0  0  0  0  0  0  0  0  0  0  0  0
    7.9192  -16.7338   25.6720 O   0  0  0  0  0  0  0  0  0  0  0  0
   10.0916  -16.0792   25.7612 N   0  0  0  0  0  0  0  0  0  0  0  0
   10.5742  -17.3846   26.1842 C   0  0  1  0  0  0  0  0  0  0  0  0
   12.0083  -17.6031   25.8810 C   0  0  0  0  0  0  0  0  0  0  0  0
   12.4514  -18.9114   26.3987 C   0  0  0  0  0  0  0  0  0  0  0  0
   12.5662  -19.1231   27.6314 O   0  0  0  0  0  0  0  0  0  0  0  0
   10.2836  -17.6373   27.6071 C   0  0  0  0  0  0  0  0  0  0  0  0
   10.5656  -16.6168   28.5324 O   0  0  0  0  0  0  0  0  0  0  0  0
   12.7562  -19.9529   25.5343 O   0  0  0  0  0  0  0  0  0  0  0  0
    9.8031  -18.7065   28.0225 O   0  0  0  0  0  0  0  0  0  0  0  0
  1  2  1  0
  2  4  1  0
  2  3  2  0
  4  5  1  0
  5  6  1  0
  6  8  1  0
  6  7  1  1
  8  9  2  0
 11 10  1  0
 12 11  1  0
 12 14  1  0
 12 13  1  1
 14 15  1  6
 15  8  1  0
 16 17  2  0
 16 14  1  0
 18 16  1  0
 19 18  1  0
 19 23  1  0
 19 20  1  1
 21 20  1  0
 22 21  2  0
 23 24  1  0
 25 21  1  0
 26 23  2  0
M  END
$$$$
