LPC.pdb
     RDKit          3D

 22 22  0  0  1  0  0  0  0  0999 V2000
   75.2643   29.2474  -19.8666 C   0  0  0  0  0  0  0  0  0  0  0  0
   74.7861   29.7783  -21.2075 C   0  0  2  0  0  0  0  0  0  0  0  0
   73.6822   30.7910  -20.9532 C   0  0  0  0  0  0  0  0  0  0  0  0
   74.3068   28.6614  -22.1022 C   0  0  0  0  0  0  0  0  0  0  0  0
   75.2422   27.4733  -21.8690 C   0  0  2  0  0  0  0  0  0  0  0  0
   74.6412   26.3172  -22.4204 N   0  0  0  0  0  0  0  0  0  0  0  0
   75.6116   27.4160  -20.4443 C   0  0  0  0  0  0  0  0  0  0  0  0
   74.7958   27.9985  -19.6388 O   0  0  0  0  0  0  0  0  0  0  0  0
   76.7402   26.8060  -19.8718 N   0  0  0  0  0  0  0  0  0  0  0  0
   78.0840   27.2780  -19.7629 C   0  0  0  0  0  0  0  0  0  0  0  0
   78.8940   25.9879  -19.9739 C   0  0  0  0  0  0  0  0  0  0  0  0
   77.9407   24.8497  -19.8144 C   0  0  0  0  0  0  0  0  0  0  0  0
   76.7209   25.5007  -19.2466 C   0  0  1  0  0  0  0  0  0  0  0  0
   76.7155   25.5846  -17.7620 C   0  0  0  0  0  0  0  0  0  0  0  0
   77.5762   26.2975  -17.2031 O   0  0  0  0  0  0  0  0  0  0  0  0
   75.7915   24.9031  -16.9505 N   0  0  0  0  0  0  0  0  0  0  0  0
   75.7668   23.4611  -16.7964 C   0  0  1  0  0  0  0  0  0  0  0  0
   74.6962   22.9480  -17.7525 C   0  0  0  0  0  0  0  0  0  0  0  0
   75.0200   23.5116  -19.4439 S   0  0  0  0  0  0  0  0  0  0  0  0
   77.0613   22.9021  -17.2778 C   0  0  0  0  0  0  0  0  0  0  0  0
   77.1967   22.3288  -18.5326 O   0  0  0  0  0  0  0  0  0  0  0  0
   78.0976   22.9299  -16.5513 O   0  0  0  0  0  0  0  0  0  0  0  0
  2  1  1  1
  2  4  1  0
  2  3  1  0
  5  7  1  0
  5  4  1  0
  5  6  1  1
  7  8  2  0
  9 13  1  0
  9  7  1  0
 10  9  1  0
 11 10  1  0
 11 12  1  0
 12 13  1  0
 13 14  1  1
 14 15  2  0
 16 14  1  0
 17 16  1  0
 17 20  1  0
 17 18  1  6
 19 18  1  0
 20 22  2  0
 20 21  1  0
M  END
$$$$
