LPC.pdb
     RDKit          3D

 22 22  0  0  1  0  0  0  0  0999 V2000
    8.0369  -14.4546   27.4932 C   0  0  0  0  0  0  0  0  0  0  0  0
    7.8020  -14.0278   26.0540 C   0  0  2  0  0  0  0  0  0  0  0  0
    8.1103  -12.5443   25.9403 C   0  0  0  0  0  0  0  0  0  0  0  0
    6.3894  -14.3270   25.6149 C   0  0  0  0  0  0  0  0  0  0  0  0
    6.2568  -15.8500   25.5534 C   0  0  2  0  0  0  0  0  0  0  0  0
    6.6974  -16.3864   26.7863 N   0  0  0  0  0  0  0  0  0  0  0  0
    6.9198  -16.3483   24.3362 C   0  0  0  0  0  0  0  0  0  0  0  0
    6.9879  -17.6280   24.2292 O   0  0  0  0  0  0  0  0  0  0  0  0
    7.4803  -15.5945   23.2917 N   0  0  0  0  0  0  0  0  0  0  0  0
    7.6613  -14.1826   23.1717 C   0  0  0  0  0  0  0  0  0  0  0  0
    7.3832  -13.9505   21.6772 C   0  0  0  0  0  0  0  0  0  0  0  0
    7.4340  -15.2887   21.0165 C   0  0  0  0  0  0  0  0  0  0  0  0
    8.0108  -16.1724   22.0751 C   0  0  1  0  0  0  0  0  0  0  0  0
    9.4968  -16.2254   22.0754 C   0  0  0  0  0  0  0  0  0  0  0  0
   10.1248  -15.3167   21.4913 O   0  0  0  0  0  0  0  0  0  0  0  0
   10.2358  -17.2459   22.6992 N   0  0  0  0  0  0  0  0  0  0  0  0
   11.6026  -17.0841   23.1571 C   0  0  1  0  0  0  0  0  0  0  0  0
   11.5670  -16.0070   24.2350 C   0  0  0  0  0  0  0  0  0  0  0  0
   12.1798  -14.4289   23.5886 S   0  0  0  0  0  0  0  0  0  0  0  0
   12.0368  -18.3390   23.8328 C   0  0  0  0  0  0  0  0  0  0  0  0
   11.1575  -19.3775   24.0969 O   0  0  0  0  0  0  0  0  0  0  0  0
   13.2381  -18.5061   24.1953 O   0  0  0  0  0  0  0  0  0  0  0  0
  2  1  1  1
  2  4  1  0
  2  3  1  0
  5  7  1  0
  5  4  1  0
  5  6  1  1
  7  8  2  0
  9 13  1  0
  9  7  1  0
 10  9  1  0
 11 10  1  0
 11 12  1  0
 12 13  1  0
 13 14  1  1
 14 15  2  0
 16 14  1  0
 17 16  1  0
 17 20  1  0
 17 18  1  1
 19 18  1  0
 20 22  2  0
 20 21  1  0
M  END
$$$$
