LPC.pdb
     RDKit          3D

 22 22  0  0  1  0  0  0  0  0999 V2000
    5.8652  -12.5867   26.5952 C   0  0  0  0  0  0  0  0  0  0  0  0
    7.0446  -13.4431   27.0243 C   0  0  2  0  0  0  0  0  0  0  0  0
    8.0541  -12.5483   27.7237 C   0  0  0  0  0  0  0  0  0  0  0  0
    7.6673  -14.1518   25.8463 C   0  0  0  0  0  0  0  0  0  0  0  0
    6.6992  -15.2627   25.4342 C   0  0  2  0  0  0  0  0  0  0  0  0
    6.5621  -16.1603   26.5191 N   0  0  0  0  0  0  0  0  0  0  0  0
    7.1328  -15.8347   24.1480 C   0  0  0  0  0  0  0  0  0  0  0  0
    6.9328  -17.0975   24.0101 O   0  0  0  0  0  0  0  0  0  0  0  0
    7.7335  -15.1668   23.0680 N   0  0  0  0  0  0  0  0  0  0  0  0
    8.0583  -13.7850   22.9078 C   0  0  0  0  0  0  0  0  0  0  0  0
    7.7550  -13.5560   21.4177 C   0  0  0  0  0  0  0  0  0  0  0  0
    7.6417  -14.9056   20.7886 C   0  0  0  0  0  0  0  0  0  0  0  0
    8.1580  -15.8231   21.8497 C   0  0  1  0  0  0  0  0  0  0  0  0
    9.6293  -16.0337   21.8037 C   0  0  0  0  0  0  0  0  0  0  0  0
   10.1734  -16.1918   20.6900 O   0  0  0  0  0  0  0  0  0  0  0  0
   10.4439  -16.0648   22.9492 N   0  0  0  0  0  0  0  0  0  0  0  0
   11.8805  -16.2610   22.9093 C   0  0  1  0  0  0  0  0  0  0  0  0
   12.4973  -15.0356   23.5737 C   0  0  0  0  0  0  0  0  0  0  0  0
   14.2923  -15.2251   23.7336 S   0  0  0  0  0  0  0  0  0  0  0  0
   12.2324  -17.4257   23.7693 C   0  0  0  0  0  0  0  0  0  0  0  0
   13.4805  -18.0270   23.7231 O   0  0  0  0  0  0  0  0  0  0  0  0
   11.3959  -17.9154   24.5835 O   0  0  0  0  0  0  0  0  0  0  0  0
  2  1  1  6
  2  4  1  0
  2  3  1  0
  5  7  1  0
  5  4  1  0
  5  6  1  1
  7  8  2  0
  9 13  1  0
  9  7  1  0
 10  9  1  0
 11 10  1  0
 11 12  1  0
 12 13  1  0
 13 14  1  1
 14 15  2  0
 16 14  1  0
 17 16  1  0
 17 20  1  0
 17 18  1  1
 19 18  1  0
 20 22  2  0
 20 21  1  0
M  END
$$$$
