LPC.pdb
     RDKit          3D

 22 22  0  0  1  0  0  0  0  0999 V2000
    5.8460  -12.3871   26.0565 C   0  0  0  0  0  0  0  0  0  0  0  0
    6.8736  -13.1804   26.8459 C   0  0  2  0  0  0  0  0  0  0  0  0
    7.7375  -12.2013   27.6230 C   0  0  0  0  0  0  0  0  0  0  0  0
    7.7123  -14.0488   25.9403 C   0  0  0  0  0  0  0  0  0  0  0  0
    6.7807  -15.1148   25.3598 C   0  0  2  0  0  0  0  0  0  0  0  0
    6.3346  -15.9414   26.4178 N   0  0  0  0  0  0  0  0  0  0  0  0
    7.4486  -15.7827   24.2297 C   0  0  0  0  0  0  0  0  0  0  0  0
    7.6786  -17.0380   24.3882 O   0  0  0  0  0  0  0  0  0  0  0  0
    7.8590  -15.2120   23.0134 N   0  0  0  0  0  0  0  0  0  0  0  0
    7.6463  -13.8972   22.4971 C   0  0  0  0  0  0  0  0  0  0  0  0
    7.4376  -14.1722   20.9985 C   0  0  0  0  0  0  0  0  0  0  0  0
    7.9152  -15.5641   20.7452 C   0  0  0  0  0  0  0  0  0  0  0  0
    8.6278  -15.9180   22.0105 C   0  0  1  0  0  0  0  0  0  0  0  0
   10.0640  -15.5328   22.0240 C   0  0  0  0  0  0  0  0  0  0  0  0
   10.3541  -14.3203   22.1084 O   0  0  0  0  0  0  0  0  0  0  0  0
   11.1163  -16.4619   21.9468 N   0  0  0  0  0  0  0  0  0  0  0  0
   12.1007  -16.6510   22.9953 C   0  0  1  0  0  0  0  0  0  0  0  0
   11.3299  -17.1159   24.2255 C   0  0  0  0  0  0  0  0  0  0  0  0
   12.0369  -16.4047   25.7348 S   0  0  0  0  0  0  0  0  0  0  0  0
   13.0007  -17.7758   22.6149 C   0  0  0  0  0  0  0  0  0  0  0  0
   14.3809  -17.6766   22.6956 O   0  0  0  0  0  0  0  0  0  0  0  0
   12.5339  -18.8767   22.1992 O   0  0  0  0  0  0  0  0  0  0  0  0
  2  1  1  6
  2  4  1  0
  2  3  1  0
  5  7  1  0
  5  4  1  0
  5  6  1  1
  7  8  2  0
  9 13  1  0
  9  7  1  0
 10  9  1  0
 11 10  1  0
 11 12  1  0
 12 13  1  0
 13 14  1  6
 14 15  2  0
 16 14  1  0
 17 16  1  0
 17 20  1  0
 17 18  1  1
 19 18  1  0
 20 22  2  0
 20 21  1  0
M  END
$$$$
