LPC.pdb
     RDKit          3D

 22 22  0  0  1  0  0  0  0  0999 V2000
    4.8243  -16.8981   21.3380 C   0  0  0  0  0  0  0  0  0  0  0  0
    6.1130  -16.1037   21.2086 C   0  0  2  0  0  0  0  0  0  0  0  0
    7.0825  -16.9037   20.3549 C   0  0  0  0  0  0  0  0  0  0  0  0
    6.7055  -15.7923   22.5613 C   0  0  0  0  0  0  0  0  0  0  0  0
    7.5282  -14.5122   22.4014 C   0  0  2  0  0  0  0  0  0  0  0  0
    8.2492  -14.5939   21.1869 N   0  0  0  0  0  0  0  0  0  0  0  0
    8.3125  -14.2807   23.6265 C   0  0  0  0  0  0  0  0  0  0  0  0
    9.5892  -14.3415   23.4843 O   0  0  0  0  0  0  0  0  0  0  0  0
    7.8312  -14.0054   24.9172 N   0  0  0  0  0  0  0  0  0  0  0  0
    6.4907  -13.8424   25.3829 C   0  0  0  0  0  0  0  0  0  0  0  0
    6.6488  -12.7252   26.4277 C   0  0  0  0  0  0  0  0  0  0  0  0
    8.1083  -12.6154   26.7237 C   0  0  0  0  0  0  0  0  0  0  0  0
    8.6825  -13.8337   26.0754 C   0  0  1  0  0  0  0  0  0  0  0  0
    8.6956  -15.0356   26.9508 C   0  0  0  0  0  0  0  0  0  0  0  0
    7.6082  -15.5921   27.2139 O   0  0  0  0  0  0  0  0  0  0  0  0
    9.8689  -15.5813   27.5004 N   0  0  0  0  0  0  0  0  0  0  0  0
    9.9614  -16.9333   28.0177 C   0  0  1  0  0  0  0  0  0  0  0  0
   10.9587  -17.6641   27.1261 C   0  0  0  0  0  0  0  0  0  0  0  0
   11.2908  -19.3284   27.7613 S   0  0  0  0  0  0  0  0  0  0  0  0
   10.5689  -16.8891   29.3774 C   0  0  0  0  0  0  0  0  0  0  0  0
   10.4939  -17.9599   30.2545 O   0  0  0  0  0  0  0  0  0  0  0  0
   11.1831  -15.8610   29.7876 O   0  0  0  0  0  0  0  0  0  0  0  0
  2  1  1  1
  2  4  1  0
  2  3  1  0
  5  7  1  0
  5  4  1  0
  5  6  1  6
  7  8  2  0
  9 13  1  0
  9  7  1  0
 10  9  1  0
 11 10  1  0
 11 12  1  0
 12 13  1  0
 13 14  1  1
 14 15  2  0
 16 14  1  0
 17 16  1  0
 17 20  1  0
 17 18  1  6
 19 18  1  0
 20 22  2  0
 20 21  1  0
M  END
$$$$
