LPC.pdb
     RDKit          3D

 22 22  0  0  1  0  0  0  0  0999 V2000
    5.8234  -12.0137   25.1548 C   0  0  0  0  0  0  0  0  0  0  0  0
    6.1508  -12.7267   26.4559 C   0  0  2  0  0  0  0  0  0  0  0  0
    6.8519  -11.7416   27.3761 C   0  0  0  0  0  0  0  0  0  0  0  0
    7.0024  -13.9491   26.2143 C   0  0  0  0  0  0  0  0  0  0  0  0
    6.1502  -14.9316   25.4083 C   0  0  2  0  0  0  0  0  0  0  0  0
    5.4013  -15.7196   26.3138 N   0  0  0  0  0  0  0  0  0  0  0  0
    7.0090  -15.6515   24.4525 C   0  0  0  0  0  0  0  0  0  0  0  0
    7.0632  -16.9265   24.6110 O   0  0  0  0  0  0  0  0  0  0  0  0
    7.7673  -15.1110   23.4007 N   0  0  0  0  0  0  0  0  0  0  0  0
    7.9479  -13.7511   23.0022 C   0  0  0  0  0  0  0  0  0  0  0  0
    7.9907  -13.8701   21.4696 C   0  0  0  0  0  0  0  0  0  0  0  0
    8.2016  -15.3146   21.1552 C   0  0  0  0  0  0  0  0  0  0  0  0
    8.5534  -15.9067   22.4819 C   0  0  1  0  0  0  0  0  0  0  0  0
   10.0060  -15.8645   22.7971 C   0  0  0  0  0  0  0  0  0  0  0  0
   10.6221  -14.7916   22.6215 O   0  0  0  0  0  0  0  0  0  0  0  0
   10.7259  -16.9698   23.2834 N   0  0  0  0  0  0  0  0  0  0  0  0
   12.0372  -16.8694   23.8953 C   0  0  1  0  0  0  0  0  0  0  0  0
   11.9670  -17.6725   25.1890 C   0  0  0  0  0  0  0  0  0  0  0  0
   10.6177  -17.0788   26.2429 S   0  0  0  0  0  0  0  0  0  0  0  0
   13.0297  -17.5613   23.0259 C   0  0  0  0  0  0  0  0  0  0  0  0
   14.3873  -17.5550   23.3057 O   0  0  0  0  0  0  0  0  0  0  0  0
   12.6668  -18.1878   21.9874 O   0  0  0  0  0  0  0  0  0  0  0  0
  2  1  1  6
  2  4  1  0
  2  3  1  0
  5  7  1  0
  5  4  1  0
  5  6  1  1
  7  8  2  0
  9 13  1  0
  9  7  1  0
 10  9  1  0
 11 10  1  0
 11 12  1  0
 12 13  1  0
 13 14  1  1
 14 15  2  0
 16 14  1  0
 17 16  1  0
 17 20  1  0
 17 18  1  1
 19 18  1  0
 20 22  2  0
 20 21  1  0
M  END
$$$$
