LPC.pdb
     RDKit          3D

 22 22  0  0  1  0  0  0  0  0999 V2000
    5.6642  -12.3579   25.7804 C   0  0  0  0  0  0  0  0  0  0  0  0
    6.6070  -13.0637   26.7403 C   0  0  2  0  0  0  0  0  0  0  0  0
    7.4098  -12.0084   27.4825 C   0  0  0  0  0  0  0  0  0  0  0  0
    7.5128  -14.0272   26.0131 C   0  0  0  0  0  0  0  0  0  0  0  0
    6.6155  -15.1069   25.4047 C   0  0  2  0  0  0  0  0  0  0  0  0
    6.1491  -15.9399   26.4488 N   0  0  0  0  0  0  0  0  0  0  0  0
    7.3279  -15.7651   24.2962 C   0  0  0  0  0  0  0  0  0  0  0  0
    7.4843  -17.0358   24.4178 O   0  0  0  0  0  0  0  0  0  0  0  0
    7.8506  -15.1706   23.1357 N   0  0  0  0  0  0  0  0  0  0  0  0
    7.7905  -13.8145   22.6908 C   0  0  0  0  0  0  0  0  0  0  0  0
    7.6307  -13.9835   21.1707 C   0  0  0  0  0  0  0  0  0  0  0  0
    7.9849  -15.3994   20.8549 C   0  0  0  0  0  0  0  0  0  0  0  0
    8.5970  -15.8917   22.1266 C   0  0  1  0  0  0  0  0  0  0  0  0
   10.0610  -15.6510   22.2262 C   0  0  0  0  0  0  0  0  0  0  0  0
   10.4785  -14.4767   22.1363 O   0  0  0  0  0  0  0  0  0  0  0  0
   11.0038  -16.6764   22.4166 N   0  0  0  0  0  0  0  0  0  0  0  0
   11.9218  -16.7266   23.5385 C   0  0  1  0  0  0  0  0  0  0  0  0
   11.0602  -16.8501   24.7899 C   0  0  0  0  0  0  0  0  0  0  0  0
   11.5551  -15.6300   26.0351 S   0  0  0  0  0  0  0  0  0  0  0  0
   12.7195  -17.9821   23.4535 C   0  0  0  0  0  0  0  0  0  0  0  0
   14.0561  -18.0336   23.8174 O   0  0  0  0  0  0  0  0  0  0  0  0
   12.2013  -19.0610   23.0412 O   0  0  0  0  0  0  0  0  0  0  0  0
  2  1  1  6
  2  4  1  0
  2  3  1  0
  5  7  1  0
  5  4  1  0
  5  6  1  1
  7  8  2  0
  9 13  1  0
  9  7  1  0
 10  9  1  0
 11 10  1  0
 11 12  1  0
 12 13  1  0
 13 14  1  6
 14 15  2  0
 16 14  1  0
 17 16  1  0
 17 20  1  0
 17 18  1  1
 19 18  1  0
 20 22  2  0
 20 21  1  0
M  END
$$$$
