LPC.pdb
     RDKit          3D

 22 22  0  0  1  0  0  0  0  0999 V2000
    5.9245  -12.4897   26.0781 C   0  0  0  0  0  0  0  0  0  0  0  0
    6.9449  -13.2789   26.8809 C   0  0  2  0  0  0  0  0  0  0  0  0
    7.8402  -12.2938   27.6136 C   0  0  0  0  0  0  0  0  0  0  0  0
    7.7524  -14.1956   25.9947 C   0  0  0  0  0  0  0  0  0  0  0  0
    6.7772  -15.2185   25.4082 C   0  0  2  0  0  0  0  0  0  0  0  0
    6.3617  -16.0851   26.4465 N   0  0  0  0  0  0  0  0  0  0  0  0
    7.3837  -15.8452   24.2212 C   0  0  0  0  0  0  0  0  0  0  0  0
    7.5713  -17.1148   24.3025 O   0  0  0  0  0  0  0  0  0  0  0  0
    7.7767  -15.2219   23.0252 N   0  0  0  0  0  0  0  0  0  0  0  0
    7.6088  -13.8702   22.5949 C   0  0  0  0  0  0  0  0  0  0  0  0
    7.3331  -14.0449   21.0922 C   0  0  0  0  0  0  0  0  0  0  0  0
    7.7341  -15.4395   20.7398 C   0  0  0  0  0  0  0  0  0  0  0  0
    8.4742  -15.9009   21.9538 C   0  0  1  0  0  0  0  0  0  0  0  0
    9.9267  -15.5831   21.9338 C   0  0  0  0  0  0  0  0  0  0  0  0
   10.2784  -14.3956   22.0995 O   0  0  0  0  0  0  0  0  0  0  0  0
   10.9288  -16.5496   21.7380 N   0  0  0  0  0  0  0  0  0  0  0  0
   11.9675  -16.8391   22.7082 C   0  0  1  0  0  0  0  0  0  0  0  0
   11.2572  -17.3682   23.9488 C   0  0  0  0  0  0  0  0  0  0  0  0
   12.1210  -16.8503   25.4552 S   0  0  0  0  0  0  0  0  0  0  0  0
   12.8072  -17.9585   22.1967 C   0  0  0  0  0  0  0  0  0  0  0  0
   14.1834  -17.8512   22.0709 O   0  0  0  0  0  0  0  0  0  0  0  0
   12.2899  -19.0618   21.8538 O   0  0  0  0  0  0  0  0  0  0  0  0
  2  1  1  6
  2  4  1  0
  2  3  1  0
  5  7  1  0
  5  4  1  0
  5  6  1  1
  7  8  2  0
  9 13  1  0
  9  7  1  0
 10  9  1  0
 11 10  1  0
 11 12  1  0
 12 13  1  0
 13 14  1  6
 14 15  2  0
 16 14  1  0
 17 16  1  0
 17 20  1  0
 17 18  1  1
 19 18  1  0
 20 22  2  0
 20 21  1  0
M  END
$$$$
