HHW.pdb
     RDKit          3D

 35 38  0  0  1  0  0  0  0  0999 V2000
   29.9790  -36.2414   -1.3161 N   0  0  0  0  0  0  0  0  0  0  0  0
   29.6611  -34.8577   -1.4510 C   0  0  1  0  0  0  0  0  0  0  0  0
   29.2500  -34.4454   -2.8398 C   0  0  0  0  0  0  0  0  0  0  0  0
   30.3464  -34.6130   -3.8257 C   0  0  0  0  0  0  0  0  0  0  0  0
   31.5724  -35.2045   -3.5898 C   0  0  0  0  0  0  0  0  0  0  0  0
   32.2628  -35.1513   -4.7410 N   0  0  0  0  0  0  0  0  0  0  0  0
   31.5016  -34.5482   -5.6717 C   0  0  0  0  0  0  0  0  0  0  0  0
   30.3288  -34.2203   -5.1061 N   0  0  0  0  0  0  0  0  0  0  0  0
   28.5367  -34.4563   -0.5126 C   0  0  0  0  0  0  0  0  0  0  0  0
   28.1401  -33.2808   -0.5396 O   0  0  0  0  0  0  0  0  0  0  0  0
   27.9509  -35.3689    0.3653 N   0  0  0  0  0  0  0  0  0  0  0  0
   26.9598  -35.2541    1.3532 C   0  0  1  0  0  0  0  0  0  0  0  0
   26.1776  -36.4358    1.7889 C   0  0  0  0  0  0  0  0  0  0  0  0
   25.0412  -36.2189    2.6690 C   0  0  0  0  0  0  0  0  0  0  0  0
   24.0993  -35.2203    2.8030 C   0  0  0  0  0  0  0  0  0  0  0  0
   23.3353  -35.5208    3.8649 N   0  0  0  0  0  0  0  0  0  0  0  0
   23.7557  -36.6717    4.4106 C   0  0  0  0  0  0  0  0  0  0  0  0
   24.7821  -37.0921    3.6917 N   0  0  0  0  0  0  0  0  0  0  0  0
   27.2326  -34.3877    2.4986 C   0  0  0  0  0  0  0  0  0  0  0  0
   28.0535  -34.7534    3.4143 O   0  0  0  0  0  0  0  0  0  0  0  0
   26.6554  -33.1097    2.7232 N   0  0  0  0  0  0  0  0  0  0  0  0
   27.0239  -32.2449    3.8464 C   0  0  1  0  0  0  0  0  0  0  0  0
   26.6771  -30.8335    3.5802 C   0  0  0  0  0  0  0  0  0  0  0  0
   25.2319  -30.6038    3.4892 C   0  0  0  0  0  0  0  0  0  0  0  0
   24.3928  -30.9472    2.4190 C   0  0  0  0  0  0  0  0  0  0  0  0
   23.1370  -30.5427    2.6722 N   0  0  0  0  0  0  0  0  0  0  0  0
   23.0901  -29.9374    3.8762 C   0  0  0  0  0  0  0  0  0  0  0  0
   22.0127  -29.3798    4.5614 C   0  0  0  0  0  0  0  0  0  0  0  0
   22.2818  -28.8482    5.8049 C   0  0  0  0  0  0  0  0  0  0  0  0
   23.5470  -28.8675    6.3403 C   0  0  0  0  0  0  0  0  0  0  0  0
   24.5850  -29.4226    5.6398 C   0  0  0  0  0  0  0  0  0  0  0  0
   24.3729  -29.9704    4.3862 C   0  0  0  0  0  0  0  0  0  0  0  0
   26.5470  -32.7358    5.1335 C   0  0  0  0  0  0  0  0  0  0  0  0
   27.0258  -32.2954    6.2037 O   0  0  0  0  0  0  0  0  0  0  0  0
   25.5442  -33.7112    5.2814 O   0  0  0  0  0  0  0  0  0  0  0  0
  2  1  1  6
  2  3  1  0
  4  5  2  0
  4  3  1  0
  6  5  1  0
  7  8  2  0
  7  6  1  0
  8  4  1  0
  9  2  1  0
 10  9  2  0
 11  9  1  0
 12 11  1  0
 12 13  1  1
 14 13  1  0
 14 18  1  0
 15 14  2  0
 16 15  1  0
 16 17  1  0
 17 18  2  0
 19 21  1  0
 19 12  1  0
 20 19  2  0
 22 33  1  0
 22 21  1  0
 22 23  1  6
 24 23  1  0
 24 32  1  0
 25 24  2  0
 26 25  1  0
 26 27  1  0
 27 28  1  0
 27 32  2  0
 28 29  2  0
 29 30  1  0
 31 30  2  0
 32 31  1  0
 33 35  1  0
 34 33  2  0
M  END
$$$$
