HHW.pdb
     RDKit          3D

 35 38  0  0  1  0  0  0  0  0999 V2000
   23.7749  -11.8222  -20.1535 N   0  0  0  0  0  0  0  0  0  0  0  0
   23.1496  -10.5600  -20.3772 C   0  0  1  0  0  0  0  0  0  0  0  0
   21.9181  -10.6193  -21.2417 C   0  0  0  0  0  0  0  0  0  0  0  0
   22.2020  -11.1682  -22.5909 C   0  0  0  0  0  0  0  0  0  0  0  0
   21.7852  -12.3919  -23.0782 C   0  0  0  0  0  0  0  0  0  0  0  0
   22.2536  -12.4958  -24.3330 N   0  0  0  0  0  0  0  0  0  0  0  0
   22.9418  -11.3787  -24.6292 C   0  0  0  0  0  0  0  0  0  0  0  0
   22.9073  -10.5687  -23.5589 N   0  0  0  0  0  0  0  0  0  0  0  0
   22.7475   -9.9043  -19.0678 C   0  0  0  0  0  0  0  0  0  0  0  0
   21.7977  -10.3906  -18.4345 O   0  0  0  0  0  0  0  0  0  0  0  0
   23.4144   -8.7837  -18.5717 N   0  0  0  0  0  0  0  0  0  0  0  0
   23.3072   -8.0491  -17.3799 C   0  0  1  0  0  0  0  0  0  0  0  0
   24.4228   -8.0128  -16.4041 C   0  0  0  0  0  0  0  0  0  0  0  0
   25.0483   -9.2710  -16.0314 C   0  0  0  0  0  0  0  0  0  0  0  0
   24.7898  -10.5976  -16.3062 C   0  0  0  0  0  0  0  0  0  0  0  0
   25.6619  -11.3368  -15.6029 N   0  0  0  0  0  0  0  0  0  0  0  0
   26.4643  -10.5308  -14.8918 C   0  0  0  0  0  0  0  0  0  0  0  0
   26.0956   -9.2879  -15.1491 N   0  0  0  0  0  0  0  0  0  0  0  0
   22.6540   -6.7425  -17.4380 C   0  0  0  0  0  0  0  0  0  0  0  0
   23.1799   -5.7773  -18.0998 O   0  0  0  0  0  0  0  0  0  0  0  0
   21.4285   -6.4032  -16.8057 N   0  0  0  0  0  0  0  0  0  0  0  0
   20.8394   -5.0633  -16.8559 C   0  0  1  0  0  0  0  0  0  0  0  0
   19.5769   -5.0546  -17.6234 C   0  0  0  0  0  0  0  0  0  0  0  0
   19.0164   -3.7105  -17.7932 C   0  0  0  0  0  0  0  0  0  0  0  0
   19.7331   -2.5183  -17.9730 C   0  0  0  0  0  0  0  0  0  0  0  0
   18.8846   -1.4796  -18.0499 N   0  0  0  0  0  0  0  0  0  0  0  0
   17.6162   -1.9211  -17.9301 C   0  0  0  0  0  0  0  0  0  0  0  0
   16.4125   -1.2203  -17.9665 C   0  0  0  0  0  0  0  0  0  0  0  0
   15.2606   -1.9670  -17.8372 C   0  0  0  0  0  0  0  0  0  0  0  0
   15.2980   -3.3316  -17.6808 C   0  0  0  0  0  0  0  0  0  0  0  0
   16.4986   -3.9903  -17.6480 C   0  0  0  0  0  0  0  0  0  0  0  0
   17.6869   -3.2911  -17.7723 C   0  0  0  0  0  0  0  0  0  0  0  0
   20.7376   -4.4280  -15.5478 C   0  0  0  0  0  0  0  0  0  0  0  0
   20.2936   -5.0602  -14.5620 O   0  0  0  0  0  0  0  0  0  0  0  0
   21.1152   -3.0982  -15.2871 O   0  0  0  0  0  0  0  0  0  0  0  0
  2  1  1  1
  2  3  1  0
  4  5  2  0
  4  3  1  0
  6  5  1  0
  7  8  2  0
  7  6  1  0
  8  4  1  0
  9  2  1  0
 10  9  2  0
 11  9  1  0
 12 11  1  0
 12 13  1  6
 14 13  1  0
 14 18  1  0
 15 14  2  0
 16 15  1  0
 16 17  1  0
 17 18  2  0
 19 21  1  0
 19 12  1  0
 20 19  2  0
 22 33  1  0
 22 21  1  0
 22 23  1  1
 24 23  1  0
 24 32  1  0
 25 24  2  0
 26 25  1  0
 26 27  1  0
 27 28  1  0
 27 32  2  0
 28 29  2  0
 29 30  1  0
 31 30  2  0
 32 31  1  0
 33 35  1  0
 34 33  2  0
M  END
$$$$
