HHW.pdb
     RDKit          3D

 35 38  0  0  1  0  0  0  0  0999 V2000
   29.2807  -19.7259  -19.2995 N   0  0  0  0  0  0  0  0  0  0  0  0
   28.5723  -20.6554  -18.4820 C   0  0  1  0  0  0  0  0  0  0  0  0
   29.2520  -21.9897  -18.3231 C   0  0  0  0  0  0  0  0  0  0  0  0
   29.3352  -22.7363  -19.6030 C   0  0  0  0  0  0  0  0  0  0  0  0
   30.4876  -23.2194  -20.1923 C   0  0  0  0  0  0  0  0  0  0  0  0
   30.1207  -23.8300  -21.3312 N   0  0  0  0  0  0  0  0  0  0  0  0
   28.7848  -23.7368  -21.4583 C   0  0  0  0  0  0  0  0  0  0  0  0
   28.3084  -23.0659  -20.3973 N   0  0  0  0  0  0  0  0  0  0  0  0
   28.3429  -20.0999  -17.0875 C   0  0  0  0  0  0  0  0  0  0  0  0
   29.3087  -19.6051  -16.4858 O   0  0  0  0  0  0  0  0  0  0  0  0
   27.0875  -20.1349  -16.4796 N   0  0  0  0  0  0  0  0  0  0  0  0
   26.5667  -19.5541  -15.3121 C   0  0  1  0  0  0  0  0  0  0  0  0
   25.9751  -18.1949  -15.3356 C   0  0  0  0  0  0  0  0  0  0  0  0
   26.6609  -17.1622  -16.0947 C   0  0  0  0  0  0  0  0  0  0  0  0
   26.4911  -16.6092  -17.3467 C   0  0  0  0  0  0  0  0  0  0  0  0
   27.4965  -15.7434  -17.5496 N   0  0  0  0  0  0  0  0  0  0  0  0
   28.2985  -15.7252  -16.4746 C   0  0  0  0  0  0  0  0  0  0  0  0
   27.7964  -16.5786  -15.5990 N   0  0  0  0  0  0  0  0  0  0  0  0
   25.8100  -20.4108  -14.4008 C   0  0  0  0  0  0  0  0  0  0  0  0
   24.7841  -21.0608  -14.8146 O   0  0  0  0  0  0  0  0  0  0  0  0
   26.1022  -20.6157  -13.0262 N   0  0  0  0  0  0  0  0  0  0  0  0
   25.3338  -21.5167  -12.1643 C   0  0  1  0  0  0  0  0  0  0  0  0
   26.1758  -22.0939  -11.0961 C   0  0  0  0  0  0  0  0  0  0  0  0
   26.3952  -21.1734   -9.9762 C   0  0  0  0  0  0  0  0  0  0  0  0
   25.4778  -20.2477   -9.4580 C   0  0  0  0  0  0  0  0  0  0  0  0
   26.0449  -19.5477   -8.4614 N   0  0  0  0  0  0  0  0  0  0  0  0
   27.3149  -19.9639   -8.2814 C   0  0  0  0  0  0  0  0  0  0  0  0
   28.2759  -19.5483   -7.3622 C   0  0  0  0  0  0  0  0  0  0  0  0
   29.4945  -20.1917   -7.4114 C   0  0  0  0  0  0  0  0  0  0  0  0
   29.7477  -21.1908   -8.3198 C   0  0  0  0  0  0  0  0  0  0  0  0
   28.7810  -21.5751   -9.2111 C   0  0  0  0  0  0  0  0  0  0  0  0
   27.5393  -20.9631   -9.2076 C   0  0  0  0  0  0  0  0  0  0  0  0
   24.0890  -20.9316  -11.6814 C   0  0  0  0  0  0  0  0  0  0  0  0
   23.9475  -19.6887  -11.6198 O   0  0  0  0  0  0  0  0  0  0  0  0
   22.9782  -21.6836  -11.2578 O   0  0  0  0  0  0  0  0  0  0  0  0
  2  1  1  6
  2  3  1  0
  4  5  2  0
  4  3  1  0
  6  5  1  0
  7  8  2  0
  7  6  1  0
  8  4  1  0
  9  2  1  0
 10  9  2  0
 11  9  1  0
 12 11  1  0
 12 13  1  6
 14 13  1  0
 14 18  1  0
 15 14  2  0
 16 15  1  0
 16 17  1  0
 17 18  2  0
 19 21  1  0
 19 12  1  0
 20 19  2  0
 22 33  1  0
 22 21  1  0
 22 23  1  1
 24 23  1  0
 24 32  1  0
 25 24  2  0
 26 25  1  0
 26 27  1  0
 27 28  1  0
 27 32  2  0
 28 29  2  0
 29 30  1  0
 31 30  2  0
 32 31  1  0
 33 35  1  0
 34 33  2  0
M  END
$$$$
