HHW.pdb
     RDKit          3D

 35 38  0  0  1  0  0  0  0  0999 V2000
   23.7528  -19.0530  -16.2866 N   0  0  0  0  0  0  0  0  0  0  0  0
   22.8032  -19.1001  -15.2236 C   0  0  1  0  0  0  0  0  0  0  0  0
   21.4250  -19.5427  -15.6386 C   0  0  0  0  0  0  0  0  0  0  0  0
   20.8518  -18.6803  -16.7016 C   0  0  0  0  0  0  0  0  0  0  0  0
   20.3592  -19.1058  -17.9202 C   0  0  0  0  0  0  0  0  0  0  0  0
   19.9383  -18.0126  -18.5777 N   0  0  0  0  0  0  0  0  0  0  0  0
   20.1565  -16.9343  -17.8036 C   0  0  0  0  0  0  0  0  0  0  0  0
   20.7162  -17.3486  -16.6556 N   0  0  0  0  0  0  0  0  0  0  0  0
   23.2603  -20.0343  -14.1171 C   0  0  0  0  0  0  0  0  0  0  0  0
   22.4064  -20.4817  -13.3357 O   0  0  0  0  0  0  0  0  0  0  0  0
   24.5999  -20.3930  -13.9645 N   0  0  0  0  0  0  0  0  0  0  0  0
   25.2870  -21.1679  -13.0163 C   0  0  1  0  0  0  0  0  0  0  0  0
   26.1019  -22.3347  -13.4319 C   0  0  0  0  0  0  0  0  0  0  0  0
   25.5174  -23.2798  -14.3690 C   0  0  0  0  0  0  0  0  0  0  0  0
   24.2651  -23.4421  -14.9235 C   0  0  0  0  0  0  0  0  0  0  0  0
   24.2893  -24.5613  -15.6641 N   0  0  0  0  0  0  0  0  0  0  0  0
   25.5088  -25.1162  -15.6013 C   0  0  0  0  0  0  0  0  0  0  0  0
   26.2481  -24.3458  -14.8222 N   0  0  0  0  0  0  0  0  0  0  0  0
   25.9411  -20.4728  -11.9091 C   0  0  0  0  0  0  0  0  0  0  0  0
   26.4795  -19.3218  -12.0864 O   0  0  0  0  0  0  0  0  0  0  0  0
   26.0530  -20.9592  -10.5796 N   0  0  0  0  0  0  0  0  0  0  0  0
   26.9385  -20.3652   -9.5756 C   0  0  1  0  0  0  0  0  0  0  0  0
   26.3270  -20.3902   -8.2308 C   0  0  0  0  0  0  0  0  0  0  0  0
   27.0929  -19.6320   -7.2367 C   0  0  0  0  0  0  0  0  0  0  0  0
   27.1589  -18.2363   -7.1136 C   0  0  0  0  0  0  0  0  0  0  0  0
   27.9933  -17.9024   -6.1151 N   0  0  0  0  0  0  0  0  0  0  0  0
   28.4971  -19.0198   -5.5531 C   0  0  0  0  0  0  0  0  0  0  0  0
   29.3791  -19.1705   -4.4851 C   0  0  0  0  0  0  0  0  0  0  0  0
   29.6926  -20.4634   -4.1226 C   0  0  0  0  0  0  0  0  0  0  0  0
   29.1625  -21.5468   -4.7805 C   0  0  0  0  0  0  0  0  0  0  0  0
   28.2986  -21.3640   -5.8277 C   0  0  0  0  0  0  0  0  0  0  0  0
   27.9492  -20.0879   -6.2354 C   0  0  0  0  0  0  0  0  0  0  0  0
   28.2952  -20.8967   -9.6156 C   0  0  0  0  0  0  0  0  0  0  0  0
   29.2840  -20.1281   -9.6184 O   0  0  0  0  0  0  0  0  0  0  0  0
   28.6021  -22.2691   -9.6533 O   0  0  0  0  0  0  0  0  0  0  0  0
  2  1  1  6
  2  3  1  0
  4  5  2  0
  4  3  1  0
  6  5  1  0
  7  8  2  0
  7  6  1  0
  8  4  1  0
  9  2  1  0
 10  9  2  0
 11  9  1  0
 12 11  1  0
 12 13  1  6
 14 13  1  0
 14 18  1  0
 15 14  2  0
 16 15  1  0
 16 17  1  0
 17 18  2  0
 19 21  1  0
 19 12  1  0
 20 19  2  0
 22 33  1  0
 22 21  1  0
 22 23  1  1
 24 23  1  0
 24 32  1  0
 25 24  2  0
 26 25  1  0
 26 27  1  0
 27 28  1  0
 27 32  2  0
 28 29  2  0
 29 30  1  0
 31 30  2  0
 32 31  1  0
 33 35  1  0
 34 33  2  0
M  END
$$$$
