HHW.pdb
     RDKit          3D

 35 38  0  0  1  0  0  0  0  0999 V2000
   28.2113  -21.1481  -12.3777 N   0  0  0  0  0  0  0  0  0  0  0  0
   27.2651  -21.3127  -11.3233 C   0  0  1  0  0  0  0  0  0  0  0  0
   27.6465  -20.6367  -10.0329 C   0  0  0  0  0  0  0  0  0  0  0  0
   29.0143  -21.0017   -9.5877 C   0  0  0  0  0  0  0  0  0  0  0  0
   29.9029  -21.8144  -10.2647 C   0  0  0  0  0  0  0  0  0  0  0  0
   31.0188  -21.8834   -9.5198 N   0  0  0  0  0  0  0  0  0  0  0  0
   30.8429  -21.1412   -8.4117 C   0  0  0  0  0  0  0  0  0  0  0  0
   29.6136  -20.6034   -8.4580 N   0  0  0  0  0  0  0  0  0  0  0  0
   25.8989  -20.7824  -11.7209 C   0  0  0  0  0  0  0  0  0  0  0  0
   25.5062  -19.7245  -11.2048 O   0  0  0  0  0  0  0  0  0  0  0  0
   25.0898  -21.4511  -12.6402 N   0  0  0  0  0  0  0  0  0  0  0  0
   24.3511  -21.0299  -13.7574 C   0  0  1  0  0  0  0  0  0  0  0  0
   24.3813  -21.7985  -15.0249 C   0  0  0  0  0  0  0  0  0  0  0  0
   23.8416  -23.1482  -15.0207 C   0  0  0  0  0  0  0  0  0  0  0  0
   24.0547  -24.2720  -14.2501 C   0  0  0  0  0  0  0  0  0  0  0  0
   23.3289  -25.2708  -14.7766 N   0  0  0  0  0  0  0  0  0  0  0  0
   22.6630  -24.8247  -15.8521 C   0  0  0  0  0  0  0  0  0  0  0  0
   22.9711  -23.5478  -15.9996 N   0  0  0  0  0  0  0  0  0  0  0  0
   23.0083  -20.4988  -13.5291 C   0  0  0  0  0  0  0  0  0  0  0  0
   22.2054  -21.0793  -12.7140 O   0  0  0  0  0  0  0  0  0  0  0  0
   22.4618  -19.3424  -14.1462 N   0  0  0  0  0  0  0  0  0  0  0  0
   21.1156  -18.8387  -13.8652 C   0  0  1  0  0  0  0  0  0  0  0  0
   21.0114  -17.3899  -14.1362 C   0  0  0  0  0  0  0  0  0  0  0  0
   19.6878  -16.8406  -13.8259 C   0  0  0  0  0  0  0  0  0  0  0  0
   19.1669  -16.5747  -12.5511 C   0  0  0  0  0  0  0  0  0  0  0  0
   17.9082  -16.1169  -12.6558 N   0  0  0  0  0  0  0  0  0  0  0  0
   17.5535  -16.0603  -13.9555 C   0  0  0  0  0  0  0  0  0  0  0  0
   16.3648  -15.6367  -14.5459 C   0  0  0  0  0  0  0  0  0  0  0  0
   16.3131  -15.6747  -15.9233 C   0  0  0  0  0  0  0  0  0  0  0  0
   17.3789  -16.1079  -16.6744 C   0  0  0  0  0  0  0  0  0  0  0  0
   18.5334  -16.5190  -16.0625 C   0  0  0  0  0  0  0  0  0  0  0  0
   18.6409  -16.5028  -14.6824 C   0  0  0  0  0  0  0  0  0  0  0  0
   20.0614  -19.6312  -14.4863 C   0  0  0  0  0  0  0  0  0  0  0  0
   20.1872  -20.0586  -15.6568 O   0  0  0  0  0  0  0  0  0  0  0  0
   18.8546  -19.9730  -13.8492 O   0  0  0  0  0  0  0  0  0  0  0  0
  2  1  1  6
  2  3  1  0
  4  5  2  0
  4  3  1  0
  6  5  1  0
  7  8  2  0
  7  6  1  0
  8  4  1  0
  9  2  1  0
 10  9  2  0
 11  9  1  0
 12 11  1  0
 12 13  1  6
 14 13  1  0
 14 18  1  0
 15 14  2  0
 16 15  1  0
 16 17  1  0
 17 18  2  0
 19 21  1  0
 19 12  1  0
 20 19  2  0
 22 33  1  0
 22 21  1  0
 22 23  1  6
 24 23  1  0
 24 32  1  0
 25 24  2  0
 26 25  1  0
 26 27  1  0
 27 28  1  0
 27 32  2  0
 28 29  2  0
 29 30  1  0
 31 30  2  0
 32 31  1  0
 33 35  1  0
 34 33  2  0
M  END
$$$$
