HHW.pdb
     RDKit          3D

 35 38  0  0  1  0  0  0  0  0999 V2000
   28.9221  -25.9506  -18.0431 N   0  0  0  0  0  0  0  0  0  0  0  0
   27.7794  -25.6417  -17.2475 C   0  0  1  0  0  0  0  0  0  0  0  0
   27.4046  -26.7097  -16.2542 C   0  0  0  0  0  0  0  0  0  0  0  0
   27.0473  -27.9912  -16.9118 C   0  0  0  0  0  0  0  0  0  0  0  0
   25.7865  -28.3688  -17.3319 C   0  0  0  0  0  0  0  0  0  0  0  0
   25.9023  -29.5934  -17.8720 N   0  0  0  0  0  0  0  0  0  0  0  0
   27.1895  -29.9769  -17.7966 C   0  0  0  0  0  0  0  0  0  0  0  0
   27.8866  -28.9921  -17.2076 N   0  0  0  0  0  0  0  0  0  0  0  0
   27.9824  -24.3548  -16.4674 C   0  0  0  0  0  0  0  0  0  0  0  0
   29.0627  -24.1877  -15.8802 O   0  0  0  0  0  0  0  0  0  0  0  0
   26.9936  -23.3728  -16.3992 N   0  0  0  0  0  0  0  0  0  0  0  0
   26.9464  -22.0924  -15.8248 C   0  0  1  0  0  0  0  0  0  0  0  0
   26.5030  -20.9187  -16.6146 C   0  0  0  0  0  0  0  0  0  0  0  0
   26.6096  -19.6031  -16.0056 C   0  0  0  0  0  0  0  0  0  0  0  0
   27.6165  -18.6668  -15.8976 C   0  0  0  0  0  0  0  0  0  0  0  0
   27.1587  -17.6625  -15.1336 N   0  0  0  0  0  0  0  0  0  0  0  0
   25.8999  -17.9250  -14.7521 C   0  0  0  0  0  0  0  0  0  0  0  0
   25.5690  -19.0924  -15.2763 N   0  0  0  0  0  0  0  0  0  0  0  0
   26.4658  -21.9771  -14.4490 C   0  0  0  0  0  0  0  0  0  0  0  0
   25.3076  -22.4216  -14.1215 O   0  0  0  0  0  0  0  0  0  0  0  0
   27.1816  -21.3931  -13.3704 N   0  0  0  0  0  0  0  0  0  0  0  0
   26.6158  -21.2112  -12.0319 C   0  0  1  0  0  0  0  0  0  0  0  0
   27.5328  -20.4553  -11.1539 C   0  0  0  0  0  0  0  0  0  0  0  0
   26.9710  -20.1931   -9.8252 C   0  0  0  0  0  0  0  0  0  0  0  0
   25.6191  -19.9926   -9.5098 C   0  0  0  0  0  0  0  0  0  0  0  0
   25.4868  -19.7370   -8.1976 N   0  0  0  0  0  0  0  0  0  0  0  0
   26.6992  -19.7570   -7.6078 C   0  0  0  0  0  0  0  0  0  0  0  0
   27.0539  -19.5675   -6.2738 C   0  0  0  0  0  0  0  0  0  0  0  0
   28.3949  -19.6747   -5.9715 C   0  0  0  0  0  0  0  0  0  0  0  0
   29.3327  -19.9541   -6.9360 C   0  0  0  0  0  0  0  0  0  0  0  0
   28.9508  -20.1339   -8.2391 C   0  0  0  0  0  0  0  0  0  0  0  0
   27.6178  -20.0369   -8.6001 C   0  0  0  0  0  0  0  0  0  0  0  0
   25.2536  -20.6924  -12.0466 C   0  0  0  0  0  0  0  0  0  0  0  0
   24.4473  -20.9852  -11.1341 O   0  0  0  0  0  0  0  0  0  0  0  0
   24.7435  -19.8486  -13.0500 O   0  0  0  0  0  0  0  0  0  0  0  0
  2  1  1  1
  2  3  1  0
  4  5  2  0
  4  3  1  0
  6  5  1  0
  7  8  2  0
  7  6  1  0
  8  4  1  0
  9  2  1  0
 10  9  2  0
 11  9  1  0
 12 11  1  0
 12 13  1  6
 14 13  1  0
 14 18  1  0
 15 14  2  0
 16 15  1  0
 16 17  1  0
 17 18  2  0
 19 21  1  0
 19 12  1  0
 20 19  2  0
 22 33  1  0
 22 21  1  0
 22 23  1  1
 24 23  1  0
 24 32  1  0
 25 24  2  0
 26 25  1  0
 26 27  1  0
 27 28  1  0
 27 32  2  0
 28 29  2  0
 29 30  1  0
 31 30  2  0
 32 31  1  0
 33 35  1  0
 34 33  2  0
M  END
$$$$
