HHW.pdb
     RDKit          3D

 35 38  0  0  1  0  0  0  0  0999 V2000
   38.1301  -25.7238    4.4956 N   0  0  0  0  0  0  0  0  0  0  0  0
   38.5859  -24.8806    5.5516 C   0  0  1  0  0  0  0  0  0  0  0  0
   39.2193  -23.5939    5.0923 C   0  0  0  0  0  0  0  0  0  0  0  0
   40.5712  -23.8046    4.5173 C   0  0  0  0  0  0  0  0  0  0  0  0
   41.2014  -25.0210    4.3390 C   0  0  0  0  0  0  0  0  0  0  0  0
   42.4014  -24.7657    3.7917 N   0  0  0  0  0  0  0  0  0  0  0  0
   42.5262  -23.4362    3.6294 C   0  0  0  0  0  0  0  0  0  0  0  0
   41.4026  -22.8520    4.0754 N   0  0  0  0  0  0  0  0  0  0  0  0
   37.4514  -24.5116    6.4912 C   0  0  0  0  0  0  0  0  0  0  0  0
   36.3896  -24.1008    5.9976 O   0  0  0  0  0  0  0  0  0  0  0  0
   37.5780  -24.6235    7.8762 N   0  0  0  0  0  0  0  0  0  0  0  0
   36.6804  -24.4506    8.9420 C   0  0  1  0  0  0  0  0  0  0  0  0
   36.9632  -25.0285   10.2777 C   0  0  0  0  0  0  0  0  0  0  0  0
   37.1701  -26.4641   10.3734 C   0  0  0  0  0  0  0  0  0  0  0  0
   37.0964  -27.5129    9.4808 C   0  0  0  0  0  0  0  0  0  0  0  0
   37.3046  -28.6474   10.1670 N   0  0  0  0  0  0  0  0  0  0  0  0
   37.5077  -28.3597   11.4613 C   0  0  0  0  0  0  0  0  0  0  0  0
   37.4268  -27.0464   11.5861 N   0  0  0  0  0  0  0  0  0  0  0  0
   36.0370  -23.1463    9.0898 C   0  0  0  0  0  0  0  0  0  0  0  0
   36.6499  -22.0723    8.7478 O   0  0  0  0  0  0  0  0  0  0  0  0
   34.7307  -22.9231    9.6000 N   0  0  0  0  0  0  0  0  0  0  0  0
   34.0867  -21.6079    9.6197 C   0  0  1  0  0  0  0  0  0  0  0  0
   33.0742  -21.4841    8.5507 C   0  0  0  0  0  0  0  0  0  0  0  0
   32.3862  -20.1894    8.5575 C   0  0  0  0  0  0  0  0  0  0  0  0
   32.5969  -19.1312    9.4537 C   0  0  0  0  0  0  0  0  0  0  0  0
   31.7544  -18.1217    9.1784 N   0  0  0  0  0  0  0  0  0  0  0  0
   30.9784  -18.4534    8.1267 C   0  0  0  0  0  0  0  0  0  0  0  0
   29.9829  -17.7256    7.4783 C   0  0  0  0  0  0  0  0  0  0  0  0
   29.3757  -18.3360    6.4012 C   0  0  0  0  0  0  0  0  0  0  0  0
   29.7341  -19.5967    5.9889 C   0  0  0  0  0  0  0  0  0  0  0  0
   30.7164  -20.2860    6.6493 C   0  0  0  0  0  0  0  0  0  0  0  0
   31.3595  -19.7224    7.7380 C   0  0  0  0  0  0  0  0  0  0  0  0
   33.6003  -21.2229   10.9389 C   0  0  0  0  0  0  0  0  0  0  0  0
   33.0239  -22.0548   11.6765 O   0  0  0  0  0  0  0  0  0  0  0  0
   33.7308  -19.9307   11.4796 O   0  0  0  0  0  0  0  0  0  0  0  0
  2  1  1  6
  2  3  1  0
  4  5  2  0
  4  3  1  0
  6  5  1  0
  7  8  2  0
  7  6  1  0
  8  4  1  0
  9  2  1  0
 10  9  2  0
 11  9  1  0
 12 11  1  0
 12 13  1  1
 14 13  1  0
 14 18  1  0
 15 14  2  0
 16 15  1  0
 16 17  1  0
 17 18  2  0
 19 21  1  0
 19 12  1  0
 20 19  2  0
 22 33  1  0
 22 21  1  0
 22 23  1  6
 24 23  1  0
 24 32  1  0
 25 24  2  0
 26 25  1  0
 26 27  1  0
 27 28  1  0
 27 32  2  0
 28 29  2  0
 29 30  1  0
 31 30  2  0
 32 31  1  0
 33 35  1  0
 34 33  2  0
M  END
$$$$
