HHW.pdb
     RDKit          3D

 35 38  0  0  1  0  0  0  0  0999 V2000
   13.1255  -19.6066    0.5370 N   0  0  0  0  0  0  0  0  0  0  0  0
   13.4033  -18.8114    1.6879 C   0  0  1  0  0  0  0  0  0  0  0  0
   12.2557  -18.6939    2.6558 C   0  0  0  0  0  0  0  0  0  0  0  0
   11.0824  -18.0088    2.0590 C   0  0  0  0  0  0  0  0  0  0  0  0
    9.8161  -18.5405    1.9096 C   0  0  0  0  0  0  0  0  0  0  0  0
    9.0584  -17.5949    1.3296 N   0  0  0  0  0  0  0  0  0  0  0  0
    9.8173  -16.5043    1.1196 C   0  0  0  0  0  0  0  0  0  0  0  0
   11.0562  -16.7630    1.5680 N   0  0  0  0  0  0  0  0  0  0  0  0
   14.5894  -19.3583    2.4626 C   0  0  0  0  0  0  0  0  0  0  0  0
   14.6413  -20.5802    2.6725 O   0  0  0  0  0  0  0  0  0  0  0  0
   15.6052  -18.5268    2.9353 N   0  0  0  0  0  0  0  0  0  0  0  0
   16.7478  -18.7531    3.7194 C   0  0  1  0  0  0  0  0  0  0  0  0
   17.7646  -17.6909    3.9088 C   0  0  0  0  0  0  0  0  0  0  0  0
   19.0216  -18.0510    4.5439 C   0  0  0  0  0  0  0  0  0  0  0  0
   20.0814  -18.8629    4.1979 C   0  0  0  0  0  0  0  0  0  0  0  0
   20.9353  -18.8816    5.2334 N   0  0  0  0  0  0  0  0  0  0  0  0
   20.4586  -18.1129    6.2237 C   0  0  0  0  0  0  0  0  0  0  0  0
   19.3072  -17.6130    5.8096 N   0  0  0  0  0  0  0  0  0  0  0  0
   16.5887  -19.5163    4.9560 C   0  0  0  0  0  0  0  0  0  0  0  0
   15.6795  -19.2031    5.8054 O   0  0  0  0  0  0  0  0  0  0  0  0
   17.3758  -20.6327    5.3444 N   0  0  0  0  0  0  0  0  0  0  0  0
   17.2213  -21.3205    6.6281 C   0  0  1  0  0  0  0  0  0  0  0  0
   16.9928  -22.7686    6.4431 C   0  0  0  0  0  0  0  0  0  0  0  0
   18.0550  -23.4246    5.6742 C   0  0  0  0  0  0  0  0  0  0  0  0
   19.4051  -23.5400    6.0363 C   0  0  0  0  0  0  0  0  0  0  0  0
   20.0890  -24.1672    5.0650 N   0  0  0  0  0  0  0  0  0  0  0  0
   19.2536  -24.4842    4.0551 C   0  0  0  0  0  0  0  0  0  0  0  0
   19.5029  -25.1497    2.8567 C   0  0  0  0  0  0  0  0  0  0  0  0
   18.4209  -25.3480    2.0253 C   0  0  0  0  0  0  0  0  0  0  0  0
   17.1622  -24.9119    2.3615 C   0  0  0  0  0  0  0  0  0  0  0  0
   16.9511  -24.2595    3.5473 C   0  0  0  0  0  0  0  0  0  0  0  0
   18.0011  -24.0321    4.4204 C   0  0  0  0  0  0  0  0  0  0  0  0
   18.2790  -21.0084    7.5813 C   0  0  0  0  0  0  0  0  0  0  0  0
   19.3527  -20.4893    7.1988 O   0  0  0  0  0  0  0  0  0  0  0  0
   18.1903  -21.2537    8.9637 O   0  0  0  0  0  0  0  0  0  0  0  0
  2  1  1  6
  2  3  1  0
  4  5  2  0
  4  3  1  0
  6  5  1  0
  7  8  2  0
  7  6  1  0
  8  4  1  0
  9  2  1  0
 10  9  2  0
 11  9  1  0
 12 11  1  0
 12 13  1  1
 14 13  1  0
 14 18  1  0
 15 14  2  0
 16 15  1  0
 16 17  1  0
 17 18  2  0
 19 21  1  0
 19 12  1  0
 20 19  2  0
 22 33  1  0
 22 21  1  0
 22 23  1  6
 24 23  1  0
 24 32  1  0
 25 24  2  0
 26 25  1  0
 26 27  1  0
 27 28  1  0
 27 32  2  0
 28 29  2  0
 29 30  1  0
 31 30  2  0
 32 31  1  0
 33 35  1  0
 34 33  2  0
M  END
$$$$
