HHW.pdb
     RDKit          3D

 35 38  0  0  1  0  0  0  0  0999 V2000
   23.2328  -21.9776  -20.9283 N   0  0  0  0  0  0  0  0  0  0  0  0
   22.5556  -21.6587  -19.7144 C   0  0  1  0  0  0  0  0  0  0  0  0
   21.5233  -22.6706  -19.2924 C   0  0  0  0  0  0  0  0  0  0  0  0
   20.3903  -22.7523  -20.2475 C   0  0  0  0  0  0  0  0  0  0  0  0
   19.9898  -23.8761  -20.9440 C   0  0  0  0  0  0  0  0  0  0  0  0
   18.9324  -23.5193  -21.6918 N   0  0  0  0  0  0  0  0  0  0  0  0
   18.6728  -22.2171  -21.4764 C   0  0  0  0  0  0  0  0  0  0  0  0
   19.5687  -21.7519  -20.5911 N   0  0  0  0  0  0  0  0  0  0  0  0
   23.5324  -21.5070  -18.5616 C   0  0  0  0  0  0  0  0  0  0  0  0
   24.1039  -22.5237  -18.1380 O   0  0  0  0  0  0  0  0  0  0  0  0
   23.7951  -20.2667  -17.9791 N   0  0  0  0  0  0  0  0  0  0  0  0
   24.6358  -19.8530  -16.9333 C   0  0  1  0  0  0  0  0  0  0  0  0
   25.2898  -18.5228  -16.9621 C   0  0  0  0  0  0  0  0  0  0  0  0
   26.2095  -18.1881  -15.8873 C   0  0  0  0  0  0  0  0  0  0  0  0
   26.2292  -17.2300  -14.8954 C   0  0  0  0  0  0  0  0  0  0  0  0
   27.3944  -17.3466  -14.2394 N   0  0  0  0  0  0  0  0  0  0  0  0
   28.1157  -18.3417  -14.7766 C   0  0  0  0  0  0  0  0  0  0  0  0
   27.4034  -18.8483  -15.7681 N   0  0  0  0  0  0  0  0  0  0  0  0
   24.2395  -20.1835  -15.5655 C   0  0  0  0  0  0  0  0  0  0  0  0
   23.0571  -19.9170  -15.1447 O   0  0  0  0  0  0  0  0  0  0  0  0
   25.0676  -20.8042  -14.5930 N   0  0  0  0  0  0  0  0  0  0  0  0
   24.6699  -20.9903  -13.1958 C   0  0  1  0  0  0  0  0  0  0  0  0
   25.8280  -21.3290  -12.3431 C   0  0  0  0  0  0  0  0  0  0  0  0
   25.5178  -21.2917  -10.9106 C   0  0  0  0  0  0  0  0  0  0  0  0
   24.5385  -22.0422  -10.2437 C   0  0  0  0  0  0  0  0  0  0  0  0
   24.5138  -21.7113   -8.9418 N   0  0  0  0  0  0  0  0  0  0  0  0
   25.4415  -20.7635   -8.6979 C   0  0  0  0  0  0  0  0  0  0  0  0
   25.7909  -20.1325   -7.5058 C   0  0  0  0  0  0  0  0  0  0  0  0
   26.8124  -19.2089   -7.5739 C   0  0  0  0  0  0  0  0  0  0  0  0
   27.4525  -18.9256   -8.7562 C   0  0  0  0  0  0  0  0  0  0  0  0
   27.0838  -19.5632   -9.9111 C   0  0  0  0  0  0  0  0  0  0  0  0
   26.0640  -20.4994   -9.9018 C   0  0  0  0  0  0  0  0  0  0  0  0
   23.8561  -19.8978  -12.6769 C   0  0  0  0  0  0  0  0  0  0  0  0
   24.0771  -18.7147  -13.0230 O   0  0  0  0  0  0  0  0  0  0  0  0
   22.7903  -20.0700  -11.7750 O   0  0  0  0  0  0  0  0  0  0  0  0
  2  1  1  6
  2  3  1  0
  4  5  2  0
  4  3  1  0
  6  5  1  0
  7  8  2  0
  7  6  1  0
  8  4  1  0
  9  2  1  0
 10  9  2  0
 11  9  1  0
 12 11  1  0
 12 13  1  1
 14 13  1  0
 14 18  1  0
 15 14  2  0
 16 15  1  0
 16 17  1  0
 17 18  2  0
 19 21  1  0
 19 12  1  0
 20 19  2  0
 22 33  1  0
 22 21  1  0
 22 23  1  1
 24 23  1  0
 24 32  1  0
 25 24  2  0
 26 25  1  0
 26 27  1  0
 27 28  1  0
 27 32  2  0
 28 29  2  0
 29 30  1  0
 31 30  2  0
 32 31  1  0
 33 35  1  0
 34 33  2  0
M  END
$$$$
