HHW.pdb
     RDKit          3D

 35 38  0  0  1  0  0  0  0  0999 V2000
   14.9604  -17.9130    3.1852 N   0  0  0  0  0  0  0  0  0  0  0  0
   15.2933  -18.1096    4.5580 C   0  0  1  0  0  0  0  0  0  0  0  0
   15.2559  -19.5460    5.0086 C   0  0  0  0  0  0  0  0  0  0  0  0
   13.9396  -20.1827    4.7549 C   0  0  0  0  0  0  0  0  0  0  0  0
   13.6871  -21.2070    3.8629 C   0  0  0  0  0  0  0  0  0  0  0  0
   12.3754  -21.4853    3.9447 N   0  0  0  0  0  0  0  0  0  0  0  0
   11.8179  -20.6670    4.8553 C   0  0  0  0  0  0  0  0  0  0  0  0
   12.7801  -19.8710    5.3485 N   0  0  0  0  0  0  0  0  0  0  0  0
   16.6807  -17.5774    4.8704 C   0  0  0  0  0  0  0  0  0  0  0  0
   17.5852  -17.7734    4.0439 O   0  0  0  0  0  0  0  0  0  0  0  0
   16.9535  -16.8838    6.0500 N   0  0  0  0  0  0  0  0  0  0  0  0
   18.0782  -16.1855    6.5179 C   0  0  1  0  0  0  0  0  0  0  0  0
   18.0326  -14.7180    6.7243 C   0  0  0  0  0  0  0  0  0  0  0  0
   17.9415  -13.8637    5.5518 C   0  0  0  0  0  0  0  0  0  0  0  0
   16.9063  -13.2351    4.8920 C   0  0  0  0  0  0  0  0  0  0  0  0
   17.4174  -12.6461    3.7995 N   0  0  0  0  0  0  0  0  0  0  0  0
   18.7375  -12.8764    3.7400 C   0  0  0  0  0  0  0  0  0  0  0  0
   19.0534  -13.6090    4.7939 N   0  0  0  0  0  0  0  0  0  0  0  0
   18.8850  -16.8107    7.5645 C   0  0  0  0  0  0  0  0  0  0  0  0
   18.3260  -17.3665    8.5768 O   0  0  0  0  0  0  0  0  0  0  0  0
   20.3035  -16.8749    7.5860 N   0  0  0  0  0  0  0  0  0  0  0  0
   21.0654  -17.5113    8.6629 C   0  0  1  0  0  0  0  0  0  0  0  0
   22.4612  -17.7751    8.2565 C   0  0  0  0  0  0  0  0  0  0  0  0
   23.2723  -18.3578    9.3300 C   0  0  0  0  0  0  0  0  0  0  0  0
   23.3315  -19.7100    9.6981 C   0  0  0  0  0  0  0  0  0  0  0  0
   24.1495  -19.8633   10.7526 N   0  0  0  0  0  0  0  0  0  0  0  0
   24.6503  -18.6650   11.1154 C   0  0  0  0  0  0  0  0  0  0  0  0
   25.5452  -18.3341   12.1307 C   0  0  0  0  0  0  0  0  0  0  0  0
   25.8906  -17.0036   12.2382 C   0  0  0  0  0  0  0  0  0  0  0  0
   25.3788  -16.0534   11.3879 C   0  0  0  0  0  0  0  0  0  0  0  0
   24.4998  -16.4120   10.4004 C   0  0  0  0  0  0  0  0  0  0  0  0
   24.1172  -17.7336   10.2466 C   0  0  0  0  0  0  0  0  0  0  0  0
   20.9446  -16.8212    9.9412 C   0  0  0  0  0  0  0  0  0  0  0  0
   20.8506  -15.5733    9.9886 O   0  0  0  0  0  0  0  0  0  0  0  0
   20.9239  -17.4722   11.1882 O   0  0  0  0  0  0  0  0  0  0  0  0
  2  1  1  6
  2  3  1  0
  4  5  2  0
  4  3  1  0
  6  5  1  0
  7  8  2  0
  7  6  1  0
  8  4  1  0
  9  2  1  0
 10  9  2  0
 11  9  1  0
 12 11  1  0
 12 13  1  1
 14 13  1  0
 14 18  1  0
 15 14  2  0
 16 15  1  0
 16 17  1  0
 17 18  2  0
 19 21  1  0
 19 12  1  0
 20 19  2  0
 22 33  1  0
 22 21  1  0
 22 23  1  6
 24 23  1  0
 24 32  1  0
 25 24  2  0
 26 25  1  0
 26 27  1  0
 27 28  1  0
 27 32  2  0
 28 29  2  0
 29 30  1  0
 31 30  2  0
 32 31  1  0
 33 35  1  0
 34 33  2  0
M  END
$$$$
