HHW.pdb
     RDKit          3D

 35 38  0  0  1  0  0  0  0  0999 V2000
   26.6788  -18.1582  -16.6204 N   0  0  0  0  0  0  0  0  0  0  0  0
   27.5254  -18.7234  -15.6215 C   0  0  1  0  0  0  0  0  0  0  0  0
   28.8239  -17.9887  -15.4167 C   0  0  0  0  0  0  0  0  0  0  0  0
   29.5072  -17.6831  -16.6981 C   0  0  0  0  0  0  0  0  0  0  0  0
   30.1723  -18.5868  -17.5039 C   0  0  0  0  0  0  0  0  0  0  0  0
   30.6409  -17.9015  -18.5601 N   0  0  0  0  0  0  0  0  0  0  0  0
   30.2853  -16.6110  -18.4277 C   0  0  0  0  0  0  0  0  0  0  0  0
   29.5912  -16.4823  -17.2855 N   0  0  0  0  0  0  0  0  0  0  0  0
   26.8260  -18.7821  -14.2748 C   0  0  0  0  0  0  0  0  0  0  0  0
   26.9700  -17.8272  -13.4957 O   0  0  0  0  0  0  0  0  0  0  0  0
   26.0377  -19.8716  -13.9029 N   0  0  0  0  0  0  0  0  0  0  0  0
   25.2097  -20.1281  -12.7983 C   0  0  1  0  0  0  0  0  0  0  0  0
   23.8651  -20.7268  -12.9766 C   0  0  0  0  0  0  0  0  0  0  0  0
   23.0228  -20.8818  -11.8021 C   0  0  0  0  0  0  0  0  0  0  0  0
   22.6377  -21.9529  -11.0233 C   0  0  0  0  0  0  0  0  0  0  0  0
   21.7624  -21.5003  -10.1119 N   0  0  0  0  0  0  0  0  0  0  0  0
   21.5766  -20.1829  -10.2819 C   0  0  0  0  0  0  0  0  0  0  0  0
   22.3345  -19.8102  -11.2986 N   0  0  0  0  0  0  0  0  0  0  0  0
   25.8318  -20.6539  -11.5844 C   0  0  0  0  0  0  0  0  0  0  0  0
   26.4837  -21.7587  -11.6095 O   0  0  0  0  0  0  0  0  0  0  0  0
   25.7924  -20.0405  -10.3042 N   0  0  0  0  0  0  0  0  0  0  0  0
   26.3390  -20.6615   -9.0956 C   0  0  1  0  0  0  0  0  0  0  0  0
   27.5294  -19.9368   -8.6049 C   0  0  0  0  0  0  0  0  0  0  0  0
   27.9832  -20.4003   -7.2899 C   0  0  0  0  0  0  0  0  0  0  0  0
   28.2402  -21.7256   -6.9094 C   0  0  0  0  0  0  0  0  0  0  0  0
   28.5973  -21.7706   -5.6151 N   0  0  0  0  0  0  0  0  0  0  0  0
   28.5939  -20.5242   -5.1007 C   0  0  0  0  0  0  0  0  0  0  0  0
   28.9101  -20.0792   -3.8188 C   0  0  0  0  0  0  0  0  0  0  0  0
   28.8337  -18.7196   -3.6021 C   0  0  0  0  0  0  0  0  0  0  0  0
   28.4648  -17.8489   -4.5989 C   0  0  0  0  0  0  0  0  0  0  0  0
   28.1590  -18.3193   -5.8486 C   0  0  0  0  0  0  0  0  0  0  0  0
   28.2180  -19.6750   -6.1226 C   0  0  0  0  0  0  0  0  0  0  0  0
   25.3345  -20.9078   -8.0683 C   0  0  0  0  0  0  0  0  0  0  0  0
   24.2816  -20.2309   -8.0273 O   0  0  0  0  0  0  0  0  0  0  0  0
   25.4551  -21.8909   -7.0693 O   0  0  0  0  0  0  0  0  0  0  0  0
  2  1  1  6
  2  3  1  0
  4  5  2  0
  4  3  1  0
  6  5  1  0
  7  8  2  0
  7  6  1  0
  8  4  1  0
  9  2  1  0
 10  9  2  0
 11  9  1  0
 12 11  1  0
 12 13  1  6
 14 13  1  0
 14 18  1  0
 15 14  2  0
 16 15  1  0
 16 17  1  0
 17 18  2  0
 19 21  1  0
 19 12  1  0
 20 19  2  0
 22 33  1  0
 22 21  1  0
 22 23  1  1
 24 23  1  0
 24 32  1  0
 25 24  2  0
 26 25  1  0
 26 27  1  0
 27 28  1  0
 27 32  2  0
 28 29  2  0
 29 30  1  0
 31 30  2  0
 32 31  1  0
 33 35  1  0
 34 33  2  0
M  END
$$$$
