HHW.pdb
     RDKit          3D

 35 38  0  0  1  0  0  0  0  0999 V2000
   19.6189  -10.4013  -21.1591 N   0  0  0  0  0  0  0  0  0  0  0  0
   19.7532  -11.7655  -20.7652 C   0  0  1  0  0  0  0  0  0  0  0  0
   21.0188  -12.4293  -21.2398 C   0  0  0  0  0  0  0  0  0  0  0  0
   21.1175  -12.4622  -22.7202 C   0  0  0  0  0  0  0  0  0  0  0  0
   20.8887  -13.5586  -23.5290 C   0  0  0  0  0  0  0  0  0  0  0  0
   21.0839  -13.1597  -24.7968 N   0  0  0  0  0  0  0  0  0  0  0  0
   21.4239  -11.8582  -24.7909 C   0  0  0  0  0  0  0  0  0  0  0  0
   21.4431  -11.4357  -23.5165 N   0  0  0  0  0  0  0  0  0  0  0  0
   19.7104  -11.9097  -19.2542 C   0  0  0  0  0  0  0  0  0  0  0  0
   20.2123  -11.0093  -18.5634 O   0  0  0  0  0  0  0  0  0  0  0  0
   19.1273  -13.0173  -18.6377 N   0  0  0  0  0  0  0  0  0  0  0  0
   18.8147  -13.3227  -17.3033 C   0  0  1  0  0  0  0  0  0  0  0  0
   17.5996  -12.7687  -16.6594 C   0  0  0  0  0  0  0  0  0  0  0  0
   17.4712  -11.3238  -16.5670 C   0  0  0  0  0  0  0  0  0  0  0  0
   17.8191  -10.3809  -15.6225 C   0  0  0  0  0  0  0  0  0  0  0  0
   17.3634   -9.1918  -16.0466 N   0  0  0  0  0  0  0  0  0  0  0  0
   16.7392   -9.3430  -17.2242 C   0  0  0  0  0  0  0  0  0  0  0  0
   16.8037  -10.6254  -17.5378 N   0  0  0  0  0  0  0  0  0  0  0  0
   19.0418  -14.6917  -16.8435 C   0  0  0  0  0  0  0  0  0  0  0  0
   18.5897  -15.6893  -17.5117 O   0  0  0  0  0  0  0  0  0  0  0  0
   19.7499  -15.0616  -15.6695 N   0  0  0  0  0  0  0  0  0  0  0  0
   19.9428  -16.4511  -15.2486 C   0  0  1  0  0  0  0  0  0  0  0  0
   20.8880  -16.5484  -14.1171 C   0  0  0  0  0  0  0  0  0  0  0  0
   21.1385  -17.9298  -13.6942 C   0  0  0  0  0  0  0  0  0  0  0  0
   22.1241  -18.7947  -14.1920 C   0  0  0  0  0  0  0  0  0  0  0  0
   22.0251  -19.9949  -13.5964 N   0  0  0  0  0  0  0  0  0  0  0  0
   21.0087  -19.9783  -12.7105 C   0  0  0  0  0  0  0  0  0  0  0  0
   20.5447  -20.9754  -11.8550 C   0  0  0  0  0  0  0  0  0  0  0  0
   19.4855  -20.6422  -11.0375 C   0  0  0  0  0  0  0  0  0  0  0  0
   18.9172  -19.3916  -11.0652 C   0  0  0  0  0  0  0  0  0  0  0  0
   19.3967  -18.4339  -11.9192 C   0  0  0  0  0  0  0  0  0  0  0  0
   20.4579  -18.7132  -12.7632 C   0  0  0  0  0  0  0  0  0  0  0  0
   18.6919  -17.1684  -15.0343 C   0  0  0  0  0  0  0  0  0  0  0  0
   17.7451  -16.6327  -14.4138 O   0  0  0  0  0  0  0  0  0  0  0  0
   18.4473  -18.4771  -15.4887 O   0  0  0  0  0  0  0  0  0  0  0  0
  2  1  1  1
  2  3  1  0
  4  5  2  0
  4  3  1  0
  6  5  1  0
  7  8  2  0
  7  6  1  0
  8  4  1  0
  9  2  1  0
 10  9  2  0
 11  9  1  0
 12 11  1  0
 12 13  1  6
 14 13  1  0
 14 18  1  0
 15 14  2  0
 16 15  1  0
 16 17  1  0
 17 18  2  0
 19 21  1  0
 19 12  1  0
 20 19  2  0
 22 33  1  0
 22 21  1  0
 22 23  1  1
 24 23  1  0
 24 32  1  0
 25 24  2  0
 26 25  1  0
 26 27  1  0
 27 28  1  0
 27 32  2  0
 28 29  2  0
 29 30  1  0
 31 30  2  0
 32 31  1  0
 33 35  1  0
 34 33  2  0
M  END
$$$$
