DDD.pdb
     RDKit          3D

 25 24  0  0  1  0  0  0  0  0999 V2000
   13.5332  -12.6104  -13.4873 N   0  0  0  0  0  0  0  0  0  0  0  0
   14.8629  -12.9970  -13.9324 C   0  0  1  0  0  0  0  0  0  0  0  0
   14.7146  -14.1730  -14.8821 C   0  0  0  0  0  0  0  0  0  0  0  0
   14.2397  -15.3321  -14.0878 C   0  0  0  0  0  0  0  0  0  0  0  0
   14.7335  -15.5489  -12.9612 O   0  0  0  0  0  0  0  0  0  0  0  0
   15.5552  -11.8683  -14.5942 C   0  0  0  0  0  0  0  0  0  0  0  0
   16.6186  -12.0591  -15.2205 O   0  0  0  0  0  0  0  0  0  0  0  0
   13.2564  -16.1704  -14.5866 O   0  0  0  0  0  0  0  0  0  0  0  0
   15.0135  -10.5660  -14.5201 N   0  0  0  0  0  0  0  0  0  0  0  0
   15.5921   -9.4602  -15.2465 C   0  0  1  0  0  0  0  0  0  0  0  0
   14.6331   -8.3264  -15.4808 C   0  0  0  0  0  0  0  0  0  0  0  0
   13.4516   -8.7581  -16.2652 C   0  0  0  0  0  0  0  0  0  0  0  0
   13.6129   -9.1359  -17.4369 O   0  0  0  0  0  0  0  0  0  0  0  0
   16.8425   -9.0005  -14.5872 C   0  0  0  0  0  0  0  0  0  0  0  0
   16.8013   -8.7324  -13.3612 O   0  0  0  0  0  0  0  0  0  0  0  0
   12.1918   -8.7450  -15.7178 O   0  0  0  0  0  0  0  0  0  0  0  0
   18.0645   -8.8525  -15.2714 N   0  0  0  0  0  0  0  0  0  0  0  0
   19.2834   -8.4294  -14.5620 C   0  0  1  0  0  0  0  0  0  0  0  0
   20.4711   -9.1290  -15.1718 C   0  0  0  0  0  0  0  0  0  0  0  0
   21.7317   -8.6914  -14.6024 C   0  0  0  0  0  0  0  0  0  0  0  0
   21.8347   -8.5872  -13.3399 O   0  0  0  0  0  0  0  0  0  0  0  0
   19.4422   -6.9645  -14.8641 C   0  0  0  0  0  0  0  0  0  0  0  0
   18.9325   -6.4230  -15.8810 O   0  0  0  0  0  0  0  0  0  0  0  0
   22.8183   -8.3847  -15.3972 O   0  0  0  0  0  0  0  0  0  0  0  0
   20.1723   -6.1945  -13.9929 O   0  0  0  0  0  0  0  0  0  0  0  0
  2  1  1  6
  2  6  1  0
  3  2  1  0
  4  3  1  0
  5  4  2  0
  6  7  2  0
  8  4  1  0
  9  6  1  0
  9 10  1  0
 10 14  1  0
 10 11  1  1
 12 11  1  0
 13 12  2  0
 14 17  1  0
 15 14  2  0
 16 12  1  0
 17 18  1  0
 18 19  1  6
 19 20  1  0
 20 24  1  0
 21 20  2  0
 22 25  1  0
 22 18  1  0
 23 22  2  0
M  END
$$$$
