DDD.pdb
     RDKit          3D

 25 24  0  0  1  0  0  0  0  0999 V2000
   18.8647  -12.9239  -15.4538 N   0  0  0  0  0  0  0  0  0  0  0  0
   19.5491  -13.4663  -16.6171 C   0  0  1  0  0  0  0  0  0  0  0  0
   18.5064  -14.1076  -17.5163 C   0  0  0  0  0  0  0  0  0  0  0  0
   17.7811  -15.1188  -16.7094 C   0  0  0  0  0  0  0  0  0  0  0  0
   16.9018  -14.7470  -15.9039 O   0  0  0  0  0  0  0  0  0  0  0  0
   20.2930  -12.4110  -17.3409 C   0  0  0  0  0  0  0  0  0  0  0  0
   21.0523  -12.7086  -18.2867 O   0  0  0  0  0  0  0  0  0  0  0  0
   18.0724  -16.4662  -16.8443 O   0  0  0  0  0  0  0  0  0  0  0  0
   20.1463  -11.0578  -16.9637 N   0  0  0  0  0  0  0  0  0  0  0  0
   20.8705  -10.0008  -17.6297 C   0  0  1  0  0  0  0  0  0  0  0  0
   20.6791   -9.9872  -19.1208 C   0  0  0  0  0  0  0  0  0  0  0  0
   21.4493   -8.8964  -19.7647 C   0  0  0  0  0  0  0  0  0  0  0  0
   20.8433   -7.8935  -20.1753 O   0  0  0  0  0  0  0  0  0  0  0  0
   20.5509   -8.6842  -17.0184 C   0  0  0  0  0  0  0  0  0  0  0  0
   19.3423   -8.3849  -16.8555 O   0  0  0  0  0  0  0  0  0  0  0  0
   22.8124   -8.9803  -19.9123 O   0  0  0  0  0  0  0  0  0  0  0  0
   21.5364   -7.7623  -16.6159 N   0  0  0  0  0  0  0  0  0  0  0  0
   21.2650   -6.7786  -15.5544 C   0  0  1  0  0  0  0  0  0  0  0  0
   22.4853   -6.6568  -14.6780 C   0  0  0  0  0  0  0  0  0  0  0  0
   22.3294   -5.6585  -13.6368 C   0  0  0  0  0  0  0  0  0  0  0  0
   21.6934   -5.9645  -12.5798 O   0  0  0  0  0  0  0  0  0  0  0  0
   21.1024   -5.4578  -16.2554 C   0  0  0  0  0  0  0  0  0  0  0  0
   20.7354   -4.4126  -15.6554 O   0  0  0  0  0  0  0  0  0  0  0  0
   22.8525   -4.3874  -13.7674 O   0  0  0  0  0  0  0  0  0  0  0  0
   21.3665   -5.3972  -17.6013 O   0  0  0  0  0  0  0  0  0  0  0  0
  2  1  1  1
  2  6  1  0
  3  2  1  0
  4  3  1  0
  5  4  2  0
  6  7  2  0
  8  4  1  0
  9  6  1  0
  9 10  1  0
 10 14  1  0
 10 11  1  6
 12 11  1  0
 13 12  2  0
 14 17  1  0
 15 14  2  0
 16 12  1  0
 17 18  1  0
 18 19  1  1
 19 20  1  0
 20 24  1  0
 21 20  2  0
 22 25  1  0
 22 18  1  0
 23 22  2  0
M  END
$$$$
