DDD.pdb
     RDKit          3D

 25 24  0  0  1  0  0  0  0  0999 V2000
   14.3019   -6.1777   -9.6019 N   0  0  0  0  0  0  0  0  0  0  0  0
   15.4092   -6.6527   -8.7870 C   0  0  1  0  0  0  0  0  0  0  0  0
   14.8314   -7.4634   -7.6399 C   0  0  0  0  0  0  0  0  0  0  0  0
   13.8471   -6.6051   -6.9369 C   0  0  0  0  0  0  0  0  0  0  0  0
   14.2492   -5.6306   -6.2670 O   0  0  0  0  0  0  0  0  0  0  0  0
   16.3517   -7.4672   -9.5867 C   0  0  0  0  0  0  0  0  0  0  0  0
   17.3746   -7.9507   -9.0581 O   0  0  0  0  0  0  0  0  0  0  0  0
   12.4915   -6.8774   -7.0196 O   0  0  0  0  0  0  0  0  0  0  0  0
   16.0967   -7.7021  -10.9559 N   0  0  0  0  0  0  0  0  0  0  0  0
   17.0531   -8.3764  -11.8018 C   0  0  1  0  0  0  0  0  0  0  0  0
   16.4201   -9.2641  -12.8370 C   0  0  0  0  0  0  0  0  0  0  0  0
   15.7142  -10.4125  -12.2200 C   0  0  0  0  0  0  0  0  0  0  0  0
   14.4729  -10.4344  -12.2362 O   0  0  0  0  0  0  0  0  0  0  0  0
   17.9917   -7.3979  -12.4108 C   0  0  0  0  0  0  0  0  0  0  0  0
   17.5755   -6.2329  -12.6253 O   0  0  0  0  0  0  0  0  0  0  0  0
   16.4092  -11.4430  -11.6354 O   0  0  0  0  0  0  0  0  0  0  0  0
   19.3193   -7.7164  -12.7562 N   0  0  0  0  0  0  0  0  0  0  0  0
   20.2229   -6.6956  -13.3126 C   0  0  1  0  0  0  0  0  0  0  0  0
   21.5090   -7.3593  -13.7339 C   0  0  0  0  0  0  0  0  0  0  0  0
   22.4235   -6.4430  -14.3889 C   0  0  0  0  0  0  0  0  0  0  0  0
   22.5580   -5.2682  -13.9229 O   0  0  0  0  0  0  0  0  0  0  0  0
   19.5578   -6.2047  -14.5692 C   0  0  0  0  0  0  0  0  0  0  0  0
   19.4679   -4.9810  -14.8549 O   0  0  0  0  0  0  0  0  0  0  0  0
   23.1474   -6.8152  -15.5041 O   0  0  0  0  0  0  0  0  0  0  0  0
   19.0309   -7.1325  -15.4331 O   0  0  0  0  0  0  0  0  0  0  0  0
  2  1  1  6
  2  6  1  0
  3  2  1  0
  4  3  1  0
  5  4  2  0
  6  7  2  0
  8  4  1  0
  9  6  1  0
  9 10  1  0
 10 14  1  0
 10 11  1  6
 12 11  1  0
 13 12  2  0
 14 17  1  0
 15 14  2  0
 16 12  1  0
 17 18  1  0
 18 19  1  6
 19 20  1  0
 20 24  1  0
 21 20  2  0
 22 25  1  0
 22 18  1  0
 23 22  2  0
M  END
$$$$
