DDD.pdb
     RDKit          3D

 25 24  0  0  1  0  0  0  0  0999 V2000
   14.4659  -12.0040  -13.7734 N   0  0  0  0  0  0  0  0  0  0  0  0
   15.4003  -12.1280  -14.8812 C   0  0  1  0  0  0  0  0  0  0  0  0
   14.6771  -12.8121  -16.0284 C   0  0  0  0  0  0  0  0  0  0  0  0
   14.1682  -14.1111  -15.5250 C   0  0  0  0  0  0  0  0  0  0  0  0
   12.9841  -14.1988  -15.1375 O   0  0  0  0  0  0  0  0  0  0  0  0
   15.9163  -10.8045  -15.2971 C   0  0  0  0  0  0  0  0  0  0  0  0
   16.7699  -10.7157  -16.2043 O   0  0  0  0  0  0  0  0  0  0  0  0
   14.9953  -15.2214  -15.4831 O   0  0  0  0  0  0  0  0  0  0  0  0
   15.4433   -9.6320  -14.6674 N   0  0  0  0  0  0  0  0  0  0  0  0
   15.9241   -8.3225  -15.0408 C   0  0  1  0  0  0  0  0  0  0  0  0
   14.9851   -7.2085  -14.6701 C   0  0  0  0  0  0  0  0  0  0  0  0
   15.5048   -5.8865  -15.0943 C   0  0  0  0  0  0  0  0  0  0  0  0
   16.3903   -5.8391  -15.9633 O   0  0  0  0  0  0  0  0  0  0  0  0
   17.2913   -8.0962  -14.5034 C   0  0  0  0  0  0  0  0  0  0  0  0
   17.4780   -8.2593  -13.2724 O   0  0  0  0  0  0  0  0  0  0  0  0
   15.0241   -4.7238  -14.5430 O   0  0  0  0  0  0  0  0  0  0  0  0
   18.3807   -7.7092  -15.3075 N   0  0  0  0  0  0  0  0  0  0  0  0
   19.7358   -7.5943  -14.7429 C   0  0  1  0  0  0  0  0  0  0  0  0
   20.5133   -8.8402  -15.0822 C   0  0  0  0  0  0  0  0  0  0  0  0
   21.8966   -8.7720  -14.6499 C   0  0  0  0  0  0  0  0  0  0  0  0
   22.1918   -8.0615  -13.6382 O   0  0  0  0  0  0  0  0  0  0  0  0
   20.3905   -6.4607  -15.4836 C   0  0  0  0  0  0  0  0  0  0  0  0
   19.9286   -5.9984  -16.5607 O   0  0  0  0  0  0  0  0  0  0  0  0
   22.8969   -9.4571  -15.3104 O   0  0  0  0  0  0  0  0  0  0  0  0
   21.5353   -5.9140  -14.9589 O   0  0  0  0  0  0  0  0  0  0  0  0
  2  1  1  1
  2  6  1  0
  3  2  1  0
  4  3  1  0
  5  4  2  0
  6  7  2  0
  8  4  1  0
  9  6  1  0
  9 10  1  0
 10 14  1  0
 10 11  1  1
 12 11  1  0
 13 12  2  0
 14 17  1  0
 15 14  2  0
 16 12  1  0
 17 18  1  0
 18 19  1  6
 19 20  1  0
 20 24  1  0
 21 20  2  0
 22 25  1  0
 22 18  1  0
 23 22  2  0
M  END
$$$$
