DDD.pdb
     RDKit          3D

 25 24  0  0  1  0  0  0  0  0999 V2000
   14.7559  -13.3108  -15.7220 N   0  0  0  0  0  0  0  0  0  0  0  0
   15.9921  -12.6319  -15.3662 C   0  0  1  0  0  0  0  0  0  0  0  0
   17.1501  -13.5340  -15.7565 C   0  0  0  0  0  0  0  0  0  0  0  0
   17.0762  -14.7486  -14.9085 C   0  0  0  0  0  0  0  0  0  0  0  0
   16.3454  -14.7475  -13.8955 O   0  0  0  0  0  0  0  0  0  0  0  0
   16.0952  -11.3188  -16.0416 C   0  0  0  0  0  0  0  0  0  0  0  0
   15.9713  -11.2345  -17.2814 O   0  0  0  0  0  0  0  0  0  0  0  0
   17.8094  -15.8780  -15.2331 O   0  0  0  0  0  0  0  0  0  0  0  0
   16.3346  -10.1512  -15.2837 N   0  0  0  0  0  0  0  0  0  0  0  0
   16.4943   -8.8593  -15.9088 C   0  0  1  0  0  0  0  0  0  0  0  0
   15.2230   -8.0590  -15.9695 C   0  0  0  0  0  0  0  0  0  0  0  0
   15.4119   -6.7799  -16.6947 C   0  0  0  0  0  0  0  0  0  0  0  0
   16.4506   -6.6097  -17.3532 O   0  0  0  0  0  0  0  0  0  0  0  0
   17.5963   -8.0998  -15.2622 C   0  0  0  0  0  0  0  0  0  0  0  0
   17.4857   -7.8182  -14.0435 O   0  0  0  0  0  0  0  0  0  0  0  0
   14.4616   -5.7892  -16.6474 O   0  0  0  0  0  0  0  0  0  0  0  0
   18.7523   -7.6838  -15.9506 N   0  0  0  0  0  0  0  0  0  0  0  0
   19.8565   -7.0153  -15.2419 C   0  0  1  0  0  0  0  0  0  0  0  0
   21.1594   -7.6449  -15.6637 C   0  0  0  0  0  0  0  0  0  0  0  0
   21.6201   -8.6564  -14.7312 C   0  0  0  0  0  0  0  0  0  0  0  0
   21.0523   -8.7548  -13.5984 O   0  0  0  0  0  0  0  0  0  0  0  0
   19.8729   -5.6017  -15.7556 C   0  0  0  0  0  0  0  0  0  0  0  0
   20.6830   -4.7355  -15.3305 O   0  0  0  0  0  0  0  0  0  0  0  0
   22.6587   -9.5109  -15.0436 O   0  0  0  0  0  0  0  0  0  0  0  0
   18.9671   -5.2498  -16.7253 O   0  0  0  0  0  0  0  0  0  0  0  0
  2  1  1  6
  2  6  1  0
  3  2  1  0
  4  3  1  0
  5  4  2  0
  6  7  2  0
  8  4  1  0
  9  6  1  0
  9 10  1  0
 10 14  1  0
 10 11  1  1
 12 11  1  0
 13 12  2  0
 14 17  1  0
 15 14  2  0
 16 12  1  0
 17 18  1  0
 18 19  1  6
 19 20  1  0
 20 24  1  0
 21 20  2  0
 22 25  1  0
 22 18  1  0
 23 22  2  0
M  END
$$$$
