DDD.pdb
     RDKit          3D

 25 24  0  0  1  0  0  0  0  0999 V2000
   14.1409  -12.8376  -10.7231 N   0  0  0  0  0  0  0  0  0  0  0  0
   13.7207  -11.5798  -11.3208 C   0  0  1  0  0  0  0  0  0  0  0  0
   12.4787  -11.1051  -10.5865 C   0  0  0  0  0  0  0  0  0  0  0  0
   11.4188  -12.1209  -10.7976 C   0  0  0  0  0  0  0  0  0  0  0  0
   11.4923  -12.8914  -11.7779 O   0  0  0  0  0  0  0  0  0  0  0  0
   14.7969  -10.5662  -11.2474 C   0  0  0  0  0  0  0  0  0  0  0  0
   15.3738  -10.3345  -10.1644 O   0  0  0  0  0  0  0  0  0  0  0  0
   10.3539  -12.2188   -9.9173 O   0  0  0  0  0  0  0  0  0  0  0  0
   15.1775   -9.8546  -12.4065 N   0  0  0  0  0  0  0  0  0  0  0  0
   16.2807   -8.9228  -12.3978 C   0  0  1  0  0  0  0  0  0  0  0  0
   17.0519   -8.8911  -13.6879 C   0  0  0  0  0  0  0  0  0  0  0  0
   17.7512  -10.1732  -13.9427 C   0  0  0  0  0  0  0  0  0  0  0  0
   18.3304  -10.7396  -13.0019 O   0  0  0  0  0  0  0  0  0  0  0  0
   15.8164   -7.5688  -11.9969 C   0  0  0  0  0  0  0  0  0  0  0  0
   14.8145   -7.0891  -12.5823 O   0  0  0  0  0  0  0  0  0  0  0  0
   17.7670  -10.7373  -15.1951 O   0  0  0  0  0  0  0  0  0  0  0  0
   16.4458   -6.8038  -10.9960 N   0  0  0  0  0  0  0  0  0  0  0  0
   15.9545   -5.4599  -10.6485 C   0  0  1  0  0  0  0  0  0  0  0  0
   16.3376   -5.1534   -9.2233 C   0  0  0  0  0  0  0  0  0  0  0  0
   15.9541   -3.8147   -8.8160 C   0  0  0  0  0  0  0  0  0  0  0  0
   15.1865   -3.1374   -9.5693 O   0  0  0  0  0  0  0  0  0  0  0  0
   16.7270   -4.5067  -11.5185 C   0  0  0  0  0  0  0  0  0  0  0  0
   17.8351   -4.8081  -12.0367 O   0  0  0  0  0  0  0  0  0  0  0  0
   16.4033   -3.2602   -7.6341 O   0  0  0  0  0  0  0  0  0  0  0  0
   16.1971   -3.2620  -11.7524 O   0  0  0  0  0  0  0  0  0  0  0  0
  2  1  1  1
  2  6  1  0
  3  2  1  0
  4  3  1  0
  5  4  2  0
  6  7  2  0
  8  4  1  0
  9  6  1  0
  9 10  1  0
 10 14  1  0
 10 11  1  6
 12 11  1  0
 13 12  2  0
 14 17  1  0
 15 14  2  0
 16 12  1  0
 17 18  1  0
 18 19  1  1
 19 20  1  0
 20 24  1  0
 21 20  2  0
 22 25  1  0
 22 18  1  0
 23 22  2  0
M  END
$$$$
