DDD.pdb
     RDKit          3D

 25 24  0  0  1  0  0  0  0  0999 V2000
   21.0815  -10.7324  -16.9922 N   0  0  0  0  0  0  0  0  0  0  0  0
   20.6412  -10.2074  -18.2753 C   0  0  1  0  0  0  0  0  0  0  0  0
   20.0987  -11.3665  -19.0935 C   0  0  0  0  0  0  0  0  0  0  0  0
   21.2408  -12.2526  -19.4255 C   0  0  0  0  0  0  0  0  0  0  0  0
   21.7226  -12.9918  -18.5414 O   0  0  0  0  0  0  0  0  0  0  0  0
   19.6121   -9.1581  -18.0997 C   0  0  0  0  0  0  0  0  0  0  0  0
   19.1415   -8.5624  -19.0913 O   0  0  0  0  0  0  0  0  0  0  0  0
   21.7725  -12.2644  -20.7045 O   0  0  0  0  0  0  0  0  0  0  0  0
   19.1560   -8.8253  -16.8051 N   0  0  0  0  0  0  0  0  0  0  0  0
   18.1478   -7.8137  -16.5917 C   0  0  1  0  0  0  0  0  0  0  0  0
   17.0890   -8.2183  -15.6041 C   0  0  0  0  0  0  0  0  0  0  0  0
   16.0679   -7.1584  -15.4266 C   0  0  0  0  0  0  0  0  0  0  0  0
   15.1835   -7.0250  -16.2878 O   0  0  0  0  0  0  0  0  0  0  0  0
   18.7783   -6.5178  -16.2276 C   0  0  0  0  0  0  0  0  0  0  0  0
   19.6927   -6.5254  -15.3671 O   0  0  0  0  0  0  0  0  0  0  0  0
   16.0876   -6.3289  -14.3319 O   0  0  0  0  0  0  0  0  0  0  0  0
   18.3987   -5.2887  -16.8006 N   0  0  0  0  0  0  0  0  0  0  0  0
   19.0910   -4.0397  -16.4417 C   0  0  1  0  0  0  0  0  0  0  0  0
   19.2878   -3.2150  -17.6879 C   0  0  0  0  0  0  0  0  0  0  0  0
   19.8663   -1.9133  -17.4123 C   0  0  0  0  0  0  0  0  0  0  0  0
   19.1497   -0.8751  -17.5672 O   0  0  0  0  0  0  0  0  0  0  0  0
   18.1319   -3.2797  -15.5670 C   0  0  0  0  0  0  0  0  0  0  0  0
   18.4159   -2.1610  -15.0622 O   0  0  0  0  0  0  0  0  0  0  0  0
   21.1732   -1.7761  -16.9889 O   0  0  0  0  0  0  0  0  0  0  0  0
   16.9014   -3.8333  -15.3141 O   0  0  0  0  0  0  0  0  0  0  0  0
  2  1  1  1
  2  6  1  0
  3  2  1  0
  4  3  1  0
  5  4  2  0
  6  7  2  0
  8  4  1  0
  9  6  1  0
  9 10  1  0
 10 14  1  0
 10 11  1  1
 12 11  1  0
 13 12  2  0
 14 17  1  0
 15 14  2  0
 16 12  1  0
 17 18  1  0
 18 19  1  6
 19 20  1  0
 20 24  1  0
 21 20  2  0
 22 25  1  0
 22 18  1  0
 23 22  2  0
M  END
$$$$
