DDD.pdb
     RDKit          3D

 25 24  0  0  1  0  0  0  0  0999 V2000
   19.5138  -10.4636  -16.3543 N   0  0  0  0  0  0  0  0  0  0  0  0
   18.3107   -9.8587  -15.8045 C   0  0  1  0  0  0  0  0  0  0  0  0
   17.7074  -10.8369  -14.8115 C   0  0  0  0  0  0  0  0  0  0  0  0
   17.2776  -12.0365  -15.5704 C   0  0  0  0  0  0  0  0  0  0  0  0
   16.7256  -11.8955  -16.6820 O   0  0  0  0  0  0  0  0  0  0  0  0
   18.6120   -8.5640  -15.1534 C   0  0  0  0  0  0  0  0  0  0  0  0
   17.7077   -7.9175  -14.5843 O   0  0  0  0  0  0  0  0  0  0  0  0
   17.4845  -13.3055  -15.0552 O   0  0  0  0  0  0  0  0  0  0  0  0
   19.9285   -8.0528  -15.1726 N   0  0  0  0  0  0  0  0  0  0  0  0
   20.2538   -6.7701  -14.5946 C   0  0  1  0  0  0  0  0  0  0  0  0
   21.7133   -6.6078  -14.2730 C   0  0  0  0  0  0  0  0  0  0  0  0
   21.9750   -5.3596  -13.5173 C   0  0  0  0  0  0  0  0  0  0  0  0
   23.1503   -5.0177  -13.3092 O   0  0  0  0  0  0  0  0  0  0  0  0
   19.7505   -5.6676  -15.4552 C   0  0  0  0  0  0  0  0  0  0  0  0
   20.0616   -5.6770  -16.6717 O   0  0  0  0  0  0  0  0  0  0  0  0
   20.9433   -4.5836  -13.0478 O   0  0  0  0  0  0  0  0  0  0  0  0
   18.9452   -4.6187  -14.9709 N   0  0  0  0  0  0  0  0  0  0  0  0
   18.4443   -3.5693  -15.8741 C   0  0  1  0  0  0  0  0  0  0  0  0
   16.9884   -3.3203  -15.5734 C   0  0  0  0  0  0  0  0  0  0  0  0
   16.4356   -2.2261  -16.3493 C   0  0  0  0  0  0  0  0  0  0  0  0
   16.8077   -2.0761  -17.5553 O   0  0  0  0  0  0  0  0  0  0  0  0
   19.1849   -2.3168  -15.4931 C   0  0  0  0  0  0  0  0  0  0  0  0
   19.0051   -1.2175  -16.0816 O   0  0  0  0  0  0  0  0  0  0  0  0
   15.5192   -1.3456  -15.8097 O   0  0  0  0  0  0  0  0  0  0  0  0
   20.0901   -2.3825  -14.4630 O   0  0  0  0  0  0  0  0  0  0  0  0
  2  1  1  1
  2  6  1  0
  3  2  1  0
  4  3  1  0
  5  4  2  0
  6  7  2  0
  8  4  1  0
  9  6  1  0
  9 10  1  0
 10 14  1  0
 10 11  1  6
 12 11  1  0
 13 12  2  0
 14 17  1  0
 15 14  2  0
 16 12  1  0
 17 18  1  0
 18 19  1  1
 19 20  1  0
 20 24  1  0
 21 20  2  0
 22 25  1  0
 22 18  1  0
 23 22  2  0
M  END
$$$$
