DDD.pdb
     RDKit          3D

 25 24  0  0  1  0  0  0  0  0999 V2000
   20.4979  -10.6745  -16.7300 N   0  0  0  0  0  0  0  0  0  0  0  0
   19.4656  -10.5115  -15.7183 C   0  0  1  0  0  0  0  0  0  0  0  0
   19.5301  -11.7098  -14.7872 C   0  0  0  0  0  0  0  0  0  0  0  0
   18.9579  -12.8706  -15.5119 C   0  0  0  0  0  0  0  0  0  0  0  0
   19.6829  -13.5297  -16.2865 O   0  0  0  0  0  0  0  0  0  0  0  0
   19.6468   -9.2491  -14.9670 C   0  0  0  0  0  0  0  0  0  0  0  0
   18.8633   -8.9455  -14.0433 O   0  0  0  0  0  0  0  0  0  0  0  0
   17.6308  -13.2253  -15.3344 O   0  0  0  0  0  0  0  0  0  0  0  0
   20.7111   -8.3796  -15.2928 N   0  0  0  0  0  0  0  0  0  0  0  0
   20.9093   -7.1285  -14.5993 C   0  0  1  0  0  0  0  0  0  0  0  0
   22.3559   -6.7926  -14.3658 C   0  0  0  0  0  0  0  0  0  0  0  0
   22.5112   -5.5611  -13.5553 C   0  0  0  0  0  0  0  0  0  0  0  0
   22.8601   -4.5108  -14.1180 O   0  0  0  0  0  0  0  0  0  0  0  0
   20.1903   -6.0281  -15.2932 C   0  0  0  0  0  0  0  0  0  0  0  0
   20.4748   -5.8003  -16.4948 O   0  0  0  0  0  0  0  0  0  0  0  0
   22.2768   -5.5670  -12.2018 O   0  0  0  0  0  0  0  0  0  0  0  0
   19.2101   -5.2337  -14.6676 N   0  0  0  0  0  0  0  0  0  0  0  0
   18.4764   -4.2030  -15.4209 C   0  0  1  0  0  0  0  0  0  0  0  0
   17.0821   -4.0880  -14.8600 C   0  0  0  0  0  0  0  0  0  0  0  0
   16.2992   -3.0559  -15.5132 C   0  0  0  0  0  0  0  0  0  0  0  0
   15.7068   -2.1871  -14.7993 O   0  0  0  0  0  0  0  0  0  0  0  0
   19.1728   -2.9046  -15.1183 C   0  0  0  0  0  0  0  0  0  0  0  0
   20.0076   -2.7853  -14.1823 O   0  0  0  0  0  0  0  0  0  0  0  0
   16.1813   -2.9964  -16.8875 O   0  0  0  0  0  0  0  0  0  0  0  0
   18.8821   -1.8119  -15.8970 O   0  0  0  0  0  0  0  0  0  0  0  0
  2  1  1  6
  2  6  1  0
  3  2  1  0
  4  3  1  0
  5  4  2  0
  6  7  2  0
  8  4  1  0
  9  6  1  0
  9 10  1  0
 10 14  1  0
 10 11  1  6
 12 11  1  0
 13 12  2  0
 14 17  1  0
 15 14  2  0
 16 12  1  0
 17 18  1  0
 18 19  1  1
 19 20  1  0
 20 24  1  0
 21 20  2  0
 22 25  1  0
 22 18  1  0
 23 22  2  0
M  END
$$$$
