DDD.pdb
     RDKit          3D

 25 24  0  0  1  0  0  0  0  0999 V2000
   14.0060  -11.9180  -11.1705 N   0  0  0  0  0  0  0  0  0  0  0  0
   15.2992  -11.4392  -10.7078 C   0  0  1  0  0  0  0  0  0  0  0  0
   16.3751  -12.1420  -11.5175 C   0  0  0  0  0  0  0  0  0  0  0  0
   16.2428  -13.5981  -11.2682 C   0  0  0  0  0  0  0  0  0  0  0  0
   15.9738  -14.3626  -12.2186 O   0  0  0  0  0  0  0  0  0  0  0  0
   15.4079   -9.9697  -10.8491 C   0  0  0  0  0  0  0  0  0  0  0  0
   14.9577   -9.3975  -11.8637 O   0  0  0  0  0  0  0  0  0  0  0  0
   16.4153  -14.1114   -9.9933 O   0  0  0  0  0  0  0  0  0  0  0  0
   16.0231   -9.2058   -9.8328 N   0  0  0  0  0  0  0  0  0  0  0  0
   16.0930   -7.7651   -9.9025 C   0  0  1  0  0  0  0  0  0  0  0  0
   15.8226   -7.0853   -8.5891 C   0  0  0  0  0  0  0  0  0  0  0  0
   15.7607   -5.6114   -8.7347 C   0  0  0  0  0  0  0  0  0  0  0  0
   15.6771   -5.1224   -9.8729 O   0  0  0  0  0  0  0  0  0  0  0  0
   17.3870   -7.3338  -10.4931 C   0  0  0  0  0  0  0  0  0  0  0  0
   18.4211   -7.4293   -9.7872 O   0  0  0  0  0  0  0  0  0  0  0  0
   15.7951   -4.7868   -7.6366 O   0  0  0  0  0  0  0  0  0  0  0  0
   17.5054   -6.8256  -11.8011 N   0  0  0  0  0  0  0  0  0  0  0  0
   18.7957   -6.3279  -12.3065 C   0  0  1  0  0  0  0  0  0  0  0  0
   19.3486   -7.3215  -13.2960 C   0  0  0  0  0  0  0  0  0  0  0  0
   20.4967   -8.0441  -12.7818 C   0  0  0  0  0  0  0  0  0  0  0  0
   21.0103   -7.6798  -11.6778 O   0  0  0  0  0  0  0  0  0  0  0  0
   18.4751   -5.0789  -13.0809 C   0  0  0  0  0  0  0  0  0  0  0  0
   19.3680   -4.3138  -13.5331 O   0  0  0  0  0  0  0  0  0  0  0  0
   21.0440   -9.1137  -13.4620 O   0  0  0  0  0  0  0  0  0  0  0  0
   17.1559   -4.7678  -13.2993 O   0  0  0  0  0  0  0  0  0  0  0  0
  2  1  1  6
  2  6  1  0
  3  2  1  0
  4  3  1  0
  5  4  2  0
  6  7  2  0
  8  4  1  0
  9  6  1  0
  9 10  1  0
 10 14  1  0
 10 11  1  1
 12 11  1  0
 13 12  2  0
 14 17  1  0
 15 14  2  0
 16 12  1  0
 17 18  1  0
 18 19  1  6
 19 20  1  0
 20 24  1  0
 21 20  2  0
 22 25  1  0
 22 18  1  0
 23 22  2  0
M  END
$$$$
