DDD.pdb
     RDKit          3D

 25 24  0  0  1  0  0  0  0  0999 V2000
   16.3921  -11.8142  -14.8272 N   0  0  0  0  0  0  0  0  0  0  0  0
   17.6945  -11.7887  -15.4743 C   0  0  1  0  0  0  0  0  0  0  0  0
   17.6457  -12.7356  -16.6609 C   0  0  0  0  0  0  0  0  0  0  0  0
   17.4999  -14.1123  -16.1288 C   0  0  0  0  0  0  0  0  0  0  0  0
   16.3615  -14.5495  -15.8585 O   0  0  0  0  0  0  0  0  0  0  0  0
   18.0508  -10.4186  -15.9068 C   0  0  0  0  0  0  0  0  0  0  0  0
   19.2070  -10.1615  -16.3025 O   0  0  0  0  0  0  0  0  0  0  0  0
   18.6141  -14.9112  -15.9314 O   0  0  0  0  0  0  0  0  0  0  0  0
   17.0806   -9.3927  -15.8739 N   0  0  0  0  0  0  0  0  0  0  0  0
   17.3482   -8.0770  -16.4055 C   0  0  1  0  0  0  0  0  0  0  0  0
   16.1243   -7.3800  -16.9312 C   0  0  0  0  0  0  0  0  0  0  0  0
   15.5004   -8.1300  -18.0474 C   0  0  0  0  0  0  0  0  0  0  0  0
   14.3595   -8.5956  -17.8956 O   0  0  0  0  0  0  0  0  0  0  0  0
   18.0711   -7.2478  -15.4059 C   0  0  0  0  0  0  0  0  0  0  0  0
   17.4872   -6.9772  -14.3277 O   0  0  0  0  0  0  0  0  0  0  0  0
   16.1625   -8.3155  -19.2366 O   0  0  0  0  0  0  0  0  0  0  0  0
   19.3740   -6.7545  -15.6120 N   0  0  0  0  0  0  0  0  0  0  0  0
   20.0162   -5.8745  -14.6214 C   0  0  1  0  0  0  0  0  0  0  0  0
   21.5040   -5.8714  -14.8630 C   0  0  0  0  0  0  0  0  0  0  0  0
   22.2147   -4.9781  -13.9675 C   0  0  0  0  0  0  0  0  0  0  0  0
   21.5698   -4.3903  -13.0434 O   0  0  0  0  0  0  0  0  0  0  0  0
   19.5250   -4.4869  -14.9308 C   0  0  0  0  0  0  0  0  0  0  0  0
   19.5168   -3.5639  -14.0734 O   0  0  0  0  0  0  0  0  0  0  0  0
   23.5705   -4.7508  -14.0961 O   0  0  0  0  0  0  0  0  0  0  0  0
   19.0698   -4.2241  -16.1991 O   0  0  0  0  0  0  0  0  0  0  0  0
  2  1  1  6
  2  6  1  0
  3  2  1  0
  4  3  1  0
  5  4  2  0
  6  7  2  0
  8  4  1  0
  9  6  1  0
  9 10  1  0
 10 14  1  0
 10 11  1  1
 12 11  1  0
 13 12  2  0
 14 17  1  0
 15 14  2  0
 16 12  1  0
 17 18  1  0
 18 19  1  6
 19 20  1  0
 20 24  1  0
 21 20  2  0
 22 25  1  0
 22 18  1  0
 23 22  2  0
M  END
$$$$
