DDD.pdb
     RDKit          3D

 25 24  0  0  1  0  0  0  0  0999 V2000
   18.4409  -12.4971  -16.8886 N   0  0  0  0  0  0  0  0  0  0  0  0
   18.4854  -11.9093  -15.5589 C   0  0  1  0  0  0  0  0  0  0  0  0
   18.7581  -13.0241  -14.5639 C   0  0  0  0  0  0  0  0  0  0  0  0
   17.6401  -13.9938  -14.6613 C   0  0  0  0  0  0  0  0  0  0  0  0
   16.5257  -13.6974  -14.1813 O   0  0  0  0  0  0  0  0  0  0  0  0
   19.5247  -10.8588  -15.4723 C   0  0  0  0  0  0  0  0  0  0  0  0
   19.7109  -10.2409  -14.4032 O   0  0  0  0  0  0  0  0  0  0  0  0
   17.8249  -15.2197  -15.2790 O   0  0  0  0  0  0  0  0  0  0  0  0
   20.3132  -10.5502  -16.6027 N   0  0  0  0  0  0  0  0  0  0  0  0
   21.2737   -9.4720  -16.5874 C   0  0  1  0  0  0  0  0  0  0  0  0
   22.3708   -9.6290  -17.6032 C   0  0  0  0  0  0  0  0  0  0  0  0
   23.3850   -8.5538  -17.4886 C   0  0  0  0  0  0  0  0  0  0  0  0
   23.2453   -7.6863  -16.6115 O   0  0  0  0  0  0  0  0  0  0  0  0
   20.5867   -8.1598  -16.7127 C   0  0  0  0  0  0  0  0  0  0  0  0
   19.8394   -7.9752  -17.7048 O   0  0  0  0  0  0  0  0  0  0  0  0
   24.4673   -8.5050  -18.3331 O   0  0  0  0  0  0  0  0  0  0  0  0
   20.7352   -7.1200  -15.7747 N   0  0  0  0  0  0  0  0  0  0  0  0
   19.9736   -5.8667  -15.9064 C   0  0  1  0  0  0  0  0  0  0  0  0
   18.5419   -6.1213  -15.5095 C   0  0  0  0  0  0  0  0  0  0  0  0
   17.7393   -4.9127  -15.5032 C   0  0  0  0  0  0  0  0  0  0  0  0
   18.0369   -3.9711  -16.3032 O   0  0  0  0  0  0  0  0  0  0  0  0
   20.5478   -4.9316  -14.8777 C   0  0  0  0  0  0  0  0  0  0  0  0
   21.4229   -5.2930  -14.0466 O   0  0  0  0  0  0  0  0  0  0  0  0
   16.6643   -4.7611  -14.6501 O   0  0  0  0  0  0  0  0  0  0  0  0
   20.0957   -3.6356  -14.8501 O   0  0  0  0  0  0  0  0  0  0  0  0
  2  1  1  6
  2  6  1  0
  3  2  1  0
  4  3  1  0
  5  4  2  0
  6  7  2  0
  8  4  1  0
  9  6  1  0
  9 10  1  0
 10 14  1  0
 10 11  1  6
 12 11  1  0
 13 12  2  0
 14 17  1  0
 15 14  2  0
 16 12  1  0
 17 18  1  0
 18 19  1  1
 19 20  1  0
 20 24  1  0
 21 20  2  0
 22 25  1  0
 22 18  1  0
 23 22  2  0
M  END
$$$$
