DDD.pdb
     RDKit          3D

 25 24  0  0  1  0  0  0  0  0999 V2000
   19.1047  -11.3369  -17.8946 N   0  0  0  0  0  0  0  0  0  0  0  0
   19.1384  -11.2682  -16.4421 C   0  0  1  0  0  0  0  0  0  0  0  0
   19.1586  -12.6896  -15.9071 C   0  0  0  0  0  0  0  0  0  0  0  0
   17.7662  -13.0514  -15.5461 C   0  0  0  0  0  0  0  0  0  0  0  0
   16.8224  -12.3372  -15.9453 O   0  0  0  0  0  0  0  0  0  0  0  0
   20.3182  -10.5096  -15.9692 C   0  0  0  0  0  0  0  0  0  0  0  0
   20.5473  -10.3950  -14.7470 O   0  0  0  0  0  0  0  0  0  0  0  0
   17.5090  -14.1714  -14.7729 O   0  0  0  0  0  0  0  0  0  0  0  0
   21.1932   -9.9102  -16.9020 N   0  0  0  0  0  0  0  0  0  0  0  0
   22.2979   -9.0803  -16.4825 C   0  0  1  0  0  0  0  0  0  0  0  0
   23.5282   -9.2420  -17.3312 C   0  0  0  0  0  0  0  0  0  0  0  0
   23.9931  -10.6493  -17.3643 C   0  0  0  0  0  0  0  0  0  0  0  0
   24.3372  -11.1940  -16.3030 O   0  0  0  0  0  0  0  0  0  0  0  0
   21.8749   -7.6587  -16.3859 C   0  0  0  0  0  0  0  0  0  0  0  0
   21.4723   -7.0886  -17.4298 O   0  0  0  0  0  0  0  0  0  0  0  0
   24.0481  -11.3520  -18.5433 O   0  0  0  0  0  0  0  0  0  0  0  0
   21.9050   -6.9260  -15.1836 N   0  0  0  0  0  0  0  0  0  0  0  0
   21.4974   -5.5115  -15.1481 C   0  0  1  0  0  0  0  0  0  0  0  0
   20.0013   -5.4386  -14.9797 C   0  0  0  0  0  0  0  0  0  0  0  0
   19.5129   -4.0748  -14.8988 C   0  0  0  0  0  0  0  0  0  0  0  0
   19.0225   -3.6598  -13.8022 O   0  0  0  0  0  0  0  0  0  0  0  0
   22.1021   -4.9452  -13.8927 C   0  0  0  0  0  0  0  0  0  0  0  0
   22.6073   -5.6719  -12.9961 O   0  0  0  0  0  0  0  0  0  0  0  0
   19.5664   -3.2204  -15.9821 O   0  0  0  0  0  0  0  0  0  0  0  0
   22.0999   -3.5826  -13.7252 O   0  0  0  0  0  0  0  0  0  0  0  0
  2  1  1  6
  2  6  1  0
  3  2  1  0
  4  3  1  0
  5  4  2  0
  6  7  2  0
  8  4  1  0
  9  6  1  0
  9 10  1  0
 10 14  1  0
 10 11  1  6
 12 11  1  0
 13 12  2  0
 14 17  1  0
 15 14  2  0
 16 12  1  0
 17 18  1  0
 18 19  1  1
 19 20  1  0
 20 24  1  0
 21 20  2  0
 22 25  1  0
 22 18  1  0
 23 22  2  0
M  END
$$$$
