DDD.pdb
     RDKit          3D

 25 24  0  0  1  0  0  0  0  0999 V2000
   14.7311  -11.1852  -15.8607 N   0  0  0  0  0  0  0  0  0  0  0  0
   15.4080  -11.5040  -14.6133 C   0  0  1  0  0  0  0  0  0  0  0  0
   15.1689  -12.9737  -14.3139 C   0  0  0  0  0  0  0  0  0  0  0  0
   13.7358  -13.1319  -13.9660 C   0  0  0  0  0  0  0  0  0  0  0  0
   13.0079  -12.1201  -13.8842 O   0  0  0  0  0  0  0  0  0  0  0  0
   16.8565  -11.2119  -14.7003 C   0  0  0  0  0  0  0  0  0  0  0  0
   17.6222  -11.5291  -13.7662 O   0  0  0  0  0  0  0  0  0  0  0  0
   13.2037  -14.3893  -13.7330 O   0  0  0  0  0  0  0  0  0  0  0  0
   17.3806  -10.5713  -15.8448 N   0  0  0  0  0  0  0  0  0  0  0  0
   18.7822  -10.2420  -15.9560 C   0  0  1  0  0  0  0  0  0  0  0  0
   19.3754  -10.5807  -17.2952 C   0  0  0  0  0  0  0  0  0  0  0  0
   19.7474  -12.0128  -17.3863 C   0  0  0  0  0  0  0  0  0  0  0  0
   19.9349  -12.6532  -16.3393 O   0  0  0  0  0  0  0  0  0  0  0  0
   19.0143   -8.8200  -15.5912 C   0  0  0  0  0  0  0  0  0  0  0  0
   18.2012   -7.9605  -16.0120 O   0  0  0  0  0  0  0  0  0  0  0  0
   19.8866  -12.6349  -18.6030 O   0  0  0  0  0  0  0  0  0  0  0  0
   20.0987   -8.3949  -14.7997 N   0  0  0  0  0  0  0  0  0  0  0  0
   20.3907   -6.9628  -14.6209 C   0  0  1  0  0  0  0  0  0  0  0  0
   21.4741   -6.8110  -13.5841 C   0  0  0  0  0  0  0  0  0  0  0  0
   21.7766   -5.4230  -13.2895 C   0  0  0  0  0  0  0  0  0  0  0  0
   21.1010   -4.5104  -13.8605 O   0  0  0  0  0  0  0  0  0  0  0  0
   20.9747   -6.5004  -15.9277 C   0  0  0  0  0  0  0  0  0  0  0  0
   20.7441   -5.3583  -16.4067 O   0  0  0  0  0  0  0  0  0  0  0  0
   22.7790   -5.0711  -12.4076 O   0  0  0  0  0  0  0  0  0  0  0  0
   21.7898   -7.3622  -16.6188 O   0  0  0  0  0  0  0  0  0  0  0  0
  2  1  1  6
  2  6  1  0
  3  2  1  0
  4  3  1  0
  5  4  2  0
  6  7  2  0
  8  4  1  0
  9  6  1  0
  9 10  1  0
 10 14  1  0
 10 11  1  6
 12 11  1  0
 13 12  2  0
 14 17  1  0
 15 14  2  0
 16 12  1  0
 17 18  1  0
 18 19  1  1
 19 20  1  0
 20 24  1  0
 21 20  2  0
 22 25  1  0
 22 18  1  0
 23 22  2  0
M  END
$$$$
