DDD.pdb
     RDKit          3D

 25 24  0  0  1  0  0  0  0  0999 V2000
   22.3862  -34.5793   -3.6832 N   0  0  0  0  0  0  0  0  0  0  0  0
   23.3888  -33.7209   -3.0718 C   0  0  1  0  0  0  0  0  0  0  0  0
   22.9315  -33.4007   -1.6593 C   0  0  0  0  0  0  0  0  0  0  0  0
   21.7604  -32.4964   -1.7625 C   0  0  0  0  0  0  0  0  0  0  0  0
   21.2407  -32.0425   -0.7213 O   0  0  0  0  0  0  0  0  0  0  0  0
   24.7175  -34.3730   -3.0614 C   0  0  0  0  0  0  0  0  0  0  0  0
   24.8418  -35.5473   -2.6551 O   0  0  0  0  0  0  0  0  0  0  0  0
   21.2435  -32.1545   -3.0012 O   0  0  0  0  0  0  0  0  0  0  0  0
   25.8546  -33.6673   -3.5130 N   0  0  0  0  0  0  0  0  0  0  0  0
   27.1645  -34.2744   -3.5391 C   0  0  1  0  0  0  0  0  0  0  0  0
   28.1198  -33.6037   -4.4867 C   0  0  0  0  0  0  0  0  0  0  0  0
   27.9334  -34.0734   -5.8804 C   0  0  0  0  0  0  0  0  0  0  0  0
   27.0576  -34.9210   -6.1173 O   0  0  0  0  0  0  0  0  0  0  0  0
   27.7229  -34.3691   -2.1649 C   0  0  0  0  0  0  0  0  0  0  0  0
   27.3578  -33.5173   -1.3175 O   0  0  0  0  0  0  0  0  0  0  0  0
   28.7103  -33.5880   -6.9038 O   0  0  0  0  0  0  0  0  0  0  0  0
   28.6378  -35.3651   -1.7722 N   0  0  0  0  0  0  0  0  0  0  0  0
   29.1267  -35.4402   -0.3853 C   0  0  1  0  0  0  0  0  0  0  0  0
   27.9779  -35.8095    0.5181 C   0  0  0  0  0  0  0  0  0  0  0  0
   28.3979  -36.0589    1.8842 C   0  0  0  0  0  0  0  0  0  0  0  0
   27.7439  -36.8910    2.5879 O   0  0  0  0  0  0  0  0  0  0  0  0
   30.0894  -36.5954   -0.3551 C   0  0  0  0  0  0  0  0  0  0  0  0
   30.2260  -37.3893   -1.3237 O   0  0  0  0  0  0  0  0  0  0  0  0
   29.4866  -35.4142    2.4369 O   0  0  0  0  0  0  0  0  0  0  0  0
   30.8451  -36.7850    0.7753 O   0  0  0  0  0  0  0  0  0  0  0  0
  2  1  1  1
  2  6  1  0
  3  2  1  0
  4  3  1  0
  5  4  2  0
  6  7  2  0
  8  4  1  0
  9  6  1  0
  9 10  1  0
 10 14  1  0
 10 11  1  6
 12 11  1  0
 13 12  2  0
 14 17  1  0
 15 14  2  0
 16 12  1  0
 17 18  1  0
 18 19  1  1
 19 20  1  0
 20 24  1  0
 21 20  2  0
 22 25  1  0
 22 18  1  0
 23 22  2  0
M  END
$$$$
