DDD.pdb
     RDKit          3D

 25 24  0  0  1  0  0  0  0  0999 V2000
   15.6200   -1.8746  -13.4762 N   0  0  0  0  0  0  0  0  0  0  0  0
   15.7658   -1.9559  -14.9211 C   0  0  1  0  0  0  0  0  0  0  0  0
   15.2597   -0.6534  -15.5162 C   0  0  0  0  0  0  0  0  0  0  0  0
   15.9849    0.4549  -14.8486 C   0  0  0  0  0  0  0  0  0  0  0  0
   16.2428    0.3741  -13.6291 O   0  0  0  0  0  0  0  0  0  0  0  0
   17.1749   -2.1987  -15.3042 C   0  0  0  0  0  0  0  0  0  0  0  0
   17.4815   -2.3837  -16.5005 O   0  0  0  0  0  0  0  0  0  0  0  0
   16.3756    1.5727  -15.5672 O   0  0  0  0  0  0  0  0  0  0  0  0
   18.1822   -2.2219  -14.3144 N   0  0  0  0  0  0  0  0  0  0  0  0
   19.5524   -2.5482  -14.6327 C   0  0  1  0  0  0  0  0  0  0  0  0
   20.5447   -1.5394  -14.1250 C   0  0  0  0  0  0  0  0  0  0  0  0
   21.9300   -1.8777  -14.5303 C   0  0  0  0  0  0  0  0  0  0  0  0
   22.7773   -2.0981  -13.6500 O   0  0  0  0  0  0  0  0  0  0  0  0
   19.8800   -3.9247  -14.1773 C   0  0  0  0  0  0  0  0  0  0  0  0
   19.6938   -4.2084  -12.9683 O   0  0  0  0  0  0  0  0  0  0  0  0
   22.2853   -1.9493  -15.8553 O   0  0  0  0  0  0  0  0  0  0  0  0
   20.3869   -4.9197  -15.0354 N   0  0  0  0  0  0  0  0  0  0  0  0
   20.6883   -6.2709  -14.5337 C   0  0  1  0  0  0  0  0  0  0  0  0
   20.0151   -7.2837  -15.4242 C   0  0  0  0  0  0  0  0  0  0  0  0
   20.3395   -8.6507  -15.0622 C   0  0  0  0  0  0  0  0  0  0  0  0
   20.5889   -8.9237  -13.8462 O   0  0  0  0  0  0  0  0  0  0  0  0
   22.1703   -6.4516  -14.7164 C   0  0  0  0  0  0  0  0  0  0  0  0
   22.8016   -5.9416  -15.6800 O   0  0  0  0  0  0  0  0  0  0  0  0
   20.3854   -9.6585  -16.0048 O   0  0  0  0  0  0  0  0  0  0  0  0
   22.8542   -7.2026  -13.7929 O   0  0  0  0  0  0  0  0  0  0  0  0
  2  1  1  1
  2  6  1  0
  3  2  1  0
  4  3  1  0
  5  4  2  0
  6  7  2  0
  8  4  1  0
  9  6  1  0
  9 10  1  0
 10 14  1  0
 10 11  1  1
 12 11  1  0
 13 12  2  0
 14 17  1  0
 15 14  2  0
 16 12  1  0
 17 18  1  0
 18 19  1  6
 19 20  1  0
 20 24  1  0
 21 20  2  0
 22 25  1  0
 22 18  1  0
 23 22  2  0
M  END
$$$$
