DDD.pdb
     RDKit          3D

 25 24  0  0  1  0  0  0  0  0999 V2000
   18.2354  -12.8271  -17.3553 N   0  0  0  0  0  0  0  0  0  0  0  0
   17.7012  -12.5133  -16.0393 C   0  0  1  0  0  0  0  0  0  0  0  0
   17.9541  -13.7072  -15.1352 C   0  0  0  0  0  0  0  0  0  0  0  0
   16.9814  -14.7635  -15.5067 C   0  0  0  0  0  0  0  0  0  0  0  0
   16.2077  -14.5756  -16.4691 O   0  0  0  0  0  0  0  0  0  0  0  0
   18.3253  -11.2905  -15.4858 C   0  0  0  0  0  0  0  0  0  0  0  0
   17.9786  -10.8547  -14.3680 O   0  0  0  0  0  0  0  0  0  0  0  0
   16.9274  -15.9508  -14.7954 O   0  0  0  0  0  0  0  0  0  0  0  0
   19.3196  -10.6094  -16.2221 N   0  0  0  0  0  0  0  0  0  0  0  0
   19.9290   -9.3951  -15.7328 C   0  0  1  0  0  0  0  0  0  0  0  0
   21.4256   -9.3733  -15.8748 C   0  0  0  0  0  0  0  0  0  0  0  0
   22.0094   -8.1130  -15.3568 C   0  0  0  0  0  0  0  0  0  0  0  0
   21.7232   -7.7462  -14.2057 O   0  0  0  0  0  0  0  0  0  0  0  0
   19.2961   -8.2049  -16.3591 C   0  0  0  0  0  0  0  0  0  0  0  0
   19.2177   -8.1664  -17.6117 O   0  0  0  0  0  0  0  0  0  0  0  0
   22.8547   -7.3521  -16.1270 O   0  0  0  0  0  0  0  0  0  0  0  0
   18.7832   -7.1245  -15.6156 N   0  0  0  0  0  0  0  0  0  0  0  0
   18.2399   -5.9324  -16.2879 C   0  0  1  0  0  0  0  0  0  0  0  0
   16.7484   -5.8889  -16.0746 C   0  0  0  0  0  0  0  0  0  0  0  0
   16.1399   -4.6893  -16.6184 C   0  0  0  0  0  0  0  0  0  0  0  0
   16.7848   -4.0040  -17.4727 O   0  0  0  0  0  0  0  0  0  0  0  0
   18.8164   -4.7529  -15.5538 C   0  0  0  0  0  0  0  0  0  0  0  0
   19.5109   -4.8776  -14.5101 O   0  0  0  0  0  0  0  0  0  0  0  0
   14.8816   -4.2748  -16.2296 O   0  0  0  0  0  0  0  0  0  0  0  0
   18.5720   -3.4952  -16.0469 O   0  0  0  0  0  0  0  0  0  0  0  0
  2  1  1  6
  2  6  1  0
  3  2  1  0
  4  3  1  0
  5  4  2  0
  6  7  2  0
  8  4  1  0
  9  6  1  0
  9 10  1  0
 10 14  1  0
 10 11  1  6
 12 11  1  0
 13 12  2  0
 14 17  1  0
 15 14  2  0
 16 12  1  0
 17 18  1  0
 18 19  1  1
 19 20  1  0
 20 24  1  0
 21 20  2  0
 22 25  1  0
 22 18  1  0
 23 22  2  0
M  END
$$$$
