REA.pdb
     RDKit          3D

 26 25  0  0  1  0  0  0  0  0999 V2000
    9.4210  -14.5791   17.7918 N   0  0  0  0  0  0  0  0  0  0  0  0
    8.4844  -13.5142   17.7738 C   0  0  0  0  0  0  0  0  0  0  0  0
    8.0322  -13.1165   16.6313 N   0  0  0  0  0  0  0  0  0  0  0  0
    8.0359  -12.8806   18.9789 N   0  0  0  0  0  0  0  0  0  0  0  0
    8.1456  -13.5687   20.2633 C   0  0  0  0  0  0  0  0  0  0  0  0
    7.1526  -14.6735   20.3426 C   0  0  0  0  0  0  0  0  0  0  0  0
    7.0743  -15.4042   21.6270 C   0  0  0  0  0  0  0  0  0  0  0  0
    7.7873  -16.7107   21.7061 C   0  0  2  0  0  0  0  0  0  0  0  0
    6.8310  -17.7709   21.3669 N   0  0  0  0  0  0  0  0  0  0  0  0
    8.1317  -16.9234   23.1586 C   0  0  0  0  0  0  0  0  0  0  0  0
    7.2078  -16.9912   24.0186 O   0  0  0  0  0  0  0  0  0  0  0  0
    7.3928  -12.2967   16.5112 N   0  0  0  0  0  0  0  0  0  0  0  0
    9.4718  -17.0469   23.5617 C   0  0  2  0  0  0  0  0  0  0  0  0
    9.8929  -17.2038   24.9688 C   0  0  0  0  0  0  0  0  0  0  0  0
   11.1803  -18.0108   24.9853 C   0  0  0  0  0  0  0  0  0  0  0  0
   11.7504  -18.2700   26.3364 C   0  0  0  0  0  0  0  0  0  0  0  0
   13.0480  -19.0212   26.0974 O   0  0  0  0  0  0  0  0  0  0  0  0
   13.8213  -19.3221   27.0205 C   0  0  0  0  0  0  0  0  0  0  0  0
    9.9934  -15.8720   25.5462 O   0  0  0  0  0  0  0  0  0  0  0  0
   10.7673  -14.9894   25.0351 O   0  0  0  0  0  0  0  0  0  0  0  0
   13.3796  -19.3836   24.7999 C   0  0  0  0  0  0  0  0  0  0  0  0
    8.3156  -13.2908   27.4599 C   0  0  2  0  0  0  0  0  0  0  0  0
    9.5523  -14.1172   27.3287 N   0  0  0  0  0  0  0  0  0  0  0  0
    9.2774  -15.4036   26.6930 C   0  0  0  0  0  0  0  0  0  0  0  0
   10.2750  -14.3222   28.6128 O   0  0  0  0  0  0  0  0  0  0  0  0
   10.5114  -15.6065   29.0411 O   0  0  0  0  0  0  0  0  0  0  0  0
  2  3  2  0
  2  1  1  0
  4  2  1  0
  5  4  1  0
  6  5  1  0
  7  6  1  0
  8 10  1  0
  8  7  1  0
  8  9  1  1
 10 11  2  0
 12 10  1  0
 12 13  1  0
 13 14  1  6
 15 14  1  0
 15 16  1  0
 16 17  2  0
 18 23  1  0
 18 13  1  0
 19 18  2  0
 20 16  1  0
 22 21  1  6
 22 24  1  0
 22 23  1  0
 24 25  1  0
 26 24  2  0
M  END
$$$$
