REA.pdb
     RDKit          3D

 26 25  0  0  1  0  0  0  0  0999 V2000
    8.2872  -13.9046   15.2167 N   0  0  0  0  0  0  0  0  0  0  0  0
    8.3654  -13.6122   16.6023 C   0  0  0  0  0  0  0  0  0  0  0  0
    7.5627  -12.7237   17.0863 N   0  0  0  0  0  0  0  0  0  0  0  0
    9.3021  -14.2727   17.4633 N   0  0  0  0  0  0  0  0  0  0  0  0
    8.9509  -14.5729   18.8495 C   0  0  0  0  0  0  0  0  0  0  0  0
    7.5895  -15.1685   18.9187 C   0  0  0  0  0  0  0  0  0  0  0  0
    7.0659  -15.4717   20.2692 C   0  0  0  0  0  0  0  0  0  0  0  0
    7.3680  -16.8217   20.8240 C   0  0  2  0  0  0  0  0  0  0  0  0
    6.2470  -17.7093   20.4937 N   0  0  0  0  0  0  0  0  0  0  0  0
    7.3474  -16.6822   22.3253 C   0  0  0  0  0  0  0  0  0  0  0  0
    6.2433  -16.5608   22.9285 O   0  0  0  0  0  0  0  0  0  0  0  0
    7.5053  -12.4826   18.1031 N   0  0  0  0  0  0  0  0  0  0  0  0
    8.5466  -16.6866   23.0571 C   0  0  2  0  0  0  0  0  0  0  0  0
    8.6115  -16.5275   24.5242 C   0  0  0  0  0  0  0  0  0  0  0  0
    9.8876  -17.1932   25.0115 C   0  0  0  0  0  0  0  0  0  0  0  0
   10.1207  -17.1211   26.4806 C   0  0  0  0  0  0  0  0  0  0  0  0
   11.4437  -17.8260   26.7215 O   0  0  0  0  0  0  0  0  0  0  0  0
   12.3869  -17.7618   25.9171 C   0  0  0  0  0  0  0  0  0  0  0  0
    8.5091  -15.1055   24.8147 O   0  0  0  0  0  0  0  0  0  0  0  0
    9.2798  -14.2590   24.2413 O   0  0  0  0  0  0  0  0  0  0  0  0
   11.6023  -18.5681   27.8829 C   0  0  0  0  0  0  0  0  0  0  0  0
    6.1341  -12.5497   25.9629 C   0  0  1  0  0  0  0  0  0  0  0  0
    7.5354  -13.0654   25.9728 N   0  0  0  0  0  0  0  0  0  0  0  0
    7.5832  -14.5044   25.7249 C   0  0  0  0  0  0  0  0  0  0  0  0
    8.2880  -12.7317   27.2120 O   0  0  0  0  0  0  0  0  0  0  0  0
    8.4698  -11.4095   27.5397 O   0  0  0  0  0  0  0  0  0  0  0  0
  2  3  2  0
  2  1  1  0
  4  2  1  0
  5  4  1  0
  6  5  1  0
  7  6  1  0
  8 10  1  0
  8  7  1  0
  8  9  1  1
 10 11  2  0
 12 10  1  0
 12 13  1  0
 13 14  1  6
 15 14  1  0
 15 16  1  0
 16 17  2  0
 18 23  1  0
 18 13  1  0
 19 18  2  0
 20 16  1  0
 22 21  1  6
 22 24  1  0
 22 23  1  0
 24 25  1  0
 26 24  2  0
M  END
$$$$
