REA.pdb
     RDKit          3D

 26 25  0  0  1  0  0  0  0  0999 V2000
    7.8613  -12.6975   21.1310 N   0  0  0  0  0  0  0  0  0  0  0  0
    7.7711  -13.0544   19.7613 C   0  0  0  0  0  0  0  0  0  0  0  0
    7.2853  -12.1894   18.9344 N   0  0  0  0  0  0  0  0  0  0  0  0
    8.2019  -14.3355   19.2833 N   0  0  0  0  0  0  0  0  0  0  0  0
    7.3468  -15.5102   19.4378 C   0  0  0  0  0  0  0  0  0  0  0  0
    7.6216  -16.1803   20.7371 C   0  0  0  0  0  0  0  0  0  0  0  0
    8.6823  -17.2122   20.7402 C   0  0  0  0  0  0  0  0  0  0  0  0
    9.3748  -17.4738   19.4465 C   0  0  2  0  0  0  0  0  0  0  0  0
    8.9264  -18.7789   18.9475 N   0  0  0  0  0  0  0  0  0  0  0  0
   10.8377  -17.6431   19.7704 C   0  0  0  0  0  0  0  0  0  0  0  0
   11.2515  -18.7381   20.2474 O   0  0  0  0  0  0  0  0  0  0  0  0
    7.1563  -12.3698   17.9116 N   0  0  0  0  0  0  0  0  0  0  0  0
   11.7429  -16.5925   19.5453 C   0  0  2  0  0  0  0  0  0  0  0  0
   13.1791  -16.6621   19.8834 C   0  0  0  0  0  0  0  0  0  0  0  0
   13.8927  -15.5546   19.1261 C   0  0  0  0  0  0  0  0  0  0  0  0
   15.3158  -15.3387   19.5082 C   0  0  0  0  0  0  0  0  0  0  0  0
   15.8393  -14.2764   18.5580 O   0  0  0  0  0  0  0  0  0  0  0  0
   15.1453  -13.8010   17.6454 C   0  0  0  0  0  0  0  0  0  0  0  0
   13.2912  -16.5886   21.3322 O   0  0  0  0  0  0  0  0  0  0  0  0
   12.6360  -15.7145   22.0000 O   0  0  0  0  0  0  0  0  0  0  0  0
   17.1405  -13.8220   18.7172 C   0  0  0  0  0  0  0  0  0  0  0  0
   13.8838  -18.6071   24.2874 C   0  0  1  0  0  0  0  0  0  0  0  0
   14.1678  -17.3099   23.6044 N   0  0  0  0  0  0  0  0  0  0  0  0
   14.1002  -17.4388   22.1507 C   0  0  0  0  0  0  0  0  0  0  0  0
   15.4597  -16.6913   24.0063 O   0  0  0  0  0  0  0  0  0  0  0  0
   15.6619  -16.3831   25.3303 O   0  0  0  0  0  0  0  0  0  0  0  0
  2  3  2  0
  2  1  1  0
  4  2  1  0
  5  4  1  0
  6  5  1  0
  7  6  1  0
  8 10  1  0
  8  7  1  0
  8  9  1  1
 10 11  2  0
 12 10  1  0
 12 13  1  0
 13 14  1  6
 15 14  1  0
 15 16  1  0
 16 17  2  0
 18 23  1  0
 18 13  1  0
 19 18  2  0
 20 16  1  0
 22 21  1  1
 22 24  1  0
 22 23  1  0
 24 25  1  0
 26 24  2  0
M  END
$$$$
