REA.pdb
     RDKit          3D

 26 25  0  0  1  0  0  0  0  0999 V2000
    8.1166  -15.2746   14.5529 N   0  0  0  0  0  0  0  0  0  0  0  0
    7.9518  -14.4195   15.6724 C   0  0  0  0  0  0  0  0  0  0  0  0
    8.3341  -13.1906   15.5651 N   0  0  0  0  0  0  0  0  0  0  0  0
    7.3779  -14.8841   16.9012 N   0  0  0  0  0  0  0  0  0  0  0  0
    7.2749  -13.9931   18.0547 C   0  0  0  0  0  0  0  0  0  0  0  0
    8.4522  -14.1674   18.9472 C   0  0  0  0  0  0  0  0  0  0  0  0
    8.4427  -13.4036   20.2146 C   0  0  0  0  0  0  0  0  0  0  0  0
    9.6036  -13.5969   21.1292 C   0  0  2  0  0  0  0  0  0  0  0  0
   10.5172  -14.5611   20.5054 N   0  0  0  0  0  0  0  0  0  0  0  0
    9.0687  -14.2822   22.3613 C   0  0  0  0  0  0  0  0  0  0  0  0
    8.0645  -13.8015   22.9598 O   0  0  0  0  0  0  0  0  0  0  0  0
    8.3599  -12.5165   16.3653 N   0  0  0  0  0  0  0  0  0  0  0  0
    9.6787  -15.4505   22.8475 C   0  0  1  0  0  0  0  0  0  0  0  0
    9.2207  -16.1736   24.0514 C   0  0  0  0  0  0  0  0  0  0  0  0
    9.5843  -17.6395   23.8840 C   0  0  0  0  0  0  0  0  0  0  0  0
   11.0409  -17.9436   23.9437 C   0  0  0  0  0  0  0  0  0  0  0  0
   11.1494  -19.4546   23.8418 O   0  0  0  0  0  0  0  0  0  0  0  0
   11.1651  -20.1886   24.8426 C   0  0  0  0  0  0  0  0  0  0  0  0
    9.8157  -15.5196   25.2069 O   0  0  0  0  0  0  0  0  0  0  0  0
   11.0703  -15.2675   25.2475 O   0  0  0  0  0  0  0  0  0  0  0  0
   11.2339  -20.0339   22.5840 C   0  0  0  0  0  0  0  0  0  0  0  0
    8.9653  -13.3077   28.0404 C   0  0  2  0  0  0  0  0  0  0  0  0
    9.7743  -14.4441   27.5075 N   0  0  0  0  0  0  0  0  0  0  0  0
    9.1133  -15.0951   26.3789 C   0  0  0  0  0  0  0  0  0  0  0  0
   10.1438  -15.4516   28.5379 O   0  0  0  0  0  0  0  0  0  0  0  0
   10.9139  -15.0547   29.6048 O   0  0  0  0  0  0  0  0  0  0  0  0
  2  3  2  0
  2  1  1  0
  4  2  1  0
  5  4  1  0
  6  5  1  0
  7  6  1  0
  8 10  1  0
  8  7  1  0
  8  9  1  6
 10 11  2  0
 12 10  1  0
 12 13  1  0
 13 14  1  1
 15 14  1  0
 15 16  1  0
 16 17  2  0
 18 23  1  0
 18 13  1  0
 19 18  2  0
 20 16  1  0
 22 21  1  6
 22 24  1  0
 22 23  1  0
 24 25  1  0
 26 24  2  0
M  END
$$$$
