REA.pdb
     RDKit          3D

 26 25  0  0  1  0  0  0  0  0999 V2000
    9.6089  -13.8102   16.7627 N   0  0  0  0  0  0  0  0  0  0  0  0
    8.2228  -13.5631   16.5914 C   0  0  0  0  0  0  0  0  0  0  0  0
    7.8045  -13.2085   15.4222 N   0  0  0  0  0  0  0  0  0  0  0  0
    7.2912  -13.6974   17.6727 N   0  0  0  0  0  0  0  0  0  0  0  0
    7.7013  -14.3143   18.9323 C   0  0  0  0  0  0  0  0  0  0  0  0
    6.5356  -14.4402   19.8479 C   0  0  0  0  0  0  0  0  0  0  0  0
    6.7989  -15.0284   21.1800 C   0  0  0  0  0  0  0  0  0  0  0  0
    7.5675  -16.3049   21.2155 C   0  0  2  0  0  0  0  0  0  0  0  0
    6.6729  -17.3855   20.7849 N   0  0  0  0  0  0  0  0  0  0  0  0
    7.8708  -16.5820   22.6663 C   0  0  0  0  0  0  0  0  0  0  0  0
    6.9238  -16.8061   23.4730 O   0  0  0  0  0  0  0  0  0  0  0  0
    6.7932  -13.1219   15.1668 N   0  0  0  0  0  0  0  0  0  0  0  0
    9.1981  -16.5929   23.1267 C   0  0  2  0  0  0  0  0  0  0  0  0
    9.5702  -16.7185   24.5506 C   0  0  0  0  0  0  0  0  0  0  0  0
   11.0006  -17.2270   24.6177 C   0  0  0  0  0  0  0  0  0  0  0  0
   11.1763  -18.6725   24.3058 C   0  0  0  0  0  0  0  0  0  0  0  0
   12.6690  -18.9343   24.3993 O   0  0  0  0  0  0  0  0  0  0  0  0
   13.3276  -19.3740   23.4435 C   0  0  0  0  0  0  0  0  0  0  0  0
    9.3467  -15.4243   25.1767 O   0  0  0  0  0  0  0  0  0  0  0  0
    9.9959  -14.3881   24.7970 O   0  0  0  0  0  0  0  0  0  0  0  0
   13.3183  -18.6721   25.5970 C   0  0  0  0  0  0  0  0  0  0  0  0
    6.7951  -13.4255   26.8091 C   0  0  1  0  0  0  0  0  0  0  0  0
    8.2333  -13.8274   26.8081 N   0  0  0  0  0  0  0  0  0  0  0  0
    8.4217  -15.1582   26.2354 C   0  0  0  0  0  0  0  0  0  0  0  0
    8.8787  -13.7473   28.1461 O   0  0  0  0  0  0  0  0  0  0  0  0
    8.9702  -12.5232   28.7642 O   0  0  0  0  0  0  0  0  0  0  0  0
  2  3  2  0
  2  1  1  0
  4  2  1  0
  5  4  1  0
  6  5  1  0
  7  6  1  0
  8 10  1  0
  8  7  1  0
  8  9  1  1
 10 11  2  0
 12 10  1  0
 12 13  1  0
 13 14  1  6
 15 14  1  0
 15 16  1  0
 16 17  2  0
 18 23  1  0
 18 13  1  0
 19 18  2  0
 20 16  1  0
 22 21  1  6
 22 24  1  0
 22 23  1  0
 24 25  1  0
 26 24  2  0
M  END
$$$$
