REA.pdb
     RDKit          3D

 26 25  0  0  1  0  0  0  0  0999 V2000
    7.0331  -13.6792   15.8412 N   0  0  0  0  0  0  0  0  0  0  0  0
    7.9310  -14.6897   16.2704 C   0  0  0  0  0  0  0  0  0  0  0  0
    8.0709  -15.7386   15.5299 N   0  0  0  0  0  0  0  0  0  0  0  0
    8.6753  -14.5722   17.4899 N   0  0  0  0  0  0  0  0  0  0  0  0
    8.4310  -13.4579   18.4031 C   0  0  0  0  0  0  0  0  0  0  0  0
    7.1606  -13.6705   19.1473 C   0  0  0  0  0  0  0  0  0  0  0  0
    7.2822  -14.1050   20.5566 C   0  0  0  0  0  0  0  0  0  0  0  0
    8.5187  -13.7014   21.2843 C   0  0  2  0  0  0  0  0  0  0  0  0
    9.6740  -14.1008   20.4723 N   0  0  0  0  0  0  0  0  0  0  0  0
    8.5815  -14.5530   22.5272 C   0  0  0  0  0  0  0  0  0  0  0  0
    7.6377  -14.5072   23.3668 O   0  0  0  0  0  0  0  0  0  0  0  0
    8.7248  -16.5252   15.7515 N   0  0  0  0  0  0  0  0  0  0  0  0
    9.6811  -15.3964   22.7575 C   0  0  1  0  0  0  0  0  0  0  0  0
    9.8199  -16.2538   23.9522 C   0  0  0  0  0  0  0  0  0  0  0  0
   10.8131  -17.3562   23.6249 C   0  0  0  0  0  0  0  0  0  0  0  0
   11.1186  -18.2892   24.7447 C   0  0  0  0  0  0  0  0  0  0  0  0
   12.1054  -19.2967   24.1821 O   0  0  0  0  0  0  0  0  0  0  0  0
   11.7412  -20.3086   23.5624 C   0  0  0  0  0  0  0  0  0  0  0  0
   10.1971  -15.3954   25.0648 O   0  0  0  0  0  0  0  0  0  0  0  0
   11.1375  -14.5350   24.9435 O   0  0  0  0  0  0  0  0  0  0  0  0
   13.4625  -19.0767   24.3684 C   0  0  0  0  0  0  0  0  0  0  0  0
    8.9446  -13.5092   27.7690 C   0  0  2  0  0  0  0  0  0  0  0  0
   10.0130  -14.4970   27.4334 N   0  0  0  0  0  0  0  0  0  0  0  0
    9.5965  -15.4004   26.3635 C   0  0  0  0  0  0  0  0  0  0  0  0
   10.4982  -15.2758   28.6044 O   0  0  0  0  0  0  0  0  0  0  0  0
   11.0170  -14.5973   29.6811 O   0  0  0  0  0  0  0  0  0  0  0  0
  2  3  2  0
  2  1  1  0
  4  2  1  0
  5  4  1  0
  6  5  1  0
  7  6  1  0
  8 10  1  0
  8  7  1  0
  8  9  1  6
 10 11  2  0
 12 10  1  0
 12 13  1  0
 13 14  1  1
 15 14  1  0
 15 16  1  0
 16 17  2  0
 18 23  1  0
 18 13  1  0
 19 18  2  0
 20 16  1  0
 22 21  1  6
 22 24  1  0
 22 23  1  0
 24 25  1  0
 26 24  2  0
M  END
$$$$
