REA.pdb
     RDKit          3D

 26 25  0  0  1  0  0  0  0  0999 V2000
    5.8035  -12.9684   17.6164 N   0  0  0  0  0  0  0  0  0  0  0  0
    7.0708  -13.1833   18.2160 C   0  0  0  0  0  0  0  0  0  0  0  0
    8.1180  -13.1517   17.4609 N   0  0  0  0  0  0  0  0  0  0  0  0
    7.2108  -13.4303   19.6211 N   0  0  0  0  0  0  0  0  0  0  0  0
    8.5349  -13.4745   20.2377 C   0  0  0  0  0  0  0  0  0  0  0  0
    9.1781  -14.7915   19.9831 C   0  0  0  0  0  0  0  0  0  0  0  0
    9.6369  -15.5462   21.1704 C   0  0  0  0  0  0  0  0  0  0  0  0
   10.4014  -16.8010   20.9200 C   0  0  2  0  0  0  0  0  0  0  0  0
    9.4421  -17.8545   20.5690 N   0  0  0  0  0  0  0  0  0  0  0  0
   10.9924  -17.2140   22.2443 C   0  0  0  0  0  0  0  0  0  0  0  0
   10.3334  -17.9658   23.0177 O   0  0  0  0  0  0  0  0  0  0  0  0
    9.0855  -13.3665   17.7973 N   0  0  0  0  0  0  0  0  0  0  0  0
   12.2698  -16.7690   22.6236 C   0  0  2  0  0  0  0  0  0  0  0  0
   12.9390  -17.1722   23.8771 C   0  0  0  0  0  0  0  0  0  0  0  0
   14.3983  -16.7592   23.7829 C   0  0  0  0  0  0  0  0  0  0  0  0
   15.2222  -17.0582   24.9868 C   0  0  0  0  0  0  0  0  0  0  0  0
   16.6252  -16.5836   24.6525 O   0  0  0  0  0  0  0  0  0  0  0  0
   17.3222  -15.9496   25.4604 C   0  0  0  0  0  0  0  0  0  0  0  0
   12.1998  -16.5748   24.9789 O   0  0  0  0  0  0  0  0  0  0  0  0
   12.0621  -15.3050   25.0678 O   0  0  0  0  0  0  0  0  0  0  0  0
   17.1450  -16.8698   23.3985 C   0  0  0  0  0  0  0  0  0  0  0  0
    9.4253  -16.7537   27.0973 C   0  0  2  0  0  0  0  0  0  0  0  0
   10.9114  -16.6249   27.1673 N   0  0  0  0  0  0  0  0  0  0  0  0
   11.5648  -17.2905   26.0428 C   0  0  0  0  0  0  0  0  0  0  0  0
   11.4938  -17.0959   28.4526 O   0  0  0  0  0  0  0  0  0  0  0  0
   11.1347  -16.4568   29.6151 O   0  0  0  0  0  0  0  0  0  0  0  0
  2  3  2  0
  2  1  1  0
  4  2  1  0
  5  4  1  0
  6  5  1  0
  7  6  1  0
  8 10  1  0
  8  7  1  0
  8  9  1  1
 10 11  2  0
 12 10  1  0
 12 13  1  0
 13 14  1  6
 15 14  1  0
 15 16  1  0
 16 17  2  0
 18 23  1  0
 18 13  1  0
 19 18  2  0
 20 16  1  0
 22 21  1  6
 22 24  1  0
 22 23  1  0
 24 25  1  0
 26 24  2  0
M  END
$$$$
