REA.pdb
     RDKit          3D

 26 25  0  0  1  0  0  0  0  0999 V2000
    9.3502  -13.9533   18.2940 N   0  0  0  0  0  0  0  0  0  0  0  0
    8.6298  -13.1175   19.1851 C   0  0  0  0  0  0  0  0  0  0  0  0
    9.2757  -12.1918   19.8127 N   0  0  0  0  0  0  0  0  0  0  0  0
    7.2214  -13.2763   19.3996 N   0  0  0  0  0  0  0  0  0  0  0  0
    6.7274  -14.0732   20.5204 C   0  0  0  0  0  0  0  0  0  0  0  0
    6.6368  -15.5066   20.1330 C   0  0  0  0  0  0  0  0  0  0  0  0
    7.5405  -16.4427   20.8380 C   0  0  0  0  0  0  0  0  0  0  0  0
    6.9104  -17.6173   21.5051 C   0  0  2  0  0  0  0  0  0  0  0  0
    5.5859  -17.8222   20.9075 N   0  0  0  0  0  0  0  0  0  0  0  0
    6.6532  -17.2112   22.9343 C   0  0  0  0  0  0  0  0  0  0  0  0
    5.5118  -16.7832   23.2686 O   0  0  0  0  0  0  0  0  0  0  0  0
    8.8298  -11.5204   20.4803 N   0  0  0  0  0  0  0  0  0  0  0  0
    7.6731  -17.3057   23.8958 C   0  0  2  0  0  0  0  0  0  0  0  0
    7.4658  -17.0574   25.3370 C   0  0  0  0  0  0  0  0  0  0  0  0
    8.2337  -18.1166   26.1100 C   0  0  0  0  0  0  0  0  0  0  0  0
    8.1935  -17.9755   27.5920 C   0  0  0  0  0  0  0  0  0  0  0  0
    9.0260  -19.1228   28.1364 O   0  0  0  0  0  0  0  0  0  0  0  0
   10.2558  -19.0405   28.2822 C   0  0  0  0  0  0  0  0  0  0  0  0
    7.8681  -15.6854   25.6066 O   0  0  0  0  0  0  0  0  0  0  0  0
    9.0186  -15.2537   25.2469 O   0  0  0  0  0  0  0  0  0  0  0  0
    8.3872  -20.3047   28.4826 C   0  0  0  0  0  0  0  0  0  0  0  0
    6.5179  -12.4275   26.9880 C   0  0  1  0  0  0  0  0  0  0  0  0
    7.6068  -13.4079   26.7003 N   0  0  0  0  0  0  0  0  0  0  0  0
    7.0725  -14.6972   26.2681 C   0  0  0  0  0  0  0  0  0  0  0  0
    8.5564  -13.5973   27.8298 O   0  0  0  0  0  0  0  0  0  0  0  0
    8.6473  -14.8367   28.4167 O   0  0  0  0  0  0  0  0  0  0  0  0
  2  3  2  0
  2  1  1  0
  4  2  1  0
  5  4  1  0
  6  5  1  0
  7  6  1  0
  8 10  1  0
  8  7  1  0
  8  9  1  6
 10 11  2  0
 12 10  1  0
 12 13  1  0
 13 14  1  6
 15 14  1  0
 15 16  1  0
 16 17  2  0
 18 23  1  0
 18 13  1  0
 19 18  2  0
 20 16  1  0
 22 21  1  6
 22 24  1  0
 22 23  1  0
 24 25  1  0
 26 24  2  0
M  END
$$$$
