REA.pdb
     RDKit          3D

 26 25  0  0  1  0  0  0  0  0999 V2000
    8.6052  -12.0926   17.6240 N   0  0  0  0  0  0  0  0  0  0  0  0
    8.8693  -13.1024   18.5842 C   0  0  0  0  0  0  0  0  0  0  0  0
    9.4245  -12.7574   19.6981 N   0  0  0  0  0  0  0  0  0  0  0  0
    8.5374  -14.4768   18.3476 N   0  0  0  0  0  0  0  0  0  0  0  0
    8.0687  -15.3252   19.4412 C   0  0  0  0  0  0  0  0  0  0  0  0
    7.2746  -14.5240   20.4109 C   0  0  0  0  0  0  0  0  0  0  0  0
    6.8871  -15.1994   21.6692 C   0  0  0  0  0  0  0  0  0  0  0  0
    7.3514  -16.6037   21.8536 C   0  0  2  0  0  0  0  0  0  0  0  0
    6.2053  -17.4932   21.6329 N   0  0  0  0  0  0  0  0  0  0  0  0
    7.7047  -16.7500   23.3121 C   0  0  0  0  0  0  0  0  0  0  0  0
    6.8417  -16.4826   24.1961 O   0  0  0  0  0  0  0  0  0  0  0  0
    9.7239  -13.4375   20.4350 N   0  0  0  0  0  0  0  0  0  0  0  0
    8.9858  -17.1816   23.6944 C   0  0  2  0  0  0  0  0  0  0  0  0
    9.4066  -17.3540   25.0998 C   0  0  0  0  0  0  0  0  0  0  0  0
   10.5658  -18.3363   25.1245 C   0  0  0  0  0  0  0  0  0  0  0  0
   11.1720  -18.5699   26.4645 C   0  0  0  0  0  0  0  0  0  0  0  0
   12.2947  -19.5670   26.2390 O   0  0  0  0  0  0  0  0  0  0  0  0
   12.1985  -20.5043   25.4310 C   0  0  0  0  0  0  0  0  0  0  0  0
    9.7072  -16.0333   25.6312 O   0  0  0  0  0  0  0  0  0  0  0  0
   10.5381  -15.2589   25.0401 O   0  0  0  0  0  0  0  0  0  0  0  0
   13.4695  -19.4236   26.9629 C   0  0  0  0  0  0  0  0  0  0  0  0
    8.5638  -13.2149   27.5867 C   0  0  1  0  0  0  0  0  0  0  0  0
    9.6453  -14.2309   27.4198 N   0  0  0  0  0  0  0  0  0  0  0  0
    9.1416  -15.4615   26.8146 C   0  0  0  0  0  0  0  0  0  0  0  0
   10.3777  -14.5387   28.6777 O   0  0  0  0  0  0  0  0  0  0  0  0
   11.0347  -13.5208   29.3265 O   0  0  0  0  0  0  0  0  0  0  0  0
  2  3  2  0
  2  1  1  0
  4  2  1  0
  5  4  1  0
  6  5  1  0
  7  6  1  0
  8 10  1  0
  8  7  1  0
  8  9  1  1
 10 11  2  0
 12 10  1  0
 12 13  1  0
 13 14  1  6
 15 14  1  0
 15 16  1  0
 16 17  2  0
 18 23  1  0
 18 13  1  0
 19 18  2  0
 20 16  1  0
 22 21  1  6
 22 24  1  0
 22 23  1  0
 24 25  1  0
 26 24  2  0
M  END
$$$$
