REA.pdb
     RDKit          3D

 26 25  0  0  1  0  0  0  0  0999 V2000
    7.7474  -12.9732   16.8708 N   0  0  0  0  0  0  0  0  0  0  0  0
    8.2309  -13.4892   18.1002 C   0  0  0  0  0  0  0  0  0  0  0  0
    8.6663  -12.6551   18.9849 N   0  0  0  0  0  0  0  0  0  0  0  0
    8.2455  -14.8957   18.3769 N   0  0  0  0  0  0  0  0  0  0  0  0
    8.0674  -15.3846   19.7423 C   0  0  0  0  0  0  0  0  0  0  0  0
    6.7501  -14.9481   20.2782 C   0  0  0  0  0  0  0  0  0  0  0  0
    6.4206  -15.3738   21.6566 C   0  0  0  0  0  0  0  0  0  0  0  0
    6.7185  -16.7892   22.0165 C   0  0  2  0  0  0  0  0  0  0  0  0
    5.6039  -17.6208   21.5479 N   0  0  0  0  0  0  0  0  0  0  0  0
    6.6782  -16.8660   23.5218 C   0  0  0  0  0  0  0  0  0  0  0  0
    5.5909  -16.6559   24.1313 O   0  0  0  0  0  0  0  0  0  0  0  0
    9.1252  -12.9425   19.8805 N   0  0  0  0  0  0  0  0  0  0  0  0
    7.8403  -17.1695   24.2506 C   0  0  2  0  0  0  0  0  0  0  0  0
    7.9194  -17.1189   25.7247 C   0  0  0  0  0  0  0  0  0  0  0  0
    8.6357  -18.3725   26.1986 C   0  0  0  0  0  0  0  0  0  0  0  0
    8.8309  -18.4743   27.6714 C   0  0  0  0  0  0  0  0  0  0  0  0
    9.5941  -19.7675   27.8961 O   0  0  0  0  0  0  0  0  0  0  0  0
    9.9530  -20.4984   26.9593 C   0  0  0  0  0  0  0  0  0  0  0  0
    8.5663  -15.8665   26.0851 O   0  0  0  0  0  0  0  0  0  0  0  0
    9.6580  -15.5037   25.5232 O   0  0  0  0  0  0  0  0  0  0  0  0
    9.9005  -20.1440   29.1957 C   0  0  0  0  0  0  0  0  0  0  0  0
    7.9581  -12.6144   27.8281 C   0  0  1  0  0  0  0  0  0  0  0  0
    8.8528  -13.7535   27.4651 N   0  0  0  0  0  0  0  0  0  0  0  0
    8.0898  -14.9307   27.0569 C   0  0  0  0  0  0  0  0  0  0  0  0
    9.8249  -14.1152   28.5316 O   0  0  0  0  0  0  0  0  0  0  0  0
   10.8058  -13.2126   28.8664 O   0  0  0  0  0  0  0  0  0  0  0  0
  2  3  2  0
  2  1  1  0
  4  2  1  0
  5  4  1  0
  6  5  1  0
  7  6  1  0
  8 10  1  0
  8  7  1  0
  8  9  1  6
 10 11  2  0
 12 10  1  0
 12 13  1  0
 13 14  1  6
 15 14  1  0
 15 16  1  0
 16 17  2  0
 18 23  1  0
 18 13  1  0
 19 18  2  0
 20 16  1  0
 22 21  1  6
 22 24  1  0
 22 23  1  0
 24 25  1  0
 26 24  2  0
M  END
$$$$
