REA.pdb
     RDKit          3D

 26 25  0  0  1  0  0  0  0  0999 V2000
    8.6133  -13.1530   15.7867 N   0  0  0  0  0  0  0  0  0  0  0  0
    8.4330  -13.3109   17.1846 C   0  0  0  0  0  0  0  0  0  0  0  0
    9.4744  -13.2521   17.9463 N   0  0  0  0  0  0  0  0  0  0  0  0
    7.1387  -13.5304   17.7605 N   0  0  0  0  0  0  0  0  0  0  0  0
    6.9960  -13.7654   19.1956 C   0  0  0  0  0  0  0  0  0  0  0  0
    8.1610  -14.5340   19.7102 C   0  0  0  0  0  0  0  0  0  0  0  0
    8.0845  -14.9933   21.1149 C   0  0  0  0  0  0  0  0  0  0  0  0
    8.1301  -16.4646   21.3486 C   0  0  2  0  0  0  0  0  0  0  0  0
    6.8483  -17.0328   20.9157 N   0  0  0  0  0  0  0  0  0  0  0  0
    8.1773  -16.6596   22.8431 C   0  0  0  0  0  0  0  0  0  0  0  0
    7.1047  -16.6423   23.5117 O   0  0  0  0  0  0  0  0  0  0  0  0
    9.4382  -13.3281   18.9895 N   0  0  0  0  0  0  0  0  0  0  0  0
    9.4047  -16.8606   23.4964 C   0  0  2  0  0  0  0  0  0  0  0  0
    9.5373  -17.0246   24.9583 C   0  0  0  0  0  0  0  0  0  0  0  0
   10.6620  -18.0127   25.2188 C   0  0  0  0  0  0  0  0  0  0  0  0
   11.0243  -18.1997   26.6511 C   0  0  0  0  0  0  0  0  0  0  0  0
   12.1306  -19.2396   26.6623 O   0  0  0  0  0  0  0  0  0  0  0  0
   12.5883  -19.7341   25.6198 C   0  0  0  0  0  0  0  0  0  0  0  0
    9.7351  -15.7015   25.5305 O   0  0  0  0  0  0  0  0  0  0  0  0
   10.6738  -14.9372   25.1133 O   0  0  0  0  0  0  0  0  0  0  0  0
   12.6472  -19.6507   27.8825 C   0  0  0  0  0  0  0  0  0  0  0  0
    8.1151  -13.0103   27.4929 C   0  0  1  0  0  0  0  0  0  0  0  0
    9.3112  -13.8660   27.2342 N   0  0  0  0  0  0  0  0  0  0  0  0
    8.9476  -15.1166   26.5721 C   0  0  0  0  0  0  0  0  0  0  0  0
   10.1228  -14.1447   28.4495 O   0  0  0  0  0  0  0  0  0  0  0  0
   10.7333  -13.0945   29.0923 O   0  0  0  0  0  0  0  0  0  0  0  0
  2  3  2  0
  2  1  1  0
  4  2  1  0
  5  4  1  0
  6  5  1  0
  7  6  1  0
  8 10  1  0
  8  7  1  0
  8  9  1  1
 10 11  2  0
 12 10  1  0
 12 13  1  0
 13 14  1  6
 15 14  1  0
 15 16  1  0
 16 17  2  0
 18 23  1  0
 18 13  1  0
 19 18  2  0
 20 16  1  0
 22 21  1  6
 22 24  1  0
 22 23  1  0
 24 25  1  0
 26 24  2  0
M  END
$$$$
