REA.pdb
     RDKit          3D

 26 25  0  0  1  0  0  0  0  0999 V2000
    7.7133  -12.2321   21.2564 N   0  0  0  0  0  0  0  0  0  0  0  0
    7.9906  -12.2112   19.8657 C   0  0  0  0  0  0  0  0  0  0  0  0
    8.7373  -11.2636   19.4049 N   0  0  0  0  0  0  0  0  0  0  0  0
    7.4676  -13.2053   18.9749 N   0  0  0  0  0  0  0  0  0  0  0  0
    7.8185  -14.6133   19.1470 C   0  0  0  0  0  0  0  0  0  0  0  0
    7.1816  -15.1564   20.3767 C   0  0  0  0  0  0  0  0  0  0  0  0
    7.5370  -16.5434   20.7506 C   0  0  0  0  0  0  0  0  0  0  0  0
    8.4940  -17.2596   19.8602 C   0  0  2  0  0  0  0  0  0  0  0  0
    7.8709  -18.5221   19.4463 N   0  0  0  0  0  0  0  0  0  0  0  0
    9.6696  -17.6493   20.7203 C   0  0  0  0  0  0  0  0  0  0  0  0
    9.6489  -18.7441   21.3517 O   0  0  0  0  0  0  0  0  0  0  0  0
    8.9568  -11.1362   18.3895 N   0  0  0  0  0  0  0  0  0  0  0  0
   10.7870  -16.8040   20.8239 C   0  0  2  0  0  0  0  0  0  0  0  0
   11.9808  -17.1200   21.6344 C   0  0  0  0  0  0  0  0  0  0  0  0
   13.0741  -16.1322   21.2628 C   0  0  0  0  0  0  0  0  0  0  0  0
   14.3492  -16.2825   22.0172 C   0  0  0  0  0  0  0  0  0  0  0  0
   15.3077  -15.2745   21.4084 O   0  0  0  0  0  0  0  0  0  0  0  0
   15.8851  -14.4118   22.0888 C   0  0  0  0  0  0  0  0  0  0  0  0
   11.5787  -17.0964   23.0325 O   0  0  0  0  0  0  0  0  0  0  0  0
   10.9562  -16.0902   23.5219 O   0  0  0  0  0  0  0  0  0  0  0  0
   15.5454  -15.3209   20.0423 C   0  0  0  0  0  0  0  0  0  0  0  0
   10.1732  -18.7706   25.6863 C   0  0  2  0  0  0  0  0  0  0  0  0
   11.4333  -18.0253   25.3921 N   0  0  0  0  0  0  0  0  0  0  0  0
   11.8116  -18.1380   23.9854 C   0  0  0  0  0  0  0  0  0  0  0  0
   12.5751  -18.4110   26.2642 O   0  0  0  0  0  0  0  0  0  0  0  0
   12.4621  -18.2276   27.6215 O   0  0  0  0  0  0  0  0  0  0  0  0
  2  3  2  0
  2  1  1  0
  4  2  1  0
  5  4  1  0
  6  5  1  0
  7  6  1  0
  8 10  1  0
  8  7  1  0
  8  9  1  1
 10 11  2  0
 12 10  1  0
 12 13  1  0
 13 14  1  6
 15 14  1  0
 15 16  1  0
 16 17  2  0
 18 23  1  0
 18 13  1  0
 19 18  2  0
 20 16  1  0
 22 21  1  6
 22 24  1  0
 22 23  1  0
 24 25  1  0
 26 24  2  0
M  END
$$$$
