YYC.pdb
     RDKit          3D

 31 32  0  0  1  0  0  0  0  0999 V2000
   11.7170   -9.7860  -19.5096 O   0  0  0  0  0  0  0  0  0  0  0  0
   12.8477   -9.7218  -18.7313 C   0  0  0  0  0  0  0  0  0  0  0  0
   12.8105  -10.2636  -17.4521 C   0  0  0  0  0  0  0  0  0  0  0  0
   13.9512  -10.1990  -16.6662 C   0  0  0  0  0  0  0  0  0  0  0  0
   15.1342   -9.6161  -17.1021 C   0  0  0  0  0  0  0  0  0  0  0  0
   16.3703   -9.5155  -16.2924 C   0  0  0  0  0  0  0  0  0  0  0  0
   17.3312  -10.5662  -16.8339 C   0  0  2  0  0  0  0  0  0  0  0  0
   16.8601  -11.8354  -16.2321 N   0  0  0  0  0  0  0  0  0  0  0  0
   18.7008  -10.3655  -16.3073 C   0  0  0  0  0  0  0  0  0  0  0  0
   18.9969  -10.8847  -15.2032 O   0  0  0  0  0  0  0  0  0  0  0  0
   15.0980   -9.1014  -18.3781 C   0  0  0  0  0  0  0  0  0  0  0  0
   13.9933   -9.1345  -19.2070 C   0  0  0  0  0  0  0  0  0  0  0  0
   27.5012   -9.6189  -15.6052 O   0  0  0  0  0  0  0  0  0  0  0  0
   26.1506   -9.7980  -15.9221 C   0  0  0  0  0  0  0  0  0  0  0  0
   25.3541  -10.4720  -15.0114 C   0  0  0  0  0  0  0  0  0  0  0  0
   24.0124  -10.6767  -15.2819 C   0  0  0  0  0  0  0  0  0  0  0  0
   23.4466  -10.2255  -16.4413 C   0  0  0  0  0  0  0  0  0  0  0  0
   22.0638  -10.4011  -16.8357 C   0  0  0  0  0  0  0  0  0  0  0  0
   21.0407   -9.4342  -16.4007 C   0  0  2  0  0  0  0  0  0  0  0  0
   19.7290   -9.6298  -16.9376 N   0  0  0  0  0  0  0  0  0  0  0  0
   21.4622   -8.0165  -16.4255 C   0  0  0  0  0  0  0  0  0  0  0  0
   21.7430   -7.5326  -17.5502 O   0  0  0  0  0  0  0  0  0  0  0  0
   24.2787   -9.5470  -17.3402 C   0  0  0  0  0  0  0  0  0  0  0  0
   25.6162   -9.3357  -17.0827 C   0  0  0  0  0  0  0  0  0  0  0  0
   21.5606   -7.1992  -15.2706 N   0  0  0  0  0  0  0  0  0  0  0  0
   22.0506   -5.8628  -15.2509 C   0  0  1  0  0  0  0  0  0  0  0  0
   20.8884   -4.8588  -15.1436 C   0  0  0  0  0  0  0  0  0  0  0  0
   19.7153   -5.2638  -16.4598 S   0  0  0  0  0  0  0  0  0  0  0  0
   23.0672   -5.5982  -14.2227 C   0  0  0  0  0  0  0  0  0  0  0  0
   23.6375   -4.3286  -14.1670 O   0  0  0  0  0  0  0  0  0  0  0  0
   23.4703   -6.4337  -13.3755 O   0  0  0  0  0  0  0  0  0  0  0  0
  2  3  2  0
  2  1  1  0
  4  3  1  0
  5  4  2  0
  6  5  1  0
  7  6  1  0
  7  8  1  1
  9  7  1  0
  9 10  2  0
 11  5  1  0
 11 12  2  0
 12  2  1  0
 13 14  1  0
 14 15  2  0
 15 16  1  0
 17 16  2  0
 17 18  1  0
 19 18  1  6
 19 20  1  0
 20  9  1  0
 21 19  1  0
 22 21  2  0
 23 17  1  0
 24 14  1  0
 24 23  2  0
 25 21  1  0
 26 25  1  0
 26 27  1  1
 27 28  1  0
 29 30  1  0
 29 26  1  0
 31 29  2  0
M  END
$$$$
