YYC.pdb
     RDKit          3D

 31 32  0  0  1  0  0  0  0  0999 V2000
   25.9220  -32.2194  -10.6028 O   0  0  0  0  0  0  0  0  0  0  0  0
   26.0599  -32.9116   -9.4237 C   0  0  0  0  0  0  0  0  0  0  0  0
   27.3086  -32.9538   -8.8153 C   0  0  0  0  0  0  0  0  0  0  0  0
   27.4483  -33.6522   -7.6255 C   0  0  0  0  0  0  0  0  0  0  0  0
   26.3921  -34.3129   -7.0113 C   0  0  0  0  0  0  0  0  0  0  0  0
   26.4998  -35.0792   -5.7484 C   0  0  0  0  0  0  0  0  0  0  0  0
   27.3756  -36.2892   -6.0477 C   0  0  2  0  0  0  0  0  0  0  0  0
   26.5059  -37.1781   -6.8529 N   0  0  0  0  0  0  0  0  0  0  0  0
   27.6822  -37.0500   -4.8146 C   0  0  0  0  0  0  0  0  0  0  0  0
   26.8740  -37.9370   -4.4451 O   0  0  0  0  0  0  0  0  0  0  0  0
   25.1863  -34.2278   -7.6694 C   0  0  0  0  0  0  0  0  0  0  0  0
   24.9854  -33.5493   -8.8559 C   0  0  0  0  0  0  0  0  0  0  0  0
   32.1995  -40.9245    1.8711 O   0  0  0  0  0  0  0  0  0  0  0  0
   31.7818  -40.1668    0.7719 C   0  0  0  0  0  0  0  0  0  0  0  0
   31.5715  -40.8254   -0.4281 C   0  0  0  0  0  0  0  0  0  0  0  0
   31.1610  -40.1180   -1.5445 C   0  0  0  0  0  0  0  0  0  0  0  0
   30.9565  -38.7677   -1.4920 C   0  0  0  0  0  0  0  0  0  0  0  0
   30.5489  -37.9270   -2.5990 C   0  0  0  0  0  0  0  0  0  0  0  0
   29.1204  -37.6540   -2.8353 C   0  0  2  0  0  0  0  0  0  0  0  0
   28.8181  -36.8710   -3.9940 N   0  0  0  0  0  0  0  0  0  0  0  0
   28.3543  -37.2292   -1.6434 C   0  0  0  0  0  0  0  0  0  0  0  0
   28.4259  -36.0143   -1.3321 O   0  0  0  0  0  0  0  0  0  0  0  0
   31.1768  -38.1322   -0.2638 C   0  0  0  0  0  0  0  0  0  0  0  0
   31.5848  -38.8250    0.8558 C   0  0  0  0  0  0  0  0  0  0  0  0
   27.5630  -38.1049   -0.8569 N   0  0  0  0  0  0  0  0  0  0  0  0
   26.8307  -37.7286    0.3044 C   0  0  1  0  0  0  0  0  0  0  0  0
   25.4365  -38.3817    0.3037 C   0  0  0  0  0  0  0  0  0  0  0  0
   24.4964  -37.6218   -1.0421 S   0  0  0  0  0  0  0  0  0  0  0  0
   27.5257  -37.9803    1.5749 C   0  0  0  0  0  0  0  0  0  0  0  0
   26.8986  -37.5998    2.7591 O   0  0  0  0  0  0  0  0  0  0  0  0
   28.6550  -38.5196    1.6845 O   0  0  0  0  0  0  0  0  0  0  0  0
  2  3  2  0
  2  1  1  0
  4  3  1  0
  5  4  2  0
  6  5  1  0
  7  6  1  0
  7  8  1  6
  9  7  1  0
  9 10  2  0
 11  5  1  0
 11 12  2  0
 12  2  1  0
 13 14  1  0
 14 15  2  0
 15 16  1  0
 17 16  2  0
 17 18  1  0
 19 18  1  1
 19 20  1  0
 20  9  1  0
 21 19  1  0
 22 21  2  0
 23 17  1  0
 24 14  1  0
 24 23  2  0
 25 21  1  0
 26 25  1  0
 26 27  1  1
 27 28  1  0
 29 30  1  0
 29 26  1  0
 31 29  2  0
M  END
$$$$
