YYC.pdb
     RDKit          3D

 31 32  0  0  1  0  0  0  0  0999 V2000
   26.1728  -14.8556  -17.8422 O   0  0  0  0  0  0  0  0  0  0  0  0
   25.4519  -13.6859  -17.8246 C   0  0  0  0  0  0  0  0  0  0  0  0
   25.3394  -12.9877  -16.6283 C   0  0  0  0  0  0  0  0  0  0  0  0
   24.6121  -11.8072  -16.6100 C   0  0  0  0  0  0  0  0  0  0  0  0
   23.9895  -11.2885  -17.7381 C   0  0  0  0  0  0  0  0  0  0  0  0
   23.1944  -10.0390  -17.7602 C   0  0  0  0  0  0  0  0  0  0  0  0
   21.8888  -10.3420  -17.0361 C   0  0  2  0  0  0  0  0  0  0  0  0
   21.1682  -11.2568  -17.9518 N   0  0  0  0  0  0  0  0  0  0  0  0
   21.0369   -9.1348  -16.9347 C   0  0  0  0  0  0  0  0  0  0  0  0
   20.4260   -8.7486  -17.9615 O   0  0  0  0  0  0  0  0  0  0  0  0
   24.1438  -12.0319  -18.8861 C   0  0  0  0  0  0  0  0  0  0  0  0
   24.8541  -13.2140  -18.9664 C   0  0  0  0  0  0  0  0  0  0  0  0
   14.9453  -11.0164  -17.2761 O   0  0  0  0  0  0  0  0  0  0  0  0
   15.8722  -10.1418  -16.6993 C   0  0  0  0  0  0  0  0  0  0  0  0
   15.9420   -8.8507  -17.1953 C   0  0  0  0  0  0  0  0  0  0  0  0
   16.8456   -7.9499  -16.6592 C   0  0  0  0  0  0  0  0  0  0  0  0
   17.6826   -8.3078  -15.6399 C   0  0  0  0  0  0  0  0  0  0  0  0
   18.6773   -7.4569  -15.0195 C   0  0  0  0  0  0  0  0  0  0  0  0
   19.9716   -7.2239  -15.6840 C   0  0  2  0  0  0  0  0  0  0  0  0
   20.8408   -8.3569  -15.7720 N   0  0  0  0  0  0  0  0  0  0  0  0
   20.6791   -5.9921  -15.2716 C   0  0  0  0  0  0  0  0  0  0  0  0
   21.5145   -6.1080  -14.3406 O   0  0  0  0  0  0  0  0  0  0  0  0
   17.5861   -9.6199  -15.1604 C   0  0  0  0  0  0  0  0  0  0  0  0
   16.6900  -10.5266  -15.6848 C   0  0  0  0  0  0  0  0  0  0  0  0
   20.4657   -4.7205  -15.8624 N   0  0  0  0  0  0  0  0  0  0  0  0
   21.1494   -3.5244  -15.5039 C   0  0  1  0  0  0  0  0  0  0  0  0
   22.2056   -3.1631  -16.5642 C   0  0  0  0  0  0  0  0  0  0  0  0
   22.9321   -1.5815  -16.0705 S   0  0  0  0  0  0  0  0  0  0  0  0
   20.2729   -2.3776  -15.2265 C   0  0  0  0  0  0  0  0  0  0  0  0
   20.7649   -1.3457  -14.4307 O   0  0  0  0  0  0  0  0  0  0  0  0
   19.0992   -2.2469  -15.6550 O   0  0  0  0  0  0  0  0  0  0  0  0
  2  3  2  0
  2  1  1  0
  4  3  1  0
  5  4  2  0
  6  5  1  0
  7  6  1  0
  7  8  1  6
  9  7  1  0
  9 10  2  0
 11  5  1  0
 11 12  2  0
 12  2  1  0
 13 14  1  0
 14 15  2  0
 15 16  1  0
 17 16  2  0
 17 18  1  0
 19 18  1  1
 19 20  1  0
 20  9  1  0
 21 19  1  0
 22 21  2  0
 23 17  1  0
 24 14  1  0
 24 23  2  0
 25 21  1  0
 26 25  1  0
 26 27  1  6
 27 28  1  0
 29 30  1  0
 29 26  1  0
 31 29  2  0
M  END
$$$$
