YYC.pdb
     RDKit          3D

 31 32  0  0  1  0  0  0  0  0999 V2000
   16.8663  -26.0141   -5.7625 O   0  0  0  0  0  0  0  0  0  0  0  0
   17.5487  -25.6365   -6.8940 C   0  0  0  0  0  0  0  0  0  0  0  0
   18.3038  -26.5885   -7.5683 C   0  0  0  0  0  0  0  0  0  0  0  0
   18.9927  -26.2080   -8.7101 C   0  0  0  0  0  0  0  0  0  0  0  0
   18.9607  -24.9135   -9.2128 C   0  0  0  0  0  0  0  0  0  0  0  0
   19.6896  -24.4622  -10.4206 C   0  0  0  0  0  0  0  0  0  0  0  0
   18.6399  -24.2281  -11.4995 C   0  0  2  0  0  0  0  0  0  0  0  0
   18.2347  -25.5911  -11.9154 N   0  0  0  0  0  0  0  0  0  0  0  0
   19.2365  -23.6095  -12.7057 C   0  0  0  0  0  0  0  0  0  0  0  0
   19.8916  -24.3407  -13.4884 O   0  0  0  0  0  0  0  0  0  0  0  0
   18.1928  -24.0253   -8.4947 C   0  0  0  0  0  0  0  0  0  0  0  0
   17.4861  -24.3440   -7.3513 C   0  0  0  0  0  0  0  0  0  0  0  0
   21.3887  -17.6663  -19.0937 O   0  0  0  0  0  0  0  0  0  0  0  0
   20.8241  -18.3779  -18.0300 C   0  0  0  0  0  0  0  0  0  0  0  0
   20.1808  -19.5706  -18.3158 C   0  0  0  0  0  0  0  0  0  0  0  0
   19.6038  -20.3086  -17.2971 C   0  0  0  0  0  0  0  0  0  0  0  0
   19.6524  -19.8835  -15.9992 C   0  0  0  0  0  0  0  0  0  0  0  0
   19.0671  -20.5620  -14.8610 C   0  0  0  0  0  0  0  0  0  0  0  0
   19.7967  -21.6547  -14.1942 C   0  0  2  0  0  0  0  0  0  0  0  0
   19.1406  -22.2479  -13.0696 N   0  0  0  0  0  0  0  0  0  0  0  0
   21.2318  -21.3952  -13.9465 C   0  0  0  0  0  0  0  0  0  0  0  0
   21.5171  -20.7705  -12.8946 O   0  0  0  0  0  0  0  0  0  0  0  0
   20.3110  -18.6744  -15.7437 C   0  0  0  0  0  0  0  0  0  0  0  0
   20.8906  -17.9303  -16.7488 C   0  0  0  0  0  0  0  0  0  0  0  0
   22.2730  -21.8083  -14.8163 N   0  0  0  0  0  0  0  0  0  0  0  0
   23.6459  -21.4588  -14.6761 C   0  0  1  0  0  0  0  0  0  0  0  0
   24.5024  -22.7115  -14.4168 C   0  0  0  0  0  0  0  0  0  0  0  0
   26.2275  -22.1703  -14.3553 S   0  0  0  0  0  0  0  0  0  0  0  0
   24.1942  -20.6714  -15.7896 C   0  0  0  0  0  0  0  0  0  0  0  0
   24.8356  -19.4699  -15.4980 O   0  0  0  0  0  0  0  0  0  0  0  0
   24.1334  -20.9970  -17.0015 O   0  0  0  0  0  0  0  0  0  0  0  0
  2  3  2  0
  2  1  1  0
  4  3  1  0
  5  4  2  0
  6  5  1  0
  7  6  1  0
  7  8  1  6
  9  7  1  0
  9 10  2  0
 11  5  1  0
 11 12  2  0
 12  2  1  0
 13 14  1  0
 14 15  2  0
 15 16  1  0
 17 16  2  0
 17 18  1  0
 19 18  1  1
 19 20  1  0
 20  9  1  0
 21 19  1  0
 22 21  2  0
 23 17  1  0
 24 14  1  0
 24 23  2  0
 25 21  1  0
 26 25  1  0
 26 27  1  6
 27 28  1  0
 29 30  1  0
 29 26  1  0
 31 29  2  0
M  END
$$$$
