YYC.pdb
     RDKit          3D

 31 32  0  0  1  0  0  0  0  0999 V2000
   29.7029  -22.6018  -17.1039 O   0  0  0  0  0  0  0  0  0  0  0  0
   28.6495  -21.7490  -16.8769 C   0  0  0  0  0  0  0  0  0  0  0  0
   28.6144  -20.5353  -17.5530 C   0  0  0  0  0  0  0  0  0  0  0  0
   27.5516  -19.6743  -17.3244 C   0  0  0  0  0  0  0  0  0  0  0  0
   26.5161  -19.9719  -16.4478 C   0  0  0  0  0  0  0  0  0  0  0  0
   25.3698  -19.0774  -16.1657 C   0  0  0  0  0  0  0  0  0  0  0  0
   24.1096  -19.8747  -16.4772 C   0  0  2  0  0  0  0  0  0  0  0  0
   24.1443  -20.0509  -17.9478 N   0  0  0  0  0  0  0  0  0  0  0  0
   22.8894  -19.0809  -16.2045 C   0  0  0  0  0  0  0  0  0  0  0  0
   22.4481  -18.3352  -17.1132 O   0  0  0  0  0  0  0  0  0  0  0  0
   26.6167  -21.1899  -15.8148 C   0  0  0  0  0  0  0  0  0  0  0  0
   27.6497  -22.0882  -16.0000 C   0  0  0  0  0  0  0  0  0  0  0  0
   15.3713  -15.9405  -12.5234 O   0  0  0  0  0  0  0  0  0  0  0  0
   16.5456  -16.6469  -12.8041 C   0  0  0  0  0  0  0  0  0  0  0  0
   17.7160  -16.2296  -12.1924 C   0  0  0  0  0  0  0  0  0  0  0  0
   18.9037  -16.8948  -12.4414 C   0  0  0  0  0  0  0  0  0  0  0  0
   18.9515  -17.9665  -13.2881 C   0  0  0  0  0  0  0  0  0  0  0  0
   20.1379  -18.7212  -13.6365 C   0  0  0  0  0  0  0  0  0  0  0  0
   21.0033  -18.2729  -14.7415 C   0  0  2  0  0  0  0  0  0  0  0  0
   22.1580  -19.0784  -14.9959 N   0  0  0  0  0  0  0  0  0  0  0  0
   21.3022  -16.8243  -14.7601 C   0  0  0  0  0  0  0  0  0  0  0  0
   22.4096  -16.4722  -14.2829 O   0  0  0  0  0  0  0  0  0  0  0  0
   17.7509  -18.3637  -13.8894 C   0  0  0  0  0  0  0  0  0  0  0  0
   16.5610  -17.7106  -13.6493 C   0  0  0  0  0  0  0  0  0  0  0  0
   20.4220  -15.8405  -15.2786 N   0  0  0  0  0  0  0  0  0  0  0  0
   20.7226  -14.4546  -15.4026 C   0  0  1  0  0  0  0  0  0  0  0  0
   21.9169  -14.2398  -16.3502 C   0  0  0  0  0  0  0  0  0  0  0  0
   22.1423  -12.4530  -16.5215 S   0  0  0  0  0  0  0  0  0  0  0  0
   19.5835  -13.6138  -15.7976 C   0  0  0  0  0  0  0  0  0  0  0  0
   19.4453  -12.3632  -15.1999 O   0  0  0  0  0  0  0  0  0  0  0  0
   18.7111  -13.9326  -16.6435 O   0  0  0  0  0  0  0  0  0  0  0  0
  2  3  2  0
  2  1  1  0
  4  3  1  0
  5  4  2  0
  6  5  1  0
  7  6  1  0
  7  8  1  6
  9  7  1  0
  9 10  2  0
 11  5  1  0
 11 12  2  0
 12  2  1  0
 13 14  1  0
 14 15  2  0
 15 16  1  0
 17 16  2  0
 17 18  1  0
 19 18  1  1
 19 20  1  0
 20  9  1  0
 21 19  1  0
 22 21  2  0
 23 17  1  0
 24 14  1  0
 24 23  2  0
 25 21  1  0
 26 25  1  0
 26 27  1  6
 27 28  1  0
 29 30  1  0
 29 26  1  0
 31 29  2  0
M  END
$$$$
