YYC.pdb
     RDKit          3D

 31 32  0  0  1  0  0  0  0  0999 V2000
   27.6138  -20.4423  -22.7463 O   0  0  0  0  0  0  0  0  0  0  0  0
   26.8086  -20.7635  -21.6800 C   0  0  0  0  0  0  0  0  0  0  0  0
   25.7805  -19.8952  -21.3331 C   0  0  0  0  0  0  0  0  0  0  0  0
   24.9677  -20.2188  -20.2572 C   0  0  0  0  0  0  0  0  0  0  0  0
   25.1347  -21.3768  -19.5085 C   0  0  0  0  0  0  0  0  0  0  0  0
   24.2979  -21.7548  -18.3463 C   0  0  0  0  0  0  0  0  0  0  0  0
   24.9928  -21.1966  -17.1108 C   0  0  2  0  0  0  0  0  0  0  0  0
   26.1197  -22.1289  -16.8743 N   0  0  0  0  0  0  0  0  0  0  0  0
   24.1309  -21.3088  -15.9117 C   0  0  0  0  0  0  0  0  0  0  0  0
   24.0261  -22.4297  -15.3558 O   0  0  0  0  0  0  0  0  0  0  0  0
   26.1710  -22.1889  -19.9094 C   0  0  0  0  0  0  0  0  0  0  0  0
   27.0141  -21.9201  -20.9703 C   0  0  0  0  0  0  0  0  0  0  0  0
   18.9361  -19.5365   -8.8795 O   0  0  0  0  0  0  0  0  0  0  0  0
   19.7827  -19.4532   -9.9899 C   0  0  0  0  0  0  0  0  0  0  0  0
   19.2604  -18.9450  -11.1676 C   0  0  0  0  0  0  0  0  0  0  0  0
   20.0583  -18.8460  -12.2940 C   0  0  0  0  0  0  0  0  0  0  0  0
   21.3657  -19.2437  -12.2734 C   0  0  0  0  0  0  0  0  0  0  0  0
   22.2828  -19.2049  -13.3940 C   0  0  0  0  0  0  0  0  0  0  0  0
   22.4967  -20.4072  -14.2184 C   0  0  2  0  0  0  0  0  0  0  0  0
   23.3974  -20.2565  -15.3197 N   0  0  0  0  0  0  0  0  0  0  0  0
   21.2694  -21.1487  -14.5818 C   0  0  0  0  0  0  0  0  0  0  0  0
   20.6541  -20.7522  -15.6027 O   0  0  0  0  0  0  0  0  0  0  0  0
   21.8633  -19.7518  -11.0671 C   0  0  0  0  0  0  0  0  0  0  0  0
   21.0796  -19.8549   -9.9378 C   0  0  0  0  0  0  0  0  0  0  0  0
   20.7685  -22.2572  -13.8526 N   0  0  0  0  0  0  0  0  0  0  0  0
   19.5014  -22.8714  -14.0615 C   0  0  1  0  0  0  0  0  0  0  0  0
   19.4748  -24.2848  -13.4514 C   0  0  0  0  0  0  0  0  0  0  0  0
   17.8761  -25.0158  -13.8782 S   0  0  0  0  0  0  0  0  0  0  0  0
   18.3531  -22.0798  -13.5977 C   0  0  0  0  0  0  0  0  0  0  0  0
   17.3586  -21.7546  -14.5173 O   0  0  0  0  0  0  0  0  0  0  0  0
   18.1897  -21.6665  -12.4227 O   0  0  0  0  0  0  0  0  0  0  0  0
  2  3  2  0
  2  1  1  0
  4  3  1  0
  5  4  2  0
  6  5  1  0
  7  6  1  0
  7  8  1  1
  9  7  1  0
  9 10  2  0
 11  5  1  0
 11 12  2  0
 12  2  1  0
 13 14  1  0
 14 15  2  0
 15 16  1  0
 17 16  2  0
 17 18  1  0
 19 18  1  6
 19 20  1  0
 20  9  1  0
 21 19  1  0
 22 21  2  0
 23 17  1  0
 24 14  1  0
 24 23  2  0
 25 21  1  0
 26 25  1  0
 26 27  1  1
 27 28  1  0
 29 30  1  0
 29 26  1  0
 31 29  2  0
M  END
$$$$
