YYC.pdb
     RDKit          3D

 31 32  0  0  1  0  0  0  0  0999 V2000
   33.8206  -31.7258  -16.5151 O   0  0  0  0  0  0  0  0  0  0  0  0
   32.4828  -31.4211  -16.4372 C   0  0  0  0  0  0  0  0  0  0  0  0
   32.0245  -30.2613  -17.0504 C   0  0  0  0  0  0  0  0  0  0  0  0
   30.6746  -29.9534  -16.9722 C   0  0  0  0  0  0  0  0  0  0  0  0
   29.7563  -30.7558  -16.3071 C   0  0  0  0  0  0  0  0  0  0  0  0
   28.3101  -30.4587  -16.1895 C   0  0  0  0  0  0  0  0  0  0  0  0
   27.5901  -31.4303  -17.1161 C   0  0  2  0  0  0  0  0  0  0  0  0
   27.5858  -30.7453  -18.4297 N   0  0  0  0  0  0  0  0  0  0  0  0
   26.1643  -31.5741  -16.7424 C   0  0  0  0  0  0  0  0  0  0  0  0
   25.3950  -30.6021  -16.9416 O   0  0  0  0  0  0  0  0  0  0  0  0
   30.2808  -31.8872  -15.7250 C   0  0  0  0  0  0  0  0  0  0  0  0
   31.6142  -32.2461  -15.7676 C   0  0  0  0  0  0  0  0  0  0  0  0
   22.3442  -29.6775  -21.1041 O   0  0  0  0  0  0  0  0  0  0  0  0
   22.5681  -30.5563  -20.0391 C   0  0  0  0  0  0  0  0  0  0  0  0
   21.8814  -30.3323  -18.8574 C   0  0  0  0  0  0  0  0  0  0  0  0
   22.0723  -31.1728  -17.7746 C   0  0  0  0  0  0  0  0  0  0  0  0
   22.9338  -32.2315  -17.8427 C   0  0  0  0  0  0  0  0  0  0  0  0
   23.2254  -33.1593  -16.7692 C   0  0  0  0  0  0  0  0  0  0  0  0
   24.2120  -32.8072  -15.7331 C   0  0  2  0  0  0  0  0  0  0  0  0
   25.5718  -32.7215  -16.1696 N   0  0  0  0  0  0  0  0  0  0  0  0
   24.0680  -33.5341  -14.4528 C   0  0  0  0  0  0  0  0  0  0  0  0
   24.9034  -34.4444  -14.2256 O   0  0  0  0  0  0  0  0  0  0  0  0
   23.6115  -32.4311  -19.0518 C   0  0  0  0  0  0  0  0  0  0  0  0
   23.4300  -31.6021  -20.1379 C   0  0  0  0  0  0  0  0  0  0  0  0
   23.0594  -33.2585  -13.4946 N   0  0  0  0  0  0  0  0  0  0  0  0
   22.8742  -33.9646  -12.2725 C   0  0  1  0  0  0  0  0  0  0  0  0
   22.1341  -33.0889  -11.2450 C   0  0  0  0  0  0  0  0  0  0  0  0
   22.2157  -33.9518   -9.6571 S   0  0  0  0  0  0  0  0  0  0  0  0
   22.2184  -35.2725  -12.4141 C   0  0  0  0  0  0  0  0  0  0  0  0
   22.8066  -36.3775  -11.8031 O   0  0  0  0  0  0  0  0  0  0  0  0
   21.1543  -35.4805  -13.0486 O   0  0  0  0  0  0  0  0  0  0  0  0
  2  3  2  0
  2  1  1  0
  4  3  1  0
  5  4  2  0
  6  5  1  0
  7  6  1  0
  7  8  1  6
  9  7  1  0
  9 10  2  0
 11  5  1  0
 11 12  2  0
 12  2  1  0
 13 14  1  0
 14 15  2  0
 15 16  1  0
 17 16  2  0
 17 18  1  0
 19 18  1  6
 19 20  1  0
 20  9  1  0
 21 19  1  0
 22 21  2  0
 23 17  1  0
 24 14  1  0
 24 23  2  0
 25 21  1  0
 26 25  1  0
 26 27  1  1
 27 28  1  0
 29 30  1  0
 29 26  1  0
 31 29  2  0
M  END
$$$$
