YYC.pdb
     RDKit          3D

 31 32  0  0  1  0  0  0  0  0999 V2000
   34.0865  -30.9626  -19.4110 O   0  0  0  0  0  0  0  0  0  0  0  0
   32.9269  -30.9429  -18.6739 C   0  0  0  0  0  0  0  0  0  0  0  0
   32.5576  -32.0877  -17.9779 C   0  0  0  0  0  0  0  0  0  0  0  0
   31.3875  -32.0684  -17.2340 C   0  0  0  0  0  0  0  0  0  0  0  0
   30.5655  -30.9517  -17.1517 C   0  0  0  0  0  0  0  0  0  0  0  0
   29.3030  -30.8918  -16.3794 C   0  0  0  0  0  0  0  0  0  0  0  0
   28.2249  -31.5098  -17.2606 C   0  0  2  0  0  0  0  0  0  0  0  0
   27.8790  -30.4356  -18.2205 N   0  0  0  0  0  0  0  0  0  0  0  0
   26.9844  -31.7665  -16.4934 C   0  0  0  0  0  0  0  0  0  0  0  0
   25.9218  -31.2193  -16.8779 O   0  0  0  0  0  0  0  0  0  0  0  0
   30.9938  -29.8555  -17.8653 C   0  0  0  0  0  0  0  0  0  0  0  0
   32.1473  -29.8145  -18.6243 C   0  0  0  0  0  0  0  0  0  0  0  0
   19.5903  -34.5855  -13.1340 O   0  0  0  0  0  0  0  0  0  0  0  0
   20.8080  -34.2468  -13.7334 C   0  0  0  0  0  0  0  0  0  0  0  0
   21.7262  -35.2597  -13.9550 C   0  0  0  0  0  0  0  0  0  0  0  0
   22.9462  -34.9732  -14.5422 C   0  0  0  0  0  0  0  0  0  0  0  0
   23.2724  -33.6988  -14.9124 C   0  0  0  0  0  0  0  0  0  0  0  0
   24.5233  -33.2829  -15.5130 C   0  0  0  0  0  0  0  0  0  0  0  0
   25.6541  -32.8736  -14.6616 C   0  0  2  0  0  0  0  0  0  0  0  0
   26.8767  -32.5828  -15.3454 N   0  0  0  0  0  0  0  0  0  0  0  0
   25.8596  -33.6953  -13.4489 C   0  0  0  0  0  0  0  0  0  0  0  0
   26.4974  -34.7674  -13.5971 O   0  0  0  0  0  0  0  0  0  0  0  0
   22.3218  -32.6981  -14.6757 C   0  0  0  0  0  0  0  0  0  0  0  0
   21.1028  -32.9700  -14.0925 C   0  0  0  0  0  0  0  0  0  0  0  0
   25.3847  -33.3390  -12.1609 N   0  0  0  0  0  0  0  0  0  0  0  0
   25.5482  -34.1194  -10.9816 C   0  0  1  0  0  0  0  0  0  0  0  0
   24.8597  -33.4432   -9.7820 C   0  0  0  0  0  0  0  0  0  0  0  0
   25.6896  -31.8572   -9.5200 S   0  0  0  0  0  0  0  0  0  0  0  0
   25.1200  -35.5197  -11.1094 C   0  0  0  0  0  0  0  0  0  0  0  0
   25.5586  -36.4357  -10.1562 O   0  0  0  0  0  0  0  0  0  0  0  0
   24.3786  -35.9666  -12.0198 O   0  0  0  0  0  0  0  0  0  0  0  0
  2  3  2  0
  2  1  1  0
  4  3  1  0
  5  4  2  0
  6  5  1  0
  7  6  1  0
  7  8  1  6
  9  7  1  0
  9 10  2  0
 11  5  1  0
 11 12  2  0
 12  2  1  0
 13 14  1  0
 14 15  2  0
 15 16  1  0
 17 16  2  0
 17 18  1  0
 19 18  1  6
 19 20  1  0
 20  9  1  0
 21 19  1  0
 22 21  2  0
 23 17  1  0
 24 14  1  0
 24 23  2  0
 25 21  1  0
 26 25  1  0
 26 27  1  1
 27 28  1  0
 29 30  1  0
 29 26  1  0
 31 29  2  0
M  END
$$$$
