GHV.pdb
     RDKit          3D

 22 22  0  0  1  0  0  0  0  0999 V2000
    6.6429  -20.1755   24.5761 N   0  0  0  0  0  0  0  0  0  0  0  0
    5.9331  -18.9528   24.2708 C   0  0  0  0  0  0  0  0  0  0  0  0
    6.8361  -17.9716   23.6188 C   0  0  0  0  0  0  0  0  0  0  0  0
    8.0807  -18.1859   23.5300 O   0  0  0  0  0  0  0  0  0  0  0  0
    6.2805  -16.7852   23.0948 N   0  0  0  0  0  0  0  0  0  0  0  0
    7.1492  -15.8155   22.4412 C   0  0  1  0  0  0  0  0  0  0  0  0
    6.3979  -15.0302   21.3965 C   0  0  0  0  0  0  0  0  0  0  0  0
    7.3101  -14.1757   20.6040 C   0  0  0  0  0  0  0  0  0  0  0  0
    7.5843  -12.8434   20.8407 C   0  0  0  0  0  0  0  0  0  0  0  0
    8.4569  -12.4269   19.9055 N   0  0  0  0  0  0  0  0  0  0  0  0
    8.7470  -13.4532   19.0800 C   0  0  0  0  0  0  0  0  0  0  0  0
    8.0366  -14.5060   19.5261 N   0  0  0  0  0  0  0  0  0  0  0  0
    7.7927  -14.9844   23.4739 C   0  0  0  0  0  0  0  0  0  0  0  0
    8.7075  -14.2034   23.1112 O   0  0  0  0  0  0  0  0  0  0  0  0
    7.6075  -12.2972   27.4519 C   0  0  0  0  0  0  0  0  0  0  0  0
    6.9962  -13.3740   26.6027 C   0  0  1  0  0  0  0  0  0  0  0  0
    5.9397  -12.7937   25.6891 C   0  0  0  0  0  0  0  0  0  0  0  0
    8.0111  -14.0848   25.7384 C   0  0  2  0  0  0  0  0  0  0  0  0
    7.4230  -15.0317   24.8472 N   0  0  0  0  0  0  0  0  0  0  0  0
    8.9374  -14.8037   26.6502 C   0  0  0  0  0  0  0  0  0  0  0  0
    8.8538  -16.0530   26.7981 O   0  0  0  0  0  0  0  0  0  0  0  0
    9.9080  -14.1052   27.3511 O   0  0  0  0  0  0  0  0  0  0  0  0
  2  1  1  0
  3  5  1  0
  3  2  1  0
  4  3  2  0
  6  5  1  0
  6 13  1  0
  6  7  1  6
  8  7  1  0
  9  8  2  0
 10  9  1  0
 10 11  1  0
 11 12  2  0
 12  8  1  0
 13 19  1  0
 13 14  2  0
 16 15  1  6
 16 17  1  0
 18 16  1  0
 18 19  1  6
 20 18  1  0
 20 22  1  0
 21 20  2  0
M  END
$$$$
