GHV.pdb
     RDKit          3D

 22 22  0  0  1  0  0  0  0  0999 V2000
    8.9321  -15.6896   20.2356 N   0  0  0  0  0  0  0  0  0  0  0  0
    8.1197  -16.3859   21.2088 C   0  0  0  0  0  0  0  0  0  0  0  0
    8.7105  -16.2676   22.5654 C   0  0  0  0  0  0  0  0  0  0  0  0
    9.8889  -15.8351   22.7306 O   0  0  0  0  0  0  0  0  0  0  0  0
    7.9310  -16.6481   23.6782 N   0  0  0  0  0  0  0  0  0  0  0  0
    8.4425  -16.4187   25.0228 C   0  0  1  0  0  0  0  0  0  0  0  0
    7.3613  -15.8949   25.9335 C   0  0  0  0  0  0  0  0  0  0  0  0
    7.1425  -14.4449   25.7332 C   0  0  0  0  0  0  0  0  0  0  0  0
    7.8978  -13.6137   24.9302 C   0  0  0  0  0  0  0  0  0  0  0  0
    7.3825  -12.3740   25.0155 N   0  0  0  0  0  0  0  0  0  0  0  0
    6.3219  -12.3901   25.8484 C   0  0  0  0  0  0  0  0  0  0  0  0
    6.1965  -13.6617   26.2719 N   0  0  0  0  0  0  0  0  0  0  0  0
    9.0883  -17.6538   25.5010 C   0  0  0  0  0  0  0  0  0  0  0  0
    8.4891  -18.7409   25.3073 O   0  0  0  0  0  0  0  0  0  0  0  0
   12.7207  -18.8661   24.7827 C   0  0  0  0  0  0  0  0  0  0  0  0
   12.3957  -19.0075   26.2418 C   0  0  1  0  0  0  0  0  0  0  0  0
   13.0789  -17.9233   27.0452 C   0  0  0  0  0  0  0  0  0  0  0  0
   10.9137  -18.9225   26.5223 C   0  0  2  0  0  0  0  0  0  0  0  0
   10.3470  -17.6625   26.1646 N   0  0  0  0  0  0  0  0  0  0  0  0
   10.7308  -19.1273   27.9820 C   0  0  0  0  0  0  0  0  0  0  0  0
   10.2936  -18.1972   28.7124 O   0  0  0  0  0  0  0  0  0  0  0  0
   11.0405  -20.3489   28.5592 O   0  0  0  0  0  0  0  0  0  0  0  0
  2  1  1  0
  3  5  1  0
  3  2  1  0
  4  3  2  0
  6  5  1  0
  6 13  1  0
  6  7  1  1
  8  7  1  0
  9  8  2  0
 10  9  1  0
 10 11  1  0
 11 12  2  0
 12  8  1  0
 13 19  1  0
 13 14  2  0
 16 15  1  6
 16 17  1  0
 18 16  1  0
 18 19  1  1
 20 18  1  0
 20 22  1  0
 21 20  2  0
M  END
$$$$
