GHV.pdb
     RDKit          3D

 22 22  0  0  1  0  0  0  0  0999 V2000
    7.8485  -12.6865   18.6305 N   0  0  0  0  0  0  0  0  0  0  0  0
    8.8715  -13.2204   19.5025 C   0  0  0  0  0  0  0  0  0  0  0  0
    8.2606  -13.8941   20.6756 C   0  0  0  0  0  0  0  0  0  0  0  0
    7.0175  -13.8149   20.9019 O   0  0  0  0  0  0  0  0  0  0  0  0
    9.0948  -14.6311   21.5427 N   0  0  0  0  0  0  0  0  0  0  0  0
    8.5010  -15.3833   22.6399 C   0  0  1  0  0  0  0  0  0  0  0  0
    8.9652  -16.8176   22.6292 C   0  0  0  0  0  0  0  0  0  0  0  0
    8.5112  -17.5227   21.4098 C   0  0  0  0  0  0  0  0  0  0  0  0
    7.2588  -18.0667   21.2058 C   0  0  0  0  0  0  0  0  0  0  0  0
    7.2406  -18.6175   19.9786 N   0  0  0  0  0  0  0  0  0  0  0  0
    8.4432  -18.4410   19.3945 C   0  0  0  0  0  0  0  0  0  0  0  0
    9.1987  -17.7722   20.2856 N   0  0  0  0  0  0  0  0  0  0  0  0
    8.7694  -14.6716   23.9018 C   0  0  0  0  0  0  0  0  0  0  0  0
    9.9344  -14.2438   24.0968 O   0  0  0  0  0  0  0  0  0  0  0  0
    6.7767  -11.6434   25.3744 C   0  0  0  0  0  0  0  0  0  0  0  0
    7.0290  -12.6872   26.4239 C   0  0  1  0  0  0  0  0  0  0  0  0
    5.7718  -13.4838   26.6931 C   0  0  0  0  0  0  0  0  0  0  0  0
    8.1151  -13.6612   26.0316 C   0  0  2  0  0  0  0  0  0  0  0  0
    7.7736  -14.4531   24.8945 N   0  0  0  0  0  0  0  0  0  0  0  0
    8.3338  -14.5646   27.1901 C   0  0  0  0  0  0  0  0  0  0  0  0
    8.7550  -14.1114   28.2887 O   0  0  0  0  0  0  0  0  0  0  0  0
    8.0761  -15.9216   27.0749 O   0  0  0  0  0  0  0  0  0  0  0  0
  2  1  1  0
  3  5  1  0
  3  2  1  0
  4  3  2  0
  6  5  1  0
  6 13  1  0
  6  7  1  1
  8  7  1  0
  9  8  2  0
 10  9  1  0
 10 11  1  0
 11 12  2  0
 12  8  1  0
 13 19  1  0
 13 14  2  0
 16 15  1  6
 16 17  1  0
 18 16  1  0
 18 19  1  6
 20 18  1  0
 20 22  1  0
 21 20  2  0
M  END
$$$$
