GHV.pdb
     RDKit          3D

 22 22  0  0  1  0  0  0  0  0999 V2000
    6.3226  -19.0122   21.8359 N   0  0  0  0  0  0  0  0  0  0  0  0
    5.9094  -17.6411   22.0396 C   0  0  0  0  0  0  0  0  0  0  0  0
    7.0868  -16.7375   22.0652 C   0  0  0  0  0  0  0  0  0  0  0  0
    8.2656  -17.1988   22.0839 O   0  0  0  0  0  0  0  0  0  0  0  0
    6.8695  -15.3434   22.0683 N   0  0  0  0  0  0  0  0  0  0  0  0
    8.0122  -14.4405   22.0349 C   0  0  1  0  0  0  0  0  0  0  0  0
    7.7932  -13.3231   21.0470 C   0  0  0  0  0  0  0  0  0  0  0  0
    7.9544  -13.7952   19.6536 C   0  0  0  0  0  0  0  0  0  0  0  0
    8.3641  -15.0554   19.2662 C   0  0  0  0  0  0  0  0  0  0  0  0
    8.3837  -15.0902   17.9216 N   0  0  0  0  0  0  0  0  0  0  0  0
    7.9989  -13.8905   17.4405 C   0  0  0  0  0  0  0  0  0  0  0  0
    7.7433  -13.1200   18.5142 N   0  0  0  0  0  0  0  0  0  0  0  0
    8.2967  -13.9855   23.4072 C   0  0  0  0  0  0  0  0  0  0  0  0
    8.6524  -12.7912   23.5665 O   0  0  0  0  0  0  0  0  0  0  0  0
    7.3435  -12.6312   27.5003 C   0  0  0  0  0  0  0  0  0  0  0  0
    7.2015  -13.2598   26.1441 C   0  0  1  0  0  0  0  0  0  0  0  0
    7.2221  -12.2015   25.0638 C   0  0  0  0  0  0  0  0  0  0  0  0
    8.3019  -14.2490   25.8394 C   0  0  2  0  0  0  0  0  0  0  0  0
    8.1854  -14.8350   24.5433 N   0  0  0  0  0  0  0  0  0  0  0  0
    8.2165  -15.3278   26.8569 C   0  0  0  0  0  0  0  0  0  0  0  0
    7.7617  -16.4639   26.5533 O   0  0  0  0  0  0  0  0  0  0  0  0
    8.6378  -15.0955   28.1568 O   0  0  0  0  0  0  0  0  0  0  0  0
  2  1  1  0
  3  5  1  0
  3  2  1  0
  4  3  2  0
  6  5  1  0
  6 13  1  0
  6  7  1  6
  8  7  1  0
  9  8  2  0
 10  9  1  0
 10 11  1  0
 11 12  2  0
 12  8  1  0
 13 19  1  0
 13 14  2  0
 16 15  1  1
 16 17  1  0
 18 16  1  0
 18 19  1  6
 20 18  1  0
 20 22  1  0
 21 20  2  0
M  END
$$$$
