GHV.pdb
     RDKit          3D

 22 22  0  0  1  0  0  0  0  0999 V2000
    8.5273  -12.1891   18.8775 N   0  0  0  0  0  0  0  0  0  0  0  0
    9.1972  -13.2738   19.5606 C   0  0  0  0  0  0  0  0  0  0  0  0
    8.3651  -13.7812   20.6802 C   0  0  0  0  0  0  0  0  0  0  0  0
    7.3036  -13.1858   21.0289 O   0  0  0  0  0  0  0  0  0  0  0  0
    8.7795  -14.9483   21.3561 N   0  0  0  0  0  0  0  0  0  0  0  0
    7.9344  -15.5084   22.4022 C   0  0  1  0  0  0  0  0  0  0  0  0
    7.9885  -17.0149   22.3961 C   0  0  0  0  0  0  0  0  0  0  0  0
    7.4287  -17.5700   21.1436 C   0  0  0  0  0  0  0  0  0  0  0  0
    7.0414  -16.8429   20.0357 C   0  0  0  0  0  0  0  0  0  0  0  0
    6.5876  -17.7072   19.1101 N   0  0  0  0  0  0  0  0  0  0  0  0
    6.6740  -18.9628   19.5945 C   0  0  0  0  0  0  0  0  0  0  0  0
    7.1888  -18.8526   20.8334 N   0  0  0  0  0  0  0  0  0  0  0  0
    8.3064  -14.8963   23.6899 C   0  0  0  0  0  0  0  0  0  0  0  0
    9.5220  -14.6531   23.8933 O   0  0  0  0  0  0  0  0  0  0  0  0
    7.2266  -12.1315   27.5832 C   0  0  0  0  0  0  0  0  0  0  0  0
    6.7491  -12.9046   26.3878 C   0  0  1  0  0  0  0  0  0  0  0  0
    6.3424  -11.9641   25.2753 C   0  0  0  0  0  0  0  0  0  0  0  0
    7.8001  -13.8400   25.8376 C   0  0  2  0  0  0  0  0  0  0  0  0
    7.3550  -14.5747   24.6980 N   0  0  0  0  0  0  0  0  0  0  0  0
    8.1411  -14.8009   26.9176 C   0  0  0  0  0  0  0  0  0  0  0  0
    7.6127  -15.9452   26.9511 O   0  0  0  0  0  0  0  0  0  0  0  0
    9.0481  -14.4480   27.9045 O   0  0  0  0  0  0  0  0  0  0  0  0
  2  1  1  0
  3  5  1  0
  3  2  1  0
  4  3  2  0
  6  5  1  0
  6 13  1  0
  6  7  1  1
  8  7  1  0
  9  8  2  0
 10  9  1  0
 10 11  1  0
 11 12  2  0
 12  8  1  0
 13 19  1  0
 13 14  2  0
 16 15  1  1
 16 17  1  0
 18 16  1  0
 18 19  1  6
 20 18  1  0
 20 22  1  0
 21 20  2  0
M  END
$$$$
