GHV.pdb
     RDKit          3D

 22 22  0  0  1  0  0  0  0  0999 V2000
    7.4907  -12.7780   18.6242 N   0  0  0  0  0  0  0  0  0  0  0  0
    8.4837  -13.4408   19.4408 C   0  0  0  0  0  0  0  0  0  0  0  0
    7.8499  -14.0780   20.6222 C   0  0  0  0  0  0  0  0  0  0  0  0
    6.6335  -13.8696   20.9044 O   0  0  0  0  0  0  0  0  0  0  0  0
    8.6317  -14.9276   21.4332 N   0  0  0  0  0  0  0  0  0  0  0  0
    8.0305  -15.5526   22.6038 C   0  0  1  0  0  0  0  0  0  0  0  0
    8.2411  -17.0453   22.5911 C   0  0  0  0  0  0  0  0  0  0  0  0
    7.7316  -17.6727   23.8309 C   0  0  0  0  0  0  0  0  0  0  0  0
    8.4886  -18.0356   24.9271 C   0  0  0  0  0  0  0  0  0  0  0  0
    7.6619  -18.5708   25.8434 N   0  0  0  0  0  0  0  0  0  0  0  0
    6.4012  -18.5600   25.3645 C   0  0  0  0  0  0  0  0  0  0  0  0
    6.4701  -18.0086   24.1385 N   0  0  0  0  0  0  0  0  0  0  0  0
    8.5395  -14.8816   23.8129 C   0  0  0  0  0  0  0  0  0  0  0  0
    9.7727  -14.6512   23.8798 O   0  0  0  0  0  0  0  0  0  0  0  0
    7.5174  -11.4908   25.4603 C   0  0  0  0  0  0  0  0  0  0  0  0
    7.5005  -12.6130   26.4577 C   0  0  1  0  0  0  0  0  0  0  0  0
    6.0826  -13.0701   26.7185 C   0  0  0  0  0  0  0  0  0  0  0  0
    8.2939  -13.8146   26.0006 C   0  0  2  0  0  0  0  0  0  0  0  0
    7.6997  -14.4900   24.8927 N   0  0  0  0  0  0  0  0  0  0  0  0
    8.3648  -14.7560   27.1473 C   0  0  0  0  0  0  0  0  0  0  0  0
    7.7257  -15.8426   27.1279 O   0  0  0  0  0  0  0  0  0  0  0  0
    9.1379  -14.4481   28.2558 O   0  0  0  0  0  0  0  0  0  0  0  0
  2  1  1  0
  3  5  1  0
  3  2  1  0
  4  3  2  0
  6  5  1  0
  6 13  1  0
  6  7  1  1
  8  7  1  0
  9  8  2  0
 10  9  1  0
 10 11  1  0
 11 12  2  0
 12  8  1  0
 13 19  1  0
 13 14  2  0
 16 15  1  6
 16 17  1  0
 18 16  1  0
 18 19  1  6
 20 18  1  0
 20 22  1  0
 21 20  2  0
M  END
$$$$
