GHV.pdb
     RDKit          3D

 22 22  0  0  1  0  0  0  0  0999 V2000
    5.0759  -16.0659   20.4558 N   0  0  0  0  0  0  0  0  0  0  0  0
    6.0491  -15.0636   20.8305 C   0  0  0  0  0  0  0  0  0  0  0  0
    6.8865  -15.5425   21.9586 C   0  0  0  0  0  0  0  0  0  0  0  0
    6.3689  -16.1222   22.9580 O   0  0  0  0  0  0  0  0  0  0  0  0
    8.2815  -15.3395   21.8992 N   0  0  0  0  0  0  0  0  0  0  0  0
    9.1336  -15.9156   22.9309 C   0  0  1  0  0  0  0  0  0  0  0  0
   10.4464  -16.3809   22.3543 C   0  0  0  0  0  0  0  0  0  0  0  0
   10.2465  -17.4516   21.3522 C   0  0  0  0  0  0  0  0  0  0  0  0
    9.9579  -18.7740   21.6244 C   0  0  0  0  0  0  0  0  0  0  0  0
    9.8519  -19.4252   20.4521 N   0  0  0  0  0  0  0  0  0  0  0  0
   10.0642  -18.5581   19.4414 C   0  0  0  0  0  0  0  0  0  0  0  0
   10.3022  -17.3639   20.0151 N   0  0  0  0  0  0  0  0  0  0  0  0
    9.2680  -14.9444   24.0309 C   0  0  0  0  0  0  0  0  0  0  0  0
   10.1859  -14.0904   23.9494 O   0  0  0  0  0  0  0  0  0  0  0  0
    7.2798  -12.1299   25.2224 C   0  0  0  0  0  0  0  0  0  0  0  0
    7.5171  -13.0203   26.4079 C   0  0  1  0  0  0  0  0  0  0  0  0
    6.2811  -13.8361   26.7147 C   0  0  0  0  0  0  0  0  0  0  0  0
    8.6624  -13.9827   26.1973 C   0  0  2  0  0  0  0  0  0  0  0  0
    8.4103  -14.9366   25.1662 N   0  0  0  0  0  0  0  0  0  0  0  0
    8.8657  -14.7097   27.4764 C   0  0  0  0  0  0  0  0  0  0  0  0
    9.2328  -14.0951   28.5144 O   0  0  0  0  0  0  0  0  0  0  0  0
    8.6530  -16.0777   27.5427 O   0  0  0  0  0  0  0  0  0  0  0  0
  2  1  1  0
  3  5  1  0
  3  2  1  0
  4  3  2  0
  6  5  1  0
  6 13  1  0
  6  7  1  6
  8  7  1  0
  9  8  2  0
 10  9  1  0
 10 11  1  0
 11 12  2  0
 12  8  1  0
 13 19  1  0
 13 14  2  0
 16 15  1  6
 16 17  1  0
 18 16  1  0
 18 19  1  6
 20 18  1  0
 20 22  1  0
 21 20  2  0
M  END
$$$$
