GHV.pdb
     RDKit          3D

 22 22  0  0  1  0  0  0  0  0999 V2000
   13.0160  -19.2170   16.9999 N   0  0  0  0  0  0  0  0  0  0  0  0
   12.0871  -19.6853   18.0048 C   0  0  0  0  0  0  0  0  0  0  0  0
   11.0099  -18.6888   18.2276 C   0  0  0  0  0  0  0  0  0  0  0  0
   11.2033  -17.4564   18.0114 O   0  0  0  0  0  0  0  0  0  0  0  0
    9.7551  -19.1405   18.6884 N   0  0  0  0  0  0  0  0  0  0  0  0
    8.6939  -18.1744   18.9386 C   0  0  1  0  0  0  0  0  0  0  0  0
    7.3581  -18.7045   18.4836 C   0  0  0  0  0  0  0  0  0  0  0  0
    7.2690  -18.7473   17.0070 C   0  0  0  0  0  0  0  0  0  0  0  0
    7.8624  -17.8592   16.1322 C   0  0  0  0  0  0  0  0  0  0  0  0
    7.5460  -18.2360   14.8802 N   0  0  0  0  0  0  0  0  0  0  0  0
    6.7691  -19.3372   14.9306 C   0  0  0  0  0  0  0  0  0  0  0  0
    6.6150  -19.6284   16.2357 N   0  0  0  0  0  0  0  0  0  0  0  0
    8.7357  -17.7822   20.3584 C   0  0  0  0  0  0  0  0  0  0  0  0
    9.2399  -18.5926   21.1753 O   0  0  0  0  0  0  0  0  0  0  0  0
    9.0980  -13.8475   21.7559 C   0  0  0  0  0  0  0  0  0  0  0  0
    8.1790  -14.7579   22.5182 C   0  0  1  0  0  0  0  0  0  0  0  0
    6.7348  -14.4475   22.1931 C   0  0  0  0  0  0  0  0  0  0  0  0
    8.4153  -16.2183   22.2121 C   0  0  2  0  0  0  0  0  0  0  0  0
    8.2339  -16.5382   20.8332 N   0  0  0  0  0  0  0  0  0  0  0  0
    7.4372  -16.9984   23.0126 C   0  0  0  0  0  0  0  0  0  0  0  0
    6.4684  -17.5813   22.4544 O   0  0  0  0  0  0  0  0  0  0  0  0
    7.5799  -17.0942   24.3880 O   0  0  0  0  0  0  0  0  0  0  0  0
  2  1  1  0
  3  5  1  0
  3  2  1  0
  4  3  2  0
  6  5  1  0
  6 13  1  0
  6  7  1  1
  8  7  1  0
  9  8  2  0
 10  9  1  0
 10 11  1  0
 11 12  2  0
 12  8  1  0
 13 19  1  0
 13 14  2  0
 16 15  1  6
 16 17  1  0
 18 16  1  0
 18 19  1  6
 20 18  1  0
 20 22  1  0
 21 20  2  0
M  END
$$$$
