GHV.pdb
     RDKit          3D

 22 22  0  0  1  0  0  0  0  0999 V2000
    8.1345  -12.6366   18.8054 N   0  0  0  0  0  0  0  0  0  0  0  0
    8.8835  -13.7044   19.4304 C   0  0  0  0  0  0  0  0  0  0  0  0
    8.1782  -14.2020   20.6380 C   0  0  0  0  0  0  0  0  0  0  0  0
    7.0210  -13.7852   20.9383 O   0  0  0  0  0  0  0  0  0  0  0  0
    8.8234  -15.1557   21.4534 N   0  0  0  0  0  0  0  0  0  0  0  0
    8.0962  -15.7591   22.5622 C   0  0  1  0  0  0  0  0  0  0  0  0
    8.3952  -17.2327   22.6703 C   0  0  0  0  0  0  0  0  0  0  0  0
    7.7283  -17.8338   23.8469 C   0  0  0  0  0  0  0  0  0  0  0  0
    6.9136  -17.1720   24.7438 C   0  0  0  0  0  0  0  0  0  0  0  0
    6.5045  -18.0610   25.6668 N   0  0  0  0  0  0  0  0  0  0  0  0
    7.0337  -19.2691   25.3852 C   0  0  0  0  0  0  0  0  0  0  0  0
    7.7744  -19.1045   24.2733 N   0  0  0  0  0  0  0  0  0  0  0  0
    8.3822  -14.9938   23.7884 C   0  0  0  0  0  0  0  0  0  0  0  0
    9.5747  -14.6663   24.0098 O   0  0  0  0  0  0  0  0  0  0  0  0
    6.8990  -11.9359   27.3451 C   0  0  0  0  0  0  0  0  0  0  0  0
    6.5262  -12.9275   26.2810 C   0  0  1  0  0  0  0  0  0  0  0  0
    5.8673  -12.2292   25.1124 C   0  0  0  0  0  0  0  0  0  0  0  0
    7.7166  -13.6902   25.7487 C   0  0  2  0  0  0  0  0  0  0  0  0
    7.3736  -14.6165   24.7187 N   0  0  0  0  0  0  0  0  0  0  0  0
    8.3007  -14.4431   26.8882 C   0  0  0  0  0  0  0  0  0  0  0  0
    7.8724  -15.5903   27.1883 O   0  0  0  0  0  0  0  0  0  0  0  0
    9.3275  -13.8896   27.6369 O   0  0  0  0  0  0  0  0  0  0  0  0
  2  1  1  0
  3  5  1  0
  3  2  1  0
  4  3  2  0
  6  5  1  0
  6 13  1  0
  6  7  1  1
  8  7  1  0
  9  8  2  0
 10  9  1  0
 10 11  1  0
 11 12  2  0
 12  8  1  0
 13 19  1  0
 13 14  2  0
 16 15  1  1
 16 17  1  0
 18 16  1  0
 18 19  1  6
 20 18  1  0
 20 22  1  0
 21 20  2  0
M  END
$$$$
