VND.pdb
     RDKit          3D

 24 23  0  0  1  0  0  0  0  0999 V2000
   14.9987  -12.5110  -11.0897 C   0  0  0  0  0  0  0  0  0  0  0  0
   13.5786  -12.1341  -10.6829 C   0  0  2  0  0  0  0  0  0  0  0  0
   12.5657  -13.0552  -11.2703 C   0  0  0  0  0  0  0  0  0  0  0  0
   13.3382  -10.6771  -10.9107 C   0  0  2  0  0  0  0  0  0  0  0  0
   13.3034  -10.3340  -12.3014 N   0  0  0  0  0  0  0  0  0  0  0  0
   14.2573   -9.7836  -10.1784 C   0  0  0  0  0  0  0  0  0  0  0  0
   14.4451   -9.8526   -8.9372 O   0  0  0  0  0  0  0  0  0  0  0  0
   18.4058   -9.2780  -12.3580 N   0  0  0  0  0  0  0  0  0  0  0  0
   17.9871   -8.7680  -11.1258 C   0  0  0  0  0  0  0  0  0  0  0  0
   18.3596   -9.3358  -10.0395 O   0  0  0  0  0  0  0  0  0  0  0  0
   17.1191   -7.5774  -11.0617 C   0  0  0  0  0  0  0  0  0  0  0  0
   15.8591   -7.8488  -10.2550 C   0  0  2  0  0  0  0  0  0  0  0  0
   14.9719   -8.7919  -10.8931 N   0  0  0  0  0  0  0  0  0  0  0  0
   15.1431   -6.5553   -9.9784 C   0  0  0  0  0  0  0  0  0  0  0  0
   14.4915   -5.9808  -10.8932 O   0  0  0  0  0  0  0  0  0  0  0  0
   15.1790   -5.9514   -8.6964 N   0  0  0  0  0  0  0  0  0  0  0  0
   14.5077   -4.6704   -8.4194 C   0  0  1  0  0  0  0  0  0  0  0  0
   14.3464   -4.6020   -6.9167 C   0  0  0  0  0  0  0  0  0  0  0  0
   13.6908   -3.3820   -6.4368 C   0  0  0  0  0  0  0  0  0  0  0  0
   13.0646   -2.6436   -7.2373 O   0  0  0  0  0  0  0  0  0  0  0  0
   15.3622   -3.5482   -8.9007 C   0  0  0  0  0  0  0  0  0  0  0  0
   14.7775   -2.3075   -9.2193 O   0  0  0  0  0  0  0  0  0  0  0  0
   13.7063   -2.9525   -5.0996 O   0  0  0  0  0  0  0  0  0  0  0  0
   16.5987   -3.6624   -9.0364 O   0  0  0  0  0  0  0  0  0  0  0  0
  2  1  1  6
  2  3  1  0
  4  2  1  0
  4  6  1  0
  4  5  1  6
  6 13  1  0
  6  7  2  0
  9  8  1  0
  9 11  1  0
 10  9  2  0
 12 11  1  6
 12 14  1  0
 13 12  1  0
 14 16  1  0
 14 15  2  0
 16 17  1  0
 17 21  1  0
 17 18  1  1
 18 19  1  0
 19 23  1  0
 20 19  2  0
 21 22  1  0
 24 21  2  0
M  END
$$$$
