VND.pdb
     RDKit          3D

 24 23  0  0  1  0  0  0  0  0999 V2000
   19.6903  -20.9586  -10.7381 C   0  0  0  0  0  0  0  0  0  0  0  0
   18.2510  -20.9472  -11.2405 C   0  0  2  0  0  0  0  0  0  0  0  0
   17.6050  -22.2839  -11.1165 C   0  0  0  0  0  0  0  0  0  0  0  0
   18.1731  -20.3131  -12.5912 C   0  0  2  0  0  0  0  0  0  0  0  0
   18.1151  -21.2761  -13.6507 N   0  0  0  0  0  0  0  0  0  0  0  0
   19.2232  -19.3105  -12.8578 C   0  0  0  0  0  0  0  0  0  0  0  0
   19.4671  -18.3448  -12.0907 O   0  0  0  0  0  0  0  0  0  0  0  0
   23.5349  -17.7466  -16.6832 N   0  0  0  0  0  0  0  0  0  0  0  0
   23.2605  -18.0621  -15.3495 C   0  0  0  0  0  0  0  0  0  0  0  0
   23.8894  -17.4618  -14.4087 O   0  0  0  0  0  0  0  0  0  0  0  0
   22.2497  -19.0815  -15.0116 C   0  0  0  0  0  0  0  0  0  0  0  0
   21.0023  -18.4524  -14.4115 C   0  0  2  0  0  0  0  0  0  0  0  0
   20.0054  -19.4252  -14.0325 N   0  0  0  0  0  0  0  0  0  0  0  0
   20.4235  -17.4516  -15.3737 C   0  0  0  0  0  0  0  0  0  0  0  0
   19.8489  -17.8408  -16.4272 O   0  0  0  0  0  0  0  0  0  0  0  0
   20.5054  -16.0581  -15.1271 N   0  0  0  0  0  0  0  0  0  0  0  0
   19.8601  -15.0714  -16.0093 C   0  0  1  0  0  0  0  0  0  0  0  0
   18.9471  -14.2544  -15.1218 C   0  0  0  0  0  0  0  0  0  0  0  0
   18.2476  -13.1688  -15.8150 C   0  0  0  0  0  0  0  0  0  0  0  0
   18.3748  -13.0256  -17.0566 O   0  0  0  0  0  0  0  0  0  0  0  0
   20.9013  -14.2000  -16.6242 C   0  0  0  0  0  0  0  0  0  0  0  0
   22.2636  -14.4442  -16.3650 O   0  0  0  0  0  0  0  0  0  0  0  0
   17.4121  -12.2362  -15.1785 O   0  0  0  0  0  0  0  0  0  0  0  0
   20.6124  -13.2437  -17.3743 O   0  0  0  0  0  0  0  0  0  0  0  0
  2  1  1  6
  2  3  1  0
  4  2  1  0
  4  6  1  0
  4  5  1  6
  6 13  1  0
  6  7  2  0
  9  8  1  0
  9 11  1  0
 10  9  2  0
 12 11  1  6
 12 14  1  0
 13 12  1  0
 14 16  1  0
 14 15  2  0
 16 17  1  0
 17 21  1  0
 17 18  1  1
 18 19  1  0
 19 23  1  0
 20 19  2  0
 21 22  1  0
 24 21  2  0
M  END
$$$$
