VND.pdb
     RDKit          3D

 24 23  0  0  1  0  0  0  0  0999 V2000
   15.6582  -10.2228  -12.4656 C   0  0  0  0  0  0  0  0  0  0  0  0
   15.8368  -10.7830  -11.0590 C   0  0  2  0  0  0  0  0  0  0  0  0
   15.7562  -12.2704  -11.0353 C   0  0  0  0  0  0  0  0  0  0  0  0
   14.9449  -10.0707  -10.0948 C   0  0  2  0  0  0  0  0  0  0  0  0
   13.5776  -10.4869  -10.1964 N   0  0  0  0  0  0  0  0  0  0  0  0
   15.0444   -8.5987  -10.1422 C   0  0  0  0  0  0  0  0  0  0  0  0
   14.4620   -7.8943  -11.0054 O   0  0  0  0  0  0  0  0  0  0  0  0
   13.7530   -5.3382   -6.3725 N   0  0  0  0  0  0  0  0  0  0  0  0
   14.2683   -5.6592   -7.6315 C   0  0  0  0  0  0  0  0  0  0  0  0
   13.4790   -5.7772   -8.6336 O   0  0  0  0  0  0  0  0  0  0  0  0
   15.7167   -5.8628   -7.8204 C   0  0  0  0  0  0  0  0  0  0  0  0
   16.0194   -6.4969   -9.1688 C   0  0  2  0  0  0  0  0  0  0  0  0
   15.8317   -7.9282   -9.1749 N   0  0  0  0  0  0  0  0  0  0  0  0
   17.4192   -6.1468   -9.5934 C   0  0  0  0  0  0  0  0  0  0  0  0
   18.3879   -6.3339   -8.8072 O   0  0  0  0  0  0  0  0  0  0  0  0
   17.6876   -5.6033  -10.8748 N   0  0  0  0  0  0  0  0  0  0  0  0
   19.0612   -5.3560  -11.3443 C   0  0  1  0  0  0  0  0  0  0  0  0
   19.7291   -6.7120  -11.4083 C   0  0  0  0  0  0  0  0  0  0  0  0
   21.0697   -6.6950  -12.0006 C   0  0  0  0  0  0  0  0  0  0  0  0
   21.9479   -5.9144  -11.5560 O   0  0  0  0  0  0  0  0  0  0  0  0
   19.0183   -4.7348  -12.6984 C   0  0  0  0  0  0  0  0  0  0  0  0
   20.1426   -4.0437  -13.1895 O   0  0  0  0  0  0  0  0  0  0  0  0
   21.4698   -7.5137  -13.0695 O   0  0  0  0  0  0  0  0  0  0  0  0
   18.0088   -4.8018  -13.4311 O   0  0  0  0  0  0  0  0  0  0  0  0
  2  1  1  6
  2  3  1  0
  4  2  1  0
  4  6  1  0
  4  5  1  6
  6 13  1  0
  6  7  2  0
  9  8  1  0
  9 11  1  0
 10  9  2  0
 12 11  1  1
 12 14  1  0
 13 12  1  0
 14 16  1  0
 14 15  2  0
 16 17  1  0
 17 21  1  0
 17 18  1  6
 18 19  1  0
 19 23  1  0
 20 19  2  0
 21 22  1  0
 24 21  2  0
M  END
$$$$
