VND.pdb
     RDKit          3D

 24 23  0  0  1  0  0  0  0  0999 V2000
   17.8768  -12.3799  -16.5179 C   0  0  0  0  0  0  0  0  0  0  0  0
   19.0433  -12.3357  -17.4984 C   0  0  2  0  0  0  0  0  0  0  0  0
   19.6205  -13.6874  -17.7418 C   0  0  0  0  0  0  0  0  0  0  0  0
   20.0198  -11.2762  -17.1028 C   0  0  2  0  0  0  0  0  0  0  0  0
   20.8400  -11.6672  -15.9949 N   0  0  0  0  0  0  0  0  0  0  0  0
   19.4188   -9.9498  -16.8612 C   0  0  0  0  0  0  0  0  0  0  0  0
   18.7425   -9.3307  -17.7213 O   0  0  0  0  0  0  0  0  0  0  0  0
   20.4482   -8.6504  -12.9852 N   0  0  0  0  0  0  0  0  0  0  0  0
   19.0934   -8.3384  -12.8402 C   0  0  0  0  0  0  0  0  0  0  0  0
   18.5523   -8.3659  -11.6794 O   0  0  0  0  0  0  0  0  0  0  0  0
   18.2769   -7.9748  -14.0132 C   0  0  0  0  0  0  0  0  0  0  0  0
   19.0944   -8.0116  -15.2948 C   0  0  2  0  0  0  0  0  0  0  0  0
   19.6029   -9.3269  -15.6029 N   0  0  0  0  0  0  0  0  0  0  0  0
   20.2200   -7.0176  -15.2094 C   0  0  0  0  0  0  0  0  0  0  0  0
   21.4151   -7.4149  -15.1349 O   0  0  0  0  0  0  0  0  0  0  0  0
   19.9736   -5.6217  -15.2106 N   0  0  0  0  0  0  0  0  0  0  0  0
   21.0537   -4.6399  -15.4052 C   0  0  1  0  0  0  0  0  0  0  0  0
   21.5670   -4.8597  -16.8112 C   0  0  0  0  0  0  0  0  0  0  0  0
   22.5665   -3.8800  -17.2469 C   0  0  0  0  0  0  0  0  0  0  0  0
   22.3673   -2.6522  -17.0710 O   0  0  0  0  0  0  0  0  0  0  0  0
   20.5031   -3.2621  -15.2637 C   0  0  0  0  0  0  0  0  0  0  0  0
   19.1297   -3.0304  -15.4709 O   0  0  0  0  0  0  0  0  0  0  0  0
   23.7790   -4.2153  -17.8715 O   0  0  0  0  0  0  0  0  0  0  0  0
   21.2209   -2.2848  -14.9635 O   0  0  0  0  0  0  0  0  0  0  0  0
  2  1  1  1
  2  3  1  0
  4  2  1  0
  4  6  1  0
  4  5  1  1
  6 13  1  0
  6  7  2  0
  9  8  1  0
  9 11  1  0
 10  9  2  0
 12 11  1  1
 12 14  1  0
 13 12  1  0
 14 16  1  0
 14 15  2  0
 16 17  1  0
 17 21  1  0
 17 18  1  6
 18 19  1  0
 19 23  1  0
 20 19  2  0
 21 22  1  0
 24 21  2  0
M  END
$$$$
