VND.pdb
     RDKit          3D

 24 23  0  0  1  0  0  0  0  0999 V2000
   18.6387  -11.9908  -15.3539 C   0  0  0  0  0  0  0  0  0  0  0  0
   17.3622  -11.8624  -16.1775 C   0  0  2  0  0  0  0  0  0  0  0  0
   17.1631  -13.0267  -17.0853 C   0  0  0  0  0  0  0  0  0  0  0  0
   17.2895  -10.5173  -16.8239 C   0  0  2  0  0  0  0  0  0  0  0  0
   17.9811  -10.4692  -18.0779 N   0  0  0  0  0  0  0  0  0  0  0  0
   17.7082   -9.3984  -15.9569 C   0  0  0  0  0  0  0  0  0  0  0  0
   17.2171   -9.1846  -14.8195 O   0  0  0  0  0  0  0  0  0  0  0  0
   19.9121   -9.2063  -13.6319 N   0  0  0  0  0  0  0  0  0  0  0  0
   20.9508   -8.4453  -14.1758 C   0  0  0  0  0  0  0  0  0  0  0  0
   22.1315   -8.5340  -13.6867 O   0  0  0  0  0  0  0  0  0  0  0  0
   20.7021   -7.5387  -15.3121 C   0  0  0  0  0  0  0  0  0  0  0  0
   19.2169   -7.4180  -15.6144 C   0  0  2  0  0  0  0  0  0  0  0  0
   18.7122   -8.5099  -16.4124 N   0  0  0  0  0  0  0  0  0  0  0  0
   18.9394   -6.1014  -16.2867 C   0  0  0  0  0  0  0  0  0  0  0  0
   19.2805   -5.9157  -17.4870 O   0  0  0  0  0  0  0  0  0  0  0  0
   18.2937   -5.0433  -15.5990 N   0  0  0  0  0  0  0  0  0  0  0  0
   17.9894   -3.7598  -16.2534 C   0  0  1  0  0  0  0  0  0  0  0  0
   16.8976   -3.1192  -15.4248 C   0  0  0  0  0  0  0  0  0  0  0  0
   16.4844   -1.7939  -15.8952 C   0  0  0  0  0  0  0  0  0  0  0  0
   17.0341   -1.2800  -16.9011 O   0  0  0  0  0  0  0  0  0  0  0  0
   19.2088   -2.9027  -16.2557 C   0  0  0  0  0  0  0  0  0  0  0  0
   20.4012   -3.3771  -15.6762 O   0  0  0  0  0  0  0  0  0  0  0  0
   15.4828   -1.0187  -15.2880 O   0  0  0  0  0  0  0  0  0  0  0  0
   19.2194   -1.7596  -16.7592 O   0  0  0  0  0  0  0  0  0  0  0  0
  2  1  1  6
  2  3  1  0
  4  2  1  0
  4  6  1  0
  4  5  1  6
  6 13  1  0
  6  7  2  0
  9  8  1  0
  9 11  1  0
 10  9  2  0
 12 11  1  6
 12 14  1  0
 13 12  1  0
 14 16  1  0
 14 15  2  0
 16 17  1  0
 17 21  1  0
 17 18  1  1
 18 19  1  0
 19 23  1  0
 20 19  2  0
 21 22  1  0
 24 21  2  0
M  END
$$$$
