VND.pdb
     RDKit          3D

 24 23  0  0  1  0  0  0  0  0999 V2000
   16.6983  -12.4050  -17.6815 C   0  0  0  0  0  0  0  0  0  0  0  0
   17.9189  -12.7365  -16.8303 C   0  0  2  0  0  0  0  0  0  0  0  0
   17.8615  -14.1222  -16.2864 C   0  0  0  0  0  0  0  0  0  0  0  0
   18.1665  -11.6569  -15.8275 C   0  0  2  0  0  0  0  0  0  0  0  0
   17.3389  -11.7831  -14.6646 N   0  0  0  0  0  0  0  0  0  0  0  0
   18.0910  -10.2870  -16.3722 C   0  0  0  0  0  0  0  0  0  0  0  0
   18.7371   -9.9085  -17.3820 O   0  0  0  0  0  0  0  0  0  0  0  0
   13.6452   -8.5659  -16.9780 N   0  0  0  0  0  0  0  0  0  0  0  0
   14.9418   -8.1184  -17.2466 C   0  0  0  0  0  0  0  0  0  0  0  0
   15.4498   -8.2934  -18.4096 O   0  0  0  0  0  0  0  0  0  0  0  0
   15.7344   -7.4426  -16.2026 C   0  0  0  0  0  0  0  0  0  0  0  0
   17.1634   -7.9606  -16.1645 C   0  0  2  0  0  0  0  0  0  0  0  0
   17.2543   -9.3368  -15.7382 N   0  0  0  0  0  0  0  0  0  0  0  0
   18.0016   -7.0783  -15.2806 C   0  0  0  0  0  0  0  0  0  0  0  0
   17.8313   -7.0845  -14.0306 O   0  0  0  0  0  0  0  0  0  0  0  0
   18.9960   -6.2243  -15.8202 N   0  0  0  0  0  0  0  0  0  0  0  0
   19.7689   -5.2976  -14.9763 C   0  0  1  0  0  0  0  0  0  0  0  0
   21.1545   -5.8944  -14.8643 C   0  0  0  0  0  0  0  0  0  0  0  0
   22.1056   -5.0705  -14.1127 C   0  0  0  0  0  0  0  0  0  0  0  0
   21.7158   -4.0301  -13.5263 O   0  0  0  0  0  0  0  0  0  0  0  0
   19.8314   -3.9620  -15.6348 C   0  0  0  0  0  0  0  0  0  0  0  0
   19.8692   -2.7935  -14.8499 O   0  0  0  0  0  0  0  0  0  0  0  0
   23.4744   -5.3604  -13.9895 O   0  0  0  0  0  0  0  0  0  0  0  0
   19.8523   -3.8313  -16.8770 O   0  0  0  0  0  0  0  0  0  0  0  0
  2  1  1  1
  2  3  1  0
  4  2  1  0
  4  6  1  0
  4  5  1  1
  6 13  1  0
  6  7  2  0
  9  8  1  0
  9 11  1  0
 10  9  2  0
 12 11  1  1
 12 14  1  0
 13 12  1  0
 14 16  1  0
 14 15  2  0
 16 17  1  0
 17 21  1  0
 17 18  1  6
 18 19  1  0
 19 23  1  0
 20 19  2  0
 21 22  1  0
 24 21  2  0
M  END
$$$$
