VND.pdb
     RDKit          3D

 24 23  0  0  1  0  0  0  0  0999 V2000
   13.8520  -10.9593  -11.5212 C   0  0  0  0  0  0  0  0  0  0  0  0
   13.9645  -11.2071  -10.0212 C   0  0  2  0  0  0  0  0  0  0  0  0
   13.5275  -12.5815   -9.6474 C   0  0  0  0  0  0  0  0  0  0  0  0
   13.3244  -10.0939   -9.2573 C   0  0  2  0  0  0  0  0  0  0  0  0
   11.8934  -10.1656   -9.2719 N   0  0  0  0  0  0  0  0  0  0  0  0
   13.7806   -8.7446   -9.6449 C   0  0  0  0  0  0  0  0  0  0  0  0
   13.1704   -8.0198  -10.4712 O   0  0  0  0  0  0  0  0  0  0  0  0
   14.5199   -5.6444   -6.3588 N   0  0  0  0  0  0  0  0  0  0  0  0
   14.8728   -5.4015   -7.6893 C   0  0  0  0  0  0  0  0  0  0  0  0
   14.2091   -4.5520   -8.3813 O   0  0  0  0  0  0  0  0  0  0  0  0
   16.0064   -6.1140   -8.3076 C   0  0  0  0  0  0  0  0  0  0  0  0
   15.5540   -6.9716   -9.4788 C   0  0  2  0  0  0  0  0  0  0  0  0
   14.9640   -8.2233   -9.0678 N   0  0  0  0  0  0  0  0  0  0  0  0
   16.7107   -7.2142  -10.4091 C   0  0  0  0  0  0  0  0  0  0  0  0
   17.6424   -7.9964  -10.0751 O   0  0  0  0  0  0  0  0  0  0  0  0
   16.7863   -6.5786  -11.6739 N   0  0  0  0  0  0  0  0  0  0  0  0
   17.7881   -6.9651  -12.6816 C   0  0  1  0  0  0  0  0  0  0  0  0
   17.4503   -8.3849  -13.0804 C   0  0  0  0  0  0  0  0  0  0  0  0
   18.2196   -8.8884  -14.2219 C   0  0  0  0  0  0  0  0  0  0  0  0
   19.3722   -8.4452  -14.4529 O   0  0  0  0  0  0  0  0  0  0  0  0
   17.6835   -6.0571  -13.8588 C   0  0  0  0  0  0  0  0  0  0  0  0
   18.8411   -5.7066  -14.5799 O   0  0  0  0  0  0  0  0  0  0  0  0
   17.7544   -9.8663  -15.1164 O   0  0  0  0  0  0  0  0  0  0  0  0
   16.5924   -5.5841  -14.2412 O   0  0  0  0  0  0  0  0  0  0  0  0
  2  1  1  6
  2  3  1  0
  4  2  1  0
  4  6  1  0
  4  5  1  6
  6 13  1  0
  6  7  2  0
  9  8  1  0
  9 11  1  0
 10  9  2  0
 12 11  1  1
 12 14  1  0
 13 12  1  0
 14 16  1  0
 14 15  2  0
 16 17  1  0
 17 21  1  0
 17 18  1  6
 18 19  1  0
 19 23  1  0
 20 19  2  0
 21 22  1  0
 24 21  2  0
M  END
$$$$
