VND.pdb
     RDKit          3D

 24 23  0  0  1  0  0  0  0  0999 V2000
   25.7801  -17.9609  -18.0825 C   0  0  0  0  0  0  0  0  0  0  0  0
   24.4421  -18.2805  -18.7396 C   0  0  2  0  0  0  0  0  0  0  0  0
   23.6768  -17.0479  -19.0778 C   0  0  0  0  0  0  0  0  0  0  0  0
   23.7004  -19.3057  -17.9451 C   0  0  2  0  0  0  0  0  0  0  0  0
   22.5122  -19.7613  -18.6038 N   0  0  0  0  0  0  0  0  0  0  0  0
   23.4028  -18.9053  -16.5558 C   0  0  0  0  0  0  0  0  0  0  0  0
   24.2921  -18.6770  -15.6970 O   0  0  0  0  0  0  0  0  0  0  0  0
   19.4341  -17.4285  -16.1163 N   0  0  0  0  0  0  0  0  0  0  0  0
   20.1852  -16.4824  -15.4131 C   0  0  0  0  0  0  0  0  0  0  0  0
   19.8125  -15.2569  -15.3942 O   0  0  0  0  0  0  0  0  0  0  0  0
   21.4061  -16.8810  -14.6882 C   0  0  0  0  0  0  0  0  0  0  0  0
   21.6687  -18.3731  -14.8165 C   0  0  2  0  0  0  0  0  0  0  0  0
   22.0529  -18.7665  -16.1511 N   0  0  0  0  0  0  0  0  0  0  0  0
   20.4574  -19.1437  -14.3677 C   0  0  0  0  0  0  0  0  0  0  0  0
   19.8572  -18.8232  -13.3054 O   0  0  0  0  0  0  0  0  0  0  0  0
   19.9605  -20.2396  -15.1172 N   0  0  0  0  0  0  0  0  0  0  0  0
   18.7272  -20.9484  -14.7369 C   0  0  1  0  0  0  0  0  0  0  0  0
   17.6214  -19.9173  -14.7908 C   0  0  0  0  0  0  0  0  0  0  0  0
   16.6308  -20.0406  -13.7176 C   0  0  0  0  0  0  0  0  0  0  0  0
   16.7602  -20.9262  -12.8360 O   0  0  0  0  0  0  0  0  0  0  0  0
   18.4631  -22.0433  -15.7131 C   0  0  0  0  0  0  0  0  0  0  0  0
   17.4124  -22.9517  -15.4817 O   0  0  0  0  0  0  0  0  0  0  0  0
   15.5012  -19.2159  -13.5888 O   0  0  0  0  0  0  0  0  0  0  0  0
   19.1465  -22.1930  -16.7479 O   0  0  0  0  0  0  0  0  0  0  0  0
  2  1  1  1
  2  3  1  0
  4  2  1  0
  4  6  1  0
  4  5  1  6
  6 13  1  0
  6  7  2  0
  9  8  1  0
  9 11  1  0
 10  9  2  0
 12 11  1  6
 12 14  1  0
 13 12  1  0
 14 16  1  0
 14 15  2  0
 16 17  1  0
 17 21  1  0
 17 18  1  6
 18 19  1  0
 19 23  1  0
 20 19  2  0
 21 22  1  0
 24 21  2  0
M  END
$$$$
