VND.pdb
     RDKit          3D

 24 23  0  0  1  0  0  0  0  0999 V2000
   21.7511  -11.3694  -20.3917 C   0  0  0  0  0  0  0  0  0  0  0  0
   21.7273  -12.2389  -19.1397 C   0  0  2  0  0  0  0  0  0  0  0  0
   20.4970  -13.0756  -19.0635 C   0  0  0  0  0  0  0  0  0  0  0  0
   22.0291  -11.4193  -17.9274 C   0  0  2  0  0  0  0  0  0  0  0  0
   22.4552  -12.2154  -16.8148 N   0  0  0  0  0  0  0  0  0  0  0  0
   20.9457  -10.5013  -17.5243 C   0  0  0  0  0  0  0  0  0  0  0  0
   20.5457   -9.5482  -18.2399 O   0  0  0  0  0  0  0  0  0  0  0  0
   17.0908  -10.6120  -17.2185 N   0  0  0  0  0  0  0  0  0  0  0  0
   17.0748  -10.9139  -15.8538 C   0  0  0  0  0  0  0  0  0  0  0  0
   16.0712  -11.5280  -15.3472 O   0  0  0  0  0  0  0  0  0  0  0  0
   18.2057  -10.5332  -14.9872 C   0  0  0  0  0  0  0  0  0  0  0  0
   19.2871   -9.8048  -15.7694 C   0  0  2  0  0  0  0  0  0  0  0  0
   20.3132  -10.6875  -16.2712 N   0  0  0  0  0  0  0  0  0  0  0  0
   19.8923   -8.7240  -14.9162 C   0  0  0  0  0  0  0  0  0  0  0  0
   20.3862   -9.0046  -13.7898 O   0  0  0  0  0  0  0  0  0  0  0  0
   19.9252   -7.3743  -15.3483 N   0  0  0  0  0  0  0  0  0  0  0  0
   20.5799   -6.3187  -14.5575 C   0  0  1  0  0  0  0  0  0  0  0  0
   21.8723   -6.0012  -15.2770 C   0  0  0  0  0  0  0  0  0  0  0  0
   22.6386   -4.9030  -14.6811 C   0  0  0  0  0  0  0  0  0  0  0  0
   22.2860   -4.4096  -13.5809 O   0  0  0  0  0  0  0  0  0  0  0  0
   19.7019   -5.1152  -14.5133 C   0  0  0  0  0  0  0  0  0  0  0  0
   19.6582   -4.3204  -13.3518 O   0  0  0  0  0  0  0  0  0  0  0  0
   23.7825   -4.3328  -15.2636 O   0  0  0  0  0  0  0  0  0  0  0  0
   18.9890   -4.7740  -15.4807 O   0  0  0  0  0  0  0  0  0  0  0  0
  2  1  1  6
  2  3  1  0
  4  2  1  0
  4  6  1  0
  4  5  1  1
  6 13  1  0
  6  7  2  0
  9  8  1  0
  9 11  1  0
 10  9  2  0
 12 11  1  1
 12 14  1  0
 13 12  1  0
 14 16  1  0
 14 15  2  0
 16 17  1  0
 17 21  1  0
 17 18  1  6
 18 19  1  0
 19 23  1  0
 20 19  2  0
 21 22  1  0
 24 21  2  0
M  END
$$$$
