VND.pdb
     RDKit          3D

 24 23  0  0  1  0  0  0  0  0999 V2000
   17.1650  -10.3257  -19.4610 C   0  0  0  0  0  0  0  0  0  0  0  0
   17.8592   -9.3117  -20.3633 C   0  0  2  0  0  0  0  0  0  0  0  0
   17.9181   -9.7713  -21.7792 C   0  0  0  0  0  0  0  0  0  0  0  0
   19.1607   -8.8847  -19.7664 C   0  0  2  0  0  0  0  0  0  0  0  0
   20.2531   -9.7203  -20.1683 N   0  0  0  0  0  0  0  0  0  0  0  0
   19.1388   -8.7291  -18.2986 C   0  0  0  0  0  0  0  0  0  0  0  0
   18.3088   -8.0047  -17.6930 O   0  0  0  0  0  0  0  0  0  0  0  0
   19.4036  -12.7472  -16.2561 N   0  0  0  0  0  0  0  0  0  0  0  0
   19.2811  -11.5597  -15.5291 C   0  0  0  0  0  0  0  0  0  0  0  0
   18.1652  -11.2625  -14.9745 O   0  0  0  0  0  0  0  0  0  0  0  0
   20.4273  -10.6420  -15.3913 C   0  0  0  0  0  0  0  0  0  0  0  0
   20.1623   -9.3118  -16.0786 C   0  0  2  0  0  0  0  0  0  0  0  0
   20.0938   -9.4226  -17.5163 N   0  0  0  0  0  0  0  0  0  0  0  0
   21.2120   -8.3126  -15.6761 C   0  0  0  0  0  0  0  0  0  0  0  0
   22.3870   -8.4086  -16.1253 O   0  0  0  0  0  0  0  0  0  0  0  0
   20.9148   -7.2460  -14.7910 N   0  0  0  0  0  0  0  0  0  0  0  0
   21.9187   -6.2317  -14.4281 C   0  0  1  0  0  0  0  0  0  0  0  0
   22.1045   -5.3717  -15.6588 C   0  0  0  0  0  0  0  0  0  0  0  0
   22.9903   -4.2209  -15.4606 C   0  0  0  0  0  0  0  0  0  0  0  0
   24.0092   -4.3248  -14.7331 O   0  0  0  0  0  0  0  0  0  0  0  0
   21.4070   -5.4107  -13.2943 C   0  0  0  0  0  0  0  0  0  0  0  0
   22.2795   -4.5495  -12.6016 O   0  0  0  0  0  0  0  0  0  0  0  0
   22.7847   -2.9585  -16.0410 O   0  0  0  0  0  0  0  0  0  0  0  0
   20.2147   -5.4541  -12.9245 O   0  0  0  0  0  0  0  0  0  0  0  0
  2  1  1  1
  2  3  1  0
  4  2  1  0
  4  6  1  0
  4  5  1  1
  6 13  1  0
  6  7  2  0
  9  8  1  0
  9 11  1  0
 10  9  2  0
 12 11  1  1
 12 14  1  0
 13 12  1  0
 14 16  1  0
 14 15  2  0
 16 17  1  0
 17 21  1  0
 17 18  1  6
 18 19  1  0
 19 23  1  0
 20 19  2  0
 21 22  1  0
 24 21  2  0
M  END
$$$$
