VND.pdb
     RDKit          3D

 24 23  0  0  1  0  0  0  0  0999 V2000
   16.7007  -13.1391  -15.3521 C   0  0  0  0  0  0  0  0  0  0  0  0
   17.7698  -12.4099  -16.1580 C   0  0  2  0  0  0  0  0  0  0  0  0
   19.1360  -12.6380  -15.6094 C   0  0  0  0  0  0  0  0  0  0  0  0
   17.3854  -10.9810  -16.3653 C   0  0  2  0  0  0  0  0  0  0  0  0
   17.2752  -10.6344  -17.7513 N   0  0  0  0  0  0  0  0  0  0  0  0
   18.2376  -10.0087  -15.6531 C   0  0  0  0  0  0  0  0  0  0  0  0
   18.2309   -9.8691  -14.4037 O   0  0  0  0  0  0  0  0  0  0  0  0
   21.1428   -9.8870  -14.1395 N   0  0  0  0  0  0  0  0  0  0  0  0
   21.9256   -9.2932  -15.1338 C   0  0  0  0  0  0  0  0  0  0  0  0
   23.1408   -9.6642  -15.2966 O   0  0  0  0  0  0  0  0  0  0  0  0
   21.3653   -8.2411  -16.0022 C   0  0  0  0  0  0  0  0  0  0  0  0
   19.8639   -8.0991  -15.8085 C   0  0  2  0  0  0  0  0  0  0  0  0
   19.1133   -9.1821  -16.3980 N   0  0  0  0  0  0  0  0  0  0  0  0
   19.4023   -6.7772  -16.3580 C   0  0  0  0  0  0  0  0  0  0  0  0
   19.3051   -6.6053  -17.6040 O   0  0  0  0  0  0  0  0  0  0  0  0
   19.0665   -5.6988  -15.5015 N   0  0  0  0  0  0  0  0  0  0  0  0
   18.6701   -4.3813  -16.0262 C   0  0  1  0  0  0  0  0  0  0  0  0
   17.2947   -4.1048  -15.4598 C   0  0  0  0  0  0  0  0  0  0  0  0
   16.2198   -4.8821  -16.0834 C   0  0  0  0  0  0  0  0  0  0  0  0
   16.1447   -4.9673  -17.3345 O   0  0  0  0  0  0  0  0  0  0  0  0
   19.6396   -3.3496  -15.5603 C   0  0  0  0  0  0  0  0  0  0  0  0
   19.5009   -2.0139  -15.9841 O   0  0  0  0  0  0  0  0  0  0  0  0
   15.2251   -5.5678  -15.3671 O   0  0  0  0  0  0  0  0  0  0  0  0
   20.5883   -3.6233  -14.7952 O   0  0  0  0  0  0  0  0  0  0  0  0
  2  1  1  1
  2  3  1  0
  4  2  1  0
  4  6  1  0
  4  5  1  6
  6 13  1  0
  6  7  2  0
  9  8  1  0
  9 11  1  0
 10  9  2  0
 12 11  1  6
 12 14  1  0
 13 12  1  0
 14 16  1  0
 14 15  2  0
 16 17  1  0
 17 21  1  0
 17 18  1  1
 18 19  1  0
 19 23  1  0
 20 19  2  0
 21 22  1  0
 24 21  2  0
M  END
$$$$
