VND.pdb
     RDKit          3D

 24 23  0  0  1  0  0  0  0  0999 V2000
   25.7102  -34.7469   -5.2278 C   0  0  0  0  0  0  0  0  0  0  0  0
   25.9993  -34.2736   -3.8078 C   0  0  2  0  0  0  0  0  0  0  0  0
   26.1644  -35.4125   -2.8616 C   0  0  0  0  0  0  0  0  0  0  0  0
   25.0172  -33.2260   -3.3951 C   0  0  2  0  0  0  0  0  0  0  0  0
   24.8681  -32.1919   -4.3758 N   0  0  0  0  0  0  0  0  0  0  0  0
   25.2670  -32.6446   -2.0615 C   0  0  0  0  0  0  0  0  0  0  0  0
   26.2701  -31.9357   -1.7937 O   0  0  0  0  0  0  0  0  0  0  0  0
   22.2220  -30.8580    2.9679 N   0  0  0  0  0  0  0  0  0  0  0  0
   23.3289  -31.2484    2.2088 C   0  0  0  0  0  0  0  0  0  0  0  0
   24.5082  -30.9122    2.5794 O   0  0  0  0  0  0  0  0  0  0  0  0
   23.1538  -32.0478    0.9819 C   0  0  0  0  0  0  0  0  0  0  0  0
   24.4862  -32.3319    0.3067 C   0  0  2  0  0  0  0  0  0  0  0  0
   24.3413  -32.8873   -1.0178 N   0  0  0  0  0  0  0  0  0  0  0  0
   25.3122  -33.2427    1.1730 C   0  0  0  0  0  0  0  0  0  0  0  0
   25.4496  -34.4590    0.8675 O   0  0  0  0  0  0  0  0  0  0  0  0
   25.9532  -32.7663    2.3441 N   0  0  0  0  0  0  0  0  0  0  0  0
   26.7878  -33.6398    3.1858 C   0  0  1  0  0  0  0  0  0  0  0  0
   27.9114  -34.1245    2.2961 C   0  0  0  0  0  0  0  0  0  0  0  0
   28.8924  -34.9756    2.9755 C   0  0  0  0  0  0  0  0  0  0  0  0
   28.7237  -35.3003    4.1772 O   0  0  0  0  0  0  0  0  0  0  0  0
   27.3337  -32.8536    4.3284 C   0  0  0  0  0  0  0  0  0  0  0  0
   27.0464  -31.4793    4.4355 O   0  0  0  0  0  0  0  0  0  0  0  0
   30.0545  -35.4788    2.3679 O   0  0  0  0  0  0  0  0  0  0  0  0
   28.0488  -33.3708    5.2124 O   0  0  0  0  0  0  0  0  0  0  0  0
  2  1  1  6
  2  3  1  0
  4  2  1  0
  4  6  1  0
  4  5  1  6
  6 13  1  0
  6  7  2  0
  9  8  1  0
  9 11  1  0
 10  9  2  0
 12 11  1  1
 12 14  1  0
 13 12  1  0
 14 16  1  0
 14 15  2  0
 16 17  1  0
 17 21  1  0
 17 18  1  6
 18 19  1  0
 19 23  1  0
 20 19  2  0
 21 22  1  0
 24 21  2  0
M  END
$$$$
