VND.pdb
     RDKit          3D

 24 23  0  0  1  0  0  0  0  0999 V2000
   16.1887  -11.4289  -15.5133 C   0  0  0  0  0  0  0  0  0  0  0  0
   17.1196  -11.4384  -16.7206 C   0  0  2  0  0  0  0  0  0  0  0  0
   17.1657  -12.7733  -17.3804 C   0  0  0  0  0  0  0  0  0  0  0  0
   18.4442  -10.8457  -16.3648 C   0  0  2  0  0  0  0  0  0  0  0  0
   19.2779  -11.7547  -15.6355 N   0  0  0  0  0  0  0  0  0  0  0  0
   18.3660   -9.5440  -15.6731 C   0  0  0  0  0  0  0  0  0  0  0  0
   17.7043   -8.5683  -16.1097 O   0  0  0  0  0  0  0  0  0  0  0  0
   16.4501   -8.4404  -12.7850 N   0  0  0  0  0  0  0  0  0  0  0  0
   17.4625   -8.5511  -11.8276 C   0  0  0  0  0  0  0  0  0  0  0  0
   17.1646   -8.8211  -10.6112 O   0  0  0  0  0  0  0  0  0  0  0  0
   18.8758   -8.3614  -12.2037 C   0  0  0  0  0  0  0  0  0  0  0  0
   19.0293   -8.1365  -13.6996 C   0  0  2  0  0  0  0  0  0  0  0  0
   19.0657   -9.3661  -14.4550 N   0  0  0  0  0  0  0  0  0  0  0  0
   20.2614   -7.3164  -13.9675 C   0  0  0  0  0  0  0  0  0  0  0  0
   21.4022   -7.8540  -13.9378 O   0  0  0  0  0  0  0  0  0  0  0  0
   20.1772   -5.9315  -14.2583 N   0  0  0  0  0  0  0  0  0  0  0  0
   21.3735   -5.1203  -14.5396 C   0  0  1  0  0  0  0  0  0  0  0  0
   20.8699   -3.8435  -15.1760 C   0  0  0  0  0  0  0  0  0  0  0  0
   20.2845   -4.0250  -16.5075 C   0  0  0  0  0  0  0  0  0  0  0  0
   20.7819   -4.8542  -17.3095 O   0  0  0  0  0  0  0  0  0  0  0  0
   22.0803   -4.8192  -13.2625 C   0  0  0  0  0  0  0  0  0  0  0  0
   23.2918   -4.1019  -13.2829 O   0  0  0  0  0  0  0  0  0  0  0  0
   19.1667   -3.3182  -16.9803 O   0  0  0  0  0  0  0  0  0  0  0  0
   21.6361   -5.1825  -12.1529 O   0  0  0  0  0  0  0  0  0  0  0  0
  2  1  1  1
  2  3  1  0
  4  2  1  0
  4  6  1  0
  4  5  1  1
  6 13  1  0
  6  7  2  0
  9  8  1  0
  9 11  1  0
 10  9  2  0
 12 11  1  1
 12 14  1  0
 13 12  1  0
 14 16  1  0
 14 15  2  0
 16 17  1  0
 17 21  1  0
 17 18  1  1
 18 19  1  0
 19 23  1  0
 20 19  2  0
 21 22  1  0
 24 21  2  0
M  END
$$$$
