VND.pdb
     RDKit          3D

 24 23  0  0  1  0  0  0  0  0999 V2000
   26.4676   -9.8133  -16.4659 C   0  0  0  0  0  0  0  0  0  0  0  0
   26.0682  -10.9272  -15.5047 C   0  0  2  0  0  0  0  0  0  0  0  0
   27.2542  -11.6223  -14.9306 C   0  0  0  0  0  0  0  0  0  0  0  0
   25.0379  -11.8119  -16.1278 C   0  0  2  0  0  0  0  0  0  0  0  0
   25.5906  -12.6956  -17.1110 N   0  0  0  0  0  0  0  0  0  0  0  0
   23.8664  -11.0974  -16.6720 C   0  0  0  0  0  0  0  0  0  0  0  0
   23.8432  -10.5805  -17.8178 O   0  0  0  0  0  0  0  0  0  0  0  0
   19.6810  -12.3176  -18.3273 N   0  0  0  0  0  0  0  0  0  0  0  0
   20.3220  -12.3101  -17.0852 C   0  0  0  0  0  0  0  0  0  0  0  0
   20.9761  -13.3412  -16.6978 O   0  0  0  0  0  0  0  0  0  0  0  0
   20.2549  -11.1231  -16.2127 C   0  0  0  0  0  0  0  0  0  0  0  0
   21.5160  -10.2804  -16.3197 C   0  0  2  0  0  0  0  0  0  0  0  0
   22.7003  -10.9774  -15.8776 N   0  0  0  0  0  0  0  0  0  0  0  0
   21.3397   -9.0000  -15.5505 C   0  0  0  0  0  0  0  0  0  0  0  0
   21.7287   -8.9186  -14.3531 O   0  0  0  0  0  0  0  0  0  0  0  0
   20.7387   -7.8605  -16.1420 N   0  0  0  0  0  0  0  0  0  0  0  0
   20.6468   -6.5724  -15.4345 C   0  0  1  0  0  0  0  0  0  0  0  0
   22.0720   -6.1084  -15.2288 C   0  0  0  0  0  0  0  0  0  0  0  0
   22.2170   -5.0248  -14.2524 C   0  0  0  0  0  0  0  0  0  0  0  0
   21.2046   -4.5479  -13.6817 O   0  0  0  0  0  0  0  0  0  0  0  0
   19.9002   -5.5958  -16.2773 C   0  0  0  0  0  0  0  0  0  0  0  0
   19.3713   -4.4274  -15.6960 O   0  0  0  0  0  0  0  0  0  0  0  0
   23.4463   -4.4516  -13.8876 O   0  0  0  0  0  0  0  0  0  0  0  0
   19.7197   -5.7719  -17.5007 O   0  0  0  0  0  0  0  0  0  0  0  0
  2  1  1  6
  2  3  1  0
  4  2  1  0
  4  6  1  0
  4  5  1  6
  6 13  1  0
  6  7  2  0
  9  8  1  0
  9 11  1  0
 10  9  2  0
 12 11  1  1
 12 14  1  0
 13 12  1  0
 14 16  1  0
 14 15  2  0
 16 17  1  0
 17 21  1  0
 17 18  1  6
 18 19  1  0
 19 23  1  0
 20 19  2  0
 21 22  1  0
 24 21  2  0
M  END
$$$$
