TWE.pdb
     RDKit          3D

 31 32  0  0  1  0  0  0  0  0999 V2000
   10.3192  -18.9370   17.9764 C   0  0  0  0  0  0  0  0  0  0  0  0
   10.2918  -18.3018   19.3482 C   0  0  1  0  0  0  0  0  0  0  0  0
   11.5469  -18.3338   19.9284 O   0  0  0  0  0  0  0  0  0  0  0  0
    9.8156  -16.8788   19.2024 C   0  0  2  0  0  0  0  0  0  0  0  0
   10.8195  -16.1914   18.3832 N   0  0  0  0  0  0  0  0  0  0  0  0
    9.7957  -16.2489   20.5440 C   0  0  0  0  0  0  0  0  0  0  0  0
   10.8641  -15.7191   21.0034 O   0  0  0  0  0  0  0  0  0  0  0  0
    8.6106  -16.2327   21.3051 N   0  0  0  0  0  0  0  0  0  0  0  0
    8.6513  -15.7158   22.6707 C   0  0  1  0  0  0  0  0  0  0  0  0
    7.2713  -15.3010   23.0086 C   0  0  0  0  0  0  0  0  0  0  0  0
    7.0047  -14.9490   24.4062 C   0  0  0  0  0  0  0  0  0  0  0  0
    6.5513  -15.7890   25.4179 C   0  0  0  0  0  0  0  0  0  0  0  0
    6.3985  -15.1034   26.5617 N   0  0  0  0  0  0  0  0  0  0  0  0
    6.7454  -13.8183   26.3222 C   0  0  0  0  0  0  0  0  0  0  0  0
    6.7870  -12.7101   27.1360 C   0  0  0  0  0  0  0  0  0  0  0  0
    7.1981  -11.4738   26.6704 C   0  0  0  0  0  0  0  0  0  0  0  0
    7.5779  -11.3543   25.3442 C   0  0  0  0  0  0  0  0  0  0  0  0
    7.5314  -12.4652   24.5443 C   0  0  0  0  0  0  0  0  0  0  0  0
    7.1209  -13.7123   24.9963 C   0  0  0  0  0  0  0  0  0  0  0  0
    9.3754  -16.5786   23.5804 C   0  0  0  0  0  0  0  0  0  0  0  0
    9.1270  -17.8343   23.5057 O   0  0  0  0  0  0  0  0  0  0  0  0
   10.3098  -16.1260   24.5155 N   0  0  0  0  0  0  0  0  0  0  0  0
   10.9341  -17.0693   25.4375 C   0  0  1  0  0  0  0  0  0  0  0  0
   12.4197  -17.0485   25.2313 C   0  0  0  0  0  0  0  0  0  0  0  0
   12.8756  -17.2214   23.8255 C   0  0  0  0  0  0  0  0  0  0  0  0
   14.3744  -17.1488   23.7962 C   0  0  0  0  0  0  0  0  0  0  0  0
   14.9372  -16.0901   24.1624 O   0  0  0  0  0  0  0  0  0  0  0  0
   10.5047  -16.8237   26.8271 C   0  0  0  0  0  0  0  0  0  0  0  0
   10.9067  -17.5370   27.8015 O   0  0  0  0  0  0  0  0  0  0  0  0
   15.1580  -18.2083   23.3795 O   0  0  0  0  0  0  0  0  0  0  0  0
    9.6364  -15.7972   27.1516 O   0  0  0  0  0  0  0  0  0  0  0  0
  2  3  1  0
  2  1  1  6
  4  6  1  0
  4  2  1  0
  4  5  1  6
  6  7  2  0
  8  6  1  0
  8  9  1  0
  9 10  1  1
 11 10  1  0
 11 12  2  0
 13 12  1  0
 14 19  2  0
 14 13  1  0
 15 14  1  0
 16 15  2  0
 17 16  1  0
 17 18  2  0
 18 19  1  0
 19 11  1  0
 20 21  2  0
 20  9  1  0
 22 20  1  0
 23 22  1  0
 23 24  1  1
 25 24  1  0
 26 25  1  0
 27 26  2  0
 28 31  1  0
 28 23  1  0
 29 28  2  0
 30 26  1  0
M  END
$$$$
