TWE.pdb
     RDKit          3D

 31 32  0  0  1  0  0  0  0  0999 V2000
    7.0819  -16.0965   18.7310 C   0  0  0  0  0  0  0  0  0  0  0  0
    7.9320  -16.1598   19.9798 C   0  0  1  0  0  0  0  0  0  0  0  0
    9.2595  -15.9106   19.6823 O   0  0  0  0  0  0  0  0  0  0  0  0
    7.4118  -15.1388   20.9597 C   0  0  2  0  0  0  0  0  0  0  0  0
    7.5747  -13.8310   20.3160 N   0  0  0  0  0  0  0  0  0  0  0  0
    8.2638  -15.1728   22.1722 C   0  0  0  0  0  0  0  0  0  0  0  0
    9.2926  -14.4174   22.2363 O   0  0  0  0  0  0  0  0  0  0  0  0
    7.9422  -16.0281   23.2442 N   0  0  0  0  0  0  0  0  0  0  0  0
    8.7862  -16.0196   24.4364 C   0  0  1  0  0  0  0  0  0  0  0  0
    7.8761  -16.0976   25.6009 C   0  0  0  0  0  0  0  0  0  0  0  0
    6.9620  -14.9708   25.8088 C   0  0  0  0  0  0  0  0  0  0  0  0
    5.5720  -14.9906   25.7657 C   0  0  0  0  0  0  0  0  0  0  0  0
    5.0798  -13.7603   25.9788 N   0  0  0  0  0  0  0  0  0  0  0  0
    6.1260  -12.9233   26.1636 C   0  0  0  0  0  0  0  0  0  0  0  0
    6.1894  -11.5749   26.4276 C   0  0  0  0  0  0  0  0  0  0  0  0
    7.3946  -10.9173   26.5981 C   0  0  0  0  0  0  0  0  0  0  0  0
    8.5694  -11.6435   26.4989 C   0  0  0  0  0  0  0  0  0  0  0  0
    8.4925  -12.9854   26.2351 C   0  0  0  0  0  0  0  0  0  0  0  0
    7.2912  -13.6596   26.0610 C   0  0  0  0  0  0  0  0  0  0  0  0
    9.9021  -16.9377   24.3456 C   0  0  0  0  0  0  0  0  0  0  0  0
    9.8667  -17.7969   23.3945 O   0  0  0  0  0  0  0  0  0  0  0  0
   10.9917  -16.9380   25.2202 N   0  0  0  0  0  0  0  0  0  0  0  0
   12.0429  -17.9397   25.0749 C   0  0  1  0  0  0  0  0  0  0  0  0
   12.9694  -17.5239   23.9709 C   0  0  0  0  0  0  0  0  0  0  0  0
   13.6329  -16.2044   24.1519 C   0  0  0  0  0  0  0  0  0  0  0  0
   14.4891  -15.9305   22.9500 C   0  0  0  0  0  0  0  0  0  0  0  0
   15.4909  -16.6549   22.7419 O   0  0  0  0  0  0  0  0  0  0  0  0
   12.7076  -18.2093   26.3637 C   0  0  0  0  0  0  0  0  0  0  0  0
   13.6402  -19.0670   26.4841 O   0  0  0  0  0  0  0  0  0  0  0  0
   14.2131  -14.9071   22.0631 O   0  0  0  0  0  0  0  0  0  0  0  0
   12.3532  -17.5402   27.5212 O   0  0  0  0  0  0  0  0  0  0  0  0
  2  3  1  0
  2  1  1  6
  4  6  1  0
  4  2  1  0
  4  5  1  6
  6  7  2  0
  8  6  1  0
  8  9  1  0
  9 10  1  1
 11 10  1  0
 11 12  2  0
 13 12  1  0
 14 19  2  0
 14 13  1  0
 15 14  1  0
 16 15  2  0
 17 16  1  0
 17 18  2  0
 18 19  1  0
 19 11  1  0
 20 21  2  0
 20  9  1  0
 22 20  1  0
 23 22  1  0
 23 24  1  6
 25 24  1  0
 26 25  1  0
 27 26  2  0
 28 31  1  0
 28 23  1  0
 29 28  2  0
 30 26  1  0
M  END
$$$$
