TWE.pdb
     RDKit          3D

 31 32  0  0  1  0  0  0  0  0999 V2000
    7.3671  -14.8856   17.9173 C   0  0  0  0  0  0  0  0  0  0  0  0
    8.0942  -15.1255   19.2210 C   0  0  1  0  0  0  0  0  0  0  0  0
    9.4613  -15.0052   19.0492 O   0  0  0  0  0  0  0  0  0  0  0  0
    7.6005  -14.1211   20.2311 C   0  0  2  0  0  0  0  0  0  0  0  0
    7.9339  -12.7983   19.6922 N   0  0  0  0  0  0  0  0  0  0  0  0
    8.3520  -14.3146   21.4941 C   0  0  0  0  0  0  0  0  0  0  0  0
    9.3462  -13.5549   21.7543 O   0  0  0  0  0  0  0  0  0  0  0  0
    7.9735  -15.3249   22.3997 N   0  0  0  0  0  0  0  0  0  0  0  0
    8.8175  -15.5878   23.5626 C   0  0  1  0  0  0  0  0  0  0  0  0
    7.9128  -15.6859   24.7298 C   0  0  0  0  0  0  0  0  0  0  0  0
    7.1108  -14.5023   25.0525 C   0  0  0  0  0  0  0  0  0  0  0  0
    5.8358  -14.1932   24.5906 C   0  0  0  0  0  0  0  0  0  0  0  0
    5.4340  -13.0108   25.0823 N   0  0  0  0  0  0  0  0  0  0  0  0
    6.4263  -12.5308   25.8660 C   0  0  0  0  0  0  0  0  0  0  0  0
    6.5337  -11.3804   26.6125 C   0  0  0  0  0  0  0  0  0  0  0  0
    7.6595  -11.0977   27.3654 C   0  0  0  0  0  0  0  0  0  0  0  0
    8.7067  -12.0036   27.3635 C   0  0  0  0  0  0  0  0  0  0  0  0
    8.5874  -13.1449   26.6156 C   0  0  0  0  0  0  0  0  0  0  0  0
    7.4649  -13.4427   25.8546 C   0  0  0  0  0  0  0  0  0  0  0  0
    9.7908  -16.6342   23.3298 C   0  0  0  0  0  0  0  0  0  0  0  0
    9.3344  -17.8217   23.1694 O   0  0  0  0  0  0  0  0  0  0  0  0
   11.1709  -16.4240   23.2721 N   0  0  0  0  0  0  0  0  0  0  0  0
   12.0766  -17.5607   23.1405 C   0  0  1  0  0  0  0  0  0  0  0  0
   13.3279  -17.1146   22.4439 C   0  0  0  0  0  0  0  0  0  0  0  0
   14.0307  -15.9586   23.0634 C   0  0  0  0  0  0  0  0  0  0  0  0
   15.2658  -15.6646   22.2630 C   0  0  0  0  0  0  0  0  0  0  0  0
   15.4997  -16.3462   21.2373 O   0  0  0  0  0  0  0  0  0  0  0  0
   12.3009  -18.2201   24.4406 C   0  0  0  0  0  0  0  0  0  0  0  0
   11.8977  -17.7184   25.5386 O   0  0  0  0  0  0  0  0  0  0  0  0
   16.1561  -14.6683   22.6163 O   0  0  0  0  0  0  0  0  0  0  0  0
   12.9652  -19.4292   24.5404 O   0  0  0  0  0  0  0  0  0  0  0  0
  2  3  1  0
  2  1  1  6
  4  6  1  0
  4  2  1  0
  4  5  1  6
  6  7  2  0
  8  6  1  0
  8  9  1  0
  9 10  1  1
 11 10  1  0
 11 12  2  0
 13 12  1  0
 14 19  2  0
 14 13  1  0
 15 14  1  0
 16 15  2  0
 17 16  1  0
 17 18  2  0
 18 19  1  0
 19 11  1  0
 20 21  2  0
 20  9  1  0
 22 20  1  0
 23 22  1  0
 23 24  1  1
 25 24  1  0
 26 25  1  0
 27 26  2  0
 28 31  1  0
 28 23  1  0
 29 28  2  0
 30 26  1  0
M  END
$$$$
