TWE.pdb
     RDKit          3D

 31 32  0  0  1  0  0  0  0  0999 V2000
    8.8712  -18.6973   17.4195 C   0  0  0  0  0  0  0  0  0  0  0  0
    9.0953  -18.1378   18.8062 C   0  0  1  0  0  0  0  0  0  0  0  0
   10.3873  -18.3870   19.2324 O   0  0  0  0  0  0  0  0  0  0  0  0
    8.8311  -16.6540   18.7673 C   0  0  2  0  0  0  0  0  0  0  0  0
    9.8516  -16.0778   17.8853 N   0  0  0  0  0  0  0  0  0  0  0  0
    9.0266  -16.1048   20.1301 C   0  0  0  0  0  0  0  0  0  0  0  0
   10.2033  -15.7881   20.5151 O   0  0  0  0  0  0  0  0  0  0  0  0
    7.9263  -15.9320   20.9924 N   0  0  0  0  0  0  0  0  0  0  0  0
    8.1653  -15.5264   22.3751 C   0  0  1  0  0  0  0  0  0  0  0  0
    6.8782  -15.0130   22.8951 C   0  0  0  0  0  0  0  0  0  0  0  0
    6.7715  -14.8282   24.3452 C   0  0  0  0  0  0  0  0  0  0  0  0
    6.4104  -15.7786   25.2943 C   0  0  0  0  0  0  0  0  0  0  0  0
    6.3972  -15.2334   26.5207 N   0  0  0  0  0  0  0  0  0  0  0  0
    6.7457  -13.9324   26.3979 C   0  0  0  0  0  0  0  0  0  0  0  0
    6.8999  -12.9301   27.3273 C   0  0  0  0  0  0  0  0  0  0  0  0
    7.2868  -11.6511   26.9685 C   0  0  0  0  0  0  0  0  0  0  0  0
    7.5245  -11.3775   25.6321 C   0  0  0  0  0  0  0  0  0  0  0  0
    7.3669  -12.3841   24.7167 C   0  0  0  0  0  0  0  0  0  0  0  0
    6.9788  -13.6722   25.0607 C   0  0  0  0  0  0  0  0  0  0  0  0
    8.8930  -16.5190   23.1377 C   0  0  0  0  0  0  0  0  0  0  0  0
    8.5139  -17.7372   23.0095 O   0  0  0  0  0  0  0  0  0  0  0  0
    9.9626  -16.2270   23.9878 N   0  0  0  0  0  0  0  0  0  0  0  0
   10.6123  -17.2980   24.7365 C   0  0  1  0  0  0  0  0  0  0  0  0
   11.9594  -17.5709   24.1358 C   0  0  0  0  0  0  0  0  0  0  0  0
   12.9991  -16.5382   24.3940 C   0  0  0  0  0  0  0  0  0  0  0  0
   14.0024  -16.5799   23.2785 C   0  0  0  0  0  0  0  0  0  0  0  0
   14.9040  -15.7096   23.2416 O   0  0  0  0  0  0  0  0  0  0  0  0
   10.6339  -17.0043   26.1818 C   0  0  0  0  0  0  0  0  0  0  0  0
   10.2272  -15.8967   26.6590 O   0  0  0  0  0  0  0  0  0  0  0  0
   13.9684  -17.5441   22.2891 O   0  0  0  0  0  0  0  0  0  0  0  0
   11.0994  -17.9222   27.1058 O   0  0  0  0  0  0  0  0  0  0  0  0
  2  3  1  0
  2  1  1  6
  4  6  1  0
  4  2  1  0
  4  5  1  6
  6  7  2  0
  8  6  1  0
  8  9  1  0
  9 10  1  1
 11 10  1  0
 11 12  2  0
 13 12  1  0
 14 19  2  0
 14 13  1  0
 15 14  1  0
 16 15  2  0
 17 16  1  0
 17 18  2  0
 18 19  1  0
 19 11  1  0
 20 21  2  0
 20  9  1  0
 22 20  1  0
 23 22  1  0
 23 24  1  6
 25 24  1  0
 26 25  1  0
 27 26  2  0
 28 31  1  0
 28 23  1  0
 29 28  2  0
 30 26  1  0
M  END
$$$$
