TWE.pdb
     RDKit          3D

 31 32  0  0  1  0  0  0  0  0999 V2000
    6.6490  -17.1125   19.0938 C   0  0  0  0  0  0  0  0  0  0  0  0
    7.6221  -16.9285   20.2362 C   0  0  1  0  0  0  0  0  0  0  0  0
    8.9158  -16.8043   19.7631 O   0  0  0  0  0  0  0  0  0  0  0  0
    7.2225  -15.6949   21.0054 C   0  0  2  0  0  0  0  0  0  0  0  0
    7.3588  -14.5687   20.0756 N   0  0  0  0  0  0  0  0  0  0  0  0
    8.1828  -15.5018   22.1180 C   0  0  0  0  0  0  0  0  0  0  0  0
    9.1732  -14.7097   21.9603 O   0  0  0  0  0  0  0  0  0  0  0  0
    8.0050  -16.1833   23.3378 N   0  0  0  0  0  0  0  0  0  0  0  0
    9.0323  -16.0699   24.3701 C   0  0  1  0  0  0  0  0  0  0  0  0
    8.3266  -16.0550   25.6710 C   0  0  0  0  0  0  0  0  0  0  0  0
    7.3330  -14.9975   25.8780 C   0  0  0  0  0  0  0  0  0  0  0  0
    5.9485  -15.1137   25.8133 C   0  0  0  0  0  0  0  0  0  0  0  0
    5.3684  -13.9235   26.0332 N   0  0  0  0  0  0  0  0  0  0  0  0
    6.3508  -13.0180   26.2437 C   0  0  0  0  0  0  0  0  0  0  0  0
    6.3158  -11.6719   26.5243 C   0  0  0  0  0  0  0  0  0  0  0  0
    7.4695  -10.9340   26.7210 C   0  0  0  0  0  0  0  0  0  0  0  0
    8.6936  -11.5752   26.6313 C   0  0  0  0  0  0  0  0  0  0  0  0
    8.7146  -12.9157   26.3508 C   0  0  0  0  0  0  0  0  0  0  0  0
    7.5660  -13.6698   26.1504 C   0  0  0  0  0  0  0  0  0  0  0  0
   10.1360  -16.9860   24.1724 C   0  0  0  0  0  0  0  0  0  0  0  0
    9.8476  -18.1446   23.7048 O   0  0  0  0  0  0  0  0  0  0  0  0
   11.4695  -16.6820   24.4579 N   0  0  0  0  0  0  0  0  0  0  0  0
   12.5102  -17.6780   24.2251 C   0  0  1  0  0  0  0  0  0  0  0  0
   13.5121  -17.1251   23.2552 C   0  0  0  0  0  0  0  0  0  0  0  0
   14.8823  -16.9159   23.7963 C   0  0  0  0  0  0  0  0  0  0  0  0
   15.6304  -16.0061   22.8662 C   0  0  0  0  0  0  0  0  0  0  0  0
   16.1501  -16.4900   21.8331 O   0  0  0  0  0  0  0  0  0  0  0  0
   13.0868  -18.1571   25.4954 C   0  0  0  0  0  0  0  0  0  0  0  0
   12.7712  -17.6534   26.6208 O   0  0  0  0  0  0  0  0  0  0  0  0
   15.7674  -14.6522   23.1076 O   0  0  0  0  0  0  0  0  0  0  0  0
   14.0081  -19.1880   25.5354 O   0  0  0  0  0  0  0  0  0  0  0  0
  2  3  1  0
  2  1  1  6
  4  6  1  0
  4  2  1  0
  4  5  1  6
  6  7  2  0
  8  6  1  0
  8  9  1  0
  9 10  1  1
 11 10  1  0
 11 12  2  0
 13 12  1  0
 14 19  2  0
 14 13  1  0
 15 14  1  0
 16 15  2  0
 17 16  1  0
 17 18  2  0
 18 19  1  0
 19 11  1  0
 20 21  2  0
 20  9  1  0
 22 20  1  0
 23 22  1  0
 23 24  1  6
 25 24  1  0
 26 25  1  0
 27 26  2  0
 28 31  1  0
 28 23  1  0
 29 28  2  0
 30 26  1  0
M  END
$$$$
