TWE.pdb
     RDKit          3D

 31 32  0  0  1  0  0  0  0  0999 V2000
   10.1438  -18.6491   17.7837 C   0  0  0  0  0  0  0  0  0  0  0  0
   10.1804  -18.0692   19.1796 C   0  0  1  0  0  0  0  0  0  0  0  0
   11.4361  -18.2186   19.7397 O   0  0  0  0  0  0  0  0  0  0  0  0
    9.8116  -16.6097   19.0965 C   0  0  2  0  0  0  0  0  0  0  0  0
   10.8832  -15.9576   18.3364 N   0  0  0  0  0  0  0  0  0  0  0  0
    9.8020  -16.0474   20.4680 C   0  0  0  0  0  0  0  0  0  0  0  0
   10.8983  -15.6468   20.9886 O   0  0  0  0  0  0  0  0  0  0  0  0
    8.5964  -15.9540   21.1904 N   0  0  0  0  0  0  0  0  0  0  0  0
    8.6327  -15.4869   22.5740 C   0  0  1  0  0  0  0  0  0  0  0  0
    7.2485  -15.1006   22.9277 C   0  0  0  0  0  0  0  0  0  0  0  0
    6.9890  -14.7615   24.3299 C   0  0  0  0  0  0  0  0  0  0  0  0
    6.6371  -15.6291   25.3585 C   0  0  0  0  0  0  0  0  0  0  0  0
    6.4554  -14.9498   26.5017 N   0  0  0  0  0  0  0  0  0  0  0  0
    6.6828  -13.6415   26.2453 C   0  0  0  0  0  0  0  0  0  0  0  0
    6.6492  -12.5272   27.0510 C   0  0  0  0  0  0  0  0  0  0  0  0
    6.9389  -11.2638   26.5671 C   0  0  0  0  0  0  0  0  0  0  0  0
    7.2720  -11.1229   25.2305 C   0  0  0  0  0  0  0  0  0  0  0  0
    7.3013  -12.2402   24.4388 C   0  0  0  0  0  0  0  0  0  0  0  0
    7.0127  -13.5144   24.9091 C   0  0  0  0  0  0  0  0  0  0  0  0
    9.3676  -16.3740   23.4511 C   0  0  0  0  0  0  0  0  0  0  0  0
    9.1575  -17.6309   23.3086 O   0  0  0  0  0  0  0  0  0  0  0  0
   10.2736  -15.9434   24.4236 N   0  0  0  0  0  0  0  0  0  0  0  0
   11.0072  -16.9213   25.2205 C   0  0  1  0  0  0  0  0  0  0  0  0
   12.4791  -16.6741   25.0697 C   0  0  0  0  0  0  0  0  0  0  0  0
   13.0424  -16.9530   23.7211 C   0  0  0  0  0  0  0  0  0  0  0  0
   14.5109  -16.6434   23.7425 C   0  0  0  0  0  0  0  0  0  0  0  0
   15.1793  -16.8037   22.6942 O   0  0  0  0  0  0  0  0  0  0  0  0
   10.5291  -16.9422   26.6157 C   0  0  0  0  0  0  0  0  0  0  0  0
   11.0206  -17.7215   27.4938 O   0  0  0  0  0  0  0  0  0  0  0  0
   15.1539  -16.1875   24.8777 O   0  0  0  0  0  0  0  0  0  0  0  0
    9.5140  -16.1098   27.0514 O   0  0  0  0  0  0  0  0  0  0  0  0
  2  3  1  0
  2  1  1  6
  4  6  1  0
  4  2  1  0
  4  5  1  6
  6  7  2  0
  8  6  1  0
  8  9  1  0
  9 10  1  1
 11 10  1  0
 11 12  2  0
 13 12  1  0
 14 19  2  0
 14 13  1  0
 15 14  1  0
 16 15  2  0
 17 16  1  0
 17 18  2  0
 18 19  1  0
 19 11  1  0
 20 21  2  0
 20  9  1  0
 22 20  1  0
 23 22  1  0
 23 24  1  1
 25 24  1  0
 26 25  1  0
 27 26  2  0
 28 31  1  0
 28 23  1  0
 29 28  2  0
 30 26  1  0
M  END
$$$$
