TWE.pdb
     RDKit          3D

 31 32  0  0  1  0  0  0  0  0999 V2000
    7.2241  -17.5515   19.1078 C   0  0  0  0  0  0  0  0  0  0  0  0
    8.0709  -17.1820   20.3047 C   0  0  1  0  0  0  0  0  0  0  0  0
    9.2911  -16.6699   19.9025 O   0  0  0  0  0  0  0  0  0  0  0  0
    7.3172  -16.1643   21.1228 C   0  0  2  0  0  0  0  0  0  0  0  0
    7.2387  -14.9523   20.3005 N   0  0  0  0  0  0  0  0  0  0  0  0
    8.1097  -15.8554   22.3368 C   0  0  0  0  0  0  0  0  0  0  0  0
    8.8646  -14.8243   22.3466 O   0  0  0  0  0  0  0  0  0  0  0  0
    8.0307  -16.6891   23.4694 N   0  0  0  0  0  0  0  0  0  0  0  0
    8.9393  -16.4534   24.5886 C   0  0  1  0  0  0  0  0  0  0  0  0
    8.0950  -16.2880   25.7929 C   0  0  0  0  0  0  0  0  0  0  0  0
    7.1869  -15.1377   25.8171 C   0  0  0  0  0  0  0  0  0  0  0  0
    5.8221  -15.1322   25.5491 C   0  0  0  0  0  0  0  0  0  0  0  0
    5.3317  -13.8865   25.6440 N   0  0  0  0  0  0  0  0  0  0  0  0
    6.3542  -13.0643   25.9725 C   0  0  0  0  0  0  0  0  0  0  0  0
    6.4066  -11.7095   26.2046 C   0  0  0  0  0  0  0  0  0  0  0  0
    7.5838  -11.0700   26.5499 C   0  0  0  0  0  0  0  0  0  0  0  0
    8.7413  -11.8215   26.6639 C   0  0  0  0  0  0  0  0  0  0  0  0
    8.6757  -13.1694   26.4296 C   0  0  0  0  0  0  0  0  0  0  0  0
    7.5025  -13.8257   26.0818 C   0  0  0  0  0  0  0  0  0  0  0  0
   10.0482  -17.3838   24.6221 C   0  0  0  0  0  0  0  0  0  0  0  0
    9.7577  -18.6307   24.5500 O   0  0  0  0  0  0  0  0  0  0  0  0
   11.3887  -17.0043   24.7271 N   0  0  0  0  0  0  0  0  0  0  0  0
   12.4111  -18.0082   25.0038 C   0  0  1  0  0  0  0  0  0  0  0  0
   13.7345  -17.5146   24.4987 C   0  0  0  0  0  0  0  0  0  0  0  0
   13.7817  -17.1692   23.0521 C   0  0  0  0  0  0  0  0  0  0  0  0
   14.7348  -16.0252   22.8641 C   0  0  0  0  0  0  0  0  0  0  0  0
   15.4049  -15.6271   23.8459 O   0  0  0  0  0  0  0  0  0  0  0  0
   12.4055  -18.4004   26.4256 C   0  0  0  0  0  0  0  0  0  0  0  0
   11.6897  -17.8064   27.2944 O   0  0  0  0  0  0  0  0  0  0  0  0
   14.9009  -15.3937   21.6460 O   0  0  0  0  0  0  0  0  0  0  0  0
   13.1820  -19.4431   26.8977 O   0  0  0  0  0  0  0  0  0  0  0  0
  2  3  1  0
  2  1  1  6
  4  6  1  0
  4  2  1  0
  4  5  1  6
  6  7  2  0
  8  6  1  0
  8  9  1  0
  9 10  1  1
 11 10  1  0
 11 12  2  0
 13 12  1  0
 14 19  2  0
 14 13  1  0
 15 14  1  0
 16 15  2  0
 17 16  1  0
 17 18  2  0
 18 19  1  0
 19 11  1  0
 20 21  2  0
 20  9  1  0
 22 20  1  0
 23 22  1  0
 23 24  1  1
 25 24  1  0
 26 25  1  0
 27 26  2  0
 28 31  1  0
 28 23  1  0
 29 28  2  0
 30 26  1  0
M  END
$$$$
