TWE.pdb
     RDKit          3D

 31 32  0  0  1  0  0  0  0  0999 V2000
   11.7223  -20.2588   19.4852 C   0  0  0  0  0  0  0  0  0  0  0  0
   11.5504  -19.2216   18.3986 C   0  0  1  0  0  0  0  0  0  0  0  0
   11.4809  -19.8218   17.1545 O   0  0  0  0  0  0  0  0  0  0  0  0
   10.2889  -18.4453   18.6795 C   0  0  2  0  0  0  0  0  0  0  0  0
   10.1159  -17.5208   17.5539 N   0  0  0  0  0  0  0  0  0  0  0  0
   10.4910  -17.6481   19.9127 C   0  0  0  0  0  0  0  0  0  0  0  0
   11.4575  -16.8138   19.9680 O   0  0  0  0  0  0  0  0  0  0  0  0
    9.6257  -17.8072   21.0127 N   0  0  0  0  0  0  0  0  0  0  0  0
    9.8913  -17.0583   22.2385 C   0  0  1  0  0  0  0  0  0  0  0  0
    8.5744  -16.6838   22.8005 C   0  0  0  0  0  0  0  0  0  0  0  0
    7.6983  -15.8655   21.9571 C   0  0  0  0  0  0  0  0  0  0  0  0
    6.5715  -16.2806   21.2554 C   0  0  0  0  0  0  0  0  0  0  0  0
    6.0416  -15.2542   20.5719 N   0  0  0  0  0  0  0  0  0  0  0  0
    6.8024  -14.1620   20.8116 C   0  0  0  0  0  0  0  0  0  0  0  0
    6.7038  -12.8598   20.3796 C   0  0  0  0  0  0  0  0  0  0  0  0
    7.6046  -11.8865   20.7737 C   0  0  0  0  0  0  0  0  0  0  0  0
    8.6347  -12.2397   21.6291 C   0  0  0  0  0  0  0  0  0  0  0  0
    8.7220  -13.5397   22.0515 C   0  0  0  0  0  0  0  0  0  0  0  0
    7.8265  -14.5279   21.6647 C   0  0  0  0  0  0  0  0  0  0  0  0
   10.8703  -17.6989   23.0915 C   0  0  0  0  0  0  0  0  0  0  0  0
   10.6528  -18.9243   23.4003 O   0  0  0  0  0  0  0  0  0  0  0  0
   12.0142  -17.0672   23.5858 N   0  0  0  0  0  0  0  0  0  0  0  0
   12.9584  -17.8116   24.4128 C   0  0  1  0  0  0  0  0  0  0  0  0
   14.3524  -17.5507   23.9241 C   0  0  0  0  0  0  0  0  0  0  0  0
   15.0204  -16.3515   24.4982 C   0  0  0  0  0  0  0  0  0  0  0  0
   16.1471  -15.9511   23.5911 C   0  0  0  0  0  0  0  0  0  0  0  0
   17.2961  -15.8177   24.0744 O   0  0  0  0  0  0  0  0  0  0  0  0
   12.7495  -17.5339   25.8463 C   0  0  0  0  0  0  0  0  0  0  0  0
   13.4308  -18.1035   26.7580 O   0  0  0  0  0  0  0  0  0  0  0  0
   15.9637  -15.7238   22.2402 O   0  0  0  0  0  0  0  0  0  0  0  0
   11.7960  -16.6321   26.2832 O   0  0  0  0  0  0  0  0  0  0  0  0
  2  3  1  0
  2  1  1  1
  4  6  1  0
  4  2  1  0
  4  5  1  6
  6  7  2  0
  8  6  1  0
  8  9  1  0
  9 10  1  1
 11 10  1  0
 11 12  2  0
 13 12  1  0
 14 19  2  0
 14 13  1  0
 15 14  1  0
 16 15  2  0
 17 16  1  0
 17 18  2  0
 18 19  1  0
 19 11  1  0
 20 21  2  0
 20  9  1  0
 22 20  1  0
 23 22  1  0
 23 24  1  6
 25 24  1  0
 26 25  1  0
 27 26  2  0
 28 31  1  0
 28 23  1  0
 29 28  2  0
 30 26  1  0
M  END
$$$$
