TWE.pdb
     RDKit          3D

 31 32  0  0  1  0  0  0  0  0999 V2000
    6.4412  -15.1180   19.3931 C   0  0  0  0  0  0  0  0  0  0  0  0
    7.3202  -14.9038   20.6045 C   0  0  1  0  0  0  0  0  0  0  0  0
    6.5534  -14.6660   21.7307 O   0  0  0  0  0  0  0  0  0  0  0  0
    8.1703  -16.1340   20.7970 C   0  0  2  0  0  0  0  0  0  0  0  0
    7.2441  -17.2305   21.0989 N   0  0  0  0  0  0  0  0  0  0  0  0
    9.0449  -15.9227   21.9750 C   0  0  0  0  0  0  0  0  0  0  0  0
   10.0523  -15.1426   21.8754 O   0  0  0  0  0  0  0  0  0  0  0  0
    8.7680  -16.5738   23.1929 N   0  0  0  0  0  0  0  0  0  0  0  0
    9.6362  -16.3289   24.3418 C   0  0  1  0  0  0  0  0  0  0  0  0
    8.7725  -16.3720   25.5429 C   0  0  0  0  0  0  0  0  0  0  0  0
    7.6575  -15.4221   25.5964 C   0  0  0  0  0  0  0  0  0  0  0  0
    6.3119  -15.6838   25.3613 C   0  0  0  0  0  0  0  0  0  0  0  0
    5.5895  -14.5584   25.4760 N   0  0  0  0  0  0  0  0  0  0  0  0
    6.4389  -13.5523   25.7850 C   0  0  0  0  0  0  0  0  0  0  0  0
    6.2306  -12.2139   26.0244 C   0  0  0  0  0  0  0  0  0  0  0  0
    7.2680  -11.3566   26.3454 C   0  0  0  0  0  0  0  0  0  0  0  0
    8.5527  -11.8669   26.4267 C   0  0  0  0  0  0  0  0  0  0  0  0
    8.7467  -13.2012   26.1855 C   0  0  0  0  0  0  0  0  0  0  0  0
    7.7165  -14.0740   25.8618 C   0  0  0  0  0  0  0  0  0  0  0  0
   10.8495  -17.1184   24.3120 C   0  0  0  0  0  0  0  0  0  0  0  0
   10.7439  -18.3231   23.8855 O   0  0  0  0  0  0  0  0  0  0  0  0
   12.1022  -16.6484   24.7146 N   0  0  0  0  0  0  0  0  0  0  0  0
   13.2706  -17.5179   24.6242 C   0  0  1  0  0  0  0  0  0  0  0  0
   14.3804  -16.7805   23.9352 C   0  0  0  0  0  0  0  0  0  0  0  0
   15.6703  -17.5144   23.8287 C   0  0  0  0  0  0  0  0  0  0  0  0
   16.6832  -16.6114   23.1874 C   0  0  0  0  0  0  0  0  0  0  0  0
   16.9647  -15.5243   23.7446 O   0  0  0  0  0  0  0  0  0  0  0  0
   13.6294  -18.0718   25.9433 C   0  0  0  0  0  0  0  0  0  0  0  0
   13.1406  -17.6208   27.0285 O   0  0  0  0  0  0  0  0  0  0  0  0
   17.3177  -16.9352   22.0031 O   0  0  0  0  0  0  0  0  0  0  0  0
   14.5221  -19.1199   26.0761 O   0  0  0  0  0  0  0  0  0  0  0  0
  2  3  1  0
  2  1  1  6
  4  6  1  0
  4  2  1  0
  4  5  1  1
  6  7  2  0
  8  6  1  0
  8  9  1  0
  9 10  1  1
 11 10  1  0
 11 12  2  0
 13 12  1  0
 14 19  2  0
 14 13  1  0
 15 14  1  0
 16 15  2  0
 17 16  1  0
 17 18  2  0
 18 19  1  0
 19 11  1  0
 20 21  2  0
 20  9  1  0
 22 20  1  0
 23 22  1  0
 23 24  1  1
 25 24  1  0
 26 25  1  0
 27 26  2  0
 28 31  1  0
 28 23  1  0
 29 28  2  0
 30 26  1  0
M  END
$$$$
