TWE.pdb
     RDKit          3D

 31 32  0  0  1  0  0  0  0  0999 V2000
    6.3903  -17.4776   19.0746 C   0  0  0  0  0  0  0  0  0  0  0  0
    7.5099  -17.1724   20.0439 C   0  0  1  0  0  0  0  0  0  0  0  0
    8.6761  -16.8678   19.3656 O   0  0  0  0  0  0  0  0  0  0  0  0
    7.0856  -16.0122   20.9082 C   0  0  2  0  0  0  0  0  0  0  0  0
    6.9600  -14.8571   20.0131 N   0  0  0  0  0  0  0  0  0  0  0  0
    8.1655  -15.7324   21.8843 C   0  0  0  0  0  0  0  0  0  0  0  0
    9.1296  -14.9635   21.5487 O   0  0  0  0  0  0  0  0  0  0  0  0
    8.1292  -16.3068   23.1699 N   0  0  0  0  0  0  0  0  0  0  0  0
    9.1993  -15.9985   24.1152 C   0  0  1  0  0  0  0  0  0  0  0  0
    8.5843  -15.9820   25.4614 C   0  0  0  0  0  0  0  0  0  0  0  0
    7.5209  -15.0010   25.6962 C   0  0  0  0  0  0  0  0  0  0  0  0
    6.1478  -15.2212   25.6751 C   0  0  0  0  0  0  0  0  0  0  0  0
    5.4869  -14.0767   25.9095 N   0  0  0  0  0  0  0  0  0  0  0  0
    6.4044  -13.0990   26.0866 C   0  0  0  0  0  0  0  0  0  0  0  0
    6.2770  -11.7578   26.3643 C   0  0  0  0  0  0  0  0  0  0  0  0
    7.3775  -10.9343   26.5226 C   0  0  0  0  0  0  0  0  0  0  0  0
    8.6429  -11.4823   26.3967 C   0  0  0  0  0  0  0  0  0  0  0  0
    8.7560  -12.8189   26.1196 C   0  0  0  0  0  0  0  0  0  0  0  0
    7.6617  -13.6581   25.9573 C   0  0  0  0  0  0  0  0  0  0  0  0
   10.3950  -16.7836   23.8913 C   0  0  0  0  0  0  0  0  0  0  0  0
   10.2264  -17.9950   23.5063 O   0  0  0  0  0  0  0  0  0  0  0  0
   11.6948  -16.3026   24.0687 N   0  0  0  0  0  0  0  0  0  0  0  0
   12.8367  -17.1621   23.7741 C   0  0  1  0  0  0  0  0  0  0  0  0
   13.9063  -16.3480   23.1083 C   0  0  0  0  0  0  0  0  0  0  0  0
   15.1723  -17.0710   22.8106 C   0  0  0  0  0  0  0  0  0  0  0  0
   16.2271  -16.0633   22.4576 C   0  0  0  0  0  0  0  0  0  0  0  0
   15.9519  -15.1624   21.6305 O   0  0  0  0  0  0  0  0  0  0  0  0
   13.2814  -17.8924   24.9760 C   0  0  0  0  0  0  0  0  0  0  0  0
   13.9752  -18.9574   24.9095 O   0  0  0  0  0  0  0  0  0  0  0  0
   17.4927  -16.0927   23.0120 O   0  0  0  0  0  0  0  0  0  0  0  0
   12.9684  -17.4577   26.2512 O   0  0  0  0  0  0  0  0  0  0  0  0
  2  3  1  0
  2  1  1  6
  4  6  1  0
  4  2  1  0
  4  5  1  6
  6  7  2  0
  8  6  1  0
  8  9  1  0
  9 10  1  1
 11 10  1  0
 11 12  2  0
 13 12  1  0
 14 19  2  0
 14 13  1  0
 15 14  1  0
 16 15  2  0
 17 16  1  0
 17 18  2  0
 18 19  1  0
 19 11  1  0
 20 21  2  0
 20  9  1  0
 22 20  1  0
 23 22  1  0
 23 24  1  1
 25 24  1  0
 26 25  1  0
 27 26  2  0
 28 31  1  0
 28 23  1  0
 29 28  2  0
 30 26  1  0
M  END
$$$$
