TWE.pdb
     RDKit          3D

 31 32  0  0  1  0  0  0  0  0999 V2000
    7.9329  -17.1032   19.5742 C   0  0  0  0  0  0  0  0  0  0  0  0
    8.2204  -15.6515   19.2643 C   0  0  1  0  0  0  0  0  0  0  0  0
    7.8201  -15.3362   17.9785 O   0  0  0  0  0  0  0  0  0  0  0  0
    7.4872  -14.7981   20.2678 C   0  0  2  0  0  0  0  0  0  0  0  0
    7.5652  -13.4204   19.7708 N   0  0  0  0  0  0  0  0  0  0  0  0
    8.2063  -14.8699   21.5620 C   0  0  0  0  0  0  0  0  0  0  0  0
    9.2784  -14.1927   21.7215 O   0  0  0  0  0  0  0  0  0  0  0  0
    7.7126  -15.6753   22.6068 N   0  0  0  0  0  0  0  0  0  0  0  0
    8.5212  -15.8501   23.8107 C   0  0  1  0  0  0  0  0  0  0  0  0
    7.5769  -16.0917   24.9245 C   0  0  0  0  0  0  0  0  0  0  0  0
    6.8294  -14.9353   25.4269 C   0  0  0  0  0  0  0  0  0  0  0  0
    5.4707  -14.8678   25.7167 C   0  0  0  0  0  0  0  0  0  0  0  0
    5.1414  -13.6343   26.1307 N   0  0  0  0  0  0  0  0  0  0  0  0
    6.2651  -12.8816   26.1201 C   0  0  0  0  0  0  0  0  0  0  0  0
    6.4955  -11.5685   26.4589 C   0  0  0  0  0  0  0  0  0  0  0  0
    7.7556  -11.0023   26.3834 C   0  0  0  0  0  0  0  0  0  0  0  0
    8.8130  -11.7859   25.9529 C   0  0  0  0  0  0  0  0  0  0  0  0
    8.5701  -13.0916   25.6180 C   0  0  0  0  0  0  0  0  0  0  0  0
    7.3117  -13.6742   25.6879 C   0  0  0  0  0  0  0  0  0  0  0  0
    9.6355  -16.7540   23.6169 C   0  0  0  0  0  0  0  0  0  0  0  0
    9.7023  -17.3536   22.4855 O   0  0  0  0  0  0  0  0  0  0  0  0
   10.6205  -17.0030   24.5761 N   0  0  0  0  0  0  0  0  0  0  0  0
   11.7330  -17.8945   24.2643 C   0  0  1  0  0  0  0  0  0  0  0  0
   12.6622  -17.2058   23.3091 C   0  0  0  0  0  0  0  0  0  0  0  0
   13.9198  -17.9370   22.9965 C   0  0  0  0  0  0  0  0  0  0  0  0
   14.7392  -17.1002   22.0579 C   0  0  0  0  0  0  0  0  0  0  0  0
   14.1538  -16.4326   21.1730 O   0  0  0  0  0  0  0  0  0  0  0  0
   12.3779  -18.3959   25.4924 C   0  0  0  0  0  0  0  0  0  0  0  0
   12.0956  -17.9394   26.6464 O   0  0  0  0  0  0  0  0  0  0  0  0
   16.1179  -17.0388   22.1339 O   0  0  0  0  0  0  0  0  0  0  0  0
   13.3310  -19.3977   25.4589 O   0  0  0  0  0  0  0  0  0  0  0  0
  2  3  1  0
  2  1  1  1
  4  6  1  0
  4  2  1  0
  4  5  1  6
  6  7  2  0
  8  6  1  0
  8  9  1  0
  9 10  1  1
 11 10  1  0
 11 12  2  0
 13 12  1  0
 14 19  2  0
 14 13  1  0
 15 14  1  0
 16 15  2  0
 17 16  1  0
 17 18  2  0
 18 19  1  0
 19 11  1  0
 20 21  2  0
 20  9  1  0
 22 20  1  0
 23 22  1  0
 23 24  1  6
 25 24  1  0
 26 25  1  0
 27 26  2  0
 28 31  1  0
 28 23  1  0
 29 28  2  0
 30 26  1  0
M  END
$$$$
