DWH.pdb
     RDKit          3D

 33 35  0  0  1  0  0  0  0  0999 V2000
   28.2912  -21.2030  -15.1065 N   0  0  0  0  0  0  0  0  0  0  0  0
   26.9927  -20.6929  -15.4876 C   0  0  1  0  0  0  0  0  0  0  0  0
   26.7196  -20.9616  -16.9284 C   0  0  0  0  0  0  0  0  0  0  0  0
   27.9571  -20.6934  -17.7057 C   0  0  0  0  0  0  0  0  0  0  0  0
   28.7741  -21.6163  -17.9509 O   0  0  0  0  0  0  0  0  0  0  0  0
   25.9832  -21.1501  -14.5562 C   0  0  0  0  0  0  0  0  0  0  0  0
   24.8575  -21.5019  -14.9904 O   0  0  0  0  0  0  0  0  0  0  0  0
   28.2698  -19.4258  -18.1945 O   0  0  0  0  0  0  0  0  0  0  0  0
   26.1741  -21.2346  -13.1384 N   0  0  0  0  0  0  0  0  0  0  0  0
   25.0853  -21.5482  -12.2458 C   0  0  1  0  0  0  0  0  0  0  0  0
   25.4876  -21.7646  -10.8192 C   0  0  0  0  0  0  0  0  0  0  0  0
   26.1329  -20.6338  -10.1515 C   0  0  0  0  0  0  0  0  0  0  0  0
   26.5900  -19.5027  -10.7999 C   0  0  0  0  0  0  0  0  0  0  0  0
   27.1269  -18.7179   -9.8574 N   0  0  0  0  0  0  0  0  0  0  0  0
   27.0268  -19.3085   -8.6381 C   0  0  0  0  0  0  0  0  0  0  0  0
   27.4115  -18.9178   -7.3705 C   0  0  0  0  0  0  0  0  0  0  0  0
   27.1628  -19.7411   -6.3084 C   0  0  0  0  0  0  0  0  0  0  0  0
   26.5390  -20.9634   -6.4211 C   0  0  0  0  0  0  0  0  0  0  0  0
   26.1605  -21.3424   -7.6884 C   0  0  0  0  0  0  0  0  0  0  0  0
   26.4009  -20.5285   -8.7790 C   0  0  0  0  0  0  0  0  0  0  0  0
   23.9390  -20.6272  -12.4241 C   0  0  0  0  0  0  0  0  0  0  0  0
   24.1070  -19.3679  -12.5048 O   0  0  0  0  0  0  0  0  0  0  0  0
   22.6360  -21.1653  -12.5088 N   0  0  0  0  0  0  0  0  0  0  0  0
   21.5110  -20.3540  -13.0419 C   0  0  1  0  0  0  0  0  0  0  0  0
   21.9288  -20.0377  -14.4772 C   0  0  0  0  0  0  0  0  0  0  0  0
   20.8860  -19.2683  -15.1641 C   0  0  0  0  0  0  0  0  0  0  0  0
   20.0718  -18.3442  -14.4936 C   0  0  0  0  0  0  0  0  0  0  0  0
   19.2217  -17.8025  -15.3736 N   0  0  0  0  0  0  0  0  0  0  0  0
   19.4510  -18.3349  -16.5785 C   0  0  0  0  0  0  0  0  0  0  0  0
   20.4600  -19.2180  -16.4305 N   0  0  0  0  0  0  0  0  0  0  0  0
   20.3124  -21.2051  -13.0148 C   0  0  0  0  0  0  0  0  0  0  0  0
   19.0678  -20.6429  -12.8316 O   0  0  0  0  0  0  0  0  0  0  0  0
   20.3920  -22.4352  -13.1540 O   0  0  0  0  0  0  0  0  0  0  0  0
  2  1  1  1
  2  3  1  0
  3  4  1  0
  4  8  1  0
  5  4  2  0
  6  2  1  0
  6  7  2  0
  9  6  1  0
 10 11  1  1
 10  9  1  0
 12 11  1  0
 12 20  1  0
 13 14  1  0
 13 12  2  0
 14 15  1  0
 15 20  2  0
 15 16  1  0
 16 17  2  0
 17 18  1  0
 19 18  2  0
 20 19  1  0
 21 10  1  0
 22 21  2  0
 23 21  1  0
 24 25  1  6
 24 23  1  0
 25 26  1  0
 26 30  1  0
 27 26  2  0
 27 28  1  0
 28 29  1  0
 30 29  2  0
 31 32  1  0
 31 24  1  0
 33 31  2  0
M  END
$$$$
