DWH.pdb
     RDKit          3D

 33 35  0  0  1  0  0  0  0  0999 V2000
   29.0153  -22.1949  -16.5095 N   0  0  0  0  0  0  0  0  0  0  0  0
   27.6747  -22.6823  -16.7480 C   0  0  1  0  0  0  0  0  0  0  0  0
   27.7019  -24.0897  -17.2389 C   0  0  0  0  0  0  0  0  0  0  0  0
   27.9660  -24.0790  -18.7010 C   0  0  0  0  0  0  0  0  0  0  0  0
   28.0299  -22.9953  -19.3341 O   0  0  0  0  0  0  0  0  0  0  0  0
   26.8388  -22.4310  -15.5931 C   0  0  0  0  0  0  0  0  0  0  0  0
   26.4458  -23.3986  -14.8939 O   0  0  0  0  0  0  0  0  0  0  0  0
   28.1534  -25.2507  -19.4328 O   0  0  0  0  0  0  0  0  0  0  0  0
   26.4135  -21.1281  -15.1744 N   0  0  0  0  0  0  0  0  0  0  0  0
   25.6028  -20.9392  -13.9964 C   0  0  1  0  0  0  0  0  0  0  0  0
   26.0730  -19.8509  -13.0807 C   0  0  0  0  0  0  0  0  0  0  0  0
   27.1550  -20.2033  -12.1609 C   0  0  0  0  0  0  0  0  0  0  0  0
   28.4897  -20.2619  -12.5129 C   0  0  0  0  0  0  0  0  0  0  0  0
   29.1549  -20.6329  -11.4118 N   0  0  0  0  0  0  0  0  0  0  0  0
   28.2928  -20.8107  -10.3770 C   0  0  0  0  0  0  0  0  0  0  0  0
   28.4719  -21.1766   -9.0573 C   0  0  0  0  0  0  0  0  0  0  0  0
   27.3871  -21.2650   -8.2308 C   0  0  0  0  0  0  0  0  0  0  0  0
   26.0967  -21.0073   -8.6362 C   0  0  0  0  0  0  0  0  0  0  0  0
   25.9304  -20.6441   -9.9528 C   0  0  0  0  0  0  0  0  0  0  0  0
   27.0106  -20.5479  -10.8091 C   0  0  0  0  0  0  0  0  0  0  0  0
   24.1585  -20.8834  -14.3200 C   0  0  0  0  0  0  0  0  0  0  0  0
   23.7247  -20.1949  -15.2989 O   0  0  0  0  0  0  0  0  0  0  0  0
   23.2503  -21.6148  -13.5232 N   0  0  0  0  0  0  0  0  0  0  0  0
   21.7889  -21.5549  -13.7854 C   0  0  1  0  0  0  0  0  0  0  0  0
   21.2635  -22.8927  -13.2665 C   0  0  0  0  0  0  0  0  0  0  0  0
   21.5034  -23.9594  -14.2442 C   0  0  0  0  0  0  0  0  0  0  0  0
   21.9699  -23.6972  -15.5404 C   0  0  0  0  0  0  0  0  0  0  0  0
   22.0915  -24.8571  -16.1963 N   0  0  0  0  0  0  0  0  0  0  0  0
   21.7250  -25.8530  -15.3827 C   0  0  0  0  0  0  0  0  0  0  0  0
   21.3733  -25.2896  -14.2085 N   0  0  0  0  0  0  0  0  0  0  0  0
   21.2532  -20.4346  -12.9982 C   0  0  0  0  0  0  0  0  0  0  0  0
   20.0331  -19.8820  -13.3215 O   0  0  0  0  0  0  0  0  0  0  0  0
   21.8798  -19.9651  -12.0360 O   0  0  0  0  0  0  0  0  0  0  0  0
  2  1  1  1
  2  3  1  0
  3  4  1  0
  4  8  1  0
  5  4  2  0
  6  2  1  0
  6  7  2  0
  9  6  1  0
 10 11  1  6
 10  9  1  0
 12 11  1  0
 12 20  1  0
 13 14  1  0
 13 12  2  0
 14 15  1  0
 15 20  2  0
 15 16  1  0
 16 17  2  0
 17 18  1  0
 19 18  2  0
 20 19  1  0
 21 10  1  0
 22 21  2  0
 23 21  1  0
 24 25  1  1
 24 23  1  0
 25 26  1  0
 26 30  1  0
 27 26  2  0
 27 28  1  0
 28 29  1  0
 30 29  2  0
 31 32  1  0
 31 24  1  0
 33 31  2  0
M  END
$$$$
