DWH.pdb
     RDKit          3D

 33 35  0  0  1  0  0  0  0  0999 V2000
   13.1225  -18.6081    6.6712 N   0  0  0  0  0  0  0  0  0  0  0  0
   13.9196  -17.4043    6.7567 C   0  0  1  0  0  0  0  0  0  0  0  0
   13.4950  -16.5686    7.9159 C   0  0  0  0  0  0  0  0  0  0  0  0
   12.2680  -15.8202    7.5393 C   0  0  0  0  0  0  0  0  0  0  0  0
   11.6754  -16.0611    6.4576 O   0  0  0  0  0  0  0  0  0  0  0  0
   15.3283  -17.7324    6.6954 C   0  0  0  0  0  0  0  0  0  0  0  0
   15.7030  -18.8980    6.9788 O   0  0  0  0  0  0  0  0  0  0  0  0
   11.7205  -14.8294    8.3530 O   0  0  0  0  0  0  0  0  0  0  0  0
   16.3563  -16.8046    6.3262 N   0  0  0  0  0  0  0  0  0  0  0  0
   17.7511  -17.1713    6.3523 C   0  0  1  0  0  0  0  0  0  0  0  0
   18.5561  -16.6543    5.1996 C   0  0  0  0  0  0  0  0  0  0  0  0
   18.4269  -15.2257    4.9107 C   0  0  0  0  0  0  0  0  0  0  0  0
   17.4304  -14.6755    4.1279 C   0  0  0  0  0  0  0  0  0  0  0  0
   17.6643  -13.3578    4.0895 N   0  0  0  0  0  0  0  0  0  0  0  0
   18.7698  -13.0533    4.8179 C   0  0  0  0  0  0  0  0  0  0  0  0
   19.4135  -11.8633    5.0956 C   0  0  0  0  0  0  0  0  0  0  0  0
   20.5275  -11.8701    5.8874 C   0  0  0  0  0  0  0  0  0  0  0  0
   21.0632  -13.0119    6.4398 C   0  0  0  0  0  0  0  0  0  0  0  0
   20.4140  -14.1912    6.1561 C   0  0  0  0  0  0  0  0  0  0  0  0
   19.2861  -14.2116    5.3580 C   0  0  0  0  0  0  0  0  0  0  0  0
   18.3627  -16.9325    7.6801 C   0  0  0  0  0  0  0  0  0  0  0  0
   17.8826  -16.0718    8.4858 O   0  0  0  0  0  0  0  0  0  0  0  0
   19.5000  -17.6818    8.0540 N   0  0  0  0  0  0  0  0  0  0  0  0
   20.1021  -17.5284    9.4037 C   0  0  1  0  0  0  0  0  0  0  0  0
   18.9582  -17.8611   10.3606 C   0  0  0  0  0  0  0  0  0  0  0  0
   19.4154  -17.8122   11.7534 C   0  0  0  0  0  0  0  0  0  0  0  0
   20.7212  -17.4374   12.1011 C   0  0  0  0  0  0  0  0  0  0  0  0
   20.8424  -17.4868   13.4327 N   0  0  0  0  0  0  0  0  0  0  0  0
   19.6758  -17.8757   13.9577 C   0  0  0  0  0  0  0  0  0  0  0  0
   18.8271  -18.0671   12.9267 N   0  0  0  0  0  0  0  0  0  0  0  0
   21.1853  -18.5169    9.5096 C   0  0  0  0  0  0  0  0  0  0  0  0
   21.5094  -19.3075    8.4286 O   0  0  0  0  0  0  0  0  0  0  0  0
   21.8253  -18.6616   10.5623 O   0  0  0  0  0  0  0  0  0  0  0  0
  2  1  1  1
  2  3  1  0
  3  4  1  0
  4  8  1  0
  5  4  2  0
  6  2  1  0
  6  7  2  0
  9  6  1  0
 10 11  1  6
 10  9  1  0
 12 11  1  0
 12 20  1  0
 13 14  1  0
 13 12  2  0
 14 15  1  0
 15 20  2  0
 15 16  1  0
 16 17  2  0
 17 18  1  0
 19 18  2  0
 20 19  1  0
 21 10  1  0
 22 21  2  0
 23 21  1  0
 24 25  1  1
 24 23  1  0
 25 26  1  0
 26 30  1  0
 27 26  2  0
 27 28  1  0
 28 29  1  0
 30 29  2  0
 31 32  1  0
 31 24  1  0
 33 31  2  0
M  END
$$$$
