DWH.pdb
     RDKit          3D

 33 35  0  0  1  0  0  0  0  0999 V2000
   17.2072  -27.1181   -0.5845 N   0  0  0  0  0  0  0  0  0  0  0  0
   18.6264  -27.3060   -0.3786 C   0  0  1  0  0  0  0  0  0  0  0  0
   19.4138  -26.3571   -1.2164 C   0  0  0  0  0  0  0  0  0  0  0  0
   19.0171  -26.5343   -2.6372 C   0  0  0  0  0  0  0  0  0  0  0  0
   18.2022  -27.4315   -2.9694 O   0  0  0  0  0  0  0  0  0  0  0  0
   18.9307  -27.3029    1.0367 C   0  0  0  0  0  0  0  0  0  0  0  0
   20.1158  -27.4849    1.4131 O   0  0  0  0  0  0  0  0  0  0  0  0
   19.5200  -25.7280   -3.6573 O   0  0  0  0  0  0  0  0  0  0  0  0
   17.9576  -27.1028    2.0696 N   0  0  0  0  0  0  0  0  0  0  0  0
   18.3312  -27.0562    3.4621 C   0  0  1  0  0  0  0  0  0  0  0  0
   17.4124  -26.2524    4.3303 C   0  0  0  0  0  0  0  0  0  0  0  0
   17.3779  -24.8121    4.0748 C   0  0  0  0  0  0  0  0  0  0  0  0
   16.7172  -24.2239    3.0136 C   0  0  0  0  0  0  0  0  0  0  0  0
   16.9348  -22.9069    3.1161 N   0  0  0  0  0  0  0  0  0  0  0  0
   17.7072  -22.6392    4.2012 C   0  0  0  0  0  0  0  0  0  0  0  0
   18.1975  -21.4653    4.7388 C   0  0  0  0  0  0  0  0  0  0  0  0
   18.9588  -21.5114    5.8729 C   0  0  0  0  0  0  0  0  0  0  0  0
   19.2769  -22.6785    6.5306 C   0  0  0  0  0  0  0  0  0  0  0  0
   18.7834  -23.8415    5.9859 C   0  0  0  0  0  0  0  0  0  0  0  0
   18.0117  -23.8222    4.8398 C   0  0  0  0  0  0  0  0  0  0  0  0
   18.6548  -28.3998    3.9950 C   0  0  0  0  0  0  0  0  0  0  0  0
   18.0546  -29.4412    3.5759 O   0  0  0  0  0  0  0  0  0  0  0  0
   19.6538  -28.5201    4.9860 N   0  0  0  0  0  0  0  0  0  0  0  0
   20.0982  -29.8564    5.4600 C   0  0  1  0  0  0  0  0  0  0  0  0
   20.8675  -30.4344    4.2730 C   0  0  0  0  0  0  0  0  0  0  0  0
   21.4554  -31.7332    4.6178 C   0  0  0  0  0  0  0  0  0  0  0  0
   20.7872  -32.6692    5.4203 C   0  0  0  0  0  0  0  0  0  0  0  0
   21.5653  -33.7487    5.5601 N   0  0  0  0  0  0  0  0  0  0  0  0
   22.7025  -33.5510    4.8851 C   0  0  0  0  0  0  0  0  0  0  0  0
   22.6162  -32.3276    4.3231 N   0  0  0  0  0  0  0  0  0  0  0  0
   20.9875  -29.6344    6.6096 C   0  0  0  0  0  0  0  0  0  0  0  0
   21.0618  -30.5700    7.6185 O   0  0  0  0  0  0  0  0  0  0  0  0
   21.6835  -28.6114    6.6981 O   0  0  0  0  0  0  0  0  0  0  0  0
  2  1  1  1
  2  3  1  0
  3  4  1  0
  4  8  1  0
  5  4  2  0
  6  2  1  0
  6  7  2  0
  9  6  1  0
 10 11  1  1
 10  9  1  0
 12 11  1  0
 12 20  1  0
 13 14  1  0
 13 12  2  0
 14 15  1  0
 15 20  2  0
 15 16  1  0
 16 17  2  0
 17 18  1  0
 19 18  2  0
 20 19  1  0
 21 10  1  0
 22 21  2  0
 23 21  1  0
 24 25  1  6
 24 23  1  0
 25 26  1  0
 26 30  1  0
 27 26  2  0
 27 28  1  0
 28 29  1  0
 30 29  2  0
 31 32  1  0
 31 24  1  0
 33 31  2  0
M  END
$$$$
