DWH.pdb
     RDKit          3D

 33 35  0  0  1  0  0  0  0  0999 V2000
   29.1993  -20.5382  -13.4227 N   0  0  0  0  0  0  0  0  0  0  0  0
   27.8739  -20.6923  -13.9805 C   0  0  1  0  0  0  0  0  0  0  0  0
   27.9121  -21.5272  -15.2149 C   0  0  0  0  0  0  0  0  0  0  0  0
   28.9007  -20.9406  -16.1561 C   0  0  0  0  0  0  0  0  0  0  0  0
   29.7842  -21.6580  -16.6892 O   0  0  0  0  0  0  0  0  0  0  0  0
   26.9469  -21.1216  -12.9547 C   0  0  0  0  0  0  0  0  0  0  0  0
   25.8328  -21.5967  -13.2899 O   0  0  0  0  0  0  0  0  0  0  0  0
   28.8988  -19.5871  -16.4906 O   0  0  0  0  0  0  0  0  0  0  0  0
   27.2095  -21.0442  -11.5480 N   0  0  0  0  0  0  0  0  0  0  0  0
   26.2360  -21.4696  -10.5722 C   0  0  1  0  0  0  0  0  0  0  0  0
   26.8089  -21.8540   -9.2426 C   0  0  0  0  0  0  0  0  0  0  0  0
   27.0209  -20.7630   -8.2909 C   0  0  0  0  0  0  0  0  0  0  0  0
   26.5334  -19.4806   -8.4535 C   0  0  0  0  0  0  0  0  0  0  0  0
   26.9507  -18.7803   -7.3914 N   0  0  0  0  0  0  0  0  0  0  0  0
   27.6828  -19.5701   -6.5633 C   0  0  0  0  0  0  0  0  0  0  0  0
   28.3173  -19.3354   -5.3592 C   0  0  0  0  0  0  0  0  0  0  0  0
   28.9854  -20.3549   -4.7411 C   0  0  0  0  0  0  0  0  0  0  0  0
   29.0697  -21.6310   -5.2515 C   0  0  0  0  0  0  0  0  0  0  0  0
   28.4343  -21.8530   -6.4514 C   0  0  0  0  0  0  0  0  0  0  0  0
   27.7525  -20.8391   -7.0969 C   0  0  0  0  0  0  0  0  0  0  0  0
   25.0848  -20.5406  -10.4956 C   0  0  0  0  0  0  0  0  0  0  0  0
   25.2472  -19.3035  -10.2438 O   0  0  0  0  0  0  0  0  0  0  0  0
   23.7833  -21.0450  -10.7111 N   0  0  0  0  0  0  0  0  0  0  0  0
   22.7222  -20.1865  -11.2983 C   0  0  1  0  0  0  0  0  0  0  0  0
   23.2729  -19.8020  -12.6707 C   0  0  0  0  0  0  0  0  0  0  0  0
   22.2749  -19.0499  -13.4386 C   0  0  0  0  0  0  0  0  0  0  0  0
   21.0329  -18.6853  -12.8992 C   0  0  0  0  0  0  0  0  0  0  0  0
   20.3420  -18.0130  -13.8272 N   0  0  0  0  0  0  0  0  0  0  0  0
   21.0814  -17.9281  -14.9380 C   0  0  0  0  0  0  0  0  0  0  0  0
   22.2453  -18.5606  -14.6826 N   0  0  0  0  0  0  0  0  0  0  0  0
   21.5151  -21.0163  -11.4257 C   0  0  0  0  0  0  0  0  0  0  0  0
   20.2720  -20.4713  -11.1887 O   0  0  0  0  0  0  0  0  0  0  0  0
   21.5862  -22.2128  -11.7453 O   0  0  0  0  0  0  0  0  0  0  0  0
  2  1  1  1
  2  3  1  0
  3  4  1  0
  4  8  1  0
  5  4  2  0
  6  2  1  0
  6  7  2  0
  9  6  1  0
 10 11  1  1
 10  9  1  0
 12 11  1  0
 12 20  1  0
 13 14  1  0
 13 12  2  0
 14 15  1  0
 15 20  2  0
 15 16  1  0
 16 17  2  0
 17 18  1  0
 19 18  2  0
 20 19  1  0
 21 10  1  0
 22 21  2  0
 23 21  1  0
 24 25  1  6
 24 23  1  0
 25 26  1  0
 26 30  1  0
 27 26  2  0
 27 28  1  0
 28 29  1  0
 30 29  2  0
 31 32  1  0
 31 24  1  0
 33 31  2  0
M  END
$$$$
