DWH.pdb
     RDKit          3D

 33 35  0  0  1  0  0  0  0  0999 V2000
   24.0692  -13.3650  -18.8859 N   0  0  0  0  0  0  0  0  0  0  0  0
   23.5628  -12.0785  -19.3102 C   0  0  1  0  0  0  0  0  0  0  0  0
   22.1844  -12.2076  -19.8633 C   0  0  0  0  0  0  0  0  0  0  0  0
   22.2272  -13.1102  -21.0427 C   0  0  0  0  0  0  0  0  0  0  0  0
   22.9399  -12.8310  -22.0395 O   0  0  0  0  0  0  0  0  0  0  0  0
   23.7323  -11.1021  -18.2550 C   0  0  0  0  0  0  0  0  0  0  0  0
   23.2716  -11.3440  -17.1110 O   0  0  0  0  0  0  0  0  0  0  0  0
   21.4915  -14.2928  -21.1029 O   0  0  0  0  0  0  0  0  0  0  0  0
   24.4033   -9.8465  -18.4193 N   0  0  0  0  0  0  0  0  0  0  0  0
   24.5175   -8.9022  -17.3348 C   0  0  1  0  0  0  0  0  0  0  0  0
   25.8278   -8.1790  -17.2697 C   0  0  0  0  0  0  0  0  0  0  0  0
   27.0266   -9.0169  -17.2275 C   0  0  0  0  0  0  0  0  0  0  0  0
   28.1523   -8.8069  -18.0004 C   0  0  0  0  0  0  0  0  0  0  0  0
   29.0124   -9.7845  -17.6887 N   0  0  0  0  0  0  0  0  0  0  0  0
   28.4745  -10.6042  -16.7483 C   0  0  0  0  0  0  0  0  0  0  0  0
   28.9475  -11.7288  -16.1009 C   0  0  0  0  0  0  0  0  0  0  0  0
   28.1610  -12.3510  -15.1724 C   0  0  0  0  0  0  0  0  0  0  0  0
   26.8982  -11.9207  -14.8315 C   0  0  0  0  0  0  0  0  0  0  0  0
   26.4374  -10.8000  -15.4830 C   0  0  0  0  0  0  0  0  0  0  0  0
   27.2127  -10.1527  -16.4262 C   0  0  0  0  0  0  0  0  0  0  0  0
   23.3294   -8.0232  -17.2372 C   0  0  0  0  0  0  0  0  0  0  0  0
   22.7811   -7.5322  -18.2758 O   0  0  0  0  0  0  0  0  0  0  0  0
   22.7976   -7.7312  -15.9618 N   0  0  0  0  0  0  0  0  0  0  0  0
   21.5507   -6.9352  -15.8215 C   0  0  1  0  0  0  0  0  0  0  0  0
   20.4848   -7.7916  -16.5036 C   0  0  0  0  0  0  0  0  0  0  0  0
   19.1707   -7.1449  -16.4255 C   0  0  0  0  0  0  0  0  0  0  0  0
   18.9694   -5.9361  -15.7439 C   0  0  0  0  0  0  0  0  0  0  0  0
   17.6794   -5.5953  -15.8448 N   0  0  0  0  0  0  0  0  0  0  0  0
   17.0416   -6.5283  -16.5594 C   0  0  0  0  0  0  0  0  0  0  0  0
   17.9602   -7.4556  -16.9007 N   0  0  0  0  0  0  0  0  0  0  0  0
   21.2815   -6.8022  -14.3822 C   0  0  0  0  0  0  0  0  0  0  0  0
   21.6438   -7.8090  -13.5140 O   0  0  0  0  0  0  0  0  0  0  0  0
   20.7278   -5.7928  -13.9205 O   0  0  0  0  0  0  0  0  0  0  0  0
  2  1  1  1
  2  3  1  0
  3  4  1  0
  4  8  1  0
  5  4  2  0
  6  2  1  0
  6  7  2  0
  9  6  1  0
 10 11  1  6
 10  9  1  0
 12 11  1  0
 12 20  1  0
 13 14  1  0
 13 12  2  0
 14 15  1  0
 15 20  2  0
 15 16  1  0
 16 17  2  0
 17 18  1  0
 19 18  2  0
 20 19  1  0
 21 10  1  0
 22 21  2  0
 23 21  1  0
 24 25  1  6
 24 23  1  0
 25 26  1  0
 26 30  1  0
 27 26  2  0
 27 28  1  0
 28 29  1  0
 30 29  2  0
 31 32  1  0
 31 24  1  0
 33 31  2  0
M  END
$$$$
