DWH.pdb
     RDKit          3D

 33 35  0  0  1  0  0  0  0  0999 V2000
   28.4724  -21.4124  -15.9540 N   0  0  0  0  0  0  0  0  0  0  0  0
   27.8620  -20.5031  -15.0094 C   0  0  1  0  0  0  0  0  0  0  0  0
   27.3149  -19.3038  -15.7056 C   0  0  0  0  0  0  0  0  0  0  0  0
   28.3783  -18.7279  -16.5687 C   0  0  0  0  0  0  0  0  0  0  0  0
   29.3745  -18.1526  -16.0629 O   0  0  0  0  0  0  0  0  0  0  0  0
   26.9357  -21.2168  -14.1559 C   0  0  0  0  0  0  0  0  0  0  0  0
   26.1155  -22.0182  -14.6702 O   0  0  0  0  0  0  0  0  0  0  0  0
   28.3262  -18.7952  -17.9603 O   0  0  0  0  0  0  0  0  0  0  0  0
   26.8807  -21.0756  -12.7308 N   0  0  0  0  0  0  0  0  0  0  0  0
   25.8267  -21.6773  -11.9512 C   0  0  1  0  0  0  0  0  0  0  0  0
   26.1941  -21.9820  -10.5313 C   0  0  0  0  0  0  0  0  0  0  0  0
   26.2591  -20.8382   -9.6212 C   0  0  0  0  0  0  0  0  0  0  0  0
   25.4596  -19.7159   -9.7210 C   0  0  0  0  0  0  0  0  0  0  0  0
   25.8306  -18.8981   -8.7279 N   0  0  0  0  0  0  0  0  0  0  0  0
   26.8334  -19.4599   -8.0037 C   0  0  0  0  0  0  0  0  0  0  0  0
   27.5441  -19.0371   -6.8976 C   0  0  0  0  0  0  0  0  0  0  0  0
   28.5133  -19.8446   -6.3719 C   0  0  0  0  0  0  0  0  0  0  0  0
   28.8357  -21.0814   -6.8842 C   0  0  0  0  0  0  0  0  0  0  0  0
   28.1215  -21.4920   -7.9861 C   0  0  0  0  0  0  0  0  0  0  0  0
   27.1369  -20.6941   -8.5370 C   0  0  0  0  0  0  0  0  0  0  0  0
   24.5410  -20.9589  -12.1086 C   0  0  0  0  0  0  0  0  0  0  0  0
   24.4706  -19.6932  -11.9931 O   0  0  0  0  0  0  0  0  0  0  0  0
   23.3739  -21.7005  -12.3960 N   0  0  0  0  0  0  0  0  0  0  0  0
   22.0723  -21.0171  -12.6124 C   0  0  1  0  0  0  0  0  0  0  0  0
   21.6986  -21.3767  -14.0497 C   0  0  0  0  0  0  0  0  0  0  0  0
   22.2412  -20.3901  -14.9898 C   0  0  0  0  0  0  0  0  0  0  0  0
   22.9831  -19.2786  -14.5647 C   0  0  0  0  0  0  0  0  0  0  0  0
   23.3411  -18.5648  -15.6384 N   0  0  0  0  0  0  0  0  0  0  0  0
   22.8643  -19.1651  -16.7339 C   0  0  0  0  0  0  0  0  0  0  0  0
   22.2029  -20.2659  -16.3205 N   0  0  0  0  0  0  0  0  0  0  0  0
   21.1159  -21.5944  -11.6566 C   0  0  0  0  0  0  0  0  0  0  0  0
   20.2355  -20.7788  -10.9796 O   0  0  0  0  0  0  0  0  0  0  0  0
   21.0795  -22.8151  -11.4388 O   0  0  0  0  0  0  0  0  0  0  0  0
  2  1  1  6
  2  3  1  0
  3  4  1  0
  4  8  1  0
  5  4  2  0
  6  2  1  0
  6  7  2  0
  9  6  1  0
 10 11  1  1
 10  9  1  0
 12 11  1  0
 12 20  1  0
 13 14  1  0
 13 12  2  0
 14 15  1  0
 15 20  2  0
 15 16  1  0
 16 17  2  0
 17 18  1  0
 19 18  2  0
 20 19  1  0
 21 10  1  0
 22 21  2  0
 23 21  1  0
 24 25  1  6
 24 23  1  0
 25 26  1  0
 26 30  1  0
 27 26  2  0
 27 28  1  0
 28 29  1  0
 30 29  2  0
 31 32  1  0
 31 24  1  0
 33 31  2  0
M  END
$$$$
