DWH.pdb
     RDKit          3D

 33 35  0  0  1  0  0  0  0  0999 V2000
   23.8588  -19.8245  -17.3338 N   0  0  0  0  0  0  0  0  0  0  0  0
   23.2494  -19.2309  -16.1642 C   0  0  1  0  0  0  0  0  0  0  0  0
   21.7744  -19.1057  -16.3408 C   0  0  0  0  0  0  0  0  0  0  0  0
   21.4940  -17.9018  -17.1649 C   0  0  0  0  0  0  0  0  0  0  0  0
   21.4640  -17.9748  -18.4192 O   0  0  0  0  0  0  0  0  0  0  0  0
   23.6873  -19.9197  -14.9685 C   0  0  0  0  0  0  0  0  0  0  0  0
   23.3493  -21.1165  -14.7874 O   0  0  0  0  0  0  0  0  0  0  0  0
   21.2538  -16.6507  -16.5986 O   0  0  0  0  0  0  0  0  0  0  0  0
   24.4988  -19.3252  -13.9478 N   0  0  0  0  0  0  0  0  0  0  0  0
   24.8168  -20.0283  -12.7291 C   0  0  1  0  0  0  0  0  0  0  0  0
   26.0520  -19.5460  -12.0321 C   0  0  0  0  0  0  0  0  0  0  0  0
   26.6182  -20.4445  -11.0257 C   0  0  0  0  0  0  0  0  0  0  0  0
   26.9684  -21.7597  -11.2631 C   0  0  0  0  0  0  0  0  0  0  0  0
   27.4269  -22.2441  -10.1022 N   0  0  0  0  0  0  0  0  0  0  0  0
   27.3807  -21.2863   -9.1400 C   0  0  0  0  0  0  0  0  0  0  0  0
   27.7381  -21.2768   -7.8060 C   0  0  0  0  0  0  0  0  0  0  0  0
   27.5806  -20.1324   -7.0756 C   0  0  0  0  0  0  0  0  0  0  0  0
   27.0772  -18.9604   -7.5941 C   0  0  0  0  0  0  0  0  0  0  0  0
   26.7242  -18.9817   -8.9237 C   0  0  0  0  0  0  0  0  0  0  0  0
   26.8732  -20.1259   -9.6839 C   0  0  0  0  0  0  0  0  0  0  0  0
   23.6353  -20.1728  -11.8476 C   0  0  0  0  0  0  0  0  0  0  0  0
   22.9006  -19.1753  -11.5552 O   0  0  0  0  0  0  0  0  0  0  0  0
   23.3220  -21.4479  -11.3274 N   0  0  0  0  0  0  0  0  0  0  0  0
   22.2019  -21.6235  -10.3669 C   0  0  1  0  0  0  0  0  0  0  0  0
   21.5739  -22.9573  -10.7687 C   0  0  0  0  0  0  0  0  0  0  0  0
   20.4661  -23.3012   -9.8711 C   0  0  0  0  0  0  0  0  0  0  0  0
   20.1154  -22.5024   -8.7731 C   0  0  0  0  0  0  0  0  0  0  0  0
   19.0758  -23.0655   -8.1465 N   0  0  0  0  0  0  0  0  0  0  0  0
   18.7415  -24.1890   -8.7901 C   0  0  0  0  0  0  0  0  0  0  0  0
   19.5934  -24.3132   -9.8287 N   0  0  0  0  0  0  0  0  0  0  0  0
   22.7922  -21.7000   -9.0225 C   0  0  0  0  0  0  0  0  0  0  0  0
   22.0192  -21.4433   -7.9111 O   0  0  0  0  0  0  0  0  0  0  0  0
   23.9863  -21.9935   -8.8586 O   0  0  0  0  0  0  0  0  0  0  0  0
  2  1  1  6
  2  3  1  0
  3  4  1  0
  4  8  1  0
  5  4  2  0
  6  2  1  0
  6  7  2  0
  9  6  1  0
 10 11  1  1
 10  9  1  0
 12 11  1  0
 12 20  1  0
 13 14  1  0
 13 12  2  0
 14 15  1  0
 15 20  2  0
 15 16  1  0
 16 17  2  0
 17 18  1  0
 19 18  2  0
 20 19  1  0
 21 10  1  0
 22 21  2  0
 23 21  1  0
 24 25  1  6
 24 23  1  0
 25 26  1  0
 26 30  1  0
 27 26  2  0
 27 28  1  0
 28 29  1  0
 30 29  2  0
 31 32  1  0
 31 24  1  0
 33 31  2  0
M  END
$$$$
