DWH.pdb
     RDKit          3D

 33 35  0  0  1  0  0  0  0  0999 V2000
   33.6898  -38.9988   -6.0101 N   0  0  0  0  0  0  0  0  0  0  0  0
   32.9516  -39.0423   -4.7672 C   0  0  1  0  0  0  0  0  0  0  0  0
   32.6591  -40.4500   -4.3734 C   0  0  0  0  0  0  0  0  0  0  0  0
   31.2697  -40.7802   -4.7833 C   0  0  0  0  0  0  0  0  0  0  0  0
   30.5399  -39.9172   -5.3326 O   0  0  0  0  0  0  0  0  0  0  0  0
   33.6095  -38.2290   -3.7665 C   0  0  0  0  0  0  0  0  0  0  0  0
   33.7874  -38.6946   -2.6128 O   0  0  0  0  0  0  0  0  0  0  0  0
   30.7140  -42.0430   -4.5828 O   0  0  0  0  0  0  0  0  0  0  0  0
   34.0865  -36.8973   -3.9968 N   0  0  0  0  0  0  0  0  0  0  0  0
   34.8003  -36.1632   -2.9808 C   0  0  1  0  0  0  0  0  0  0  0  0
   35.3773  -34.8592   -3.4395 C   0  0  0  0  0  0  0  0  0  0  0  0
   36.1802  -34.1276   -2.4592 C   0  0  0  0  0  0  0  0  0  0  0  0
   37.5358  -34.3124   -2.2675 C   0  0  0  0  0  0  0  0  0  0  0  0
   37.8950  -33.4804   -1.2820 N   0  0  0  0  0  0  0  0  0  0  0  0
   36.8193  -32.7762   -0.8433 C   0  0  0  0  0  0  0  0  0  0  0  0
   36.6635  -31.8075    0.1287 C   0  0  0  0  0  0  0  0  0  0  0  0
   35.4289  -31.2617    0.3424 C   0  0  0  0  0  0  0  0  0  0  0  0
   34.3033  -31.6222   -0.3640 C   0  0  0  0  0  0  0  0  0  0  0  0
   34.4704  -32.5882   -1.3292 C   0  0  0  0  0  0  0  0  0  0  0  0
   35.7079  -33.1562   -1.5646 C   0  0  0  0  0  0  0  0  0  0  0  0
   34.0352  -36.0809   -1.7152 C   0  0  0  0  0  0  0  0  0  0  0  0
   32.7841  -36.3134   -1.6807 O   0  0  0  0  0  0  0  0  0  0  0  0
   34.7157  -35.7401   -0.5255 N   0  0  0  0  0  0  0  0  0  0  0  0
   33.9991  -35.6974    0.7754 C   0  0  1  0  0  0  0  0  0  0  0  0
   33.7800  -37.1682    1.1271 C   0  0  0  0  0  0  0  0  0  0  0  0
   32.3755  -37.4170    1.4685 C   0  0  0  0  0  0  0  0  0  0  0  0
   31.3738  -36.4562    1.2682 C   0  0  0  0  0  0  0  0  0  0  0  0
   30.2034  -36.9652    1.6701 N   0  0  0  0  0  0  0  0  0  0  0  0
   30.4055  -38.2083    2.1195 C   0  0  0  0  0  0  0  0  0  0  0  0
   31.7240  -38.4620    1.9891 N   0  0  0  0  0  0  0  0  0  0  0  0
   34.8966  -35.0497    1.7433 C   0  0  0  0  0  0  0  0  0  0  0  0
   36.1595  -34.6542    1.3594 O   0  0  0  0  0  0  0  0  0  0  0  0
   34.5429  -34.8468    2.9148 O   0  0  0  0  0  0  0  0  0  0  0  0
  2  1  1  6
  2  3  1  0
  3  4  1  0
  4  8  1  0
  5  4  2  0
  6  2  1  0
  6  7  2  0
  9  6  1  0
 10 11  1  6
 10  9  1  0
 12 11  1  0
 12 20  1  0
 13 14  1  0
 13 12  2  0
 14 15  1  0
 15 20  2  0
 15 16  1  0
 16 17  2  0
 17 18  1  0
 19 18  2  0
 20 19  1  0
 21 10  1  0
 22 21  2  0
 23 21  1  0
 24 25  1  1
 24 23  1  0
 25 26  1  0
 26 30  1  0
 27 26  2  0
 27 28  1  0
 28 29  1  0
 30 29  2  0
 31 32  1  0
 31 24  1  0
 33 31  2  0
M  END
$$$$
