DWH.pdb
     RDKit          3D

 33 35  0  0  1  0  0  0  0  0999 V2000
   27.8238  -22.4493  -14.9456 N   0  0  0  0  0  0  0  0  0  0  0  0
   27.0573  -21.2486  -14.6963 C   0  0  1  0  0  0  0  0  0  0  0  0
   26.4941  -20.7061  -15.9655 C   0  0  0  0  0  0  0  0  0  0  0  0
   27.6146  -20.2407  -16.8230 C   0  0  0  0  0  0  0  0  0  0  0  0
   27.9287  -20.8679  -17.8657 O   0  0  0  0  0  0  0  0  0  0  0  0
   26.1067  -21.4753  -13.6282 C   0  0  0  0  0  0  0  0  0  0  0  0
   25.2343  -22.3704  -13.7587 O   0  0  0  0  0  0  0  0  0  0  0  0
   28.3620  -19.1035  -16.5200 O   0  0  0  0  0  0  0  0  0  0  0  0
   26.0837  -20.7373  -12.3999 N   0  0  0  0  0  0  0  0  0  0  0  0
   25.0077  -20.8825  -11.4503 C   0  0  1  0  0  0  0  0  0  0  0  0
   25.3593  -20.5066  -10.0435 C   0  0  0  0  0  0  0  0  0  0  0  0
   26.7240  -20.8142   -9.6146 C   0  0  0  0  0  0  0  0  0  0  0  0
   27.6399  -21.5175  -10.3730 C   0  0  0  0  0  0  0  0  0  0  0  0
   28.7535  -21.6054   -9.6349 N   0  0  0  0  0  0  0  0  0  0  0  0
   28.5775  -20.9847   -8.4393 C   0  0  0  0  0  0  0  0  0  0  0  0
   29.4048  -20.7913   -7.3504 C   0  0  0  0  0  0  0  0  0  0  0  0
   28.9394  -20.1015   -6.2663 C   0  0  0  0  0  0  0  0  0  0  0  0
   27.6701  -19.5739   -6.1859 C   0  0  0  0  0  0  0  0  0  0  0  0
   26.8548  -19.7729   -7.2761 C   0  0  0  0  0  0  0  0  0  0  0  0
   27.3011  -20.4673   -8.3844 C   0  0  0  0  0  0  0  0  0  0  0  0
   23.7465  -20.2838  -11.9452 C   0  0  0  0  0  0  0  0  0  0  0  0
   23.7436  -19.1943  -12.6034 O   0  0  0  0  0  0  0  0  0  0  0  0
   22.5261  -20.9434  -11.6801 N   0  0  0  0  0  0  0  0  0  0  0  0
   21.2630  -20.4924  -12.3195 C   0  0  1  0  0  0  0  0  0  0  0  0
   21.5184  -20.6740  -13.8150 C   0  0  0  0  0  0  0  0  0  0  0  0
   20.3335  -20.2985  -14.5937 C   0  0  0  0  0  0  0  0  0  0  0  0
   19.7100  -19.0501  -14.4549 C   0  0  0  0  0  0  0  0  0  0  0  0
   18.6640  -18.9972  -15.2877 N   0  0  0  0  0  0  0  0  0  0  0  0
   18.5856  -20.1529  -15.9555 C   0  0  0  0  0  0  0  0  0  0  0  0
   19.6030  -20.9253  -15.5217 N   0  0  0  0  0  0  0  0  0  0  0  0
   20.1964  -21.3899  -11.8519 C   0  0  0  0  0  0  0  0  0  0  0  0
   18.8854  -21.1478  -12.2003 O   0  0  0  0  0  0  0  0  0  0  0  0
   20.4481  -22.3744  -11.1404 O   0  0  0  0  0  0  0  0  0  0  0  0
  2  1  1  6
  2  3  1  0
  3  4  1  0
  4  8  1  0
  5  4  2  0
  6  2  1  0
  6  7  2  0
  9  6  1  0
 10 11  1  1
 10  9  1  0
 12 11  1  0
 12 20  1  0
 13 14  1  0
 13 12  2  0
 14 15  1  0
 15 20  2  0
 15 16  1  0
 16 17  2  0
 17 18  1  0
 19 18  2  0
 20 19  1  0
 21 10  1  0
 22 21  2  0
 23 21  1  0
 24 25  1  6
 24 23  1  0
 25 26  1  0
 26 30  1  0
 27 26  2  0
 27 28  1  0
 28 29  1  0
 30 29  2  0
 31 32  1  0
 31 24  1  0
 33 31  2  0
M  END
$$$$
