DWH.pdb
     RDKit          3D

 33 35  0  0  1  0  0  0  0  0999 V2000
   27.0227  -22.8273  -15.4355 N   0  0  0  0  0  0  0  0  0  0  0  0
   27.1310  -21.5265  -14.8128 C   0  0  1  0  0  0  0  0  0  0  0  0
   26.5734  -20.4660  -15.6999 C   0  0  0  0  0  0  0  0  0  0  0  0
   27.5558  -20.1819  -16.7777 C   0  0  0  0  0  0  0  0  0  0  0  0
   28.7803  -20.0714  -16.5178 O   0  0  0  0  0  0  0  0  0  0  0  0
   26.5982  -21.5707  -13.4674 C   0  0  0  0  0  0  0  0  0  0  0  0
   25.4117  -21.9431  -13.2858 O   0  0  0  0  0  0  0  0  0  0  0  0
   27.1757  -20.0260  -18.1100 O   0  0  0  0  0  0  0  0  0  0  0  0
   27.3403  -21.2126  -12.2948 N   0  0  0  0  0  0  0  0  0  0  0  0
   26.7203  -21.1624  -10.9933 C   0  0  1  0  0  0  0  0  0  0  0  0
   27.6703  -20.9478   -9.8552 C   0  0  0  0  0  0  0  0  0  0  0  0
   27.0680  -20.6000   -8.5679 C   0  0  0  0  0  0  0  0  0  0  0  0
   25.7102  -20.6133   -8.3132 C   0  0  0  0  0  0  0  0  0  0  0  0
   25.5603  -20.2213   -7.0419 N   0  0  0  0  0  0  0  0  0  0  0  0
   26.7706  -19.9611   -6.4824 C   0  0  0  0  0  0  0  0  0  0  0  0
   27.1531  -19.5440   -5.2226 C   0  0  0  0  0  0  0  0  0  0  0  0
   28.4803  -19.3730   -4.9448 C   0  0  0  0  0  0  0  0  0  0  0  0
   29.4853  -19.5944   -5.8596 C   0  0  0  0  0  0  0  0  0  0  0  0
   29.0926  -20.0092   -7.1112 C   0  0  0  0  0  0  0  0  0  0  0  0
   27.7572  -20.1891   -7.4176 C   0  0  0  0  0  0  0  0  0  0  0  0
   25.5365  -20.2722  -10.9767 C   0  0  0  0  0  0  0  0  0  0  0  0
   25.6600  -19.0053  -10.9680 O   0  0  0  0  0  0  0  0  0  0  0  0
   24.2472  -20.8488  -10.9740 N   0  0  0  0  0  0  0  0  0  0  0  0
   23.0416  -20.0177  -11.2262 C   0  0  1  0  0  0  0  0  0  0  0  0
   23.2068  -19.5531  -12.6724 C   0  0  0  0  0  0  0  0  0  0  0  0
   22.0563  -18.7467  -13.0935 C   0  0  0  0  0  0  0  0  0  0  0  0
   20.9822  -18.4680  -12.2361 C   0  0  0  0  0  0  0  0  0  0  0  0
   20.0907  -17.7175  -12.8938 N   0  0  0  0  0  0  0  0  0  0  0  0
   20.5412  -17.5005  -14.1340 C   0  0  0  0  0  0  0  0  0  0  0  0
   21.7298  -18.1306  -14.2344 N   0  0  0  0  0  0  0  0  0  0  0  0
   21.8719  -20.8968  -11.0830 C   0  0  0  0  0  0  0  0  0  0  0  0
   21.9845  -22.2463  -11.3377 O   0  0  0  0  0  0  0  0  0  0  0  0
   20.7685  -20.4500  -10.7342 O   0  0  0  0  0  0  0  0  0  0  0  0
  2  1  1  6
  2  3  1  0
  3  4  1  0
  4  8  1  0
  5  4  2  0
  6  2  1  0
  6  7  2  0
  9  6  1  0
 10 11  1  1
 10  9  1  0
 12 11  1  0
 12 20  1  0
 13 14  1  0
 13 12  2  0
 14 15  1  0
 15 20  2  0
 15 16  1  0
 16 17  2  0
 17 18  1  0
 19 18  2  0
 20 19  1  0
 21 10  1  0
 22 21  2  0
 23 21  1  0
 24 25  1  6
 24 23  1  0
 25 26  1  0
 26 30  1  0
 27 26  2  0
 27 28  1  0
 28 29  1  0
 30 29  2  0
 31 32  1  0
 31 24  1  0
 33 31  2  0
M  END
$$$$
