DWH.pdb
     RDKit          3D

 33 35  0  0  1  0  0  0  0  0999 V2000
   29.5706  -20.7662  -12.9850 N   0  0  0  0  0  0  0  0  0  0  0  0
   28.1733  -20.4093  -12.8772 C   0  0  1  0  0  0  0  0  0  0  0  0
   27.5103  -20.4536  -14.2117 C   0  0  0  0  0  0  0  0  0  0  0  0
   28.1739  -19.4699  -15.1059 C   0  0  0  0  0  0  0  0  0  0  0  0
   28.9996  -18.6406  -14.6480 O   0  0  0  0  0  0  0  0  0  0  0  0
   27.5395  -21.1821  -11.8299 C   0  0  0  0  0  0  0  0  0  0  0  0
   27.2533  -22.3876  -12.0401 O   0  0  0  0  0  0  0  0  0  0  0  0
   27.9188  -19.4176  -16.4755 O   0  0  0  0  0  0  0  0  0  0  0  0
   27.2044  -20.6637  -10.5365 N   0  0  0  0  0  0  0  0  0  0  0  0
   25.9990  -21.0614   -9.8513 C   0  0  1  0  0  0  0  0  0  0  0  0
   26.1850  -21.4044   -8.4050 C   0  0  0  0  0  0  0  0  0  0  0  0
   26.7860  -20.3663   -7.5671 C   0  0  0  0  0  0  0  0  0  0  0  0
   26.7324  -19.0136   -7.8428 C   0  0  0  0  0  0  0  0  0  0  0  0
   27.4063  -18.4010   -6.8614 N   0  0  0  0  0  0  0  0  0  0  0  0
   27.8837  -19.3137   -5.9756 C   0  0  0  0  0  0  0  0  0  0  0  0
   28.6191  -19.1984   -4.8123 C   0  0  0  0  0  0  0  0  0  0  0  0
   28.9511  -20.3241   -4.1121 C   0  0  0  0  0  0  0  0  0  0  0  0
   28.5923  -21.5960   -4.4988 C   0  0  0  0  0  0  0  0  0  0  0  0
   27.8602  -21.6987   -5.6591 C   0  0  0  0  0  0  0  0  0  0  0  0
   27.5121  -20.5761   -6.3858 C   0  0  0  0  0  0  0  0  0  0  0  0
   24.8766  -20.1326  -10.1191 C   0  0  0  0  0  0  0  0  0  0  0  0
   25.0739  -18.9860  -10.6355 O   0  0  0  0  0  0  0  0  0  0  0  0
   23.5625  -20.5364   -9.7952 N   0  0  0  0  0  0  0  0  0  0  0  0
   22.5063  -20.5972  -10.8385 C   0  0  1  0  0  0  0  0  0  0  0  0
   22.9868  -21.6918  -11.7901 C   0  0  0  0  0  0  0  0  0  0  0  0
   22.0426  -21.8676  -12.8986 C   0  0  0  0  0  0  0  0  0  0  0  0
   20.8648  -21.1142  -13.0068 C   0  0  0  0  0  0  0  0  0  0  0  0
   20.2118  -21.4936  -14.1114 N   0  0  0  0  0  0  0  0  0  0  0  0
   20.9145  -22.4556  -14.7187 C   0  0  0  0  0  0  0  0  0  0  0  0
   22.0168  -22.6668  -13.9702 N   0  0  0  0  0  0  0  0  0  0  0  0
   21.2577  -20.9891  -10.1683 C   0  0  0  0  0  0  0  0  0  0  0  0
   21.2674  -21.9787   -9.2095 O   0  0  0  0  0  0  0  0  0  0  0  0
   20.1782  -20.4451  -10.4471 O   0  0  0  0  0  0  0  0  0  0  0  0
  2  1  1  6
  2  3  1  0
  3  4  1  0
  4  8  1  0
  5  4  2  0
  6  2  1  0
  6  7  2  0
  9  6  1  0
 10 11  1  1
 10  9  1  0
 12 11  1  0
 12 20  1  0
 13 14  1  0
 13 12  2  0
 14 15  1  0
 15 20  2  0
 15 16  1  0
 16 17  2  0
 17 18  1  0
 19 18  2  0
 20 19  1  0
 21 10  1  0
 22 21  2  0
 23 21  1  0
 24 25  1  6
 24 23  1  0
 25 26  1  0
 26 30  1  0
 27 26  2  0
 27 28  1  0
 28 29  1  0
 30 29  2  0
 31 32  1  0
 31 24  1  0
 33 31  2  0
M  END
$$$$
