KHS.pdb
     RDKit          3D

 26 26  0  0  1  0  0  0  0  0999 V2000
   23.3841  -19.6140  -15.6821 N   0  0  0  0  0  0  0  0  0  0  0  0
   22.0895  -18.9967  -15.8776 C   0  0  1  0  0  0  0  0  0  0  0  0
   21.1924  -19.4220  -14.7549 C   0  0  0  0  0  0  0  0  0  0  0  0
   20.8967  -20.9048  -14.7852 C   0  0  0  0  0  0  0  0  0  0  0  0
   19.9250  -21.2984  -13.6921 C   0  0  0  0  0  0  0  0  0  0  0  0
   19.6672  -22.7877  -13.6906 C   0  0  0  0  0  0  0  0  0  0  0  0
   18.8330  -23.2059  -12.5871 N   0  0  0  0  0  0  0  0  0  0  0  0
   22.2431  -17.5226  -15.9617 C   0  0  0  0  0  0  0  0  0  0  0  0
   23.0071  -16.8928  -15.1687 O   0  0  0  0  0  0  0  0  0  0  0  0
   21.5517  -16.7876  -16.9149 N   0  0  0  0  0  0  0  0  0  0  0  0
   21.6854  -15.3087  -17.0894 C   0  0  1  0  0  0  0  0  0  0  0  0
   22.3780  -15.2305  -18.4303 C   0  0  0  0  0  0  0  0  0  0  0  0
   23.8155  -15.3634  -18.4799 C   0  0  0  0  0  0  0  0  0  0  0  0
   24.5893  -15.4028  -17.3023 C   0  0  0  0  0  0  0  0  0  0  0  0
   25.8605  -15.5291  -17.6622 N   0  0  0  0  0  0  0  0  0  0  0  0
   25.9031  -15.5690  -19.0095 C   0  0  0  0  0  0  0  0  0  0  0  0
   24.6594  -15.4676  -19.4830 N   0  0  0  0  0  0  0  0  0  0  0  0
   20.3528  -14.7322  -17.1798 C   0  0  0  0  0  0  0  0  0  0  0  0
   19.4178  -15.4132  -17.6794 O   0  0  0  0  0  0  0  0  0  0  0  0
   18.5686  -12.5460  -14.4203 O   0  0  0  0  0  0  0  0  0  0  0  0
   18.5256  -11.9312  -15.6672 C   0  0  0  0  0  0  0  0  0  0  0  0
   18.6775  -12.9647  -16.7787 C   0  0  2  0  0  0  0  0  0  0  0  0
   20.0625  -13.4397  -16.7215 N   0  0  0  0  0  0  0  0  0  0  0  0
   18.4219  -12.3000  -18.0586 C   0  0  0  0  0  0  0  0  0  0  0  0
   17.1433  -12.0722  -18.5459 O   0  0  0  0  0  0  0  0  0  0  0  0
   19.3748  -11.9041  -18.7762 O   0  0  0  0  0  0  0  0  0  0  0  0
  2  1  1  1
  3  2  1  0
  4  5  1  0
  4  3  1  0
  5  6  1  0
  6  7  1  0
  8  2  1  0
  8  9  2  0
 10  8  1  0
 11 12  1  6
 11 10  1  0
 13 17  1  0
 13 12  1  0
 14 13  2  0
 15 14  1  0
 15 16  1  0
 16 17  2  0
 18 11  1  0
 19 18  2  0
 21 20  1  0
 22 21  1  1
 22 23  1  0
 23 18  1  0
 24 22  1  0
 24 25  1  0
 26 24  2  0
M  END
$$$$
