KHS.pdb
     RDKit          3D

 26 26  0  0  1  0  0  0  0  0999 V2000
   28.8508  -24.3503  -17.8414 N   0  0  0  0  0  0  0  0  0  0  0  0
   27.5551  -23.8272  -17.4634 C   0  0  1  0  0  0  0  0  0  0  0  0
   26.6642  -24.9827  -17.1211 C   0  0  0  0  0  0  0  0  0  0  0  0
   27.4376  -26.1655  -16.5828 C   0  0  0  0  0  0  0  0  0  0  0  0
   27.3180  -27.3677  -17.4961 C   0  0  0  0  0  0  0  0  0  0  0  0
   27.9727  -28.5889  -16.8923 C   0  0  0  0  0  0  0  0  0  0  0  0
   27.9136  -29.7395  -17.7647 N   0  0  0  0  0  0  0  0  0  0  0  0
   27.7081  -22.8689  -16.3401 C   0  0  0  0  0  0  0  0  0  0  0  0
   28.8026  -22.7635  -15.7076 O   0  0  0  0  0  0  0  0  0  0  0  0
   26.6529  -22.0568  -15.9478 N   0  0  0  0  0  0  0  0  0  0  0  0
   26.7604  -20.9920  -14.9037 C   0  0  1  0  0  0  0  0  0  0  0  0
   26.2536  -19.7851  -15.6589 C   0  0  0  0  0  0  0  0  0  0  0  0
   27.1991  -18.9754  -16.3918 C   0  0  0  0  0  0  0  0  0  0  0  0
   28.5796  -19.2598  -16.3705 C   0  0  0  0  0  0  0  0  0  0  0  0
   29.1869  -18.3549  -17.1280 N   0  0  0  0  0  0  0  0  0  0  0  0
   28.2408  -17.5262  -17.6146 C   0  0  0  0  0  0  0  0  0  0  0  0
   27.0492  -17.9177  -17.1587 N   0  0  0  0  0  0  0  0  0  0  0  0
   25.8521  -21.3193  -13.8154 C   0  0  0  0  0  0  0  0  0  0  0  0
   24.7891  -21.9477  -14.0659 O   0  0  0  0  0  0  0  0  0  0  0  0
   24.7633  -20.9551   -9.1088 O   0  0  0  0  0  0  0  0  0  0  0  0
   25.6868  -20.7796  -10.1340 C   0  0  0  0  0  0  0  0  0  0  0  0
   25.0984  -21.2309  -11.4669 C   0  0  2  0  0  0  0  0  0  0  0  0
   26.1187  -20.9672  -12.4850 N   0  0  0  0  0  0  0  0  0  0  0  0
   23.8998  -20.4317  -11.7312 C   0  0  0  0  0  0  0  0  0  0  0  0
   22.6237  -20.8525  -11.3866 O   0  0  0  0  0  0  0  0  0  0  0  0
   23.9886  -19.3107  -12.2926 O   0  0  0  0  0  0  0  0  0  0  0  0
  2  1  1  1
  3  2  1  0
  4  5  1  0
  4  3  1  0
  5  6  1  0
  6  7  1  0
  8  2  1  0
  8  9  2  0
 10  8  1  0
 11 12  1  6
 11 10  1  0
 13 17  1  0
 13 12  1  0
 14 13  2  0
 15 14  1  0
 15 16  1  0
 16 17  2  0
 18 11  1  0
 19 18  2  0
 21 20  1  0
 22 21  1  1
 22 23  1  0
 23 18  1  0
 24 22  1  0
 24 25  1  0
 26 24  2  0
M  END
$$$$
