KHS.pdb
     RDKit          3D

 26 26  0  0  1  0  0  0  0  0999 V2000
   22.8367  -13.0142  -18.2146 N   0  0  0  0  0  0  0  0  0  0  0  0
   21.9297  -11.9144  -18.4660 C   0  0  1  0  0  0  0  0  0  0  0  0
   20.5499  -12.4737  -18.6373 C   0  0  0  0  0  0  0  0  0  0  0  0
   20.3513  -13.1090  -19.9953 C   0  0  0  0  0  0  0  0  0  0  0  0
   20.4691  -14.6173  -19.9239 C   0  0  0  0  0  0  0  0  0  0  0  0
   20.3327  -15.2484  -21.2905 C   0  0  0  0  0  0  0  0  0  0  0  0
   20.4331  -16.6895  -21.2494 N   0  0  0  0  0  0  0  0  0  0  0  0
   22.0156  -10.9291  -17.3591 C   0  0  0  0  0  0  0  0  0  0  0  0
   21.6953  -11.2411  -16.1720 O   0  0  0  0  0  0  0  0  0  0  0  0
   22.4508   -9.6318  -17.5923 N   0  0  0  0  0  0  0  0  0  0  0  0
   22.6304   -8.6045  -16.5210 C   0  0  1  0  0  0  0  0  0  0  0  0
   24.0861   -8.2406  -16.7012 C   0  0  0  0  0  0  0  0  0  0  0  0
   25.0964   -9.1499  -16.2122 C   0  0  0  0  0  0  0  0  0  0  0  0
   24.7488  -10.3469  -15.5538 C   0  0  0  0  0  0  0  0  0  0  0  0
   25.8763  -10.9654  -15.2253 N   0  0  0  0  0  0  0  0  0  0  0  0
   26.9023  -10.2017  -15.6526 C   0  0  0  0  0  0  0  0  0  0  0  0
   26.4104   -9.1116  -16.2450 N   0  0  0  0  0  0  0  0  0  0  0  0
   21.7863   -7.4611  -16.8315 C   0  0  0  0  0  0  0  0  0  0  0  0
   21.6747   -7.0827  -18.0282 O   0  0  0  0  0  0  0  0  0  0  0  0
   18.2658   -4.4960  -15.4352 O   0  0  0  0  0  0  0  0  0  0  0  0
   19.0756   -5.6048  -15.2129 C   0  0  0  0  0  0  0  0  0  0  0  0
   20.1905   -5.6697  -16.2518 C   0  0  2  0  0  0  0  0  0  0  0  0
   21.0788   -6.7615  -15.8442 N   0  0  0  0  0  0  0  0  0  0  0  0
   20.9108   -4.3946  -16.2293 C   0  0  0  0  0  0  0  0  0  0  0  0
   20.3679   -3.2150  -16.7171 O   0  0  0  0  0  0  0  0  0  0  0  0
   22.0730   -4.3239  -15.7560 O   0  0  0  0  0  0  0  0  0  0  0  0
  2  1  1  1
  3  2  1  0
  4  5  1  0
  4  3  1  0
  5  6  1  0
  6  7  1  0
  8  2  1  0
  8  9  2  0
 10  8  1  0
 11 12  1  6
 11 10  1  0
 13 17  1  0
 13 12  1  0
 14 13  2  0
 15 14  1  0
 15 16  1  0
 16 17  2  0
 18 11  1  0
 19 18  2  0
 21 20  1  0
 22 21  1  1
 22 23  1  0
 23 18  1  0
 24 22  1  0
 24 25  1  0
 26 24  2  0
M  END
$$$$
