KHS.pdb
     RDKit          3D

 26 26  0  0  1  0  0  0  0  0999 V2000
   19.0676  -13.0090  -17.9447 N   0  0  0  0  0  0  0  0  0  0  0  0
   19.5658  -12.2807  -16.7973 C   0  0  1  0  0  0  0  0  0  0  0  0
   20.8988  -12.8529  -16.4208 C   0  0  0  0  0  0  0  0  0  0  0  0
   20.7716  -14.0774  -15.5423 C   0  0  0  0  0  0  0  0  0  0  0  0
   20.9321  -15.3528  -16.3432 C   0  0  0  0  0  0  0  0  0  0  0  0
   20.7608  -16.5774  -15.4739 C   0  0  0  0  0  0  0  0  0  0  0  0
   20.9167  -17.8095  -16.2131 N   0  0  0  0  0  0  0  0  0  0  0  0
   19.6323  -10.8315  -17.1120 C   0  0  0  0  0  0  0  0  0  0  0  0
   20.1847  -10.4118  -18.1739 O   0  0  0  0  0  0  0  0  0  0  0  0
   19.0894   -9.8895  -16.2489 N   0  0  0  0  0  0  0  0  0  0  0  0
   19.0003   -8.4286  -16.5542 C   0  0  1  0  0  0  0  0  0  0  0  0
   17.5063   -8.2066  -16.5050 C   0  0  0  0  0  0  0  0  0  0  0  0
   16.7122   -8.5581  -17.6593 C   0  0  0  0  0  0  0  0  0  0  0  0
   17.3089   -9.0523  -18.8370 C   0  0  0  0  0  0  0  0  0  0  0  0
   16.3377   -9.2834  -19.7116 N   0  0  0  0  0  0  0  0  0  0  0  0
   15.1697   -8.9532  -19.1240 C   0  0  0  0  0  0  0  0  0  0  0  0
   15.4176   -8.5182  -17.8869 N   0  0  0  0  0  0  0  0  0  0  0  0
   19.6516   -7.6924  -15.4817 C   0  0  0  0  0  0  0  0  0  0  0  0
   19.6372   -8.1623  -14.3127 O   0  0  0  0  0  0  0  0  0  0  0  0
   23.2730   -5.5391  -13.8141 O   0  0  0  0  0  0  0  0  0  0  0  0
   22.4986   -6.1913  -14.7677 C   0  0  0  0  0  0  0  0  0  0  0  0
   21.0239   -5.8469  -14.5857 C   0  0  2  0  0  0  0  0  0  0  0  0
   20.3077   -6.4731  -15.7003 N   0  0  0  0  0  0  0  0  0  0  0  0
   20.8839   -4.3902  -14.6475 C   0  0  0  0  0  0  0  0  0  0  0  0
   20.9776   -3.5772  -13.5275 O   0  0  0  0  0  0  0  0  0  0  0  0
   20.6689   -3.8135  -15.7433 O   0  0  0  0  0  0  0  0  0  0  0  0
  2  1  1  6
  3  2  1  0
  4  5  1  0
  4  3  1  0
  5  6  1  0
  6  7  1  0
  8  2  1  0
  8  9  2  0
 10  8  1  0
 11 12  1  1
 11 10  1  0
 13 17  1  0
 13 12  1  0
 14 13  2  0
 15 14  1  0
 15 16  1  0
 16 17  2  0
 18 11  1  0
 19 18  2  0
 21 20  1  0
 22 21  1  6
 22 23  1  0
 23 18  1  0
 24 22  1  0
 24 25  1  0
 26 24  2  0
M  END
$$$$
