KHS.pdb
     RDKit          3D

 26 26  0  0  1  0  0  0  0  0999 V2000
   25.2244  -34.7831  -13.1965 N   0  0  0  0  0  0  0  0  0  0  0  0
   24.1556  -35.1306  -12.2843 C   0  0  1  0  0  0  0  0  0  0  0  0
   23.8474  -36.5872  -12.4555 C   0  0  0  0  0  0  0  0  0  0  0  0
   22.6108  -36.8186  -13.2949 C   0  0  0  0  0  0  0  0  0  0  0  0
   22.2332  -38.2849  -13.3324 C   0  0  0  0  0  0  0  0  0  0  0  0
   21.0788  -38.5351  -14.2755 C   0  0  0  0  0  0  0  0  0  0  0  0
   20.7500  -39.9376  -14.3911 N   0  0  0  0  0  0  0  0  0  0  0  0
   24.5494  -34.7874  -10.8947 C   0  0  0  0  0  0  0  0  0  0  0  0
   25.7606  -34.5698  -10.5871 O   0  0  0  0  0  0  0  0  0  0  0  0
   23.5990  -34.6945   -9.8873 N   0  0  0  0  0  0  0  0  0  0  0  0
   23.8923  -34.2130   -8.5025 C   0  0  1  0  0  0  0  0  0  0  0  0
   22.7311  -33.2760   -8.2630 C   0  0  0  0  0  0  0  0  0  0  0  0
   22.8507  -31.8985   -8.6810 C   0  0  0  0  0  0  0  0  0  0  0  0
   24.0386  -31.4088   -9.2611 C   0  0  0  0  0  0  0  0  0  0  0  0
   23.8494  -30.1246   -9.5379 N   0  0  0  0  0  0  0  0  0  0  0  0
   22.5975  -29.8025   -9.1537 C   0  0  0  0  0  0  0  0  0  0  0  0
   22.0124  -30.8863   -8.6396 N   0  0  0  0  0  0  0  0  0  0  0  0
   23.8166  -35.3467   -7.5940 C   0  0  0  0  0  0  0  0  0  0  0  0
   22.9609  -36.2480   -7.8009 O   0  0  0  0  0  0  0  0  0  0  0  0
   26.2218  -35.4877   -4.3935 O   0  0  0  0  0  0  0  0  0  0  0  0
   25.8002  -36.7500   -4.7980 C   0  0  0  0  0  0  0  0  0  0  0  0
   24.5178  -36.6483   -5.6176 C   0  0  2  0  0  0  0  0  0  0  0  0
   24.6713  -35.4818   -6.4911 N   0  0  0  0  0  0  0  0  0  0  0  0
   23.3997  -36.4460   -4.6934 C   0  0  0  0  0  0  0  0  0  0  0  0
   23.0187  -37.3935   -3.7546 O   0  0  0  0  0  0  0  0  0  0  0  0
   22.7313  -35.3819   -4.7200 O   0  0  0  0  0  0  0  0  0  0  0  0
  2  1  1  6
  3  2  1  0
  4  5  1  0
  4  3  1  0
  5  6  1  0
  6  7  1  0
  8  2  1  0
  8  9  2  0
 10  8  1  0
 11 12  1  1
 11 10  1  0
 13 17  1  0
 13 12  1  0
 14 13  2  0
 15 14  1  0
 15 16  1  0
 16 17  2  0
 18 11  1  0
 19 18  2  0
 21 20  1  0
 22 21  1  1
 22 23  1  0
 23 18  1  0
 24 22  1  0
 24 25  1  0
 26 24  2  0
M  END
$$$$
