KHS.pdb
     RDKit          3D

 26 26  0  0  1  0  0  0  0  0999 V2000
   30.0641  -33.8944  -15.6897 N   0  0  0  0  0  0  0  0  0  0  0  0
   29.2828  -32.8849  -16.3721 C   0  0  1  0  0  0  0  0  0  0  0  0
   27.8327  -33.2304  -16.2184 C   0  0  0  0  0  0  0  0  0  0  0  0
   27.5062  -34.6002  -16.7698 C   0  0  0  0  0  0  0  0  0  0  0  0
   26.0184  -34.8790  -16.7158 C   0  0  0  0  0  0  0  0  0  0  0  0
   25.6748  -36.1839  -17.3966 C   0  0  0  0  0  0  0  0  0  0  0  0
   24.2667  -36.4990  -17.3151 N   0  0  0  0  0  0  0  0  0  0  0  0
   29.6129  -31.5427  -15.8306 C   0  0  0  0  0  0  0  0  0  0  0  0
   30.1236  -31.4040  -14.6777 O   0  0  0  0  0  0  0  0  0  0  0  0
   29.3710  -30.3955  -16.5737 N   0  0  0  0  0  0  0  0  0  0  0  0
   29.6833  -29.0117  -16.1015 C   0  0  1  0  0  0  0  0  0  0  0  0
   31.1822  -29.0902  -15.9261 C   0  0  0  0  0  0  0  0  0  0  0  0
   32.0095  -29.2950  -17.0924 C   0  0  0  0  0  0  0  0  0  0  0  0
   31.8495  -30.4286  -17.9150 C   0  0  0  0  0  0  0  0  0  0  0  0
   32.7398  -30.3410  -18.8954 N   0  0  0  0  0  0  0  0  0  0  0  0
   33.4406  -29.2035  -18.7124 C   0  0  0  0  0  0  0  0  0  0  0  0
   32.9845  -28.5876  -17.6197 N   0  0  0  0  0  0  0  0  0  0  0  0
   29.3518  -28.0755  -17.1644 C   0  0  0  0  0  0  0  0  0  0  0  0
   29.2208  -28.5005  -18.3433 O   0  0  0  0  0  0  0  0  0  0  0  0
   25.8869  -25.1247  -16.8789 O   0  0  0  0  0  0  0  0  0  0  0  0
   27.0036  -25.8041  -16.4035 C   0  0  0  0  0  0  0  0  0  0  0  0
   28.0062  -26.0387  -17.5288 C   0  0  2  0  0  0  0  0  0  0  0  0
   29.1625  -26.7071  -16.9261 N   0  0  0  0  0  0  0  0  0  0  0  0
   28.3990  -24.7355  -18.0699 C   0  0  0  0  0  0  0  0  0  0  0  0
   29.6128  -24.1329  -17.7739 O   0  0  0  0  0  0  0  0  0  0  0  0
   27.6314  -24.1037  -18.8390 O   0  0  0  0  0  0  0  0  0  0  0  0
  2  1  1  1
  3  2  1  0
  4  5  1  0
  4  3  1  0
  5  6  1  0
  6  7  1  0
  8  2  1  0
  8  9  2  0
 10  8  1  0
 11 12  1  6
 11 10  1  0
 13 17  1  0
 13 12  1  0
 14 13  2  0
 15 14  1  0
 15 16  1  0
 16 17  2  0
 18 11  1  0
 19 18  2  0
 21 20  1  0
 22 21  1  1
 22 23  1  0
 23 18  1  0
 24 22  1  0
 24 25  1  0
 26 24  2  0
M  END
$$$$
